#------------------------------------------------------------------------------
#$Date: 2022-07-04 12:21:41 +0300 (Mon, 04 Jul 2022) $
#$Revision: 276532 $
#$URL: file:///home/coder/svn-repositories/cod/cif/8/10/56/8105632.cif $
#------------------------------------------------------------------------------
#
# This file is available in the Crystallography Open Database (COD),
# http://www.crystallography.net/
#
# All data on this site have been placed in the public domain by the
# contributors.
#
data_8105632
loop_
_publ_author_name
'Al-Sehemi, Abdullah G.'
'Pannipara, Mehboobali'
'Asiri, Abdullah M.'
'Arshad, Muhammad Nadeem'
'Kalam, Abul'
_publ_section_title
;
 The crystal structure of
 2-((3-methylthiophen-2-yl)methylene)malononitrile, C9H6N2S
;
_journal_issue                   2
_journal_name_full
'Zeitschrift f\"ur Kristallographie - New Crystal Structures'
_journal_page_first              327
_journal_page_last               328
_journal_paper_doi               10.1515/ncrs-2018-0379
_journal_volume                  234
_journal_year                    2019
_chemical_absolute_configuration rm
_chemical_formula_moiety         'C9 H6 N2 S'
_chemical_formula_sum            'C9 H6 N2 S'
_chemical_formula_weight         174.22
_chemical_name_common
;
[(3-Methylthiophen-2-yl)methylidene]propanedinitrile
;
_chemical_name_systematic
;
[(3-Methylthiophen-2-yl)methylidene]propanedinitrile
;
_space_group_crystal_system      triclinic
_space_group_IT_number           2
_space_group_name_Hall           '-P 1'
_space_group_name_H-M_alt        'P -1'
_atom_sites_solution_hydrogens   geom
_cell_angle_alpha                86.522(11)
_cell_angle_beta                 87.209(10)
_cell_angle_gamma                80.673(10)
_cell_formula_units_Z            2
_cell_length_a                   3.9497(4)
_cell_length_b                   9.0268(13)
_cell_length_c                   12.2935(16)
_cell_measurement_reflns_used    1122
_cell_measurement_temperature    296(2)
_cell_measurement_theta_max      29.0992
_cell_measurement_theta_min      2.8966
_cell_volume                     431.37(10)
_computing_cell_refinement       'CrysAlis PRO (Agilent, 2012)'
_computing_data_collection       'CrysAlis PRO (Agilent, 2012)'
_computing_data_reduction        'CrysAlis PRO (Agilent, 2012)'
_computing_molecular_graphics    'ORTEP [4] and PLATON [5]'
_computing_structure_refinement  'SHELXL-2016/16 (Sheldrick, 2015)[3]'
_computing_structure_solution    'SHELXL-2016/16 (Sheldrick, 2015)[2]'
_diffrn_ambient_temperature      296(3)
_diffrn_detector                 'CCD plate'
_diffrn_measured_fraction_theta_full 0.998
_diffrn_measured_fraction_theta_max 0.856
_diffrn_measurement_device       'four-circle diffractometer'
_diffrn_measurement_device_type  'SuperNova, Dual, Cu at zero, Atlas, CCD'
_diffrn_measurement_method       '\w scans'
_diffrn_radiation_monochromator  graphite
_diffrn_radiation_probe          x-ray
_diffrn_radiation_type           'Mo K\a'
_diffrn_radiation_wavelength     0.71073
_diffrn_reflns_av_R_equivalents  0.0184
_diffrn_reflns_av_unetI/netI     0.0435
_diffrn_reflns_Laue_measured_fraction_full 0.998
_diffrn_reflns_Laue_measured_fraction_max 0.856
_diffrn_reflns_limit_h_max       4
_diffrn_reflns_limit_h_min       -5
_diffrn_reflns_limit_k_max       6
_diffrn_reflns_limit_k_min       -12
_diffrn_reflns_limit_l_max       15
_diffrn_reflns_limit_l_min       -15
_diffrn_reflns_number            3141
_diffrn_reflns_point_group_measured_fraction_full 0.998
_diffrn_reflns_point_group_measured_fraction_max 0.856
_diffrn_reflns_theta_full        26.000
_diffrn_reflns_theta_max         29.133
_diffrn_reflns_theta_min         2.900
_diffrn_source                   'fine-focus sealed tube'
_exptl_absorpt_coefficient_mu    0.315
_exptl_absorpt_correction_T_max  1.00000
_exptl_absorpt_correction_T_min  0.85871
_exptl_absorpt_correction_type   multi-scan
_exptl_absorpt_process_details
;
CrysAlisPro, Agilent Technologies,
Version 1.171.36.20 (release 27-06-2012 CrysAlis171 .NET)
(compiled Jul 11 2012,15:38:31)
Empirical absorption correction using spherical harmonics,
 implemented in SCALE3 ABSPACK scaling algorithm.
;
_exptl_crystal_colour            orange
_exptl_crystal_density_diffrn    1.341
_exptl_crystal_density_method    'not measured'
_exptl_crystal_description       plate
_exptl_crystal_F_000             180
_exptl_crystal_size_max          0.40
_exptl_crystal_size_mid          0.18
_exptl_crystal_size_min          0.03
_refine_diff_density_max         0.236
_refine_diff_density_min         -0.218
_refine_diff_density_rms         0.045
_refine_ls_abs_structure_details .
_refine_ls_extinction_coef       .
_refine_ls_extinction_method     none
_refine_ls_goodness_of_fit_ref   1.054
_refine_ls_hydrogen_treatment    constr
_refine_ls_matrix_type           full
_refine_ls_number_parameters     110
_refine_ls_number_reflns         2002
_refine_ls_number_restraints     0
_refine_ls_restrained_S_all      1.054
_refine_ls_R_factor_all          0.0747
_refine_ls_R_factor_gt           0.0496
_refine_ls_shift/su_max          0.000
_refine_ls_shift/su_mean         0.000
_refine_ls_structure_factor_coef Fsqd
_refine_ls_weighting_details
'w=1/[\s^2^(Fo^2^)+(0.015P)^2^+3.2P] where P=(Fo^2^+2Fc^2^)/3'
_refine_ls_weighting_scheme      calc
_refine_ls_wR_factor_gt          0.1098
_refine_ls_wR_factor_ref         0.1227
_reflns_Friedel_coverage         0.000
_reflns_Friedel_fraction_full    .
_reflns_Friedel_fraction_max     .
_reflns_number_gt                1432
_reflns_number_total             2002
_reflns_threshold_expression     'I > 2\s(I)'
_cod_data_source_file            suppl_ncrs-2018-0379_suppl.cif
_cod_data_source_block           exp_1115
_cod_database_code               8105632
_shelx_space_group_comment
;
The symmetry employed for this shelxl refinement is uniquely defined
by the following loop, which should always be used as a source of
symmetry information in preference to the above space-group names.
They are only intended as comments.
;
_shelx_res_file
;

exp_15101.res created by SHELXL-2016/6 at 16:08:53 on 06-May-2018


TITL exp_15101.res in P -1
CELL  0.71073   3.9497   9.0268  12.2935   86.522   87.209   80.673
ZERR     2.00   0.0004   0.0013   0.0016    0.011    0.010    0.010
LATT   1
SFAC  C    H    N    S
UNIT  18 12 4 2
MERG   2
EQIV $1 -x+3, -y, -z+1
HTAB C5 N1_$1
EQIV $2 -x+1, -y, -z+2
HTAB C4 N2_$2
FMAP   2
PLAN   20
SIZE     0.030   0.180   0.400
ACTA    52.00
HTAB    2.00000
BOND   $H
CONF
MPLA C1 C2 C3 C4 C5 C6 C7 C8 S1 N1 N2
MPLA C1 C2 C3 C4 C5
MPLA C6 C7 C8 N1 N2
L.S.  20
TEMP    23.00
WGHT    0.046900    0.117100
FVAR       9.07308
C1    1    0.840220    0.193444    0.762498    11.00000    0.04273    0.04366 =
         0.03529   -0.00144    0.00024   -0.00732
C2    1    0.766279    0.348732    0.746364    11.00000    0.04349    0.04851 =
         0.04514   -0.00540   -0.00270   -0.00567
C3    1    0.573767    0.414503    0.835558    11.00000    0.05976    0.05157 =
         0.05935   -0.01730    0.00156   -0.00134
AFIX  43
H3    2    0.499989    0.517416    0.838691    11.00000   -1.20000
AFIX   0
C4    1    0.506865    0.313600    0.916004    11.00000    0.05617    0.07371 =
         0.05052   -0.01983    0.00942   -0.01005
AFIX  43
H4    2    0.382893    0.339822    0.980138    11.00000   -1.20000
AFIX   0
C5    1    1.029998    0.095954    0.686991    11.00000    0.04391    0.04593 =
         0.03460    0.00218    0.00021   -0.00730
AFIX  43
H5    2    1.115141    0.144226    0.625061    11.00000   -1.20000
AFIX   0
C6    1    1.107180   -0.056141    0.690566    11.00000    0.04364    0.04326 =
         0.03796   -0.00006   -0.00133   -0.00624
C7    1    1.305231   -0.131842    0.603503    11.00000    0.05391    0.04146 =
         0.04663    0.00026   -0.00041   -0.00509
C8    1    0.998111   -0.154018    0.776680    11.00000    0.06087    0.04205 =
         0.05157   -0.00167    0.00257   -0.00768
C9    1    0.872628    0.436964    0.646856    11.00000    0.07043    0.04495 =
         0.06227    0.00361    0.00012   -0.00854
AFIX 137
H9A   2    1.088037    0.387309    0.617444    11.00000   -1.50000
H9B   2    0.896778    0.536081    0.666167    11.00000   -1.50000
H9C   2    0.701171    0.444003    0.593236    11.00000   -1.50000
AFIX   0
N1    3    1.463537   -0.192963    0.534865    11.00000    0.08080    0.05498 =
         0.05818   -0.00933    0.01185   -0.00301
N2    3    0.912838   -0.234750    0.843474    11.00000    0.10991    0.05859 =
         0.07233    0.00875    0.02031   -0.01831
S1    4    0.672498    0.133809    0.887986    11.00000    0.05630    0.06357 =
         0.03926   -0.00085    0.00604   -0.01404
HKLF    4




REM  15101
REM R1 =  0.0496 for    1432 Fo > 4sig(Fo)  and  0.0747 for all    2002 data
REM    110 parameters refined using      0 restraints

END  
     
WGHT      0.0469      0.1171 

REM Instructions for potential hydrogen bonds
HTAB C4 N2_$2
HTAB C5 N1_$1

REM Highest difference peak  0.236,  deepest hole -0.218,  1-sigma level  0.045
Q1    1   1.1174  0.4616  0.6668  11.00000  0.05    0.24
Q2    1   0.9206  0.3695  0.5702  11.00000  0.05    0.21
Q3    1   0.6036  0.5419  0.6232  11.00000  0.05    0.20
Q4    1   1.1096 -0.2055  0.8506  11.00000  0.05    0.19
Q5    1   0.8238  0.1631  0.8216  11.00000  0.05    0.18
Q6    1   1.3194 -0.2136  0.5792  11.00000  0.05    0.17
Q7    1   0.7159 -0.1853  0.8965  11.00000  0.05    0.16
Q8    1   0.9531  0.1499  0.7356  11.00000  0.05    0.16
Q9    1   0.8036  0.3924  0.6959  11.00000  0.05    0.16
Q10   1   1.5867 -0.0992  0.6000  11.00000  0.05    0.14
Q11   1   1.1884 -0.1246  0.7595  11.00000  0.05    0.14
Q12   1   0.6871  0.3844  0.7797  11.00000  0.05    0.13
Q13   1   0.9812  0.1833  0.9074  11.00000  0.05    0.13
Q14   1   0.8462  0.0277  0.9302  11.00000  0.05    0.13
Q15   1   0.8138  0.1221  0.7276  11.00000  0.05    0.13
Q16   1   0.4354  0.1066  0.8881  11.00000  0.05    0.13
Q17   1   1.4061 -0.2652  0.4623  11.00000  0.05    0.13
Q18   1   1.0339 -0.1028  0.7292  11.00000  0.05    0.13
Q19   1   0.2912  0.3000  0.9854  11.00000  0.05    0.12
Q20   1   1.1333 -0.1086  0.6468  11.00000  0.05    0.12

;
_shelx_hkl_file
;
   0   0   2 88787.4 662.206   3
   0   0   3 21335.8 403.565   3
   0   0   4 47730.8 696.102   3
   0   0   4 47647.3 283.142   2
   0   0   5 30275.7 622.750   3
   0   0   5 30782.8 251.890   2
   0   0   6 3968.56 261.238   3
   0   0   6 3396.58 92.9991   2
   0   0   7 802.577 50.2012   2
   0   0   7 1689.79 202.089   3
   0   0   8 7453.44 142.630   2
   0   0   8 8124.09 418.142   3
   0   0   9 11449.6 530.516   3
   0   0  10 1768.19 239.756   3
   0   0  11 753.342 183.381   3
   0   0  12 245.751 137.119   3
   0   0  13 532.108 162.497   3
   0   0  14 4720.03 458.831   3
   0   0  15 1153.09 259.216   3
   0  -1  15 387.611 173.889   3
   0  -1  14 1947.51 323.304   3
   0  -1  13 455.520 153.187   3
   0  -1  12 10456.9 608.305   3
   0   1 -11 3892.31 168.485   1
   0  -1  11 3843.57 357.063   3
   0   1 -10 2780.76 138.515   1
   0  -1  10 2736.78 286.630   3
   0   1  -9 8909.48 230.513   1
   0  -1   9 8867.31 473.290   3
   0  -1   8 7462.21 410.296   3
   0  -1   7 45552.3 924.212   3
   0  -1   6-16.3246 92.4720   3
   0  -1   5 25700.3 582.837   3
   0  -1   4 75253.6 897.820   3
   0   1  -4 75410.4 372.389   1
   0  -1   3 1466.52 128.680   3
   0  -1   2 56398.0 573.725   3
   0  -1   1 46299.8 269.709   2
   0   1   2 40205.7 487.882   3
   0  -1  -2 40025.7 328.570   2
   0  -1  -3 972.732 103.040   2
   0   1   3 1045.28 111.992   3
   0   1   3 1114.69 72.4218   2
   0  -1  -4 54034.8 452.955   2
   0   1   4 54261.3 762.748   3
   0   1   4 53456.7 452.165   2
   0   1   5 24149.4 569.398   3
   0   1   5 23979.8 322.781   2
   0  -1  -5 24122.4 331.263   2
   0  -1  -6 14325.7 280.083   2
   0   1   6 14437.9 264.870   2
   0   1   6 15154.1 492.863   3
   0   1   7 16922.3 301.195   2
   0  -1  -7 16450.5 310.447   2
   0   1   7 17169.0 566.186   3
   0   1   8 3726.52 292.832   3
   0   1   8 3825.20 153.773   2
   0   1   9 9124.52 477.116   3
   0   1   9 8515.41 233.151   2
   0   1  10 22301.9 376.880   2
   0   1  10 21950.6 779.087   3
   0   1  11 2406.46 282.757   3
   0   1  12-52.7305 118.266   3
   0   1  13 1039.25 213.761   3
   0   1  14 1935.40 318.181   3
   0   1  15 2274.80 328.662   3
   0  -2  15 1169.95 275.038   3
   0  -2  14 568.616 179.823   3
   0  -2  13 288.747 138.925   3
   0  -2  12 3794.83 386.057   3
   0  -2  11 6191.75 456.243   3
   0  -2  10 3868.95 351.907   3
   0  -2   9-47.8917 99.2052   3
   0  -2   8 16.9269 91.1978   3
   0  -2   7 11427.9 479.484   3
   0  -2   6 61179.4 1025.51   3
   0  -2   5 3956.00 89.2175   2
   0   2  -5 3949.66 96.7915   2
   0  -2   5 4413.14 263.484   3
   0  -2   4 52023.1 352.056   2
   0  -2   4 53913.6 812.278   3
   0   2  -4 52805.0 396.051   2
   0   2  -3 29823.7 314.835   2
   0  -2   3 29631.2 285.126   2
   0  -2   3 30284.1 556.790   3
   0   2  -2 74218.5 518.694   2
   0  -2   2 74261.9 480.201   2
   0  -2   1 1324.48 92.2185   2
   0  -2   0 29736.1 348.568   2
   0  -2  -1 67827.0 544.639   2
   0  -2  -2 24693.3 347.178   2
   0  -2  -3 93757.2 700.398   2
   0   2   3 95444.6 964.719   3
   0   2   3 91901.7 713.183   2
   0   2   4 4494.54 171.712   2
   0  -2  -4 4676.15 205.023   2
   0   2   4 4872.75 251.132   3
   0  -2  -5 10895.4 293.058   2
   0   2   5 11418.6 412.639   3
   0   2   5 10784.9 273.475   2
   0  -2  -6 973.650 153.382   2
   0   2   6 777.699 91.2268   2
   0   2   6 969.243 148.021   3
   0  -2  -7 5795.71 241.802   2
   0   2   7 5782.60 215.165   2
   0   2   7 5893.64 348.044   3
   0  -2  -8 14060.7 359.014   2
   0   2   8 14014.8 343.694   2
   0   2   8 14698.5 575.919   3
   0   2   9 1069.55 105.285   2
   0   2   9 1190.90 193.752   3
   0   2  10 14429.3 376.951   2
   0   2  10 14095.5 634.536   3
   0   2  11 3895.86 361.783   3
   0   2  12 2542.25 314.585   3
   0   2  13 181.310 119.114   3
   0   2  14 299.522 128.154   3
   0   2  15 2386.33 345.872   3
   0  -3  14 1756.59 317.085   3
   0  -3  13-226.571 160.447   3
   0  -3  12 361.221 164.355   3
   0  -3  11 220.676 124.428   3
   0  -3  10 1489.53 232.376   3
   0  -3   9 14860.7 643.412   3
   0  -3   8 5027.82 360.343   3
   0  -3   7 49.5334 99.1221   3
   0   3  -6 14973.0 254.900   2
   0  -3   6 16261.4 563.747   3
   0  -3   6 15225.2 231.664   2
   0  -3   5 19166.4 569.908   3
   0   3  -5 19254.6 306.963   2
   0  -3   5 19501.4 285.813   2
   0  -3   4 18893.2 300.460   2
   0  -3   4 18766.3 229.266   1
   0   3  -4 18866.1 319.929   2
   0  -3   4 19369.8 534.401   3
   0  -3   3 1900.71 176.411   3
   0  -3   3 1302.98 81.6521   1
   0  -3   3 1431.32 115.153   2
   0   3  -3 1167.91 88.0311   2
   0   3  -2 19342.9 338.509   2
   0  -3   2 19871.9 327.092   2
   0  -3   1 23829.0 372.784   2
   0  -3   0 111486. 809.727   2
   0  -3  -1 56151.3 608.858   2
   0  -3  -2 22037.8 396.608   2
   0  -3  -3 78289.5 757.804   2
   0   3   4 6355.58 311.138   3
   0   3   4 5415.61 225.195   2
   0  -3  -4 5145.02 259.061   2
   0   3   5 23980.4 621.871   3
   0  -3  -5 23757.0 468.386   2
   0   3   5 23913.0 464.648   2
   0  -3  -6 7155.90 296.575   2
   0   3   6 7438.02 273.210   2
   0   3   6 8036.37 389.107   3
   0   3   7 1821.49 142.026   2
   0  -3  -7 1754.43 205.572   2
   0   3   7 1756.81 205.571   3
   0   3   8 11133.6 515.116   3
   0  -3  -8 9944.28 362.100   2
   0   3   8 10198.4 335.311   2
   0   3   9 2282.69 166.358   2
   0   3   9 2040.86 249.510   3
   0  -3  -9 2236.93 228.532   2
   0   3  10 722.509 174.567   3
   0   3  10 660.186 98.1866   2
   0   3  11 787.832 195.917   3
   0   3  12 7668.45 533.080   3
   0   3  13 775.726 202.584   3
   0   3  14 486.614 176.052   3
   0   3  15 141.988 125.899   3
   0  -4  14 2361.11 355.311   3
   0  -4  13 1005.68 250.139   3
   0  -4  12 1618.45 269.714   3
   0  -4  11 152.549 150.011   3
   0  -4  10 1637.48 246.797   3
   0  -4   9 3818.72 352.465   3
   0  -4   8 4957.39 376.959   3
   0  -4   7 205.105 127.425   3
   0   4  -7 409.885 54.6267   2
   0   4  -6 13526.4 307.061   2
   0  -4   6 14715.2 568.232   3
   0  -4   6 14070.6 303.614   2
   0  -4   5 672.832 53.5823   1
   0  -4   5 813.139 128.727   2
   0   4  -5 642.688 74.8936   2
   0  -4   5 610.908 131.971   3
   0  -4   4 15543.8 340.701   2
   0  -4   4 15013.4 277.153   1
   0  -4   4 16160.6 540.536   3
   0   4  -4 15187.3 341.789   2
   0   4  -3 632.294 76.5111   2
   0  -4   3 692.639 140.875   2
   0  -4   3 678.584 84.6962   1
   0  -4   2 852.485 129.933   2
   0   4  -2 119.766 46.9508   2
   0  -4   1 878.673 132.167   2
   0   4  -1-31.4125 72.0470   2
   0  -4   0 70882.7 768.492   2
   0  -4  -1 9360.12 307.450   2
   0  -4  -2 5242.34 244.083   2
   0  -4  -3 2108.62 227.608   2
   0  -4  -4 3938.56 259.578   2
   0   4   4 4007.56 217.741   2
   0   4   5 32311.1 607.407   2
   0  -4  -5 30488.0 598.080   2
   0   4   6 6312.36 285.039   2
   0  -4  -6 5845.06 314.440   2
   0   4   6 6356.93 369.323   3
   0   4   7 142.320 62.6362   2
   0   4   7 185.045 112.391   3
   0  -4  -7 140.834 197.590   2
   0   4   8 10691.8 525.003   3
   0  -4  -8 10031.6 406.564   2
   0   4   9 5802.98 410.696   3
   0  -4  -9 5763.50 331.788   2
   0   4  10 9249.27 537.984   3
   0  -4 -10 8099.42 385.192   2
   0   4  11 266.126 148.983   3
   0  -4 -11-104.087 196.343   2
   0   4  12 7.49726 96.3005   3
   0   4  13 895.182 207.491   3
   0   4  14 1732.87 285.024   3
   0  -5  13 737.534 209.545   3
   0  -5  12 1630.19 293.858   3
   0  -5  11 961.667 233.446   3
   0  -5  10 1833.58 282.182   3
   0  -5   9 703.616 180.397   3
   0  -5   8-252.806 127.604   3
   0   5  -8 41.2919 28.6924   2
   0  -5   7 4298.09 211.038   2
   0   5  -7 3956.70 191.799   2
   0  -5   7 4312.30 357.185   3
   0  -5   6 8277.57 457.560   3
   0  -5   6 7787.21 173.898   1
   0  -5   6 8139.74 290.531   2
   0   5  -6 7916.54 276.918   2
   0  -5   5 3882.82 312.522   3
   0  -5   5 3774.26 158.212   1
   0  -5   5 4233.06 229.984   2
   0   5  -5 3608.07 194.759   2
   0  -5   4 22244.7 403.486   1
   0  -5   4 23099.5 696.495   3
   0  -5   4 22946.6 483.903   2
   0   5  -4 21610.8 472.182   2
   0  -5   3 2398.07 206.728   2
   0   5  -3 2259.42 159.533   2
   0  -5   3 2249.57 152.866   1
   0  -5   2 17740.3 445.792   2
   0  -5   1 1051.05 198.719   2
   0  -5   0-176.664 207.359   2
   0  -5  -1 23289.9 532.465   2
   0  -5  -2 29163.7 605.528   2
   0  -5  -3 15761.6 470.664   2
   0  -5  -4 36.7243 220.933   2
   0  -5  -5 11511.6 449.320   2
   0  -5  -6 30049.4 670.466   2
   0  -5  -7 3168.31 308.077   2
   0  -5  -8 648.923 242.701   2
   0   5   8 200.351 116.722   3
   0  -5  -9 697.159 231.056   2
   0   5   9 452.379 155.178   3
   0   5  10 11732.0 636.404   3
   0  -5 -10 10338.6 460.421   2
   0  -5 -11 212.986 188.978   2
   0   5  11 320.231 146.546   3
   0   5  12 518.634 177.651   3
   0   5  13 180.144 128.341   3
   0   5  14 101.220 112.172   3
   0  -6  12 654.397 212.126   3
   0  -6  11 1647.94 293.928   3
   0  -6  10 585.244 188.539   3
   0  -6   9 766.245 205.341   3
   0  -6   8 85.4849 112.695   3
   0  -6   7 271.916 146.162   2
   0  -6   7 99.3229 96.4265   3
   0   6  -7 207.023 66.9463   2
   0  -6   6 43754.3 535.376   1
   0  -6   6 43977.5 1123.59   3
   0  -6   6 43428.4 711.919   2
   0  -6   5 4479.81 208.457   1
   0  -6   5 4627.77 288.450   2
   0  -6   5 5101.16 382.388   3
   0   6  -4 14495.3 437.076   2
   0  -6   4 13621.0 371.155   1
   0  -6   4 14587.3 449.971   2
   0  -6   3 3902.26 284.002   2
   0   6  -3 4258.32 239.718   2
   0  -6   3 4185.20 223.145   1
   0  -6   2 8586.76 373.460   2
   0  -6   1 5828.88 333.220   2
   0  -6   0 736.987 234.305   2
   0  -6  -1 1087.32 246.115   2
   0  -6  -2 1857.40 273.354   2
   0  -6  -3 22199.5 612.174   2
   0  -6  -4 171.401 207.758   2
   0  -6  -5 4014.95 349.542   2
   0  -6  -6 127.504 249.132   2
   0  -6  -7 3537.89 345.373   2
   0  -6  -8 12740.0 527.349   2
   0  -6  -9 2681.26 314.631   2
   0  -6 -10 64.8016 214.306   2
   0   6  11 1383.08 251.786   3
   0  -6 -11 712.560 237.089   2
   0   6  12 1081.95 235.580   3
   0  -6 -12 524.200 207.699   2
   0   6  13 27.4337 103.735   3
   0  -7  11 1897.83 326.851   3
   0  -7  10 2197.41 321.412   3
   0  -7   9-73.5405 111.181   3
   0  -7   8 686.751 193.427   3
   0  -7   7 453.512 156.914   3
   0  -7   7-80.0506 151.420   2
   0  -7   6 5932.88 332.485   2
   0  -7   6 5495.56 434.851   3
   0  -7   6 5341.81 223.432   1
   0  -7   5 38.7283 72.6058   1
   0  -7   5 280.113 196.547   2
   0  -7   5 46.7180 93.0151   3
   0  -7   4 6218.60 361.571   2
   0  -7   4 6327.54 284.978   1
   0  -7   3 365.902 124.970   1
   0  -7   3 379.905 221.330   2
   0  -7   2 925.387 254.406   2
   0  -7   1 3330.66 315.875   2
   0  -7   0 3119.64 325.331   2
   0  -7  -1 1335.07 282.882   2
   0  -7  -2 1375.78 309.355   2
   0  -7  -3 1718.21 281.930   2
   0  -7  -4 12835.7 532.662   2
   0  -7  -5 498.740 266.091   2
   0  -7  -6 1452.38 308.158   2
   0  -7  -7 3274.37 363.235   2
   0  -7  -8 2525.97 346.459   2
   0  -7  -9 1586.22 310.121   2
   0  -7 -10 260.757 229.403   2
   0  -7 -11 244.470 231.332   2
   0  -7 -12-415.267 254.372   2
   0  -8  10 1763.64 311.281   3
   0  -8   9-102.086 161.500   3
   0  -8   8 553.882 188.229   3
   0  -8   7 411.577 176.369   2
   0  -8   7 834.336 217.667   3
   0  -8   6-17.9705 100.496   3
   0  -8   6 25.2263 182.909   2
   0  -8   5 1191.55 234.101   3
   0  -8   5 1126.06 241.422   2
   0  -8   5 741.614 122.286   1
   0  -8   4 1679.27 267.837   2
   0  -8   4 1427.45 173.033   1
   0  -8   3 7554.43 425.504   2
   0  -8   3 7763.67 365.380   1
   0  -8   2 1158.93 170.840   1
   0  -8   2 1740.85 290.726   2
   0  -8   1 4331.75 370.059   2
   0  -8   0 146.954 241.115   2
   0  -8  -1 768.320 294.487   2
   0  -8  -2 3475.93 365.599   2
   0  -8  -3 1194.55 313.077   2
   0  -8  -4 5651.31 413.303   2
   0  -8  -5 2247.74 313.126   2
   0  -8  -6 2549.98 358.721   2
   0  -8  -7 1510.61 321.141   2
   0  -8  -8 2143.38 355.729   2
   0  -8  -9 472.205 284.860   2
   0  -8 -10 262.497 266.209   2
   0  -8 -11-224.438 241.056   2
   0  -8 -12-394.708 281.516   2
   0  -9   8 697.319 206.861   3
   0  -9   7 971.894 218.923   3
   0  -9   6 2006.19 268.941   2
   0  -9   6 2141.52 328.384   3
   0  -9   5 251.432 149.266   3
   0  -9   5 185.557 203.579   2
   0  -9   4 2076.78 291.675   2
   0  -9   4 1949.54 198.010   1
   0  -9   3 623.550 138.252   1
   0  -9   3 786.473 247.195   2
   0  -9   2 618.250 153.801   1
   0  -9   2 571.611 256.472   2
   0  -9   1 649.215 245.669   2
   0  -9   0 1104.84 304.722   2
   0  -9  -1 542.432 261.266   2
   0  -9  -2 926.580 289.016   2
   0  -9  -3 1769.75 353.071   2
   0  -9  -4 307.450 264.627   2
   0  -9  -5 236.692 246.170   2
   0  -9  -6 3273.55 372.914   2
   0  -9  -7 688.917 320.326   2
   0  -9  -8 128.283 235.107   2
   0  -9  -9 391.446 300.270   2
   0  -9 -10-241.732 298.538   2
   0  -9 -11 456.179 255.642   2
   0 -10   6 514.781 181.224   3
   0 -10   5-106.952 136.436   3
   0 -10   5 37.2174 212.179   2
   0 -10   4 61.8732 237.684   2
   0 -10   3 472.901 135.877   1
   0 -10   3 189.368 237.018   2
   0 -10   2 44.2292 107.282   1
   0 -10   2 215.727 261.945   2
   0 -10   1 841.998 305.426   2
   0 -10   1 857.600 175.117   1
   0 -10   0 1012.17 286.582   2
   0 -10  -1 79.9251 284.523   2
   0 -10  -2 2155.81 377.172   2
   0 -10  -3 366.521 265.354   2
   0 -10  -4 1686.45 371.305   2
   0 -10  -5 337.246 270.952   2
   0 -10  -6 252.443 256.740   2
   0 -10  -7 52.9227 277.822   2
   0 -10  -8 1162.98 360.506   2
   0 -11   4 592.039 263.692   2
   0 -11   3 290.759 282.224   2
   0 -11   2 446.610 290.560   2
   0 -11   1 918.974 326.595   2
   0 -11   1 952.002 203.233   1
   0 -11   0 329.035 147.487   1
   0 -11   0 250.612 299.620   2
   0 -11  -1 145.307 139.210   1
   0 -11  -1 92.5557 290.433   2
   0 -11  -2 76.0139 291.964   2
   0 -11  -3 200.920 319.649   2
   0 -11  -4 2067.39 387.652   2
   0 -12   0 295.097 164.978   1
   0 -12  -1 864.219 224.995   1
   0 -12  -2 523.016 183.779   1
   1 -11   1 445.897 276.831   2
   1 -11   2 483.311 283.920   2
   1 -11   3 892.830 283.363   2
   1 -11   4 115.714 236.895   2
   1 -10  -5-51.7676 230.450   2
   1 -10  -4 383.485 237.376   2
   1 -10  -3-172.459 275.131   2
   1 -10  -2 1286.88 299.924   2
   1 -10  -1 81.4359 266.969   2
   1 -10   0 1167.28 307.607   2
   1 -10   1 19.1899 213.825   2
   1 -10   2 556.851 264.327   2
   1 -10   3 351.231 247.801   2
   1 -10   4 494.108 241.421   2
   1 -10   5 439.986 229.029   2
   1  -9  -9 513.114 282.266   2
   1  -9  -8 115.429 252.627   2
   1  -9  -7-143.900 279.995   2
   1  -9  -6 1997.08 313.723   2
   1  -9  -5-92.2230 255.224   2
   1  -9  -4 1107.89 276.175   2
   1  -9  -3 869.100 218.785   2
   1  -9  -2 763.827 213.446   2
   1  -9  -1 1021.35 217.688   2
   1  -9   0 1677.36 244.952   2
   1  -9   1 1009.70 202.145   2
   1  -9   2 1242.25 216.036   2
   1  -9   3 460.372 187.210   2
   1  -9   4-196.669 218.529   2
   1  -9   5 711.923 211.919   2
   1  -9   5 1040.76 241.477   3
   1  -9   6 698.729 214.759   2
   1  -9   6 979.106 228.621   3
   1  -9   7-2.89632 122.313   3
   1  -8 -12 1256.68 293.212   2
   1  -8 -11 1315.76 292.169   2
   1  -8 -10 899.432 270.840   2
   1  -8  -9 502.584 257.583   2
   1  -8  -8 107.039 252.653   2
   1  -8  -7 177.743 250.407   2
   1  -8  -6 2737.61 286.411   2
   1  -8  -5 1037.71 228.730   2
   1  -8  -4 5319.14 367.296   2
   1  -8  -3 779.415 194.011   2
   1  -8  -2 3116.60 291.921   2
   1  -8  -1 2217.84 250.059   2
   1  -8   0 1387.10 219.214   2
   1  -8   1 808.785 187.661   2
   1  -8   2 1680.10 215.016   2
   1  -8   3 2700.90 249.009   2
   1  -8   4 1626.90 209.072   2
   1  -8   5 1388.67 190.620   2
   1  -8   5 978.458 205.396   3
   1  -8   6 881.537 198.683   2
   1  -8   6 956.352 207.839   3
   1  -8   7-85.8592 121.330   3
   1  -8   7-85.8667 156.435   2
   1  -8   8 522.438 186.784   3
   1  -8   9 569.908 182.803   3
   1  -7 -13 647.392 248.447   2
   1  -7 -12 319.751 217.162   2
   1  -7 -11 1301.64 262.538   2
   1  -7 -10-2.19824 199.441   2
   1  -7  -9 1119.54 268.286   2
   1  -7  -8 131.529 194.611   2
   1  -7  -7 1046.38 210.362   2
   1  -7  -6 4629.92 332.106   2
   1  -7  -5 729.605 174.766   2
   1  -7  -4 772.586 193.206   2
   1  -7  -3 3138.60 280.277   2
   1  -7  -2 11846.8 482.005   2
   1  -7  -1 362.569 170.939   2
   1  -7   0 2168.57 236.328   2
   1  -7   1 1303.77 192.524   2
   1  -7   2 1083.63 181.586   2
   1  -7   3 3796.93 269.360   2
   1  -7   4 467.400 139.669   2
   1  -7   5 5284.98 429.470   3
   1  -7   5 5449.91 302.154   2
   1  -7   6 1508.41 179.905   2
   1  -7   6 1195.77 241.216   3
   1  -7   7 870.904 151.328   2
   1  -7   7 286.877 141.942   3
   1  -7   8 1393.32 259.089   3
   1  -7   9 327.022 158.851   3
   1  -7  10 69.4534 127.981   3
   1  -7  11-191.047 124.676   3
   1  -6 -12 160.722 203.916   2
   1  -6 -11 572.553 231.261   2
   1  -6 -10 1070.22 236.456   2
   1  -6  -9 350.415 201.396   2
   1  -6  -8 821.242 190.907   2
   1  -6  -7 5778.48 341.629   2
   1  -6  -6 5597.65 332.734   2
   1  -6  -5 14270.6 505.322   2
   1  -6  -4 4067.16 293.776   2
   1  -6  -3 2837.52 240.435   2
   1  -6  -2 7839.78 376.203   2
   1  -6  -1 6084.47 335.734   2
   1  -6   0-23.4505 129.433   2
   1  -6   1 424.144 137.833   2
   1  -6   2 2703.59 229.453   2
   1  -6   3 2690.28 221.341   2
   1  -6   4 4288.39 267.119   2
   1  -6   5 1394.86 121.892   1
   1  -6   5 1677.26 180.814   2
   1  -6   5 1414.82 225.210   3
   1  -6   6-5.19780 116.754   3
   1  -6   6 132.194 104.721   2
   1  -6   7 3013.55 330.935   3
   1  -6   7 3908.30 232.999   2
   1  -6   8 9673.09 332.488   2
   1  -6   8 8971.63 568.123   3
   1  -6   9-18.0827 110.618   3
   1  -6  10 77.0854 118.530   3
   1  -6  11-130.950 131.698   3
   1  -6  12 856.072 222.205   3
  -1   5  13 1310.21 252.261   3
   1  -5 -12 179.234 184.272   2
  -1   5  12 66.5327 83.6581   3
  -1   5  11-20.2665 121.994   3
   1  -5 -11 23.5217 180.203   2
  -1   5  10 1757.82 272.298   3
   1  -5 -10 1982.24 256.063   2
   1  -5  -9 2449.06 235.695   2
   1  -5  -8 5953.73 322.829   2
   1  -5  -7 2534.72 235.124   2
   1  -5  -6 7016.07 341.985   2
   1  -5  -5 57.8090 126.666   2
   1  -5  -4 5893.98 321.761   2
   1  -5  -3 8365.85 370.056   2
   1  -5  -2 7.02611 140.652   2
   1  -5  -1 30718.5 665.306   2
   1  -5   0 10279.2 393.557   2
   1  -5   1 5666.74 293.365   2
   1  -5   2-111.595 122.080   2
  -1   5  -3 2027.37 187.125   2
   1  -5   3 1805.57 179.932   2
   1  -5   4 5572.82 274.263   2
  -1   5  -4 5195.41 291.334   2
   1  -5   5 677.102 122.468   2
   1  -5   5 635.109 155.055   3
   1  -5   5 633.498 76.7224   1
   1  -5   6 29819.6 579.806   2
   1  -5   6 27797.8 397.873   1
   1  -5   6 29385.5 885.576   3
   1  -5   7 941.414 125.732   2
   1  -5   7 1039.89 211.935   3
   1  -5   8 18589.1 414.686   2
   1  -5   8 17463.1 750.816   3
   1  -5   9 471.671 158.011   3
   1  -5  10 32.2829 112.385   3
   1  -5  11-90.0107 118.995   3
   1  -5  12-52.3259 92.3202   3
   1  -5  13 414.821 200.526   3
  -1   4  14-17.5285 111.548   3
  -1   4  13 964.325 228.782   3
   1  -4 -12 2172.89 236.543   2
  -1   4  12 1707.28 290.872   3
   1  -4 -11 269.577 171.510   2
  -1   4  11 126.187 122.003   3
  -1   4  10 24.9560 86.1509   3
   1  -4 -10-24.9710 151.396   2
  -1   4   9-202.797 139.072   3
   1  -4  -9 382.875 138.155   2
   1  -4  -8 23508.7 575.941   2
  -1   4   8 24102.1 820.118   3
   1  -4  -7 5576.45 290.156   2
  -1   4   7 5959.13 399.030   3
   1  -4  -6 10493.8 386.351   2
   1  -4  -5 3756.09 249.520   2
   1  -4  -4 44481.2 761.072   2
   1  -4  -3 31426.4 756.192   3
   1  -4  -3 30518.9 634.549   2
   1  -4  -2 345.130 94.1424   3
   1  -4  -2 161.600 103.215   2
   1  -4  -1 150.359 79.8805   2
   1  -4   0 12820.3 392.506   2
   1  -4   1 19608.0 479.807   2
   1  -4   2 9374.44 329.760   2
   1  -4   3 321.646 79.3465   2
   1  -4   4 1092.30 94.0185   1
   1  -4   4 1282.33 124.482   2
  -1   4  -4 1056.16 126.521   2
   1  -4   4 1233.06 178.268   3
  -1   4  -5 1460.12 145.668   2
   1  -4   5 1490.37 130.784   2
   1  -4   5 1420.60 96.6194   1
   1  -4   5 1340.14 185.371   3
   1  -4   6 9054.67 302.048   2
   1  -4   6 9609.76 474.827   3
   1  -4   6 8162.27 174.604   1
   1  -4   7 2109.55 152.726   2
   1  -4   7 2130.25 244.555   3
   1  -4   8 499.209 86.9369   2
   1  -4   8 363.702 133.661   3
   1  -4   9 1901.19 120.300   2
   1  -4   9 1719.33 254.156   3
   1  -4  10 39.9901 99.3665   3
   1  -4  11 992.271 216.447   3
   1  -4  12 1348.22 264.755   3
   1  -4  13 236.896 150.563   3
  -1   3  14 215.268 136.236   3
  -1   3  13-8.38522 96.5859   3
  -1   3  12 2948.34 348.521   3
   1  -3 -12 3480.58 247.617   2
   1  -3 -11 3097.53 237.073   2
  -1   3  11 2732.51 321.967   3
  -1   3  10 4403.37 376.945   3
   1  -3 -10 4626.33 256.956   2
   1  -3  -9 712.891 140.903   2
  -1   3   9 215.569 111.997   3
  -1   3   8 3021.24 291.474   3
  -1   3   8 3363.34 236.133   2
   1  -3  -8 3704.21 220.414   2
  -1   3   7 6437.09 388.029   3
   1  -3  -7 6696.59 291.824   2
  -1   3   7 6488.70 320.330   2
   1  -3  -6 13530.4 403.771   2
  -1   3   6 13124.0 523.010   3
  -1   3   6 13952.5 456.275   2
   1  -3  -5-27.6299 73.7823   3
  -1   3   5-34.1062 83.7076   3
  -1   3   5-2.49937 47.6533   2
   1  -3  -4 7721.04 365.069   3
  -1   3   4 7027.78 312.670   2
   1  -3  -4 6981.71 285.418   2
   1  -3  -3 3094.70 194.222   2
  -1   3   3 3295.11 212.319   2
   1  -3  -3 2990.64 219.936   3
   1  -3  -2 7462.27 323.772   3
   1  -3  -2 6885.46 280.039   2
   1  -3  -1 30014.5 569.755   2
   1  -3   0 40779.7 655.291   2
   1  -3   1 2156.75 165.671   2
   1  -3   2 94492.1 972.687   2
  -1   3  -2 95043.5 1058.69   2
   1  -3   3 595.864 71.8596   1
  -1   3  -3 741.557 102.651   2
   1  -3   3 650.630 94.7978   2
   1  -3   4 6570.82 202.663   1
   1  -3   4 6798.74 257.148   2
  -1   3  -4 6946.98 286.063   2
   1  -3   4 7191.09 351.723   3
   1  -3   5 1156.37 111.083   2
   1  -3   5 948.595 71.0403   1
   1  -3   5 1190.17 169.119   3
   1  -3   6 6261.39 126.885   1
   1  -3   6 7263.76 249.895   2
   1  -3   6 6750.56 375.627   3
   1  -3   7 407.482 68.3633   2
   1  -3   7 557.509 145.163   3
   1  -3   8 8023.68 233.635   2
   1  -3   8 7915.09 458.291   3
   1  -3   9 29.4087 99.1254   3
   1  -3  10 3071.96 326.594   3
   1  -3  11 3479.82 361.441   3
   1  -3  12 475.982 162.907   3
   1  -3  13-27.5651 101.467   3
   1  -3  14 64.6770 78.3295   3
  -1   2  14 1050.69 247.482   3
  -1   2  13 1613.64 278.192   3
  -1   2  12 135.595 123.459   3
   1  -2 -12 164.345 120.167   2
   1  -2 -11 81.1045 121.180   2
  -1   2  11 5.19237 119.946   3
  -1   2  10 15355.3 475.106   2
   1  -2 -10 16427.8 398.214   2
  -1   2  10 16541.8 707.452   3
  -1   2   9 3408.30 316.344   3
   1  -2  -9 4220.80 208.881   2
  -1   2   9 3567.76 227.188   2
   1  -2  -8 3877.41 205.484   2
  -1   2   8 4089.79 240.430   2
  -1   2   8 3469.30 296.330   3
   1  -2  -7 3027.17 186.218   2
  -1   2   7 2950.29 201.198   2
  -1   2   7 2851.58 260.074   3
  -1   2   6 8175.53 321.113   2
  -1   2   6 7829.09 389.217   3
   1  -2  -6 8354.75 402.630   3
   1  -2  -6 8088.24 284.253   2
   1  -2  -5 444.648 96.6611   3
   1  -2  -5 413.843 77.5818   2
  -1   2   5 643.928 95.4378   2
  -1   2   5 310.326 99.4952   3
   1  -2  -4 9747.43 308.034   2
  -1   2   4 9700.06 372.656   3
  -1   2   4 9783.24 338.702   2
   1  -2  -4 10061.4 382.833   3
   1  -2  -3 77605.3 989.126   3
   1  -2  -3 78877.8 864.353   2
  -1   2   3 78219.8 969.866   3
  -1   2   3 79157.0 935.394   2
   1  -2  -2 10650.6 337.303   3
   1  -2  -2 10424.2 320.060   2
   1  -2  -1 78484.3 851.379   2
   1  -2   0 8555.67 284.605   2
   1  -2   1 4793.08 190.857   1
   1  -2   1 4964.40 217.428   2
  -1   2  -2 19726.7 445.721   2
   1  -2   2 19315.1 361.890   1
   1  -2   2 18962.3 411.398   2
   1  -2   3 6547.18 203.120   1
   1  -2   3 6591.64 243.508   2
   1  -2   3 7135.12 290.897   3
   1  -2   4 21461.5 335.581   1
   1  -2   4 22437.7 436.720   2
   1  -2   4 23347.6 558.698   3
   1  -2   5 1141.21 104.887   2
   1  -2   5 1234.02 75.2428   1
   1  -2   5 1146.47 147.783   3
   1  -2   6 1432.79 172.506   3
   1  -2   6 1532.39 117.254   2
   1  -2   6 1561.28 71.4261   1
   1  -2   7 17392.9 360.174   2
   1  -2   7 17768.6 609.364   3
   1  -2   8 14197.9 303.140   2
   1  -2   8 13408.0 562.056   3
   1  -2   9 720.333 66.1519   2
   1  -2   9 885.473 176.583   3
   1  -2  10 65.5229 24.8796   2
   1  -2  10 97.7696 115.223   3
   1  -2  11 2575.40 313.371   3
   1  -2  12 1755.01 277.077   3
   1  -2  13 135.061 129.676   3
   1  -2  14 424.638 176.149   3
   1  -2  15 129.070 121.037   3
  -1   1  15 641.760 201.413   3
  -1   1  14 804.093 216.642   3
  -1   1  13 4968.66 456.487   3
  -1   1  12 2548.18 312.616   3
   1  -1 -11 206.214 101.487   2
  -1   1  11 43.4443 104.896   3
   1  -1 -10 128.029 92.9637   2
  -1   1  10 37.0939 92.4917   3
   1  -1  -9 2614.32 148.113   2
  -1   1   9 2668.76 270.901   3
  -1   1   8 46682.7 721.868   2
   1  -1  -8 50145.2 606.536   2
  -1   1   8 49317.4 1061.58   3
  -1   1   7 23.8445 49.0152   2
  -1   1   7-18.0702 88.6488   3
  -1   1   6 12207.3 358.887   2
   1  -1  -6 12063.2 309.395   2
  -1   1   6 12457.2 465.610   3
   1  -1  -6 13161.3 479.534   3
  -1   1   5 24278.3 494.232   2
   1  -1  -5 24172.1 440.660   2
   1  -1  -5 25197.5 610.724   3
  -1   1   5 23691.4 598.023   3
  -1   1   4 7798.24 313.815   3
  -1   1   4 7035.91 264.740   2
   1  -1  -4 7020.29 240.388   2
   1  -1  -4 6955.20 296.786   3
   1  -1  -3 4357.49 213.473   3
  -1   1   3 4483.32 217.983   3
   1  -1  -3 4528.49 197.220   2
  -1   1   3 4504.39 208.901   2
   1  -1  -2 30061.6 493.907   3
  -1   1   2 30282.0 484.654   3
   1  -1  -2 30137.6 495.961   2
   1  -1  -1 25533.5 407.349   3
   1  -1  -1 25937.4 462.622   2
   1  -1   0 43703.1 599.015   2
  -1   1  -1 54439.3 583.010   1
   1  -1   1 52704.1 598.192   1
   1  -1   1 53016.2 665.454   2
   1  -1   2 439.947 73.0899   3
  -1   1  -2 408.054 65.2403   1
   1  -1   2 386.072 60.4586   1
   1  -1   2 380.381 79.3773   2
  -1   1  -3 1252.04 90.5391   1
   1  -1   3 1234.41 89.7604   1
   1  -1   3 1348.39 119.722   3
   1  -1   3 1383.39 119.859   2
   1  -1   4 12839.2 330.003   2
   1  -1   4 13008.8 255.899   1
  -1   1  -4 13339.6 267.704   1
  -1   1  -4 13193.4 375.954   3
   1  -1   4 13931.0 395.557   3
  -1   1  -5 311.752 49.6057   1
   1  -1   5 318.296 54.7072   1
   1  -1   5 260.379 65.1647   2
  -1   1  -5 312.359 72.9193   3
   1  -1   5 198.540 79.1059   3
  -1   1  -6 46767.5 491.371   1
   1  -1   6 46016.6 857.498   3
   1  -1   6 45579.0 616.871   2
  -1   1  -7 1513.58 95.2910   1
   1  -1   7 1529.42 119.804   2
   1  -1   7 1897.96 202.865   3
  -1   1  -7 1767.71 187.067   3
   1  -1   8 13151.6 312.502   2
   1  -1   8 13701.6 545.937   3
  -1   1  -8 13066.3 269.808   1
   1  -1   9 11696.8 277.504   2
  -1   1  -9 12269.1 260.100   1
   1  -1   9 12262.5 555.022   3
   1  -1  10 1410.48 90.8100   2
  -1   1 -10 1325.65 86.9327   1
   1  -1  10 1316.15 82.4216   2
   1  -1  10 1263.14 204.406   3
   1  -1  11 3473.51 348.165   3
  -1   1 -11 3375.60 130.151   1
   1  -1  12 17.9404 105.263   3
   1  -1  13 4495.78 429.869   3
   1  -1  14 3172.56 380.319   3
   1  -1  15 443.150 171.491   3
  -1   0  15 1585.68 291.818   3
  -1   0  14 209.023 144.535   3
  -1   0  13 2966.81 355.154   3
  -1   0  12 5291.91 446.111   3
   1   0 -11 4228.90 126.326   2
  -1   0  11 4777.65 400.255   3
   1   0 -10 234.224 64.2070   1
  -1   0  10 252.543 122.239   3
   1   0 -10 223.465 70.8189   2
   1   0  -9 5269.12 159.653   2
  -1   0   9 4986.66 361.638   3
   1   0  -8 13603.2 274.368   2
  -1   0   8 13353.6 548.069   3
   1   0  -7 22754.9 511.369   1
   1   0  -7 24090.7 374.499   2
  -1   0   7 22512.1 663.695   3
   1   0  -7 23196.8 666.585   3
  -1   0   6-13.2113 76.7531   3
   1   0  -6 4.39193 35.4012   1
   1   0  -6 7.53925 33.7710   2
   1   0  -6 43.1737 48.0767   3
   1   0  -5 1639.73 130.583   1
   1   0  -5 1562.05 152.398   3
   1   0  -5 1600.80 110.575   2
  -1   0   5 1647.57 162.601   3
   1   0  -4 11292.5 321.209   1
   1   0  -4 11223.5 355.117   3
   1   0  -4 11581.2 286.679   2
  -1   0   4 11269.4 359.397   3
   1   0  -3 50032.8 601.843   2
   1   0  -3 50555.9 661.349   3
  -1   0   3 50719.1 662.603   3
  -1   0   2 1049.41 89.6818   3
   1   0  -2 1014.89 86.0072   3
   1   0  -2 880.470 97.3442   2
  -1   0   1 23194.9 403.696   1
   1   0  -1 23187.3 298.364   3
  -1   0   1 23408.4 295.629   3
   1   0   0 1095.24 51.6119   3
  -1   0   0 988.553 98.2266   1
   1   0   1 160315. 652.065   3
  -1   0  -1 159482. 1017.89   1
  -1   0  -2 425173. 1617.18   1
   1   0   2 426517. 1406.07   3
  -1   0  -2 422883. 1406.98   3
   1   0   2 422722. 1624.27   1
   1   0   3 44344.5 564.515   3
  -1   0  -3 44838.7 527.795   1
   1   0   3 44425.7 509.124   1
  -1   0  -3 44355.1 547.741   3
  -1   0  -4 10457.6 262.145   1
  -1   0  -4 9940.78 307.312   3
   1   0   4 10001.1 241.417   1
   1   0   4 10039.5 312.176   3
   1   0   5 8015.73 317.126   3
  -1   0  -5 8540.79 241.778   1
  -1   0  -5 7863.82 310.033   3
   1   0   6 23706.1 599.441   3
  -1   0  -6 23646.2 415.723   1
  -1   0  -6 24712.9 601.002   3
   1   0   7 14054.6 503.103   3
  -1   0  -7 13179.0 478.150   3
  -1   0  -7 14109.9 331.613   1
   1   0   8 1235.55 121.409   2
  -1   0  -8 1404.83 117.657   1
   1   0   8 1563.95 194.537   3
   1   0   9 4224.87 176.505   2
   1   0   9 3918.40 311.408   3
  -1   0  -9 4085.39 196.892   1
   1   0  10 4099.30 163.542   2
  -1   0 -10 4351.67 206.704   1
   1   0  10 4169.46 342.489   3
  -1   0 -11 4164.58 205.772   1
   1   0  11 3811.28 354.297   3
  -1   0 -12 2991.72 178.131   1
   1   0  12 2868.66 327.572   3
   1   0  13 236.533 146.965   3
   1   0  14 873.134 223.717   3
   1   0  15 344.984 166.076   3
  -1  -1  15 971.066 224.218   3
  -1  -1  14 1658.11 298.347   3
  -1  -1  13 294.704 148.658   3
  -1  -1  12 4552.79 421.670   3
  -1  -1  11 5.45926 105.687   3
   1   1 -10 2313.24 177.399   1
  -1  -1  10 7235.57 462.730   3
   1   1  -9 394.256 36.5585   2
   1   1  -9 204.746 57.9972   1
  -1  -1   9 159.095 106.666   3
   1   1  -8 1051.32 114.389   1
  -1  -1   8 966.492 160.508   3
   1   1  -8 1007.33 65.2339   2
   1   1  -7 12730.4 369.747   1
   1   1  -7 12828.9 243.422   2
  -1  -1   7 12447.6 490.334   3
   1   1  -6 23886.2 487.710   1
   1   1  -6 24023.4 363.175   2
   1   1  -6 25409.8 637.131   3
  -1  -1   6 24063.2 628.705   3
   1   1  -5 20217.5 521.300   3
   1   1  -5 20906.0 363.710   2
   1   1  -5 21209.0 443.321   1
  -1  -1   5 20507.0 533.192   3
   1   1  -4 3106.73 167.324   1
  -1  -1   4 3240.66 196.832   3
   1   1  -4 3084.59 185.964   3
  -1  -1   3 11432.4 297.903   1
  -1  -1   3 11259.9 314.181   3
   1   1  -3 11479.6 308.164   1
   1   1  -3 11222.1 306.152   3
  -1  -1   2 110366. 796.711   3
  -1  -1   2 109823. 901.705   1
   1   1  -2 108043. 791.992   3
  -1  -1   1 10713.5 189.783   3
  -1  -1   1 10309.6 276.681   1
   1   1  -1 10616.1 185.862   3
  -1  -1   0 194104. 1160.57   1
  -1  -1  -1 3091.81 163.257   1
   1   1   2 632141. 1644.69   3
  -1  -1  -2 629373. 1654.51   3
  -1  -1  -2 634932. 2114.46   1
  -1  -1  -3 20568.5 392.865   1
  -1  -1  -3 20322.8 370.244   3
   1   1   3 20641.3 371.290   1
   1   1   3 20428.1 377.983   3
   1   1   4 225.214 68.4903   1
   1   1   4 121.477 66.6167   3
  -1  -1  -4 105.004 49.4578   3
  -1  -1  -4 35.8177 86.1624   1
  -1  -1  -5-26.6352 79.3308   1
   1   1   5-30.9842 60.2916   3
  -1  -1  -5-90.4300 50.8261   3
  -1  -1  -6 8.21393 86.1162   1
   1   1   6-2.72757 67.8350   3
  -1  -1  -6 39.5591 51.3525   3
  -1  -1  -7 19242.5 435.938   1
   1   1   7 19483.0 585.093   3
   1   1   7 18572.1 382.072   2
   1   1   8 4269.64 200.614   2
   1   1   8 4954.37 327.781   3
  -1  -1  -8 4682.62 232.072   1
   1   1   9 3854.08 191.032   2
  -1  -1  -9 3484.13 212.765   1
   1   1   9 3877.35 309.622   3
   1   1  10 635.374 90.5439   2
  -1  -1 -10 357.390 104.594   1
   1   1  10 322.962 140.937   3
   1   1  11 6325.08 445.786   3
  -1  -1 -11 6416.85 299.848   1
  -1  -1 -12 1484.52 157.871   1
   1   1  12 1234.32 224.518   3
   1   1  13 986.769 225.275   3
   1   1  14 761.071 202.208   3
   1   1  15 127.742 103.997   3
  -1  -2  14 5798.93 517.898   3
  -1  -2  13 2869.07 356.623   3
  -1  -2  12-119.440 110.096   3
  -1  -2  11 1116.26 212.234   3
   1   2 -10 19303.6 464.930   1
  -1  -2  10 20046.0 772.137   3
   1   2  -9 14426.3 390.378   1
  -1  -2   9 16006.9 646.028   3
   1   2  -8 176.995 20.6355   2
   1   2  -8 185.638 32.2042   2
  -1  -2   8 129.935 87.1684   3
   1   2  -8 159.166 49.8843   1
  -1  -2   7 3668.13 276.921   3
   1   2  -7 3972.50 130.235   2
   1   2  -7 3810.24 192.296   1
   1   2  -6 2596.84 155.073   1
  -1  -2   6 2458.46 216.737   3
   1   2  -6 2548.00 209.436   3
   1   2  -5 72031.5 783.158   1
  -1  -2   5 73437.4 762.692   1
   1   2  -5 73915.6 1010.87   3
  -1  -2   5 74534.4 1033.87   3
  -1  -2   4 16273.7 361.186   1
   1   2  -4 15919.8 429.819   3
   1   2  -4 16183.3 363.041   1
  -1  -2   4 16586.2 446.847   3
  -1  -2   3 16606.3 365.317   1
   1   2  -3 16578.1 360.779   1
  -1  -2   3 16351.5 395.889   3
   1   2  -3 16562.6 397.828   3
  -1  -2   2 35783.0 507.141   3
   1   2  -2 35732.0 525.134   1
  -1  -2   2 35818.7 527.888   1
  -1  -2   1 12338.5 317.767   1
  -1  -2   1 12495.4 263.310   3
  -1  -2   0 56587.0 669.639   1
  -1  -2  -1 1795.19 95.9036   3
  -1  -2  -1 1862.82 146.077   1
  -1  -2  -2 46458.6 532.591   3
  -1  -2  -2 46871.1 635.072   1
   1   2   3 1037.14 104.119   3
  -1  -2  -3 1104.74 101.872   3
  -1  -2  -3 941.362 131.132   1
   1   2   4 22764.9 495.405   3
  -1  -2  -4 24652.9 485.473   1
  -1  -2  -4 23627.1 493.316   3
   1   2   5 19103.0 412.012   2
  -1  -2  -5 19529.1 500.785   3
   1   2   5 20490.5 512.369   3
  -1  -2  -5 20663.4 459.657   1
   1   2   6 12991.7 346.809   2
   1   2   6 14030.3 465.759   3
  -1  -2  -6 13263.2 453.050   3
  -1  -2  -6 13646.8 391.858   1
   1   2   7 2414.98 173.373   2
   1   2   7 2334.36 217.100   3
  -1  -2  -7 2070.11 197.520   3
  -1  -2  -7 2432.88 187.912   1
   1   2   8 4083.15 215.046   2
   1   2   8 4410.33 310.238   3
  -1  -2  -8 4077.28 241.839   1
   1   2   9 7718.06 436.207   3
   1   2   9 6998.93 263.860   2
  -1  -2  -9 7477.77 333.654   1
   1   2  10 6974.98 253.069   2
   1   2  10 6443.02 423.661   3
  -1  -2 -10 6925.05 330.788   1
  -1  -2 -11 1526.24 181.229   1
   1   2  11 1485.90 237.325   3
   1   2  12 9645.74 577.997   3
  -1  -2 -12 9246.34 399.492   1
  -1  -2 -13 36.2980 87.0461   1
   1   2  13 170.305 123.957   3
   1   2  14 306.733 140.399   3
   1   2  15 195.383 131.892   3
  -1  -3  14 2491.68 350.359   3
  -1  -3  13 1583.98 289.403   3
  -1  -3  12 3152.53 361.140   3
  -1  -3  11-132.605 118.628   3
  -1  -3  10 171.307 108.133   3
   1   3  -9 1081.03 103.405   1
  -1  -3   9 1100.20 188.043   3
   1   3  -8 7066.55 116.432   2
   1   3  -8 6799.41 242.778   1
  -1  -3   8 7224.80 422.552   3
   1   3  -8 6880.57 134.492   2
   1   3  -7 11128.7 202.031   2
  -1  -3   7 11303.3 496.063   3
   1   3  -7 10585.3 300.518   1
   1   3  -6 3388.86 143.307   2
  -1  -3   6 3188.88 252.452   3
  -1  -3   6 3443.63 171.222   1
   1   3  -6 3184.02 241.054   3
   1   3  -6 3184.97 163.559   1
  -1  -3   5 1.05199 41.8500   1
   1   3  -5 24.6860 39.8702   1
  -1  -3   5 29.5388 81.5225   3
   1   3  -5 78.0000 90.2005   2
   1   3  -4 77804.8 707.052   2
  -1  -3   4 78181.4 1040.66   3
  -1  -3   4 77412.2 815.512   1
   1   3  -4 75583.0 775.744   1
   1   3  -3 21346.3 391.660   2
  -1  -3   3 19704.4 415.902   1
   1   3  -3 20506.2 406.271   1
  -1  -3   3 21224.5 494.547   3
  -1  -3   2-12.4729 59.3176   3
  -1  -3   2 9.84537 60.7933   1
   1   3  -2-20.2761 61.4794   1
   1   3  -2-195.189 123.876   2
  -1  -3   1 12276.0 339.401   1
   1   3  -1 12368.4 319.900   1
  -1  -3   0 42608.5 632.803   1
  -1  -3  -1 2200.26 176.066   1
  -1  -3  -2 27107.1 484.279   3
  -1  -3  -2 27809.6 535.499   1
  -1  -3  -3 160.097 56.3638   3
  -1  -3  -3 202.180 120.705   1
   1   3   4 6102.90 270.776   2
   1   3   4 6367.00 284.588   3
  -1  -3  -4 6157.42 275.677   3
  -1  -3  -4 6008.70 280.774   1
   1   3   5 47554.2 678.949   2
  -1  -3  -5 47604.6 827.505   3
   1   3   5 48013.8 819.751   3
  -1  -3  -5 47659.4 755.283   1
   1   3   6 104.114 113.220   2
  -1  -3  -6 175.167 124.676   1
   1   3   6-28.0461 80.0224   3
   1   3   7 5866.09 269.441   2
   1   3   7 5395.13 327.574   3
  -1  -3  -7 5431.62 325.491   3
  -1  -3  -7 6055.16 305.218   1
   1   3   8-78.0234 79.0709   3
  -1  -3  -8 26.8480 114.615   1
   1   3   8-71.8456 116.986   2
   1   3   9 274.608 92.3058   2
  -1  -3  -9 48.8615 121.486   1
   1   3   9-6.96207 92.7040   3
   1   3  10 8517.47 309.469   2
   1   3  10 8867.96 500.999   3
  -1  -3 -10 8943.98 400.326   1
  -1  -3 -11 1141.80 181.125   1
   1   3  11 1007.23 195.691   3
   1   3  12 497.081 166.617   3
  -1  -3 -12 428.141 139.795   1
   1   3  13 2068.39 300.392   3
  -1  -3 -13 2399.45 240.671   1
   1   3  14 2102.20 312.411   3
  -1  -3 -14 2186.33 234.498   1
   1   3  15 254.907 133.070   3
  -1  -4  14 187.650 116.782   3
  -1  -4  13 450.080 169.014   3
  -1  -4  12 2438.32 327.310   3
  -1  -4  11 573.967 171.302   3
  -1  -4  10 2290.79 293.657   3
   1   4  -9 764.137 78.2741   1
  -1  -4   9 804.760 168.884   3
   1   4  -8 739.687 60.2018   2
   1   4  -8 896.346 93.7327   1
  -1  -4   8 762.156 161.475   3
  -1  -4   7 19295.9 394.269   1
   1   4  -7 19911.2 309.492   2
  -1  -4   7 19355.8 677.771   3
   1   4  -7 19237.0 379.668   1
   1   4  -6 10350.5 245.195   2
  -1  -4   6 9645.72 293.931   1
  -1  -4   6 9311.84 446.840   3
   1   4  -6 9706.94 276.140   1
  -1  -4   5 42.3090 48.6856   1
   1   4  -5 22.0974 83.8235   2
   1   4  -5 34.0479 59.3736   1
  -1  -4   5 1.12888 78.9926   3
   1   4  -4 8150.93 257.301   2
  -1  -4   4 8347.54 373.478   3
   1   4  -4 7830.23 258.899   1
  -1  -4   4 7626.55 282.104   1
  -1  -4   3 617.350 97.4309   1
   1   4  -3 742.204 122.802   2
  -1  -4   3 750.775 126.674   3
   1   4  -3 696.081 94.3733   1
   1   4  -2 42453.9 597.463   2
  -1  -4   2 42435.0 661.895   1
   1   4  -2 42064.4 610.772   1
   1   4  -1 988.129 144.388   2
  -1  -4   1 633.820 124.346   1
  -1  -4   0-4.39474 111.645   1
  -1  -4  -1 20253.0 488.035   1
  -1  -4  -2 60133.2 840.970   3
  -1  -4  -2 59256.4 850.570   1
  -1  -4  -3 7029.46 301.230   3
  -1  -4  -3 8032.20 335.504   1
   1   4   4 4752.27 257.618   2
  -1  -4  -4 4655.03 264.043   3
  -1  -4  -4 4594.73 274.051   1
   1   4   5 11124.7 434.970   3
   1   4   5 11286.7 370.987   2
  -1  -4  -5 10659.3 403.369   1
   1   4   6 6883.76 302.282   2
  -1  -4  -6 6695.73 357.135   3
   1   4   6 7023.66 365.641   3
  -1  -4  -6 7061.36 343.678   1
   1   4   7 126.063 83.6209   3
  -1  -4  -7 123.000 124.044   1
   1   4   8-12.1791 68.5570   3
  -1  -4  -8 183.489 139.600   1
   1   4   9 105.644 97.0977   3
  -1  -4  -9 427.413 155.545   1
   1   4  10 5199.86 399.079   3
  -1  -4 -10 4958.81 327.731   1
   1   4  11 1867.87 268.850   3
  -1  -4 -11 1647.92 220.068   1
   1   4  12 2007.11 287.887   3
  -1  -4 -12 2446.45 261.622   1
   1   4  13 81.6506 92.2122   3
  -1  -4 -13 230.755 128.657   1
  -1  -4 -14 624.282 169.504   1
   1   4  14 565.081 180.857   3
   1   4  15 334.295 151.658   3
  -1  -5  13 764.094 231.597   3
  -1  -5  12 2022.43 308.629   3
  -1  -5  11 2260.30 317.293   3
  -1  -5  10 3202.28 340.534   3
  -1  -5   9 415.988 157.030   3
   1   5  -8 4184.75 159.678   2
  -1  -5   8 3850.85 344.054   3
   1   5  -7 484.991 76.3461   2
  -1  -5   7 565.394 77.6350   1
  -1  -5   7 596.519 141.862   3
   1   5  -6 2628.65 147.502   2
  -1  -5   6 2476.77 160.868   1
  -1  -5   6 2683.17 268.570   3
   1   5  -5 2244.76 143.132   2
  -1  -5   5 1895.02 149.645   1
  -1  -5   5 1439.33 189.643   3
   1   5  -4 2057.55 148.639   2
  -1  -5   4 1976.01 206.728   3
  -1  -5   4 1847.74 155.409   1
  -1  -5   3 19.3647 72.6386   3
   1   5  -3 85.2845 69.2645   2
  -1  -5   3 39.0673 64.6485   1
  -1  -5   2 8812.68 339.744   1
  -1  -5   1 1663.36 176.812   1
  -1  -5   0 13648.4 433.921   1
  -1  -5  -1 387.151 131.931   1
  -1  -5  -2 9921.04 389.392   1
  -1  -5  -3 22968.3 592.377   1
  -1  -5  -4 3618.15 251.569   3
  -1  -5  -4 3232.00 258.673   1
  -1  -5  -5 3732.92 282.908   1
  -1  -5  -6 958.188 187.631   1
  -1  -5  -7 17564.7 583.563   1
  -1  -5  -8 14437.2 552.341   1
   1   5   8 13560.7 599.981   3
  -1  -5  -9 248.626 161.173   1
   1   5   9 83.1910 113.998   3
  -1  -5 -10 584.829 179.764   1
   1   5  10 278.785 122.644   3
  -1  -5 -11 2389.07 269.820   1
   1   5  11 2434.80 302.306   3
   1   5  12 3511.29 371.901   3
  -1  -5 -12 4175.36 339.615   1
   1   5  13 104.981 102.641   3
  -1  -5 -13 211.754 150.782   1
   1   5  14 460.276 172.502   3
  -1  -5 -14 272.205 144.989   1
  -1  -5 -15 166.295 131.173   1
  -1  -6  12-39.1166 110.192   3
  -1  -6  11 312.736 164.834   3
  -1  -6  10 1085.34 241.118   3
  -1  -6   9 1939.83 281.326   3
  -1  -6   8-87.8428 110.874   3
  -1  -6   7 358.800 68.5085   1
   1   6  -7 202.318 62.2413   2
  -1  -6   7 177.600 112.561   3
  -1  -6   6 350.655 76.7717   1
  -1  -6   6 386.175 142.974   3
  -1  -6   5 5641.59 384.563   3
  -1  -6   5 5196.52 262.128   1
   1   6  -4 47271.9 707.448   2
  -1  -6   4 46420.8 799.813   1
  -1  -6   4 48248.6 1057.98   3
   1   6  -3 3218.73 203.129   2
  -1  -6   3 3193.59 231.352   1
  -1  -6   2 15510.8 479.205   1
  -1  -6   1 163.924 124.672   1
  -1  -6   0 14911.7 488.162   1
  -1  -6  -1 2957.85 248.266   1
  -1  -6  -2 286.050 273.592   2
  -1  -6  -2 1031.62 178.855   1
  -1  -6  -3 2810.66 315.664   2
  -1  -6  -3 3342.48 276.089   1
  -1  -6  -4 13241.5 508.032   1
  -1  -6  -5 13084.8 519.164   1
  -1  -6  -6 115.336 152.523   1
  -1  -6  -7 917.271 199.973   1
  -1  -6  -8 2574.88 278.976   1
  -1  -6  -9 477.198 181.514   1
  -1  -6 -10 5500.67 397.553   1
   1   6  11 243.368 145.547   3
  -1  -6 -11 80.1437 136.248   1
   1   6  12 1186.08 243.212   3
  -1  -6 -12 1166.80 233.227   1
  -1  -6 -13 619.567 199.435   1
   1   6  13 433.146 174.762   3
  -1  -6 -14 577.095 198.620   1
   1   6  14 314.508 151.943   3
  -1  -6 -15 172.829 124.986   1
  -1  -7  11 1468.60 271.010   3
  -1  -7  10 70.8100 120.485   3
  -1  -7   9 2627.86 334.597   3
  -1  -7   8 1898.28 284.211   3
  -1  -7   7 1166.70 220.376   3
  -1  -7   6 873.440 117.223   1
  -1  -7   6 922.287 193.049   3
  -1  -7   5-4.49921 94.5544   3
  -1  -7   5 70.3672 72.1428   1
  -1  -7   4 28234.3 675.220   1
  -1  -7   4 28718.4 882.186   3
  -1  -7   3 3776.83 259.412   1
  -1  -7   2-72.5247 126.727   1
  -1  -7   1 1598.72 207.165   1
  -1  -7   0 1530.82 209.020   1
  -1  -7  -1 5360.88 404.463   2
  -1  -7  -1 6791.79 375.234   1
  -1  -7  -2 734.859 262.808   2
  -1  -7  -2 1454.40 216.594   1
  -1  -7  -3-108.913 317.026   2
  -1  -7  -3 559.067 179.568   1
  -1  -7  -4-1017.36 365.952   2
  -1  -7  -4 93.2139 148.587   1
  -1  -7  -5 7557.50 429.222   1
  -1  -7  -6 2434.99 284.788   1
  -1  -7  -7 2113.34 269.741   1
  -1  -7  -8 920.320 219.520   1
  -1  -7  -9 3033.44 323.724   1
  -1  -7 -10 4610.70 392.808   1
  -1  -7 -11 1103.25 220.381   1
  -1  -7 -12 227.915 173.744   1
  -1  -7 -13 433.399 193.481   1
  -1  -7 -14 100.630 164.785   1
  -1  -8  10 1752.31 306.848   3
  -1  -8   9 1106.20 250.563   3
  -1  -8   8 2694.61 357.338   3
  -1  -8   7 81.7366 125.511   3
  -1  -8   6 1512.29 260.816   3
  -1  -8   5 144.936 123.866   3
  -1  -8   5 71.2013 77.7154   1
  -1  -8   4 75.7258 75.3537   1
  -1  -8   4 196.728 127.695   3
  -1  -8   3 978.028 159.161   1
  -1  -8   2 8463.87 421.240   1
  -1  -8   1 4644.28 328.961   1
  -1  -8   0 141.362 136.122   1
  -1  -8  -1 732.718 305.139   2
  -1  -8  -1 1428.69 211.192   1
  -1  -8  -2 154.100 299.731   2
  -1  -8  -2 811.741 189.919   1
  -1  -8  -3 1769.13 313.617   2
  -1  -8  -3 2470.82 280.480   1
  -1  -8  -4 1767.07 353.941   2
  -1  -8  -4 2449.33 285.561   1
  -1  -8  -5 226.592 161.535   1
  -1  -8  -6 8344.29 494.736   1
  -1  -8  -7 130.382 178.747   1
  -1  -8  -8 40.2332 143.343   1
  -1  -8  -9 60.3507 183.942   1
  -1  -8 -10 374.623 196.907   1
  -1  -8 -11 186.228 174.835   1
  -1  -8 -12-117.734 165.032   1
  -1  -9   9 629.557 202.391   3
  -1  -9   8 50.2050 99.5724   3
  -1  -9   7 106.405 118.820   3
  -1  -9   6 1249.48 254.648   3
  -1  -9   5 1188.24 230.497   3
  -1  -9   4 980.642 219.656   3
  -1  -9   4 1058.41 165.096   1
  -1  -9   3 13.0214 104.581   1
  -1  -9   2 475.550 154.406   1
  -1  -9   1 3623.49 315.422   1
  -1  -9   0 531.456 175.046   1
  -1  -9  -1 1610.31 238.406   1
  -1  -9  -2 20.6320 133.000   1
  -1  -9  -3 180.179 169.896   1
  -1  -9  -4 2873.37 310.355   1
  -1  -9  -5 797.050 209.556   1
  -1  -9  -6 754.780 220.906   1
  -1  -9  -7 449.164 188.595   1
  -1  -9  -8 2986.93 351.056   1
  -1  -9  -9 246.534 196.419   1
  -1  -9 -10 93.1910 152.575   1
  -1 -10   7-55.3890 129.276   3
  -1 -10   6 311.525 144.554   3
  -1 -10   5 276.801 155.643   3
  -1 -10   4 2480.26 342.689   3
  -1 -10   3 144.710 101.095   1
  -1 -10   2 530.064 160.800   1
  -1 -10   1 162.145 133.452   1
  -1 -10   0 34.2191 134.030   1
  -1 -10  -1 286.473 162.764   1
  -1 -10  -2 169.260 164.642   1
  -1 -10  -3 140.950 139.718   1
  -1 -10  -4 928.186 227.820   1
  -1 -10  -5 406.047 196.678   1
  -1 -10  -6 136.956 170.696   1
  -1 -10  -7 33.5344 149.756   1
  -1 -10  -8 199.248 189.044   1
  -1 -11   4 29.5623 129.582   3
  -1 -11   2 645.236 185.406   1
  -1 -11   1-107.108 131.466   1
  -1 -11   0 120.777 142.531   1
  -1 -11  -1 774.451 215.697   1
  -1 -11  -2 1313.76 261.541   1
  -1 -11  -3 152.909 170.653   1
  -1 -11  -4 480.864 198.499   1
  -1 -11  -5-3.43733 152.671   1
  -1 -12   0 4.98989 133.985   1
  -1 -12  -1 411.868 194.298   1
  -1 -12  -2-94.9111 150.477   1
   2 -10   3 139.160 160.699   2
   2 -10   4 439.987 184.833   2
   2  -9  -5 452.965 205.526   2
   2  -9  -4 944.855 225.717   2
   2  -9  -3 284.858 185.957   2
   2  -9  -2 1090.47 236.594   2
   2  -9  -1 16.0604 145.886   2
   2  -9   0 193.353 155.276   2
   2  -9   1 390.904 176.772   2
   2  -9   2 1531.53 232.637   2
   2  -9   3-26.5830 147.217   2
   2  -9   4 121.163 138.389   2
   2  -9   5 22.5107 57.7029   3
   2  -9   5 243.747 147.872   2
   2  -9   6 378.022 142.136   2
   2  -8  -8 2745.00 299.008   2
   2  -8  -7 447.843 167.766   2
   2  -8  -6 101.390 149.168   2
   2  -8  -5 431.539 186.267   2
   2  -8  -4 53.0458 141.160   2
   2  -8  -3 124.523 131.862   2
   2  -8  -2 1003.82 205.236   2
   2  -8  -1-217.856 178.788   2
   2  -8   0 255.902 139.245   2
   2  -8   1 399.694 159.146   2
   2  -8   2-281.328 149.271   2
   2  -8   3-87.4445 153.926   2
   2  -8   4 498.044 148.058   2
   2  -8   5 64.8402 125.784   3
   2  -8   5-43.7253 131.575   2
   2  -8   6 78.0368 87.0015   3
   2  -8   6 225.360 136.515   2
   2  -8   7 80.3945 129.025   3
   2  -8   8 654.127 196.242   3
   2  -7 -11 480.857 169.574   2
   2  -7 -10 1620.69 248.550   2
   2  -7  -9 1673.67 241.397   2
   2  -7  -8 52.5543 148.267   2
   2  -7  -7 205.079 143.032   2
   2  -7  -6 71.3205 138.512   2
   2  -7  -5 215.228 159.411   2
   2  -7  -4 6297.27 416.609   2
   2  -7  -3-309.308 191.063   2
   2  -7  -2 1076.04 210.287   2
   2  -7  -1 1337.93 222.104   2
   2  -7   0 3523.36 315.063   2
   2  -7   1 463.495 170.927   2
   2  -7   2 289.313 150.338   2
   2  -7   3-326.489 162.904   2
   2  -7   4 506.758 159.572   2
   2  -7   5 1711.06 260.352   3
   2  -7   5 1624.12 212.938   2
   2  -7   6 360.912 160.393   3
   2  -7   6 390.682 134.452   2
   2  -7   7 452.533 138.802   2
   2  -7   7 900.280 201.982   3
   2  -7   8-50.3543 138.317   3
   2  -7   9-137.697 102.621   3
   2  -7  10 208.119 147.775   3
   2  -6 -12 403.779 171.574   2
   2  -6 -11 959.184 192.383   2
   2  -6 -10 195.785 147.949   2
   2  -6  -9 384.689 164.730   2
   2  -6  -8 331.359 155.625   2
   2  -6  -7 1124.66 200.070   2
   2  -6  -6 37.4064 134.400   2
   2  -6  -5 781.041 181.843   2
   2  -6  -4 809.200 182.208   2
   2  -6  -3 159.488 169.238   2
   2  -6  -2 5287.84 354.899   2
   2  -6  -1 851.171 163.308   2
   2  -6   0 7054.91 390.487   2
   2  -6   1 714.893 147.544   2
   2  -6   2 318.206 119.388   2
   2  -6   3 131.165 84.6078   2
   2  -6   4 953.066 150.961   2
   2  -6   5 2065.88 210.826   2
   2  -6   5 1915.66 259.910   3
   2  -6   6 852.881 188.842   3
   2  -6   6 583.355 141.037   2
   2  -6   7 828.435 152.939   2
   2  -6   7 736.392 192.802   3
   2  -6   8-18.1584 107.086   2
   2  -6   8 116.051 117.346   3
   2  -6   9 145.902 125.675   3
   2  -6  10 1467.55 266.707   3
   2  -6  11 252.344 126.994   3
   2  -5 -12 591.715 160.724   2
   2  -5 -11 1186.23 186.212   2
   2  -5 -10-62.5502 127.768   2
   2  -5  -9-78.9311 126.617   2
   2  -5  -8 3284.75 282.098   2
   2  -5  -7 628.921 153.555   2
   2  -5  -6 238.842 145.830   2
   2  -5  -5 7959.24 415.528   2
   2  -5  -4 3227.57 267.951   2
   2  -5  -3 7166.76 382.197   2
   2  -5  -2 4663.17 309.794   2
   2  -5  -1 6069.63 350.579   2
   2  -5   0 2327.56 231.388   2
   2  -5   1 7352.83 383.022   2
   2  -5   2 1013.73 161.598   2
   2  -5   3 1813.23 200.111   2
   2  -5   4 315.632 103.005   2
   2  -5   5 876.101 178.741   3
   2  -5   5 945.627 145.417   2
   2  -5   6 2088.03 197.464   2
   2  -5   6 1685.16 239.173   3
   2  -5   7 2855.63 226.865   2
   2  -5   7 2457.04 289.431   3
   2  -5   8 3220.06 232.647   2
   2  -5   8 3094.44 338.042   3
   2  -5   9 3419.00 374.612   3
   2  -5  10 3924.72 404.843   3
   2  -5  11 86.2066 96.5007   3
   2  -5  12-51.3162 94.1961   3
  -2   4  13 40.6915 106.575   3
   2  -4 -12 284.739 129.312   2
  -2   4  12 60.4848 114.548   3
   2  -4 -11 1636.98 195.073   2
  -2   4  11 1737.32 276.287   3
  -2   4  10 296.581 134.630   3
   2  -4 -10 188.354 117.867   2
   2  -4  -9 105.046 118.918   2
   2  -4  -8-84.7199 145.133   2
   2  -4  -7 1207.19 186.512   2
   2  -4  -6 16127.6 548.944   2
   2  -4  -5 252.591 107.680   2
   2  -4  -4 288.217 112.287   2
   2  -4  -3 5403.51 327.938   2
   2  -4  -2 12401.2 483.944   2
   2  -4  -1 9507.89 427.463   2
   2  -4   0 517.119 139.305   2
   2  -4   1 6408.18 350.064   2
   2  -4   2 8273.66 363.102   1
   2  -4   2 8226.41 388.289   2
   2  -4   3 3440.98 234.924   1
   2  -4   3 3421.32 257.798   2
   2  -4   4 1612.49 160.864   1
   2  -4   4 1678.93 181.432   2
   2  -4   4 1743.90 204.994   3
   2  -4   5 563.069 135.146   3
   2  -4   5 403.001 80.9054   1
   2  -4   5 466.919 113.228   2
   2  -4   6 25.7345 42.1312   1
   2  -4   6 35.5514 69.1126   2
   2  -4   6 65.7261 99.4227   3
   2  -4   7-9.44827 58.3017   2
   2  -4   7 41.0431 97.3181   3
   2  -4   8 14041.0 471.076   2
   2  -4   8 14147.0 657.819   3
   2  -4   9 176.150 79.3820   2
   2  -4   9 223.795 132.791   3
   2  -4  10 1912.10 283.992   3
   2  -4  11 13.6393 99.5799   3
   2  -4  12-88.9127 137.775   3
   2  -4  13 451.158 181.447   3
  -2   3  13 197.638 126.497   3
  -2   3  12-88.6603 113.589   3
  -2   3  11 59.4733 102.306   3
   2  -3 -11 205.385 107.594   2
   2  -3 -10 4695.97 292.119   2
  -2   3  10 5405.57 439.718   3
  -2   3   9 666.516 175.013   3
   2  -3  -9 426.613 129.067   2
   2  -3  -8 3086.01 238.523   2
  -2   3   8 3182.83 308.255   3
  -2   3   7 241.305 117.494   3
   2  -3  -7 356.940 109.818   2
   2  -3  -6 12200.4 460.125   2
   2  -3  -5 7086.97 357.045   2
   2  -3  -4 17449.1 557.350   2
   2  -3  -3 6.59796 51.9993   3
   2  -3  -3 0.53449 91.7033   2
   2  -3  -2 6668.51 349.795   2
   2  -3  -2 7015.46 338.627   3
   2  -3  -1 13717.6 490.846   2
   2  -3  -1 13985.6 467.529   3
   2  -3   0 1448.73 176.749   2
   2  -3   1 9173.19 381.320   1
   2  -3   1 9318.89 406.664   2
   2  -3   2 536.807 103.487   1
   2  -3   2 498.784 108.756   2
   2  -3   3 5654.88 289.679   1
   2  -3   3 6213.01 328.838   2
   2  -3   4 14265.5 492.244   2
   2  -3   4 13452.6 423.539   1
   2  -3   4 15042.9 529.922   3
   2  -3   5-4.35418 54.9056   1
   2  -3   5 65.6063 60.4802   2
   2  -3   5-0.61305 70.6742   3
   2  -3   6 524.018 90.5746   1
   2  -3   6 612.173 114.689   2
   2  -3   6 648.068 137.893   3
   2  -3   7 60.8073 53.5357   1
   2  -3   7 4.68255 63.0845   2
   2  -3   7-2.67185 92.6421   3
   2  -3   8 829.255 125.779   2
   2  -3   8 758.733 167.768   3
   2  -3   9 924.790 127.123   2
   2  -3   9 844.178 185.396   3
   2  -3  10 1530.46 246.743   3
   2  -3  11 133.472 114.652   3
   2  -3  12 106.983 109.645   3
   2  -3  13 516.959 174.268   3
   2  -3  14 293.052 135.367   3
  -2   2  14 2744.99 368.237   3
  -2   2  13 3036.40 373.410   3
  -2   2  12 158.945 128.126   3
   2  -2 -11 344.058 103.931   2
  -2   2  11 406.859 155.872   3
   2  -2 -10 399.936 115.210   2
  -2   2  10 620.844 159.590   3
   2  -2  -9 1870.85 179.597   2
  -2   2   9 1669.24 235.092   3
   2  -2  -8 12393.5 441.425   2
  -2   2   8 12487.4 568.190   3
  -2   2   7 430.852 128.974   3
   2  -2  -7 440.034 107.275   2
  -2   2   6 769.289 142.322   3
   2  -2  -6 872.003 133.334   2
   2  -2  -5 4253.31 269.505   2
   2  -2  -5 4254.32 287.906   3
  -2   2   5 4302.20 290.238   3
   2  -2  -4 2269.11 202.001   3
   2  -2  -4 2373.83 210.247   2
   2  -2  -3 70.9111 54.3241   3
   2  -2  -3 157.831 91.9082   2
   2  -2  -2 24138.7 565.784   3
   2  -2  -2 24515.0 635.073   2
   2  -2  -1 6250.25 276.777   3
   2  -2  -1 6732.93 329.620   1
   2  -2  -1 7323.98 356.010   2
   2  -2   0 8931.34 373.673   1
   2  -2   0 8399.65 380.562   2
   2  -2   1 15910.8 489.296   1
   2  -2   1 15482.9 512.128   2
   2  -2   2 22318.1 576.314   1
   2  -2   2 23222.2 621.554   2
   2  -2   3 1727.44 184.287   2
   2  -2   3 1876.82 167.161   1
   2  -2   3 1909.99 169.154   3
   2  -2   4 19102.7 562.186   2
   2  -2   4 18926.4 490.751   1
   2  -2   4 19291.3 534.414   3
   2  -2   5 1584.68 172.143   2
   2  -2   5 1448.88 138.916   1
   2  -2   5 1641.34 175.012   3
   2  -2   6 5769.15 310.884   2
   2  -2   6 5180.67 239.257   1
   2  -2   6 5535.39 330.717   3
   2  -2   7 354.313 96.7305   2
   2  -2   7 252.116 109.428   3
   2  -2   7 265.283 76.5012   1
   2  -2   8 421.607 78.2963   1
   2  -2   8 267.671 115.546   3
   2  -2   8 331.753 89.7368   2
   2  -2   9 1805.88 173.990   2
   2  -2   9 2131.66 258.234   3
   2  -2  10 2490.20 191.723   2
   2  -2  10 2501.54 289.248   3
   2  -2  11 228.854 141.795   3
   2  -2  12 958.360 212.704   3
   2  -2  13 1326.66 261.144   3
   2  -2  14 117.578 133.085   3
  -2   1  14-60.6798 101.697   3
  -2   1  13-184.593 126.882   3
  -2   1  12 2691.15 334.663   3
   2  -1 -11 3604.59 218.721   2
  -2   1  11 3584.65 362.015   3
   2  -1 -10 2481.71 192.881   2
  -2   1  10 2782.80 305.179   3
   2  -1  -9 1190.02 135.795   2
  -2   1   9 1280.87 208.949   3
   2  -1  -8 5728.89 290.334   2
  -2   1   8 5820.77 386.988   3
   2  -1  -7 7263.25 328.116   2
  -2   1   7 7509.61 412.811   3
   2  -1  -6 17658.6 510.682   2
  -2   1   6 17855.7 582.058   3
   2  -1  -6 17548.8 580.763   3
   2  -1  -5 2201.96 192.641   2
  -2   1   5 1929.45 185.013   3
   2  -1  -5 2013.80 185.569   3
   2  -1  -4 4999.97 281.033   2
   2  -1  -4 4868.11 264.966   3
  -2   1   4 4906.48 264.699   3
   2  -1  -3 1153.17 149.687   2
   2  -1  -3 994.932 117.751   3
   2  -1  -2 2524.82 163.830   3
   2  -1  -2 2812.70 222.383   2
   2  -1  -1 27038.5 656.327   2
   2  -1  -1 25836.2 471.508   3
   2  -1   0 8747.40 382.724   2
  -2   1   0 9144.99 356.479   1
   2  -1   0 8719.65 364.753   1
   2  -1   0 8007.30 252.885   3
   2  -1   1 16419.0 520.178   2
  -2   1  -1 16606.6 466.503   1
   2  -1   1 16090.6 482.675   1
  -2   1  -2 2493.00 185.964   1
   2  -1   2 2440.51 187.454   1
   2  -1   2 2437.58 216.104   2
   2  -1   2 2276.14 147.936   3
   2  -1   3 2173.52 201.258   2
  -2   1  -3 1798.48 158.102   1
   2  -1   3 1625.40 157.975   1
   2  -1   3 1886.43 144.008   3
   2  -1   4 780.908 109.674   1
   2  -1   4 881.308 137.158   2
  -2   1  -4 868.223 116.544   1
   2  -1   4 799.924 109.400   3
  -2   1  -5 1883.12 159.907   1
   2  -1   5 1756.38 168.440   3
   2  -1   5 1751.56 149.857   1
   2  -1   5 1919.26 189.286   2
   2  -1   6 4913.46 295.008   2
  -2   1  -6 4652.29 240.129   1
   2  -1   6 4562.82 282.534   3
   2  -1   6 4494.21 228.136   1
   2  -1   7 506.004 105.411   2
  -2   1  -7 486.402 88.8483   1
   2  -1   7 487.989 92.7920   1
   2  -1   7 486.256 115.775   3
   2  -1   8 8122.02 370.797   2
  -2   1  -8 7782.55 304.652   1
   2  -1   8 7582.92 412.835   3
   2  -1   8 7876.28 279.670   1
  -2   1  -9 2858.18 185.178   1
   2  -1   9 3116.68 232.218   2
   2  -1   9 2895.21 282.213   3
  -2   1 -10 5579.08 245.431   1
   2  -1  10 5468.55 293.076   2
   2  -1  10 5557.87 410.551   3
   2  -1  11 1199.15 219.578   3
   2  -1  12 355.972 134.862   3
   2  -1  13-23.4853 84.0747   3
   2  -1  14 329.286 145.243   3
   2  -1  15 257.962 154.162   3
  -2   0  14 1216.67 242.819   3
  -2   0  13 2253.32 320.370   3
  -2   0  12 371.952 154.363   3
  -2   0  11 4197.96 392.044   3
  -2   0  10 3455.85 336.475   3
   2   0 -10 3432.99 196.445   2
   2   0  -9 1189.23 131.303   2
  -2   0   9 1182.88 199.299   3
  -2   0   8 5966.86 382.037   3
   2   0  -8 6038.81 285.867   2
  -2   0   7 77.5700 90.4320   3
   2   0  -7 17.9539 64.9634   2
   2   0  -6 38463.6 739.369   2
  -2   0   6 39190.6 846.795   3
   2   0  -6 40277.6 836.373   3
  -2   0   5 3175.83 227.576   3
   2   0  -5 3294.47 226.621   2
   2   0  -5 3034.63 215.242   3
   2   0  -4 2262.74 197.212   1
   2   0  -4 2292.81 195.620   2
  -2   0   4 2374.20 178.572   3
   2   0  -4 2199.56 168.637   3
  -2   0   3 7040.75 262.078   3
   2   0  -3 7893.04 354.655   2
   2   0  -3 7303.19 270.238   3
  -2   0   2 12133.9 417.202   1
   2   0  -2 11988.8 301.078   3
   2   0  -2 12667.4 450.930   2
  -2   0   1 3213.09 220.937   1
   2   0  -1 3352.39 135.671   3
   2   0   0 2002.68 90.4315   3
  -2   0   0 1959.73 177.880   1
   2   0   1 76.9392 26.4298   3
  -2   0  -1 34.0921 93.7744   1
   2   0   1 39.5829 53.1212   1
  -2   0  -2 13387.2 425.190   1
   2   0   2 13643.0 428.040   1
   2   0   2 13305.7 262.365   3
  -2   0  -3 2951.65 208.432   1
   2   0   3 2739.11 196.979   1
   2   0   3 2518.17 142.072   3
  -2   0  -4 15362.9 453.564   1
   2   0   4 15063.0 386.485   3
   2   0   4 14986.8 433.205   1
  -2   0  -5 5163.04 264.417   1
  -2   0  -5 5453.06 251.300   3
   2   0   5 5654.80 268.009   3
   2   0   5 5366.59 258.957   1
  -2   0  -6 478.085 92.5478   3
  -2   0  -6 470.064 95.2159   1
   2   0   6 511.796 99.1599   1
   2   0   6 553.629 102.429   3
  -2   0  -7 1059.00 133.892   1
   2   0   7 910.758 143.008   3
   2   0   7 1070.52 127.963   1
  -2   0  -8 11457.2 398.188   1
   2   0   8 12540.7 513.838   3
  -2   0  -9 3646.76 230.791   1
   2   0   9 4079.85 322.398   3
  -2   0 -10 956.537 124.499   1
   2   0  10 874.383 175.913   3
  -2   0 -11 2358.41 187.103   1
   2   0  11 2074.60 260.551   3
   2   0  12 688.163 184.268   3
   2   0  13 2174.64 308.679   3
   2   0  14 376.563 182.720   3
   2   0  15 701.695 176.357   3
  -2  -1  14 673.079 197.999   3
  -2  -1  13 1861.08 294.444   3
  -2  -1  12-16.1453 79.9330   3
  -2  -1  11 2620.61 311.014   3
   2   1 -10 4549.90 209.545   2
  -2  -1  10 4407.21 375.137   3
   2   1  -9 2557.18 173.649   2
  -2  -1   9 2702.86 278.812   3
   2   1  -8 2441.53 178.977   2
  -2  -1   8 2536.72 258.755   3
   2   1  -7 3532.93 223.915   2
  -2  -1   7 3523.35 275.582   3
   2   1  -6 1599.55 159.809   2
  -2  -1   6 1448.95 170.647   3
   2   1  -6 1478.73 166.407   3
   2   1  -5 22867.7 616.341   1
   2   1  -5 22410.8 571.798   2
  -2  -1   5 21450.2 562.178   3
   2   1  -5 22132.5 553.937   3
  -2  -1   4 4229.76 228.497   3
  -2  -1   4 4173.10 255.451   1
   2   1  -4 5052.18 284.537   1
   2   1  -4 4235.61 219.533   3
  -2  -1   3 5176.28 280.005   1
  -2  -1   3 5211.85 218.346   3
   2   1  -3 4710.33 203.980   3
  -2  -1   2 3347.84 228.267   1
  -2  -1   2 3354.97 145.683   3
   2   1  -2 3267.75 141.778   3
  -2  -1   1 17502.7 499.853   1
   2   1  -1 15584.5 214.309   3
  -2  -1   0 15974.6 475.560   1
  -2  -1  -1 19853.4 529.123   1
  -2  -1  -2 34322.8 690.412   1
   2   1   2 35073.5 677.898   1
  -2  -1  -3 54199.2 859.657   1
   2   1   3 54584.3 546.105   3
  -2  -1  -3 53752.4 525.658   3
   2   1   3 54444.5 834.878   1
  -2  -1  -4 154684. 1469.62   1
   2   1   4 151285. 1136.96   3
  -2  -1  -4 150385. 1087.31   3
   2   1   4 153635. 1383.44   1
  -2  -1  -5 2237.05 192.499   1
   2   1   5 2354.66 175.112   3
  -2  -1  -5 2141.63 155.500   3
   2   1   5 1977.08 171.345   1
   2   1   6 70.1318 81.8986   1
   2   1   6 113.716 62.1634   3
  -2  -1  -6 76.2669 83.8339   1
  -2  -1  -6 95.3867 49.6358   3
   2   1   7 419.192 99.8375   1
   2   1   7 418.361 104.261   3
  -2  -1  -7 179.299 92.8747   1
   2   1   8 2517.49 235.893   3
  -2  -1  -8 2649.56 218.428   1
   2   1   9 5285.61 357.548   3
  -2  -1  -9 5771.04 312.389   1
   2   1  10 1982.65 245.759   3
  -2  -1 -10 2051.56 197.985   1
   2   1  11-54.6982 86.2072   3
  -2  -1 -11 28.9889 66.8869   1
   2   1  12 636.534 165.186   3
  -2  -1 -12 566.085 119.311   1
   2   1  13 919.564 209.062   3
   2   1  14 517.211 168.495   3
   2   1  15-231.131 137.168   3
  -2  -2  14-53.3776 96.7047   3
  -2  -2  13 282.552 147.498   3
  -2  -2  12 7095.84 521.832   3
  -2  -2  11 58.0188 108.511   3
  -2  -2  10 448.173 145.622   3
   2   2 -10 337.847 61.4821   2
   2   2  -9 2171.94 156.852   2
  -2  -2   9 2048.82 244.706   3
  -2  -2   8 23558.4 749.905   3
   2   2  -8 23710.7 534.486   2
   2   2  -7 2545.82 191.559   2
  -2  -2   7 2360.98 232.450   3
   2   2  -6 701.749 116.826   1
  -2  -2   6 583.907 120.136   3
   2   2  -6 649.983 117.154   3
  -2  -2   5 3546.28 235.010   1
   2   2  -5 3768.66 250.194   1
  -2  -2   5 3605.46 238.953   3
   2   2  -5 3647.98 230.209   3
  -2  -2   4 18262.3 517.627   1
   2   2  -4 17578.6 521.856   1
  -2  -2   4 17719.2 463.982   3
   2   2  -4 16961.7 444.513   3
  -2  -2   3 29362.3 662.885   1
  -2  -2   3 29737.5 530.358   3
   2   2  -3 29608.5 515.160   3
  -2  -2   2 133.574 82.7200   1
  -2  -2   2 202.837 50.0524   3
  -2  -2   1 3805.04 247.561   1
  -2  -2   1 3784.33 122.773   3
  -2  -2   0 19811.7 537.743   1
  -2  -2  -1 97.1161 89.1327   1
  -2  -2  -2 70692.8 1017.79   1
  -2  -2  -2 65980.2 423.741   3
   2   2   3 5114.65 170.820   3
  -2  -2  -3 5226.28 295.173   1
  -2  -2  -3 5235.04 171.253   3
   2   2   3 5154.93 268.270   1
   2   2   4 15158.0 357.956   3
  -2  -2  -4 15226.7 490.775   1
  -2  -2  -4 14314.6 347.149   3
   2   2   4 15029.2 450.898   1
   2   2   5 6995.13 286.729   3
  -2  -2  -5 7139.23 346.145   1
  -2  -2  -5 7046.21 279.728   3
   2   2   5 7216.52 318.267   1
   2   2   6 3282.94 220.257   3
  -2  -2  -6 3452.69 247.062   1
  -2  -2  -6 3001.75 205.310   3
   2   2   6 3504.99 228.817   1
   2   2   7 4628.73 284.830   3
  -2  -2  -7 4600.91 290.561   1
  -2  -2  -8 1061.30 161.068   1
   2   2   8 1072.42 159.271   3
   2   2   9 3137.25 280.373   3
  -2  -2  -9 3609.99 270.787   1
   2   2  10 1803.25 229.961   3
  -2  -2 -10 1889.16 208.928   1
   2   2  11 3111.60 313.500   3
  -2  -2 -11 2944.53 250.478   1
  -2  -2 -12 369.606 114.575   1
   2   2  12 383.952 148.465   3
   2   2  13 2744.15 324.671   3
   2   2  14 453.015 163.603   3
   2   2  15 276.353 135.731   3
  -2  -3  14 274.800 136.478   3
  -2  -3  13 80.0959 96.6129   3
  -2  -3  12 5526.49 464.820   3
  -2  -3  11 3778.10 374.614   3
  -2  -3  10 2012.06 264.527   3
   2   3  -9 417.486 78.3830   2
  -2  -3   9 280.676 129.616   3
   2   3  -8 5797.84 276.352   2
  -2  -3   8 5697.89 383.029   3
  -2  -3   7 12926.6 533.273   3
  -2  -3   6 1291.28 156.520   1
   2   3  -6 1452.90 161.567   1
  -2  -3   6 1365.25 177.086   3
   2   3  -6 1603.50 175.207   3
  -2  -3   5 1709.03 172.457   1
   2   3  -5 1793.81 175.871   1
  -2  -3   5 1717.17 174.801   3
   2   3  -5 1782.21 168.609   3
   2   3  -4 586.298 108.085   1
  -2  -3   4 487.044 107.220   1
  -2  -3   4 486.216 98.0700   3
  -2  -3   3 21908.9 587.205   1
  -2  -3   3 20677.3 475.657   3
   2   3  -3 20844.1 557.246   1
  -2  -3   2 40279.9 789.299   1
  -2  -3   2 39365.7 579.305   3
  -2  -3   1 445.020 112.175   1
  -2  -3   1 349.172 56.2426   3
  -2  -3   0 226.593 42.2461   3
  -2  -3   0 164.861 100.172   1
  -2  -3  -1 2212.13 104.954   3
  -2  -3  -1 2547.33 213.746   1
  -2  -3  -2 11617.2 260.808   3
  -2  -3  -2 12346.5 457.544   1
  -2  -3  -3 165.086 104.794   1
  -2  -3  -3 154.973 47.7995   3
  -2  -3  -4 22318.6 467.897   3
  -2  -3  -4 24450.5 641.065   1
  -2  -3  -5 799.828 151.764   1
   2   3   5 671.019 102.773   3
  -2  -3  -5 592.436 92.4222   3
   2   3   6 5779.67 292.613   3
  -2  -3  -6 5346.16 280.049   3
  -2  -3  -6 6005.24 336.120   1
   2   3   7 8101.73 377.855   3
  -2  -3  -7 9051.12 414.125   1
   2   3   8 726.955 139.923   3
  -2  -3  -8 688.966 148.778   1
  -2  -3  -9 199.108 111.003   1
   2   3   9 37.0706 72.6536   3
  -2  -3 -10 154.160 98.4966   1
   2   3  10 49.3149 73.8790   3
  -2  -3 -11 1019.93 172.623   1
   2   3  11 1168.60 198.269   3
   2   3  12 4113.79 379.276   3
  -2  -3 -12 4345.14 326.569   1
  -2  -3 -13 18.3573 86.7979   1
   2   3  13-1.16640 95.9069   3
   2   3  14 1059.59 228.966   3
   2   3  15 160.610 108.444   3
  -2  -4  13 182.909 133.375   3
  -2  -4  12 638.702 177.792   3
  -2  -4  11 555.552 178.599   3
  -2  -4  10 3028.84 322.616   3
   2   4  -9 330.337 72.9344   2
  -2  -4   9 381.533 134.908   3
  -2  -4   8 2662.63 275.284   3
  -2  -4   7 854.888 127.776   1
  -2  -4   7 879.553 163.714   3
  -2  -4   6 5304.03 302.246   1
  -2  -4   6 5169.40 334.002   3
   2   4  -6 4899.00 278.480   1
  -2  -4   5 19081.0 563.968   1
  -2  -4   5 18969.3 583.939   3
   2   4  -5 19872.2 547.663   1
  -2  -4   4 7259.38 352.934   1
  -2  -4   4 6915.57 330.653   3
   2   4  -4 7036.18 331.679   1
  -2  -4   3 1817.53 187.201   1
  -2  -4   3 1688.21 160.153   3
   2   4  -3 1585.90 170.220   1
  -2  -4   2 23095.3 618.785   1
  -2  -4   2 22603.5 503.731   3
   2   4  -2 21900.5 571.640   1
  -2  -4   1 6423.01 339.431   1
  -2  -4   1 6611.13 258.649   3
   2   4  -1 6781.30 324.501   1
  -2  -4   0 11320.0 449.840   1
  -2  -4  -1 284.771 110.126   1
  -2  -4  -1 155.469 47.5050   3
  -2  -4  -2 3079.12 168.658   3
  -2  -4  -2 3259.35 258.446   1
  -2  -4  -3 7518.52 281.056   3
  -2  -4  -3 8339.34 396.593   1
  -2  -4  -4 6328.83 277.895   3
  -2  -4  -4 6824.57 368.305   1
  -2  -4  -5 371.388 128.839   1
  -2  -4  -5 316.510 78.2133   3
   2   4   6 927.258 141.857   3
  -2  -4  -6 1075.01 183.561   1
   2   4   7 8591.90 403.719   3
  -2  -4  -7 8659.97 403.713   3
  -2  -4  -7 9106.96 453.102   1
  -2  -4  -8 62.3842 143.599   1
   2   4   8 106.642 86.5516   3
   2   4   9 579.124 139.676   3
  -2  -4  -9 452.259 161.855   1
   2   4  10 243.531 113.686   3
  -2  -4 -10 115.257 135.332   1
  -2  -4 -11-115.303 143.215   1
   2   4  11 34.3151 90.5409   3
   2   4  12 2096.76 274.751   3
  -2  -4 -12 2705.59 281.943   1
  -2  -4 -13 934.136 185.416   1
   2   4  13 608.584 156.451   3
  -2  -4 -14 324.139 125.660   1
   2   4  14 461.351 172.365   3
   2   4  15 345.160 137.542   3
  -2  -5  13 856.216 214.474   3
  -2  -5  12 2514.88 344.583   3
  -2  -5  11 72.3122 92.7806   3
  -2  -5  10 1639.55 254.930   3
  -2  -5   9 2152.80 274.760   3
  -2  -5   8 3447.67 239.026   1
  -2  -5   8 3614.02 329.329   3
  -2  -5   7 572.054 112.394   1
  -2  -5   7 624.578 150.096   3
   2   5  -6 1273.18 167.929   2
  -2  -5   6 904.479 138.435   1
  -2  -5   6 1091.43 171.790   3
   2   5  -5 5017.69 281.261   2
  -2  -5   5 5077.86 308.967   1
  -2  -5   5 4720.57 316.237   3
  -2  -5   4 5482.20 318.530   1
  -2  -5   4 5564.52 324.769   3
  -2  -5   3 91.1287 86.4351   1
  -2  -5   3 11.1676 60.1476   3
  -2  -5   2 216.802 76.3007   3
  -2  -5   2 228.936 96.5067   1
  -2  -5   1 71.6841 96.8808   1
  -2  -5   0 11154.5 470.460   1
  -2  -5  -1 112.848 114.052   1
  -2  -5  -2 6684.26 287.912   3
  -2  -5  -2 7416.31 391.362   1
  -2  -5  -3 3526.69 219.178   3
  -2  -5  -3 4258.63 305.654   1
  -2  -5  -4 14080.2 456.155   3
  -2  -5  -4 16177.2 587.400   1
  -2  -5  -5 681.910 197.207   1
  -2  -5  -6 46.5629 56.2980   3
  -2  -5  -6-55.3753 170.684   1
  -2  -5  -7-53.6165 176.849   1
   2   5   8 3362.62 288.486   3
  -2  -5  -8 3390.35 314.016   1
   2   5   9 2388.79 256.309   3
  -2  -5  -9 2550.26 287.050   1
   2   5  10 1110.99 193.775   3
  -2  -5 -10 796.806 198.796   1
   2   5  11 4.00844 73.3451   3
  -2  -5 -11-79.9816 150.008   1
   2   5  12 421.512 142.851   3
  -2  -5 -12 208.673 155.260   1
   2   5  13 760.458 181.212   3
  -2  -5 -13 550.369 178.045   1
  -2  -5 -14 463.213 171.818   1
   2   5  14 1111.39 233.385   3
  -2  -6  12 3949.01 429.386   3
  -2  -6  11 890.584 205.322   3
  -2  -6  10 319.704 143.639   3
  -2  -6   9 970.258 202.998   3
  -2  -6   8 2493.32 204.763   1
  -2  -6   8 2128.04 269.216   3
  -2  -6   7 548.932 110.873   1
  -2  -6   7 503.325 142.973   3
  -2  -6   6 1383.37 175.244   1
  -2  -6   6 1257.80 192.689   3
  -2  -6   5 584.099 129.105   1
  -2  -6   5 602.865 139.568   3
  -2  -6   4 565.376 121.169   1
  -2  -6   4 490.615 129.248   3
  -2  -6   3 5097.46 331.154   1
  -2  -6   3 4993.87 319.517   3
  -2  -6   2 4301.99 312.115   1
  -2  -6   2 4233.20 287.676   3
  -2  -6   1 2653.88 251.046   1
  -2  -6   0 2429.55 247.350   1
  -2  -6  -1 160.137 111.572   1
  -2  -6  -2 9576.81 465.709   1
  -2  -6  -3 1613.60 240.448   1
  -2  -6  -4 88.6845 60.7712   3
  -2  -6  -4-24.3909 171.569   1
  -2  -6  -5 6573.43 425.855   1
  -2  -6  -6 4781.65 375.494   1
  -2  -6  -7 3525.78 339.629   1
  -2  -6  -8 84.0609 150.081   1
  -2  -6  -9 2314.06 289.767   1
  -2  -6 -10 3669.91 356.310   1
  -2  -6 -11 157.547 165.309   1
  -2  -6 -12 746.651 213.458   1
   2   6  12 896.357 199.121   3
   2   6  13 625.830 176.687   3
  -2  -6 -13 91.0483 148.236   1
   2   6  14 462.524 172.509   3
  -2  -6 -14 375.542 169.417   1
  -2  -7  11 277.634 131.785   3
  -2  -7  10 550.996 180.522   3
  -2  -7   9 232.093 129.775   3
  -2  -7   8 234.951 146.020   3
  -2  -7   7 2058.77 200.885   1
  -2  -7   7 1834.74 258.263   3
  -2  -7   6 1278.89 169.821   1
  -2  -7   6 1252.09 206.426   3
  -2  -7   5 1394.19 180.825   1
  -2  -7   5 1197.36 204.708   3
  -2  -7   4 1735.23 207.531   1
  -2  -7   4 1712.99 222.631   3
  -2  -7   3 3548.61 297.182   1
  -2  -7   3 3970.47 318.690   3
  -2  -7   2 39123.7 950.773   1
  -2  -7   1 390.385 140.215   1
  -2  -7   0 2454.11 260.341   1
  -2  -7  -1 441.478 142.671   1
  -2  -7  -2 3543.52 327.046   1
  -2  -7  -3 2257.67 278.506   1
  -2  -7  -4 742.912 208.575   1
  -2  -7  -5 133.946 152.255   1
  -2  -7  -6 1936.24 268.402   1
  -2  -7  -7 3682.22 358.241   1
  -2  -7  -8 248.286 161.976   1
  -2  -7  -9-47.1732 166.053   1
  -2  -7 -10 111.721 146.471   1
  -2  -7 -11-199.908 189.927   1
  -2  -7 -12 2802.59 343.618   1
  -2  -7 -13 137.782 148.225   1
  -2  -8  10 172.859 137.629   3
  -2  -8   9 3174.87 373.038   3
  -2  -8   8 104.849 115.414   3
  -2  -8   7 1751.46 265.561   3
  -2  -8   6 1654.61 195.426   1
  -2  -8   6 1595.72 253.548   3
  -2  -8   5 374.888 114.952   1
  -2  -8   5 162.780 105.393   3
  -2  -8   4 1905.79 227.575   1
  -2  -8   4 1882.35 247.611   3
  -2  -8   3 116.903 104.412   1
  -2  -8   3 45.2800 90.7319   3
  -2  -8   2 2230.62 256.236   1
  -2  -8   1 817.883 176.721   1
  -2  -8   0 3987.62 335.894   1
  -2  -8  -1 288.483 149.305   1
  -2  -8  -2-131.580 184.651   1
  -2  -8  -3 1733.01 272.517   1
  -2  -8  -4 813.345 217.649   1
  -2  -8  -5 1044.82 243.840   1
  -2  -8  -6 775.887 231.107   1
  -2  -8  -7 1287.82 261.918   1
  -2  -8  -8 1831.19 296.057   1
  -2  -8  -9 1167.39 263.575   1
  -2  -8 -10 231.029 202.560   1
  -2  -8 -11 517.093 182.706   1
  -2  -9   9 692.105 183.641   3
  -2  -9   8 1416.61 259.522   3
  -2  -9   7 77.3082 101.470   3
  -2  -9   6 344.748 135.970   3
  -2  -9   5 347.215 119.998   1
  -2  -9   5 315.807 132.016   3
  -2  -9   4 1427.41 239.608   3
  -2  -9   4 1439.11 207.401   1
  -2  -9   3 99.9158 103.267   3
  -2  -9   3 251.736 137.818   1
  -2  -9   2 863.542 177.414   1
  -2  -9   1 850.848 185.004   1
  -2  -9   0 3025.55 312.966   1
  -2  -9  -1 4170.95 369.067   1
  -2  -9  -2-89.1852 163.278   1
  -2  -9  -3 167.928 159.647   1
  -2  -9  -4-114.990 189.885   1
  -2  -9  -5 405.347 197.019   1
  -2  -9  -6 2213.09 321.314   1
  -2  -9  -7-0.55300 176.483   1
  -2  -9  -8 1069.04 269.137   1
  -2  -9  -9 83.6053 172.922   1
  -2 -10   7 330.397 126.403   3
  -2 -10   6 221.517 129.114   3
  -2 -10   5-20.0524 53.2393   3
  -2 -10   4 376.818 138.456   3
  -2 -10   4 457.319 148.671   1
  -2 -10   3 516.794 170.689   3
  -2 -10   3 739.070 301.973   1
  -2 -10   2 750.621 178.175   1
  -2 -10   1 121.037 117.809   1
  -2 -10   0 344.874 141.550   1
  -2 -10  -1 984.237 206.519   1
  -2 -10  -2 45.7363 155.983   1
  -2 -10  -3 136.343 173.123   1
  -2 -10  -4 40.0181 143.899   1
  -2 -10  -5 134.389 169.042   1
  -2 -10  -6 814.270 236.750   1
  -2 -10  -7 138.715 181.227   1
  -2 -11   5-162.083 134.123   3
  -2 -11   4 289.379 131.139   3
  -2 -11   3 17.0587 92.6244   3
  -2 -11   2 343.029 146.152   1
  -2 -11   1 133.148 137.169   1
  -2 -11   0 205.618 131.533   1
  -2 -11  -1 163.416 120.719   1
  -2 -11  -2-90.7486 153.313   1
  -2 -11  -3 206.396 173.284   1
  -2 -11  -4-42.1093 163.173   1
  -2 -12   0 971.953 232.986   1
   3  -8   0 9.91334 188.361   2
   3  -8   1-574.431 202.158   2
   3  -8   2-355.272 165.816   2
   3  -8   3-381.865 188.690   2
   3  -8   4 399.652 138.734   3
   3  -8   4-267.832 165.202   2
   3  -8   5 84.5630 101.040   3
   3  -8   5-437.246 184.820   2
   3  -7  -5-556.530 215.065   2
   3  -7  -4-183.741 182.962   2
   3  -7  -3 438.796 189.483   2
   3  -7  -2 581.475 197.072   2
   3  -7  -1 608.976 161.438   2
   3  -7   0 486.416 153.714   2
   3  -7   1 91.6967 92.0273   2
   3  -7   2 484.338 151.465   2
   3  -7   3 468.867 145.391   2
   3  -7   4-54.5513 67.5520   3
   3  -7   4 26.3661 78.0446   2
   3  -7   5 61.9023 85.2878   3
   3  -7   5-21.1018 99.1553   2
   3  -7   6 180.282 133.683   2
   3  -7   6 282.837 156.288   3
   3  -7   7-236.799 141.216   2
   3  -7   7-31.1321 96.6952   3
   3  -7   8 123.468 89.1824   3
   3  -6  -9 350.556 156.043   2
   3  -6  -8 57.6986 156.457   2
   3  -6  -7 100.359 150.153   2
   3  -6  -6 130.007 144.153   2
   3  -6  -5 619.856 164.831   2
   3  -6  -4-28.6031 93.7062   2
   3  -6  -3 298.241 139.821   2
   3  -6  -2 2954.05 306.345   2
   3  -6  -1 99.0818 116.755   2
   3  -6   0 131.141 121.490   2
   3  -6   1 1332.75 211.062   2
   3  -6   2 2135.87 258.982   2
   3  -6   3 89.3711 109.730   2
   3  -6   4 49.8518 69.4846   3
   3  -6   4 332.342 119.612   2
   3  -6   5 213.351 98.3412   3
   3  -6   5 9.29229 75.2889   2
   3  -6   6 266.690 108.941   2
   3  -6   6 484.902 152.361   3
   3  -6   7 811.687 159.536   2
   3  -6   7 768.331 191.752   3
   3  -6   8 142.802 83.7502   3
   3  -6   9 300.784 143.071   3
   3  -5 -11-114.146 136.466   2
   3  -5 -10-242.617 151.291   2
   3  -5  -9 429.222 159.397   2
   3  -5  -7 188.277 114.519   2
   3  -5  -6 1142.62 196.149   2
   3  -5  -5 455.562 139.049   2
   3  -5  -4 75.1582 104.468   2
   3  -5  -3 2555.62 280.090   2
   3  -5  -2 48.4842 96.1656   2
   3  -5  -1 1227.21 209.784   2
   3  -5   0 6700.14 438.512   2
   3  -5   1 2.53218 122.406   2
   3  -5   2 3089.12 300.853   2
   3  -5   3 942.181 173.458   2
   3  -5   4 101.006 91.6518   3
   3  -5   4 53.7817 86.3570   2
   3  -5   5 28.0850 77.2575   3
   3  -5   5 32.4492 99.3214   2
   3  -5   6 193.300 113.773   2
   3  -5   6 225.739 110.426   3
   3  -5   7 425.584 125.474   2
   3  -5   7 597.517 150.294   3
   3  -5   8 847.895 156.558   2
   3  -5   8 552.041 149.844   3
   3  -5   9 53.5320 97.4824   3
   3  -5  10 39.5554 117.052   3
   3  -5  11 414.039 175.107   3
   3  -4 -11-77.9911 140.553   2
   3  -4 -10 108.460 148.933   2
   3  -4  -9 379.131 149.291   2
   3  -4  -8 216.767 114.704   2
   3  -4  -7 24.9172 93.6237   2
   3  -4  -6 1238.78 192.393   2
   3  -4  -5 1245.07 201.336   2
   3  -4  -4 3653.36 320.986   2
   3  -4  -3 2862.18 293.995   2
   3  -4  -2 366.176 134.021   2
   3  -4  -1 202.323 129.551   2
   3  -4   0 2457.26 266.506   2
   3  -4   1 3719.99 321.047   2
   3  -4   2 262.227 143.095   2
   3  -4   3 2512.34 265.199   2
   3  -4   3 2286.64 234.920   3
   3  -4   4 848.497 158.566   3
   3  -4   4 750.725 160.769   2
   3  -4   5 918.024 171.382   2
   3  -4   5 898.810 161.307   3
   3  -4   6 86.2284 85.9454   2
   3  -4   6 111.677 77.2419   3
   3  -4   7 79.7933 89.7654   2
   3  -4   7 40.0179 82.6479   3
   3  -4   8-105.231 81.7483   2
   3  -4   8-107.861 90.6785   3
   3  -4   9 1045.22 166.702   2
   3  -4   9 946.288 203.473   3
   3  -4  10 2688.87 333.092   3
   3  -4  11 606.765 168.168   3
   3  -3 -11 355.117 140.770   2
   3  -3 -10-240.993 122.043   2
   3  -3  -9 634.999 141.483   2
   3  -3  -8 1195.10 183.104   2
   3  -3  -7 339.267 120.383   2
   3  -3  -6 1910.87 234.615   2
   3  -3  -5 589.041 152.046   2
   3  -3  -4 10330.8 512.259   2
   3  -3  -3 2709.04 275.319   2
   3  -3  -2 4059.14 329.708   2
   3  -3  -1 2379.24 261.154   2
   3  -3   0 5755.79 387.426   2
   3  -3   0 4784.88 287.268   3
   3  -3   1 3143.11 293.945   2
   3  -3   2 1118.50 189.773   2
   3  -3   3 321.942 102.248   3
   3  -3   3 318.837 127.627   2
   3  -3   4 1308.89 173.745   3
   3  -3   4 1041.44 184.143   2
   3  -3   5 1644.00 215.589   2
   3  -3   5 1792.04 202.214   3
   3  -3   6 1528.37 209.393   2
   3  -3   6 1750.85 217.914   3
   3  -3   7 96.2980 77.1052   3
   3  -3   7 179.172 83.1655   2
   3  -3   8 320.184 122.522   3
   3  -3   8 353.382 111.842   2
   3  -3   9 13.9091 78.3436   3
   3  -3   9 85.8655 77.2192   2
   3  -3  10 1861.40 261.703   3
   3  -3  11 369.459 161.859   3
   3  -3  12 71.0926 102.401   3
  -3   2  13 519.095 185.457   3
  -3   2  12 2398.70 324.163   3
  -3   2  11 888.788 207.197   3
   3  -2 -11 556.229 145.847   2
  -3   2  10-76.5481 97.5398   3
   3  -2 -10-35.7005 81.2342   2
  -3   2   9-35.5732 69.3354   3
   3  -2  -9 53.2148 95.2016   2
   3  -2  -8 2736.09 258.558   2
   3  -2  -7 610.928 144.018   2
   3  -2  -6 5686.97 370.734   2
   3  -2  -5 416.277 138.475   2
   3  -2  -4 300.020 121.102   2
   3  -2  -3 3307.32 293.915   2
   3  -2  -3 3187.36 233.589   3
   3  -2  -2 4840.18 356.451   2
   3  -2  -2 4173.58 254.205   3
   3  -2  -1 2067.98 243.996   2
   3  -2  -1 2226.73 183.336   3
   3  -2   0 685.401 163.453   2
   3  -2   0 539.362 92.8564   3
   3  -2   1 1166.68 195.163   2
   3  -2   1 773.174 107.316   3
   3  -2   2 2093.94 246.337   2
   3  -2   2 2059.83 176.959   3
   3  -2   3 6665.85 420.038   2
   3  -2   3 6623.87 316.378   3
   3  -2   4 4012.88 332.341   2
   3  -2   4 3981.34 262.953   3
   3  -2   5 1449.73 210.523   2
   3  -2   5 1390.43 167.486   3
   3  -2   6 4357.46 336.567   2
   3  -2   6 4642.37 311.161   3
   3  -2   7 184.123 115.184   2
   3  -2   7 50.7741 69.9363   3
   3  -2   8 857.123 161.881   2
   3  -2   8 676.053 147.012   3
   3  -2   9 163.633 93.4210   3
   3  -2   9 115.598 81.5522   2
   3  -2  10 108.369 70.9063   3
   3  -2  10-17.2750 66.3548   2
   3  -2  11 299.329 123.384   3
   3  -2  12 523.616 154.112   3
   3  -2  13 14.7345 65.1910   3
  -3   1  13 357.287 122.299   3
  -3   1  12 1040.62 205.187   3
  -3   1  11 997.119 206.698   3
   3  -1 -10 1729.30 196.086   2
  -3   1  10 1462.93 222.755   3
   3  -1  -9 1437.35 192.379   2
  -3   1   9 1508.71 221.654   3
  -3   1   8 1150.85 184.426   3
   3  -1  -8 1118.44 175.672   2
  -3   1   7 332.487 110.938   3
   3  -1  -7 143.148 109.374   2
   3  -1  -6 8583.33 447.504   2
   3  -1  -5 1522.03 201.690   2
   3  -1  -4 4221.08 327.725   2
   3  -1  -4 3924.59 248.915   3
   3  -1  -3 1746.19 225.780   2
   3  -1  -3 1830.28 162.509   3
   3  -1  -2 190.237 114.302   2
   3  -1  -2 144.405 48.1305   3
   3  -1  -1 66.8564 109.905   2
   3  -1  -1 57.8820 34.9026   3
   3  -1   0 10486.4 517.792   2
   3  -1   0 10031.8 295.978   3
  -3   1  -1 6738.87 376.351   1
   3  -1   1 6053.75 225.264   3
   3  -1   1 6522.27 416.459   2
   3  -1   1 6680.93 239.918   3
  -3   1  -2 3046.20 257.838   1
   3  -1   2 3464.30 315.861   2
   3  -1   2 3115.00 172.854   3
  -3   1  -3 2127.69 217.445   1
   3  -1   3 2483.03 270.358   2
   3  -1   3 1980.77 153.677   3
  -3   1  -4 3794.45 280.136   1
   3  -1   4 3748.68 326.246   2
   3  -1   4 3989.79 228.930   3
   3  -1   5 260.853 123.826   2
  -3   1  -5 496.745 129.996   1
   3  -1   5 375.124 91.7400   3
   3  -1   6 250.677 120.367   2
  -3   1  -6 232.199 96.3967   1
   3  -1   6 243.940 81.2100   3
   3  -1   7 1085.31 181.209   2
  -3   1  -7 963.808 150.120   1
   3  -1   7 853.847 142.369   3
  -3   1  -8 1226.15 161.486   1
   3  -1   8 1675.97 218.547   2
   3  -1   8 1391.18 184.819   3
   3  -1   9 272.858 108.057   2
  -3   1  -9 141.135 79.0929   1
   3  -1   9 127.282 79.3400   3
   3  -1  10 188.919 92.9362   2
   3  -1  10 231.329 102.638   3
   3  -1  11 1038.82 206.446   3
   3  -1  12 529.326 166.391   3
   3  -1  13 168.791 112.382   3
  -3   0  13 1221.35 229.986   3
  -3   0  12 650.882 172.124   3
  -3   0  11 1152.49 219.983   3
   3   0 -10 1602.89 193.093   2
  -3   0  10 1359.32 222.706   3
   3   0  -9 2814.45 249.234   2
  -3   0   9 2723.97 286.730   3
   3   0  -8 3039.62 263.486   2
  -3   0   8 2708.73 260.455   3
  -3   0   7 965.969 159.653   3
   3   0  -7 1090.93 169.300   2
  -3   0   6 345.772 103.335   3
   3   0  -6 303.642 111.169   2
  -3   0   5 5283.01 289.362   3
   3   0  -5 5503.17 361.248   2
   3   0  -5 4938.27 283.090   3
   3   0  -4 14824.2 591.983   2
   3   0  -4 13528.2 417.547   3
   3   0  -3 321.749 137.364   2
   3   0  -3 164.002 54.6696   3
   3   0  -2 1282.65 197.447   2
   3   0  -2 1256.69 101.161   3
  -3   0   1 672.610 137.487   1
   3   0  -1 1002.57 189.926   2
   3   0  -1 821.915 67.0669   3
  -3   0   0 1811.25 209.015   1
   3   0   0 1483.45 67.1194   3
   3   0   0 1571.12 69.3451   3
  -3   0  -1 3779.52 289.935   1
  -3   0  -2 230.339 95.5469   1
   3   0   2 350.362 37.6735   3
   3   0   2 356.851 39.7889   3
  -3   0  -3 3621.69 283.727   1
   3   0   3 3199.97 142.400   3
  -3   0  -4 843.386 159.253   1
   3   0   4 936.090 97.5698   3
  -3   0  -5-25.9993 92.3905   1
   3   0   5-26.0848 50.3511   3
  -3   0  -6 4711.13 320.609   1
   3   0   6 4597.24 261.969   3
  -3   0  -7 855.147 154.636   1
   3   0   7 613.813 111.023   3
  -3   0  -8 85.9535 88.8234   1
   3   0   8 62.0369 58.8039   3
  -3   0  -9 921.234 157.643   1
   3   0   9 788.299 144.492   3
  -3   0 -10 3675.53 277.526   1
   3   0  10 4129.16 336.389   2
   3   0  10 3933.12 333.266   3
   3   0  11-13.8639 60.3225   2
   3   0  11 107.566 98.6818   3
   3   0  12 1104.55 212.815   3
   3   0  13 174.317 121.584   3
  -3  -1  13-135.011 81.5862   3
  -3  -1  12 1309.08 239.029   3
  -3  -1  11 1682.43 260.409   3
  -3  -1  10-42.6510 83.6724   3
   3   1 -10-86.7109 68.8188   2
   3   1  -9 2719.87 241.029   2
  -3  -1   9 2720.80 286.391   3
  -3  -1   8 1117.13 175.064   3
   3   1  -8 976.759 162.263   2
   3   1  -7 2910.68 264.038   2
  -3  -1   7 2638.94 245.909   3
   3   1  -6 9372.86 465.906   2
  -3  -1   6 8916.91 399.434   3
   3   1  -5 984.897 171.404   2
  -3  -1   5 984.299 131.105   3
   3   1  -5 877.543 118.585   3
  -3  -1   4 10820.5 347.399   3
   3   1  -4 11562.6 530.422   2
   3   1  -4 11028.4 351.984   3
  -3  -1   3 5336.09 350.667   1
   3   1  -3 5837.99 217.537   3
   3   1  -2 264.414 37.2271   3
  -3  -1   2 228.478 98.6132   1
  -3  -1   1-35.1379 86.5400   1
  -3  -1   0 5572.28 353.607   1
  -3  -1  -1 2221.34 234.362   1
  -3  -1  -2 1962.25 219.699   1
  -3  -1  -3 2215.29 231.932   1
  -3  -1  -4 250.808 135.441   1
   3   1   4 144.497 35.3063   3
  -3  -1  -5 12638.7 532.660   1
   3   1   5 13030.4 341.027   3
  -3  -1  -6 8711.07 446.205   1
   3   1   6 8351.33 324.102   3
  -3  -1  -7 1495.08 199.217   1
   3   1   7 1324.63 151.785   3
  -3  -1  -8-36.1444 98.5942   1
   3   1   8 13.3699 51.0752   3
  -3  -1  -9 59.6134 81.0483   1
   3   1   9 13.3526 56.4209   3
  -3  -1 -10 1591.93 203.649   1
   3   1  10 1506.56 203.899   3
  -3  -1 -11 1803.25 214.607   1
   3   1  11 1987.15 243.201   3
   3   1  12-127.238 79.2501   3
  -3  -2  13 132.086 74.2359   3
  -3  -2  12 86.7536 89.5178   3
  -3  -2  11 837.088 183.362   3
  -3  -2  10 1784.65 245.079   3
  -3  -2   9 748.749 162.899   3
   3   2  -9 815.185 146.916   2
   3   2  -8 865.880 150.677   2
  -3  -2   8 828.952 151.066   3
   3   2  -7-36.2872 95.0737   2
  -3  -2   7-17.7102 76.2698   3
  -3  -2   6 4500.90 290.038   3
   3   2  -6 4578.29 334.896   2
  -3  -2   5 1459.23 200.727   1
  -3  -2   5 1510.00 157.889   3
   3   2  -5 1519.86 149.801   3
   3   2  -4 24.7028 49.9174   3
  -3  -2   4-57.6262 89.7571   1
  -3  -2   4 37.4902 49.8969   3
  -3  -2   3 5967.19 368.422   1
  -3  -2   3 6184.38 213.041   3
  -3  -2   2 6676.04 391.097   1
  -3  -2   1 5796.65 371.734   1
  -3  -2   0-17.4011 100.546   1
  -3  -2  -1 2791.37 265.664   1
  -3  -2  -2 3373.36 290.981   1
  -3  -2  -3 4372.75 326.244   1
  -3  -2  -4 25639.3 763.365   1
  -3  -2  -5 4776.54 341.809   1
   3   2   5 4060.99 176.134   3
  -3  -2  -6 17588.7 647.352   1
   3   2   6 18903.7 455.001   3
  -3  -2  -6 18478.1 435.676   3
  -3  -2  -7 153.117 49.2403   3
  -3  -2  -7 84.7741 101.959   1
   3   2   7 109.782 60.1598   3
  -3  -2  -8 333.938 134.015   1
   3   2   8 359.558 93.6674   3
  -3  -2  -9 705.820 151.939   1
   3   2   9 460.436 113.059   3
  -3  -2 -10-45.8465 100.104   1
   3   2  10 61.8498 78.4623   3
  -3  -2 -11 1223.06 193.898   1
   3   2  11 1459.19 204.285   3
  -3  -2 -12 649.772 148.728   1
   3   2  12 782.023 162.350   3
  -3  -3  13-42.4602 50.3571   3
  -3  -3  12 483.511 166.590   3
  -3  -3  11-30.7953 84.4379   3
  -3  -3  10 7877.40 502.343   3
   3   3  -9 1245.65 168.800   2
  -3  -3   9 970.581 185.304   3
   3   3  -8 617.484 139.923   2
  -3  -3   8 698.189 150.150   3
   3   3  -7 1768.98 214.973   2
  -3  -3   7 1702.57 198.767   3
  -3  -3   6 13843.1 571.510   1
  -3  -3   6 14029.8 506.204   3
  -3  -3   5 3704.98 304.742   1
  -3  -3   5 3775.77 242.204   3
  -3  -3   4-9.99682 88.5878   1
  -3  -3   4-7.52468 46.9662   3
  -3  -3   3 265.823 125.230   1
  -3  -3   3 364.300 66.4714   3
  -3  -3   2 3285.89 285.288   1
  -3  -3   2 3022.40 119.523   3
  -3  -3   1 13573.2 564.124   1
  -3  -3   0 5749.52 374.774   1
  -3  -3  -1 353.524 126.845   1
  -3  -3  -2 165.761 112.237   1
  -3  -3  -3 210.147 111.252   1
  -3  -3  -4 9841.83 492.653   1
  -3  -3  -4 9414.80 188.433   3
  -3  -3  -5 2855.81 284.712   1
  -3  -3  -5 2888.83 149.834   3
   3   3   6 2451.36 175.109   3
  -3  -3  -6 2289.56 161.373   3
   3   3   7 871.619 121.418   3
  -3  -3  -7 1200.97 204.262   1
   3   3   8 1404.77 163.128   3
  -3  -3  -8 1261.14 209.722   1
   3   3   9 1894.56 205.848   3
  -3  -3  -9 1984.60 248.091   1
   3   3  10 249.391 91.7762   3
  -3  -3 -10 102.288 105.928   1
   3   3  11 82.0904 75.5990   3
  -3  -3 -11-68.1361 100.727   1
  -3  -3 -12 94.1466 106.983   1
  -3  -4  12 1077.28 220.765   3
  -3  -4  11 45.3172 62.1549   3
  -3  -4  10 1635.60 240.182   3
  -3  -4   9 1712.51 234.258   3
  -3  -4   8 2626.17 268.737   3
  -3  -4   7 135.559 84.4288   1
  -3  -4   7 95.7993 83.0108   3
  -3  -4   6 178.728 106.730   1
  -3  -4   6 96.9404 70.7394   3
  -3  -4   5 1940.61 229.824   1
  -3  -4   5 1837.77 187.062   3
  -3  -4   4 3587.74 308.158   1
  -3  -4   4 3650.38 229.021   3
  -3  -4   3 6227.79 396.456   1
  -3  -4   3 6596.24 267.648   3
  -3  -4   2 4001.16 325.681   1
  -3  -4   2 3838.19 175.951   3
  -3  -4   1 1821.33 230.218   1
  -3  -4   1 1969.63 99.6689   3
  -3  -4   0 16595.3 640.153   1
  -3  -4  -1 298.130 123.968   1
  -3  -4  -2 1873.02 232.476   1
  -3  -4  -3-59.2472 130.984   1
  -3  -4  -3-6.67463 12.7716   3
  -3  -4  -4 1191.92 92.6338   3
  -3  -4  -4 1049.80 198.047   1
  -3  -4  -5 224.328 51.1766   3
  -3  -4  -5 381.420 143.460   1
  -3  -4  -6 4134.47 353.343   1
  -3  -4  -7 330.347 154.478   1
  -3  -4  -8 692.567 176.492   1
   3   4   8 884.456 137.383   3
  -3  -4  -9 1617.05 243.741   1
   3   4   9 1544.70 189.376   3
  -3  -4 -10-106.478 115.876   1
   3   4  10 136.953 81.5470   3
  -3  -4 -11-86.9715 112.332   1
  -3  -4 -12 167.024 126.282   1
  -3  -4 -13 46.5119 106.173   1
  -3  -5  12 1459.88 245.785   3
  -3  -5  11 727.628 172.906   3
  -3  -5  10 234.293 108.585   3
  -3  -5   9 90.1111 84.7273   3
  -3  -5   8 1243.26 180.670   1
  -3  -5   8 1007.21 180.798   3
  -3  -5   7 591.060 139.679   1
  -3  -5   7 806.663 157.393   3
  -3  -5   6 3277.09 293.761   1
  -3  -5   6 2975.61 261.574   3
  -3  -5   5 2012.34 241.330   1
  -3  -5   5 2052.80 204.883   3
  -3  -5   4 1943.12 236.327   1
  -3  -5   4 1823.49 176.627   3
  -3  -5   3 6140.45 405.612   1
  -3  -5   3 6331.32 296.204   3
  -3  -5   2 2600.22 273.619   1
  -3  -5   2 3150.22 193.102   3
  -3  -5   1 501.641 138.330   1
  -3  -5   1 627.998 83.2474   3
  -3  -5   0 568.171 70.1724   3
  -3  -5   0 598.507 73.8252   3
  -3  -5   0 708.950 164.070   1
  -3  -5  -1 976.409 85.8402   3
  -3  -5  -1 1012.94 89.1023   3
  -3  -5  -1 961.688 190.950   1
  -3  -5  -2 4204.65 176.155   3
  -3  -5  -2 4393.95 353.710   1
  -3  -5  -3 156.513 44.8223   3
  -3  -5  -3 185.184 141.477   1
  -3  -5  -4 294.279 61.6322   3
  -3  -5  -4 217.503 137.130   1
  -3  -5  -5 3348.19 327.504   1
  -3  -5  -6 2209.72 283.839   1
  -3  -5  -7 48.7797 140.047   1
  -3  -5  -8-159.749 122.541   1
  -3  -5  -9 798.769 195.810   1
  -3  -5 -10 283.316 155.699   1
  -3  -5 -11-36.3114 130.370   1
  -3  -5 -12 414.527 164.686   1
  -3  -5 -13-45.0331 120.505   1
  -3  -6  11 415.871 148.874   3
  -3  -6  10 4436.36 398.640   3
  -3  -6   9 28.9973 39.5472   3
  -3  -6   8 312.238 100.606   1
  -3  -6   8 378.005 120.082   3
  -3  -6   7 782.668 154.233   1
  -3  -6   7 1133.92 193.581   3
  -3  -6   6 1823.39 231.160   1
  -3  -6   6 1937.33 220.684   3
  -3  -6   5 132.890 94.3944   1
  -3  -6   5 137.794 88.8779   3
  -3  -6   4 92.1581 98.7340   1
  -3  -6   4 172.463 77.2725   3
  -3  -6   3 2.56974 99.0872   1
  -3  -6   3 112.035 74.6187   3
  -3  -6   2 1831.64 244.220   1
  -3  -6   2 1761.31 168.683   3
  -3  -6   1 213.150 114.524   1
  -3  -6   1 32.6672 52.5594   3
  -3  -6   0 821.157 110.783   3
  -3  -6   0 844.904 185.835   1
  -3  -6  -1 163.355 118.994   1
  -3  -6  -2 1003.23 204.964   1
  -3  -6  -3 192.718 133.346   1
  -3  -6  -4 4915.87 406.298   1
  -3  -6  -5-17.3731 130.612   1
  -3  -6  -6 2684.09 322.473   1
  -3  -6  -7 1209.89 229.124   1
  -3  -6  -8 565.192 173.937   1
  -3  -6  -9 446.910 171.671   1
  -3  -6 -10 395.370 169.995   1
  -3  -6 -11 1065.09 229.055   1
  -3  -6 -12 605.369 191.261   1
  -3  -6 -13 40.2010 79.4083   1
  -3  -7   9 857.587 193.233   3
  -3  -7   8-63.0093 101.993   3
  -3  -7   7-12.3454 54.1502   1
  -3  -7   7 166.604 85.1758   3
  -3  -7   6 808.526 171.434   1
  -3  -7   6 630.068 147.232   3
  -3  -7   5 579.830 150.256   1
  -3  -7   5 836.467 160.291   3
  -3  -7   4-3.20951 102.144   1
  -3  -7   4 32.4853 70.7965   3
  -3  -7   3 1285.04 208.120   1
  -3  -7   3 1146.72 166.619   3
  -3  -7   2 209.941 123.648   1
  -3  -7   2 29.6305 65.3293   3
  -3  -7   1 6321.29 450.871   1
  -3  -7   1 6726.98 346.501   3
  -3  -7   0 6358.79 456.191   1
  -3  -7   0 7226.40 350.074   3
  -3  -7  -1 2293.99 292.337   1
  -3  -7  -2 153.726 134.443   1
  -3  -7  -3 90.3459 125.195   1
  -3  -7  -4 1615.38 253.134   1
  -3  -7  -5 1178.62 237.293   1
  -3  -7  -6 279.970 158.367   1
  -3  -7  -7 291.934 177.371   1
  -3  -7  -8 1190.47 234.967   1
  -3  -7  -9 879.995 226.615   1
  -3  -7 -10 136.791 146.739   1
  -3  -7 -11 150.960 155.059   1
  -3  -8   7 1049.19 191.136   3
  -3  -8   6 57.3887 95.0315   1
  -3  -8   6 27.2248 73.7878   3
  -3  -8   5 883.648 182.577   1
  -3  -8   5 767.374 162.843   3
  -3  -8   4 1062.08 193.486   1
  -3  -8   4 1096.09 184.028   3
  -3  -8   3 579.623 158.825   1
  -3  -8   3 501.435 125.512   3
  -3  -8   2 2390.01 292.829   1
  -3  -8   2 2149.25 230.561   3
  -3  -8   1 515.750 131.612   3
  -3  -8   1 352.790 156.741   1
  -3  -8   0 8030.79 531.543   1
  -3  -8   0 9162.64 441.630   3
  -3  -8  -1 205.829 164.013   1
  -3  -8  -2 41.2049 117.657   1
  -3  -8  -3 94.8208 115.032   1
  -3  -8  -4 258.966 155.086   1
  -3  -8  -5 760.937 196.704   1
  -3  -8  -6 254.105 157.691   1
  -3  -8  -7 616.942 192.398   1
  -3  -8  -8 92.4898 134.541   1
  -3  -8  -9 711.726 199.501   1
  -3  -9   5 396.114 125.245   1
  -3  -9   4 34.0200 78.4686   1
  -3  -9   3-79.8739 104.560   1
  -3  -9   3-54.0264 74.7812   3
  -3  -9   2 1097.51 216.281   1
  -3  -9   2 1007.44 177.258   3
  -3  -9   1 121.717 91.7648   3
  -3  -9   1 83.2365 119.578   1
  -3  -9   0 197.475 99.2480   3
  -3  -9   0 648.533 195.511   1
  -3  -9  -1 71.2011 137.016   1
  -3  -9  -2 2668.42 339.178   1
  -3  -9  -3 829.832 212.798   1
  -3  -9  -4 120.869 131.998   1
  -3  -9  -5 79.4916 114.080   1
  -3  -9  -6 244.705 137.312   1
  -3 -10   4-68.5365 93.1473   1
  -3 -10   3 191.335 122.279   1
  -3 -10   2 492.716 165.927   1
  -3 -10   1-45.6583 123.997   1
  -3 -10   0 765.527 204.046   1
  -3 -10  -1 166.745 155.046   1
  -3 -10  -2 322.729 153.665   1
  -3 -10  -3 665.061 208.143   1
  -3 -11   2-81.5110 102.084   1
  -3 -11   1 41.1340 88.9941   1
   4  -5  -2 47.8857 127.908   2
   4  -5  -1 49.8095 118.143   2
   4  -5   0 21.8312 119.406   2
   4  -5   1 108.602 123.442   2
   4  -5   2 1153.28 228.819   2
   4  -5   3 264.153 127.327   2
   4  -5   4 852.650 191.432   2
   4  -5   5 9.60360 91.1695   2
   4  -5   6 186.044 105.612   2
   4  -5   7 113.636 79.9894   2
   4  -4  -6-28.0151 87.2554   2
   4  -4  -5-32.1397 89.0148   2
   4  -4  -4 316.685 146.064   2
   4  -4  -3 359.092 161.244   2
   4  -4  -2 228.773 153.779   2
   4  -4  -1 1579.48 258.473   2
   4  -4   0 410.544 182.658   2
   4  -4   1 567.539 176.949   2
   4  -4   2 2709.19 331.415   2
   4  -4   3 208.439 120.631   2
   4  -4   4 702.588 192.574   2
   4  -4   5 16.0874 99.8934   2
   4  -4   6 85.6131 113.441   2
   4  -4   7-80.9913 88.4174   2
   4  -4   8-186.946 119.500   2
   4  -3  -9 552.321 156.844   2
   4  -3  -8 187.174 133.349   2
   4  -3  -7 268.178 117.764   2
   4  -3  -6 218.709 124.325   2
   4  -3  -5 189.817 137.029   2
   4  -3  -4-43.2532 123.521   2
   4  -3  -3 1037.99 205.104   2
   4  -3  -2 2869.27 326.416   2
   4  -3  -1-119.485 117.222   2
   4  -3   0 169.081 138.247   2
   4  -3   1 233.800 142.211   2
   4  -3   2 881.215 204.840   2
   4  -3   3 1447.39 246.278   2
   4  -3   4-8.37507 113.289   2
   4  -3   5 324.518 146.693   2
   4  -3   6 177.854 92.7055   2
   4  -3   7 346.349 135.215   2
   4  -3   8-19.5372 76.3625   2
   4  -3   9-36.2339 69.8077   2
   4  -2  -9 185.391 118.055   2
   4  -2  -8-66.5054 106.193   2
   4  -2  -7 321.113 128.727   2
   4  -2  -6 711.372 175.586   2
   4  -2  -5 53.4812 109.639   2
   4  -2  -4 3114.17 342.366   2
   4  -2  -3 131.945 135.724   2
   4  -2  -2 1236.95 240.001   2
   4  -2  -1 1750.47 266.101   2
   4  -2   0 2884.99 334.526   2
   4  -2   1-130.437 130.881   2
   4  -2   2 530.331 169.731   2
   4  -2   3 436.591 163.430   2
   4  -2   4 946.696 207.766   2
   4  -2   5 1019.72 209.425   2
   4  -2   6 95.2394 107.289   2
   4  -2   7 585.265 169.666   2
   4  -2   8 115.411 96.8061   2
   4  -2   9 23.6094 56.6807   2
   4  -1  -9 163.702 112.258   2
   4  -1  -8 357.711 141.405   2
   4  -1  -7 403.361 132.754   2
   4  -1  -6-11.5979 95.4932   2
   4  -1  -5 542.582 168.994   2
   4  -1  -4 2639.73 322.072   2
   4  -1  -3 401.443 169.643   2
   4  -1  -2 280.303 165.797   2
   4  -1  -1 782.512 194.596   2
   4  -1   0 142.809 119.780   2
   4  -1   1 997.937 223.798   2
   4  -1   2 1769.89 286.426   2
   4  -1   3 43.0218 121.298   2
   4  -1   4 312.815 171.738   2
   4  -1   5 1176.94 232.958   2
  -4   1  -5 1114.81 200.294   1
   4  -1   6 1930.63 281.936   2
  -4   1  -6 1512.86 224.497   1
   4  -1   7 150.754 103.733   2
  -4   1  -7 90.2711 103.684   1
   4  -1   8 199.736 124.215   2
  -4   1  -8 401.090 135.685   1
   4  -1   9-9.71067 57.8760   2
   4  -1  10 282.104 131.561   2
   4   0  -9-79.1952 95.7897   2
   4   0  -8 1099.68 204.325   2
   4   0  -7 901.819 182.620   2
   4   0  -6 2626.54 304.929   2
   4   0  -5-21.9920 112.997   2
   4   0  -4 943.320 202.421   2
   4   0  -3 2267.23 304.096   2
   4   0  -2 2713.49 333.802   2
   4   0  -1 345.091 155.077   2
   4   0   0 102.174 133.022   2
  -4   0   0 35.5781 117.131   1
  -4   0  -1 7.54736 91.8210   1
   4   0   1 87.0035 86.2774   2
  -4   0  -2 1672.00 229.533   1
   4   0   2 2336.00 314.285   2
  -4   0  -3 1580.07 239.382   1
   4   0   3 1833.05 286.474   2
   4   0   4 895.230 212.239   2
  -4   0  -4 948.344 192.307   1
   4   0   5 263.849 141.142   2
  -4   0  -5 179.957 113.820   1
   4   0   6 183.878 134.950   2
  -4   0  -6 36.8256 110.001   1
   4   0   7 124.844 124.635   2
  -4   0  -7 144.155 126.185   1
   4   0   8 902.021 211.513   2
  -4   0  -8 998.198 184.806   1
   4   0   9 136.013 113.843   2
  -4   0  -9 246.498 128.319   1
   4   0  10 12.9721 77.0634   2
   4   1  -9 1214.60 198.461   2
   4   1  -8 298.460 135.181   2
   4   1  -7 861.778 190.593   2
   4   1  -6 331.923 146.047   2
   4   1  -5 84.6266 96.2558   2
   4   1  -4 4537.04 408.220   2
   4   1  -3 1213.59 236.863   2
  -4  -1   2 5557.13 415.538   1
   4   1  -2 5869.13 465.297   2
  -4  -1   1 226.711 128.074   1
   4   1  -1 379.408 168.922   2
  -4  -1   0-41.0370 100.947   1
  -4  -1  -1 134.343 120.030   1
  -4  -1  -2 632.218 166.170   1
  -4  -1  -3 563.104 156.093   1
  -4  -1  -4 213.311 124.240   1
  -4  -1  -5-30.4057 108.177   1
  -4  -1  -6 284.528 132.894   1
  -4  -1  -7 488.057 153.763   1
  -4  -1  -8 669.059 173.070   1
  -4  -1  -9 203.545 108.760   1
  -4  -1 -10-42.8916 81.3130   1
   4   2  -8 15.9987 92.0400   2
   4   2  -7 1204.98 217.874   2
   4   2  -6 11.3986 90.8490   2
   4   2  -5 862.607 211.256   2
  -4  -2   4 4473.52 386.139   1
   4   2  -4 4517.97 406.185   2
  -4  -2   3 1017.84 206.355   1
  -4  -2   2 1458.46 236.379   1
  -4  -2   1 1935.83 257.085   1
  -4  -2   0 1045.06 207.427   1
  -4  -2  -1 553.346 158.674   1
  -4  -2  -2 629.953 168.413   1
  -4  -2  -3 762.617 185.977   1
  -4  -2  -4 803.402 183.278   1
  -4  -2  -5 2247.26 290.545   1
  -4  -2  -6 891.816 211.578   1
  -4  -2  -7 4290.61 384.971   1
  -4  -2  -8 1876.17 273.252   1
  -4  -2  -9 132.174 123.051   1
  -4  -2 -10 221.317 128.645   1
   4   3  -8 3270.18 331.477   2
   4   3  -7 27.4603 100.318   2
   4   3  -6-24.8054 119.286   2
  -4  -3   5 866.237 180.596   1
  -4  -3   4 2802.85 312.908   1
  -4  -3   3 203.844 134.587   1
  -4  -3   2-25.2649 117.098   1
  -4  -3   1 187.707 117.468   1
  -4  -3   0 2015.07 272.361   1
  -4  -3  -1 2938.48 320.326   1
  -4  -3  -2 495.027 164.040   1
  -4  -3  -3 289.836 143.628   1
  -4  -3  -4-77.2871 137.824   1
  -4  -3  -5 327.873 137.836   1
  -4  -3  -6 6129.71 468.655   1
  -4  -3  -7 176.664 146.349   1
  -4  -3  -8 815.158 204.548   1
  -4  -3  -9-9.80635 107.310   1
  -4  -3 -10 202.743 117.907   1
  -4  -3 -11 162.207 122.674   1
   4   4  -8 2071.24 278.560   2
   4   4  -7 884.750 188.463   2
  -4  -4   6 997.042 196.915   1
  -4  -4   5 53.2001 105.311   1
  -4  -4   4 1374.18 221.368   1
  -4  -4   3 1643.78 260.754   1
  -4  -4   2 377.938 154.689   1
  -4  -4   1 2116.72 287.600   1
  -4  -4   0 571.693 166.244   1
  -4  -4  -1 3680.67 367.394   1
  -4  -4  -2 2406.14 310.791   1
  -4  -4  -3 50.4137 131.506   1
  -4  -4  -4 270.675 151.436   1
  -4  -4  -5 72.5163 128.926   1
  -4  -4  -6 565.121 190.633   1
  -4  -4  -7 709.410 204.679   1
  -4  -4  -8 1811.75 276.255   1
  -4  -4  -9-92.6455 111.988   1
  -4  -4 -10 157.103 131.494   1
  -4  -4 -11 169.031 112.114   1
  -4  -5   7 185.865 126.990   1
  -4  -5   6 672.487 171.455   1
  -4  -5   5 524.354 172.049   1
  -4  -5   4 1581.26 246.871   1
  -4  -5   3 82.6037 120.830   1
  -4  -5   2 1619.45 263.535   1
  -4  -5   1 1925.71 274.981   1
  -4  -5   0 2118.73 296.461   1
  -4  -5  -1 3.85878 108.242   1
  -4  -5  -2 1502.01 261.379   1
  -4  -5  -3 341.257 168.973   1
  -4  -5  -4 754.603 194.304   1
  -4  -5  -5-22.8865 131.144   1
  -4  -5  -6-160.879 135.955   1
  -4  -5  -7 108.359 132.500   1
  -4  -5  -8 516.794 173.550   1
  -4  -5  -9 85.8263 131.309   1
  -4  -5 -10 128.470 128.021   1
  -4  -6   7 59.5143 88.7758   1
  -4  -6   6 122.404 130.158   1
  -4  -6   5 710.992 190.723   1
  -4  -6   4 895.738 195.778   1
  -4  -6   3 893.022 194.361   1
  -4  -6   2 51.9121 128.578   1
  -4  -6   1 469.291 176.459   1
  -4  -6   0 586.602 186.276   1
  -4  -6  -1 127.120 131.336   1
  -4  -6  -2 270.477 144.484   1
  -4  -6  -3 224.353 128.152   1
  -4  -6  -4 598.398 172.140   1
  -4  -6  -5 397.193 170.365   1
  -4  -6  -6 462.888 184.007   1
  -4  -6  -7 186.219 164.258   1
  -4  -6  -8 272.026 140.788   1
  -4  -7   7 124.502 83.5827   1
  -4  -7   6 27.0626 74.5527   1
  -4  -7   5 151.948 121.972   1
  -4  -7   4 784.373 201.347   1
  -4  -7   3 243.512 134.306   1
  -4  -7   2 27.8119 109.361   1
  -4  -7   1 336.225 146.446   1
  -4  -7   0 360.926 169.242   1
  -4  -7  -1 1220.00 248.297   1
  -4  -7  -2 480.975 177.354   1
  -4  -7  -3 176.081 147.827   1
  -4  -7  -4 59.1158 125.002   1
  -4  -7  -5-91.8398 138.548   1
  -4  -7  -6 805.572 224.033   1
  -4  -8   5 191.304 87.0820   1
  -4  -8   4 54.2111 69.1842   1
  -4  -8   3 211.131 120.241   1
  -4  -8   2-18.8569 92.3257   1
  -4  -8   1 662.790 193.239   1
  -4  -8   0 400.276 160.863   1
  -4  -8  -1 2229.99 311.339   1
  -4  -8  -2 2373.78 330.817   1
  -4  -8  -3 365.510 165.302   1
  -5   0  -6 141.842 107.784   1
  -5  -1  -1-42.6502 101.495   1
  -5  -1  -2 70.0983 116.456   1
  -5  -1  -3 40.6855 120.591   1
  -5  -1  -4 393.345 150.251   1
  -5  -1  -5 308.597 146.069   1
  -5  -1  -6 125.002 126.477   1
  -5  -2  -1 73.6866 147.323   1
  -5  -2  -2 208.673 126.094   1
  -5  -2  -3 168.982 133.911   1
  -5  -2  -4 208.893 158.582   1
   0   0   0    0.00    0.00   0
TITL 15101 in P-1
REM P-1 (#2 in standard setting)
CELL 0.71073   3.946040   9.019352  12.283093  86.5288  87.1892  80.6866
ZERR    1.00   0.000330   0.000969   0.001228   0.0084   0.0074   0.0079
LATT  1
SFAC C H N O S
UNIT 22.00 22.00 1.00 2.00 1.00
TREF
HKLF 4
END
;
loop_
_space_group_symop_operation_xyz
'x, y, z'
'-x, -y, -z'
loop_
_atom_site_label
_atom_site_type_symbol
_atom_site_fract_x
_atom_site_fract_y
_atom_site_fract_z
_atom_site_U_iso_or_equiv
_atom_site_adp_type
_atom_site_occupancy
_atom_site_site_symmetry_order
_atom_site_calc_flag
_atom_site_refinement_flags_posn
_atom_site_refinement_flags_adp
_atom_site_refinement_flags_occupancy
_atom_site_disorder_assembly
_atom_site_disorder_group
C1 C 0.8402(5) 0.1934(3) 0.76250(17) 0.0406(5) Uani 1 1 d . . . . .
C2 C 0.7663(6) 0.3487(3) 0.74636(18) 0.0457(6) Uani 1 1 d . . . . .
C3 C 0.5738(6) 0.4145(3) 0.8356(2) 0.0573(7) Uani 1 1 d . . . . .
H3 H 0.499989 0.517416 0.838691 0.069 Uiso 1 1 calc R U . . .
C4 C 0.5069(7) 0.3136(3) 0.9160(2) 0.0599(7) Uani 1 1 d . . . . .
H4 H 0.382893 0.339822 0.980138 0.072 Uiso 1 1 calc R U . . .
C5 C 1.0300(5) 0.0960(3) 0.68699(17) 0.0417(5) Uani 1 1 d . . . . .
H5 H 1.115141 0.144226 0.625061 0.050 Uiso 1 1 calc R U . . .
C6 C 1.1072(5) -0.0561(3) 0.69057(17) 0.0418(5) Uani 1 1 d . . . . .
C7 C 1.3052(6) -0.1318(3) 0.60350(19) 0.0478(6) Uani 1 1 d . . . . .
C8 C 0.9981(6) -0.1540(3) 0.7767(2) 0.0517(6) Uani 1 1 d . . . . .
C9 C 0.8726(7) 0.4370(3) 0.6469(2) 0.0596(7) Uani 1 1 d . . . . .
H9A H 1.088037 0.387309 0.617444 0.089 Uiso 1 1 calc R U . . .
H9B H 0.896778 0.536081 0.666167 0.089 Uiso 1 1 calc R U . . .
H9C H 0.701171 0.444003 0.593236 0.089 Uiso 1 1 calc R U . . .
N1 N 1.4635(6) -0.1930(3) 0.53487(19) 0.0657(6) Uani 1 1 d . . . . .
N2 N 0.9128(7) -0.2348(3) 0.8435(2) 0.0810(8) Uani 1 1 d . . . . .
S1 S 0.67250(16) 0.13381(8) 0.88799(5) 0.0529(2) Uani 1 1 d . . . . .
loop_
_atom_site_aniso_label
_atom_site_aniso_U_11
_atom_site_aniso_U_22
_atom_site_aniso_U_33
_atom_site_aniso_U_23
_atom_site_aniso_U_13
_atom_site_aniso_U_12
C1 0.0427(12) 0.0437(14) 0.0353(11) -0.0014(10) 0.0002(8) -0.0073(10)
C2 0.0435(13) 0.0485(15) 0.0451(13) -0.0054(11) -0.0027(9) -0.0057(10)
C3 0.0598(16) 0.0516(17) 0.0594(16) -0.0173(13) 0.0016(11) -0.0013(13)
C4 0.0562(15) 0.074(2) 0.0505(15) -0.0198(14) 0.0094(11) -0.0101(13)
C5 0.0439(12) 0.0459(15) 0.0346(11) 0.0022(10) 0.0002(8) -0.0073(10)
C6 0.0436(12) 0.0433(15) 0.0380(11) -0.0001(10) -0.0013(8) -0.0062(10)
C7 0.0539(14) 0.0415(14) 0.0466(13) 0.0003(11) -0.0004(10) -0.0051(11)
C8 0.0609(15) 0.0420(15) 0.0516(15) -0.0017(12) 0.0026(11) -0.0077(12)
C9 0.0704(17) 0.0449(16) 0.0623(17) 0.0036(13) 0.0001(12) -0.0085(13)
N1 0.0808(16) 0.0550(16) 0.0582(14) -0.0093(11) 0.0118(11) -0.0030(12)
N2 0.110(2) 0.0586(17) 0.0723(17) 0.0087(13) 0.0203(14) -0.0183(15)
S1 0.0563(4) 0.0636(5) 0.0393(3) -0.0009(3) 0.0060(2) -0.0140(3)
loop_
_atom_type_symbol
_atom_type_description
_atom_type_scat_dispersion_real
_atom_type_scat_dispersion_imag
_atom_type_scat_source
C C 0.0033 0.0016 'International Tables Vol C Tables 4.2.6.8 and 6.1.1.4'
H H 0.0000 0.0000 'International Tables Vol C Tables 4.2.6.8 and 6.1.1.4'
N N 0.0061 0.0033 'International Tables Vol C Tables 4.2.6.8 and 6.1.1.4'
S S 0.1246 0.1234 'International Tables Vol C Tables 4.2.6.8 and 6.1.1.4'
loop_
_geom_angle_atom_site_label_1
_geom_angle_atom_site_label_2
_geom_angle_atom_site_label_3
_geom_angle
_geom_angle_site_symmetry_1
_geom_angle_site_symmetry_3
C2 C1 C5 124.6(2) . .
C2 C1 S1 111.12(17) . .
C5 C1 S1 124.31(18) . .
C1 C2 C3 111.4(2) . .
C1 C2 C9 125.0(2) . .
C3 C2 C9 123.6(2) . .
C2 C3 H3 123.3 . .
C4 C3 C2 113.4(3) . .
C4 C3 H3 123.3 . .
C3 C4 H4 123.5 . .
C3 C4 S1 113.0(2) . .
S1 C4 H4 123.5 . .
C1 C5 H5 114.8 . .
C6 C5 C1 130.4(2) . .
C6 C5 H5 114.8 . .
C5 C6 C7 120.8(2) . .
C5 C6 C8 124.7(2) . .
C8 C6 C7 114.6(2) . .
N1 C7 C6 179.5(3) . .
N2 C8 C6 178.3(3) . .
C2 C9 H9A 109.5 . .
C2 C9 H9B 109.5 . .
C2 C9 H9C 109.5 . .
H9A C9 H9B 109.5 . .
H9A C9 H9C 109.5 . .
H9B C9 H9C 109.5 . .
C4 S1 C1 91.05(13) . .
loop_
_geom_bond_atom_site_label_1
_geom_bond_atom_site_label_2
_geom_bond_distance
_geom_bond_site_symmetry_2
C1 C2 1.389(3) .
C1 C5 1.420(3) .
C1 S1 1.739(2) .
C2 C3 1.409(3) .
C2 C9 1.499(3) .
C3 H3 0.9300 .
C3 C4 1.349(4) .
C4 H4 0.9300 .
C4 S1 1.698(3) .
C5 H5 0.9300 .
C5 C6 1.356(3) .
C6 C7 1.435(3) .
C6 C8 1.433(3) .
C7 N1 1.140(3) .
C8 N2 1.140(3) .
C9 H9A 0.9600 .
C9 H9B 0.9600 .
C9 H9C 0.9600 .
loop_
_geom_hbond_atom_site_label_D
_geom_hbond_atom_site_label_H
_geom_hbond_atom_site_label_A
_geom_hbond_distance_DH
_geom_hbond_distance_HA
_geom_hbond_distance_DA
_geom_hbond_angle_DHA
_geom_hbond_site_symmetry_A
C4 H4 N2 0.93 2.61 3.413(4) 144.4 2_657
C5 H5 N1 0.93 2.58 3.457(3) 158.1 2_856
loop_
_geom_torsion_atom_site_label_1
_geom_torsion_atom_site_label_2
_geom_torsion_atom_site_label_3
_geom_torsion_atom_site_label_4
_geom_torsion
_geom_torsion_site_symmetry_1
_geom_torsion_site_symmetry_2
_geom_torsion_site_symmetry_3
_geom_torsion_site_symmetry_4
C1 C2 C3 C4 0.4(3) . . . .
C1 C5 C6 C7 179.9(2) . . . .
C1 C5 C6 C8 1.3(4) . . . .
C2 C1 C5 C6 -176.9(2) . . . .
C2 C1 S1 C4 0.39(18) . . . .
C2 C3 C4 S1 -0.1(3) . . . .
C3 C4 S1 C1 -0.2(2) . . . .
C5 C1 C2 C3 179.9(2) . . . .
C5 C1 C2 C9 0.5(4) . . . .
C5 C1 S1 C4 179.9(2) . . . .
C9 C2 C3 C4 179.9(2) . . . .
S1 C1 C2 C3 -0.5(3) . . . .
S1 C1 C2 C9 -179.97(19) . . . .
S1 C1 C5 C6 3.6(4) . . . .
