#------------------------------------------------------------------------------
#$Date: 2022-05-10 11:31:38 +0300 (Tue, 10 May 2022) $
#$Revision: 275298 $
#$URL: file:///home/coder/svn-repositories/cod/cif/8/10/52/8105204.cif $
#------------------------------------------------------------------------------
#
# This file is available in the Crystallography Open Database (COD),
# http://www.crystallography.net/
#
# All data on this site have been placed in the public domain by the
# contributors.
#
data_8105204
loop_
_publ_author_name
'Tai, Xi-Shi'
'Wang, Li-Hua'
'Xia, Yu-Pei'
_publ_section_title
;
 The crystal structure of poly[\m2-aqua-
 aqua-(\m3-(E)-2-(4-((2-carbamothioylhydrazineylidene)methyl)phenoxy)acetato-\k3
 O:S:S)sodium(I)], C10H14N3O5SNa
;
_journal_issue                   2
_journal_name_full
'Zeitschrift f\"ur Kristallographie - New Crystal Structures'
_journal_page_first              277
_journal_page_last               279
_journal_paper_doi               10.1515/ncrs-2022-0006
_journal_volume                  237
_journal_year                    2022
_chemical_formula_moiety         'C10 H14 N3 Na O5 S'
_chemical_formula_sum            'C10 H14 N3 Na O5 S'
_chemical_formula_weight         311.29
_space_group_crystal_system      triclinic
_space_group_IT_number           2
_space_group_name_Hall           '-P 1'
_space_group_name_H-M_alt        'P -1'
_atom_sites_solution_hydrogens   mixed
_atom_sites_solution_primary     dual
_cell_angle_alpha                97.080(5)
_cell_angle_beta                 93.159(5)
_cell_angle_gamma                112.125(7)
_cell_formula_units_Z            2
_cell_length_a                   6.7015(5)
_cell_length_b                   7.5656(5)
_cell_length_c                   14.1332(8)
_cell_measurement_reflns_used    2133
_cell_measurement_temperature    273
_cell_measurement_theta_max      28.7140
_cell_measurement_theta_min      2.9240
_cell_volume                     654.71(8)
_computing_cell_refinement       'CrysAlisPro 1.171.38.43f (Rigaku OD, 2015)'
_computing_data_collection       'CrysAlisPro 1.171.38.43f (Rigaku OD, 2015)'
_computing_data_reduction        'CrysAlisPro 1.171.38.43f (Rigaku OD, 2015)'
_computing_molecular_graphics    'Olex2 1.5 (Dolomanov et al., 2009)'
_computing_publication_material  'Olex2 1.5 (Dolomanov et al., 2009)'
_computing_structure_refinement  'SHELXL 2018/3 (Sheldrick, 2015)'
_computing_structure_solution    'SHELXT 2018/2 (Sheldrick, 2018)'
_diffrn_ambient_environment      N~2~
_diffrn_ambient_temperature      273
_diffrn_detector                 'CCD plate'
_diffrn_detector_area_resol_mean 5.2684
_diffrn_detector_type            AtlasS2
_diffrn_measured_fraction_theta_full 1.000
_diffrn_measured_fraction_theta_max 1.000
_diffrn_measurement_details
;
List of Runs (angles in degrees, time in seconds):

  # Type    Start    End  Width  t~exp~   \w     \q     \k     \f   Frames
--------------------------------------------------------------------------
  1  \w    -76.00  14.00   1.00    2.00    --  -11.59 -57.00  90.00   90
  2  \w    -36.00  62.00   1.00    2.00    --  -11.59  57.00-120.00   98
  3  \w    -15.00  77.00   1.00    2.00    --   11.74  77.00   0.00   92
;
_diffrn_measurement_device       'four-circle diffractometer'
_diffrn_measurement_device_type  'SuperNova, Dual, Cu at zero, AtlasS2'
_diffrn_measurement_method       '\w scans'
_diffrn_orient_matrix_type
'CrysAlisPro convention (1999,Acta A55,543-557)'
_diffrn_orient_matrix_UB_11      0.0263208000
_diffrn_orient_matrix_UB_12      -0.0334932000
_diffrn_orient_matrix_UB_13      -0.0448264000
_diffrn_orient_matrix_UB_21      0.0521318000
_diffrn_orient_matrix_UB_22      -0.0514571000
_diffrn_orient_matrix_UB_23      0.0232691000
_diffrn_orient_matrix_UB_31      -0.0990189000
_diffrn_orient_matrix_UB_32      -0.0820203000
_diffrn_orient_matrix_UB_33      -0.0061889000
_diffrn_radiation_monochromator  mirror
_diffrn_radiation_probe          x-ray
_diffrn_radiation_type           'Mo K\a'
_diffrn_radiation_wavelength     0.71073
_diffrn_reflns_av_R_equivalents  0.0269
_diffrn_reflns_av_unetI/netI     0.0485
_diffrn_reflns_Laue_measured_fraction_full 1.000
_diffrn_reflns_Laue_measured_fraction_max 1.000
_diffrn_reflns_limit_h_max       6
_diffrn_reflns_limit_h_min       -7
_diffrn_reflns_limit_k_max       8
_diffrn_reflns_limit_k_min       -7
_diffrn_reflns_limit_l_max       16
_diffrn_reflns_limit_l_min       -16
_diffrn_reflns_number            4268
_diffrn_reflns_point_group_measured_fraction_full 1.000
_diffrn_reflns_point_group_measured_fraction_max 1.000
_diffrn_reflns_theta_full        24.997
_diffrn_reflns_theta_max         24.997
_diffrn_reflns_theta_min         2.923
_diffrn_source                   'micro-focus sealed X-ray tube'
_diffrn_source_type              'SuperNova (Mo) X-ray Source'
_exptl_absorpt_coefficient_mu    0.303
_exptl_absorpt_correction_T_max  1.00000
_exptl_absorpt_correction_T_min  0.76451
_exptl_absorpt_correction_type   multi-scan
_exptl_absorpt_process_details
;
CrysAlisPro 1.171.38.43f (Rigaku Oxford Diffraction, 2015)
Empirical absorption correction using spherical harmonics,
 implemented in SCALE3 ABSPACK scaling algorithm.
;
_exptl_crystal_colour            'clear light colourless'
_exptl_crystal_colour_lustre     clear
_exptl_crystal_colour_modifier   light
_exptl_crystal_colour_primary    colourless
_exptl_crystal_density_diffrn    1.579
_exptl_crystal_description       block
_exptl_crystal_F_000             324
_exptl_crystal_size_max          0.11
_exptl_crystal_size_mid          0.1
_exptl_crystal_size_min          0.08
_refine_diff_density_max         0.264
_refine_diff_density_min         -0.267
_refine_diff_density_rms         0.063
_refine_ls_extinction_coef       0.012(2)
_refine_ls_extinction_expression Fc^*^=kFc[1+0.001xFc^2^\l^3^/sin(2\q)]^-1/4^
_refine_ls_extinction_method     'SHELXL-2018/3 (Sheldrick 2018)'
_refine_ls_goodness_of_fit_ref   1.080
_refine_ls_hydrogen_treatment    mixed
_refine_ls_matrix_type           full
_refine_ls_number_parameters     205
_refine_ls_number_reflns         2284
_refine_ls_number_restraints     12
_refine_ls_restrained_S_all      1.086
_refine_ls_R_factor_all          0.0433
_refine_ls_R_factor_gt           0.0357
_refine_ls_shift/su_max          0.000
_refine_ls_shift/su_mean         0.000
_refine_ls_structure_factor_coef Fsqd
_refine_ls_weighting_details
'w=1/[\s^2^(Fo^2^)+(0.0374P)^2^+0.1070P] where P=(Fo^2^+2Fc^2^)/3'
_refine_ls_weighting_scheme      calc
_refine_ls_wR_factor_gt          0.0818
_refine_ls_wR_factor_ref         0.0872
_reflns_Friedel_coverage         0.000
_reflns_Friedel_fraction_full    .
_reflns_Friedel_fraction_max     .
_reflns_number_gt                1969
_reflns_number_total             2284
_reflns_threshold_expression     'I > 2\s(I)'
_iucr_refine_instructions_details
;
TITL w14_a.res in P-1
    w14_sx.res
    created by SHELXL-2018/3 at 17:48:10 on 17-Dec-2021
REM Old TITL W14 in P-1
REM SHELXT solution in P-1: R1 0.096, Rweak 0.006, Alpha 0.042
REM <I/s> 0.000 for 0 systematic absences, Orientation as input
REM Formula found by SHELXT: C11 N2 O5 S Mg
CELL 0.71073 6.7015 7.5656 14.1332 97.08 93.159 112.125
ZERR 2 0.0005 0.0005 0.0008 0.005 0.005 0.007
LATT 1
SFAC C H N Na O S
UNIT 20 28 6 2 10 2
EQIV $1 -1-X,2-Y,3-Z
EQIV $2 1+X,+Y,-1+Z
EQIV $3 -1-X,1-Y,3-Z
EQIV $4 +X,1+Y,+Z
EQIV $5 -X,2-Y,2-Z
EQIV $6 -X,1-Y,2-Z
ISOR 0.0005 0.001 C1 S1

L.S. 20
PLAN  5
SIZE 0.08 0.1 0.11
TEMP 273
CONF
FREE S1 Na2_$1
FREE S1 Na2_$2
FREE S1 Na1_$3
FREE S1 Na1_$2
FREE Na2 Na1_$4
FREE Na2 Na1_$5
FREE Na2 Na1_$6
FREE Na2 Na1
FREE Na2 H5a_$5
FREE Na2 H5a
FREE Na2 H5b_$5
FREE Na2 H5b
FREE Na1 H4b_$6
FREE Na1 H4b
BOND
list 4
MORE -1
BOND $H
fmap 2
acta
OMIT -3 50
REM <olex2.extras>
REM <HklSrc "%.\\w14_sx.hkl">
REM </olex2.extras>

WGHT    0.037400    0.107000
EXTI    0.011514
FVAR       0.65154
C1    1    1.261382    0.821104    0.201378    11.00000    0.00890    0.00896 =
         0.00945    0.00081    0.00064    0.00307
C2    1    0.891703    0.845790    0.360908    11.00000    0.01179    0.00894 =
         0.00994    0.00201   -0.00048    0.00308
AFIX  43
H2    2    0.829020    0.911663    0.325921    11.00000   -1.20000
AFIX   0
C3    1    0.808913    0.788673    0.450485    11.00000    0.01098    0.00668 =
         0.00917   -0.00157    0.00158    0.00203
C4    1    0.626582    0.819398    0.478196    11.00000    0.01193    0.00916 =
         0.01072    0.00174    0.00031    0.00436
AFIX  43
H4    2    0.560939    0.877113    0.439220    11.00000   -1.20000
AFIX   0
C5    1    0.540502    0.766454    0.562048    11.00000    0.00920    0.01034 =
         0.01286    0.00092    0.00433    0.00474
AFIX  43
H5    2    0.417806    0.787286    0.578535    11.00000   -1.20000
AFIX   0
C6    1    0.638224    0.682168    0.621348    11.00000    0.01105    0.00873 =
         0.00823    0.00084    0.00324    0.00209
C7    1    0.825930    0.655367    0.596429    11.00000    0.01194    0.01076 =
         0.01304    0.00299   -0.00002    0.00595
AFIX  43
H7    2    0.894868    0.602880    0.636993    11.00000   -1.20000
AFIX   0
C8    1    0.908534    0.706424    0.512188    11.00000    0.00968    0.00964 =
         0.01395    0.00028    0.00267    0.00345
AFIX  43
H8    2    1.031726    0.686224    0.495946    11.00000   -1.20000
AFIX   0
C9    1    0.373936    0.646419    0.731193    11.00000    0.01015    0.01191 =
         0.01146    0.00187    0.00232    0.00710
AFIX  23
H9A   2    0.259916    0.588714    0.678176    11.00000   -1.20000
H9B   2    0.403109    0.783253    0.744570    11.00000   -1.20000
AFIX   0
C10   1    0.298242    0.553775    0.819283    11.00000    0.01112    0.00563 =
         0.00851   -0.00257   -0.00040   -0.00030
H2A   2    1.047410    0.928992    0.217465    11.00000    0.00975
H4A   2   -0.330368    0.619611    0.938175    11.00000    0.02871
H4B   2   -0.288842    0.641080    1.035621    11.00000    0.03871
H5A   2    0.124256    0.828057    0.849329    11.00000    0.03947
H5B   2    0.259049    1.003934    0.860990    11.00000    0.02302
N1    3    1.353173    0.723192    0.247099    11.00000    0.01481    0.02083 =
         0.01022    0.00630    0.00619    0.01124
AFIX  93
H1A   2    1.316859    0.694239    0.302336    11.00000   -1.20000
H1B   2    1.448956    0.688713    0.221483    11.00000   -1.20000
AFIX   0
N2    3    1.112723    0.871791    0.244197    11.00000    0.01409    0.01278 =
         0.00908    0.00634    0.00393    0.00773
N3    3    1.048839    0.807306    0.329290    11.00000    0.01280    0.01019 =
         0.00844    0.00324    0.00343    0.00341
NA1   4    0.000000    0.500000    1.000000    10.50000    0.01342    0.01358 =
         0.01150    0.00372    0.00345    0.00587
NA2   4    0.000000    1.000000    1.000000    10.50000    0.01419    0.01315 =
         0.01214    0.00317    0.00401    0.00607
O1    5    0.565397    0.621190    0.704683    11.00000    0.01210    0.01712 =
         0.01174    0.00809    0.00722    0.00888
O2    5    0.392383    0.453195    0.851191    11.00000    0.01399    0.01425 =
         0.01152    0.00440    0.00340    0.00819
O3    5    0.142720    0.583618    0.852300    11.00000    0.01199    0.01324 =
         0.01271    0.00359    0.00576    0.00665
O4    5   -0.227529    0.672231    0.985214    11.00000    0.01334    0.01433 =
         0.01172    0.00346    0.00105    0.00459
O5    5    0.136089    0.945602    0.850786    11.00000    0.01225    0.01265 =
         0.01792    0.00324    0.00243    0.00491
S1    6    1.332919    0.889193    0.093530    11.00000    0.01144    0.01545 =
         0.00932    0.00419    0.00370    0.00538
HKLF 4




REM  w14_a.res in P-1
REM wR2 = 0.0872, GooF = S = 1.080, Restrained GooF = 1.086 for all data
REM R1 = 0.0357 for 1969 Fo > 4sig(Fo) and 0.0433 for all 2284 data
REM 205 parameters refined using 12 restraints

END  
     
WGHT      0.0376      0.1010 

REM Highest difference peak  0.264,  deepest hole -0.267,  1-sigma level  0.063
Q1    1   0.7774  0.7302  0.6226  11.00000  0.05    0.26
Q2    1   0.7589  0.8373  0.4660  11.00000  0.05    0.25
Q3    1   1.1254  0.7375  0.3411  11.00000  0.05    0.24
Q4    1   0.8186  0.7038  0.4658  11.00000  0.05    0.24
Q5    1   0.4112  0.3834  0.8182  11.00000  0.05    0.23

  REM The information below was added by Olex2.
  REM
  REM R1 = 0.0357 for 1969 Fo > 4sig(Fo) and 0.0433 for all 5102 data
  REM 205 parameters refined using n/a restraints
  REM Highest difference peak 0.26, deepest hole -0.27
  REM Mean Shift 0, Max Shift 0.000.

  REM +++ Tabular Listing of Refinement Information +++
  REM R1_all = 0.0433
  REM R1_gt = 0.0357
  REM wR_ref = 0.0872
  REM GOOF = 1.080
  REM Shift_max = 0.000
  REM Shift_mean = 0
  REM Reflections_all = 5102
  REM Reflections_gt = 1969
  REM Parameters = 205
  REM Hole = -0.27
  REM Peak = 0.26
  REM Flack = n/a

  
;
_cod_data_source_file            suppl_j_ncrs-2022-0006_suppl.cif
_cod_data_source_block           w14_sx
_cod_database_code               8105204
_shelx_space_group_comment
;
The symmetry employed for this shelxl refinement is uniquely defined
by the following loop, which should always be used as a source of
symmetry information in preference to the above space-group names.
They are only intended as comments.
;
_shelx_estimated_absorpt_t_max   0.976
_shelx_estimated_absorpt_t_min   0.967
_olex2_refinement_description
;
1. Fixed Uiso
 At 1.2 times of:
  All C(H) groups, All C(H,H) groups, All N(H,H) groups
2. Uiso/Uaniso restraints and constraints
Uanis(C1) \\sim Ueq, Uanis(S1) \\sim Ueq: with sigma of 0.0005 and sigma for
terminal atoms of 0.001
3.a Secondary CH2 refined with riding coordinates:
 C9(H9A,H9B)
3.b Aromatic/amide H refined with riding coordinates:
 C2(H2), C4(H4), C5(H5), C7(H7), C8(H8)
3.c X=CH2 refined with riding coordinates:
 N1(H1A,H1B)
;
_olex2_submission_special_instructions 'No special instructions were received'
_oxdiff_exptl_absorpt_empirical_details
;
Empirical correction (ABSPACK) includes:
- Absorption correction using spherical harmonics
- Frame scaling
;
_oxdiff_exptl_absorpt_empirical_full_max 1.676
_oxdiff_exptl_absorpt_empirical_full_min 0.707
loop_
_space_group_symop_operation_xyz
'x, y, z'
'-x, -y, -z'
loop_
_atom_site_label
_atom_site_type_symbol
_atom_site_fract_x
_atom_site_fract_y
_atom_site_fract_z
_atom_site_U_iso_or_equiv
_atom_site_adp_type
_atom_site_occupancy
_atom_site_site_symmetry_order
_atom_site_calc_flag
_atom_site_refinement_flags_posn
_atom_site_refinement_flags_adp
_atom_site_refinement_flags_occupancy
_atom_site_disorder_assembly
_atom_site_disorder_group
C1 C 1.2614(3) 0.8211(3) 0.20138(13) 0.0093(4) Uani 1 1 d . U . . .
C2 C 0.8917(3) 0.8458(3) 0.36091(14) 0.0105(4) Uani 1 1 d . . . . .
H2 H 0.829020 0.911663 0.325921 0.013 Uiso 1 1 calc R U . . .
C3 C 0.8089(3) 0.7887(3) 0.45049(13) 0.0096(4) Uani 1 1 d . . . . .
C4 C 0.6266(3) 0.8194(3) 0.47820(14) 0.0105(4) Uani 1 1 d . . . . .
H4 H 0.560939 0.877113 0.439220 0.013 Uiso 1 1 calc R U . . .
C5 C 0.5405(3) 0.7665(3) 0.56205(14) 0.0105(4) Uani 1 1 d . . . . .
H5 H 0.417806 0.787286 0.578535 0.013 Uiso 1 1 calc R U . . .
C6 C 0.6382(3) 0.6822(3) 0.62135(13) 0.0098(4) Uani 1 1 d . . . . .
C7 C 0.8259(3) 0.6554(3) 0.59643(14) 0.0114(5) Uani 1 1 d . . . . .
H7 H 0.894868 0.602880 0.636993 0.014 Uiso 1 1 calc R U . . .
C8 C 0.9085(3) 0.7064(3) 0.51219(14) 0.0113(5) Uani 1 1 d . . . . .
H8 H 1.031726 0.686224 0.495946 0.014 Uiso 1 1 calc R U . . .
C9 C 0.3739(3) 0.6464(3) 0.73119(14) 0.0103(4) Uani 1 1 d . . . . .
H9A H 0.259916 0.588714 0.678176 0.012 Uiso 1 1 calc R U . . .
H9B H 0.403109 0.783253 0.744570 0.012 Uiso 1 1 calc R U . . .
C10 C 0.2982(3) 0.5538(3) 0.81928(13) 0.0099(5) Uani 1 1 d . . . . .
H2A H 1.047(4) 0.929(3) 0.2175(15) 0.010(6) Uiso 1 1 d . . . . .
H4A H -0.330(4) 0.620(3) 0.9382(18) 0.029(7) Uiso 1 1 d . . . . .
H4B H -0.289(4) 0.641(4) 1.036(2) 0.039(8) Uiso 1 1 d . . . . .
H5A H 0.124(4) 0.828(4) 0.8493(18) 0.039(8) Uiso 1 1 d . . . . .
H5B H 0.259(4) 1.004(3) 0.8610(17) 0.023(8) Uiso 1 1 d . . . . .
N1 N 1.3532(3) 0.7232(2) 0.24710(11) 0.0134(4) Uani 1 1 d . . . . .
H1A H 1.316859 0.694239 0.302336 0.016 Uiso 1 1 calc R U . . .
H1B H 1.448956 0.688713 0.221483 0.016 Uiso 1 1 calc R U . . .
N2 N 1.1127(3) 0.8718(2) 0.24420(12) 0.0107(4) Uani 1 1 d . . . . .
N3 N 1.0488(3) 0.8073(2) 0.32929(11) 0.0105(4) Uani 1 1 d . . . . .
Na1 Na 0.000000 0.500000 1.000000 0.0124(3) Uani 1 2 d S . P . .
Na2 Na 0.000000 1.000000 1.000000 0.0127(3) Uani 1 2 d S . P . .
O1 O 0.5654(2) 0.62119(18) 0.70468(9) 0.0119(3) Uani 1 1 d . . . . .
O2 O 0.3924(2) 0.45320(18) 0.85119(9) 0.0121(3) Uani 1 1 d . . . . .
O3 O 0.1427(2) 0.58362(18) 0.85230(9) 0.0118(3) Uani 1 1 d . . . . .
O4 O -0.2275(2) 0.6722(2) 0.98521(12) 0.0132(3) Uani 1 1 d . . . . .
O5 O 0.1361(3) 0.9456(2) 0.85079(11) 0.0141(4) Uani 1 1 d . . . . .
S1 S 1.33292(8) 0.88919(7) 0.09353(3) 0.01171(17) Uani 1 1 d . U . . .
loop_
_atom_site_aniso_label
_atom_site_aniso_U_11
_atom_site_aniso_U_22
_atom_site_aniso_U_33
_atom_site_aniso_U_23
_atom_site_aniso_U_13
_atom_site_aniso_U_12
C1 0.0089(6) 0.0090(6) 0.0095(6) 0.0008(4) 0.0006(4) 0.0031(4)
C2 0.0118(11) 0.0089(10) 0.0099(10) 0.0020(8) -0.0005(9) 0.0031(9)
C3 0.0110(11) 0.0067(9) 0.0092(10) -0.0016(8) 0.0016(9) 0.0020(8)
C4 0.0119(11) 0.0092(9) 0.0107(10) 0.0017(8) 0.0003(9) 0.0044(8)
C5 0.0092(11) 0.0103(10) 0.0129(10) 0.0009(9) 0.0043(9) 0.0047(8)
C6 0.0110(11) 0.0087(9) 0.0082(10) 0.0008(8) 0.0032(8) 0.0021(8)
C7 0.0119(11) 0.0108(10) 0.0130(10) 0.0030(9) 0.0000(9) 0.0060(9)
C8 0.0097(11) 0.0096(10) 0.0139(11) 0.0003(9) 0.0027(9) 0.0034(8)
C9 0.0102(11) 0.0119(10) 0.0115(10) 0.0019(9) 0.0023(9) 0.0071(8)
C10 0.0111(11) 0.0056(9) 0.0085(10) -0.0026(8) -0.0004(9) -0.0003(8)
N1 0.0148(10) 0.0208(9) 0.0102(9) 0.0063(8) 0.0062(8) 0.0112(8)
N2 0.0141(10) 0.0128(9) 0.0091(9) 0.0063(7) 0.0039(7) 0.0077(8)
N3 0.0128(9) 0.0102(8) 0.0084(8) 0.0032(7) 0.0034(7) 0.0034(7)
Na1 0.0134(6) 0.0136(6) 0.0115(6) 0.0037(5) 0.0035(5) 0.0059(5)
Na2 0.0142(6) 0.0132(6) 0.0121(6) 0.0032(5) 0.0040(5) 0.0061(5)
O1 0.0121(8) 0.0171(7) 0.0117(7) 0.0081(6) 0.0072(6) 0.0089(6)
O2 0.0140(8) 0.0142(7) 0.0115(7) 0.0044(6) 0.0034(6) 0.0082(6)
O3 0.0120(8) 0.0132(7) 0.0127(7) 0.0036(6) 0.0058(6) 0.0067(6)
O4 0.0133(8) 0.0143(8) 0.0117(8) 0.0035(7) 0.0010(7) 0.0046(6)
O5 0.0122(9) 0.0127(8) 0.0179(8) 0.0032(7) 0.0024(7) 0.0049(7)
S1 0.0114(3) 0.0155(3) 0.0093(3) 0.0042(2) 0.0037(2) 0.0054(2)
loop_
_atom_type_symbol
_atom_type_description
_atom_type_scat_dispersion_real
_atom_type_scat_dispersion_imag
_atom_type_scat_source
C C 0.0033 0.0016 'International Tables Vol C Tables 4.2.6.8 and 6.1.1.4'
H H 0.0000 0.0000 'International Tables Vol C Tables 4.2.6.8 and 6.1.1.4'
N N 0.0061 0.0033 'International Tables Vol C Tables 4.2.6.8 and 6.1.1.4'
Na Na 0.0362 0.0249 'International Tables Vol C Tables 4.2.6.8 and 6.1.1.4'
O O 0.0106 0.0060 'International Tables Vol C Tables 4.2.6.8 and 6.1.1.4'
S S 0.1246 0.1234 'International Tables Vol C Tables 4.2.6.8 and 6.1.1.4'
loop_
_diffrn_refln_index_h
_diffrn_refln_index_k
_diffrn_refln_index_l
_diffrn_refln_intensity_net
_diffrn_refln_intensity_u
0 0 2 0.75 0.28
0 0 -2 0.9 0.5
0 0 2 -0.59 0.44
0 0 -2 0.48 0.26
0 0 -3 114.37 4.05
0 0 -3 116.23 5.51
0 0 3 108.9 5.16
0 0 -4 24.02 1.91
0 0 -4 20.8 1.64
0 0 -4 22.82 2.78
0 0 4 21.5 2.63
0 0 -5 1.79 0.66
0 0 5 3.91 1.27
0 0 -5 3.61 0.79
0 0 -5 2.74 1.47
0 0 -6 288.31 9.46
0 0 -6 291.74 12.76
0 0 6 284.37 11.78
0 0 -6 282.66 8.83
0 0 -7 409.1 16.73
0 0 -7 424.91 12.33
0 0 7 441.25 16.15
0 0 -7 441.5 13.15
0 0 -8 368.89 16.55
0 0 -8 382.29 11.86
0 0 8 365.07 15.38
0 0 -8 378.27 12.54
0 0 -9 60.96 6.66
0 0 -9 57.38 4.47
0 0 9 55.09 5.73
0 0 -9 54.47 4
0 0 -10 25.5 2.85
0 0 -10 28.74 4.97
0 0 -10 20.6 2.79
0 0 10 25.71 4.04
0 0 -11 168.16 8.24
0 0 11 200.03 12.06
0 0 -11 168.23 12.49
0 0 -12 246.8 11.49
0 0 -12 254.46 10.84
0 0 -12 251.84 16.16
0 0 12 283.91 15.19
0 0 -13 202.43 10.65
0 0 -13 196.87 9.74
0 0 13 201.04 13.16
0 0 -14 26.78 3.62
0 0 -14 21.76 3.47
0 0 14 27.45 4.96
0 0 -15 2.61 1.65
0 0 15 6.03 2.68
0 0 16 4.25 2.76
0 0 -16 4.15 1.92
0 0 17 50.47 7.53
0 0 18 17.26 4.81
0 1 -17 1.63 1.73
0 -1 17 0.53 1.5
0 1 -16 12.36 3.06
0 -1 16 14.64 3.58
0 1 -15 2.28 1.55
0 -1 15 3.78 2.13
0 -1 14 34.27 5.01
0 1 -14 38.89 5.01
0 1 -14 26.24 5.73
0 1 -13 66.86 6.38
0 -1 13 65.26 6.65
0 1 -13 72.31 8.12
0 1 -12 8.63 1.99
0 -1 12 9.7 2.43
0 1 -12 10.09 2.51
0 1 -12 9.32 3.13
0 1 -11 182.8 9.24
0 1 -11 171.05 11.48
0 1 -11 180.05 9.95
0 -1 11 193.5 10.62
0 -1 10 0.18 0.83
0 1 -10 0.08 0.79
0 1 -10 0.04 1.16
0 1 -9 306.47 13.89
0 1 -9 304.38 11.56
0 -1 9 294.19 12.33
0 -1 8 1054.52 27.38
0 1 -8 1045.91 27.4
0 -1 8 1070.03 27.33
0 1 -8 1028 28.96
0 1 -7 265.25 11.25
0 1 -7 263.07 10.41
0 -1 7 277 10.49
0 -1 7 252.4 9.99
0 -1 6 351.54 11.34
0 1 -6 346.17 12.1
0 -1 6 352.64 11.94
0 1 -6 353.96 11.92
0 -1 5 344.24 11.05
0 1 -5 335.03 11.04
0 -1 5 335.93 10.01
0 1 -5 328.56 10.73
0 1 -4 138.45 6.04
0 1 -4 141.92 5.38
0 -1 4 142.02 6.08
0 -1 4 144.13 4.98
0 -1 3 16.14 1.74
0 -1 2 9.54 1.21
0 -1 1 92.86 3.62
0 -1 0 31.47 2.15
0 1 0 27.81 1.99
0 -1 0 30.98 1.67
0 1 0 29.71 1.61
0 1 1 146.18 5.96
0 1 1 140.17 3.71
0 -1 -1 139.14 3.76
0 1 2 349.56 11.6
0 1 3 133.64 7.1
0 -1 -3 127.18 3.47
0 1 3 132.33 3.48
0 1 4 1.61 1.18
0 -1 -4 0.57 1.02
0 -1 -4 0.56 0.24
0 1 5 24.96 3.56
0 -1 -5 27.61 1.82
0 -1 -5 25.33 1.81
0 -1 -5 27.49 3.95
0 1 6 209.88 11.22
0 -1 -6 205.58 6.81
0 -1 -6 230.69 12.41
0 -1 -6 208.74 6.6
0 1 7 578.85 20.98
0 -1 -7 540.37 13.84
0 -1 -7 546.08 14.22
0 -1 -7 534.27 21.62
0 -1 -8 983.18 23.3
0 1 8 973.49 30.99
0 -1 -8 947.32 32.78
0 -1 -8 1001.51 22.86
0 -1 -9 213.16 7.98
0 -1 -9 204.1 13.88
0 1 9 214.45 12.9
0 -1 -9 222.62 8.49
0 -1 -10 7.2 1.48
0 -1 -10 6.26 2.84
0 -1 -10 6.4 1.34
0 1 10 9.2 2.86
0 1 11 1.09 1.7
0 -1 -11 -0.43 0.66
0 -1 -11 0.54 0.72
0 -1 -12 46.68 3.91
0 1 12 44.48 6.54
0 -1 -12 55.79 4.67
0 -1 -13 34.05 3.5
0 1 13 34.94 5.95
0 1 14 6.13 2.99
0 1 15 75.67 9.33
0 1 16 13.96 4.6
0 1 17 30.7 6.52
0 1 18 25.07 6.1
0 2 -18 19.02 4.43
0 2 -17 12.95 3.59
0 2 -16 13.79 3.52
0 2 -15 7.93 2.53
0 -2 15 11 2.78
0 -2 14 6.68 2.01
0 2 -14 2.57 1.62
0 2 -13 1.88 1.27
0 -2 13 5.14 1.71
0 -2 12 2.49 1.15
0 2 -12 0.29 1.1
0 2 -12 0.67 1.3
0 2 -11 51.97 5.19
0 2 -11 58.89 5.92
0 -2 11 57.82 4.76
0 2 -11 58.92 5.72
0 2 -10 150.56 9.34
0 -2 10 157.73 7.62
0 -2 10 165.12 9.62
0 2 -10 139.67 8.32
0 2 -9 11.91 2.44
0 -2 9 13.29 2.57
0 2 -9 14.97 2.46
0 -2 9 12.51 1.87
0 -2 8 278.78 12.12
0 2 -8 282.06 10.33
0 -2 8 274.98 9.15
0 -2 7 610.59 14.85
0 -2 7 627.57 19.45
0 2 -7 616.31 16.06
0 -2 6 446.52 10.46
0 -2 6 443.93 15.06
0 2 -6 434.77 15.05
0 2 -5 14.52 2.26
0 -2 5 15.48 2.33
0 -2 4 1096.26 27
0 -2 3 408.54 12.74
0 -2 2 32.29 2.75
0 -2 2 34.39 2.12
0 2 -2 29.45 2.66
0 2 -2 33.46 1.9
0 2 -1 0.23 0.49
0 -2 1 0.53 0.54
0 -2 1 0.46 0.53
0 2 -1 0.23 0.49
0 -2 0 184.45 6.32
0 -2 0 165.85 7.48
0 2 0 177.46 6.15
0 2 0 172.86 7.32
0 -2 -1 7227.52 132.76
0 2 1 7718.69 132.8
0 -2 -2 130.86 4.58
0 2 2 149.86 8.05
0 -2 -2 141.61 8.21
0 2 2 147.01 4.65
0 2 3 30.02 1.42
0 -2 -3 25.25 3.67
0 -2 -3 27.66 1.69
0 2 3 30.43 3.87
0 2 4 7.08 2.16
0 2 4 5.9 0.59
0 -2 -4 6.72 0.81
0 2 5 183.92 10.97
0 -2 -5 167.77 4.56
0 -2 -6 245.98 6.46
0 2 6 277.71 14.18
0 -2 -7 161.39 5.08
0 -2 -7 162.41 5.52
0 -2 -7 170.32 12.38
0 2 7 139.72 10.57
0 2 8 24.49 4.54
0 -2 -8 28.18 5.24
0 -2 -8 27.4 1.98
0 -2 -8 24.94 2.05
0 2 9 51.01 6.74
0 -2 -9 47.22 2.88
0 -2 -9 47.21 3.09
0 -2 -10 13.89 1.78
0 -2 -10 17.71 1.84
0 -2 -11 143.06 6
0 -2 -11 143.8 6.45
0 2 11 137.53 12.01
0 -2 -12 188.63 7.82
0 2 12 188.04 14.51
0 -2 -12 178.6 7.18
0 2 13 376.77 21.64
0 -2 -13 372.44 12.36
0 2 14 138.28 13.21
0 2 15 41.83 7.52
0 2 16 10.25 3.84
0 2 17 19.23 5.68
0 3 -19 2.78 2.63
0 3 -18 132.98 12.01
0 3 -17 13.84 4.26
0 3 -16 41.58 6.4
0 3 -15 5.73 2.48
0 -3 14 9.96 1.89
0 3 -14 14.64 3.65
0 3 -13 29.04 4.78
0 -3 13 28.91 2.96
0 3 -12 139.58 10.3
0 -3 12 139.43 6.3
0 -3 11 59.19 3.52
0 3 -11 56.37 6.25
0 3 -10 52.82 5.81
0 3 -9 48.22 5.37
0 -3 9 49.36 5.4
0 -3 8 683.82 22.88
0 3 -8 704.7 23.17
0 -3 7 843.9 25.81
0 3 -7 883.35 26.09
0 -3 6 22.78 3.25
0 -3 5 11.28 2.22
0 3 -4 22.81 3
0 -3 4 24.93 3.15
0 3 -3 1.29 0.9
0 -3 3 0.74 0.86
0 3 -3 2.12 0.58
0 -3 2 -0.08 0.64
0 3 -2 0.21 0.68
0 -3 2 0.34 0.48
0 3 -2 0.78 0.64
0 3 -1 154.71 7.04
0 3 -1 155.37 7.17
0 -3 1 153.1 7.12
0 -3 1 147.54 7.61
0 3 0 20.99 2.85
0 -3 0 21.73 2.36
0 -3 0 21.89 3.12
0 3 0 20.49 2.26
0 -3 -1 91.52 4.79
0 3 1 93.66 6.58
0 -3 -1 87.35 6.86
0 3 1 89 4.49
0 -3 -2 47.07 3.11
0 -3 -2 54.76 5.82
0 3 2 46.63 5
0 3 2 47.46 2.99
0 3 3 945.32 20.08
0 -3 -3 941.56 21.31
0 3 3 937.49 28.94
0 3 4 235.57 13.19
0 3 4 260.72 6.58
0 -3 -4 257.44 7.64
0 -3 -5 188.76 6.01
0 -3 -5 196.17 13.33
0 3 5 189.27 4.71
0 3 5 180.75 11.88
0 3 6 7.27 2.58
0 -3 -6 9.39 1.07
0 -3 -6 7.3 2.85
0 -3 -7 -0.34 2.2
0 -3 -7 -0.08 0.2
0 3 7 -2 1.82
0 -3 -8 10.86 1.08
0 3 8 13.51 3.6
0 -3 -8 9.88 1.06
0 -3 -9 271.54 7.45
0 3 9 252.77 16.49
0 -3 -9 268.57 7.26
0 3 10 16.46 4.35
0 -3 -10 17.38 1.39
0 3 11 17.22 4.77
0 -3 -11 11.27 1.1
0 3 12 12.62 4.23
0 3 13 33.16 7.01
0 3 14 60.74 9.42
0 3 15 28.34 6.56
0 3 16 3.03 3.39
0 4 -18 21.26 5.16
0 4 -17 25.32 5.39
0 4 -16 442.04 22.57
0 4 -15 177.19 13.44
0 4 -14 0.23 1.48
0 4 -13 1.58 1.38
0 4 -12 11.1 3.19
0 4 -11 7.44 2.72
0 4 -10 54.23 6.31
0 4 -9 383.5 17.52
0 4 -8 15.78 3.16
0 4 -7 396.58 16.87
0 -4 7 410.39 17.18
0 4 -6 329.11 14.57
0 -4 6 342.02 15.05
0 -4 5 176.1 10.01
0 4 -5 178.58 9.92
0 -4 4 73.61 6.07
0 4 -4 69.11 3.33
0 4 -4 66.59 5.67
0 4 -3 20.21 3.01
0 4 -3 27 2.51
0 -4 3 25.29 2.79
0 -4 3 23.93 3.31
0 -4 2 10.01 2.01
0 4 -2 10.81 2.18
0 4 -2 9.44 1.74
0 -4 2 12.37 2.3
0 -4 1 61.48 5.51
0 -4 1 49.41 4.4
0 4 -1 48.61 4.24
0 4 -1 50.49 4.52
0 4 0 145.61 7.22
0 -4 0 144.53 7.52
0 -4 0 139.36 9.34
0 4 0 158.25 8.97
0 4 1 104.4 7.76
0 -4 -1 104.77 8.52
0 -4 -1 111.27 6.17
0 4 1 109.95 5.86
0 4 2 546.76 15.05
0 4 2 539.27 20.7
0 -4 -2 511.88 15.39
0 4 3 77.73 3.86
0 4 3 81.65 7.68
0 -4 -3 76.56 4.53
0 -4 -3 79.39 8.29
0 4 4 252.93 7.39
0 4 4 254.22 14.65
0 -4 -4 257 8.8
0 -4 -4 264.4 16.27
0 -4 -5 376.44 10.81
0 4 5 378.07 19.07
0 -4 -5 360.98 20.23
0 4 5 374.46 8.85
0 -4 -6 178.35 6.18
0 4 6 167.8 12.74
0 4 7 7.11 2.83
0 -4 -7 4.8 0.78
0 4 8 -0.28 1.67
0 4 9 24.68 5.51
0 4 10 42.55 7.36
0 4 11 60.94 9.05
0 4 12 37.57 7.44
0 4 13 15.43 4.96
0 4 14 55.4 9.37
0 5 -16 6.8 3.22
0 5 -15 75.45 9.26
0 5 -14 39.84 6.7
0 5 -13 0.59 1.45
0 5 -12 57.09 7.4
0 5 -11 135.7 11.14
0 5 -10 92.99 8.92
0 5 -9 5.06 2.29
0 5 -8 642.62 24.45
0 5 -7 203.91 12.28
0 5 -6 204.11 11.94
0 5 -5 7.53 1.03
0 5 -5 6.24 2.05
0 5 -4 36.24 2.98
0 -5 4 28.78 4.08
0 5 -4 34.85 4.42
0 5 -3 9.72 1.87
0 5 -3 12.22 2.61
0 -5 3 6.89 1.95
0 5 -2 3.03 1.49
0 -5 2 0.7 0.86
0 5 -2 0.18 0.71
0 -5 2 0.24 0.9
0 -5 1 52.01 5.87
0 5 -1 47.93 4.97
0 -5 1 49.75 4.88
0 5 -1 47.44 4.69
0 5 0 8.31 1.92
0 5 0 6.87 2.14
0 -5 0 5.06 1.53
0 -5 -1 204 13.27
0 -5 -1 191.02 9.44
0 5 1 204 12.04
0 5 1 192.1 8.99
0 -5 -2 173.71 13
0 -5 -2 170.72 8.46
0 5 2 193.46 12.3
0 5 2 178.42 8.16
0 5 3 25.06 4.64
0 -5 -3 34.44 5.74
0 5 3 21.93 2.28
0 -5 -3 30.91 3.27
0 5 4 37.36 2.68
0 -5 -4 33.91 3.25
0 5 5 50.84 7.05
0 -5 -5 52.65 3.8
0 5 5 53.01 2.75
0 -5 -6 116.76 5.33
0 5 6 117.01 11.15
0 -5 -7 15.04 1.52
0 5 7 15.12 4.51
0 5 8 1.01 2.2
0 5 9 5.26 3.38
0 5 10 27.67 6.32
0 5 11 2.09 2.03
0 5 12 97.41 12.33
0 6 -15 260.36 18.35
0 6 -14 142.51 13.16
0 6 -13 2.72 2.3
0 6 -12 1.04 2.01
0 6 -11 5.01 2.55
0 6 -10 81.34 8.83
0 6 -9 4.05 2.37
0 6 -8 187.13 12.9
0 6 -7 240.74 14.34
0 6 -6 5.83 2.3
0 6 -5 263.84 8.85
0 6 -5 266.13 14.23
0 6 -4 375.38 12.69
0 6 -4 374.46 16.84
0 6 -3 324.13 12.85
0 6 -3 321.02 15.04
0 -6 2 283.69 14.07
0 6 -2 304.3 14.1
0 6 -2 273.4 12.68
0 -6 1 100.42 7.74
0 -6 1 98.99 8.99
0 6 -1 100.21 7.38
0 6 -1 98.09 7.78
0 6 0 51.33 5.04
0 -6 0 57.26 7.1
0 6 0 44.88 5.71
0 -6 0 56.45 5.52
0 -6 -1 198.51 10.57
0 6 1 214.71 13.19
0 -6 -1 195.86 14.25
0 6 1 197.4 10
0 6 2 4.74 1.71
0 -6 -2 5.59 2.09
0 6 2 5.72 2.7
0 -6 -3 185.13 9.32
0 6 3 161.35 12.63
0 6 3 182.59 7.86
0 6 4 10.2 3.62
0 -6 -4 18.03 2.68
0 6 4 15.85 1.94
0 6 5 96.46 10.41
0 6 5 98.1 4.27
0 6 6 218.99 16.52
0 6 7 165.02 14.77
0 6 8 31.49 6.86
0 6 9 0.19 2.7
0 6 10 49.74 8.77
0 7 -12 104.9 11.33
0 7 -11 0.75 1.85
0 7 -10 37.38 6.53
0 7 -9 16.71 4.42
0 7 -8 25.13 5.09
0 7 -7 422.27 20.73
0 7 -6 49.41 6.65
0 7 -5 12.8 3.34
0 7 -5 9.23 1.7
0 7 -4 10.86 3.01
0 7 -4 14.26 2.44
0 7 -3 1.11 1.12
0 7 -3 0.38 1.2
0 7 -2 19.2 3.67
0 7 -2 19.56 3.52
0 -7 1 23.87 4.94
0 7 -1 23.65 4.12
0 7 -1 31.75 4.49
0 7 0 1.07 1.29
0 7 0 3.11 1.79
0 7 1 8.78 2.26
0 7 1 3.78 2.07
0 7 2 92.87 6.93
0 7 2 88.7 9.37
0 7 2 85.45 5.92
0 7 3 116.91 6.5
0 7 3 109.23 10.91
0 7 4 24.07 5.55
0 7 5 9.04 3.67
0 7 6 0.15 2.46
0 7 7 25.41 6.23
0 7 8 53.6 9.23
0 8 -10 34.86 6.62
0 8 -9 24.39 5.42
0 8 -8 4.82 2.98
0 8 -7 16.02 4.3
0 8 -6 438.13 21.82
0 8 -5 70.82 8.12
0 8 -4 41.52 6.14
0 8 -3 213.67 13.64
0 8 -2 134.34 9.62
0 8 -2 112.53 9.49
0 8 -1 24.05 4.43
0 8 -1 25.06 4.34
0 8 0 0.62 2.04
0 8 0 0.34 1.21
0 8 1 46.27 5.42
0 8 1 43.15 6.73
0 8 2 35.23 6.3
0 8 3 4.02 3
0 8 4 9.85 4.41
0 8 5 0.4 2.65
0 8 6 11.53 4.5
0 9 -7 30.89 6.29
0 9 -6 88.39 9.82
0 9 -5 13.21 3.98
0 9 -4 11.2 4.12
0 9 -3 3.02 2.51
0 9 -2 1.28 1.81
0 9 -1 30.72 5.29
0 9 2 58.21 8.75
0 9 3 1.76 2.79
0 9 4 17.23 5.16
-1 10 -2 -0.16 2.97
-1 10 -3 7.65 3.78
-1 9 5 18.13 5.46
-1 9 4 44.66 7.6
-1 9 3 75.61 9.74
-1 9 2 3.78 2.87
-1 9 1 4.22 3.07
-1 9 0 18.52 4.23
-1 9 -1 4.3 3.13
-1 9 -2 32.27 5.51
-1 9 -3 23.92 5.08
-1 9 -4 7.9 3.19
-1 9 -5 -1.25 1.93
-1 9 -6 7.49 3.35
-1 9 -7 98.14 10.5
-1 8 7 98.93 12.02
-1 8 6 7.66 3.73
-1 8 5 0.16 2.22
-1 8 4 31.17 6.25
-1 8 3 99.69 10.56
-1 8 2 156.24 12.58
-1 8 2 145.55 8.87
-1 8 1 58.43 7.23
-1 8 1 59.69 5.89
-1 8 0 11.96 3.04
-1 8 0 13.81 3.35
-1 8 -1 -1.96 1.53
-1 8 -1 0.11 1.53
-1 8 -2 30.65 4.97
-1 8 -2 30.37 4.41
-1 8 -3 9.24 2.96
-1 8 -3 8.32 2.38
-1 8 -4 1.24 1.75
-1 8 -5 27.5 5.04
-1 8 -6 32.58 5.59
-1 8 -7 3.72 2.64
-1 8 -8 119.32 11.28
-1 8 -9 25.59 5.51
-1 8 -10 70.86 9.21
-1 8 -11 139.63 13.21
-1 7 9 3.83 2.41
-1 7 8 2.8 2.43
-1 7 7 64.54 9.42
-1 7 6 25.97 5.79
-1 7 5 5.65 3.34
-1 7 4 40.47 3.86
-1 7 4 40.23 6.55
-1 7 3 7.31 1.93
-1 7 3 6.62 2.7
-1 7 2 78.26 6.04
1 -7 -2 79.67 7.09
-1 7 2 82.77 8.43
-1 7 1 1.02 0.81
-1 7 1 2.15 1.44
-1 7 1 2.78 1.8
-1 7 0 142.45 9.48
-1 7 0 161.41 10.77
1 -7 1 0.76 1.53
-1 7 -1 0.35 1.06
-1 7 -1 1.47 1.34
-1 7 -2 49.05 5.78
1 -7 2 47.84 6.26
-1 7 -2 55.06 5.42
-1 7 -3 1.28 1.06
-1 7 -3 4.38 2.06
1 -7 4 40.8 4.87
-1 7 -4 35.78 5.16
-1 7 -5 170.4 11.78
-1 7 -6 52.45 6.61
-1 7 -7 35.85 5.58
-1 7 -8 501.82 23.18
-1 7 -9 -2.67 2.25
-1 7 -10 37.3 6.24
-1 7 -11 86.65 9.68
-1 7 -12 1.32 1.58
-1 7 -13 5.2 2.85
-1 6 11 164.49 15.85
-1 6 10 175.92 15.92
-1 6 9 115.12 12.53
-1 6 8 9.51 4.09
-1 6 7 30.67 6.01
-1 6 7 34.58 2.57
-1 6 6 146.13 6.36
1 -6 -6 138.15 7.83
-1 6 6 145.73 12.59
1 -6 -5 4.9 1.6
-1 6 5 5.41 2.83
-1 6 5 4.8 1.26
-1 6 4 16.91 4.15
1 -6 -4 14.16 2.65
-1 6 4 10.93 1.94
-1 6 3 110.19 9.6
-1 6 3 100.21 6.08
1 -6 -3 89.48 6.75
1 -6 -2 92.12 9.93
-1 6 2 87.6 8.15
1 -6 -2 88.52 6.82
-1 6 2 87.76 5.93
-1 6 1 262.29 11.96
1 -6 -1 255.99 16.19
1 -6 -1 266.49 12.66
-1 6 1 272.28 14.1
1 -6 0 252.89 12.53
1 -6 0 237.4 14.74
-1 6 0 244.14 11.68
-1 6 0 229.55 12.17
-1 6 -1 12.42 2.69
1 -6 1 17.05 3.12
-1 6 -1 11.8 2.55
1 -6 2 60.35 6.34
-1 6 -2 55.85 5.63
1 -6 2 55.36 5.94
-1 6 -2 51.79 4.84
-1 6 -3 57.72 5.89
1 -6 3 49.7 5.34
-1 6 -3 50.75 4.43
-1 6 -4 61.67 6.28
1 -6 4 61.08 5.26
1 -6 5 7.86 1.58
-1 6 -5 9.88 2.7
-1 6 -6 46.71 5.87
-1 6 -7 85.32 8.11
-1 6 -8 90.7 8.65
-1 6 -9 405.75 19.77
-1 6 -10 33.33 5.53
-1 6 -11 125.86 11.14
-1 6 -12 201.98 14.74
-1 6 -13 12.63 3.89
-1 6 -14 77.81 9.35
-1 6 -15 87.3 10.18
-1 5 13 26.3 6.35
-1 5 12 21.65 5.76
-1 5 11 45.79 8
-1 5 10 12.61 4
-1 5 9 7.26 3.05
-1 5 8 13.58 4.07
-1 5 8 12.08 1.37
1 -5 -8 10.72 1.89
1 -5 -7 11.02 1.97
-1 5 7 10.65 1.45
-1 5 7 9.76 3.56
-1 5 6 10.09 1.53
-1 5 6 10.71 3.21
1 -5 -6 10.14 1.97
-1 5 5 46.51 6.32
1 -5 -5 39.74 3.78
-1 5 5 42.66 3.26
1 -5 -4 187.08 14.31
-1 5 4 185.14 7.7
-1 5 4 185.09 12.22
1 -5 -4 192.72 8.93
1 -5 -3 23.7 4.77
-1 5 3 26.6 4.41
1 -5 -3 21.11 2.89
-1 5 3 25.98 2.77
-1 5 2 182.31 10.94
1 -5 -2 146.62 11.56
-1 5 2 172.07 7.86
1 -5 -2 164.92 8.63
-1 5 1 167.16 10.01
1 -5 -1 180.25 9.22
-1 5 1 179.43 8.85
-1 5 0 19.33 3.07
1 -5 0 16.83 2.76
-1 5 0 17.33 2.72
-1 5 -1 828.21 24.19
1 -5 1 793.54 26.25
1 -5 1 855.08 25.12
-1 5 -1 844.55 23.78
1 -5 2 21.42 3.36
1 -5 2 26.97 3.72
-1 5 -2 20.22 2.69
-1 5 -2 22.13 3.28
1 -5 3 11.54 2.3
1 -5 3 11.4 2.53
-1 5 -3 11.07 2.53
-1 5 -3 11.32 1.85
1 -5 4 34.92 3.46
1 -5 4 43.1 4.92
-1 5 -4 44.88 4.97
1 -5 5 104.83 8.12
1 -5 5 104.44 5.08
-1 5 -5 110.56 8.14
-1 5 -6 368.27 16.33
-1 5 -7 278.29 14.31
-1 5 -8 3.93 1.69
-1 5 -9 618.45 23.98
-1 5 -10 79.2 7.98
-1 5 -11 2.91 1.97
-1 5 -12 2.24 1.68
-1 5 -13 49.12 6.93
-1 5 -14 43.86 6.79
-1 5 -15 33.77 6.1
-1 5 -16 18.32 4.49
-1 5 -17 121.87 11.96
-1 4 15 21 6
-1 4 14 23.45 6.2
-1 4 13 78.23 10.41
-1 4 12 16.82 5.25
1 -4 -11 37.98 3.31
-1 4 11 27.05 5.84
-1 4 10 397.87 21.97
1 -4 -10 425.53 13.03
-1 4 9 187.11 6.42
-1 4 9 200.53 14.47
1 -4 -9 182.93 7.68
-1 4 8 105.28 4.71
1 -4 -8 112.68 5.77
-1 4 7 38.79 5.81
1 -4 -7 35.24 3.12
-1 4 7 33.68 2.55
1 -4 -6 264.87 9.66
-1 4 6 272.9 8.69
-1 4 6 259.7 14.97
1 -4 -5 4.98 2.39
1 -4 -5 6.49 1.41
-1 4 5 7.24 2.41
-1 4 5 5.94 1.21
-1 4 4 12.69 1.69
1 -4 -4 8.65 2.85
-1 4 4 16.66 3.37
1 -4 -4 14.71 2.1
-1 4 3 37.25 3.01
-1 4 3 34.06 4.46
1 -4 -3 31.29 3.12
1 -4 -3 31.97 5.06
1 -4 -2 59.04 4.44
-1 4 2 63.48 5.74
-1 4 2 62.1 4.07
1 -4 -1 6.11 1.55
-1 4 1 6.47 1.8
1 -4 -1 5.07 2.02
-1 4 1 5.53 1.37
-1 4 0 165.5 8.23
1 -4 0 142.37 8.77
-1 4 0 157.06 7.53
1 -4 0 145.98 7.62
-1 4 -1 757.94 21.31
-1 4 -1 763.25 20.6
1 -4 1 738.68 22.23
1 -4 1 761.5 21.7
-1 4 -2 200.05 9.27
1 -4 2 187.05 8.73
-1 4 -2 194.59 7.87
1 -4 2 199.81 9.62
1 -4 3 1018.27 24.76
-1 4 -3 1079.99 27.78
-1 4 -4 365.46 14.31
1 -4 4 355.3 10.77
1 -4 5 243.15 11.35
1 -4 5 211.16 6.07
-1 4 -6 231.82 11.57
1 -4 6 214.96 11.39
1 -4 7 1.05 0.91
-1 4 -7 2.24 1.26
-1 4 -8 132.14 9.12
1 -4 8 132.78 9.35
-1 4 -9 137.06 9.68
-1 4 -10 945.64 30.42
-1 4 -11 86.44 8.03
-1 4 -12 70.67 7.45
1 -4 12 80.99 3.56
-1 4 -13 171.9 12.18
-1 4 -14 133.62 11.04
-1 4 -15 56.56 7.42
-1 4 -16 0.66 2.07
-1 4 -17 0.22 2
-1 4 -18 48.51 7.4
-1 3 16 101.26 12.13
-1 3 15 0.46 2.45
-1 3 14 -2.34 2.37
-1 3 13 0.53 2.04
-1 3 12 25.42 5.49
1 -3 -12 22.95 2.87
1 -3 -11 0.27 0.63
-1 3 11 -0.53 2.13
1 -3 -11 -0.16 0.56
-1 3 10 7.11 2.94
1 -3 -10 6.18 1.29
1 -3 -9 40.83 3.16
-1 3 9 40.39 5.94
1 -3 -8 39.03 2.98
-1 3 8 44.19 3.04
-1 3 8 39.35 5.72
-1 3 7 47.85 3.16
1 -3 -7 49.33 6.98
1 -3 -7 49.79 3.29
-1 3 7 57.64 6.57
1 -3 -6 190.21 6.99
-1 3 6 201.02 6.96
1 -3 -6 179.54 12.77
1 -3 -5 332.66 9.83
-1 3 5 327.18 9.61
-1 3 5 339.32 15.22
-1 3 4 54.11 5.36
1 -3 -4 51.18 3.44
-1 3 4 42.67 2.83
1 -3 -3 373.32 15.85
-1 3 3 360.46 10.45
-1 3 3 368.49 14.48
1 -3 -3 365.06 11.17
1 -3 -2 260.57 9
-1 3 2 270.38 11.3
1 -3 -2 247.64 11.76
-1 3 2 252.71 8.42
-1 3 1 51.23 3.36
1 -3 -1 57.55 4.88
-1 3 1 48.86 4.16
-1 3 1 53.35 3.65
1 -3 -1 49.86 3.57
-1 3 0 598.64 16.38
1 -3 0 602.75 17.84
-1 3 0 632.65 17.18
1 -3 0 605.98 16.74
1 -3 1 0.39 0.59
-1 3 -1 0.09 0.46
1 -3 1 -0.14 0.48
-1 3 -1 -0.41 0.67
-1 3 -2 1757.25 39.45
1 -3 2 1785.34 37.44
1 -3 2 1732.89 39.75
1 -3 3 66.18 3.38
1 -3 3 62.15 4.73
1 -3 4 17.76 1.48
1 -3 4 21.06 2.88
1 -3 5 47.55 4.44
1 -3 6 32.84 2.39
1 -3 6 26.77 3.47
1 -3 7 8.98 2.17
1 -3 7 11.26 1.57
-1 3 -8 56.51 5.39
1 -3 8 56.96 5.45
1 -3 8 58.96 3.88
1 -3 9 187 10.77
-1 3 -9 211.8 11.2
1 -3 9 205.14 8.33
-1 3 -10 47.89 5.32
1 -3 10 50.08 5.52
1 -3 10 47.73 4.01
-1 3 -11 512.68 20.15
1 -3 11 523.93 16.6
-1 3 -12 7.62 2.36
1 -3 12 6.83 1.79
-1 3 -13 13.1 3.05
1 -3 13 16.2 2.74
-1 3 -14 49.73 6.16
1 -3 14 46.26 4.87
-1 3 -15 67.69 7.49
-1 3 -16 80.21 8.38
-1 3 -17 26.41 5.12
-1 3 -18 220.12 15.03
-1 2 18 62.62 9.5
-1 2 17 43.43 7.85
-1 2 16 103.45 11.35
-1 2 15 8.1 3.47
-1 2 14 12.49 3.88
1 -2 -14 13.74 2.68
-1 2 13 2.18 1.7
1 -2 -13 1.81 1.08
-1 2 12 7.9 2.89
1 -2 -12 12.84 2.28
1 -2 -11 5.87 1.48
-1 2 11 8.43 3
1 -2 -10 33.52 3.4
1 -2 -10 32.73 3.22
-1 2 10 38.56 5.69
1 -2 -9 55.38 4.02
-1 2 9 57.05 6.61
1 -2 -9 53.34 7.35
1 -2 -8 25.03 4.81
1 -2 -8 21.79 2.38
-1 2 8 23.4 2.36
-1 2 8 20.12 3.72
-1 2 7 265.72 8.86
1 -2 -7 249.16 14.58
-1 2 7 292.93 13.97
1 -2 -7 266.84 9.13
-1 2 6 133.98 8.75
1 -2 -6 126.28 9.5
-1 2 6 137.93 5.63
1 -2 -6 136.66 5.77
1 -2 -5 465.85 12.41
-1 2 5 479.1 17.2
-1 2 5 469.76 12.31
1 -2 -4 341.32 9.58
-1 2 4 335.1 9.38
-1 2 4 319.54 12.94
-1 2 3 5.13 0.9
-1 2 3 5.29 1.61
1 -2 -3 6.01 1
-1 2 2 398.04 10.62
1 -2 -2 411.98 13.6
1 -2 -2 400.43 10.71
-1 2 2 412.97 13.12
-1 2 1 979.2 23.06
1 -2 -1 941.29 21.68
-1 2 1 962.01 21.29
1 -2 -1 933.06 23.26
-1 2 0 214.39 7.34
1 -2 0 224.82 7.5
1 -2 0 226.95 7.82
-1 2 0 216.7 7.54
1 -2 1 135.05 5.69
1 -2 1 135.05 5.17
1 -2 2 388.25 11.62
1 -2 3 3.09 0.96
-1 2 -4 561.67 15.96
1 -2 4 546.98 15.95
1 -2 5 95.55 5.7
1 -2 5 92.42 4.93
-1 2 -5 106.97 5.96
-1 2 -6 8.02 1.71
1 -2 6 11.18 1.89
1 -2 6 10.29 1.92
-1 2 -7 306.82 12.03
1 -2 7 304.5 11.77
1 -2 7 315.57 12.25
1 -2 8 280.51 12.16
1 -2 8 326.31 12.85
1 -2 9 31.16 3.86
1 -2 9 32.34 3.88
1 -2 10 346.46 14.8
1 -2 10 356.16 14.69
-1 2 -10 391.65 15.24
1 -2 11 167.65 10.06
-1 2 -11 161.96 9.64
1 -2 11 154.17 9.41
1 -2 12 6.39 2.26
1 -2 12 9.86 2.44
-1 2 -12 5.94 2
-1 2 -13 8.79 2.45
1 -2 13 12.62 2.99
1 -2 14 118.02 9.23
-1 2 -14 116.6 9.01
1 -2 15 121.94 9.67
-1 2 -15 107.56 8.93
-1 2 -16 170.84 11.72
1 -2 16 183.71 12.46
-1 2 -17 113.17 9.67
-1 1 18 -6.69 3.43
-1 1 17 14.53 4.56
-1 1 16 68.39 8.57
1 -1 -16 68.36 6.73
1 -1 -15 22.54 3.71
-1 1 15 15.09 4.21
1 -1 -14 93.78 7.4
-1 1 14 91.35 9.26
1 -1 -13 3.66 1.43
1 -1 -13 4.73 1.69
-1 1 13 6.46 2.49
1 -1 -12 -0.21 0.9
-1 1 12 0.66 1.36
1 -1 -12 0.68 0.85
-1 1 11 125.91 9.8
1 -1 -11 139.87 12.14
1 -1 -11 135.51 7.54
1 -1 -10 52.38 4.35
1 -1 -10 60.24 7.55
-1 1 10 56.05 6.15
-1 1 9 323.81 15.04
1 -1 -9 335.99 17.38
1 -1 -9 342.56 12.04
1 -1 -9 331.38 12.18
1 -1 -8 7.06 2.44
1 -1 -8 7.94 1.56
-1 1 8 7.47 2.09
-1 1 7 165.08 6.87
-1 1 7 171.25 9.43
1 -1 -7 159.81 7.13
1 -1 -7 168.09 10.42
1 -1 -6 378.57 15.42
-1 1 6 367.82 14.12
1 -1 -6 395.02 11.76
-1 1 6 376.96 11.33
1 -1 -5 142.14 5.82
1 -1 -5 125.99 7.64
-1 1 5 120.15 6.97
-1 1 5 136.52 5.55
1 -1 -4 164.46 6.06
-1 1 4 162.66 7.53
1 -1 -4 169.46 8.1
-1 1 4 162.61 5.88
1 -1 -3 100.25 4.19
-1 1 3 96.12 5.17
-1 1 3 95.25 3.98
1 -1 -3 97.2 5.37
-1 1 2 132.3 4.64
-1 1 2 144.79 5.84
1 -1 -2 125.75 4.63
-1 1 1 3.43 0.69
1 -1 -1 1.36 0.42
1 -1 0 314.45 8.32
1 -1 1 2715.9 53.11
-1 1 -2 235.59 7
1 -1 2 224.61 6.99
-1 1 -3 892.62 20.38
1 -1 3 906.6 20.49
1 -1 4 24.1 2.69
1 -1 4 24.28 2.25
-1 1 -4 24.34 2.21
-1 1 -5 204.92 7.7
1 -1 5 204.66 7.76
1 -1 5 214.34 9.48
-1 1 -6 592.91 16.3
1 -1 6 573.95 16.24
1 -1 6 624.69 19.52
1 -1 7 241.62 11.86
1 -1 7 253.83 9.65
-1 1 -7 258.64 9.74
1 -1 8 68.08 6.37
-1 1 -8 77.5 5.16
1 -1 8 68.01 4.87
1 -1 9 8.78 2.51
-1 1 -9 5.71 1.57
1 -1 10 48.28 5.79
1 -1 10 47.35 4.39
1 -1 11 8.04 2.71
-1 1 -12 475.41 16.22
1 -1 12 451.3 20.41
-1 1 -12 434.03 16.47
-1 1 -13 54.56 5.31
-1 1 -13 55.38 5.1
-1 1 -14 3.64 1.53
1 -1 14 1.4 1.42
-1 1 -15 58.37 5.96
1 -1 15 60.29 7.61
1 -1 16 11.63 3.88
-1 1 -16 14.11 3.04
1 -1 17 90.29 10.11
-1 0 18 6.55 3.43
-1 0 17 49.15 7.02
1 0 -17 48.57 6.39
-1 0 16 25.42 4.87
1 0 -16 23.12 4.2
-1 0 15 98.98 9.14
1 0 -15 91.78 7.97
1 0 -14 122.25 8.99
-1 0 14 141.93 10.58
1 0 -13 327.98 14.84
-1 0 13 336.13 16.42
1 0 -12 307.69 17.51
1 0 -12 272.95 12.9
-1 0 12 270.14 14
1 0 -12 260.73 11.91
-1 0 11 38.81 4.81
1 0 -11 39.44 5.91
1 0 -11 44.63 4.38
1 0 -11 45.3 4.75
-1 0 10 9.41 2.32
1 0 -10 6.12 1.76
1 0 -10 5.82 1.59
1 0 -10 4.72 2.22
1 0 -9 30.31 3.36
1 0 -9 27.96 4.31
-1 0 9 26.16 3.56
1 0 -8 0.02 1.03
-1 0 8 0.72 0.72
1 0 -8 3.09 1.13
1 0 -8 0.5 0.69
1 0 -7 454 16.54
-1 0 7 468.27 15.33
1 0 -7 450.3 14.71
1 0 -7 478.42 14.48
-1 0 6 2400.47 51.89
1 0 -6 2476.58 51.76
1 0 -6 2400.67 53.42
1 0 -6 2409.42 50.99
-1 0 5 2051.68 43.67
1 0 -5 2118.29 44.12
-1 0 5 2091.88 44.58
1 0 -5 2077.75 45.39
-1 0 4 914.08 21.52
1 0 -4 889.01 21.81
-1 0 4 909.27 21.2
1 0 -4 925.68 21.44
1 0 -3 215 7.24
1 0 -3 213.65 7.2
-1 0 3 227.27 7.23
1 0 -2 32.9 2.22
1 0 -1 193.1 5.82
1 0 0 4.72 0.67
-1 0 0 5.61 0.72
1 0 1 0.9 0.32
-1 0 -1 0.83 0.32
1 0 2 578.16 12.42
-1 0 -2 582.69 12.73
1 0 3 139.72 4.28
1 0 3 143.34 7.43
-1 0 -3 138.06 4.2
1 0 4 355.88 13.77
1 0 4 358.31 9.17
-1 0 -4 372.52 9
1 0 5 41.27 2.48
-1 0 -5 48.38 4.91
-1 0 -5 44.32 2.51
1 0 5 44.95 4.8
-1 0 -6 142.92 5.43
-1 0 -6 124.76 8.72
1 0 6 124.9 5.09
1 0 6 145.74 9.32
1 0 7 468.17 12.94
-1 0 -7 509.22 19.96
-1 0 -7 493.31 13.15
1 0 7 464.73 19.26
-1 0 -8 811.44 19.95
1 0 8 786.31 27.57
-1 0 -8 784.58 27.73
1 0 9 590.33 23.68
-1 0 -9 593.86 16.46
-1 0 -9 569.23 23.79
-1 0 -10 41.51 6.28
-1 0 -10 36.94 3.24
-1 0 -10 43.27 3.64
1 0 10 39.93 5.88
-1 0 -11 273.02 16.9
1 0 11 238.43 15.26
-1 0 -11 252.94 9.89
-1 0 -11 287.38 10.79
-1 0 -12 1.64 0.98
1 0 12 2.88 2.16
1 0 13 76.13 8.87
-1 0 -13 86.43 5.75
1 0 14 2.01 1.96
1 0 15 71.94 9.16
-1 0 -15 70.62 5.8
1 0 16 13.23 4.27
1 0 17 14.16 4.87
1 0 18 27 6.52
1 1 -18 151.88 12.21
1 1 -17 29.68 5.25
-1 -1 16 -0.54 1.11
1 1 -16 1.06 1.86
-1 -1 15 45.98 5.74
1 1 -15 44.57 5.86
1 1 -14 -2.8 1.66
1 1 -14 1.11 2.26
-1 -1 14 -2.57 1.52
-1 -1 13 188.35 10.77
1 1 -13 183.07 12.71
1 1 -13 166.93 10.81
-1 -1 12 25.86 3.72
1 1 -12 20.16 3.52
1 1 -11 12.91 3.17
1 1 -11 14.08 2.88
-1 -1 11 15.29 2.8
1 1 -11 14.86 2.74
1 1 -10 250.2 12.12
1 1 -10 259.59 12.98
1 1 -10 258.81 11.55
-1 -1 10 250.81 11.02
-1 -1 9 37.57 3.67
1 1 -9 30.63 3.55
1 1 -9 25.86 3.54
1 1 -9 28.09 3.77
1 1 -8 95.93 6.17
-1 -1 8 94.19 5.54
1 1 -8 90.24 6.26
1 1 -7 61.51 4.69
-1 -1 7 59.21 4.01
1 1 -7 63.67 4.65
1 1 -6 134.96 6.83
1 1 -6 134.79 7.32
1 1 -6 140.88 6.4
1 1 -5 156.99 7.61
1 1 -5 160.42 6.2
1 1 -5 162.13 7.16
1 1 -4 111.34 5.52
1 1 -4 113.65 4.51
1 1 -3 12.91 1.66
1 1 -2 21.37 2.15
1 1 -2 23.79 2.08
-1 -1 2 23.42 2.04
1 1 -1 731.13 16.78
-1 -1 1 745.46 16.85
1 1 -1 720.41 17.27
1 1 0 324.7 8.67
1 1 0 320.83 8.33
-1 -1 0 320.06 8.35
1 1 1 535.37 11.71
1 1 1 530.56 11.95
1 1 1 530.15 16.31
-1 -1 -1 535.4 11.81
1 1 2 9999 184.71
1 1 2 9998.78 193.72
-1 -1 -2 9923.71 184.81
1 1 3 230.37 11.16
1 1 4 28.98 4.11
1 1 5 21.03 3.81
-1 -1 -5 20.26 1.18
-1 -1 -5 22.18 4
1 1 6 1.3 1.35
-1 -1 -6 1.74 1.48
-1 -1 -6 1.33 0.29
-1 -1 -6 1.09 0.32
1 1 7 83.66 8.16
-1 -1 -7 80.95 3.08
-1 -1 -7 88.3 3.37
-1 -1 -7 82.61 8.19
1 1 8 31.13 5.12
-1 -1 -8 31.55 2.03
-1 -1 -8 32.9 2.13
-1 -1 -8 32.17 5.41
-1 -1 -9 5.44 0.97
-1 -1 -9 5.73 2.75
1 1 9 7.47 3.1
-1 -1 -9 6.63 1.02
1 1 10 2.18 1.84
-1 -1 -10 4.58 0.98
-1 -1 -10 2.98 0.75
-1 -1 -11 0.35 0.43
-1 -1 -11 0.37 0.5
1 1 11 1.11 2.14
1 1 12 35.02 6.43
-1 -1 -12 32.65 2.82
-1 -1 -12 35.29 2.95
1 1 13 151.41 13.72
-1 -1 -13 193.39 7.66
1 1 14 3.25 2.38
1 1 15 49.03 8.16
1 1 16 -1.54 2.88
1 1 17 -0.79 2.23
1 1 18 16.79 5.67
1 2 -19 3.02 2.34
1 2 -18 3.93 2.56
1 2 -17 80.19 8.96
1 2 -16 10.14 3.28
1 2 -15 -0.22 1.63
1 2 -14 45.68 6.05
1 2 -13 76.13 7.64
1 2 -13 86.48 7.56
1 2 -12 339.23 14.91
1 2 -12 342.67 16.48
1 2 -11 459.63 18.89
1 2 -11 436.61 16.55
1 2 -10 21.7 3.07
1 2 -10 14.49 3
1 2 -9 31.98 3.36
1 2 -9 22.46 3.3
1 2 -9 30.45 4.17
1 2 -8 8.46 1.55
1 2 -8 9.5 2.42
1 2 -8 9.31 2.08
1 2 -7 28.76 2.46
1 2 -7 33.3 3.72
1 2 -6 675.34 19.57
1 2 -6 641.05 15.44
-1 -2 5 1126.37 29.08
1 2 -5 1140.99 23.87
1 2 -5 1100.05 27.93
1 2 -4 670.93 19.81
-1 -2 4 678.5 19.66
1 2 -4 718 19.08
1 2 -3 321.93 11.54
-1 -2 3 345.61 11.73
1 2 -3 320.32 10.82
-1 -2 2 75.41 4.63
1 2 -2 78.93 4.79
1 2 -2 72.9 4.24
1 2 -2 84.64 4.88
1 2 -1 31.37 2.46
1 2 -1 25.24 2.94
1 2 -1 28.17 2.59
-1 -2 1 29.53 2.61
1 2 0 1170.05 25.46
-1 -2 0 1132.75 25.49
1 2 0 1225.36 30.14
1 2 0 1084.81 24.48
1 2 1 2246.06 45.42
1 2 1 2232.39 52.51
1 2 1 2292.25 44.7
1 2 2 356.06 15.37
1 2 2 374.46 8.77
1 2 2 376.95 9.3
-1 -2 -2 366.94 15.63
-1 -2 -3 38.6 4.89
1 2 3 41.5 1.7
1 2 3 38.34 4.99
1 2 4 108.95 8.87
1 2 5 0.4 1.52
-1 -2 -6 13.24 3.45
1 2 6 6.63 2.86
1 2 7 173.13 12.88
-1 -2 -7 186.1 13.58
1 2 8 425.39 21.63
1 2 9 516.89 25.02
1 2 10 647.79 29.15
1 2 11 4.52 2.61
1 2 12 -0.48 2.26
1 2 13 119.3 12.91
1 2 14 6.09 3.86
1 2 15 6.72 3.91
1 2 16 9.76 4.08
1 3 -18 2.16 2.04
1 3 -17 69.36 8.77
1 3 -16 26.31 5.3
1 3 -15 3.28 2.16
1 3 -14 43.63 6.35
1 3 -13 10.74 3.22
1 3 -12 31.76 5.14
1 3 -12 45.03 3.76
1 3 -11 16.51 3.56
1 3 -11 23.07 2.42
1 3 -10 72.73 3.86
1 3 -10 79.67 7.51
1 3 -9 62.57 6.45
1 3 -8 83.35 7.18
-1 -3 8 82.82 7.06
1 3 -8 66.38 5.98
1 3 -7 101.25 7.64
-1 -3 7 104.69 7.65
1 3 -7 93.28 6.81
1 3 -6 2.96 1.26
1 3 -6 2 0.58
-1 -3 6 3.92 1.46
1 3 -6 2.19 0.49
1 3 -6 4.31 1.62
1 3 -5 341.28 12.93
-1 -3 5 348.26 13.93
1 3 -5 325.37 13.65
1 3 -5 312.89 9.66
-1 -3 4 567.81 18.47
1 3 -4 544.17 18.12
1 3 -4 569.38 15.65
1 3 -4 551.87 17.25
-1 -3 3 20.65 2.91
1 3 -3 25.77 2.89
1 3 -3 20.84 2.87
1 3 -3 20.06 2.62
-1 -3 2 425.59 14.54
1 3 -2 440.3 15.46
1 3 -2 458.26 14.84
1 3 -2 454.03 13.85
1 3 -1 342.29 11.82
1 3 -1 346.41 10.98
1 3 -1 330.41 13.69
-1 -3 1 329.54 11.69
-1 -3 0 270.35 9.72
1 3 0 267.7 12.8
1 3 0 264.4 9.68
1 3 0 276.73 8.94
-1 -3 -1 70.7 4.13
1 3 1 62.82 3.44
1 3 1 71.96 4.11
1 3 1 64.42 6.36
-1 -3 -1 67.2 6.47
1 3 2 686.45 24.9
-1 -3 -2 676.9 16.75
1 3 2 702.16 16.73
1 3 2 682.2 15.64
-1 -3 -3 2840.64 71.16
1 3 3 2918.07 57.18
1 3 3 2953.87 56.16
1 3 3 2907.97 71.2
1 3 4 -0.37 1.2
-1 -3 -4 1.1 1.73
1 3 5 3.65 2.26
-1 -3 -5 12.27 3.39
1 3 6 12.49 3.77
-1 -3 -6 6.34 3.05
1 3 7 27.93 5.44
1 3 8 41.02 6.95
1 3 9 47.37 7.69
1 3 10 23.82 5.59
1 3 11 39.58 7.53
1 3 12 77.32 10.82
1 3 13 17.17 5.62
1 3 14 42.17 8.26
1 3 15 42.7 8.41
1 4 -17 5.9 3.19
1 4 -16 70.84 9.09
1 4 -15 23.43 5.24
1 4 -14 6.46 3.15
1 4 -13 16.81 4.17
1 4 -12 16.58 4.03
1 4 -11 24.5 4.7
1 4 -10 181.91 12.36
1 4 -9 119.33 9.63
1 4 -8 1.5 1.47
1 4 -7 181.55 11.26
1 4 -6 2.32 1.49
1 4 -6 2.09 0.56
1 4 -6 2.14 1.18
-1 -4 6 -0.01 0.62
1 4 -5 428.36 15.92
1 4 -5 405.37 12.47
1 4 -5 434.18 17.08
-1 -4 5 425.61 17.02
1 4 -4 36.89 4.38
-1 -4 4 48.11 5.01
1 4 -4 41.31 3.81
1 4 -3 17.02 2.79
1 4 -3 12.21 2.52
-1 -4 3 15.96 2.79
1 4 -2 8.12 2.24
-1 -4 2 10.67 2.27
1 4 -2 7.31 1.85
1 4 -2 8.52 1.81
1 4 -1 35.67 4.67
1 4 -1 39.11 3.9
1 4 -1 40.44 3.55
-1 -4 1 37.55 3.95
-1 -4 0 39.79 3.77
1 4 0 42.7 3.86
1 4 0 41.25 3.36
1 4 0 32.7 4.77
-1 -4 -1 103.59 5.9
1 4 1 98.08 4.97
1 4 1 102.81 5.74
1 4 1 110.79 9.22
1 4 2 425.32 20.12
-1 -4 -2 459.79 21.1
-1 -4 -2 428.96 13.21
1 4 2 414.34 12.8
1 4 2 443.93 11.88
1 4 3 144.09 5.77
-1 -4 -3 138.61 5.94
-1 -4 -3 146.93 11.88
1 4 3 146.91 11.6
1 4 3 135.99 4.94
1 4 4 25.3 4.98
-1 -4 -4 23.6 5.1
1 4 4 24.41 1.33
1 4 4 24.97 1.36
1 4 5 250.65 16.66
1 4 6 6.92 2.82
1 4 7 0.31 2.02
1 4 8 12.86 4.47
1 4 9 1.02 2.06
1 4 10 7.34 4.16
1 4 11 233.23 19.13
1 4 12 -0.02 2.48
1 4 13 57.66 9.68
1 5 -15 2.31 2.14
1 5 -14 145.9 13.07
1 5 -13 69.83 8.8
1 5 -12 4.77 2.61
1 5 -11 6.23 2.7
1 5 -10 -0.72 1.47
1 5 -9 25.26 4.74
1 5 -8 218.68 13.71
1 5 -7 38.92 5.42
1 5 -6 60.51 3.22
1 5 -6 78.9 7.41
1 5 -5 28.46 4.32
1 5 -5 29.5 2.98
1 5 -4 150.17 8.96
1 5 -4 141.99 9.47
1 5 -4 136.03 7.79
1 5 -3 133 8.52
1 5 -3 131.3 8.78
1 5 -3 147.7 8.48
-1 -5 3 136.63 9.09
1 5 -2 11.48 2.75
1 5 -2 11.73 2.27
-1 -5 2 11.68 2.55
1 5 -2 11.66 2.54
1 5 -1 53.99 4.57
-1 -5 1 52.86 5.18
1 5 -1 54.64 5.05
1 5 -1 48.78 5.94
-1 -5 0 73.57 5.81
1 5 0 68.29 7.28
1 5 0 61.54 4.63
1 5 0 69.77 5.54
1 5 1 13.54 3.46
1 5 1 16.65 2.53
1 5 1 14.93 2.08
-1 -5 -1 15.66 2.66
1 5 2 19.71 4.45
-1 -5 -2 16.96 2.53
1 5 2 16.04 1.99
1 5 2 17.67 2.43
-1 -5 -2 17.84 4.7
1 5 3 380.19 20.8
1 5 3 423.32 12.96
-1 -5 -3 423.17 13.46
1 5 3 415.81 11.44
1 5 4 177.96 14.17
1 5 4 173.29 5.36
1 5 4 172.99 5.48
1 5 5 248.85 17.5
1 5 6 4.94 2.99
1 5 7 10.74 4.43
1 5 8 36.91 7.4
1 5 9 18.02 5.67
1 5 10 11.02 4.56
1 5 11 22.1 6.34
1 6 -14 42.82 7.5
1 6 -13 13.63 4.46
1 6 -12 7.12 3.27
1 6 -11 0.44 1.91
1 6 -10 26.59 5.35
1 6 -9 92.1 9.53
1 6 -8 236.97 15.15
1 6 -7 99.84 9.35
1 6 -6 686.41 26.39
1 6 -6 699.71 17.24
1 6 -5 4.03 2.19
1 6 -5 1.89 0.99
1 6 -4 87.73 7.86
1 6 -4 87.97 6.55
1 6 -3 51.42 5.87
1 6 -3 67.31 6.27
1 6 -2 21.59 3.25
1 6 -2 17.42 3.3
1 6 -2 17.31 3.54
1 6 -1 0.61 1.08
-1 -6 1 2.1 1.49
1 6 -1 -2.09 1.19
1 6 -1 -0.16 1.3
1 6 0 4.32 1.6
1 6 0 3.9 1.57
1 6 0 0.27 1.28
-1 -6 0 4.43 1.84
1 6 1 19.61 2.7
-1 -6 -1 20.42 3.29
1 6 1 17.53 2.9
1 6 1 14.08 3.89
1 6 2 10.87 3.54
1 6 2 9.88 2.04
1 6 2 11.35 1.92
-1 -6 -2 9.36 2.17
1 6 3 148.56 13.12
1 6 3 128.61 6.89
1 6 4 122.42 12.29
1 6 5 214.91 16.94
1 6 6 7.15 4.09
1 6 7 3.09 2.67
1 6 8 15.49 5.12
1 6 9 1.61 2.34
1 7 -11 14.09 4.58
1 7 -10 11.58 3.97
1 7 -9 2.08 2.53
1 7 -8 15.79 4.21
1 7 -7 14.57 3.97
1 7 -6 7.14 2.97
1 7 -5 143.59 11.39
1 7 -4 5.64 2.07
1 7 -4 3.73 2.11
1 7 -3 37.19 5.37
1 7 -3 33.86 4.73
1 7 -2 70.88 7.08
1 7 -2 62.26 6.96
1 7 -1 49.99 5.68
1 7 -1 30.06 5.22
1 7 0 47.31 6.9
1 7 0 51.67 5.5
1 7 1 24.59 5.31
1 7 1 30.8 4.1
1 7 2 27.55 5.9
1 7 2 50.33 4.86
1 7 3 11.12 3.94
1 7 4 100.04 11.77
1 7 5 38.87 7.85
1 7 6 77.3 10.95
1 7 7 1.19 2.67
1 8 -9 8.48 3.72
1 8 -8 55.4 8.06
1 8 -7 75.65 9.15
1 8 -6 15.82 4.36
1 8 -5 371.86 19.87
1 8 -4 1.69 2.19
1 8 -3 1.15 1.8
1 8 -2 66.98 7.37
1 8 -1 35.39 5.18
1 8 -1 41.09 6.39
1 8 0 0.39 1.97
1 8 1 17.26 5.04
1 8 2 5.35 3.68
1 8 3 -0.1 2.96
1 8 4 61.72 9.74
1 8 5 93.64 12.26
1 9 -5 13.13 4.47
1 9 -4 261.7 16.8
-2 10 -2 86.84 9.21
-2 10 -3 83.4 9.16
-2 10 -3 91.69 10.1
-2 9 5 -4.77 2.82
-2 9 4 79.44 9.94
-2 9 3 45.38 7.31
-2 9 2 9.37 3.71
-2 9 1 0.27 2.19
-2 9 1 0.5 1.6
-2 9 0 10.79 3.05
-2 9 0 7.75 2.92
-2 9 -1 59.84 6.95
-2 9 -2 23.78 4.89
-2 9 -2 22.25 4.42
-2 9 -3 79.36 8.85
-2 9 -4 12.01 3.77
-2 9 -5 49.2 7.07
-2 9 -6 8.43 3.33
-2 9 -7 -0.93 1.95
-2 9 -8 72.66 9.23
-2 8 8 22.82 5.72
-2 8 7 3.96 2.61
-2 8 6 74.06 9.8
-2 8 5 144.87 13.18
-2 8 4 30.38 3.94
-2 8 4 28.87 5.8
-2 8 3 10.32 3.6
-2 8 3 15.97 3.05
-2 8 2 5.34 2.64
-2 8 2 1.36 1.22
-2 8 1 3.71 1.81
-2 8 1 5.54 2.36
-2 8 0 4.54 1.95
-2 8 0 2.18 1.59
-2 8 -1 -0.35 1.22
-2 8 -1 0.21 1.17
-2 8 -1 1.16 1.36
-2 8 -2 6.44 2.68
-2 8 -3 34.85 5.49
-2 8 -4 223.56 14.25
-2 8 -5 224.8 14.55
-2 8 -6 113.53 10.52
-2 8 -7 81.63 9
-2 8 -8 0.61 1.38
-2 8 -9 12.54 3.94
-2 8 -10 10.52 4.01
-2 8 -11 73.45 9.46
-2 7 10 3.21 2.46
-2 7 9 22.16 5.7
-2 7 8 -1.07 1.71
-2 7 7 100.69 11.05
-2 7 6 18.25 2.74
-2 7 6 13.3 4.09
-2 7 5 91.76 6.34
-2 7 5 98.93 10.14
-2 7 4 84.77 9.02
-2 7 4 86.29 6.34
-2 7 3 70.39 7.93
-2 7 3 79.3 6.26
-2 7 2 11.32 2.4
-2 7 2 16.81 3.72
-2 7 1 7.58 2.54
-2 7 1 10.41 2.45
-2 7 0 59.37 6.55
2 -7 0 52.19 7.42
-2 7 0 57.37 5.72
-2 7 -1 100.81 7.88
-2 7 -1 109.75 8.6
2 -7 1 96.05 9.42
-2 7 -2 3.6 1.76
2 -7 2 1.1 1.96
-2 7 -3 4.19 2.03
2 -7 4 88.09 7.59
-2 7 -4 92.32 8.33
-2 7 -5 73.93 7.67
2 -7 5 75.56 6.33
-2 7 -6 81.87 8.32
-2 7 -7 3.58 2.31
-2 7 -8 -0.6 1.61
-2 7 -9 -0.11 2.17
-2 7 -10 17.47 4.4
-2 7 -11 18.13 4.54
-2 7 -12 34.61 6.22
-2 7 -13 54.94 8.03
-2 6 12 9.73 4.45
-2 6 11 -3.18 2.84
-2 6 10 11.41 4.35
-2 6 9 2.22 2.4
-2 6 8 4.66 1.42
-2 6 8 8.63 3.79
-2 6 7 -0.22 0.67
2 -6 -7 0.48 1.1
-2 6 7 -0.38 2.04
-2 6 6 37.15 3.72
2 -6 -6 39.29 4.53
-2 6 6 40.28 6.41
2 -6 -5 110.81 7.68
-2 6 5 108.99 6.68
-2 6 5 119.56 10.46
-2 6 4 89.46 8.69
-2 6 4 107.09 6.66
2 -6 -4 100.65 7.44
-2 6 3 157.36 11.07
-2 6 3 144.3 8.11
2 -6 -3 140.71 8.98
2 -6 -2 67.36 6.21
2 -6 -2 59.97 7.98
-2 6 2 69.35 5.59
-2 6 2 62.76 6.6
2 -6 -1 55.43 7.08
-2 6 1 67.44 5.6
2 -6 -1 66.24 6.21
-2 6 1 69.47 6.6
2 -6 0 31.96 5.23
-2 6 0 34.82 4.15
-2 6 0 34.86 4.47
2 -6 0 28.97 4.11
-2 6 0 37.29 4.54
-2 6 -1 7.84 2.3
-2 6 -1 8.23 2.17
-2 6 -2 96.67 7.6
-2 6 -3 1.62 1.34
2 -6 3 0.48 1.14
-2 6 -4 14.52 3.12
2 -6 4 9.41 2.25
2 -6 5 32.05 3.64
-2 6 -5 34.64 4.86
-2 6 -6 152.9 10.66
2 -6 6 164.82 7.68
-2 6 -7 237.57 13.74
2 -6 7 221.68 7.84
-2 6 -8 139.46 10.6
-2 6 -9 4.84 2.16
-2 6 -10 72.78 8.1
-2 6 -11 14.19 3.7
-2 6 -12 35.9 6.04
-2 6 -13 92.24 9.8
-2 6 -14 7.03 3.17
-2 6 -15 -1.51 1.99
-2 6 -16 2.02 2.8
-2 5 13 62.21 9.42
-2 5 12 49.58 8.33
-2 5 11 19.29 5.3
-2 5 10 1.94 2.26
-2 5 10 2.04 0.95
-2 5 9 19.33 2.55
2 -5 -9 16.56 2.76
-2 5 9 16.27 4.43
2 -5 -8 148.05 8.28
-2 5 8 168.7 7.87
-2 5 8 156.01 12.63
2 -5 -7 153.86 8.47
-2 5 7 147.16 11.84
-2 5 7 168.34 7.94
-2 5 6 11.98 2.04
-2 5 6 6.76 2.56
2 -5 -6 9.68 2.16
-2 5 5 130.59 6.97
2 -5 -5 131.71 7.75
-2 5 5 129.63 10.2
2 -5 -4 408.1 15.06
-2 5 4 407.32 13.86
-2 5 4 402.16 18.1
2 -5 -4 397.89 20.59
2 -5 -3 289.26 12.12
2 -5 -3 265.48 15.63
-2 5 3 255.68 10.67
-2 5 3 262.9 13.72
-2 5 2 100.21 7.78
2 -5 -2 96.53 8.75
-2 5 2 111.72 6.7
2 -5 -2 108.95 7.23
2 -5 -1 1.73 1.53
-2 5 1 3.37 1.27
-2 5 1 4.97 1.69
2 -5 -1 4.95 1.67
-2 5 0 5.65 1.73
-2 5 0 6.9 1.97
-2 5 0 8.27 1.88
2 -5 0 4.29 1.71
-2 5 -1 111.98 7.33
2 -5 1 105.1 7.64
2 -5 1 104.97 7.49
-2 5 -2 175.46 9.55
2 -5 2 184.99 10.19
2 -5 2 159.96 9.01
-2 5 -3 245.33 11.85
2 -5 3 238.37 10.58
2 -5 3 241.41 12.27
2 -5 4 15.75 2.36
-2 5 -4 15.79 2.94
2 -5 4 18.75 3.32
2 -5 5 2.63 1.69
-2 5 -5 2.25 1.48
2 -5 5 0.07 0.55
-2 5 -6 54.66 5.77
2 -5 6 59.11 3.92
2 -5 7 -0.29 0.47
-2 5 -7 0.26 1.04
2 -5 8 96.18 4.32
2 -5 8 93.93 4.86
-2 5 -8 99.98 8.35
2 -5 9 291.99 8.19
2 -5 9 291.81 9.12
-2 5 -9 285.24 15.18
2 -5 10 287.97 8.54
2 -5 10 297.28 7.93
-2 5 -10 304.7 15.98
2 -5 11 0.98 0.45
-2 5 -11 2.01 1.86
-2 5 -12 2.7 1.97
-2 5 -13 61.37 7.54
-2 5 -14 146.39 12.12
-2 5 -15 32.48 5.95
-2 5 -16 54.03 7.58
-2 5 -17 87.8 9.84
-2 4 15 179.11 16.09
-2 4 14 102.98 11.9
-2 4 13 7.36 3.73
-2 4 12 467.2 24.55
-2 4 11 113.41 11.21
-2 4 11 127.17 6.81
2 -4 -10 68.47 5.12
-2 4 10 77.94 5.24
-2 4 9 3.46 1.22
2 -4 -9 4.24 1.34
2 -4 -8 46.22 4.03
-2 4 8 50.4 4.14
-2 4 8 52.34 6.79
-2 4 7 84.85 5.3
2 -4 -7 78.15 5.22
-2 4 7 82.98 8.16
-2 4 6 12.39 1.95
2 -4 -6 11.77 3.77
-2 4 6 10.39 2.89
2 -4 -6 17.51 2.4
2 -4 -5 70.99 5.26
-2 4 5 70.43 4.76
-2 4 5 85.07 7.51
2 -4 -5 69.49 7.71
2 -4 -4 158.5 8.09
-2 4 4 179.78 10.56
-2 4 4 157.91 7.45
2 -4 -4 171.9 11.61
2 -4 -3 268.38 10.88
-2 4 3 244.37 9.89
2 -4 -3 284.99 14.31
-2 4 3 267.67 12.77
-2 4 2 796.11 24.46
2 -4 -2 805.41 22.59
-2 4 2 829.36 21.94
2 -4 -1 263.66 10.92
-2 4 1 256.14 10.31
2 -4 -1 259.02 12.24
-2 4 1 269.43 11.69
2 -4 0 932.74 25.52
-2 4 0 945.1 25.71
-2 4 0 949.78 24.75
2 -4 0 921.72 26.42
-2 4 -1 266.61 11.26
2 -4 1 290.86 11.7
2 -4 1 291.54 11.94
-2 4 -2 146.43 8
2 -4 2 147.14 8.31
2 -4 2 134.36 7.18
2 -4 3 277.49 10.25
2 -4 3 270.31 12
2 -4 4 29.53 3.78
2 -4 4 24.01 2.54
2 -4 5 5.24 1.19
2 -4 5 1.82 1.28
-2 4 -5 4.41 1.7
2 -4 6 29.14 4.01
-2 4 -6 31.63 4.07
2 -4 7 34.99 4.49
-2 4 -7 31.55 4.17
2 -4 8 202.91 11.67
2 -4 8 200.19 9.06
-2 4 -8 188.76 11.02
2 -4 9 371.02 13.66
-2 4 -9 350.54 16.05
2 -4 10 202.48 9.86
-2 4 -10 187.57 11.59
2 -4 11 104.07 7.03
-2 4 -11 98.95 8.39
2 -4 12 191.86 9.99
-2 4 -12 193.14 12.25
2 -4 13 90.7 6.78
-2 4 -13 82.34 8.19
-2 4 -14 28.53 4.93
-2 4 -15 22.39 4.55
-2 4 -16 51.86 7.05
-2 4 -17 15.19 4.34
-2 4 -18 17.91 4.77
-2 3 16 4.71 3.27
-2 3 15 15.66 4.45
-2 3 14 67.31 8.86
2 -3 -14 71.27 6.39
2 -3 -13 128.44 8.4
-2 3 13 106.3 10.88
2 -3 -12 61.82 5.27
-2 3 12 63.93 8.08
2 -3 -11 250.47 10.93
-2 3 11 259.9 10.77
-2 3 11 223.88 14.95
2 -3 -10 352.75 13.21
-2 3 10 368.34 13.12
-2 3 10 332.15 17.89
-2 3 9 13.2 2.22
2 -3 -9 16.75 2.58
-2 3 9 13.51 3.44
-2 3 8 221.52 9.23
2 -3 -8 201.37 9.12
-2 3 8 216.89 12.99
2 -3 -7 462.26 14.99
-2 3 7 461.3 19.34
-2 3 7 480.4 14.67
2 -3 -7 478.14 21.6
-2 3 6 143.05 9.46
2 -3 -6 125.06 6.54
-2 3 6 122.22 6.27
2 -3 -6 116.23 9.49
2 -3 -5 1.44 0.91
-2 3 5 1.64 0.81
-2 3 5 1.42 0.94
-2 3 4 385.05 15.36
2 -3 -4 391.04 12.57
-2 3 4 380.4 12.21
-2 3 3 152.71 8.51
2 -3 -3 139.7 6.66
-2 3 3 130.92 6.33
2 -3 -3 132.52 8.37
-2 3 2 17.45 2.64
2 -3 -2 19.09 2.45
2 -3 -2 16.74 2.19
-2 3 2 12.61 1.92
2 -3 -2 22.92 3.18
2 -3 -1 100.68 5.77
-2 3 1 97.53 5.47
2 -3 -1 102.15 6.38
-2 3 0 346.82 11.74
2 -3 0 346.3 12.3
2 -3 0 339.98 11.91
-2 3 -1 5.52 1.38
2 -3 1 7.81 1.7
2 -3 1 3.05 1.08
2 -3 2 133.37 7.06
2 -3 3 146.98 7.67
2 -3 4 78.16 5.61
2 -3 5 345.39 13.37
2 -3 6 369.6 14.3
-2 3 -7 591.14 19.42
2 -3 7 600.26 19.84
2 -3 7 587.12 19.05
2 -3 8 210.74 10.9
2 -3 8 193.36 10.18
-2 3 -8 213.29 10.67
2 -3 9 46.69 5.1
2 -3 9 53.05 5.47
-2 3 -9 46.8 4.98
2 -3 10 516.36 19.59
2 -3 10 481.41 18.82
-2 3 -10 483.95 18.53
2 -3 11 467.92 19.12
-2 3 -11 427.65 17.73
2 -3 12 160.94 10.89
-2 3 -12 176.19 10.92
-2 3 -13 34.06 4.84
2 -3 13 35.86 5.24
2 -3 14 4.18 2.17
-2 3 -14 4.83 2.02
-2 3 -15 26.69 4.47
2 -3 15 27.76 4.69
-2 3 -16 36.94 5.6
-2 3 -17 1.33 2.17
-2 2 18 6.5 3.25
-2 2 17 0.68 1.96
2 -2 -16 55.49 6.33
-2 2 16 52.97 7.95
2 -2 -15 173.83 11.03
-2 2 15 164.7 13.59
2 -2 -14 128.06 8.93
-2 2 14 105.16 10.42
2 -2 -13 2.82 1.49
-2 2 13 4.52 2.21
2 -2 -13 6.72 2.17
2 -2 -12 30.88 3.96
-2 2 12 30.79 5.23
2 -2 -12 28.79 3.77
-2 2 11 106.27 9.33
2 -2 -11 93.24 6.6
2 -2 -10 201.16 9.9
-2 2 10 222.2 13.23
-2 2 10 204.67 9.5
2 -2 -9 201.95 9.57
-2 2 9 200.13 9.15
-2 2 9 210.49 12.26
2 -2 -9 207.37 13.99
2 -2 -8 91.31 6.01
-2 2 8 86.5 5.56
-2 2 8 96.39 7.74
2 -2 -7 36.95 5.09
-2 2 7 42.35 4.87
2 -2 -7 31.22 3.35
-2 2 7 39.82 3.54
2 -2 -6 37.07 4.8
2 -2 -6 36.17 3.44
-2 2 6 41.23 3.44
-2 2 6 44.36 4.77
-2 2 5 32.2 3.87
2 -2 -5 43.4 3.56
-2 2 5 35.12 3.07
2 -2 -5 34.08 4.23
2 -2 -4 84.39 4.89
-2 2 4 84.01 4.74
-2 2 4 91.95 6.28
2 -2 -3 5.49 1.23
-2 2 3 1.59 1.04
-2 2 3 3.58 0.97
-2 2 2 3.74 1.02
2 -2 -2 3.82 1.04
2 -2 -1 914.61 23.43
2 -2 -1 894.62 22.02
-2 2 1 926.03 22.24
2 -2 0 160.23 6.75
2 -2 1 1093.23 25.83
2 -2 2 1340.25 30.71
2 -2 3 1283.42 30.1
-2 2 -3 1309.12 30.03
-2 2 -4 210.54 8.45
2 -2 4 207.76 8.65
-2 2 -5 27.21 2.9
2 -2 5 27.62 3.04
-2 2 -6 19.74 2.59
2 -2 6 17.73 2.56
2 -2 7 95.2 6.22
2 -2 7 95.74 7.33
-2 2 -7 92.22 5.93
2 -2 8 18.44 2.79
2 -2 8 21.95 3.81
2 -2 9 28.01 4.47
2 -2 9 27.56 3.58
2 -2 10 190.61 12.35
2 -2 10 176.73 9.68
-2 2 -10 182.18 9.58
2 -2 11 470.75 21.59
2 -2 11 525.24 18.62
-2 2 -11 515.21 18.2
2 -2 12 2.97 2.19
-2 2 -12 3.2 1.43
2 -2 12 3.14 1.55
2 -2 13 557.49 20.41
2 -2 13 552.93 24.36
-2 2 -13 545.74 20.08
-2 2 -14 69.79 6.51
2 -2 14 77.2 8.67
2 -2 15 47.11 6.9
-2 2 -15 43.29 5.27
2 -2 16 3.89 2.56
-2 2 -16 1.57 1.6
-2 1 18 82.29 10.11
-2 1 17 45.98 7.27
2 -1 -17 35.4 5.53
2 -1 -16 0.22 1.25
-2 1 16 -1.5 2.31
-2 1 15 19.09 4.56
2 -1 -15 19.96 3.86
2 -1 -14 112.93 8.78
-2 1 14 110.07 9.86
2 -1 -13 50.96 5.58
-2 1 13 55.09 6.72
2 -1 -12 2.94 1.42
2 -1 -12 0.38 0.91
2 -1 -11 71.72 8.43
2 -1 -11 71.86 6.22
2 -1 -11 86.69 6.53
-2 1 11 76.76 7.27
2 -1 -10 154.85 8.65
-2 1 10 152.83 8.29
-2 1 10 140.75 9.61
2 -1 -10 154.66 11.66
2 -1 -9 179.38 9.21
-2 1 9 207.73 9.46
2 -1 -9 199.43 12.46
2 -1 -8 170.56 8.65
-2 1 8 186.18 8.64
2 -1 -8 171.67 10.77
-2 1 8 163.6 9.6
-2 1 7 5.79 1.47
-2 1 7 5.64 1.83
2 -1 -7 4.89 1.46
2 -1 -7 4.21 1.77
2 -1 -6 14.73 2.24
-2 1 6 20.81 2.55
-2 1 6 19.82 2.9
2 -1 -6 17.96 2.95
-2 1 5 95.43 6.22
2 -1 -5 99.03 5.67
-2 1 5 95.46 5.34
2 -1 -5 92.93 6.25
2 -1 -4 397.28 12.42
-2 1 4 371.16 11.78
2 -1 -4 384.82 13.37
2 -1 -3 126.68 5.99
2 -1 -3 127.01 6.58
-2 1 3 127.89 5.77
2 -1 -2 196.62 7.45
2 -1 -1 202.01 7.31
2 -1 0 37.57 2.79
2 -1 1 208.47 7.49
-2 1 -1 218.72 7.63
2 -1 2 752.67 18.49
-2 1 -2 782 18.81
2 -1 3 830.78 19.76
-2 1 -3 823.55 20.06
2 -1 4 0.95 0.63
-2 1 -4 0.91 0.6
-2 1 -4 1.02 0.64
-2 1 -5 190.05 7.42
2 -1 5 207.21 7.81
-2 1 -6 471.7 13.57
2 -1 6 470.74 13.93
2 -1 6 471.32 18.51
-2 1 -7 114.72 5.88
2 -1 7 131.19 6.47
2 -1 7 107.51 8.65
2 -1 8 12.67 3.15
2 -1 8 14.43 2.17
-2 1 -8 14.07 2.05
2 -1 9 47.32 6.34
-2 1 -9 47.64 3.98
2 -1 9 48.85 4.17
2 -1 10 30.56 5.32
2 -1 10 35.29 3.72
-2 1 -10 31.77 3.39
2 -1 11 46.34 6.77
2 -1 11 45.23 4.34
2 -1 12 302.03 12.51
2 -1 12 308.22 18.53
-2 1 -13 78.91 5.93
2 -1 13 56.5 7.99
2 -1 14 0.31 2.03
-2 1 -14 1 0.83
2 -1 15 34.15 6.68
2 -1 16 -1.34 2.54
2 -1 17 6.76 4.03
2 0 -18 126.94 11.21
-2 0 17 73.28 8.4
2 0 -17 65.84 7.73
-2 0 16 47.74 6.56
2 0 -16 41.15 5.89
-2 0 15 1.43 1.42
2 0 -15 0.57 1.1
2 0 -14 82.38 7.79
-2 0 14 89.63 8.33
2 0 -13 104.98 8.52
-2 0 13 122.75 9.34
2 0 -12 8.4 2.83
2 0 -12 10.33 2.6
-2 0 12 6.02 2.12
2 0 -11 4.45 2.22
2 0 -11 8.18 2.33
-2 0 11 4.78 1.78
2 0 -10 6.06 1.81
-2 0 10 7.78 2.07
2 0 -10 9.09 2.27
2 0 -10 5.04 2.21
2 0 -9 136.34 8.53
2 0 -9 138.91 8.22
-2 0 9 146.14 8.63
2 0 -9 152.39 9.77
-2 0 8 96.43 6.27
2 0 -8 89.72 6.35
2 0 -8 93.65 7.01
2 0 -7 413.15 14.53
-2 0 7 410.6 14.14
2 0 -7 415.84 15.22
2 0 -6 330.21 12.38
-2 0 6 362.77 12.45
2 0 -6 336.39 12.58
2 0 -5 62.71 4.57
-2 0 5 62.34 4.44
2 0 -5 51.77 4.17
2 0 -4 8.23 1.63
2 0 -3 2.92 0.93
2 0 -2 111.79 5.41
2 0 -1 787.9 19.01
-2 0 1 778.6 18.93
2 0 0 25.94 2.22
-2 0 0 27.09 2.28
2 0 1 1.71 0.59
-2 0 -1 1.09 0.61
2 0 2 199.48 6.77
-2 0 -2 208.23 6.84
2 0 3 1200.23 25.34
-2 0 -3 1172.14 25.71
-2 0 -4 403.31 10.95
2 0 4 394.29 10.38
2 0 4 390.88 16.55
-2 0 -5 178.09 6.51
2 0 5 178.14 6.08
2 0 5 169.48 10.78
2 0 6 37.51 5.23
-2 0 -6 31.41 2.54
2 0 6 35.3 2.5
2 0 7 0.52 1.26
-2 0 -7 0.11 0.45
2 0 7 0.24 0.32
-2 0 -8 0.65 0.48
2 0 8 -0.17 1.67
2 0 8 -0.03 0.33
-2 0 -9 0.92 0.63
2 0 9 1.71 0.66
2 0 9 3.24 2.29
2 0 10 16.42 4.36
-2 0 -10 14.1 1.86
2 0 11 12.81 4.17
-2 0 -11 23.79 2.5
-2 0 -12 83.28 4.98
-2 0 -12 84.61 5.28
2 0 12 84.5 10.19
2 0 13 19.46 5.09
-2 0 -13 26.16 2.83
2 0 14 573.08 29.31
2 0 15 15.74 5.03
2 0 16 44.68 8.2
2 0 17 5.3 3.4
2 0 18 4.08 3.6
2 1 -19 0.61 2.09
2 1 -18 12.1 3.96
2 1 -17 64.01 7.93
2 1 -16 2.78 1.89
2 1 -15 4.16 2.18
2 1 -14 0.06 1.33
2 1 -13 25.19 4.81
2 1 -13 30.48 4.83
2 1 -12 42.39 5.51
2 1 -12 48.74 6.06
2 1 -11 79.51 7.35
2 1 -11 83.37 7.45
2 1 -10 116.98 8.53
2 1 -10 113.29 8.09
2 1 -9 80.16 6.79
2 1 -9 75.82 6.09
2 1 -9 73.16 6.13
2 1 -8 83.16 6.68
2 1 -8 80.8 6.19
2 1 -8 70.87 5.47
2 1 -7 116.26 7.73
2 1 -7 128.25 7.62
2 1 -7 118.88 6.71
2 1 -6 164.73 7.66
2 1 -6 187.28 9.03
2 1 -5 1330.49 32.5
2 1 -4 59.66 4.49
2 1 -3 218.89 8.91
-2 -1 3 231 9.01
2 1 -2 293.5 10.15
-2 -1 2 298.21 10.21
2 1 -1 77.61 4.37
-2 -1 1 80.63 4.5
2 1 0 35.45 2.69
-2 -1 0 39.09 2.92
-2 -1 -1 0.87 0.53
2 1 1 -0.09 0.43
2 1 2 63.36 3.27
-2 -1 -2 78.34 3.65
2 1 2 73.9 6.56
2 1 3 250.73 13.31
2 1 3 252.24 7.32
-2 -1 -3 251.88 7.34
-2 -1 -4 3.31 0.66
2 1 4 3.06 2.02
2 1 4 2.9 0.52
2 1 5 28.07 4.78
-2 -1 -5 28.04 1.78
-2 -1 -6 550.25 12.64
2 1 6 556.7 23.96
2 1 7 61.66 7.72
-2 -1 -7 58.94 2.75
2 1 8 12.12 3.81
-2 -1 -8 14.35 1.36
2 1 9 1.72 1.87
-2 -1 -9 1.63 0.5
-2 -1 -9 1.77 0.6
-2 -1 -10 91.26 4.08
2 1 10 98.36 10.92
-2 -1 -10 92.26 3.88
-2 -1 -11 184.86 6.44
-2 -1 -11 177.25 6.05
2 1 12 -1.51 2.27
-2 -1 -12 1.5 0.64
2 1 13 126.86 13.49
2 1 14 -1.81 2.84
2 1 15 93.08 12.28
2 1 16 90.88 12.25
2 2 -18 27.29 5.61
2 2 -17 102.09 10.5
2 2 -16 145.86 12.29
2 2 -15 112.78 10.46
2 2 -14 66.7 7.64
2 2 -13 6.78 2.56
2 2 -13 2.79 1.63
2 2 -12 229.09 13.96
2 2 -12 247.23 12.52
2 2 -11 12.88 3.33
2 2 -11 12.7 2.62
2 2 -10 -0.05 0.78
2 2 -10 -2.56 1.56
2 2 -9 5.66 2.06
2 2 -9 6.14 1.62
2 2 -8 187.34 11.06
2 2 -8 187.74 10.31
2 2 -8 183.06 8.22
2 2 -7 31.56 3.93
2 2 -7 28.84 2.86
2 2 -7 23.43 3.63
2 2 -6 377.55 15.47
2 2 -6 376.27 14.48
2 2 -5 976.68 28.56
2 2 -5 1044.82 27.43
2 2 -4 709.06 21.06
2 2 -4 626.69 19.44
2 2 -3 345.12 13.1
2 2 -3 356.22 12.56
2 2 -2 208.44 9.19
2 2 -2 213.12 8.7
2 2 -1 75.94 4.95
2 2 -1 71.45 4.46
2 2 0 4.91 1.83
-2 -2 0 4.78 1.13
2 2 0 7.59 1.35
2 2 0 7.92 1.51
2 2 1 13.21 3
2 2 1 19.32 2.08
2 2 1 14.34 1.68
-2 -2 -1 16.29 1.73
2 2 2 1.34 1.4
2 2 2 2.03 0.67
2 2 2 1.64 0.55
2 2 3 0.61 1.44
2 2 3 -0.14 0.28
2 2 3 0.58 0.38
2 2 4 1942.45 53.63
2 2 5 298.31 17.45
2 2 6 5.18 2.47
2 2 7 230.22 16.43
2 2 8 185.69 15.03
2 2 9 32.19 6.56
2 2 10 3.43 2.71
2 2 11 3.05 3.1
2 2 12 26.04 6.61
2 2 13 1.14 2.27
2 2 14 63.13 10.41
2 2 15 268 21.94
2 3 -17 24.55 5.43
2 3 -16 13.51 4.14
2 3 -15 54.97 7.8
2 3 -14 49.32 7.23
2 3 -13 106.51 10.15
2 3 -12 27.37 5.07
2 3 -11 3.18 2.08
2 3 -11 1.63 1.18
2 3 -10 162.75 11.7
2 3 -10 169.02 7.53
2 3 -9 464.17 20.29
2 3 -9 470.47 13.82
2 3 -8 55.53 3.76
2 3 -8 44.14 5.68
2 3 -7 0.11 1.13
2 3 -7 2.44 0.88
2 3 -6 57.17 5.87
2 3 -6 60.21 5.58
2 3 -5 0.82 1.11
2 3 -5 0.09 0.61
2 3 -4 707.36 22.74
2 3 -4 703.23 21.32
2 3 -3 185.5 10.15
2 3 -3 190.29 9.76
2 3 -3 185.67 8.98
2 3 -2 221.42 10.29
2 3 -2 245.9 10.03
2 3 -2 234.82 12.2
2 3 -1 52.98 4.52
2 3 -1 64.24 4.52
2 3 -1 63.2 6.33
2 3 0 31.75 4.76
2 3 0 39.91 3.3
2 3 0 42.98 3.72
2 3 1 48.39 6.19
2 3 1 53.37 3.55
2 3 1 50.47 3.81
2 3 2 154.21 6.04
2 3 2 159.38 6.57
2 3 2 155.55 11.78
2 3 3 809.37 18.37
2 3 3 818.16 18.82
2 3 3 813.51 31.03
2 3 4 102.43 3.27
2 3 4 130.57 11.63
2 3 5 16.03 4.4
2 3 6 21.02 5.22
2 3 7 212.01 16.52
2 3 8 47.16 7.95
2 3 9 6.57 3.25
2 3 10 29.61 7.13
2 3 11 121.01 14.15
2 3 12 226.95 19.86
2 3 13 -0.23 2.64
2 4 -16 1.95 2.57
2 4 -15 42.62 7.23
2 4 -14 60.15 8.24
2 4 -13 57.62 7.96
2 4 -12 -0.28 1.58
2 4 -11 164.46 12.83
2 4 -10 0.71 2.14
2 4 -9 0.97 0.44
2 4 -9 0.85 0.49
2 4 -9 1.53 1.96
2 4 -8 44.84 2.93
2 4 -8 32.32 3.11
2 4 -8 38.53 5.57
2 4 -7 3.38 1.31
2 4 -7 2.18 1.71
2 4 -6 20.34 3
2 4 -6 16.37 3.45
2 4 -5 2.72 1.4
2 4 -5 3.5 1.62
2 4 -5 3.64 1.61
2 4 -4 139.94 9.21
2 4 -4 125.12 8.05
2 4 -4 138.4 9.1
2 4 -3 372.02 14.15
2 4 -3 333.46 14.59
2 4 -3 356.56 16.37
2 4 -2 474.37 16.05
2 4 -2 471.25 17.26
2 4 -2 475.1 20.08
2 4 -1 177.88 8.57
2 4 -1 177.38 9.25
2 4 -1 176.68 12.02
2 4 0 3.03 1.79
2 4 0 2.89 1.11
2 4 0 2.15 1.03
2 4 1 17.42 2.19
2 4 1 13.95 3.69
2 4 1 18.39 2.57
2 4 2 0.39 0.41
2 4 2 1.51 1.86
2 4 2 0.51 0.79
2 4 3 0.03 0.51
2 4 3 0.26 0.37
2 4 4 232.99 6.74
2 4 4 215.1 5.77
2 4 4 232.98 16.72
2 4 5 749.27 33.07
2 4 6 54 8.61
2 4 7 3.05 2.86
2 4 8 80.89 11.16
2 4 9 183.76 17.17
2 4 10 93.38 12.64
2 4 11 58.3 10.11
2 4 12 3.49 2.51
2 5 -14 110.09 11.91
2 5 -13 156.96 13.99
2 5 -12 147.32 13.17
2 5 -11 13.4 4.28
2 5 -10 1.95 1.96
2 5 -9 2.42 1.94
2 5 -8 49.59 6.72
2 5 -8 43.18 2.64
2 5 -7 1.51 1.19
2 5 -7 4.27 2.4
2 5 -6 4.88 1.7
2 5 -6 8.55 2.86
2 5 -5 0.61 1.69
2 5 -5 0.92 1.4
2 5 -4 61.93 6.48
2 5 -4 61.51 6.58
2 5 -3 241.06 11.54
2 5 -3 204.03 11.74
2 5 -3 206.96 13.06
2 5 -2 0.35 1.59
2 5 -2 4 1.57
2 5 -2 3.86 1.94
2 5 -1 74.96 5.68
2 5 -1 77.74 6.41
2 5 -1 67.23 8.03
2 5 0 140.07 7.52
2 5 0 140.4 8.42
2 5 0 154.22 12.68
2 5 1 72.02 8.9
2 5 1 72.44 4.86
2 5 1 84.64 6.01
2 5 2 38.35 6.71
2 5 2 35.48 3.1
2 5 2 36.96 3.62
2 5 3 10.86 1.48
2 5 3 11.04 1.78
2 5 4 362.29 10.12
2 5 4 316 21.06
2 5 5 58.94 9.32
2 5 6 15.67 5.51
2 5 7 149.57 15.46
2 5 8 77.09 11.29
2 5 9 5.27 3.69
2 5 10 -1.86 2.37
2 6 -12 117.58 12.36
2 6 -11 43.36 7.38
2 6 -10 100.02 10.83
2 6 -9 41.03 6.82
2 6 -8 61.38 7.96
2 6 -7 0.83 1.77
2 6 -6 3.62 1.62
2 6 -6 8.2 2.87
2 6 -5 42.93 5.99
2 6 -5 28.17 4.23
2 6 -4 56.1 6.7
2 6 -4 61.54 6.79
2 6 -3 0.6 1.22
2 6 -3 2.8 1.64
2 6 -2 56.73 7.28
2 6 -2 50.07 5.78
2 6 -1 227.99 10.88
2 6 -1 195.45 14.56
2 6 -1 211.43 11.76
2 6 0 96.54 7.42
2 6 0 98.81 10.66
2 6 1 1.63 2.23
2 6 1 1.63 1.15
2 6 2 4.03 2.37
2 6 2 0.96 0.9
2 6 3 -0.76 2.53
2 6 4 5.13 2.74
2 6 5 207.43 18.18
2 6 6 100.48 13.06
2 6 7 42.67 8.46
2 6 8 6.6 3.62
2 7 -10 5.33 3.39
2 7 -9 8.79 3.83
2 7 -8 20.64 4.88
2 7 -7 3.9 2.89
2 7 -6 11.46 3.51
2 7 -5 11.04 3.56
2 7 -4 194.87 13.3
2 7 -3 61.54 7.47
2 7 -3 65.15 7.33
2 7 -2 71.92 8.6
2 7 -2 73.82 7.48
2 7 -1 8.7 3.62
2 7 -1 8.64 2.44
2 7 0 22.6 5.44
2 7 0 18.26 3.35
2 7 1 47.87 8.05
2 7 2 28.53 6.8
2 7 3 2.69 3.37
2 7 4 5.04 2.98
2 7 5 32.54 7.41
2 7 6 5.87 4.04
2 8 -7 58.93 8.35
2 8 -6 60.36 8.25
2 8 -5 9.8 3.77
2 8 -4 -1.44 2.22
2 8 -3 62.67 7.68
2 8 1 36.6 7.61
2 8 2 23.91 6.78
2 8 3 29.59 7.43
-3 10 0 6.12 3.23
-3 10 -1 -1.98 2.52
-3 10 -2 6.27 3.21
-3 10 -3 0.39 1.85
-3 10 -4 116.13 11.24
-3 9 6 33.43 7.01
-3 9 5 27.66 6.12
-3 9 4 400 22.88
-3 9 3 32.03 4.77
-3 9 3 29.05 6.15
-3 9 2 17.29 3.77
-3 9 1 64.64 7.18
-3 9 0 21.6 4.31
-3 9 -1 101.65 9.46
-3 9 -2 3.93 2.33
-3 9 -3 17.98 4.4
-3 9 -4 47.41 7.09
-3 9 -4 50.27 7.11
-3 9 -5 58.75 7.92
-3 9 -6 6.45 3.04
-3 9 -7 5.15 3.07
-3 9 -8 0.07 2.16
-3 8 8 155.27 14.8
-3 8 7 20.65 5.59
-3 8 6 12.69 4.23
-3 8 5 -0.92 1.52
-3 8 5 -0.21 2.1
-3 8 4 3.83 1.79
-3 8 4 3.83 2.55
-3 8 3 11.17 2.7
-3 8 3 9.36 3.47
-3 8 2 153.9 10.36
-3 8 2 170.14 12.76
-3 8 1 191.38 11.85
-3 8 0 63.52 6.77
-3 8 -1 12.52 3.13
-3 8 -2 32.69 5.04
-3 8 -3 238.05 14.29
-3 8 -3 250.03 15.18
-3 8 -4 135.91 11.25
-3 8 -5 31.48 5.51
-3 8 -6 43.97 6.59
-3 8 -7 14.83 4.02
-3 8 -8 1.26 1.94
-3 8 -9 8.75 3.5
-3 8 -10 71.24 9.09
-3 8 -11 125.18 12.26
-3 7 10 6.97 3.45
-3 7 9 33.75 6.95
-3 7 8 32.76 6.64
-3 7 7 0.18 0.96
-3 7 7 -0.3 2
-3 7 6 0.26 1.85
-3 7 6 1.88 1.44
-3 7 5 61.18 5.75
-3 7 5 50.79 7.19
-3 7 4 68.73 6.13
-3 7 4 64.23 7.8
-3 7 3 484.5 22.21
-3 7 3 481.35 18.46
-3 7 2 1.47 1.46
-3 7 2 4.52 1.88
-3 7 1 41.61 5.05
-3 7 0 68.86 6.61
3 -7 1 2.9 2.02
-3 7 -1 5.77 2.13
3 -7 2 -0.47 1.52
-3 7 -2 2.66 1.63
3 -7 3 -0.06 1.5
-3 7 -3 0.73 1.27
-3 7 -4 7.69 2.59
-3 7 -5 2.15 1.75
-3 7 -6 46.7 6.31
-3 7 -7 73.01 8.11
-3 7 -8 47.96 6.61
-3 7 -9 183.48 13.41
-3 7 -10 18.57 4.48
-3 7 -11 1.26 1.85
-3 7 -12 75.88 9.15
-3 7 -13 9.5 3.34
-3 6 12 189.8 16.72
-3 6 11 13.14 4.22
-3 6 10 9 2.2
-3 6 10 10.16 4.1
-3 6 9 52.67 5.04
-3 6 9 49.83 7.7
-3 6 8 124.22 7.91
-3 6 8 124.36 11.82
-3 6 7 195 14.45
-3 6 7 191.14 10.06
-3 6 6 45.89 4.74
-3 6 6 38.45 6.15
-3 6 5 54.43 5.12
-3 6 5 49.97 6.68
-3 6 4 65.8 7.37
-3 6 4 64.53 5.68
-3 6 3 9.16 2.24
-3 6 3 8.04 2.56
-3 6 2 18.21 3.11
-3 6 2 17.08 3.66
3 -6 -1 -2.32 1.78
-3 6 1 3.05 1.53
3 -6 0 4.55 2.08
-3 6 0 4.18 1.51
-3 6 -1 9 2.43
3 -6 1 19.11 3.72
-3 6 -2 33 4.44
3 -6 2 29.5 4.36
-3 6 -3 161.92 10.52
-3 6 -4 416.59 18.02
-3 6 -5 336.38 16.37
3 -6 5 353.64 13.98
-3 6 -6 14.46 3.3
3 -6 6 15.32 2.65
-3 6 -7 16.41 3.72
3 -6 7 20.71 2.85
-3 6 -8 27.85 4.71
3 -6 8 37.66 3.59
-3 6 -9 4.13 2.43
3 -6 9 4.26 1.52
-3 6 -10 3.84 1.88
-3 6 -11 26.55 5.01
-3 6 -12 78.69 8.73
-3 6 -13 92.03 9.71
-3 6 -14 84.81 9.61
-3 6 -15 47.81 7.25
-3 5 13 199.63 16.77
-3 5 12 28.31 6.29
-3 5 11 338.61 13.82
-3 5 11 288.69 19.46
-3 5 10 5.69 1.98
-3 5 10 8.87 3.57
-3 5 9 22.18 3.26
3 -5 -9 15 2.73
-3 5 9 18.54 4.67
3 -5 -8 77.64 6.11
3 -5 -8 74.02 6.42
-3 5 8 71.32 5.81
-3 5 8 73.51 8.59
3 -5 -7 43.25 4.85
-3 5 7 44.55 4.51
-3 5 7 33.31 5.64
3 -5 -6 8.22 2.14
-3 5 6 8.69 2.04
-3 5 6 7.48 2.7
3 -5 -5 22.94 3.52
-3 5 5 22.32 4.12
-3 5 5 17.79 2.86
3 -5 -4 336.53 14.24
-3 5 4 327.45 13.23
-3 5 4 330.08 16.37
3 -5 -3 2.74 1.94
3 -5 -3 1.87 1.25
-3 5 3 0.42 0.78
-3 5 3 0.16 1.03
3 -5 -2 5.28 1.78
-3 5 2 2.84 1.28
3 -5 -2 4.64 1.93
3 -5 -1 20.67 3.29
-3 5 1 15.58 2.74
3 -5 -1 19.19 3.58
3 -5 0 116.06 8
-3 5 0 102.58 7.18
3 -5 0 98.67 7.85
-3 5 -1 44.71 4.76
3 -5 1 51.51 5.39
3 -5 2 5.78 1.86
-3 5 -2 9.33 2.26
-3 5 -3 44.66 5
3 -5 3 44.67 5.1
-3 5 -4 108.31 8.03
3 -5 4 110.04 6.99
-3 5 -5 260.25 12.99
3 -5 5 231.41 10.46
-3 5 -6 315.49 14.82
3 -5 6 290 11.6
-3 5 -7 7.4 2.42
-3 5 -8 81.37 7.51
-3 5 -9 71.05 7.2
3 -5 9 61.2 5.78
-3 5 -10 95.47 8.57
3 -5 10 103.49 7.71
3 -5 11 -0.39 1.05
-3 5 -11 1.52 1.71
-3 5 -12 13.93 3.55
-3 5 -13 11.96 3.39
-3 5 -14 60.82 7.59
-3 5 -15 86.49 9.35
-3 5 -16 -0.03 2.01
-3 5 -17 29.79 5.53
-3 4 15 47.36 8.16
-3 4 14 10.17 3.91
-3 4 13 104.02 11.42
-3 4 13 100.26 7.32
-3 4 12 205.11 10.73
-3 4 12 187.03 14.81
-3 4 11 128.06 8.3
-3 4 11 135.61 12.12
-3 4 10 9.74 2.31
3 -4 -10 6.74 2.06
-3 4 10 7.33 2.98
-3 4 9 3.62 1.57
3 -4 -9 1.76 1.13
-3 4 9 3 2.29
-3 4 8 28.94 3.68
3 -4 -8 24.95 3.42
-3 4 8 27.51 4.84
-3 4 7 26.74 3.39
3 -4 -7 26.63 3.49
-3 4 7 24.88 4.47
3 -4 -6 208.66 10.16
-3 4 6 207.67 9.76
-3 4 6 188.47 12.12
3 -4 -5 270.04 11.86
-3 4 5 300.41 12.01
-3 4 5 289.89 14.77
3 -4 -5 311.45 16.23
-3 4 4 12.49 2.84
3 -4 -4 17.25 2.72
-3 4 4 14.37 2.45
3 -4 -4 21.64 3.97
3 -4 -3 712.09 20.96
3 -4 -3 694.22 21.57
-3 4 3 663.07 20.34
3 -4 -3 688.83 24.16
3 -4 -2 4.48 1.56
-3 4 2 7.23 1.78
3 -4 -2 8.61 2.4
3 -4 -1 66.07 5.49
-3 4 1 55.8 4.85
3 -4 0 65.57 5.47
-3 4 0 65.42 5.29
3 -4 1 47.97 4.73
-3 4 -1 55.6 4.92
3 -4 2 15.28 2.66
3 -4 2 18.52 2.99
-3 4 -2 16.09 2.72
-3 4 -3 44.93 4.53
-3 4 -3 47.69 4.76
3 -4 3 47.2 4.85
-3 4 -4 314.24 13.74
3 -4 4 382.85 15.17
-3 4 -5 6.04 1.85
3 -4 5 4.68 1.61
-3 4 -6 39.95 4.58
3 -4 6 43.31 4.97
-3 4 -7 85.47 6.93
3 -4 7 74.9 6.75
-3 4 -8 176.08 10.45
-3 4 -9 2.07 1.42
3 -4 9 4.27 2.07
-3 4 -10 1.99 1.56
3 -4 10 0.39 1.39
-3 4 -11 79 7.37
3 -4 11 83.1 7.95
3 -4 12 39.45 5.77
-3 4 -12 40.67 5.46
3 -4 13 2.67 1.66
-3 4 -13 0.23 1.33
-3 4 -14 0.41 1.46
-3 4 -15 43.08 6.04
-3 4 -16 66.22 7.87
-3 4 -17 106.41 10.07
-3 3 16 34.45 6.91
3 -3 -15 112.37 9.25
-3 3 15 110.88 11.87
3 -3 -14 44.16 5.58
-3 3 14 45.61 7.44
-3 3 13 42.59 4.91
-3 3 13 41.34 6.7
-3 3 12 173.36 10.08
-3 3 12 180.8 13.6
-3 3 11 154.96 9.23
-3 3 11 152.4 12.07
3 -3 -10 336.22 14.47
-3 3 10 345.61 14.25
-3 3 10 364.48 18.54
-3 3 9 22.77 3.32
3 -3 -9 25 3.55
-3 3 9 18.06 3.93
-3 3 8 23.19 3.25
3 -3 -8 23.91 3.42
-3 3 8 22.83 4.15
3 -3 -7 7.63 2.79
-3 3 7 5.61 1.58
3 -3 -7 4.11 1.48
-3 3 7 6.83 2.37
3 -3 -6 166.33 8.88
-3 3 6 156.47 8.24
-3 3 6 154.32 10.28
3 -3 -5 205.77 9.73
-3 3 5 195.06 9.14
3 -3 -5 192.85 11.52
3 -3 -4 6.03 1.62
-3 3 4 8.26 1.79
3 -3 -3 1240.25 31.02
-3 3 3 1222.45 30.54
3 -3 -2 18.89 2.69
-3 3 2 21.5 2.85
3 -3 -1 8.11 1.78
-3 3 1 8.53 1.94
3 -3 0 54.97 4.63
3 -3 1 360.1 13.3
3 -3 2 865.03 24.01
3 -3 3 75.82 5.64
3 -3 4 47.63 4.55
3 -3 5 416.93 15.4
-3 3 -6 39.79 4.28
3 -3 6 52.9 4.99
3 -3 7 31.97 4.02
-3 3 -7 29.64 3.66
3 -3 8 7.3 2.44
3 -3 8 11.75 2.56
-3 3 -8 11.17 2.46
3 -3 9 12.57 2.72
3 -3 9 9.48 2.89
-3 3 -9 13.38 2.76
3 -3 10 0.78 0.71
3 -3 10 0.82 1.16
-3 3 -10 1.5 1.1
3 -3 11 22.97 4.59
-3 3 -11 19.14 3.35
3 -3 12 0.66 1.58
-3 3 -12 4.05 1.77
3 -3 13 32.06 5.86
-3 3 -13 37.45 4.96
3 -3 14 43.35 6.94
-3 3 -14 49.33 5.78
-3 3 -15 187.58 11.93
3 -3 15 192.26 14.74
-3 3 -16 87.41 8.21
3 -2 -17 2.17 2.19
-3 2 17 2.18 1.77
3 -2 -16 -0.82 1.97
-3 2 16 -3.72 2.9
3 -2 -15 52.18 6.37
-3 2 15 41.61 6.89
3 -2 -14 56.88 6.44
-3 2 14 42.94 6.74
3 -2 -13 36.71 4.95
-3 2 13 45.09 6.59
-3 2 12 267.61 12.92
-3 2 12 262.28 15.76
-3 2 11 787.17 24.6
-3 2 11 795.28 28.87
-3 2 10 0.08 1
-3 2 10 -0.28 1.39
3 -2 -10 2.58 1.48
-3 2 9 1.61 1.14
-3 2 9 1.43 1.3
3 -2 -9 1.52 0.96
3 -2 -8 174.05 9.72
-3 2 8 177.07 9.22
3 -2 -8 172.63 11.6
-3 2 7 0.37 0.77
3 -2 -7 -1.27 1
3 -2 -7 0.16 1.09
3 -2 -6 125.42 7.64
-3 2 6 120.65 7.03
3 -2 -6 143.9 9.38
3 -2 -5 754.2 21.74
-3 2 5 727.96 20.82
3 -2 -5 715.44 23.52
3 -2 -4 574.61 17.78
-3 2 4 555.66 17.1
3 -2 -4 581.09 19.62
3 -2 -3 121.54 6.8
-3 2 3 119.04 6.54
3 -2 -2 2016.51 45.06
3 -2 -1 101.91 5.97
3 -2 0 3.54 1.22
3 -2 1 299.83 11.15
-3 2 -1 303.46 11.3
3 -2 2 494.98 15.28
-3 2 -2 470.62 15.28
3 -2 3 32.49 3.32
-3 2 -3 35.73 3.53
3 -2 4 2.93 1.16
3 -2 5 322.92 12.2
3 -2 6 7.29 1.75
3 -2 7 125.3 7.39
3 -2 8 300.11 16.15
3 -2 8 282.28 12.15
3 -2 9 753.54 22.63
3 -2 9 693.27 27.7
-3 2 -10 433.03 15.71
3 -2 10 425.76 16.13
3 -2 10 416.32 21.12
3 -2 11 34.64 6.15
-3 2 -11 37.4 4.24
3 -2 11 31.37 4.04
-3 2 -12 126.91 8.11
3 -2 12 126.57 8.45
3 -2 12 109.34 11.17
-3 2 -13 111.58 7.79
3 -2 13 108.12 11.53
3 -2 14 30.38 6.26
-3 2 -14 39.3 4.76
3 -2 15 1.85 2.53
3 -2 16 4.96 3.66
3 -1 -18 95.95 9.91
3 -1 -17 21.32 4.75
3 -1 -16 0.26 1.64
3 -1 -15 2.12 1.86
3 -1 -14 69.87 7.32
3 -1 -13 127.5 9.65
3 -1 -12 55.91 6.15
-3 1 11 1.83 1.44
-3 1 10 870.86 26.25
3 -1 -10 875.34 30.62
3 -1 -9 3.42 1.32
-3 1 9 7.67 2.09
3 -1 -9 7.03 2.42
3 -1 -8 30.67 3.94
-3 1 8 29.08 3.67
3 -1 -8 36.63 4.82
3 -1 -7 313.69 14.29
3 -1 -7 315.9 13.34
-3 1 7 319.63 12.81
3 -1 -6 161.26 8.81
-3 1 6 154.87 8.15
3 -1 -6 147.83 8.97
3 -1 -5 174.43 8.85
-3 1 5 154.19 8
3 -1 -5 185.41 9.71
3 -1 -4 97.63 6.29
3 -1 -4 104.59 7
3 -1 -3 13.47 2.26
3 -1 -2 1105.48 27.48
3 -1 -1 9.23 1.7
-3 1 1 7.01 1.46
3 -1 0 21.45 2.55
-3 1 0 27.75 2.84
3 -1 1 370.3 12.46
-3 1 -1 413.42 12.86
3 -1 2 15.62 2.14
-3 1 -2 13.16 2
3 -1 3 220.4 8.65
-3 1 -3 224.54 8.96
3 -1 4 153.84 7.07
-3 1 -4 168.14 7.59
3 -1 5 262.29 9.73
-3 1 -5 259.52 10.08
-3 1 -6 42.41 3.73
3 -1 6 37.78 3.43
-3 1 -7 38.02 3.64
3 -1 7 32.85 3.23
3 -1 8 35.44 5.86
3 -1 8 39.26 3.65
3 -1 9 2.22 2.35
3 -1 9 2.43 1.25
3 -1 10 69.72 8.87
3 -1 10 76.17 5.41
-3 1 -11 95.81 6.48
3 -1 11 89.21 6.08
3 -1 11 102.34 11.19
3 -1 12 -0.42 2.21
3 -1 12 0.72 1.21
-3 1 -12 0.44 0.73
-3 1 -13 168.93 9.33
3 -1 13 156.84 14.83
3 -1 14 1.98 3.29
-3 1 -14 -0.04 1.02
3 -1 15 159.15 15.57
3 -1 16 125.56 14.1
3 -1 17 -1.2 3.58
3 0 -18 17.55 4.63
3 0 -17 1.24 1.57
3 0 -16 49.27 6.88
3 0 -15 105.99 9.8
3 0 -14 10.37 3.17
3 0 -13 22.09 4.24
3 0 -12 139.56 10.22
3 0 -11 289.02 14.82
3 0 -11 291.75 15.74
3 0 -10 361.85 16.42
-3 0 10 357.62 15.26
3 0 -10 383.49 17.33
-3 0 9 0.74 1.23
3 0 -9 -0.09 0.93
3 0 -8 -0.75 0.76
-3 0 8 1.52 1.32
3 0 -8 -0.42 0.85
3 0 -7 190.03 10.06
-3 0 7 182.14 9.49
3 0 -7 168.74 9.53
3 0 -6 44.15 4.52
-3 0 6 51.61 4.65
3 0 -6 41.41 4.53
3 0 -5 24.43 3.31
3 0 -4 302.56 12.03
3 0 -3 6.37 1.63
3 0 -2 226.38 9.44
-3 0 2 215.59 9.07
3 0 -1 429.42 13.8
-3 0 1 441.74 13.78
3 0 0 206.35 8.48
-3 0 0 217.67 8.6
3 0 1 293.86 10.17
-3 0 -1 267.69 9.74
3 0 2 397.37 12.44
-3 0 -2 401.27 12.33
3 0 3 301.52 10.33
-3 0 -3 310.03 10.31
3 0 4 2.65 0.88
-3 0 -4 2.27 0.86
3 0 5 244.44 8.37
-3 0 -5 237.75 8.75
3 0 5 263.96 15.28
-3 0 -6 2.18 0.9
3 0 6 2.52 0.88
-3 0 -7 95.88 5.28
3 0 7 98.66 4.9
3 0 7 109.25 10.44
-3 0 -8 201.32 8.22
3 0 8 208.06 7.63
3 0 8 212.87 15.5
-3 0 -9 200.95 8.27
3 0 9 194.15 7.41
3 0 9 211.3 16.05
-3 0 -10 234.19 9.23
3 0 10 231.53 8.21
3 0 10 229.4 17.44
-3 0 -11 275.6 10.43
3 0 11 289.32 20.1
3 0 12 119.01 13.24
-3 0 -12 144.92 7.22
3 0 13 -0.92 2.86
3 0 14 45.96 8.85
3 0 15 105.88 13.46
3 0 16 24.63 6.63
3 1 -18 6.22 3.02
3 1 -17 18.38 4.65
3 1 -16 13.67 4
3 1 -15 27.79 5.29
3 1 -14 76.28 8.39
3 1 -13 9.52 3.33
3 1 -13 16.48 3.91
3 1 -12 130.35 10.07
3 1 -12 139.52 10.78
3 1 -11 21.29 3.89
3 1 -11 18.05 3.79
3 1 -10 42.15 5.59
3 1 -10 46.74 5.31
3 1 -9 553.17 21.39
3 1 -9 548.8 19.53
3 1 -8 93.24 7.75
-3 -1 8 85.18 6.78
3 1 -8 89.19 6.6
3 1 -7 1.37 1.1
-3 -1 7 0.15 0.96
3 1 -7 -0.58 1.18
3 1 -7 -0.63 0.89
3 1 -6 36.42 4.26
-3 -1 6 42.43 4.45
3 1 -5 30.74 3.75
-3 -1 5 32.98 3.78
3 1 -4 13.62 2.41
-3 -1 4 14.99 2.47
3 1 -3 6.45 1.6
3 1 -2 2.89 1.03
3 1 -1 28.7 3.05
-3 -1 1 32.45 3.3
-3 -1 0 0.19 0.56
3 1 0 1.37 0.78
3 1 1 683.34 18.94
-3 -1 -1 781.44 19.62
3 1 2 92.23 5.06
-3 -1 -2 95.71 5.12
3 1 3 301.96 10.03
-3 -1 -3 301.86 9.86
3 1 3 306.13 16.77
-3 -1 -4 10.25 1.48
3 1 4 10.41 3.09
3 1 4 11.86 1.61
3 1 5 46.6 6.89
3 1 5 39.29 2.49
-3 -1 -5 44.72 2.98
-3 -1 -6 207.19 6.92
3 1 6 185.13 5.83
3 1 6 206.05 14.9
3 1 7 8.37 3.12
-3 -1 -7 12.85 1.48
3 1 8 4.14 2.44
-3 -1 -8 6.78 1.06
3 1 9 2.45 2.5
-3 -1 -9 0.5 0.41
3 1 10 4.84 3.46
-3 -1 -10 9.15 1.1
3 1 11 30.79 7.01
3 1 12 79.8 11.55
3 1 13 83.59 12.17
3 1 14 20.08 6.31
3 1 15 38.33 8.44
3 2 -17 98.13 10.87
3 2 -16 5.79 2.91
3 2 -15 25.37 5.29
3 2 -14 13.23 3.9
3 2 -13 0.71 2
3 2 -12 12.24 3.05
3 2 -12 7.75 2.8
3 2 -11 94.07 9.08
3 2 -11 97.88 7.47
3 2 -10 221.7 13.8
3 2 -10 215.94 10.94
3 2 -9 155.99 11.05
3 2 -9 153.48 8.64
3 2 -8 58.97 6.57
3 2 -8 51.65 4.75
3 2 -7 227.08 12.78
3 2 -6 200.81 11.7
3 2 -6 219.86 11.33
3 2 -5 29.05 3.78
3 2 -5 38.12 4.67
3 2 -4 0.32 0.84
-3 -2 4 0.66 1.04
3 2 -4 0.01 0.85
3 2 -3 72.04 5.96
3 2 -3 71.42 5.51
-3 -2 3 69.08 5.44
3 2 -2 4.29 1.41
3 2 -2 4 1.39
3 2 -1 13.76 2.24
3 2 -1 10.75 2.13
3 2 0 81.29 5.51
3 2 0 84.52 5.33
-3 -2 0 84.52 5.33
3 2 1 106.73 5.98
3 2 1 96.57 5.56
-3 -2 -1 110.86 5.82
3 2 1 113.75 9.79
3 2 2 273.9 9.85
3 2 2 270.11 9.64
-3 -2 -2 279.02 9.62
3 2 2 284.49 16.58
3 2 3 243.92 8.71
3 2 3 253.55 8.6
-3 -2 -3 248.88 8.44
3 2 3 262.45 16.35
3 2 4 64.81 8.42
3 2 4 62.26 3.65
3 2 4 59.88 3.36
3 2 5 -0.52 2.14
-3 -2 -5 1.1 0.46
3 2 5 0.51 0.25
3 2 5 0.42 0.23
3 2 6 33.65 6.57
3 2 7 30.66 6.52
3 2 8 163.78 15.31
3 2 9 4.65 3.65
3 2 10 0.55 2.61
3 2 11 -1.96 2.94
3 2 12 36.78 8.45
3 2 13 88.12 12.95
3 3 -16 0.87 2.51
3 3 -15 38.71 6.99
3 3 -14 62.41 8.45
3 3 -13 77.45 9.21
3 3 -12 58.48 7.81
3 3 -11 6.65 2.81
3 3 -10 202.43 13.96
3 3 -10 212.04 9.94
3 3 -9 2.04 1.76
3 3 -9 0.65 0.89
3 3 -8 29.19 3.49
3 3 -8 36.08 5.42
3 3 -7 5.26 2.14
3 3 -6 1.14 1.61
3 3 -5 73.89 7.02
3 3 -4 0.52 1.02
3 3 -4 1.21 0.92
3 3 -3 208.9 11.25
3 3 -3 225.61 10.76
3 3 -2 200.48 10.5
3 3 -2 197.26 9.66
3 3 -2 193.63 12.68
3 3 -1 114.59 7.33
3 3 -1 108.71 6.66
3 3 -1 92.55 8.95
3 3 0 57.81 7.28
3 3 0 55.19 4.46
3 3 0 60.85 5.03
3 3 1 26.01 5.25
3 3 1 25.05 2.84
3 3 1 23.16 2.91
3 3 2 131.34 6.43
3 3 2 139.78 6.85
3 3 2 134.45 12.05
3 3 3 92.48 4.87
3 3 3 96.51 5.07
3 3 3 88.65 9.98
3 3 4 159.38 5.89
3 3 4 150.72 5.65
3 3 4 160.38 14.15
3 3 5 7.59 3.45
3 3 6 163.83 15.37
3 3 7 23.07 5.98
3 3 8 45.4 8.66
3 3 9 11.32 4.72
3 3 10 28.84 7.39
3 3 11 3.23 4.04
3 3 12 3.84 2.36
3 4 -14 4.03 3.03
3 4 -13 0.6 1.73
3 4 -12 1.31 2.11
3 4 -11 13.97 4.2
3 4 -10 7.63 3.45
3 4 -9 17.86 3.06
3 4 -9 21.58 4.64
3 4 -8 82.54 8.71
3 4 -8 69.44 6.31
3 4 -7 318.58 17.02
3 4 -7 287.32 14.12
3 4 -6 243.88 14.32
3 4 -6 250.37 13.52
3 4 -5 311.54 15.84
3 4 -5 292.12 15.3
3 4 -4 78.28 7.28
3 4 -4 67.16 7.34
3 4 -3 49.85 6.51
3 4 -3 44.52 4.81
3 4 -3 42.54 5.17
3 4 -2 104.98 7.1
3 4 -2 102.07 7.69
3 4 -2 108.75 10.05
3 4 -1 42.27 6.53
3 4 -1 35.07 3.85
3 4 -1 37.08 4.36
3 4 0 72.84 5.42
3 4 0 84.89 6.39
3 4 0 80.33 9.27
3 4 1 64.81 8.68
3 4 1 78.17 5.3
3 4 1 73.48 5.6
3 4 2 3.8 2.6
3 4 2 2.14 1.04
3 4 2 3.53 1.2
3 4 3 5.03 3
3 4 3 7.2 1.45
3 4 3 8.68 1.5
3 4 4 132.44 4.95
3 4 4 117.26 13.05
3 4 4 130.69 5.07
3 4 5 404.35 25.25
3 4 6 139.35 14.91
3 4 7 22.23 6.01
3 4 8 50.53 9.62
3 4 9 27.21 7.46
3 4 10 4.28 3.93
3 5 -12 1.04 1.89
3 5 -11 1.58 2.35
3 5 -10 10.58 4.43
3 5 -9 284.04 18.01
3 5 -8 2.38 1.92
3 5 -7 3.9 2.47
3 5 -7 5.02 2.16
3 5 -6 76.08 7.77
3 5 -6 78.44 8.34
3 5 -5 20.27 4.18
3 5 -5 19.03 4.13
3 5 -4 106.24 9.06
3 5 -4 110.95 10.25
3 5 -3 71.25 8.5
3 5 -3 74.47 7.24
3 5 -2 32.08 5.97
3 5 -2 39.02 5.08
3 5 -1 112.16 7.43
3 5 -1 116.21 8.47
3 5 -1 112.95 11.56
3 5 0 99.02 6.64
3 5 0 115.27 7.96
3 5 0 98.57 11.16
3 5 1 16.51 4.74
3 5 1 13.16 2.55
3 5 2 -2.49 2.72
3 5 2 -0.39 0.85
3 5 3 0.17 2.43
3 5 4 4.66 3.01
3 5 5 5.48 4.2
3 5 6 78.91 11.97
3 5 7 67.05 11.14
3 5 8 1.11 1.88
3 6 -10 61.89 8.82
3 6 -9 28.69 5.97
3 6 -8 -0.13 2.16
3 6 -7 2.58 2.49
3 6 -6 70.49 8.43
3 6 -5 14.57 3.75
3 6 -4 27.28 5.48
3 6 -4 19.71 4.21
3 6 -3 4.78 2.44
3 6 -3 6.19 2.46
3 6 -2 116.54 9.25
3 6 -2 109.6 11.63
3 6 -1 3.89 2
3 6 -1 10.18 2.69
3 6 0 55.91 8.94
3 6 0 48.05 5.39
3 6 1 -0.79 2.55
3 6 2 8.8 4.93
3 6 3 27.33 7.14
3 6 4 26.33 6.97
3 6 5 8.86 4.33
3 6 6 253.25 21.94
3 7 -8 81.07 10.04
3 7 -7 2.79 2.56
3 7 -6 6.83 3.61
3 7 -5 19.3 4.75
3 7 -4 6.72 2.87
3 7 -3 39.12 5.98
3 7 -1 8.2 4.31
3 7 0 5.08 3.41
3 7 1 2.52 3.13
3 7 2 1.16 3.56
3 7 3 -1.22 2.78
-4 10 1 24.86 5.09
-4 10 0 1.55 2.11
-4 10 -1 6.4 3
-4 10 -2 14.73 4.1
-4 10 -3 -2.76 2.83
-4 9 4 134.76 10.25
-4 9 3 23.67 4.37
-4 9 2 21.52 4.33
-4 9 1 14.06 3.51
-4 9 0 0.88 1.99
-4 9 -1 2.04 2.43
-4 9 -2 -0.14 1.58
-4 9 -3 -0.22 2.23
-4 9 -4 34.38 5.97
-4 9 -5 7.76 3.1
-4 9 -6 178.89 14.12
-4 9 -7 17.24 4.68
-4 9 -7 17.37 4.7
-4 8 8 7.42 3.61
-4 8 6 66.13 6.73
-4 8 5 -0.67 1.59
-4 8 4 46.11 5.73
-4 8 3 5.22 2.32
-4 8 2 852.17 29.35
-4 8 1 6.72 2.6
-4 8 0 199.91 12.93
-4 8 -1 -0.65 1.65
-4 8 -2 13.08 3.6
-4 8 -3 164.99 12.23
-4 8 -4 23.65 4.81
-4 8 -5 11.4 3.38
-4 8 -6 77.38 8.87
-4 8 -6 68.49 8.19
-4 8 -7 110.86 10.9
-4 8 -8 59.41 8.09
-4 8 -9 16.23 4.44
-4 8 -10 -6.58 3.05
-4 7 10 44.34 7.99
-4 7 9 48.71 5.57
-4 7 9 33.31 6.74
-4 7 8 18.75 3.56
-4 7 8 19.08 5.16
-4 7 7 132.79 9.36
-4 7 7 125.48 12.35
-4 7 6 86.71 7.46
-4 7 5 12.38 2.94
-4 7 4 1.57 1.44
-4 7 3 9.41 2.6
-4 7 2 5.11 1.99
-4 7 1 89.04 7.91
-4 7 0 1.6 1.42
-4 7 -1 33.58 4.95
-4 7 -2 -0.63 1.45
-4 7 -3 1.64 1.55
4 -7 3 0.56 1.32
-4 7 -4 20.57 4.21
4 -7 4 19.42 3.79
-4 7 -5 258.94 15.05
4 -7 5 246.82 13.18
-4 7 -6 95.48 9.05
-4 7 -6 98.59 9.44
-4 7 -7 144.23 11.63
-4 7 -8 2.32 2.04
-4 7 -9 28.9 5.56
-4 7 -10 85.36 9.51
-4 7 -11 40.38 6.54
-4 7 -12 2.58 2.66
-4 7 -13 14.64 4.39
-4 6 11 1.68 1.66
-4 6 11 0.9 1.78
-4 6 10 53.81 5.81
-4 6 10 56.86 8.65
-4 6 9 70.43 6.7
-4 6 9 79.19 9.84
-4 6 8 71.64 6.68
-4 6 8 79.88 9.56
-4 6 7 27.4 4.14
-4 6 6 2.64 1.51
-4 6 5 5.65 1.94
-4 6 4 2.64 1.33
-4 6 3 144.79 9.44
-4 6 2 48.25 5.46
-4 6 1 1875.25 47.87
-4 6 0 98.49 7.92
-4 6 -1 453.19 18.81
4 -6 1 476.05 19.99
-4 6 -2 2.56 1.62
4 -6 2 -3.25 1.65
-4 6 -3 6.23 2.4
4 -6 3 12.99 2.92
-4 6 -4 -0.05 1.32
4 -6 4 -0.73 1.03
-4 6 -5 24.43 4.36
4 -6 5 38.85 4.72
-4 6 -6 16.65 3.69
4 -6 6 20.52 3.29
-4 6 -6 22.32 4.22
-4 6 -7 27.73 4.76
4 -6 7 21.61 3.45
-4 6 -8 39.87 5.74
4 -6 8 34.67 4.24
-4 6 -9 55.37 7.01
4 -6 10 35.53 5.16
-4 6 -10 27.87 5.06
-4 6 -11 201.99 14.05
-4 6 -12 148.98 12.26
-4 6 -13 70.89 8.67
-4 6 -14 0.56 1.5
-4 6 -15 12.37 4.24
-4 5 13 3.31 2.77
-4 5 12 -0.28 1.37
-4 5 12 -4.1 2.83
-4 5 11 4.37 1.97
-4 5 11 5.98 3.21
-4 5 10 331.15 15.28
-4 5 10 315.41 19.63
-4 5 9 146.57 9.65
-4 5 9 152.04 12.98
-4 5 8 17.13 3.19
-4 5 7 13.21 2.77
-4 5 6 39.09 4.64
-4 5 5 164.02 9.78
-4 5 4 29.49 4.04
-4 5 3 21.68 3.45
-4 5 2 36.52 4.49
-4 5 1 25.62 3.8
4 -5 -1 27.95 4.48
-4 5 0 135.13 8.93
4 -5 0 127.56 9.41
-4 5 -1 76.29 6.77
4 -5 1 93.47 7.71
-4 5 -2 -2.72 1.53
4 -5 2 -0.45 0.94
-4 5 -3 8.84 2.41
4 -5 3 8.42 2.33
-4 5 -4 3.21 1.76
-4 5 -5 0.64 1.12
-4 5 -6 233.92 12.98
-4 5 -7 225.32 13.02
-4 5 -8 1.49 1.43
-4 5 -9 74.22 7.52
4 -5 10 5.3 2.55
-4 5 -10 3.97 2.14
4 -5 11 7.03 2.71
-4 5 -11 14.29 3.63
-4 5 -12 95.7 9.08
4 -5 12 95.67 9.37
-4 5 -13 13.87 3.7
-4 5 -14 1.72 1.74
-4 5 -15 11.7 3.87
-4 5 -16 35.25 6.11
-4 4 14 13.53 3.31
-4 4 13 26.06 4.34
-4 4 12 61.92 6.46
-4 4 11 142.4 9.78
-4 4 10 39.52 5.01
-4 4 9 306.22 14.2
-4 4 8 156.89 9.58
-4 4 7 102.71 7.58
-4 4 6 8.37 2.08
4 -4 -5 17.95 3.19
-4 4 5 14.72 2.8
4 -4 -4 12.31 2.57
-4 4 4 8.74 2.11
4 -4 -3 7.06 2.01
-4 4 3 6.43 1.95
4 -4 -3 2.6 1.87
4 -4 -2 181.76 10.06
-4 4 2 194.16 10.3
4 -4 -2 196.08 11.74
4 -4 -1 22.37 3.49
-4 4 1 15.95 2.88
4 -4 -1 21.45 3.83
4 -4 0 454.85 17.21
-4 4 0 431.09 16.69
4 -4 0 449.93 18.19
4 -4 1 14.58 2.87
-4 4 -1 14.83 2.77
4 -4 2 317.65 14.19
-4 4 -2 355.02 14.72
4 -4 3 42.37 4.83
-4 4 -3 42.05 4.72
4 -4 4 83.24 6.96
-4 4 -4 88.54 7.07
-4 4 -5 54.76 5.62
-4 4 -6 100.74 7.77
-4 4 -7 10.33 2.53
-4 4 -8 141.43 9.69
-4 4 -9 45.77 5.51
4 -4 10 42.87 6.2
-4 4 -10 54.12 6.09
4 -4 11 51.8 7.21
-4 4 -11 40.1 5.4
-4 4 -12 231.6 13.54
4 -4 12 204.15 15.1
-4 4 -13 84.18 8.15
4 -4 13 94.31 10.46
-4 4 -14 61.12 7.08
-4 4 -15 -0.4 1.85
4 -3 -16 1.76 2.18
4 -3 -15 0.17 1.68
-4 3 14 8.41 2.84
-4 3 13 26.45 4.35
-4 3 12 24.04 4.1
-4 3 11 94.37 7.77
-4 3 10 287.1 13.94
-4 3 9 414.13 16.89
-4 3 8 177.27 10.1
-4 3 7 85.12 6.72
4 -3 -6 64.72 6
-4 3 6 53.62 5.21
-4 3 5 12.43 2.48
4 -3 -5 8.01 2.05
4 -3 -5 7.8 2.76
4 -3 -4 42.02 4.65
-4 3 4 46.35 4.69
-4 3 3 31.02 3.8
4 -3 -3 28.64 3.74
4 -3 -3 35.85 4.83
4 -3 -2 128.73 7.99
-4 3 2 122.96 7.72
4 -3 -2 125.78 9.02
4 -3 -1 88.76 6.53
-4 3 1 95.34 6.68
4 -3 0 33.09 3.89
-4 3 0 40.43 4.24
4 -3 1 48.31 4.79
-4 3 -1 51.87 4.91
4 -3 2 116.09 7.57
-4 3 -2 116 7.57
4 -3 3 103.43 7.15
-4 3 -3 115.24 7.58
4 -3 4 259.44 11.91
-4 3 -4 235.26 11.48
4 -3 5 104.93 7.4
-4 3 -5 97.96 7.17
-4 3 -6 37.76 4.43
4 -3 6 39.33 4.56
-4 3 -7 1.08 1.14
4 -3 7 5.07 1.78
4 -3 8 24.67 3.79
-4 3 -8 14.03 2.93
4 -3 9 20.18 4.53
4 -3 9 12.44 2.81
-4 3 -9 19.02 3.53
-4 3 -10 146.26 9.74
4 -3 10 156.64 12.83
4 -3 11 4.82 2.73
-4 3 -11 1.97 1.47
4 -3 12 9.14 3.84
-4 3 -12 12.42 2.96
-4 3 -13 120.63 9.37
4 -3 13 122.46 12.66
4 -3 14 68.06 9.81
-4 3 -14 54 6.47
4 -3 15 10.48 4.62
-4 3 -15 9.04 2.98
4 -2 -17 288.6 17.76
4 -2 -16 173.49 13.12
4 -2 -15 71.23 8.15
4 -2 -14 7.38 2.87
-4 2 13 29.23 4.61
-4 2 12 3.41 1.87
-4 2 11 0.4 1.06
-4 2 10 350.68 15.61
-4 2 9 104.94 7.88
-4 2 8 495.27 18.4
-4 2 7 230.29 11.38
4 -2 -6 102.83 7.64
-4 2 6 105.52 7.25
4 -2 -6 92.98 8.06
-4 2 5 55.63 5.11
4 -2 -5 49.64 5.76
4 -2 -4 340.22 14.09
-4 2 4 338.81 13.53
4 -2 -4 348.39 15.95
4 -2 -3 476.92 16.96
-4 2 3 463.98 16.38
4 -2 -2 131.5 7.88
4 -2 -1 415.54 15.04
-4 2 1 394.36 14.64
4 -2 0 1.89 1.04
-4 2 0 2.47 1.16
4 -2 1 -0.25 0.88
-4 2 -1 -0.24 0.86
4 -2 2 86.22 6.12
-4 2 -2 97.21 6.45
4 -2 3 316.05 12.73
-4 2 -3 330.8 13.14
4 -2 4 761.33 22.25
-4 2 -4 745.67 22.53
4 -2 5 434.27 15.5
-4 2 -5 426.08 15.67
4 -2 6 20.87 3.11
-4 2 -6 29.13 3.69
-4 2 -7 0.68 0.81
4 -2 7 1.2 1.04
4 -2 8 1.85 1.67
4 -2 8 -0.63 0.81
-4 2 -8 0.25 0.92
4 -2 9 20.37 4.84
4 -2 9 26.28 3.62
-4 2 -9 24.41 3.59
4 -2 10 18 3.15
4 -2 10 14.23 4.18
-4 2 -10 22.11 3.45
4 -2 11 4.66 2.93
-4 2 -11 5.99 2.08
4 -2 11 3.3 1.63
4 -2 12 -1.38 2.18
-4 2 -12 0.22 0.82
4 -2 13 36.1 7.51
-4 2 -13 32.54 4.59
4 -2 14 4.62 3.5
-4 2 -14 -0.31 1.27
4 -2 15 3.66 3.44
4 -2 16 22.8 6.46
4 -1 -18 -1.76 3.09
4 -1 -17 46.97 7.07
4 -1 -16 62.44 8.07
4 -1 -15 46.47 6.75
4 -1 -14 41.32 6.09
4 -1 -13 4.44 2.46
-4 1 12 41.47 5.37
-4 1 11 15.73 3.31
-4 1 10 138.64 9.39
-4 1 9 838.66 26.47
-4 1 8 87.14 6.98
4 -1 -8 88.28 7.99
-4 1 7 4.84 1.79
4 -1 -7 3.27 1.61
4 -1 -6 85.25 6.91
-4 1 6 73.43 6.07
4 -1 -6 73.23 6.96
-4 1 5 5.92 1.76
4 -1 -5 4.41 1.58
-4 1 4 1.22 1.14
4 -1 -4 1.41 0.94
-4 1 3 27.21 3.44
4 -1 -3 33.44 3.95
-4 1 2 4.89 1.47
4 -1 -2 6.68 1.73
4 -1 -1 63.54 5.21
-4 1 1 68.02 5.27
4 -1 0 576.65 18.28
4 -1 1 209.05 9.76
4 -1 2 25.1 3.13
4 -1 3 69.96 5.32
4 -1 4 16.1 2.45
4 -1 5 98.03 6.14
4 -1 6 116.9 6.78
4 -1 7 1.57 1.69
4 -1 7 0.85 1.1
4 -1 8 15.07 4.16
4 -1 8 20.15 2.83
-4 1 -8 20.07 2.96
4 -1 9 0.09 1.76
4 -1 9 0.06 1.02
-4 1 -9 -0.17 0.73
4 -1 10 7.38 3.55
-4 1 -10 10.48 2.27
4 -1 10 6.46 1.84
-4 1 -11 211.22 10.39
4 -1 11 200.63 17.08
4 -1 12 88.27 11.56
-4 1 -12 76.99 6.17
4 -1 13 7.64 4.05
4 -1 14 68.03 10.98
4 -1 15 47.47 9.42
4 -1 16 -0.71 2.49
4 0 -17 7.16 3.4
4 0 -16 181.31 14.24
4 0 -15 102.9 10.33
4 0 -14 55.9 7.31
4 0 -13 22.36 4.7
4 0 -12 6.37 2.68
-4 0 11 -0.32 1.23
4 0 -11 0.31 1.06
-4 0 10 200.24 11.73
-4 0 9 380.28 16.46
4 0 -9 383.41 17.44
-4 0 8 710.1 23.82
4 0 -8 741.28 25.34
-4 0 7 0.3 0.92
4 0 -7 0.34 1
-4 0 6 26.89 3.74
4 0 -5 322.64 14.17
-4 0 5 316.93 13.68
4 0 -4 467.47 17.21
-4 0 4 448.45 16.51
4 0 -3 814.23 24.43
-4 0 3 823 24.04
4 0 -2 837.92 24.25
-4 0 2 812.94 23.66
4 0 -1 260.43 11.26
-4 0 1 252.68 10.99
4 0 0 372.01 13.71
4 0 1 0.29 0.77
4 0 2 7.05 1.69
4 0 3 121.74 6.94
4 0 4 151.36 7.7
4 0 5 309.06 11
4 0 6 254.41 9.53
4 0 6 255.12 17.48
-4 0 -7 116.27 6.45
4 0 7 110.02 11.6
4 0 7 122.86 6.1
4 0 8 14.97 4.73
4 0 8 11.38 1.8
-4 0 -8 8.58 1.71
-4 0 -9 130.38 6.78
4 0 9 134.02 6.11
4 0 10 195.57 17.22
4 0 11 71.93 10.83
4 0 12 -1.89 3.87
4 0 13 73.51 11.48
4 0 14 3.58 3.64
4 0 15 20.58 6.96
4 1 -16 51.42 7.82
4 1 -15 13.69 4.09
4 1 -14 96.26 10.21
4 1 -13 232.32 15.59
4 1 -12 73.39 8.39
4 1 -11 1.77 1.56
4 1 -11 2.12 2.11
4 1 -10 -0.52 1.19
4 1 -10 2.2 1.7
-4 -1 9 5.75 2.28
4 1 -9 11.31 3.14
4 1 -9 9.51 2.57
4 1 -8 340.52 16.88
-4 -1 8 319.54 15.14
4 1 -8 334.84 15.51
-4 -1 7 27.21 4.11
-4 -1 6 58.66 5.77
-4 -1 5 115.18 7.95
4 1 -4 50.23 5.18
-4 -1 4 52.59 5.17
4 1 -3 37.9 4.3
-4 -1 3 35.56 4.14
-4 -1 2 0.43 1.04
4 1 -2 0.16 0.8
4 1 -1 41.84 4.3
-4 -1 1 51.77 4.75
4 1 0 275.72 11.63
4 1 1 102.6 6.46
4 1 2 77.84 5.52
4 1 3 24.93 3.01
4 1 4 75.57 9.4
4 1 4 90.13 5.57
-4 -1 -4 87.08 5.28
4 1 5 98.54 5.14
-4 -1 -5 95.55 5.46
-4 -1 -6 1.02 0.62
4 1 6 3.74 2.34
4 1 6 3.57 0.97
-4 -1 -7 131.21 5.94
4 1 7 126.42 4.94
4 1 7 119.84 12.96
-4 -1 -8 3.51 1
4 1 8 4.81 3.28
4 1 9 84.51 11.71
4 1 10 3.76 3.61
4 1 11 2.21 3.11
4 1 12 34.71 8.22
4 1 13 88.37 13.28
4 2 -15 29.24 6.03
4 2 -14 1.11 1.75
4 2 -13 -0.74 2.06
4 2 -12 95.31 10.11
4 2 -11 127.84 11.38
4 2 -10 5.59 2.66
4 2 -10 3.18 1.93
4 2 -9 151.5 11.77
4 2 -9 157.68 9.98
4 2 -8 69.48 7.6
4 2 -8 60.12 6.14
4 2 -7 729.91 27.11
4 2 -6 118.99 9.53
-4 -2 6 116.52 8.58
-4 -2 5 6.45 2.02
4 2 -5 10.46 2.83
4 2 -4 137.76 9.62
-4 -2 4 155.18 9.49
4 2 -3 234.7 12.29
4 2 -3 239.04 11.68
-4 -2 3 218.15 11.29
4 2 -2 125.63 8.41
4 2 -2 114.08 7.58
-4 -2 2 110.41 7.53
-4 -2 1 32.35 3.83
4 2 -1 28.58 3.79
4 2 -1 30.27 3.7
4 2 0 54.17 4.99
4 2 0 60.28 5.14
-4 -2 0 55.16 4.81
4 2 1 7.93 1.87
4 2 1 6.39 1.72
4 2 2 118.25 6.78
4 2 2 110.8 6.68
4 2 2 119.15 11.91
4 2 3 16.61 4.91
-4 -2 -3 16.12 2.28
4 2 3 20.63 2.61
4 2 3 14.29 2.34
4 2 4 3.75 3.31
-4 -2 -4 0.03 0.57
4 2 4 2.07 0.85
4 2 4 4.49 1.33
4 2 5 55.93 8.86
4 2 5 56.06 3.35
4 2 5 53.77 3.37
-4 -2 -5 58.46 3.69
-4 -2 -6 4.75 0.95
4 2 6 5.27 0.69
4 2 7 -1.69 3.03
4 2 8 61.65 10.47
4 2 9 25.41 7.37
4 2 10 90.19 13.25
4 2 11 84.99 12.93
4 2 12 36.32 9.1
4 3 -14 16.95 5.09
4 3 -13 5.16 2.47
4 3 -12 90.68 10.37
4 3 -11 67.66 8.73
4 3 -10 30.52 5.9
4 3 -9 3.26 2.46
4 3 -8 6.84 2.89
4 3 -7 46.92 6.4
4 3 -6 14.51 3.57
4 3 -5 140.45 10.45
4 3 -4 9.26 2.81
4 3 -3 -0.11 1.15
4 3 -2 42.35 6.6
4 3 -2 41.39 4.99
4 3 -2 40.8 4.61
4 3 -1 25.21 5.42
4 3 -1 24.5 3.69
4 3 -1 19.21 3.14
4 3 0 39.9 6.78
4 3 0 32.21 4.01
4 3 0 33.43 3.94
4 3 1 220.75 10.4
4 3 1 230.95 10.8
4 3 1 217.88 16.56
4 3 2 32.59 6.7
4 3 2 27.09 3.28
4 3 2 19.17 2.83
4 3 3 4.38 3.02
4 3 3 3.08 1
4 3 3 3.77 1.3
4 3 4 3.13 3.31
4 3 4 8.07 3.35
4 3 5 30.22 7.17
4 3 6 41.62 8.95
4 3 7 5.97 4.29
4 3 8 55.53 10.32
4 3 9 3.66 3.66
4 3 10 164.48 18.75
4 4 -12 27.02 6.03
4 4 -11 170.38 14.79
4 4 -10 247.91 17.31
4 4 -9 27.77 5.69
4 4 -8 248.87 16.35
4 4 -8 224.03 13.86
4 4 -7 50.63 6.68
4 4 -7 59.18 7.66
4 4 -6 30.45 5.37
4 4 -6 27.4 5.04
4 4 -5 13.58 3.74
4 4 -5 11.14 3.4
4 4 -4 -1.03 1.73
4 4 -4 4.46 1.96
4 4 -3 2.93 2.69
4 4 -3 1.95 1.79
4 4 -2 -0.28 1.58
4 4 -2 1.63 1.49
4 4 -1 36.07 6.92
4 4 -1 38.09 4.86
4 4 0 69.71 9.8
4 4 0 67.51 5.72
4 4 0 55.8 5.61
4 4 1 91.46 11.4
4 4 1 119.62 7.81
4 4 2 71.06 10.42
4 4 2 77.43 5.82
4 4 3 278.05 21.4
4 4 4 3.37 3.6
4 4 5 3.79 3.46
4 4 6 73.21 11.84
4 4 7 8.82 4.79
4 4 8 30.39 8.11
4 5 -10 3.21 3.05
4 5 -9 5.09 2.58
4 5 -8 22.1 5.12
4 5 -7 0.65 1.82
4 5 -6 0.16 1.77
4 5 -6 1.95 2.1
4 5 -5 0.02 1.9
4 5 -5 3.63 2.69
4 5 -4 54.12 6.89
4 5 -4 59.24 8.39
4 5 -3 84.16 10.42
4 5 -3 89.84 8.55
4 5 -2 102.8 8.88
4 5 -2 98.63 11.56
4 5 -1 17.14 5.12
4 5 -1 21.64 3.83
4 5 0 16.6 5.25
4 5 0 16.19 3.33
4 5 1 -2.23 2.59
4 5 2 4.55 4.06
4 5 3 10.81 4.95
4 5 4 14.69 5.47
4 5 5 -1.19 2.48
4 5 6 23.81 7.13
4 6 -8 7.69 3.1
4 6 -7 275.48 18.32
4 6 -6 125.46 11.8
4 6 -5 15.46 4.33
4 6 -4 14.23 4.07
4 6 -3 4.59 3.53
4 6 -3 4.43 2.28
4 6 -2 37.39 7.79
4 6 -1 57.82 9.75
4 6 0 8.71 4.79
4 6 1 92.91 12.93
4 6 2 116.89 14.78
4 6 3 36.03 8.65
-5 10 2 2.91 2.95
-5 10 1 1.01 2.58
-5 10 0 32.14 6.23
-5 9 5 6.8 2.92
-5 9 4 2.27 2.1
-5 9 3 1.7 2.08
-5 9 2 9.02 3.43
-5 9 1 224.95 15.03
-5 9 0 22.83 4.75
-5 9 -1 2.53 2.09
-5 9 -2 0.26 1.71
-5 9 -3 79.32 9.25
-5 9 -4 25.81 5.49
-5 9 -5 2.35 1.94
-5 8 7 5.82 2.72
-5 8 6 95.08 8.79
-5 8 5 121.26 9.91
-5 8 4 29.11 5.02
-5 8 3 7.63 2.9
-5 8 2 126.33 10.44
-5 8 1 38.96 5.85
-5 8 0 -0.49 1.73
-5 8 -1 27.02 5.03
-5 8 -2 13.17 3.7
-5 8 -3 21.89 4.73
-5 8 -4 2.39 2.2
-5 8 -5 17.09 4.41
-5 8 -6 100.32 10.39
-5 8 -7 163.52 13.44
-5 8 -8 12.93 3.8
-5 8 -9 10.87 3.9
-5 7 10 75.82 7.72
-5 7 9 12.91 3.54
-5 7 8 1.05 1.53
-5 7 7 42.61 5.68
-5 7 6 10.84 3.1
-5 7 5 -0.74 1.63
-5 7 4 -0.7 1.71
-5 7 3 46.6 6.02
-5 7 2 117.49 9.66
-5 7 1 23.24 4.42
-5 7 0 640.96 25.16
-5 7 -1 53.2 6.61
-5 7 -2 55.6 6.89
-5 7 -3 9.61 3.07
-5 7 -4 17.14 4.09
-5 7 -5 126.94 10.79
-5 7 -6 100.05 9.69
-5 7 -7 42.56 6.51
-5 7 -8 11.95 3.8
-5 7 -9 0.53 1.42
-5 7 -10 3.14 2.63
-5 7 -11 84.92 9.87
-5 6 12 51 6.57
-5 6 11 14.73 3.69
-5 6 10 4.53 2.28
-5 6 9 30.3 4.92
-5 6 8 157.73 10.96
-5 6 7 134.72 10.05
-5 6 6 105.04 8.74
-5 6 5 316.62 15.73
-5 6 4 173.21 11.33
-5 6 3 36.16 4.96
-5 6 2 53.4 6.14
-5 6 1 22.59 4.11
-5 6 0 32.5 4.84
-5 6 -1 8.36 2.71
-5 6 -2 18.46 3.89
-5 6 -3 5.39 2.27
-5 6 -4 22.6 4.36
-5 6 -5 4.54 2.18
-5 6 -6 39.84 5.87
-5 6 -7 421.73 20.33
-5 6 -8 393.95 19.91
-5 6 -9 12.99 3.66
-5 6 -10 3.81 2.56
-5 6 -11 0.61 1.78
-5 6 -12 126.19 11.55
-5 6 -13 13.72 4.06
-5 5 13 49.64 6.55
-5 5 12 22.78 4.56
-5 5 11 28.1 4.85
-5 5 10 52.77 6.4
-5 5 9 0.79 1.56
-5 5 8 1.19 1.14
-5 5 7 65.34 6.69
-5 5 6 58.71 6.24
-5 5 5 27.46 4.25
-5 5 4 5.33 2.21
-5 5 3 14.07 3.2
-5 5 2 66.93 6.64
-5 5 1 439.8 18.33
-5 5 0 121.69 9.02
-5 5 -1 1386.64 39.2
-5 5 -2 8.17 2.64
-5 5 -3 323.8 15.84
-5 5 -4 9.88 2.79
-5 5 -5 5.65 2.3
-5 5 -6 12.04 3.17
-5 5 -7 5.25 2.25
-5 5 -8 10 3.17
-5 5 -9 0.8 1.52
-5 5 -10 4.02 2.57
5 -5 11 -0.46 1.37
-5 5 -11 -3.76 2.4
5 -5 12 -3.97 2.73
-5 5 -12 3.77 2.54
-5 5 -13 4.99 2.56
-5 5 -14 78.03 9.04
-5 5 -15 15.24 4.27
-5 4 15 5.72 3
-5 4 14 1.84 2.02
-5 4 13 53.92 6.81
-5 4 12 172.63 11.99
-5 4 11 77.36 7.89
-5 4 10 12.82 3.29
-5 4 9 49.44 5.94
-5 4 8 18.08 3.53
-5 4 7 87.33 7.68
-5 4 6 43.13 5.19
-5 4 5 0.3 1.08
-5 4 4 77.8 6.9
-5 4 3 158.14 10.04
-5 4 2 22.49 3.72
-5 4 1 85.83 7.28
-5 4 0 509.33 19.53
-5 4 -1 490.99 19.17
-5 4 -2 13.1 2.95
-5 4 -3 43.77 5.31
-5 4 -4 10.1 2.63
-5 4 -5 1.97 1.78
-5 4 -6 4.09 1.81
-5 4 -7 29.07 4.54
-5 4 -8 347.54 16.78
-5 4 -9 412.56 18.81
5 -4 10 0.05 1.54
-5 4 -10 -0.43 1.49
-5 4 -11 106.89 9.36
5 -4 11 112.07 11.82
5 -4 12 62.3 9.17
-5 4 -12 68.96 7.61
5 -4 13 4.51 3.72
-5 4 -13 2.43 1.97
-5 4 -14 0.77 1.79
-5 4 -15 -0.43 2.1
5 -3 -16 46.54 7.35
-5 3 15 0.23 1.84
-5 3 14 8.23 3.1
-5 3 13 4.5 2.16
-5 3 12 27.43 4.79
-5 3 11 75.18 7.56
-5 3 10 94.85 8.4
-5 3 9 1.13 1.4
-5 3 8 181.59 11.22
-5 3 7 2.11 1.52
-5 3 6 51.25 5.6
-5 3 5 164.53 10.13
-5 3 4 63.07 6.06
-5 3 3 3.08 1.52
-5 3 2 32.63 4.29
-5 3 1 110.74 8.01
-5 3 0 480.89 18.29
-5 3 -1 206.76 11.23
-5 3 -2 461.62 17.89
-5 3 -3 85.87 7.04
-5 3 -4 154.56 9.74
-5 3 -5 6.1 2.01
-5 3 -6 3.94 1.7
-5 3 -7 12.45 3.08
-5 3 -8 75.07 7
5 -3 9 1.73 2.6
-5 3 -9 0.57 1.33
5 -3 10 60.93 8.93
-5 3 -10 72.13 7.07
-5 3 -11 102.89 8.72
5 -3 11 96.01 11.51
5 -3 12 5.34 3.41
-5 3 -12 -0.3 1.32
5 -3 13 2.58 3.47
-5 3 -13 4.3 1.97
5 -3 14 16.16 6.04
5 -3 15 60.66 10.45
5 -2 -16 6.15 3.01
5 -2 -15 32.13 5.81
-5 2 14 6.49 2.67
-5 2 13 -0.32 1.38
-5 2 12 1.28 1.61
-5 2 11 38.62 5.43
-5 2 10 76.26 7.35
-5 2 9 151.32 10.36
-5 2 8 565.42 21.46
-5 2 7 24.02 3.86
-5 2 6 38.36 4.77
-5 2 5 0.49 0.87
-5 2 4 99.88 7.58
-5 2 3 18.85 3.23
-5 2 2 59.6 5.66
-5 2 1 48.68 5.15
5 -2 0 0.72 0.93
-5 2 0 0.92 1.12
5 -2 1 185.97 10.32
-5 2 -1 174.08 9.95
5 -2 2 276.84 12.84
-5 2 -2 268.2 12.61
5 -2 3 35.12 4.22
-5 2 -3 25.6 3.75
5 -2 4 27.05 3.69
-5 2 -4 33.88 4.28
5 -2 5 2.88 1.4
-5 2 -5 4.95 1.64
5 -2 6 13.7 2.7
-5 2 -6 13.86 2.82
5 -2 7 2 1
-5 2 -7 0.01 0.79
-5 2 -8 45.46 5.15
5 -2 8 49.88 5.18
5 -2 9 3.37 3.08
5 -2 9 0.85 1.22
-5 2 -9 2.6 1.6
5 -2 10 46.57 8.21
-5 2 -10 42.2 5.04
5 -2 11 2.42 2.35
-5 2 -11 7.65 2.57
-5 2 -12 250.99 13.1
5 -2 12 223.01 19.23
5 -2 13 79.72 11.9
5 -2 14 12.28 5.6
5 -2 15 9.98 4.71
5 -1 -15 145.52 12.76
5 -1 -14 91.44 9.9
-5 1 13 56.68 6.94
5 -1 -13 54.45 7.55
-5 1 12 26.67 4.88
-5 1 11 1.1 1.47
-5 1 10 2.79 1.88
-5 1 9 66.61 6.78
-5 1 8 6.31 2.14
-5 1 7 395.06 17.2
-5 1 6 12.55 2.83
-5 1 5 69.56 6.39
-5 1 4 59.13 5.79
-5 1 3 20.14 3.32
-5 1 2 18.97 3.16
-5 1 1 17.93 3.09
5 -1 -1 18.21 3.23
-5 1 0 4.36 1.73
5 -1 0 8.35 2.14
5 -1 1 215.93 11.09
-5 1 -1 206.92 10.62
5 -1 2 85.6 6.65
-5 1 -2 90.27 6.7
5 -1 3 5.45 1.7
-5 1 -3 6.41 1.91
5 -1 4 535.54 18.44
-5 1 -4 545.17 18.75
5 -1 5 0.89 1.12
-5 1 -5 0.9 1.03
5 -1 6 7.96 1.99
-5 1 -6 9.92 2.3
5 -1 7 68.94 9.35
-5 1 -7 66.12 5.71
5 -1 7 67.94 5.55
5 -1 8 4.86 3.48
5 -1 8 2.11 1.42
-5 1 -8 3.86 1.31
5 -1 9 24 6.4
-5 1 -9 16.38 2.96
5 -1 10 -1.05 3
-5 1 -10 4.38 1.62
5 -1 11 44.37 8.54
5 -1 12 140.23 16.02
5 -1 13 12.15 5.51
5 -1 14 43.43 9.32
5 0 -15 288.52 18.85
5 0 -14 -0.29 1.35
5 0 -13 10.59 3.59
-5 0 12 38.23 5.74
5 0 -12 43.65 6.68
-5 0 11 0.3 1.46
5 0 -11 -0.5 1.38
-5 0 10 43.69 5.81
-5 0 9 97.32 8.5
-5 0 8 231.31 13.07
-5 0 7 1344.94 38.16
-5 0 6 0.1 1.3
-5 0 5 3.63 1.68
-5 0 4 14.08 2.87
-5 0 3 25.05 3.75
-5 0 2 47.01 5.06
5 0 -1 48.4 5.14
-5 0 1 58.07 5.49
-5 0 0 10.94 2.45
5 0 0 5.83 1.68
-5 0 -1 26.44 3.58
5 0 1 30.99 3.95
5 0 2 109.89 7.55
-5 0 -2 103.31 7.15
5 0 3 261.83 12.04
-5 0 -3 247.14 11.32
5 0 4 235.43 11.28
-5 0 -4 248.48 11.14
5 0 5 171.63 8.76
-5 0 -5 156.76 8.55
5 0 6 157.53 8.06
-5 0 -6 155.05 8.37
5 0 6 161.63 15.04
-5 0 -7 6.24 1.63
5 0 7 5.47 3.01
-5 0 -8 16.78 2.56
5 0 8 17.9 5.77
5 0 9 12.93 4.68
-5 0 -9 16.23 2.48
5 0 10 8.26 4.69
5 0 11 2.64 2.85
5 0 12 4.76 3.39
5 1 -14 66.45 9.01
5 1 -13 34.92 6.38
5 1 -12 57.33 8.03
5 1 -11 28.9 5.82
-5 -1 10 17.02 3.73
5 1 -10 9.12 3.13
-5 -1 9 3.56 1.93
5 1 -9 6 2.58
-5 -1 8 39.94 5.52
5 1 -8 34.43 5.52
-5 -1 7 220.86 12.92
-5 -1 6 554.03 21.56
-5 -1 5 48.54 5.61
-5 -1 4 1.06 1.15
-5 -1 3 18.69 3.41
-5 -1 2 36.15 4.57
-5 -1 1 158.82 9.57
5 1 0 256.29 12.53
-5 -1 0 300.19 13.27
5 1 1 249.26 12.07
-5 -1 -1 242.34 11.61
5 1 2 81.02 6.49
-5 -1 -2 85.56 6.33
-5 -1 -3 9.01 2.06
5 1 3 9.84 2.32
-5 -1 -4 -0.15 0.77
5 1 4 1.11 1.34
5 1 5 123.96 6.83
5 1 5 124.89 13.7
5 1 6 -6 3.78
5 1 7 29.18 7.23
5 1 8 95.37 12.85
5 1 9 10.75 5.02
5 1 10 2.73 4.44
5 1 11 13.14 5.45
5 2 -13 1.79 2.16
5 2 -12 32.69 6.3
5 2 -11 147.01 13.13
5 2 -10 17.29 4.37
5 2 -9 33.9 6.02
5 2 -8 16.52 4.27
-5 -2 7 4.27 2.18
5 2 -7 2.31 1.76
5 2 -6 474.21 21.55
-5 -2 6 472.32 20.17
-5 -2 5 10.67 2.88
5 2 -5 12.48 3.13
5 2 -4 207.31 12.67
-5 -2 4 189.78 11.59
5 2 -3 44.88 5.64
-5 -2 3 53.31 5.8
5 2 -2 78.35 7.16
-5 -2 2 83.45 7.13
-5 -2 1 29.32 4.06
5 2 -1 28.51 4.15
-5 -2 0 0.97 0.9
5 2 0 5.88 2.1
-5 -2 -1 25.01 3.53
5 2 1 32.31 6.97
5 2 1 25.17 3.68
5 2 1 32.31 4.15
5 2 2 115.23 7.81
5 2 2 118.12 7.71
-5 -2 -2 121.45 7.54
5 2 2 114.24 13.12
5 2 3 38.85 7.83
5 2 3 48.66 4.83
5 2 3 55.87 4.9
-5 -2 -3 38.55 3.98
5 2 4 206.49 9.39
5 2 4 200.32 17.87
5 2 5 153.07 16.3
5 2 6 134.39 15.73
5 2 7 182.32 18.8
5 2 8 11.24 5.07
5 2 9 3.36 3.45
5 3 -12 55.65 8.71
5 3 -11 23.6 5.78
5 3 -10 7.69 3.62
5 3 -9 5.21 2.99
5 3 -8 8.5 3.43
5 3 -7 60.02 7.85
5 3 -6 156.47 12.26
5 3 -5 517.83 22.93
5 3 -4 255.37 15.06
5 3 -3 113.05 9.4
5 3 -2 -0.23 2.58
5 3 -2 0.64 1.26
5 3 -1 13.38 4.63
5 3 -1 16.53 3.45
5 3 0 14.14 5.08
5 3 0 10.45 2.64
5 3 1 13.91 5.32
5 3 1 8.34 2.37
5 3 2 30.25 7.36
5 3 2 53.28 5.15
5 3 3 43.32 8.86
5 3 4 10.16 5.48
5 3 5 -10.27 5.1
5 3 6 4.41 3.58
5 3 7 40.8 9.63
5 4 -10 0.35 2.03
5 4 -9 0.98 2.13
5 4 -8 3.64 2.47
5 4 -7 5.19 3.22
5 4 -7 -1.54 2.44
5 4 -6 38.32 6.86
5 4 -6 37.88 6.38
5 4 -5 48.18 7.94
5 4 -5 45.14 6.59
5 4 -4 40.5 7.67
5 4 -4 40.93 6.09
5 4 -3 250.2 14.88
5 4 -3 270.02 19.79
5 4 -2 66.68 10.22
5 4 -2 86.83 8.28
5 4 -1 44.91 8.89
5 4 -1 50.09 5.97
5 4 0 8.49 4.97
5 4 0 1.16 1.46
5 4 1 -3.53 3.65
5 4 2 7.17 4.76
5 4 3 80.27 12.49
5 4 4 3.87 3.07
5 4 5 0.48 2.75
5 5 -8 68.26 9.26
5 5 -7 17.97 5.02
5 5 -6 55.94 7.93
5 5 -5 78.89 9.02
5 5 -4 66.12 10
5 5 -4 88.63 9.37
5 5 -3 7.93 2.95
5 5 -3 8.46 4.66
5 5 -2 2.88 3.45
5 5 -1 12.81 5.8
5 5 0 -1.95 4.18
5 5 1 -1.24 4.47
5 5 2 -5.68 4.01
-6 9 5 54.4 7.51
-6 9 4 7.4 3.13
-6 9 3 0.16 1.79
-6 9 2 3.68 2.67
-6 9 1 1.92 1.79
-6 9 0 8.62 3.67
-6 9 -1 6.87 3.34
-6 8 8 4.16 2.85
-6 8 7 1.14 1.85
-6 8 6 1.1 1.99
-6 8 5 1.72 2.18
-6 8 4 2 1.57
-6 8 3 6.79 2.75
-6 8 2 6.09 2.66
-6 8 1 -0.11 1.87
-6 8 0 33.53 5.93
-6 8 -1 312.85 18.39
-6 8 -2 85.07 9.43
-6 8 -3 3.64 2.93
-6 8 -4 49.67 7.4
-6 8 -5 25.37 5.5
-6 8 -6 1.03 1.66
-6 7 10 3.02 2.34
-6 7 9 23.78 4.78
-6 7 8 10.93 3.54
-6 7 7 90.41 9.1
-6 7 6 4.89 2.66
-6 7 5 38.22 5.92
-6 7 4 19.27 4.37
-6 7 3 56.21 7.08
-6 7 2 60.55 7.37
-6 7 1 0.61 1.68
-6 7 0 40.55 6.05
-6 7 -1 102.61 9.89
-6 7 -2 58.76 7.51
-6 7 -3 14.91 4.02
-6 7 -4 38.43 6.23
-6 7 -5 18.05 4.46
-6 7 -6 1.25 2.01
-6 7 -7 0.97 1.51
-6 7 -8 36.51 6.51
-6 7 -9 86.44 9.87
-6 6 12 0.84 2.62
-6 6 11 7.92 3.48
-6 6 10 44.52 6.54
-6 6 9 6.29 2.91
-6 6 8 94.47 9.18
-6 6 7 84.26 8.52
-6 6 6 46.89 6.24
-6 6 5 14.72 3.65
-6 6 4 15.61 3.68
-6 6 3 0.99 1.61
-6 6 2 11.81 3.46
-6 6 1 51.52 6.55
-6 6 0 71.32 7.67
-6 6 -1 1.92 1.87
-6 6 -2 570.06 23.94
-6 6 -3 18.09 4.18
-6 6 -4 17.13 4.03
-6 6 -5 92.05 9.22
-6 6 -6 2.58 2.14
-6 6 -7 5.6 2.6
-6 6 -8 1.65 2.05
-6 6 -9 10.27 3.64
-6 6 -10 16.25 4.29
-6 6 -11 1.79 2.32
-6 6 -12 5.35 2.95
-6 5 13 1.68 2.16
-6 5 12 42.68 6.47
-6 5 11 97.79 9.63
-6 5 10 71.15 8.05
-6 5 9 59.54 7.25
-6 5 8 1.36 1.92
-6 5 7 43.79 6.06
-6 5 6 459.16 20.5
-6 5 5 -0.71 1.33
-6 5 4 1 1.64
-6 5 3 92.49 8.54
-6 5 2 51.77 6.34
-6 5 1 7.99 2.75
-6 5 0 15.34 3.61
-6 5 -1 1.07 1.34
-6 5 -2 4.12 1.82
-6 5 -3 2.31 1.94
-6 5 -4 1.74 1.66
-6 5 -5 23.39 4.55
-6 5 -6 79.28 8.21
-6 5 -7 150.64 11.66
-6 5 -8 10.17 3.21
-6 5 -9 74.47 8.33
-6 5 -10 201.71 14.09
6 -5 11 -0.35 2.58
-6 5 -11 5.12 3.14
6 -5 12 -1.88 3.58
-6 5 -12 0.01 2.11
-6 5 -13 5.86 2.99
-6 5 -14 166.11 13.65
-6 4 14 16.19 4.6
-6 4 13 130.6 11.4
-6 4 12 3.68 2.66
-6 4 11 0.19 1.86
-6 4 10 20.01 4.51
-6 4 9 54.67 6.77
-6 4 8 3.35 2.01
-6 4 7 35.4 5.26
-6 4 6 81.58 7.96
-6 4 5 252.01 14.2
-6 4 4 265.09 14.53
-6 4 3 148.98 10.55
-6 4 2 56.11 6.45
-6 4 1 63.19 6.83
-6 4 0 2.26 1.44
-6 4 -1 113.04 9.19
-6 4 -2 71.45 7.27
-6 4 -3 946.65 31.1
-6 4 -4 12.87 3.14
-6 4 -5 95.28 8.5
-6 4 -6 110.81 9.36
-6 4 -7 87.99 8.47
-6 4 -8 60.72 7.1
-6 4 -9 23.02 4.52
6 -4 10 2.73 3.15
-6 4 -10 1.13 1.6
6 -4 11 4.04 3.63
-6 4 -11 3.39 2.22
6 -4 12 6.99 4.03
-6 4 -12 6.59 2.85
6 -4 13 11.68 5.86
-6 4 -13 11.41 3.86
-6 3 14 64.62 8.28
-6 3 13 34.15 5.91
-6 3 12 77.92 8.51
-6 3 11 5.03 2.43
-6 3 10 188.55 13.08
-6 3 9 88.65 8.58
-6 3 8 22.44 4.27
-6 3 7 1.65 1.54
-6 3 6 8.79 2.76
-6 3 5 264.9 14.39
-6 3 4 14.11 3.32
-6 3 3 1.7 1.58
-6 3 2 31.75 4.71
-6 3 1 0.85 1.59
-6 3 0 57.79 6.28
-6 3 -1 -0.53 1.1
-6 3 -2 261.01 13.92
-6 3 -3 336.28 16.04
-6 3 -4 99.55 8.32
-6 3 -5 24.53 4.15
-6 3 -6 9.75 2.82
-6 3 -7 74.65 7.36
-6 3 -8 74.26 7.43
-6 3 -9 5.85 2.29
-6 3 -10 103.62 9.05
6 -3 10 122.47 13.59
-6 3 -11 202.95 12.86
6 -3 11 181.2 17.13
6 -3 12 5.76 3.86
-6 3 -12 5.56 2.55
6 -3 13 13.86 5.65
6 -3 14 46.88 10.23
-6 2 13 6.14 2.63
-6 2 12 61.87 7.63
-6 2 11 6.39 2.56
-6 2 10 8.09 2.81
-6 2 9 29.28 5.06
-6 2 8 0.38 1.67
-6 2 7 6.02 2.51
-6 2 6 36.34 5.23
-6 2 5 3.81 2.04
-6 2 4 82.59 7.65
-6 2 3 261.68 13.87
-6 2 2 219.11 12.52
-6 2 1 62.85 6.47
-6 2 0 61.05 6.34
-6 2 -1 15.31 3.27
-6 2 -2 66.71 6.56
-6 2 -3 230.53 12.6
-6 2 -4 416.11 17.77
-6 2 -5 24.03 3.96
-6 2 -6 103.34 8.19
-6 2 -7 28.46 4.34
-6 2 -8 62.83 6.45
6 -2 9 75.63 10.78
-6 2 -9 106.95 8.46
-6 2 -10 130.22 9.52
6 -2 10 158.56 16.22
6 -2 11 16.76 5.98
6 -2 12 -2.37 3.06
-6 1 13 111.76 10.54
-6 1 12 11.93 3.64
-6 1 11 37.86 5.99
-6 1 10 28.8 5.15
-6 1 9 0.08 1.57
-6 1 8 0.82 1.36
-6 1 7 -0.22 1.32
-6 1 6 99.28 8.73
-6 1 5 1.6 1.02
-6 1 4 56.35 6.25
-6 1 3 23.88 4
-6 1 2 154.33 10.25
-6 1 1 147.15 9.97
-6 1 0 55.84 5.95
-6 1 -1 77.95 6.99
-6 1 -2 19.02 3.45
-6 1 -3 96.34 7.67
-6 1 -4 176.28 10.52
-6 1 -5 44.9 5.07
-6 1 -6 116.19 8.29
6 -1 7 1.75 2.83
-6 1 -7 5.23 2
6 -1 8 13.14 4.99
-6 1 -8 22.89 3.62
6 -1 9 3.96 3.11
-6 1 -9 4.28 1.81
6 -1 10 36.58 8.44
6 -1 11 28.68 7.6
-6 0 12 63.83 7.88
6 0 -12 70.22 9.16
6 0 -11 67.14 8.8
-6 0 11 71.48 8.17
-6 0 10 50.5 6.77
-6 0 9 73.9 7.97
-6 0 8 49.03 6.36
-6 0 7 7.15 2.71
-6 0 6 0.67 1.3
-6 0 5 177.37 11.72
-6 0 4 23.64 4.2
-6 0 3 11.71 2.99
-6 0 2 137.5 9.74
-6 0 1 130.82 9.34
-6 0 0 83.93 7.25
-6 0 -1 55.46 5.81
-6 0 -2 34.9 4.53
-6 0 -3 4.5 1.79
-6 0 -4 62.36 5.88
-6 0 -5 127.12 8.35
-6 0 -6 248.4 11.82
6 0 6 225.39 19.79
-6 0 -7 4.72 1.59
6 0 7 4.05 2.99
6 0 8 1.14 2.67
6 0 9 14.4 5.2
6 1 -11 1.33 1.76
-6 -1 10 44.58 6.44
6 1 -10 42.76 7.12
-6 -1 9 47.29 6.57
6 1 -9 44.33 7.03
-6 -1 8 15.93 3.78
6 1 -8 9.74 3.62
-6 -1 7 0.61 1.4
-6 -1 6 6.91 2.71
-6 -1 5 606.74 24.1
-6 -1 4 19.67 3.94
-6 -1 3 2.27 1.76
-6 -1 2 25.47 4.2
-6 -1 1 8.93 2.49
-6 -1 0 11.16 2.76
-6 -1 -1 0.72 1.44
-6 -1 -2 16.4 3.19
-6 -1 -3 50.65 5.29
-6 -1 -4 5.03 1.54
6 1 4 0.1 3.83
-6 -1 -5 29.33 3.7
6 1 5 3.93 2.94
6 1 6 40.45 9.2
6 1 7 -3.97 3.33
6 1 8 53.48 10.61
6 2 -10 61.21 8.78
6 2 -9 77.48 9.62
6 2 -8 39.39 6.81
6 2 -7 146.94 12.64
-6 -2 7 140.72 11.43
6 2 -6 122.35 11.23
-6 -2 6 146.96 11.35
6 2 -5 109.08 10.13
-6 -2 5 130.05 10.47
6 2 -4 155.64 11.88
-6 -2 4 170.15 11.79
-6 -2 3 18.48 3.79
6 2 -3 16.45 3.88
-6 -2 2 9.25 2.67
6 2 -2 10.71 3.08
-6 -2 1 46.97 5.61
6 2 -1 46.69 5.82
-6 -2 0 34.62 4.67
6 2 0 35.99 5.05
6 2 1 81.21 12.37
6 2 1 69.46 6.69
-6 -2 -1 64.31 6.15
6 2 2 116.59 14.81
6 2 2 111.01 8.29
-6 -2 -2 115.51 8
6 2 3 161.38 17.66
6 2 4 9.05 4.49
6 2 5 11.52 5.67
6 2 6 117.36 15.88
6 3 -9 134.56 13.22
6 3 -8 49.12 7.62
6 3 -7 -0.76 1.75
6 3 -6 1.07 1.9
6 3 -5 57.02 7.5
6 3 -4 166.96 12.73
6 3 -3 37.3 8.72
6 3 -3 24.09 4.78
6 3 -2 10.62 5.35
6 3 -2 9.82 3.25
6 3 -1 30.4 7.73
6 3 -1 34.12 5.2
6 3 0 40.46 9.05
6 3 0 26.05 4.46
6 3 1 43.73 9.56
6 3 2 5.07 4.12
6 3 3 36.47 9.11
6 4 -7 5.68 3.77
6 4 -6 33.47 6.41
6 4 -5 69.51 11
6 4 -5 76.88 9.22
6 4 -4 217.9 15.16
6 4 -4 205.7 18.62
6 4 -3 86.92 12.59
6 4 -3 86.28 9.17
6 4 -2 41.03 9.07
6 4 -1 9.03 5.2
6 4 0 -1.03 2.87
6 4 1 -2.46 3.69
-7 8 3 246.37 16.72
-7 8 2 35.29 6.31
-7 8 1 32.3 6.1
-7 8 0 5.68 3.09
-7 7 7 35.67 6.4
-7 7 6 20.77 4.82
-7 7 5 5.85 2.91
-7 7 4 -1.35 2.13
-7 7 3 8.52 3.1
-7 7 2 9.69 3.56
-7 7 1 71.58 8.6
-7 7 0 1.85 1.92
-7 7 -1 31.56 5.65
-7 7 -2 2.74 2.43
-7 7 -3 38.11 6.4
-7 7 -4 117.66 11.33
-7 7 -5 0.72 1.72
-7 7 -6 55.67 7.91
-7 6 9 27.68 5.83
-7 6 8 1.45 1.55
-7 6 7 21.33 4.86
-7 6 6 0.64 1.58
-7 6 5 1.44 1.88
-7 6 4 -0.22 1.54
-7 6 3 17.5 4.27
-7 6 2 21.76 4.68
-7 6 1 33.71 5.77
-7 6 0 97.91 9.72
-7 6 -1 66.36 8.06
-7 6 -2 56.22 7.4
-7 6 -3 2.1 2.19
-7 6 -4 8.4 3.16
-7 6 -5 1.78 1.73
-7 6 -6 99.97 10.26
-7 6 -7 13.96 3.83
-7 6 -8 1.2 1.88
-7 6 -9 21.96 5.21
-7 5 10 43.88 6.83
-7 5 9 27.94 5.43
-7 5 8 7.93 3.13
-7 5 7 5.39 2.74
-7 5 6 7.38 2.84
-7 5 5 18.92 4.29
-7 5 4 0.04 1.71
-7 5 3 1.26 1.43
-7 5 2 28.02 5.17
-7 5 1 12.42 3.59
-7 5 0 73.53 8.18
-7 5 -1 102.23 9.72
-7 5 -2 310.71 17.45
-7 5 -3 56.78 7.29
-7 5 -4 44.23 6.43
-7 5 -5 21.13 4.61
-7 5 -6 0.43 1.5
-7 5 -7 61.14 7.67
-7 5 -8 7.07 3.21
-7 5 -9 5.09 2.57
-7 5 -10 -0.31 1.45
7 -5 11 5.14 3.41
-7 5 -11 17.8 4.67
-7 4 10 31.71 5.84
-7 4 9 75.75 8.72
-7 4 8 116.13 10.6
-7 4 7 169.25 12.78
-7 4 6 61.62 7.57
-7 4 5 2.34 1.59
-7 4 4 118.57 10.29
-7 4 3 0.35 1.22
-7 4 2 8.48 3
-7 4 1 30.08 5.18
-7 4 0 12.49 3.43
-7 4 -1 61.4 7.29
-7 4 -2 113.08 9.99
-7 4 -3 88.08 8.71
-7 4 -4 9.1 3.12
-7 4 -5 6.69 2.55
-7 4 -6 13.96 3.71
-7 4 -7 26.97 5.09
-7 4 -8 2.6 2.17
-7 4 -9 60.67 7.57
7 -4 10 5.39 3.7
-7 4 -10 2.43 2.21
7 -4 11 13.53 5.27
-7 4 -11 16.56 4.35
-7 3 11 156.32 12.9
-7 3 10 5.59 2.87
-7 3 9 9.47 3.27
-7 3 8 3.85 2.38
-7 3 7 4.2 2.21
-7 3 6 99.14 9.49
-7 3 5 41.62 6.15
-7 3 4 8.28 2.98
-7 3 3 73.34 7.94
-7 3 2 154.78 11.58
-7 3 1 118.94 10.04
-7 3 0 46.46 6.16
-7 3 -1 0.2 1.43
-7 3 -2 26.79 4.72
-7 3 -3 188.86 12.64
-7 3 -4 73.23 7.8
-7 3 -5 223.86 13.94
-7 3 -6 0.19 1.66
-7 3 -7 14.31 3.54
-7 3 -8 7.14 2.7
7 -3 9 12.93 5.02
-7 3 -9 5.73 2.74
7 -3 10 21.31 6.54
-7 3 -10 25.24 4.94
-7 2 10 30.39 5.65
-7 2 9 0.25 1.4
-7 2 8 191.34 13.69
-7 2 7 169.28 12.63
-7 2 6 197.03 13.49
-7 2 5 91.14 8.95
-7 2 4 90.49 8.81
-7 2 3 72.44 7.83
-7 2 2 31.39 5.13
-7 2 1 6.74 2.52
-7 2 0 93 8.62
-7 2 -1 2.34 1.67
-7 2 -2 18.17 3.93
-7 2 -3 2.1 1.72
-7 2 -4 245.48 14.2
-7 2 -5 193.84 12.44
-7 2 -6 175.49 11.73
-7 2 -7 50.81 6.27
7 -2 8 9.54 4.36
-7 2 -8 0.92 1.68
7 -2 9 2.01 3.57
-7 1 10 137.36 11.88
-7 1 9 8.86 3.12
-7 1 8 27.96 5.23
-7 1 7 29.76 5.32
-7 1 6 1.43 1.86
-7 1 5 123.69 10.58
-7 1 4 129.48 10.64
-7 1 3 17.26 4
-7 1 2 14.7 3.58
-7 1 1 98.32 8.88
-7 1 0 27.08 4.63
-7 1 -1 2.44 1.75
-7 1 -2 16.53 3.59
-7 1 -3 28.96 4.64
-7 1 -4 7.59 2.7
-7 1 -5 140.06 9.98
-7 1 -6 105.17 8.57
7 -1 7 48.73 9.3
-7 0 9 30.25 5.49
-7 0 8 19.68 4.36
-7 0 7 26.81 5.07
-7 0 6 5.98 2.61
-7 0 5 16.29 4.06
-7 0 4 30.26 5.28
-7 0 3 73.55 7.9
-7 0 2 3.15 1.87
-7 0 1 166.77 11.71
-7 0 0 -0.86 1.44
-7 0 -1 -0.02 1.23
-7 0 -2 22.27 4.01
-7 0 -3 110.36 8.81
-7 0 -4 33.31 4.72
7 0 5 86.66 13.04
-7 -1 8 1.82 1.96
7 1 -8 0.8 1.6
-7 -1 7 29.76 5.45
7 1 -7 43.91 7.01
-7 -1 6 0.22 1.79
-7 -1 5 11.3 3.44
-7 -1 4 11.49 3.47
-7 -1 3 117.47 10.13
-7 -1 2 68.65 7.55
-7 -1 1 43.3 5.9
-7 -1 0 -1.79 1.73
-7 -1 -1 0.49 1.58
-7 -1 -2 1.83 1.53
7 1 3 12.7 5.56
7 2 -7 2.55 3.05
-7 -2 6 0.3 1.46
7 2 -6 2.4 2.15
-7 -2 5 15.44 3.92
7 2 -5 10.12 3.56
-7 -2 4 2.54 2.08
7 2 -4 2.42 2.29
7 2 -3 109.86 10.33
-7 -2 3 100.36 9.46
7 2 -2 79.72 8.64
-7 -2 2 68.4 7.58
-7 -2 1 4.35 2.52
7 2 -1 5.29 2.76
-7 -2 0 192.86 12.2
7 2 0 207.6 21.52
7 2 1 0.7 3.37
7 3 -5 57.48 8.2
7 3 -4 147.35 17.34
7 3 -4 150.06 12.88
7 3 -3 23.52 7.07
7 3 -3 34.71 6.22
7 3 -2 100.06 15.07
-8 6 2 62.62 8.39
-8 6 1 3.38 2.59
-8 6 0 1.71 2.3
-8 6 -1 39.57 6.77
-8 6 -2 20.77 5.23
-8 6 -3 1.24 2.46
-8 5 5 15.24 4.44
-8 5 4 33.61 6.08
-8 5 3 -2.44 2.09
-8 5 2 37.52 6.28
-8 5 1 91.37 9.76
-8 5 0 12.47 4.36
-8 5 -1 1.17 1.2
-8 5 -2 6 2.85
-8 5 -3 12.78 3.64
-8 5 -4 64.06 8.19
-8 5 -5 27.18 5.39
-8 5 -6 7.58 3.35
-8 5 -7 1.81 1.88
-8 4 6 37.9 6.53
-8 4 5 0.63 1.98
-8 4 4 17.4 4.56
-8 4 3 48.22 7.08
-8 4 2 13.03 4.3
-8 4 1 2.61 1.69
-8 4 0 39.62 6.28
-8 4 -1 111.24 10.61
-8 4 -2 4.88 2.71
-8 4 -3 3 2.42
-8 4 -4 97.36 9.91
-8 4 -5 10.02 3.22
-8 4 -6 -0.14 1.81
-8 4 -7 19.67 4.74
-8 4 -8 0.06 1.63
-8 4 -9 77.04 9.18
-8 3 6 83.18 9.42
-8 3 5 20.58 4.61
-8 3 4 17.05 4.82
-8 3 3 0.36 1.42
-8 3 2 21.26 4.74
-8 3 1 6.1 2.96
-8 3 0 44.21 6.61
-8 3 -1 2.34 2.12
-8 3 -2 47.26 6.74
-8 3 -3 4.64 2.73
-8 3 -4 4.76 2.62
-8 3 -5 59.31 7.6
-8 3 -6 17.12 4.37
-8 3 -7 -1.67 2.21
-8 3 -8 14.01 4.09
-8 2 6 42.83 6.76
-8 2 5 24.48 5.17
-8 2 4 11.39 3.55
-8 2 3 36.65 6.21
-8 2 2 1.74 1.85
-8 2 1 24.39 4.91
-8 2 0 69.75 8.18
-8 2 -1 143.63 11.74
-8 2 -2 207.35 14.17
-8 2 -3 23.25 4.75
-8 2 -4 3.06 2.26
-8 2 -5 113.96 10.18
-8 2 -6 16.14 4.16
-8 1 5 16.16 4.38
-8 1 4 33.13 5.9
-8 1 3 59.38 7.69
-8 1 2 75.23 8.54
-8 1 1 2.79 2.54
-8 1 0 8.71 3.08
-8 1 -1 1.92 1.87
-8 1 -2 4.47 2.6
-8 1 -3 21.99 4.63
-8 1 -4 60.46 7.19
-8 0 4 44.14 6.74
-8 0 3 30.98 5.51
-8 0 2 110.78 10.37
-8 0 1 7.06 2.93
-8 0 0 17.99 4.32
-8 0 -1 102.35 9.61
-8 0 -2 64.16 7.5
8 1 -4 7.89 3.59
-8 -1 3 1.93 2.24
8 1 -3 0.57 2.12
-8 -1 2 -0.54 1.8
-8 -1 1 40 6.29
loop_
_geom_angle_atom_site_label_1
_geom_angle_atom_site_label_2
_geom_angle_atom_site_label_3
_geom_angle
_geom_angle_site_symmetry_1
_geom_angle_site_symmetry_3
N1 C1 N2 117.86(18) . .
N1 C1 S1 122.11(15) . .
N2 C1 S1 120.00(15) . .
C3 C2 H2 119.2 . .
N3 C2 H2 119.2 . .
N3 C2 C3 121.56(19) . .
C4 C3 C2 119.59(19) . .
C4 C3 C8 117.80(18) . .
C8 C3 C2 122.59(19) . .
C3 C4 H4 119.1 . .
C5 C4 C3 121.89(19) . .
C5 C4 H4 119.1 . .
C4 C5 H5 120.2 . .
C4 C5 C6 119.64(19) . .
C6 C5 H5 120.2 . .
C5 C6 C7 119.47(18) . .
O1 C6 C5 124.70(18) . .
O1 C6 C7 115.83(18) . .
C6 C7 H7 119.8 . .
C8 C7 C6 120.34(19) . .
C8 C7 H7 119.8 . .
C3 C8 H8 119.6 . .
C7 C8 C3 120.82(19) . .
C7 C8 H8 119.6 . .
H9A C9 H9B 108.0 . .
C10 C9 H9A 109.4 . .
C10 C9 H9B 109.4 . .
O1 C9 H9A 109.4 . .
O1 C9 H9B 109.4 . .
O1 C9 C10 111.10(16) . .
O2 C10 C9 118.63(18) . .
O3 C10 C9 115.21(18) . .
O3 C10 O2 126.14(18) . .
C1 N1 H1A 120.0 . .
C1 N1 H1B 120.0 . .
H1A N1 H1B 120.0 . .
C1 N2 H2A 121.3(15) . .
C1 N2 N3 119.21(18) . .
N3 N2 H2A 119.0(16) . .
C2 N3 N2 115.52(17) . .
H4B Na1 H4B 180.000(15) . 2_567
Na1 Na1 H4B 0(10) 2_567 .
Na1 Na1 H4B 0(10) 2_567 2_567
Na1 Na1 Na2 0.0 2_567 1_545
Na1 Na1 O3 0(10) 2_567 2_567
Na1 Na1 O3 0(10) 2_567 .
Na1 Na1 O4 0(10) 2_567 2_567
Na1 Na1 O4 0(10) 2_567 .
Na1 Na1 S1 0(10) 2_567 2_666
Na1 Na1 S1 0(8) 2_567 1_456
Na2 Na1 H4B 132.2(6) 1_545 .
Na2 Na1 H4B 47.8(6) 1_545 2_567
O3 Na1 H4B 110.4(6) 2_567 2_567
O3 Na1 H4B 69.6(6) . 2_567
O3 Na1 H4B 110.4(6) . .
O3 Na1 H4B 69.6(7) 2_567 .
O3 Na1 Na2 102.75(3) . 1_545
O3 Na1 Na2 77.25(3) 2_567 1_545
O3 Na1 O3 180.00(11) 2_567 .
O3 Na1 S1 93.84(3) 2_567 1_456
O3 Na1 S1 93.84(3) . 2_666
O3 Na1 S1 86.16(3) . 1_456
O3 Na1 S1 86.16(3) 2_567 2_666
O4 Na1 H4B 19.3(6) . .
O4 Na1 H4B 160.7(6) . 2_567
O4 Na1 H4B 160.7(6) 2_567 .
O4 Na1 H4B 19.3(6) 2_567 2_567
O4 Na1 Na2 36.43(4) 2_567 1_545
O4 Na1 Na2 143.57(4) . 1_545
O4 Na1 O3 88.82(5) . 2_567
O4 Na1 O3 91.18(5) 2_567 2_567
O4 Na1 O3 88.82(5) 2_567 .
O4 Na1 O3 91.18(5) . .
O4 Na1 O4 180.0 . 2_567
O4 Na1 S1 96.05(4) 2_567 1_456
O4 Na1 S1 83.95(4) 2_567 2_666
O4 Na1 S1 83.95(4) . 1_456
O4 Na1 S1 96.05(4) . 2_666
S1 Na1 H4B 93.4(6) 2_666 .
S1 Na1 H4B 86.6(6) 2_666 2_567
S1 Na1 H4B 86.6(6) 1_456 .
S1 Na1 H4B 93.4(6) 1_456 2_567
S1 Na1 Na2 50.107(11) 2_666 1_545
S1 Na1 Na2 129.893(11) 1_456 1_545
S1 Na1 S1 180.0 1_456 2_666
O4 Na2 O4 180.0 2_577 .
O4 Na2 O5 91.39(6) 2_577 2_577
O4 Na2 O5 88.61(6) 2_577 .
O4 Na2 O5 91.39(6) . .
O4 Na2 O5 88.61(6) . 2_577
O4 Na2 S1 85.69(4) 2_577 2_676
O4 Na2 S1 94.31(4) 2_577 1_456
O4 Na2 S1 94.31(4) . 2_676
O4 Na2 S1 85.69(4) . 1_456
O5 Na2 O5 180.0 . 2_577
O5 Na2 S1 92.16(4) . 2_676
O5 Na2 S1 87.84(4) 2_577 2_676
O5 Na2 S1 87.84(4) . 1_456
O5 Na2 S1 92.16(4) 2_577 1_456
S1 Na2 S1 180.0 2_676 1_456
C6 O1 C9 116.74(15) . .
C10 O3 Na1 126.51(13) . 2_567
C10 O3 Na1 126.51(13) . .
Na1 O3 Na1 0.0 2_567 .
H4A O4 H4B 105(2) . .
Na1 O4 H4A 113.3(16) 2_567 .
Na1 O4 H4A 113.3(16) . .
Na1 O4 H4B 94.9(19) . .
Na1 O4 H4B 94.9(19) 2_567 .
Na1 O4 Na1 0.0 2_567 .
Na2 O4 H4A 120.3(16) . .
Na2 O4 H4B 113.8(17) . .
Na2 O4 Na1 106.79(6) . .
Na2 O4 Na1 106.79(6) . 2_567
H5A O5 H5B 103(3) . .
Na2 O5 H5A 100.9(18) . .
Na2 O5 H5B 104.2(19) . .
loop_
_geom_bond_atom_site_label_1
_geom_bond_atom_site_label_2
_geom_bond_distance
_geom_bond_site_symmetry_2
C1 N1 1.327(3) .
C1 N2 1.343(3) .
C1 S1 1.7049(19) .
C2 H2 0.9300 .
C2 C3 1.459(3) .
C2 N3 1.282(3) .
C3 C4 1.395(3) .
C3 C8 1.406(3) .
C4 H4 0.9300 .
C4 C5 1.384(3) .
C5 H5 0.9300 .
C5 C6 1.387(3) .
C6 C7 1.404(3) .
C6 O1 1.366(2) .
C7 H7 0.9300 .
C7 C8 1.378(3) .
C8 H8 0.9300 .
C9 H9A 0.9700 .
C9 H9B 0.9700 .
C9 C10 1.522(3) .
C9 O1 1.429(2) .
C10 O2 1.263(2) .
C10 O3 1.249(2) .
N1 H1A 0.8600 .
N1 H1B 0.8600 .
N2 H2A 0.83(2) .
N2 N3 1.383(2) .
Na1 H4B 2.58(3) .
Na1 Na1 0.0000 2_567
Na1 Na2 3.7828(3) 1_545
Na1 O3 2.4005(13) .
Na1 O3 2.4005(13) 2_567
Na1 O4 2.3654(15) .
Na1 O4 2.3654(15) 2_567
Na1 S1 3.0269(6) 1_456
Na1 S1 3.0269(6) 2_666
Na2 O4 2.3467(14) 2_577
Na2 O4 2.3467(14) .
Na2 O5 2.3936(15) 2_577
Na2 O5 2.3936(15) .
Na2 S1 2.9639(6) 1_456
Na2 S1 2.9639(6) 2_676
O4 H4A 0.87(3) .
O4 H4B 0.86(3) .
O5 H5A 0.86(3) .
O5 H5B 0.77(3) .
loop_
_geom_torsion_atom_site_label_1
_geom_torsion_atom_site_label_2
_geom_torsion_atom_site_label_3
_geom_torsion_atom_site_label_4
_geom_torsion
_geom_torsion_site_symmetry_1
_geom_torsion_site_symmetry_2
_geom_torsion_site_symmetry_3
_geom_torsion_site_symmetry_4
C1 N2 N3 C2 -173.49(17) . . . .
C2 C3 C4 C5 179.46(16) . . . .
C2 C3 C8 C7 179.65(17) . . . .
C3 C2 N3 N2 -179.25(15) . . . .
C3 C4 C5 C6 0.7(3) . . . .
C4 C3 C8 C7 1.0(3) . . . .
C4 C5 C6 C7 1.3(3) . . . .
C4 C5 C6 O1 -178.77(16) . . . .
C5 C6 C7 C8 -2.1(3) . . . .
C5 C6 O1 C9 0.3(3) . . . .
C6 C7 C8 C3 1.0(3) . . . .
C7 C6 O1 C9 -179.75(15) . . . .
C8 C3 C4 C5 -1.8(3) . . . .
C9 C10 O3 Na1 -171.91(11) . . . 2_567
C9 C10 O3 Na1 -171.91(11) . . . .
C10 C9 O1 C6 174.07(14) . . . .
N1 C1 N2 N3 -5.2(3) . . . .
N3 C2 C3 C4 -174.78(17) . . . .
N3 C2 C3 C8 6.6(3) . . . .
O1 C6 C7 C8 177.94(15) . . . .
O1 C9 C10 O2 -7.1(2) . . . .
O1 C9 C10 O3 174.02(15) . . . .
O2 C10 O3 Na1 9.4(3) . . . .
O2 C10 O3 Na1 9.4(3) . . . 2_567
S1 C1 N2 N3 176.83(13) . . . .
