#------------------------------------------------------------------------------
#$Date: 2022-05-03 11:05:03 +0300 (Tue, 03 May 2022) $
#$Revision: 274836 $
#$URL: file:///home/coder/svn-repositories/cod/cif/8/10/51/8105106.cif $
#------------------------------------------------------------------------------
#
# This file is available in the Crystallography Open Database (COD),
# http://www.crystallography.net/
#
# All data on this site have been placed in the public domain by the
# contributors.
#
data_8105106
loop_
_publ_author_name
'Huang, Junjie'
'Lu, Yang'
'Lu, Hui'
'Sun, Jianhua'
_publ_section_title
;
 Crystal structure of bis(hydroxydi(pyridin-2-yl)methanolato-\k3
 N,N&#x2032;O)cobalt(III) 7,7,8,8-tetracyanoquinodimethane, C34H22CoN8O4
;
_journal_issue                   2
_journal_name_full
'Zeitschrift f\"ur Kristallographie - New Crystal Structures'
_journal_page_first              357
_journal_page_last               358
_journal_paper_doi               10.1515/ncrs-2019-0668
_journal_volume                  235
_journal_year                    2020
_chemical_formula_moiety         'C22 H18 Co N4 O4, C12 H4 N4 '
_chemical_formula_sum            'C34 H22 Co N8 O4'
_chemical_formula_weight         665.52
_space_group_crystal_system      triclinic
_space_group_IT_number           2
_space_group_name_Hall           '-P 1'
_space_group_name_H-M_alt        'P -1'
_atom_sites_solution_hydrogens   geom
_audit_creation_method           SHELXL-2014
_cell_angle_alpha                104.743(2)
_cell_angle_beta                 94.606(2)
_cell_angle_gamma                90.934(2)
_cell_formula_units_Z            1
_cell_length_a                   6.8423(10)
_cell_length_b                   8.8919(13)
_cell_length_c                   12.6319(18)
_cell_measurement_reflns_used    4580
_cell_measurement_temperature    296(2)
_cell_measurement_theta_max      28.20
_cell_measurement_theta_min      2.37
_cell_volume                     740.30(19)
_computing_cell_refinement       'Bruker SAINT'
_computing_data_collection       'Bruker APEX2'
_computing_data_reduction        'Bruker SAINT'
_computing_molecular_graphics    'Bruker SHELXTL'
_computing_publication_material  'Bruker SHELXTL'
_computing_structure_refinement  'SHELXL-2014 (Sheldrick, 2014)'
_computing_structure_solution    'SHELXL-2014 (Sheldrick, 2014)'
_diffrn_ambient_temperature      296(2)
_diffrn_measured_fraction_theta_full 0.988
_diffrn_measured_fraction_theta_max 0.988
_diffrn_measurement_device_type  'Bruker APEX-II CCD'
_diffrn_measurement_method       '\f and \w scans'
_diffrn_radiation_type           MoK\a
_diffrn_radiation_wavelength     0.71073
_diffrn_reflns_av_R_equivalents  0.0217
_diffrn_reflns_av_unetI/netI     0.0274
_diffrn_reflns_Laue_measured_fraction_full 0.988
_diffrn_reflns_Laue_measured_fraction_max 0.988
_diffrn_reflns_limit_h_max       8
_diffrn_reflns_limit_h_min       -8
_diffrn_reflns_limit_k_max       10
_diffrn_reflns_limit_k_min       -10
_diffrn_reflns_limit_l_max       15
_diffrn_reflns_limit_l_min       -15
_diffrn_reflns_number            6587
_diffrn_reflns_point_group_measured_fraction_full 0.988
_diffrn_reflns_point_group_measured_fraction_max 0.988
_diffrn_reflns_theta_full        25.242
_diffrn_reflns_theta_max         25.489
_diffrn_reflns_theta_min         1.673
_diffrn_source                   'fine-focus sealed tube'
_exptl_absorpt_coefficient_mu    0.635
_exptl_absorpt_correction_T_max  0.944
_exptl_absorpt_correction_T_min  0.921
_exptl_absorpt_correction_type   multi-scan
_exptl_absorpt_process_details   SADABS
_exptl_crystal_colour            pink
_exptl_crystal_density_diffrn    1.493
_exptl_crystal_description       block
_exptl_crystal_F_000             341
_exptl_crystal_size_max          0.130
_exptl_crystal_size_mid          0.120
_exptl_crystal_size_min          0.090
_refine_diff_density_max         0.529
_refine_diff_density_min         -0.347
_refine_diff_density_rms         0.097
_refine_ls_extinction_coef       .
_refine_ls_extinction_method     none
_refine_ls_goodness_of_fit_ref   1.076
_refine_ls_hydrogen_treatment    constr
_refine_ls_matrix_type           full
_refine_ls_number_parameters     215
_refine_ls_number_reflns         2720
_refine_ls_number_restraints     0
_refine_ls_restrained_S_all      1.076
_refine_ls_R_factor_all          0.0424
_refine_ls_R_factor_gt           0.0369
_refine_ls_shift/su_max          0.000
_refine_ls_shift/su_mean         0.000
_refine_ls_structure_factor_coef Fsqd
_refine_ls_weighting_details
'w=1/[\s^2^(Fo^2^)+(0.0720P)^2^+0.4195P] where P=(Fo^2^+2Fc^2^)/3'
_refine_ls_weighting_scheme      calc
_refine_ls_wR_factor_gt          0.1023
_refine_ls_wR_factor_ref         0.1179
_reflns_Friedel_coverage         0.000
_reflns_Friedel_fraction_full    .
_reflns_Friedel_fraction_max     .
_reflns_number_gt                2505
_reflns_number_total             2720
_reflns_threshold_expression     'I > 2\s(I)'
_cod_data_source_file            suppl_ncrs-2019-0668_suppl.cif
_cod_data_source_block           mo_20151222D_0m
_cod_database_code               8105106
_shelx_space_group_comment
;
The symmetry employed for this shelxl refinement is uniquely defined
by the following loop, which should always be used as a source of
symmetry information in preference to the above space-group names.
They are only intended as comments.
;
_shelx_estimated_absorpt_t_min   0.922
_shelx_estimated_absorpt_t_max   0.945
_shelxl_version_number           2014-3
_shelx_res_file
;
TITL mo_20151222D_0m in P-1
CELL  0.71073    6.8423    8.8919   12.6319   104.743    94.606    90.934
ZERR 1           0.0010    0.0013    0.0018     0.002     0.002     0.002
LATT 1
SFAC C  H  Co N  O
UNIT 34 22 1 8 4
OMIT   0.00  51.00
L.S. 15
ACTA
BOND $H
FMAP 2
PLAN 5
size 0.09 0.12 0.13
htab O2 O1_$1
eqiv $1 -x+2, -y, -z+1
TEMP    23
WGHT    0.072000    0.419500
FVAR       0.18516
C1    1    0.062804    0.590889    0.166691    11.00000    0.03239    0.07774 =
         0.03954    0.01743    0.00189    0.00039
C2    1    0.144614    0.464639    0.093364    11.00000    0.03039    0.05914 =
         0.03698    0.01347   -0.00044   -0.00028
C3    1    0.035939    0.321302    0.069068    11.00000    0.03736    0.06640 =
         0.04639    0.02601    0.00458   -0.00078
C4    1    0.321873    0.480840    0.046530    11.00000    0.03017    0.04464 =
         0.03191    0.01119   -0.00385    0.00094
C5    1    0.429468    0.625787    0.073881    11.00000    0.03541    0.04118 =
         0.03795    0.00293    0.00146    0.00390
AFIX  43
H5    2    0.382119    0.710258    0.123670    11.00000   -1.20000
AFIX   0
C6    1    0.400609    0.355962   -0.029227    11.00000    0.03478    0.04137 =
         0.04024    0.01007   -0.00156   -0.00164
AFIX  43
H6    2    0.334569    0.259327   -0.048851    11.00000   -1.20000
AFIX   0
C7    1    0.418805    0.313296    0.633766    11.00000    0.03845    0.03756 =
         0.03240    0.00864    0.00432    0.00716
AFIX  43
H7    2    0.305978    0.272367    0.654123    11.00000   -1.20000
AFIX   0
C8    1    0.469970    0.469631    0.674995    11.00000    0.06425    0.03500 =
         0.04058    0.00669    0.00506    0.01152
AFIX  43
H8    2    0.393180    0.533949    0.723747    11.00000   -1.20000
AFIX   0
C9    1    0.635835    0.528728    0.642970    11.00000    0.06777    0.02664 =
         0.04731    0.00407   -0.00860   -0.00249
AFIX  43
H9    2    0.670823    0.633872    0.669912    11.00000   -1.20000
AFIX   0
C10   1    0.750486    0.433775    0.571458    11.00000    0.04105    0.03935 =
         0.04586    0.01632   -0.00804   -0.01210
AFIX  43
H10   2    0.862335    0.473431    0.549236    11.00000   -1.20000
AFIX   0
C11   1    0.694769    0.276803    0.533213    11.00000    0.02787    0.03315 =
         0.03331    0.01423   -0.00527   -0.00182
C12   1    0.793412    0.146353    0.453907    11.00000    0.02230    0.03523 =
         0.04289    0.01868    0.00526    0.00118
C13   1    0.663252    0.111992    0.346096    11.00000    0.03081    0.02829 =
         0.03656    0.01227    0.01050    0.00770
C14   1    0.701727    0.142280    0.248157    11.00000    0.04540    0.03960 =
         0.04115    0.01534    0.01489    0.00414
AFIX  43
H14   2    0.822222    0.185989    0.240013    11.00000   -1.20000
AFIX   0
C15   1    0.554905    0.105600    0.161301    11.00000    0.06599    0.04825 =
         0.03193    0.01574    0.01102    0.00495
AFIX  43
H15   2    0.576621    0.125107    0.094197    11.00000   -1.20000
AFIX   0
C16   1    0.378228    0.040610    0.175175    11.00000    0.06040    0.04032 =
         0.03082    0.00679   -0.00654    0.00369
AFIX  43
H16   2    0.278761    0.018171    0.118193    11.00000   -1.20000
AFIX   0
C17   1    0.349470    0.008746    0.274895    11.00000    0.03778    0.02775 =
         0.03432    0.00492   -0.00215    0.00044
AFIX  43
H17   2    0.231091   -0.037039    0.284251    11.00000   -1.20000
AFIX   0
CO1   3    0.500000    0.000000    0.500000    10.50000    0.02000    0.02655 =
         0.02878    0.00977    0.00363    0.00159
N1    4   -0.002070    0.694546    0.226669    11.00000    0.05166    0.08949 =
         0.05255    0.00550    0.01345    0.01226
N2    4   -0.051895    0.204295    0.048091    11.00000    0.05944    0.07335 =
         0.07444    0.03018    0.01108   -0.01515
N3    4    0.531363    0.220329    0.564453    11.00000    0.02729    0.02895 =
         0.02909    0.00988    0.00026    0.00081
N4    4    0.491736    0.043672    0.358080    11.00000    0.02699    0.02622 =
         0.03111    0.00790    0.00314    0.00319
O1    5    0.773301    0.014198    0.494087    11.00000    0.02200    0.03385 =
         0.04179    0.01866    0.00523    0.00318
O2    5    0.985015    0.186484    0.442042    11.00000    0.02312    0.05319 =
         0.06949    0.03613    0.00848    0.00156
AFIX 147
H2    2    1.059111    0.125582    0.462072    11.00000   -1.50000
AFIX   0
HKLF 4

REM  mo_20151222D_0m in P-1
REM R1 =  0.0369 for    2505 Fo > 4sig(Fo)  and  0.0424 for all    2720 data
REM    215 parameters refined using      0 restraints

END

WGHT      0.0697      0.3357

REM Highest difference peak  0.529,  deepest hole -0.347,  1-sigma level  0.097
Q1    1   0.4260  0.1007  0.4959  11.00000  0.05    0.53
Q2    1   0.4898  0.0987  0.4791  11.00000  0.05    0.49
Q3    1   0.9290  0.2593  0.4141  11.00000  0.05    0.44
Q4    1   0.1226  0.3851  0.1062  11.00000  0.05    0.38
Q5    1   0.2317  0.4541  0.0729  11.00000  0.05    0.36
;
_shelx_hkl_file
;
  -1   0   0  146.79    3.93
  -1   0   0  146.03    4.37
  -1   0   0  149.87    3.98
  -1   0   0  149.18    4.53
  -2   0   0   98.48    2.46
  -2   0   0  102.11    2.85
  -2   0   0   99.87    2.67
  -2   0   0   97.51    3.05
  -3   0   0    2.34    0.08
  -4   0   0   37.47    1.17
  -4   0   0   37.41    1.03
  -4   0   0   37.62    0.95
  -5   0   0    0.89    0.07
  -5   0   0    1.08    0.09
  -5   0   0    1.01    0.07
  -5   0   0    0.98    0.08
  -6   0   0    9.60    0.35
  -6   0   0    9.72    0.31
  -6   0   0    9.31    0.28
  -6   0   0    9.51    0.30
  -7   0   0    3.12    0.19
  -7   0   0    3.45    0.14
  -7   0   0    3.17    0.16
  -8   0   0    1.16    0.10
  -8   0   0    1.28    0.13
  -8   0   0    1.03    0.10
  -9   0   0    0.12    0.09
  -9   1   0    0.13    0.10
  -8   1   0    5.95    0.27
  -8   1   0    5.88    0.23
  -7   1   0   20.03    0.68
  -7   1   0   19.72    0.59
  -6   1   0   11.05    0.35
  -6   1   0   11.31    0.32
  -6   1   0   11.40    0.40
  -5   1   0   12.78    0.44
  -5   1   0   12.94    0.39
  -5   1   0   12.91    0.36
  -5   1   0   13.18    0.39
  -4   1   0   18.73    0.52
  -4   1   0   17.84    0.48
  -4   1   0   18.27    0.59
  -3   1   0   10.99    0.36
  -3   1   0   10.80    0.32
  -2   1   0    1.51    0.07
  -2   1   0    1.42    0.06
  -2   1   0    1.46    0.06
  -1   1   0  168.47    4.49
  -1   1   0  164.03    4.94
  -1   1   0  167.97    5.11
   0  -1   0   27.49    0.85
  -1  -1   0    1.69    0.07
  -2  -1   0    6.66    0.23
  -3  -1   0   25.42    0.65
  -3  -1   0   25.99    0.81
  -4  -1   0   40.80    1.04
  -4  -1   0   41.10    1.28
  -4  -1   0   40.87    1.17
  -4  -1   0   41.04    1.13
  -5  -1   0    0.03    0.03
  -5  -1   0    0.00    0.05
  -5  -1   0    0.07    0.03
  -5  -1   0    0.12    0.04
  -6  -1   0    4.79    0.18
  -6  -1   0    4.66    0.17
  -6  -1   0    4.97    0.18
  -6  -1   0    4.35    0.21
  -7  -1   0    2.38    0.17
  -7  -1   0    2.89    0.13
  -7  -1   0    2.51    0.14
  -8  -1   0    0.90    0.12
  -8  -1   0    1.00    0.10
  -8  -1   0    1.10    0.09
  -8   2   0    3.60    0.21
  -7   2   0   17.74    0.60
  -7   2   0   16.99    0.52
  -6   2   0    1.57    0.10
  -6   2   0    1.62    0.13
  -5   2   0   10.43    0.37
  -5   2   0   10.78    0.32
  -5   2   0   10.92    0.33
  -4   2   0    1.23    0.10
  -4   2   0    1.41    0.07
  -4   2   0    1.32    0.08
  -3   2   0   58.83    1.58
  -3   2   0   57.67    1.80
  -3   2   0   58.14    1.63
  -2   2   0    0.22    0.04
  -2   2   0    0.23    0.02
  -2   2   0    0.21    0.02
  -1   2   0  361.31   10.61
  -1   2   0  358.63    9.70
  -1   2   0  364.44   11.03
   0  -2   0   84.06    2.51
   0   2   0   80.24    2.30
  -1  -2   0   32.53    1.01
  -2  -2   0   21.68    0.68
  -3  -2   0   22.64    0.70
   3   2   0   21.59    0.67
  -4  -2   0    0.27    0.05
  -4  -2   0    0.26    0.04
  -4  -2   0    0.33    0.04
   4   2   0    0.23    0.04
  -5  -2   0    8.42    0.26
  -5  -2   0    8.77    0.29
  -5  -2   0    9.00    0.32
  -5  -2   0    9.06    0.28
   5   2   0    8.54    0.29
  -6  -2   0    5.86    0.24
  -6  -2   0    5.85    0.19
  -6  -2   0    5.70    0.21
  -6  -2   0    5.64    0.21
  -7  -2   0    4.35    0.17
  -7  -2   0    4.35    0.18
  -7  -2   0    4.54    0.21
  -8  -2   0    3.81    0.17
  -8  -2   0    3.88    0.21
  -8  -2   0    3.87    0.18
  -8   3   0    2.77    0.19
  -7   3   0    1.67    0.15
  -7   3   0    1.56    0.11
  -6   3   0    0.29    0.05
  -6   3   0    0.22    0.07
  -5   3   0    2.74    0.12
  -5   3   0    2.97    0.15
  -4   3   0    5.96    0.23
  -4   3   0    6.07    0.20
  -3   3   0    1.63    0.08
  -3   3   0    1.44    0.09
  -3   3   0    1.56    0.07
  -2   3   0   13.25    0.40
  -2   3   0   11.97    0.35
  -2   3   0   10.90    0.34
  -1   3   0   47.49    1.53
  -1   3   0   51.69    1.39
   0   3   0    5.81    0.20
  -1  -3   0   28.04    0.88
  -2  -3   0   21.21    0.67
  -3  -3   0   19.67    0.64
  -4  -3   0    3.33    0.16
  -5  -3   0    0.12    0.04
  -5  -3   0    0.24    0.06
  -5  -3   0    0.12    0.04
  -6  -3   0    0.78    0.07
  -6  -3   0    0.67    0.07
  -6  -3   0    0.64    0.09
  -6  -3   0    0.60    0.07
  -7  -3   0    5.22    0.20
  -7  -3   0    5.16    0.21
  -7  -3   0    5.22    0.24
  -7  -3   0    5.54    0.22
  -8  -3   0    1.25    0.11
  -8  -3   0    1.53    0.11
  -8  -3   0    1.65    0.16
  -8   4   0    5.56    0.27
  -7   4   0    3.43    0.20
  -7   4   0    3.63    0.16
  -6   4   0   15.82    0.48
  -6   4   0   16.31    0.56
  -5   4   0    0.78    0.07
  -5   4   0    0.86    0.09
  -4   4   0   11.03    0.39
  -4   4   0   11.25    0.33
  -4   4   0   11.19    0.34
  -3   4   0    0.56    0.06
  -3   4   0    0.67    0.05
  -2   4   0    5.70    0.22
  -2   4   0    6.81    0.20
   0  -4   0   43.87    1.36
   0   4   0   43.37    1.35
  -1  -4   0   32.01    1.00
  -2  -4   0    2.75    0.13
  -3  -4   0   24.00    0.77
  -4  -4   0    6.28    0.25
  -5  -4   0   26.72    0.86
  -5  -4   0   26.23    0.79
  -6  -4   0    2.37    0.13
  -6  -4   0    2.08    0.11
  -6  -4   0    2.32    0.15
  -7  -4   0    4.00    0.19
  -7  -4   0    3.83    0.17
  -7  -4   0    3.97    0.21
  -7  -4   0    4.13    0.18
  -8  -4   0    1.57    0.16
  -8  -4   0    1.27    0.11
  -8  -4   0    1.40    0.11
  -8   5   0    1.50    0.15
  -7   5   0    2.09    0.13
  -7   5   0    1.97    0.16
  -6   5   0    0.24    0.08
  -6   5   0    0.28    0.05
  -5   5   0    5.78    0.20
  -5   5   0    5.14    0.23
  -4   5   0   12.12    0.36
  -4   5   0   11.52    0.42
  -4   5   0   12.14    0.36
  -3   5   0    9.32    0.30
  -3   5   0   10.10    0.34
  -3   5   0    9.53    0.30
  -2   5   0    3.89    0.14
  -2   5   0    3.69    0.17
   1  -5   0    0.19    0.05
   0  -5   0   11.02    0.37
   0   5   0   10.38    0.36
  -1  -5   0    5.59    0.21
  -2  -5   0   17.30    0.57
  -3  -5   0   14.06    0.48
  -4  -5   0   11.85    0.42
  -5  -5   0    0.13    0.07
  -6  -5   0    0.57    0.07
  -6  -5   0    0.42    0.06
  -6  -5   0    0.46    0.09
  -7  -5   0    5.92    0.24
  -7  -5   0    5.97    0.22
  -7  -5   0    6.03    0.28
  -8  -5   0    3.16    0.16
  -8  -5   0    3.29    0.18
  -7   6   0    1.79    0.16
  -6   6   0    3.21    0.15
  -6   6   0    3.25    0.19
  -5   6   0    1.37    0.10
  -5   6   0    1.45    0.13
  -4   6   0    8.03    0.31
  -4   6   0    8.17    0.27
  -3   6   0    6.79    0.27
  -3   6   0    6.70    0.22
  -3   6   0    6.78    0.23
  -2   6   0    0.32    0.04
   0  -6   0   29.53    0.95
   0   6   0   29.75    0.95
  -1  -6   0    5.93    0.24
  -2  -6   0   10.29    0.37
  -3  -6   0    0.27    0.07
  -4  -6   0    0.93    0.10
  -5  -6   0    0.74    0.10
  -6  -6   0    2.42    0.15
  -6  -6   0    2.41    0.17
  -7  -6   0    0.48    0.08
  -7  -6   0    0.50    0.08
  -7  -6   0    0.48    0.10
  -7   7   0    0.31    0.10
  -6   7   0    0.18    0.06
  -6   7   0    0.15    0.09
  -5   7   0    2.36    0.13
  -5   7   0    2.18    0.16
  -4   7   0    3.46    0.18
  -3   7   0    1.45    0.13
   2  -7   0   12.26    0.43
  -2   7   0   11.69    0.42
   1  -7   0    0.95    0.10
  -1   7   0    0.98    0.10
   0  -7   0    7.22    0.28
   0   7   0    7.14    0.28
  -1  -7   0    6.68    0.27
  -2  -7   0    1.11    0.10
  -3  -7   0    8.01    0.31
  -4  -7   0    3.84    0.20
  -5  -7   0    0.38    0.09
  -6  -7   0    1.74    0.13
  -6  -7   0    1.55    0.14
  -6   8   0    0.47    0.08
  -6   8   0    0.50    0.11
  -5   8   0    2.06    0.16
  -4   8   0    0.11    0.08
  -3   8   0    0.28    0.08
   2  -8   0    0.06    0.07
  -2   8   0    0.01    0.07
   1  -8   0   20.51    0.69
  -1   8   0   20.32    0.69
   0  -8   0    4.41    0.21
   0   8   0    4.44    0.21
  -1  -8   0    2.21    0.15
  -2  -8   0   -0.06    0.06
  -3  -8   0    4.01    0.21
  -4  -8   0    0.37    0.09
  -5  -8   0    1.75    0.16
  -6  -8   0    1.21    0.12
  -6  -8   0    1.17    0.14
  -5   9   0    1.37    0.14
  -4   9   0    2.25    0.17
   3  -9   0    0.14    0.09
  -3   9   0    0.21    0.09
   2  -9   0    0.26    0.09
  -2   9   0    0.49    0.09
   1  -9   0    1.81    0.16
  -1   9   0    1.83    0.15
   0  -9   0    4.20    0.21
   0   9   0    3.86    0.21
  -1  -9   0    3.17    0.19
  -2  -9   0    2.47    0.17
  -3  -9   0    3.86    0.21
  -4  -9   0    0.16    0.09
  -5  -9   0   -0.01    0.09
   4 -10   0    1.07    0.14
  -4  10   0    1.21    0.14
   3 -10   0   -0.03    0.09
  -3  10   0   -0.05    0.08
   2 -10   0    1.58    0.16
  -2  10   0    1.32    0.13
   1 -10   0    1.71    0.16
  -1  10   0    1.35    0.14
   0 -10   0    0.94    0.12
   0  10   0    1.10    0.13
  -1 -10   0    0.08    0.08
  -2 -10   0    1.34    0.14
  -3 -10   0    0.30    0.10
  -4 -10   0    0.24    0.10
   2 -11   0    0.01    0.10
  -2  11   0    0.09    0.09
   1 -11   0    0.16    0.10
  -1  11   0    0.16    0.09
   0 -11   0    0.64    0.12
  -1 -11   0    0.82    0.12
  -2 -11   0    0.31    0.11
  -2 -11   1    0.79    0.12
  -1 -11   1    0.25    0.10
   0  11  -1    0.00    0.09
   0 -11   1    0.05    0.10
  -1  11  -1    0.03    0.09
   1 -11   1   -0.03    0.09
  -2  11  -1    0.16    0.09
   2 -11   1    0.15    0.10
  -3  11  -1    0.05    0.09
   3 -11   1    0.12    0.10
  -4 -10   1    0.04    0.09
  -3 -10   1    0.26    0.10
  -2 -10   1    0.42    0.10
  -1 -10   1    0.37    0.09
   0  10  -1    0.77    0.11
   0 -10   1    0.67    0.11
  -1  10  -1    1.22    0.13
   1 -10   1    1.12    0.13
  -2  10  -1    1.29    0.13
   2 -10   1    1.33    0.14
  -3  10  -1    0.72    0.11
   3 -10   1    0.66    0.12
  -4  10  -1    1.92    0.17
   4 -10   1    1.95    0.18
  -5  -9   1    0.47    0.11
  -4  -9   1    0.93    0.12
  -3  -9   1    2.35    0.17
  -2  -9   1    1.46    0.14
  -1  -9   1    0.42    0.09
   0   9  -1    0.29    0.08
   0  -9   1    0.26    0.08
  -1   9  -1    6.49    0.28
   1  -9   1    6.62    0.29
  -2   9  -1    2.74    0.17
   2  -9   1    2.95    0.19
  -3   9  -1    4.24    0.22
   3  -9   1    4.33    0.23
  -4   9  -1    3.35    0.20
  -5   9  -1    0.35    0.10
  -6   9  -1    0.03    0.09
  -6  -8   1    1.57    0.15
  -6  -8   1    1.92    0.14
  -5  -8   1    0.34    0.09
  -4  -8   1    0.65    0.10
  -3  -8   1    3.76    0.20
  -2  -8   1    0.46    0.08
  -1  -8   1    0.90    0.10
   0   8  -1    0.96    0.10
   0  -8   1    0.97    0.10
  -1   8  -1    0.49    0.08
   1  -8   1    0.43    0.09
  -2   8  -1   -0.10    0.06
   2  -8   1   -0.12    0.07
  -3   8  -1    0.24    0.07
  -4   8  -1    0.28    0.08
  -5   8  -1    1.81    0.16
  -6   8  -1    0.46    0.11
  -7  -7   1    0.30    0.08
  -7  -7   1    0.34    0.07
  -6  -7   1   -0.07    0.08
  -6  -7   1   -0.04    0.05
  -5  -7   1   -0.03    0.07
  -5  -7   1    0.07    0.05
  -4  -7   1    1.25    0.11
  -3  -7   1    2.72    0.16
  -2  -7   1    0.10    0.06
   1   7  -1    1.91    0.13
  -1  -7   1    2.08    0.13
   0   7  -1   11.98    0.42
   0  -7   1   11.73    0.42
  -1   7  -1   11.08    0.40
   1  -7   1   11.18    0.40
  -2   7  -1    0.44    0.07
  -3   7  -1    1.11    0.10
  -4   7  -1    4.43    0.21
  -5   7  -1    1.09    0.09
  -5   7  -1    1.04    0.11
  -6   7  -1    0.09    0.08
  -7   7  -1    0.52    0.11
  -7  -6   1    3.07    0.16
  -7  -6   1    3.49    0.18
  -6  -6   1    1.00    0.11
  -6  -6   1    1.07    0.09
  -6  -6   1    1.20    0.11
  -5  -6   1    0.35    0.06
  -5  -6   1    0.32    0.08
  -4  -6   1   -0.07    0.06
  -3  -6   1    3.31    0.17
  -2  -6   1    0.38    0.06
   1   6  -1    6.77    0.25
  -1  -6   1    6.86    0.26
   0   6  -1    6.34    0.24
   0  -6   1    6.26    0.24
  -1   6  -1    0.54    0.07
   1  -6   1    0.43    0.07
  -2   6  -1    0.01    0.02
  -3   6  -1   10.00    0.36
  -4   6  -1    8.85    0.28
  -4   6  -1    8.91    0.33
  -5   6  -1    5.03    0.23
  -5   6  -1    5.03    0.19
  -6   6  -1    0.47    0.06
  -6   6  -1    0.40    0.09
  -7   6  -1    0.46    0.11
  -8  -5   1    2.87    0.16
  -8  -5   1    2.86    0.17
  -7  -5   1    1.45    0.15
  -7  -5   1    1.55    0.12
  -7  -5   1    1.30    0.12
  -7  -5   1    1.50    0.11
  -6  -5   1    0.72    0.09
  -6  -5   1    0.68    0.08
  -6  -5   1    0.64    0.07
  -5  -5   1    2.80    0.15
  -5  -5   1    3.13    0.17
  -4  -5   1   30.53    0.98
  -3  -5   1   20.72    0.68
  -2  -5   1    9.26    0.32
   1   5  -1    0.81    0.07
  -1  -5   1    0.85    0.08
   0   5  -1   18.55    0.61
   0  -5   1   19.32    0.61
  -1   5  -1    0.14    0.04
  -2   5  -1   -0.02    0.02
  -3   5  -1    0.82    0.06
  -3   5  -1    0.69    0.07
  -3   5  -1    0.78    0.06
  -4   5  -1   25.89    0.72
  -4   5  -1   25.17    0.83
  -5   5  -1    2.62    0.12
  -5   5  -1    2.32    0.15
  -6   5  -1    7.53    0.31
  -6   5  -1    7.97    0.26
  -7   5  -1    0.80    0.11
  -8   5  -1    0.58    0.12
  -8  -4   1    2.36    0.15
  -8  -4   1    2.32    0.14
  -7  -4   1    0.43    0.07
  -7  -4   1    0.45    0.07
  -7  -4   1    0.36    0.09
  -7  -4   1    0.28    0.07
  -6  -4   1    2.96    0.15
  -6  -4   1    2.94    0.17
  -6  -4   1    2.72    0.13
  -5  -4   1    0.29    0.05
  -5  -4   1    0.28    0.06
  -5  -4   1    0.28    0.07
  -4  -4   1   15.72    0.49
  -4  -4   1   16.14    0.53
  -3  -4   1    2.61    0.13
  -2  -4   1   49.88    1.55
   1   4  -1   67.18    1.99
   1   4  -1   64.53    2.04
  -1  -4   1   67.60    2.05
   0   4  -1   51.00    1.60
   0   4  -1   51.23    1.56
   0  -4   1   53.04    1.60
  -1   4  -1    0.01    0.03
  -2   4  -1    1.43    0.06
  -2   4  -1    1.52    0.07
  -2   4  -1    1.54    0.09
  -3   4  -1    7.33    0.22
  -3   4  -1    7.38    0.27
  -3   4  -1    7.24    0.22
  -4   4  -1    4.34    0.14
  -4   4  -1    4.09    0.19
  -4   4  -1    4.40    0.15
  -5   4  -1    2.35    0.11
  -5   4  -1    2.19    0.14
  -6   4  -1    0.10    0.04
  -6   4  -1    0.10    0.07
  -7   4  -1    0.21    0.09
  -8   4  -1    0.52    0.11
  -8  -3   1    0.73    0.09
  -8  -3   1    0.63    0.08
  -7  -3   1   10.47    0.36
  -7  -3   1   11.13    0.40
  -7  -3   1   10.99    0.37
  -7  -3   1   10.55    0.33
  -6  -3   1    1.20    0.11
  -6  -3   1    1.52    0.11
  -6  -3   1    1.35    0.09
  -6  -3   1    1.35    0.10
  -5  -3   1   21.57    0.70
  -5  -3   1   21.94    0.58
  -5  -3   1   21.24    0.65
   4   3  -1    2.97    0.12
  -4  -3   1    3.28    0.15
  -4  -3   1    3.06    0.13
  -3  -3   1   56.61    1.75
  -2  -3   1    8.51    0.29
   1   3  -1    0.20    0.03
   1   3  -1    0.17    0.02
  -1  -3   1    0.12    0.03
   0   3  -1   10.91    0.33
   0   3  -1   10.31    0.34
  -2   3  -1   13.75    0.40
  -2   3  -1   13.87    0.45
  -3   3  -1    9.44    0.27
  -3   3  -1    9.18    0.32
  -3   3  -1    9.09    0.27
  -4   3  -1   14.46    0.42
  -4   3  -1   14.83    0.49
  -4   3  -1   14.80    0.42
  -5   3  -1    5.34    0.18
  -5   3  -1    5.45    0.22
  -6   3  -1    0.22    0.07
  -6   3  -1    0.18    0.04
  -7   3  -1   -0.07    0.07
  -8   3  -1    0.06    0.09
  -8  -2   1    1.62    0.15
  -8  -2   1    1.73    0.13
  -8  -2   1    1.50    0.11
  -7  -2   1    5.56    0.21
  -7  -2   1    5.28    0.21
  -7  -2   1    5.21    0.19
  -7  -2   1    5.03    0.23
  -6  -2   1   -0.02    0.05
  -6  -2   1   -0.01    0.04
  -6  -2   1    0.08    0.04
  -6  -2   1   -0.01    0.04
   5   2  -1    0.13    0.05
  -5  -2   1    0.23    0.06
  -5  -2   1    0.15    0.04
  -5  -2   1    0.21    0.04
  -5  -2   1    0.25    0.04
  -4  -2   1    0.54    0.05
  -4  -2   1    0.59    0.05
  -4  -2   1    0.60    0.06
   3   2  -1   52.39    1.62
  -3  -2   1   54.95    1.67
  -3  -2   1   55.34    1.53
  -3  -2   1   53.52    1.36
   2   2  -1    2.14    0.08
  -2  -2   1    2.24    0.10
  -1  -2   1   26.60    0.82
   0   2  -1   62.56    1.86
   0   2  -1   61.76    1.90
  -1   2  -1   23.03    0.62
  -1   2  -1   22.98    0.70
  -1   2  -1   22.64    0.64
  -2   2  -1    0.01    0.03
  -2   2  -1    0.02    0.01
  -2   2  -1    0.04    0.01
  -3   2  -1   26.68    0.84
  -3   2  -1   26.89    0.75
  -4   2  -1   27.68    0.80
  -4   2  -1   27.96    0.90
  -4   2  -1   28.89    0.78
  -5   2  -1    7.87    0.29
  -5   2  -1    7.69    0.24
  -6   2  -1    0.80    0.07
  -6   2  -1    0.91    0.09
  -7   2  -1   12.75    0.47
  -7   2  -1   13.06    0.40
  -8   2  -1    8.25    0.35
  -9  -1   1    0.17    0.07
  -9  -1   1    0.08    0.06
  -8  -1   1    1.42    0.13
  -8  -1   1    1.52    0.13
  -8  -1   1    1.50    0.11
  -7  -1   1    0.30    0.06
  -7  -1   1    0.17    0.08
  -7  -1   1    0.34    0.07
   6   1  -1    4.38    0.18
  -6  -1   1    4.13    0.17
  -6  -1   1    4.11    0.16
  -6  -1   1    4.21    0.17
  -6  -1   1    4.02    0.19
  -5  -1   1    0.81    0.07
  -5  -1   1    0.76    0.06
  -5  -1   1    0.80    0.08
  -5  -1   1    0.79    0.06
  -4  -1   1   40.03    1.14
  -4  -1   1   39.61    1.10
  -4  -1   1   39.67    1.25
  -4  -1   1   40.75    1.02
  -3  -1   1   55.95    1.51
  -3  -1   1   55.55    1.39
  -3  -1   1   55.12    1.71
   2   1  -1   58.26    1.75
  -2  -1   1   58.24    1.46
  -2  -1   1   59.36    1.79
  -2  -1   1   58.23    1.64
  -1  -1   1   29.29    0.90
   0   1  -1  168.56    5.15
  -1   1  -1  110.51    2.91
  -1   1  -1  106.64    3.24
  -2   1  -1   22.14    0.64
  -2   1  -1   23.62    0.57
  -2   1  -1   23.12    0.62
  -2   1  -1   22.72    0.72
  -3   1  -1    5.31    0.16
  -3   1  -1    5.22    0.19
  -3   1  -1    5.24    0.16
  -4   1  -1    5.13    0.17
  -4   1  -1    5.38    0.20
  -4   1  -1    5.33    0.17
  -4   1  -1    5.24    0.16
  -5   1  -1    2.06    0.10
  -5   1  -1    2.04    0.13
  -5   1  -1    2.19    0.09
  -6   1  -1    3.08    0.13
  -6   1  -1    3.05    0.12
  -6   1  -1    2.89    0.16
  -7   1  -1    7.41    0.26
  -7   1  -1    7.41    0.31
  -8   1  -1    0.49    0.11
  -9   1  -1    0.22    0.11
  -9   0   1    0.26    0.07
  -8   0   1    4.91    0.21
  -8   0   1    4.87    0.19
  -8   0   1    5.07    0.24
  -7   0   1    4.86    0.23
  -7   0   1    5.17    0.20
  -7   0   1    5.27    0.19
  -6   0   1    4.69    0.18
  -6   0   1    5.06    0.19
  -6   0   1    4.97    0.21
  -6   0   1    5.20    0.18
  -5   0   1    2.10    0.10
  -5   0   1    2.22    0.12
  -5   0   1    2.19    0.10
  -5   0   1    2.41    0.11
  -4   0   1   50.64    1.58
  -4   0   1   51.36    1.40
  -4   0   1   52.50    1.29
  -4   0   1   49.81    1.44
  -3   0   1   51.12    1.37
  -3   0   1   50.41    1.42
  -3   0   1   50.34    1.55
  -3   0   1   49.16    1.26
  -2   0   1    0.97    0.05
  -2   0   1    1.05    0.05
  -2   0   1    1.08    0.06
  -2   0   1    0.98    0.05
  -1   0   1  115.75    3.44
  -1   0   1  108.72    3.43
   0   0   1  121.82    3.23
   0   0   1  118.53    3.64
  -1   0  -1   41.83    1.28
  -2   0  -1    0.02    0.02
  -2   0  -1    0.01    0.02
  -2   0  -1    0.02    0.03
  -3   0  -1   23.48    0.76
  -3   0  -1   24.39    0.68
  -4   0  -1   77.80    2.37
  -4   0  -1   76.81    2.08
  -4   0  -1   75.52    1.91
  -5   0  -1    9.17    0.28
  -5   0  -1    9.07    0.33
  -5   0  -1    9.38    0.26
  -5   0  -1    9.18    0.29
  -6   0  -1   11.10    0.35
  -6   0  -1   11.08    0.40
  -6   0  -1   11.44    0.32
  -7   0  -1    7.10    0.25
  -7   0  -1    7.05    0.23
  -7   0  -1    6.34    0.29
  -8   0  -1    2.62    0.18
  -9   0  -1    0.04    0.10
  -8   1   1    2.38    0.14
  -8   1   1    2.74    0.18
  -7   1   1    8.69    0.34
  -7   1   1    8.66    0.29
  -6   1   1    8.90    0.29
  -6   1   1    8.82    0.29
  -6   1   1    9.00    0.33
  -5   1   1    4.52    0.16
  -5   1   1    4.29    0.19
  -5   1   1    4.45    0.15
  -5   1   1    4.45    0.16
  -4   1   1   20.10    0.55
  -4   1   1   19.49    0.57
  -4   1   1   19.02    0.51
  -4   1   1   19.38    0.63
  -3   1   1    3.34    0.13
  -3   1   1    3.27    0.11
  -3   1   1    3.32    0.12
  -2   1   1   14.95    0.42
  -2   1   1   15.09    0.43
  -2   1   1   15.11    0.48
  -1   1   1   14.96    0.45
  -1   1   1   13.74    0.41
   0   1   1  192.82    5.04
   0   1   1  159.75    5.61
   0   1   1  206.28    5.73
  -1  -1  -1    2.41    0.10
  -2  -1  -1    1.31    0.08
  -3  -1  -1   25.26    0.63
  -3  -1  -1   23.84    0.78
  -4  -1  -1    6.40    0.21
  -4  -1  -1    6.40    0.21
  -4  -1  -1    6.02    0.24
  -4  -1  -1    6.24    0.19
  -5  -1  -1    5.75    0.23
  -5  -1  -1    5.65    0.20
  -5  -1  -1    5.98    0.20
  -5  -1  -1    5.75    0.18
  -6  -1  -1   12.00    0.34
  -6  -1  -1   12.04    0.43
  -6  -1  -1   11.95    0.38
  -6  -1  -1   12.45    0.37
  -7  -1  -1    3.08    0.13
  -7  -1  -1    2.77    0.18
  -7  -1  -1    2.70    0.14
  -8  -1  -1    0.28    0.06
  -8  -1  -1    0.43    0.10
  -8   2   1    3.44    0.17
  -8   2   1    4.07    0.21
  -7   2   1    8.29    0.33
  -7   2   1    8.54    0.29
  -6   2   1    0.31    0.05
  -6   2   1    0.26    0.07
  -5   2   1    0.24    0.04
  -5   2   1    0.30    0.06
  -5   2   1    0.26    0.04
  -4   2   1   25.95    0.74
  -4   2   1   25.90    0.82
  -4   2   1   25.58    0.72
  -3   2   1   12.25    0.40
  -3   2   1   12.05    0.36
  -3   2   1   12.44    0.35
  -2   2   1   64.68    1.81
  -2   2   1   64.60    1.99
  -1   2   1  132.06    3.93
  -1   2   1  128.80    3.93
  -1   2   1  125.65    3.47
   0   2   1   96.71    3.06
  -1  -2  -1    0.16    0.03
  -2  -2  -1    9.31    0.31
  -3  -2  -1    2.78    0.13
  -4  -2  -1   19.54    0.52
  -4  -2  -1   19.96    0.64
  -5  -2  -1    3.56    0.13
  -5  -2  -1    3.72    0.18
  -5  -2  -1    3.50    0.15
  -6  -2  -1    2.74    0.12
  -6  -2  -1    2.77    0.13
  -6  -2  -1    2.42    0.16
  -6  -2  -1    2.57    0.13
  -7  -2  -1    6.17    0.22
  -7  -2  -1    5.71    0.20
  -7  -2  -1    5.83    0.26
  -8  -2  -1    0.83    0.08
  -8  -2  -1    0.67    0.11
  -8  -2  -1    0.92    0.09
  -8   3   1    2.30    0.14
  -8   3   1    2.56    0.18
  -7   3   1    2.20    0.13
  -7   3   1    2.37    0.16
  -6   3   1    2.63    0.13
  -6   3   1    2.75    0.16
  -5   3   1   11.35    0.34
  -5   3   1   11.23    0.34
  -5   3   1   11.11    0.39
  -4   3   1    0.35    0.04
  -4   3   1    0.36    0.04
  -4   3   1    0.25    0.06
  -3   3   1    3.73    0.13
  -3   3   1    3.83    0.16
  -2   3   1    0.11    0.03
  -2   3   1    0.00    0.01
  -2   3   1    0.02    0.03
  -1   3   1  163.28    4.99
  -1  -3  -1   11.22    0.37
  -2  -3  -1    0.15    0.04
  -3  -3  -1   23.27    0.75
  -4  -3  -1    6.57    0.26
  -5  -3  -1   18.08    0.50
  -5  -3  -1   18.50    0.62
  -5  -3  -1   19.18    0.57
  -6  -3  -1   13.77    0.40
  -6  -3  -1   14.42    0.50
  -6  -3  -1   13.85    0.44
  -7  -3  -1    3.13    0.14
  -7  -3  -1    3.17    0.16
  -7  -3  -1    3.08    0.19
  -8  -3  -1    0.49    0.08
  -8  -3  -1    0.54    0.10
  -8  -3  -1    0.50    0.08
  -8   4   1    2.61    0.19
  -8   4   1    2.59    0.15
  -7   4   1    6.24    0.24
  -7   4   1    7.25    0.29
  -6   4   1    0.06    0.05
  -6   4   1    0.08    0.07
  -5   4   1    2.13    0.14
  -5   4   1    2.01    0.11
  -4   4   1    2.42    0.14
  -4   4   1    2.67    0.11
  -4   4   1    2.74    0.12
  -3   4   1   37.34    1.01
  -3   4   1   35.07    1.15
  -3   4   1   36.96    1.04
  -2   4   1   84.06    2.59
  -2   4   1   86.08    2.28
  -2   4   1   82.40    2.36
   1  -4  -1  142.67    4.65
  -1   4   1  155.49    4.65
  -1   4   1  157.03    4.24
   0  -4  -1   45.72    1.42
   0   4   1   45.42    1.29
  -1  -4  -1   34.12    1.07
  -2  -4  -1    5.58    0.22
  -3  -4  -1   19.52    0.64
  -4  -4  -1   28.89    0.93
  -5  -4  -1   14.71    0.52
  -6  -4  -1    1.30    0.09
  -6  -4  -1    1.33    0.11
  -6  -4  -1    1.23    0.12
  -7  -4  -1    2.39    0.13
  -7  -4  -1    2.39    0.14
  -7  -4  -1    2.21    0.17
  -7  -4  -1    2.46    0.14
  -8  -4  -1    1.04    0.13
  -8  -4  -1    1.03    0.10
  -8  -4  -1    0.97    0.10
  -8   5   1    6.50    0.30
  -7   5   1    3.19    0.16
  -7   5   1    3.19    0.19
  -6   5   1   11.20    0.36
  -6   5   1   11.16    0.41
  -5   5   1    1.52    0.13
  -5   5   1    1.44    0.10
  -4   5   1   10.80    0.33
  -4   5   1   10.18    0.38
  -4   5   1   11.14    0.33
  -3   5   1   16.23    0.55
  -3   5   1   16.48    0.48
  -3   5   1   16.40    0.49
  -2   5   1   33.77    0.96
  -2   5   1   33.26    1.06
  -2   5   1   33.43    0.93
  -1   5   1   31.02    0.97
  -1   5   1   29.90    0.88
  -1  -5  -1   -0.01    0.04
  -2  -5  -1    1.01    0.09
  -3  -5  -1    7.78    0.30
  -4  -5  -1    4.06    0.20
  -5  -5  -1   -0.08    0.07
  -6  -5  -1    0.31    0.06
  -6  -5  -1    0.31    0.06
  -6  -5  -1    0.36    0.09
  -7  -5  -1    1.53    0.11
  -7  -5  -1    1.55    0.13
  -7  -5  -1    1.50    0.14
  -7   6   1    1.41    0.14
  -7   6   1    1.45    0.12
  -6   6   1    0.38    0.07
  -6   6   1    0.38    0.09
  -5   6   1   -0.01    0.07
  -5   6   1   -0.01    0.04
  -4   6   1   15.69    0.47
  -4   6   1   15.81    0.54
  -4   6   1   15.33    0.47
  -3   6   1   15.92    0.54
  -3   6   1   16.38    0.48
  -3   6   1   15.83    0.47
   2  -6  -1   21.78    0.79
  -2   6   1   24.89    0.71
  -2   6   1   25.82    0.79
  -1  -6  -1    4.45    0.20
  -2  -6  -1    2.48    0.15
  -3  -6  -1    2.63    0.16
  -4  -6  -1    2.96    0.18
  -5  -6  -1    0.77    0.11
  -6  -6  -1    1.79    0.13
  -6  -6  -1    2.02    0.17
  -7  -6  -1    2.71    0.19
  -7  -6  -1    3.08    0.17
  -7  -6  -1    2.75    0.15
  -7   7   1    1.52    0.16
  -7   7   1    1.50    0.13
  -6   7   1    0.01    0.08
  -6   7   1   -0.01    0.05
  -5   7   1    1.04    0.09
  -5   7   1    0.90    0.11
  -4   7   1    0.71    0.10
  -4   7   1    0.92    0.08
  -3   7   1    0.63    0.09
  -3   7   1    0.64    0.06
   2  -7  -1    1.56    0.13
  -2   7   1    1.51    0.13
  -2   7   1    1.66    0.10
   1  -7  -1    4.00    0.20
  -1   7   1    3.82    0.19
   0  -7  -1   21.61    0.70
   0   7   1   20.67    0.70
  -1  -7  -1    1.64    0.13
  -2  -7  -1    1.12    0.11
  -3  -7  -1    0.52    0.09
  -4  -7  -1    1.57    0.15
  -5  -7  -1    0.16    0.08
  -6  -7  -1    1.36    0.12
  -6  -7  -1    1.37    0.14
  -6   8   1    0.36    0.08
  -6   8   1    0.66    0.12
  -5   8   1    2.89    0.19
  -4   8   1    4.71    0.23
   3  -8  -1    3.13    0.19
  -3   8   1    2.86    0.18
   2  -8  -1    1.01    0.11
  -2   8   1    1.13    0.11
   1  -8  -1    4.17    0.21
  -1   8   1    3.94    0.20
   0  -8  -1    1.90    0.15
   0   8   1    1.77    0.14
  -1  -8  -1    1.66    0.14
  -2  -8  -1    0.68    0.10
  -3  -8  -1    4.66    0.23
  -4  -8  -1    2.07    0.16
  -5  -8  -1    1.17    0.13
  -6  -8  -1    2.54    0.20
  -5   9   1    0.30    0.10
   4  -9  -1    0.53    0.12
  -4   9   1    0.71    0.12
   3  -9  -1   -0.05    0.08
  -3   9   1    0.03    0.08
   2  -9  -1   -0.05    0.08
  -2   9   1   -0.13    0.07
   1  -9  -1    6.44    0.29
  -1   9   1    6.64    0.28
   0  -9  -1    6.47    0.29
   0   9   1    6.75    0.29
  -1  -9  -1    1.90    0.16
  -2  -9  -1    0.57    0.11
  -3  -9  -1    1.07    0.13
  -4  -9  -1    0.24    0.10
  -5  -9  -1    0.53    0.12
   4 -10  -1    0.52    0.12
  -4  10   1    0.83    0.12
   3 -10  -1    0.15    0.10
  -3  10   1    0.11    0.09
   2 -10  -1    0.84    0.12
  -2  10   1    0.87    0.12
   1 -10  -1    2.86    0.19
  -1  10   1    2.53    0.18
   0 -10  -1    1.92    0.17
  -1 -10  -1    1.14    0.13
  -2 -10  -1    1.15    0.14
  -3 -10  -1    0.56    0.12
   2 -11  -1    0.04    0.10
  -2  11   1   -0.05    0.08
   1 -11  -1    0.29    0.11
  -1  11   1    0.23    0.10
   0 -11  -1    0.73    0.13
  -1 -11  -1   -0.11    0.09
  -2 -11   2    1.05    0.13
  -1 -11   2    1.13    0.13
   0  11  -2    1.63    0.16
   0 -11   2    1.73    0.17
  -1  11  -2    0.49    0.11
   1 -11   2    0.29    0.10
  -2  11  -2    0.95    0.12
   2 -11   2    0.82    0.13
  -3  11  -2    1.28    0.14
   3 -11   2    1.09    0.14
  -4 -10   2    1.35    0.13
  -3 -10   2    0.76    0.11
  -2 -10   2    1.88    0.16
  -1 -10   2    0.29    0.09
   0  10  -2    2.54    0.18
   0 -10   2    2.63    0.18
  -1  10  -2    2.81    0.18
   1 -10   2    2.67    0.19
  -2  10  -2    2.96    0.19
   2 -10   2    3.13    0.20
  -3  10  -2    0.30    0.10
   3 -10   2    0.48    0.11
  -4  10  -2    2.09    0.17
  -5  10  -2    0.45    0.11
  -5  -9   2    1.85    0.17
  -5  -9   2    1.76    0.14
  -4  -9   2    1.63    0.15
  -3  -9   2    4.47    0.22
  -2  -9   2    3.42    0.19
   1   9  -2    0.07    0.07
  -1  -9   2    0.09    0.07
   0   9  -2    0.66    0.09
   0  -9   2    0.56    0.09
  -1   9  -2    0.08    0.07
   1  -9   2    0.00    0.08
  -2   9  -2    1.68    0.15
   2  -9   2    1.60    0.16
  -3   9  -2    2.14    0.15
  -4   9  -2    3.50    0.20
  -5   9  -2    0.97    0.12
  -6   9  -2    0.23    0.10
  -6  -8   2    0.43    0.08
  -5  -8   2    0.59    0.08
  -5  -8   2    0.60    0.10
  -4  -8   2    0.06    0.07
  -3  -8   2    4.40    0.21
  -2  -8   2    0.11    0.06
   1   8  -2    0.25    0.07
  -1  -8   2    0.30    0.07
   0   8  -2    0.30    0.07
   0  -8   2    0.41    0.08
  -1   8  -2   13.94    0.49
   1  -8   2   13.82    0.49
  -2   8  -2   -0.08    0.06
  -3   8  -2    0.29    0.07
  -4   8  -2    0.01    0.07
  -5   8  -2   -0.03    0.07
  -6   8  -2    0.02    0.08
  -7  -7   2    0.96    0.11
  -7  -7   2    0.99    0.10
  -6  -7   2    1.27    0.10
  -6  -7   2    1.39    0.12
  -5  -7   2    0.08    0.07
  -5  -7   2    0.09    0.06
  -4  -7   2    0.63    0.09
  -3  -7   2    2.61    0.15
  -2  -7   2    0.20    0.06
   1   7  -2    0.27    0.06
  -1  -7   2    0.23    0.06
   0   7  -2    3.45    0.17
   0  -7   2    3.37    0.17
  -1   7  -2    3.13    0.17
   1  -7   2    3.41    0.17
  -2   7  -2    0.18    0.06
  -3   7  -2   10.68    0.39
  -4   7  -2    3.68    0.19
  -5   7  -2    2.28    0.16
  -6   7  -2    0.12    0.08
  -7   7  -2    1.78    0.17
  -7  -6   2    1.95    0.14
  -7  -6   2    1.81    0.13
  -6  -6   2    0.77    0.10
  -6  -6   2    0.95    0.09
  -6  -6   2    0.78    0.09
  -5  -6   2    1.21    0.10
  -5  -6   2    1.11    0.11
  -4  -6   2    1.31    0.10
  -4  -6   2    1.25    0.12
  -3  -6   2    0.24    0.06
  -2  -6   2    0.64    0.07
   1   6  -2    2.16    0.12
   1   6  -2    1.92    0.09
  -1  -6   2    2.23    0.12
   0   6  -2    2.52    0.11
   0   6  -2    2.45    0.13
   0  -6   2    2.43    0.13
  -1   6  -2    3.88    0.17
  -2   6  -2    1.49    0.10
  -4   6  -2    3.36    0.18
  -4   6  -2    3.45    0.14
  -5   6  -2    1.86    0.11
  -5   6  -2    1.59    0.14
  -6   6  -2    2.31    0.17
  -7   6  -2    8.25    0.35
  -8  -5   2    2.58    0.15
  -8  -5   2    2.76    0.17
  -8  -5   2    2.80    0.17
  -7  -5   2    1.10    0.10
  -7  -5   2    1.02    0.10
  -7  -5   2    1.13    0.10
  -6  -5   2    0.37    0.07
  -6  -5   2    0.55    0.08
  -6  -5   2    0.50    0.07
  -5  -5   2    0.31    0.07
  -5  -5   2    0.24    0.06
  -4  -5   2   19.74    0.65
  -4  -5   2   19.48    0.60
  -3  -5   2    7.56    0.28
   2   5  -2    2.59    0.10
  -2  -5   2    2.48    0.12
   1   5  -2    1.51    0.10
   1   5  -2    1.64    0.08
  -1  -5   2    1.57    0.10
   0   5  -2   70.20    2.21
   0   5  -2   70.90    2.15
   0  -5   2   73.33    2.21
  -1   5  -2   10.51    0.35
  -1   5  -2    9.79    0.34
  -2   5  -2   21.14    0.68
  -4   5  -2   11.97    0.36
  -4   5  -2   12.50    0.43
  -5   5  -2    0.59    0.09
  -5   5  -2    0.62    0.06
  -6   5  -2    0.97    0.11
  -7   5  -2    0.04    0.09
  -8   5  -2    1.15    0.14
  -8  -4   2    0.32    0.07
  -8  -4   2    0.28    0.07
  -7  -4   2    2.80    0.15
  -7  -4   2    2.34    0.14
  -7  -4   2    2.13    0.13
  -6  -4   2    0.08    0.05
  -6  -4   2    0.12    0.05
  -6  -4   2    0.13    0.06
  -6  -4   2    0.03    0.04
  -5  -4   2   12.44    0.37
  -5  -4   2   12.32    0.41
  -5  -4   2   13.48    0.44
  -4  -4   2    6.26    0.24
  -4  -4   2    6.17    0.23
   3   4  -2    1.30    0.07
  -3  -4   2    1.41    0.09
  -3  -4   2    1.61    0.10
   2   4  -2    0.52    0.05
  -2  -4   2    0.53    0.05
   1   4  -2    0.84    0.06
   1   4  -2    0.81    0.06
  -1  -4   2    1.02    0.07
  -1   4  -2    0.09    0.03
  -1   4  -2    0.02    0.03
  -2   4  -2    2.18    0.10
  -3   4  -2    4.03    0.17
  -3   4  -2    4.01    0.13
  -4   4  -2    7.65    0.23
  -4   4  -2    7.43    0.28
  -5   4  -2    0.08    0.03
  -5   4  -2    0.07    0.06
  -6   4  -2    3.77    0.19
  -7   4  -2    0.04    0.08
  -8   4  -2   -0.01    0.09
  -8  -3   2    1.92    0.13
  -8  -3   2    1.92    0.12
  -7  -3   2    2.75    0.13
  -7  -3   2    2.63    0.15
  -7  -3   2    2.73    0.15
  -7  -3   2    2.95    0.16
  -6  -3   2    1.09    0.11
  -6  -3   2    1.03    0.09
  -6  -3   2    0.86    0.08
  -6  -3   2    1.04    0.08
  -5  -3   2    0.10    0.04
  -5  -3   2    0.26    0.06
  -5  -3   2    0.16    0.04
  -5  -3   2    0.11    0.04
   4   3  -2   -0.06    0.02
  -4  -3   2    0.09    0.03
  -4  -3   2    0.00    0.04
  -4  -3   2    0.07    0.03
   3   3  -2   19.15    0.60
  -3  -3   2   19.40    0.58
  -3  -3   2   20.02    0.62
   2   3  -2    6.64    0.22
  -2  -3   2    6.85    0.23
   1   3  -2   47.50    1.44
   1   3  -2   47.46    1.41
  -1  -3   2   45.74    1.44
   0   3  -2    0.71    0.05
   0   3  -2    0.71    0.05
  -2   3  -2    0.00    0.01
  -2   3  -2    0.06    0.02
  -2   3  -2    0.00    0.01
  -3   3  -2   33.38    1.05
  -4   3  -2   21.16    0.69
  -4   3  -2   20.95    0.59
  -5   3  -2    7.59    0.29
  -5   3  -2    7.81    0.24
  -6   3  -2    1.46    0.13
  -6   3  -2    1.66    0.10
  -7   3  -2    1.06    0.12
  -8   3  -2    1.63    0.16
  -8  -2   2    0.42    0.07
  -8  -2   2    0.46    0.07
  -7  -2   2    0.32    0.08
  -7  -2   2    0.52    0.07
  -7  -2   2    0.30    0.06
  -7  -2   2    0.47    0.07
  -6  -2   2    0.49    0.06
  -6  -2   2    0.41    0.06
  -6  -2   2    0.50    0.07
  -6  -2   2    0.44    0.06
   5   2  -2    2.14    0.12
  -5  -2   2    2.05    0.12
  -5  -2   2    2.29    0.10
  -5  -2   2    2.09    0.11
  -5  -2   2    2.02    0.11
   4   2  -2    3.02    0.13
  -4  -2   2    3.05    0.13
  -4  -2   2    3.21    0.12
  -4  -2   2    3.38    0.14
  -4  -2   2    3.39    0.13
   3   2  -2    8.47    0.28
  -3  -2   2    8.23    0.24
  -3  -2   2    8.88    0.27
  -3  -2   2    8.86    0.29
   2   2  -2   15.58    0.50
  -2  -2   2   16.66    0.51
   1   2  -2    5.04    0.17
   1   2  -2    5.38    0.17
  -1  -2   2    5.11    0.16
  -1  -2   2    5.02    0.17
   0   2  -2    3.86    0.13
   0   2  -2    3.88    0.13
  -2   2  -2    6.70    0.19
  -2   2  -2    6.21    0.22
  -3   2  -2   50.61    1.36
  -3   2  -2   50.16    1.56
  -4   2  -2    3.56    0.16
  -4   2  -2    3.67    0.13
  -5   2  -2    1.64    0.12
  -5   2  -2    1.62    0.09
  -6   2  -2    0.73    0.09
  -6   2  -2    0.85    0.07
  -7   2  -2    2.86    0.18
  -8   2  -2    1.38    0.14
  -9  -1   2    0.51    0.08
  -9  -1   2    0.61    0.09
  -8  -1   2    0.31    0.07
  -8  -1   2    0.19    0.07
  -7  -1   2    3.89    0.20
  -7  -1   2    4.43    0.18
  -7  -1   2    4.29    0.17
  -7  -1   2    3.84    0.18
   6   1  -2    3.74    0.17
  -6  -1   2    3.25    0.15
  -6  -1   2    3.26    0.14
  -6  -1   2    3.37    0.15
  -6  -1   2    3.32    0.17
   5   1  -2    3.15    0.14
  -5  -1   2    3.26    0.13
  -5  -1   2    2.91    0.13
  -5  -1   2    3.04    0.14
  -5  -1   2    3.10    0.12
   4   1  -2   43.79    1.34
  -4  -1   2   44.27    1.37
  -4  -1   2   44.42    1.26
  -4  -1   2   44.52    1.21
  -4  -1   2   43.28    1.12
  -3  -1   2  133.54    3.73
  -3  -1   2  133.18    3.59
  -3  -1   2  133.62    4.08
  -3  -1   2  133.00    3.30
   2   1  -2   29.77    0.89
  -2  -1   2   29.38    0.90
  -2  -1   2   28.82    0.83
   1   1  -2    1.82    0.07
  -1  -1   2    1.75    0.07
  -1  -1   2    1.65    0.06
   0   1  -2    8.83    0.28
   0  -1   2    9.21    0.26
  -1   1  -2   12.19    0.39
  -1   1  -2   12.86    0.40
  -2   1  -2   63.05    1.48
  -2   1  -2   58.66    1.61
  -2   1  -2   58.16    1.80
  -3   1  -2   15.02    0.42
  -3   1  -2   14.78    0.43
  -3   1  -2   14.99    0.49
  -3   1  -2   15.10    0.38
  -4   1  -2   26.81    0.78
  -4   1  -2   26.97    0.87
  -4   1  -2   27.91    0.76
  -4   1  -2   28.02    0.70
  -5   1  -2    2.81    0.11
  -5   1  -2    2.58    0.14
  -5   1  -2    2.81    0.11
  -6   1  -2    0.55    0.06
  -6   1  -2    0.52    0.08
  -6   1  -2    0.52    0.06
  -7   1  -2    2.19    0.16
  -8   1  -2    2.47    0.19
  -9   0   2    0.60    0.09
  -8   0   2    2.36    0.14
   7   0  -2    1.01    0.11
  -7   0   2    1.04    0.11
  -7   0   2    1.13    0.09
  -7   0   2    1.08    0.09
  -6   0   2    3.82    0.15
  -6   0   2    3.74    0.16
  -6   0   2    3.55    0.18
  -6   0   2    3.88    0.16
  -5   0   2    1.72    0.10
  -5   0   2    1.89    0.10
  -5   0   2    1.80    0.11
  -5   0   2    1.73    0.09
  -4   0   2   34.02    0.93
  -4   0   2   33.30    0.86
  -4   0   2   33.83    0.96
  -4   0   2   33.39    1.05
  -3   0   2    7.64    0.24
  -3   0   2    7.08    0.22
  -3   0   2    7.15    0.21
  -1   0   2    4.58    0.14
  -1   0   2    5.19    0.15
  -1   0   2    4.75    0.13
   0   0  -2  175.81    5.36
   0   0  -2  167.89    5.24
   0   0   2  177.31    5.26
   0   0   2  181.49    4.71
  -1   0  -2   18.40    0.53
   1   0   2   16.75    0.50
  -2   0  -2    0.94    0.07
  -2   0  -2    0.96    0.04
  -2   0  -2    0.94    0.05
  -3   0  -2   44.97    1.16
  -3   0  -2   47.48    1.26
  -3   0  -2   47.29    1.45
  -4   0  -2   20.77    0.67
  -4   0  -2   20.51    0.58
  -4   0  -2   21.05    0.54
  -5   0  -2    0.45    0.04
  -5   0  -2    0.41    0.07
  -5   0  -2    0.43    0.05
  -5   0  -2    0.39    0.05
  -6   0  -2    0.13    0.04
  -6   0  -2    0.01    0.06
  -6   0  -2    0.16    0.04
  -7   0  -2    3.24    0.14
  -7   0  -2    3.14    0.19
  -8   0  -2    0.09    0.09
  -9   1   2    0.18    0.07
   8  -1  -2    3.08    0.20
  -8   1   2    3.02    0.16
  -8   1   2    3.66    0.20
  -7   1   2   15.41    0.48
  -7   1   2   15.75    0.54
  -6   1   2    9.94    0.32
  -6   1   2    9.73    0.32
  -6   1   2    9.98    0.36
  -5   1   2    6.50    0.21
  -5   1   2    5.97    0.21
  -5   1   2    6.38    0.24
  -4   1   2   54.12    1.47
  -4   1   2   53.82    1.53
  -4   1   2   53.83    1.67
  -3   1   2   55.76    1.52
  -3   1   2   56.10    1.72
  -2   1   2    5.58    0.19
  -2   1   2    6.51    0.20
   1  -1  -2   11.20    0.35
  -1   1   2   11.03    0.32
  -1   1   2   10.98    0.33
  -1   1   2   12.14    0.36
   0  -1  -2    0.16    0.02
   0  -1  -2    0.12    0.02
   0   1   2    0.12    0.02
   0   1   2    0.21    0.02
  -2  -1  -2   56.50    1.78
  -2  -1  -2   59.15    1.73
  -3  -1  -2    1.16    0.09
  -4  -1  -2   14.49    0.49
  -4  -1  -2   14.63    0.39
  -5  -1  -2    3.71    0.13
  -5  -1  -2    3.98    0.15
  -5  -1  -2    3.70    0.18
  -5  -1  -2    3.76    0.15
  -6  -1  -2    0.15    0.04
  -6  -1  -2    0.17    0.04
  -6  -1  -2    0.15    0.07
  -7  -1  -2    0.85    0.08
  -7  -1  -2    0.60    0.10
  -7  -1  -2    0.69    0.07
  -8  -1  -2    1.67    0.16
  -9   2   2    0.19    0.07
  -8   2   2    2.56    0.15
  -8   2   2    2.69    0.18
  -7   2   2    1.24    0.10
  -7   2   2    1.11    0.11
  -6   2   2    0.03    0.04
  -6   2   2   -0.03    0.06
  -6   2   2    0.04    0.04
  -5   2   2    7.32    0.24
  -5   2   2    7.07    0.27
  -5   2   2    7.03    0.24
  -4   2   2   27.50    0.77
  -4   2   2   28.50    0.88
  -4   2   2   26.99    0.80
  -3   2   2   30.83    0.96
  -3   2   2   29.94    0.84
  -3   2   2   31.09    0.87
  -2   2   2   19.11    0.55
  -2   2   2   20.33    0.62
   1  -2  -2    3.26    0.12
  -1   2   2    3.32    0.12
  -1   2   2    2.99    0.11
  -1   2   2    2.78    0.10
   0  -2  -2    1.56    0.08
   0  -2  -2    1.57    0.07
   0   2   2    1.54    0.08
  -1  -2  -2    0.00    0.02
   1   2   2    0.03    0.02
  -2  -2  -2    3.48    0.15
  -3  -2  -2   11.41    0.39
  -4  -2  -2   13.82    0.47
  -5  -2  -2    1.07    0.10
  -5  -2  -2    1.02    0.07
  -5  -2  -2    0.98    0.09
  -6  -2  -2   19.37    0.59
  -6  -2  -2   19.86    0.58
  -6  -2  -2   19.61    0.53
  -6  -2  -2   19.86    0.67
  -7  -2  -2    2.67    0.13
  -7  -2  -2    2.77    0.14
  -7  -2  -2    2.65    0.17
  -8  -2  -2    2.98    0.20
  -8   3   2    0.84    0.12
  -8   3   2    0.73    0.09
  -7   3   2    3.70    0.17
  -7   3   2    3.74    0.20
  -6   3   2   -0.05    0.06
  -6   3   2    0.02    0.04
  -5   3   2    3.70    0.15
  -5   3   2    3.89    0.15
  -5   3   2    3.76    0.18
  -4   3   2   10.16    0.36
  -4   3   2   10.42    0.32
  -4   3   2   10.70    0.32
  -3   3   2    0.69    0.05
  -3   3   2    0.64    0.05
  -3   3   2    0.62    0.06
  -2   3   2    0.24    0.03
  -2   3   2    0.23    0.03
  -2   3   2    0.30    0.04
   1  -3  -2   52.47    1.71
  -1   3   2   56.93    1.56
  -1   3   2   56.38    1.71
   0  -3  -2   21.27    0.68
   0   3   2   21.75    0.68
  -1  -3  -2   71.77    2.20
   1   3   2   71.10    2.01
  -2  -3  -2   20.67    0.67
  -3  -3  -2   43.15    1.36
  -4  -3  -2    1.39    0.12
  -5  -3  -2   14.66    0.51
  -6  -3  -2    0.68    0.07
  -6  -3  -2    0.62    0.10
  -6  -3  -2    0.59    0.07
  -7  -3  -2    3.83    0.21
  -7  -3  -2    3.73    0.17
  -7  -3  -2    3.73    0.16
  -8  -3  -2    0.09    0.09
  -8   4   2    2.68    0.16
  -8   4   2    3.04    0.20
  -7   4   2    3.34    0.19
  -7   4   2    3.00    0.16
  -6   4   2    6.50    0.24
  -6   4   2    6.98    0.28
  -5   4   2   15.91    0.55
  -5   4   2   16.24    0.48
  -5   4   2   16.54    0.49
  -4   4   2   10.29    0.32
  -4   4   2   10.34    0.36
  -4   4   2   10.17    0.32
  -3   4   2   16.18    0.54
  -3   4   2   16.17    0.48
  -3   4   2   16.90    0.49
  -2   4   2    3.92    0.14
  -2   4   2    3.76    0.16
  -2   4   2    3.96    0.14
   1  -4  -2   22.26    0.71
  -1   4   2   21.87    0.64
  -1   4   2   22.25    0.71
   0   4   2   19.13    0.56
   0   4   2   19.30    0.62
  -1  -4  -2    3.67    0.16
  -1  -4  -2    3.72    0.13
  -2  -4  -2    0.36    0.06
  -3  -4  -2   22.48    0.74
  -4  -4  -2   24.57    0.81
  -5  -4  -2   29.14    0.95
  -6  -4  -2    3.02    0.14
  -6  -4  -2    3.50    0.16
  -6  -4  -2    3.07    0.19
  -7  -4  -2    0.67    0.11
  -7  -4  -2    0.74    0.08
  -7  -4  -2    0.78    0.08
  -8  -4  -2    0.16    0.10
  -8   5   2    3.82    0.23
  -8   5   2    4.16    0.19
  -7   5   2    2.58    0.17
  -7   5   2    2.45    0.14
  -6   5   2    2.67    0.14
  -6   5   2    2.87    0.17
  -5   5   2    0.88    0.09
  -5   5   2    0.97    0.08
  -4   5   2   12.84    0.39
  -4   5   2   12.40    0.38
  -4   5   2   12.29    0.44
  -3   5   2    9.23    0.34
  -3   5   2    9.69    0.30
  -3   5   2    9.25    0.30
   2  -5  -2   52.51    1.60
  -2   5   2   51.11    1.46
  -2   5   2   49.78    1.60
  -2   5   2   51.29    1.40
   1  -5  -2   23.04    0.73
  -1   5   2   22.15    0.72
  -1   5   2   22.10    0.66
   0   5   2    6.87    0.25
   0   5   2    6.82    0.23
  -1  -5  -2    0.03    0.03
  -1  -5  -2    0.02    0.05
  -2  -5  -2    7.68    0.29
  -3  -5  -2    6.68    0.27
  -4  -5  -2   13.58    0.48
  -5  -5  -2    0.37    0.09
  -6  -5  -2    0.17    0.09
  -7  -5  -2    1.51    0.14
  -7  -5  -2    1.38    0.11
  -7   6   2    0.67    0.09
  -7   6   2    0.89    0.12
  -6   6   2    0.33    0.06
  -6   6   2    0.28    0.09
  -5   6   2    0.03    0.07
  -5   6   2    0.05    0.05
  -4   6   2    3.19    0.14
  -4   6   2    3.10    0.14
  -4   6   2    2.88    0.17
  -3   6   2   15.28    0.53
  -3   6   2   15.67    0.46
  -3   6   2   15.39    0.47
   2  -6  -2   14.17    0.48
  -2   6   2   13.84    0.43
  -2   6   2   13.60    0.48
  -1   6   2    3.79    0.15
  -1   6   2    3.78    0.18
   0  -6  -2    0.02    0.02
   0   6   2    0.01    0.02
  -1  -6  -2    1.99    0.13
  -2  -6  -2    7.32    0.29
  -3  -6  -2    5.56    0.24
  -4  -6  -2   11.82    0.44
  -5  -6  -2    1.19    0.13
  -6  -6  -2    0.56    0.11
  -7  -6  -2    0.04    0.06
  -7  -6  -2    0.06    0.06
  -7  -6  -2   -0.02    0.09
  -7   7   2    2.30    0.15
  -7   7   2    2.09    0.18
  -6   7   2    0.54    0.08
  -6   7   2    0.74    0.11
  -5   7   2    1.42    0.11
  -5   7   2    1.43    0.14
  -4   7   2    7.25    0.26
  -4   7   2    7.62    0.26
  -4   7   2    7.06    0.29
   3  -7  -2    6.66    0.28
  -3   7   2    6.54    0.23
  -3   7   2    6.44    0.27
   2  -7  -2    0.95    0.11
  -2   7   2    1.00    0.10
  -2   7   2    1.10    0.09
   1  -7  -2    3.33    0.18
  -1   7   2    3.50    0.15
  -1   7   2    3.25    0.18
   0  -7  -2    0.03    0.07
   0   7   2    0.05    0.06
  -1  -7  -2    0.59    0.08
  -2  -7  -2    0.09    0.07
  -3  -7  -2    8.75    0.35
  -4  -7  -2    7.28    0.31
  -5  -7  -2    0.83    0.12
  -6  -7  -2    1.29    0.14
  -6   8   2   -0.12    0.09
  -6   8   2   -0.11    0.06
  -5   8   2    0.47    0.08
  -5   8   2    0.65    0.11
   4  -8  -2    5.78    0.27
  -4   8   2    5.42    0.26
   3  -8  -2   12.74    0.48
  -3   8   2   13.03    0.42
  -3   8   2   13.10    0.47
   2  -8  -2    8.26    0.34
  -2   8   2    8.55    0.33
   1  -8  -2    7.89    0.32
  -1   8   2    7.53    0.31
   0  -8  -2    5.36    0.25
  -1  -8  -2    1.01    0.11
  -2  -8  -2    2.92    0.18
  -3  -8  -2    7.59    0.32
  -4  -8  -2    2.83    0.19
  -5  -8  -2    2.02    0.18
   5  -9  -2    1.08    0.14
  -5   9   2    1.02    0.14
   4  -9  -2    4.98    0.26
  -4   9   2    5.23    0.26
   3  -9  -2    3.81    0.22
  -3   9   2    3.98    0.21
   2  -9  -2    1.98    0.17
  -2   9   2    1.81    0.16
   1  -9  -2    3.45    0.20
  -1   9   2    3.37    0.19
   0  -9  -2    3.20    0.19
  -1  -9  -2    1.27    0.13
  -2  -9  -2    1.46    0.14
  -3  -9  -2    1.86    0.17
  -4  -9  -2    0.26    0.10
   4 -10  -2    2.90    0.21
  -4  10   2    3.00    0.21
   3 -10  -2    0.33    0.11
  -3  10   2    0.40    0.11
   2 -10  -2    0.00    0.09
  -2  10   2    0.07    0.09
   1 -10  -2    0.52    0.11
  -1  10   2    0.28    0.09
   0 -10  -2    0.24    0.10
  -1 -10  -2    0.07    0.09
  -2 -10  -2    0.73    0.13
  -3 -10  -2    0.92    0.13
   0 -11  -2    0.78    0.13
  -3 -11   3    1.04    0.13
  -2 -11   3    0.54    0.10
  -1 -11   3    0.88    0.12
   0  11  -3    0.33    0.10
   0 -11   3    0.27    0.10
  -1  11  -3    1.53    0.15
   1 -11   3    1.69    0.17
  -2  11  -3    2.38    0.18
   2 -11   3    2.26    0.19
  -3  11  -3    2.38    0.18
   3 -11   3    2.36    0.19
  -4 -10   3    1.57    0.16
  -4 -10   3    1.63    0.14
  -3 -10   3    2.68    0.19
  -2 -10   3    4.01    0.21
  -1 -10   3    1.97    0.16
   0  10  -3    4.52    0.23
   0 -10   3    4.67    0.24
  -1  10  -3    2.87    0.18
   1 -10   3    2.84    0.19
  -2  10  -3    1.63    0.15
   2 -10   3    1.66    0.16
  -3  10  -3    2.00    0.16
  -4  10  -3    4.01    0.22
  -5  10  -3    2.68    0.19
  -5  -9   3    1.83    0.14
  -4  -9   3    4.68    0.22
  -4  -9   3    5.03    0.24
  -3  -9   3    2.82    0.18
  -2  -9   3    1.97    0.15
   1   9  -3   -0.01    0.06
  -1  -9   3    0.05    0.07
   0   9  -3    1.72    0.14
   0  -9   3    1.62    0.14
  -1   9  -3    5.13    0.23
   1  -9   3    4.81    0.23
  -2   9  -3   10.95    0.42
   2  -9   3   11.54    0.43
  -3   9  -3    1.48    0.14
  -4   9  -3    3.82    0.21
  -5   9  -3    0.29    0.10
  -6   9  -3    0.38    0.11
  -6  -8   3    1.46    0.11
  -6  -8   3    1.49    0.13
  -5  -8   3    2.08    0.14
  -4  -8   3    3.06    0.17
  -4  -8   3    2.94    0.16
  -3  -8   3    9.19    0.34
  -2  -8   3    4.69    0.21
   1   8  -3    0.37    0.07
  -1  -8   3    0.38    0.07
   0   8  -3    5.87    0.24
   0  -8   3    5.84    0.25
  -1   8  -3    4.52    0.21
   1  -8   3    4.87    0.22
  -2   8  -3    0.43    0.08
  -3   8  -3   -0.02    0.06
  -4   8  -3    0.45    0.09
  -5   8  -3    1.82    0.15
  -6   8  -3    0.07    0.09
  -7  -7   3    0.75    0.09
  -7  -7   3    0.81    0.10
  -6  -7   3    0.08    0.06
  -6  -7   3    0.18    0.06
  -5  -7   3    2.26    0.16
  -5  -7   3    2.35    0.14
  -4  -7   3    0.06    0.05
  -4  -7   3    0.02    0.06
  -3  -7   3    2.66    0.15
  -2  -7   3    1.42    0.11
   1   7  -3    3.08    0.13
   1   7  -3    3.18    0.15
  -1  -7   3    3.04    0.16
   0   7  -3    3.94    0.17
   0   7  -3    4.34    0.19
   0  -7   3    4.16    0.19
  -1   7  -3   14.02    0.48
  -2   7  -3    1.21    0.11
  -3   7  -3    7.51    0.29
  -4   7  -3    6.69    0.28
  -5   7  -3    1.23    0.12
  -6   7  -3   -0.11    0.08
  -7   7  -3    5.18    0.27
  -7  -6   3    3.10    0.17
  -7  -6   3    3.32    0.18
  -7  -6   3    3.28    0.16
  -6  -6   3    4.69    0.21
  -6  -6   3    4.43    0.18
  -5  -6   3   -0.05    0.06
  -5  -6   3   -0.03    0.04
  -4  -6   3    0.79    0.08
  -4  -6   3    0.94    0.09
  -3  -6   3   17.66    0.58
  -2  -6   3    3.65    0.16
   1   6  -3    4.07    0.17
   1   6  -3    4.19    0.16
  -1  -6   3    4.21    0.17
   0   6  -3    5.41    0.21
   0   6  -3    5.53    0.20
   0  -6   3    5.39    0.21
  -1   6  -3    3.19    0.15
  -1   6  -3    3.14    0.15
  -2   6  -3    0.52    0.07
  -3   6  -3    7.55    0.29
  -4   6  -3    5.56    0.24
  -5   6  -3    0.64    0.09
  -6   6  -3    1.48    0.14
  -7   6  -3    2.26    0.18
  -8  -5   3    1.03    0.10
  -8  -5   3    1.01    0.11
  -8  -5   3    0.95    0.10
  -7  -5   3    1.10    0.11
  -7  -5   3    1.14    0.11
  -7  -5   3    1.39    0.11
  -6  -5   3    2.20    0.12
  -6  -5   3    2.34    0.14
  -5  -5   3    1.12    0.10
  -5  -5   3    1.23    0.12
  -5  -5   3    1.22    0.09
  -4  -5   3   45.74    1.36
  -4  -5   3   48.21    1.47
   3   5  -3    3.46    0.13
  -3  -5   3    3.66    0.16
   2   5  -3    2.82    0.12
  -2  -5   3    3.39    0.14
   1   5  -3    0.29    0.04
   1   5  -3    0.15    0.03
  -1  -5   3    0.29    0.04
   0   5  -3   32.06    0.97
   0   5  -3   31.62    1.00
  -1   5  -3   11.31    0.37
  -1   5  -3   10.91    0.37
  -2   5  -3    2.77    0.14
  -2   5  -3    3.04    0.14
  -3   5  -3    0.03    0.02
  -4   5  -3    0.37    0.07
  -4   5  -3    0.47    0.04
  -5   5  -3    0.04    0.06
  -6   5  -3    2.16    0.16
  -7   5  -3   11.19    0.44
  -8   5  -3    1.99    0.19
  -8  -4   3    3.05    0.17
  -8  -4   3    2.77    0.16
  -8  -4   3    2.73    0.15
  -7  -4   3    1.45    0.12
  -7  -4   3    1.35    0.11
  -7  -4   3    1.28    0.12
  -6  -4   3    2.31    0.13
  -6  -4   3    2.02    0.12
  -6  -4   3    2.33    0.14
  -6  -4   3    2.23    0.13
  -5  -4   3    0.16    0.05
  -5  -4   3    0.16    0.05
  -5  -4   3    0.17    0.05
  -4  -4   3    0.64    0.07
   3   4  -3    0.55    0.05
  -3  -4   3    0.61    0.06
  -3  -4   3    0.62    0.06
   2   4  -3    0.13    0.03
  -2  -4   3    0.16    0.03
  -2  -4   3    0.09    0.03
   1   4  -3    9.12    0.30
  -1  -4   3    9.67    0.31
   0   4  -3   11.86    0.37
   0   4  -3   10.87    0.36
  -1   4  -3    0.97    0.07
  -1   4  -3    0.98    0.07
  -2   4  -3    0.27    0.04
  -2   4  -3    0.22    0.04
  -3   4  -3    0.52    0.05
  -4   4  -3    0.12    0.03
  -4   4  -3    0.01    0.02
  -5   4  -3    1.44    0.08
  -5   4  -3    1.35    0.12
  -6   4  -3    2.35    0.16
  -7   4  -3   -0.07    0.08
  -8   4  -3    0.27    0.10
  -8  -3   3    0.36    0.07
  -8  -3   3    0.37    0.07
  -7  -3   3    5.09    0.19
  -7  -3   3    5.30    0.21
  -7  -3   3    5.32    0.22
  -6  -3   3    0.03    0.05
  -6  -3   3    0.05    0.04
  -6  -3   3    0.04    0.04
  -6  -3   3    0.07    0.05
   5   3  -3    3.24    0.16
  -5  -3   3    3.79    0.16
  -5  -3   3    3.93    0.16
  -5  -3   3    3.79    0.16
  -5  -3   3    3.88    0.15
   4   3  -3    4.19    0.17
  -4  -3   3    4.41    0.17
  -4  -3   3    4.60    0.17
  -3  -3   3    3.31    0.13
  -3  -3   3    3.30    0.12
  -3  -3   3    3.11    0.13
   2   3  -3    0.40    0.04
  -2  -3   3    0.32    0.03
  -2  -3   3    0.41    0.04
   1   3  -3   13.60    0.44
   1   3  -3   14.05    0.43
  -1  -3   3   13.62    0.41
  -1  -3   3   13.90    0.44
   0   3  -3   24.73    0.76
   0   3  -3   24.83    0.77
   0  -3   3   24.87    0.71
  -1   3  -3    6.03    0.23
   1  -3   3    7.89    0.21
  -2   3  -3    3.92    0.15
  -2   3  -3    4.11    0.15
  -2   3  -3    4.00    0.12
  -3   3  -3    0.17    0.04
  -3   3  -3    0.21    0.02
  -4   3  -3   14.70    0.51
  -4   3  -3   15.50    0.43
  -5   3  -3    1.25    0.11
  -5   3  -3    1.18    0.07
  -6   3  -3    2.44    0.16
  -7   3  -3    0.91    0.11
  -8   3  -3    3.07    0.21
  -8  -2   3    0.13    0.06
  -8  -2   3    0.08    0.06
  -7  -2   3    1.41    0.11
  -7  -2   3    1.22    0.10
  -7  -2   3    1.25    0.11
   6   2  -3    0.03    0.05
  -6  -2   3    0.03    0.04
  -6  -2   3    0.10    0.04
  -6  -2   3    0.02    0.05
  -6  -2   3    0.00    0.04
   5   2  -3    1.86    0.11
  -5  -2   3    2.10    0.11
  -5  -2   3    2.15    0.11
  -5  -2   3    2.07    0.10
  -5  -2   3    1.82    0.11
   4   2  -3    0.89    0.08
  -4  -2   3    0.86    0.08
  -4  -2   3    1.02    0.08
  -4  -2   3    1.25    0.08
  -4  -2   3    0.93    0.07
  -3  -2   3   35.48    1.02
  -3  -2   3   35.31    0.90
  -3  -2   3   35.70    1.10
   2   2  -3    1.50    0.08
  -2  -2   3    1.52    0.07
  -2  -2   3    1.45    0.06
   1   2  -3    9.90    0.30
   1   2  -3    9.19    0.30
  -1  -2   3    9.29    0.30
  -1  -2   3    9.40    0.28
   0   2  -3    1.13    0.06
   0   2  -3    1.13    0.06
   0  -2   3    1.19    0.05
  -1   2  -3   44.47    1.34
  -1   2  -3   41.89    1.31
   1  -2   3   43.77    1.21
  -2   2  -3    0.01    0.03
  -2   2  -3    0.03    0.01
  -2   2  -3    0.02    0.03
  -3   2  -3    0.58    0.06
  -3   2  -3    0.67    0.04
  -3   2  -3    0.62    0.06
  -4   2  -3   11.91    0.41
  -5   2  -3    6.07    0.25
  -5   2  -3    6.10    0.20
  -6   2  -3    1.08    0.11
  -7   2  -3    3.68    0.20
  -8   2  -3    3.65    0.22
  -9  -1   3    0.20    0.07
  -9  -1   3    0.15    0.07
  -8  -1   3    0.72    0.09
  -8  -1   3    0.56    0.08
   7   1  -3    0.13    0.07
  -7  -1   3    0.18    0.06
  -7  -1   3    0.11    0.06
  -7  -1   3    0.15    0.05
   6   1  -3    0.14    0.06
  -6  -1   3   -0.03    0.04
  -6  -1   3   -0.02    0.04
  -6  -1   3    0.03    0.04
  -6  -1   3   -0.08    0.05
   5   1  -3    0.87    0.08
  -5  -1   3    0.85    0.09
  -5  -1   3    0.94    0.07
  -5  -1   3    0.87    0.07
  -5  -1   3    0.87    0.08
   4   1  -3    0.08    0.04
  -4  -1   3    0.06    0.03
  -4  -1   3   -0.08    0.04
  -4  -1   3    0.03    0.03
  -4  -1   3    0.03    0.03
   3   1  -3   19.40    0.60
  -3  -1   3   19.40    0.57
  -3  -1   3   19.34    0.60
   2   1  -3   21.41    0.65
  -2  -1   3   20.80    0.58
  -2  -1   3   21.07    0.54
   1   1  -3  103.77    3.01
  -1  -1   3   98.77    2.70
  -1  -1   3  100.39    2.71
  -1  -1   3   99.27    2.94
   0   1  -3  107.55    3.21
   0   1  -3   91.18    3.13
   0  -1   3  109.24    2.93
   0  -1   3  109.51    2.67
   0  -1   3  107.33    2.81
  -1   1  -3  928.10   28.78
  -1   1  -3 1000.00   29.47
   1  -1   3  970.22   27.41
  -2   1  -3    0.85    0.03
  -2   1  -3    0.65    0.06
  -2   1  -3    0.81    0.04
  -3   1  -3   52.70    1.41
  -3   1  -3   51.95    1.63
  -3   1  -3   50.48    1.58
  -3   1  -3   54.28    1.30
  -4   1  -3    2.07    0.08
  -4   1  -3    2.26    0.13
  -4   1  -3    2.03    0.08
  -5   1  -3    5.37    0.16
  -5   1  -3    5.30    0.18
  -5   1  -3    5.26    0.22
  -6   1  -3    0.46    0.08
  -6   1  -3    0.55    0.05
  -7   1  -3    2.06    0.16
  -8   1  -3    0.39    0.11
  -9   0   3    0.45    0.08
   8   0  -3    0.73    0.11
  -8   0   3    0.61    0.08
   7   0  -3    3.83    0.20
  -7   0   3    4.06    0.16
  -7   0   3    4.11    0.18
  -7   0   3    4.18    0.18
  -7   0   3    4.26    0.20
   6   0  -3   10.62    0.38
  -6   0   3   11.04    0.35
  -6   0   3   10.98    0.38
  -6   0   3   10.53    0.32
  -6   0   3   10.81    0.35
   5   0  -3    1.47    0.11
  -5   0   3    1.56    0.10
  -5   0   3    1.43    0.09
  -5   0   3    1.53    0.09
  -5   0   3    1.42    0.10
   4   0  -3   26.69    0.81
  -4   0   3   26.20    0.82
  -4   0   3   26.23    0.73
  -4   0   3   25.55    0.76
  -4   0   3   25.78    0.68
   3   0  -3   14.77    0.48
  -3   0   3   15.43    0.47
  -3   0   3   14.74    0.44
  -2   0   3    3.79    0.12
  -2   0   3    4.13    0.13
  -2   0   3    3.73    0.13
   1   0  -3    0.15    0.02
   1   0  -3    0.15    0.03
  -1   0   3    0.16    0.02
  -1   0   3    0.15    0.02
  -1   0   3    0.22    0.02
   0   0  -3   21.04    0.64
   0   0  -3   21.06    0.66
   0   0   3   21.15    0.60
   0   0   3   21.40    0.57
  -1   0  -3   57.63    1.75
  -1   0  -3   59.70    1.80
   1   0   3   57.99    1.64
  -2   0  -3    0.17    0.03
  -3   0  -3   21.32    0.71
  -3   0  -3   22.96    0.68
  -3   0  -3   22.26    0.56
  -4   0  -3   26.75    0.66
  -4   0  -3   26.87    0.83
  -4   0  -3   26.55    0.72
  -4   0  -3   23.61    0.74
  -5   0  -3    0.11    0.03
  -5   0  -3    0.50    0.07
  -5   0  -3    0.14    0.04
  -6   0  -3    2.19    0.11
  -6   0  -3    2.06    0.14
  -6   0  -3    2.06    0.10
  -7   0  -3    0.33    0.09
  -8   0  -3    1.23    0.14
  -9   1   3    0.18    0.07
   8  -1  -3    1.60    0.16
  -8   1   3    1.54    0.12
   7  -1  -3    2.28    0.17
  -7   1   3    2.56    0.15
  -7   1   3    2.27    0.13
   6  -1  -3    7.09    0.29
  -6   1   3    7.32    0.25
  -6   1   3    7.26    0.25
  -6   1   3    7.46    0.28
  -5   1   3    0.01    0.04
  -5   1   3    0.02    0.04
  -5   1   3    0.02    0.03
  -4   1   3   34.13    0.96
  -4   1   3   34.92    1.08
  -4   1   3   34.31    0.99
  -3   1   3    1.94    0.09
  -3   1   3    2.07    0.09
  -3   1   3    2.00    0.09
  -2   1   3   62.37    1.82
  -2   1   3   55.95    1.60
   1  -1  -3   18.78    0.56
   1  -1  -3   17.27    0.55
  -1   1   3   18.26    0.56
  -1   1   3   16.86    0.49
   0  -1  -3  128.45    3.81
   0  -1  -3  125.63    3.91
   0   1   3  128.70    3.57
   0   1   3  128.66    3.43
  -1  -1  -3    0.93    0.05
  -1  -1  -3    0.75    0.07
   1   1   3    0.94    0.05
  -3  -1  -3    0.21    0.05
  -3  -1  -3    0.23    0.03
  -4  -1  -3    6.34    0.25
  -4  -1  -3    6.32    0.19
  -5  -1  -3    8.19    0.31
  -5  -1  -3    7.93    0.26
  -5  -1  -3    7.86    0.25
  -5  -1  -3    8.03    0.23
  -6  -1  -3    1.55    0.10
  -6  -1  -3    1.49    0.09
  -6  -1  -3    1.56    0.13
  -7  -1  -3    2.80    0.18
  -8  -1  -3    3.12    0.20
   8  -2  -3    0.40    0.10
  -8   2   3    0.64    0.08
  -7   2   3    2.45    0.16
  -7   2   3    2.18    0.13
  -6   2   3    0.97    0.08
  -6   2   3    1.06    0.09
  -6   2   3    1.14    0.11
  -5   2   3    0.20    0.05
  -5   2   3    0.24    0.04
  -5   2   3    0.32    0.06
  -4   2   3   17.23    0.50
  -4   2   3   17.48    0.51
  -4   2   3   17.23    0.56
  -3   2   3    7.23    0.23
  -3   2   3    7.30    0.23
  -3   2   3    7.20    0.25
  -2   2   3    4.72    0.17
  -2   2   3    5.56    0.18
   1  -2  -3    0.82    0.06
   1  -2  -3    1.34    0.07
  -1   2   3    1.09    0.06
  -1   2   3    1.26    0.07
  -1   2   3    0.86    0.06
   0  -2  -3   26.72    0.76
   0   2   3   24.72    0.71
   0   2   3   23.25    0.68
  -1  -2  -3    9.83    0.33
  -1  -2  -3    9.47    0.30
   1   2   3   10.02    0.30
  -2  -2  -3   29.00    0.92
  -3  -2  -3   34.09    1.08
  -4  -2  -3    0.13    0.06
  -5  -2  -3    1.69    0.09
  -5  -2  -3    1.39    0.13
  -6  -2  -3    2.29    0.11
  -6  -2  -3    2.16    0.16
  -6  -2  -3    2.22    0.12
  -7  -2  -3    2.59    0.18
  -8  -2  -3    1.34    0.14
   8  -3  -3    0.59    0.12
  -8   3   3    0.52    0.08
  -7   3   3    7.35    0.29
  -7   3   3    6.52    0.25
  -6   3   3    1.32    0.10
  -6   3   3    1.37    0.12
  -5   3   3   39.57    1.13
  -5   3   3   41.06    1.16
  -5   3   3   40.64    1.28
  -4   3   3    6.42    0.22
  -4   3   3    6.49    0.22
  -4   3   3    6.31    0.24
  -3   3   3   16.36    0.48
  -3   3   3   16.14    0.47
  -3   3   3   16.08    0.53
  -2   3   3   14.16    0.42
  -2   3   3   13.64    0.45
   1  -3  -3    5.95    0.22
  -1   3   3    6.07    0.20
  -1   3   3    6.41    0.22
  -1   3   3    5.93    0.19
   0  -3  -3   21.14    0.68
   0  -3  -3   21.94    0.66
  -1  -3  -3   53.04    1.59
   1   3   3   53.04    1.50
  -2  -3  -3   16.64    0.55
  -3  -3  -3    3.30    0.17
  -4  -3  -3    1.46    0.13
  -5  -3  -3    0.68    0.09
  -6  -3  -3   12.68    0.47
  -6  -3  -3   12.48    0.37
  -6  -3  -3   12.92    0.41
  -7  -3  -3    2.66    0.19
  -7  -3  -3    3.06    0.14
  -8  -3  -3    0.38    0.11
  -8   4   3    2.46    0.16
  -7   4   3    2.12    0.16
  -7   4   3    2.17    0.14
  -6   4   3    3.00    0.17
  -6   4   3    2.77    0.14
  -5   4   3    4.09    0.17
  -5   4   3    3.92    0.19
  -5   4   3    4.31    0.17
  -4   4   3   21.42    0.71
  -4   4   3   22.55    0.65
  -4   4   3   21.53    0.63
  -3   4   3    5.33    0.19
  -3   4   3    5.49    0.21
  -3   4   3    5.43    0.19
   2  -4  -3    0.49    0.06
  -2   4   3    0.49    0.05
  -2   4   3    0.51    0.06
  -2   4   3    0.49    0.05
   1  -4  -3   10.96    0.38
  -1   4   3   10.94    0.37
  -1   4   3   11.24    0.35
  -1   4   3   11.30    0.33
   0  -4  -3    5.68    0.21
   0  -4  -3    5.76    0.19
   0   4   3    4.91    0.18
  -1  -4  -3    7.03    0.23
   1   4   3    7.27    0.24
  -2  -4  -3    1.51    0.11
  -3  -4  -3    6.21    0.26
  -4  -4  -3    5.05    0.23
  -5  -4  -3    2.43    0.17
  -6  -4  -3    0.06    0.08
  -6  -4  -3    0.01    0.04
  -7  -4  -3    0.57    0.07
  -7  -4  -3    0.79    0.12
  -8   5   3    2.60    0.16
  -8   5   3    3.04    0.20
  -7   5   3    1.63    0.13
  -7   5   3    1.95    0.16
  -6   5   3    5.26    0.24
  -6   5   3    5.40    0.21
  -5   5   3    7.28    0.26
  -5   5   3    7.69    0.30
  -5   5   3    7.51    0.26
  -4   5   3    5.17    0.20
  -4   5   3    5.34    0.20
  -4   5   3    5.25    0.22
  -3   5   3    2.41    0.14
  -3   5   3    2.52    0.12
  -3   5   3    2.23    0.12
   2  -5  -3    5.79    0.23
  -2   5   3    5.80    0.21
  -2   5   3    5.54    0.23
   1  -5  -3   10.96    0.39
  -1   5   3   11.36    0.35
  -1   5   3   10.80    0.38
   0  -5  -3   19.86    0.66
   0  -5  -3   20.40    0.63
   0   5   3   20.19    0.60
  -2  -5  -3    1.46    0.12
  -3  -5  -3    5.49    0.24
  -4  -5  -3   -0.03    0.07
  -5  -5  -3    0.10    0.08
  -6  -5  -3   -0.05    0.08
  -7  -5  -3    0.58    0.12
  -7  -5  -3    0.87    0.09
  -7   6   3    1.83    0.14
  -7   6   3    1.97    0.17
  -6   6   3    1.86    0.15
  -6   6   3    1.92    0.13
  -5   6   3    1.30    0.10
  -5   6   3    1.26    0.13
  -4   6   3    4.08    0.17
  -4   6   3    3.98    0.20
  -4   6   3    4.40    0.17
   3  -6  -3    0.81    0.09
  -3   6   3    0.89    0.08
  -3   6   3    0.85    0.09
  -3   6   3    0.71    0.07
   2  -6  -3    0.97    0.10
  -2   6   3    1.11    0.09
  -2   6   3    0.95    0.09
   1  -6  -3    1.37    0.12
  -1   6   3    1.15    0.11
  -1   6   3    1.22    0.09
   0  -6  -3    0.04    0.05
   0  -6  -3   -0.03    0.05
   0   6   3    0.01    0.04
  -1  -6  -3    1.24    0.12
  -2  -6  -3    1.96    0.14
  -3  -6  -3    3.63    0.20
  -4  -6  -3   10.35    0.40
  -5  -6  -3    2.32    0.18
  -6  -6  -3    0.48    0.11
  -7   7   3    0.75    0.12
  -7   7   3    0.60    0.09
  -6   7   3    1.74    0.13
  -6   7   3    2.07    0.17
  -5   7   3    1.19    0.10
  -5   7   3    1.17    0.12
   4  -7  -3    3.13    0.19
  -4   7   3    2.77    0.15
  -4   7   3    2.98    0.15
  -4   7   3    2.98    0.18
   3  -7  -3    0.65    0.10
  -3   7   3    0.70    0.09
  -3   7   3    0.71    0.07
   2  -7  -3    4.39    0.21
  -2   7   3    4.27    0.18
  -2   7   3    4.33    0.21
   1  -7  -3    3.52    0.19
  -1   7   3    3.63    0.16
  -1   7   3    3.35    0.18
   0  -7  -3   20.67    0.70
  -1  -7  -3    0.20    0.07
  -2  -7  -3    1.93    0.15
  -3  -7  -3    3.21    0.19
  -4  -7  -3    6.38    0.29
  -5  -7  -3    0.46    0.11
  -6  -7  -3    1.10    0.14
  -6   8   3    0.00    0.06
  -6   8   3    0.23    0.10
   5  -8  -3    0.53    0.11
  -5   8   3    0.67    0.11
  -5   8   3    0.58    0.09
   4  -8  -3    3.16    0.19
  -4   8   3    2.67    0.15
  -4   8   3    3.34    0.19
   3  -8  -3    7.25    0.31
  -3   8   3    6.59    0.26
  -3   8   3    7.45    0.30
   2  -8  -3    2.49    0.17
  -2   8   3    2.41    0.16
  -2   8   3    2.40    0.13
   1  -8  -3    2.61    0.17
  -1   8   3    2.69    0.17
   0  -8  -3    0.85    0.11
  -1  -8  -3    2.62    0.17
  -2  -8  -3    6.88    0.30
  -3  -8  -3    9.59    0.38
  -4  -8  -3    4.66    0.25
  -5  -8  -3   -0.05    0.10
   5  -9  -3    2.08    0.18
  -5   9   3    1.79    0.18
   4  -9  -3    4.48    0.25
  -4   9   3    4.46    0.24
   3  -9  -3    4.91    0.25
  -3   9   3    4.92    0.21
  -3   9   3    4.67    0.24
   2  -9  -3    0.22    0.10
  -2   9   3    0.28    0.09
   1  -9  -3    2.79    0.19
  -1   9   3    2.94    0.19
   0  -9  -3    0.65    0.11
  -1  -9  -3    0.93    0.12
  -2  -9  -3    1.07    0.13
  -3  -9  -3    6.93    0.32
  -4  -9  -3    0.66    0.13
   3 -10  -3    0.95    0.14
  -3  10   3    1.01    0.13
   2 -10  -3    0.50    0.11
  -2  10   3    0.41    0.10
   1 -10  -3    0.04    0.09
   0 -10  -3    0.33    0.10
  -1 -10  -3    1.41    0.15
  -2 -10  -3    3.92    0.24
  -3 -11   4   -0.03    0.07
  -2 -11   4    0.78    0.11
  -1 -11   4    1.72    0.17
   0  11  -4    3.42    0.21
   0 -11   4    3.07    0.21
  -1  11  -4    1.94    0.17
   1 -11   4    2.07    0.18
  -2  11  -4    0.79    0.12
   2 -11   4    0.67    0.12
  -3  11  -4    1.31    0.14
   3 -11   4    0.83    0.13
  -4 -10   4    2.32    0.16
  -3 -10   4    2.14    0.15
  -3 -10   4    2.25    0.17
  -2 -10   4    3.54    0.20
   1  10  -4    1.71    0.15
  -1 -10   4    1.68    0.15
   0  10  -4    4.66    0.23
   0 -10   4    4.74    0.23
  -1  10  -4    1.52    0.14
   1 -10   4    1.07    0.13
  -2  10  -4    6.84    0.29
   2 -10   4    6.70    0.31
  -3  10  -4    2.49    0.17
  -4  10  -4    5.85    0.28
  -5  10  -4    2.10    0.18
  -5  -9   4    2.22    0.15
  -4  -9   4    2.01    0.14
  -3  -9   4    3.86    0.20
  -3  -9   4    3.56    0.18
  -2  -9   4    3.45    0.19
   1   9  -4    0.45    0.08
  -1  -9   4    0.61    0.09
   0   9  -4    0.59    0.08
   0  -9   4    0.48    0.09
  -1   9  -4    3.18    0.18
   1  -9   4    3.47    0.19
  -2   9  -4    1.28    0.12
  -3   9  -4    0.23    0.08
  -4   9  -4    0.37    0.09
  -5   9  -4    0.50    0.10
  -6  -8   4    0.03    0.06
  -6  -8   4    0.00    0.06
  -5  -8   4    0.49    0.08
  -4  -8   4    1.08    0.10
  -4  -8   4    1.30    0.13
  -3  -8   4    6.88    0.27
  -3  -8   4    7.35    0.28
  -2  -8   4    0.17    0.06
   1   8  -4    1.08    0.10
  -1  -8   4    1.16    0.11
   0   8  -4    5.49    0.22
   0   8  -4    5.59    0.24
   0  -8   4    5.94    0.24
  -1   8  -4   20.31    0.68
  -2   8  -4    6.65    0.27
  -3   8  -4    0.97    0.10
  -4   8  -4    5.38    0.24
  -5   8  -4    3.54    0.20
  -6   8  -4    0.23    0.09
  -7  -7   4    0.82    0.10
  -7  -7   4    0.60    0.10
  -7  -7   4    0.85    0.10
  -6  -7   4    4.11    0.18
  -6  -7   4    4.18    0.20
  -5  -7   4    2.20    0.14
  -4  -7   4    0.30    0.06
  -4  -7   4    0.32    0.07
  -3  -7   4    0.39    0.07
  -3  -7   4    0.44    0.07
  -2  -7   4    0.16    0.06
   1   7  -4    0.84    0.08
   1   7  -4    1.17    0.10
  -1  -7   4    1.02    0.10
   0   7  -4   12.40    0.43
   0   7  -4   12.41    0.42
   0  -7   4   12.77    0.43
  -1   7  -4   13.77    0.48
  -1   7  -4   14.23    0.47
  -2   7  -4    1.04    0.09
  -2   7  -4    1.18    0.10
  -3   7  -4   12.39    0.44
  -4   7  -4   13.57    0.48
  -5   7  -4    4.60    0.23
  -6   7  -4    0.56    0.11
  -7   7  -4    1.65    0.17
  -7  -6   4    2.86    0.16
  -7  -6   4    2.82    0.17
  -7  -6   4    2.99    0.15
  -6  -6   4    3.59    0.18
  -6  -6   4    3.67    0.16
  -5  -6   4    1.39    0.10
  -5  -6   4    1.40    0.11
  -4  -6   4   20.08    0.65
  -4  -6   4   19.40    0.61
  -3  -6   4   26.19    0.79
  -3  -6   4   26.30    0.84
   2   6  -4   12.05    0.39
  -2  -6   4   11.97    0.38
  -2  -6   4   12.04    0.40
   1   6  -4    1.81    0.11
   1   6  -4    1.96    0.10
  -1  -6   4    1.89    0.11
   0   6  -4   11.43    0.39
   0   6  -4   11.52    0.38
  -1   6  -4   21.79    0.70
  -1   6  -4   21.59    0.69
  -2   6  -4    3.14    0.16
  -2   6  -4    3.31    0.15
  -3   6  -4    9.47    0.34
  -4   6  -4    4.62    0.21
  -5   6  -4    6.51    0.28
  -6   6  -4    0.30    0.09
  -7   6  -4   10.13    0.41
  -8  -5   4    0.98    0.10
  -8  -5   4    1.08    0.11
  -8  -5   4    1.51    0.13
  -7  -5   4    3.12    0.16
  -7  -5   4    3.18    0.17
  -7  -5   4    3.43    0.17
  -6  -5   4    1.31    0.11
  -6  -5   4    1.12    0.09
  -6  -5   4    1.27    0.11
  -5  -5   4    3.02    0.15
  -5  -5   4    2.98    0.13
  -4  -5   4    2.00    0.12
  -4  -5   4    1.56    0.12
   3   5  -4   10.23    0.34
  -3  -5   4   11.12    0.36
   2   5  -4    0.05    0.03
  -2  -5   4    0.00    0.03
  -2  -5   4    0.04    0.04
   1   5  -4   16.89    0.55
   1   5  -4   17.27    0.54
  -1  -5   4   17.20    0.55
  -1  -5   4   17.13    0.51
   0   5  -4   90.52    2.71
   0   5  -4   89.90    2.77
  -1   5  -4   28.50    0.91
  -1   5  -4   29.25    0.89
  -2   5  -4   10.36    0.35
  -2   5  -4    9.94    0.35
  -4   5  -4    6.39    0.26
  -5   5  -4    0.02    0.06
  -6   5  -4    1.33    0.13
  -7   5  -4    1.38    0.14
  -8   5  -4    0.92    0.14
  -8  -4   4    0.57    0.09
  -8  -4   4    0.50    0.09
  -8  -4   4    0.60    0.08
  -7  -4   4    3.59    0.18
  -7  -4   4    3.39    0.17
  -7  -4   4    3.25    0.16
  -6  -4   4    9.90    0.31
  -6  -4   4    9.99    0.34
  -6  -4   4   10.43    0.35
  -5  -4   4    2.98    0.13
  -5  -4   4    2.96    0.15
  -5  -4   4    3.23    0.15
  -5  -4   4    3.08    0.14
   4   4  -4   33.65    1.04
  -4  -4   4   33.37    1.00
  -4  -4   4   35.29    1.07
   3   4  -4    2.36    0.11
  -3  -4   4    2.58    0.12
  -2  -4   4   10.94    0.35
  -2  -4   4   10.97    0.34
   1   4  -4    0.19    0.03
   1   4  -4    0.18    0.03
  -1  -4   4    0.15    0.03
  -1  -4   4    0.20    0.03
   0   4  -4   12.53    0.40
   0  -4   4   12.50    0.37
  -1   4  -4    0.19    0.04
  -1   4  -4    0.16    0.04
   1  -4   4    0.13    0.02
  -2   4  -4   10.48    0.36
   2  -4   4   10.66    0.31
  -3   4  -4    0.24    0.05
  -3   4  -4    0.25    0.05
  -5   4  -4    0.27    0.07
  -6   4  -4    4.68    0.23
  -7   4  -4    0.88    0.12
  -8   4  -4    0.49    0.12
  -8  -3   4    2.87    0.16
  -8  -3   4    2.54    0.15
  -8  -3   4    2.25    0.14
  -7  -3   4    3.86    0.17
  -7  -3   4    4.12    0.18
  -7  -3   4    4.09    0.19
  -6  -3   4    2.97    0.14
  -6  -3   4    2.99    0.15
  -6  -3   4    2.84    0.13
   5   3  -4    0.19    0.05
  -5  -3   4    0.22    0.05
  -5  -3   4    0.11    0.04
  -5  -3   4    0.26    0.05
  -5  -3   4    0.28    0.05
   4   3  -4    0.70    0.06
  -4  -3   4    0.79    0.08
  -4  -3   4    0.77    0.07
   3   3  -4    1.51    0.09
  -3  -3   4    1.54    0.08
  -3  -3   4    1.68    0.08
  -3  -3   4    1.34    0.09
  -2  -3   4    0.43    0.04
  -2  -3   4    0.37    0.03
   1   3  -4    2.89    0.11
  -1  -3   4    3.51    0.12
  -1  -3   4    2.93    0.11
   0   3  -4   12.81    0.42
   0  -3   4   13.66    0.39
  -1   3  -4    2.89    0.11
  -1   3  -4    2.04    0.10
  -2   3  -4    6.19    0.22
  -2   3  -4    6.32    0.22
  -3   3  -4    0.46    0.06
  -3   3  -4    0.41    0.05
  -3   3  -4    0.42    0.04
  -5   3  -4    6.15    0.25
  -6   3  -4    5.35    0.24
  -7   3  -4    3.68    0.21
  -8   3  -4    6.11    0.29
  -8  -2   4    0.24    0.07
  -8  -2   4    0.20    0.07
  -7  -2   4    2.31    0.14
  -7  -2   4    2.55    0.14
  -7  -2   4    2.12    0.12
   6   2  -4    0.07    0.06
  -6  -2   4    0.13    0.05
  -6  -2   4    0.13    0.05
  -6  -2   4    0.12    0.05
   5   2  -4    4.21    0.18
  -5  -2   4    4.49    0.16
  -5  -2   4    4.44    0.17
  -5  -2   4    4.39    0.17
  -5  -2   4    4.27    0.17
   4   2  -4    1.18    0.09
  -4  -2   4    1.22    0.09
   3   2  -4   32.81    1.00
  -3  -2   4   32.95    0.83
  -3  -2   4   32.21    0.91
  -3  -2   4   32.71    1.01
  -3  -2   4   32.76    0.94
  -2  -2   4    0.24    0.03
  -2  -2   4    0.32    0.03
  -1  -2   4   46.08    1.16
  -1  -2   4   46.85    1.31
   0   2  -4   11.03    0.36
   0  -2   4   11.69    0.33
   0  -2   4   11.32    0.29
  -1   2  -4  162.99    5.03
  -1   2  -4  167.61    4.91
   1  -2   4  162.60    4.61
  -2   2  -4    3.63    0.15
  -2   2  -4    3.97    0.15
  -3   2  -4   13.80    0.37
  -3   2  -4   13.70    0.45
  -3   2  -4   12.87    0.43
  -4   2  -4   -0.02    0.02
  -4   2  -4    0.06    0.02
  -4   2  -4   -0.04    0.04
  -5   2  -4    2.41    0.15
  -6   2  -4    1.14    0.11
  -7   2  -4    3.75    0.21
  -8   2  -4    1.00    0.13
  -9  -1   4    1.34    0.12
  -8  -1   4    0.60    0.08
  -8  -1   4    0.77    0.09
   7   1  -4    5.10    0.23
  -7  -1   4    5.25    0.21
  -7  -1   4    5.34    0.21
  -7  -1   4    4.91    0.19
   6   1  -4    1.86    0.13
  -6  -1   4    1.71    0.12
  -6  -1   4    1.84    0.10
  -6  -1   4    1.64    0.11
   5   1  -4    1.50    0.11
  -5  -1   4    1.80    0.11
  -5  -1   4    1.57    0.09
  -5  -1   4    1.64    0.10
  -5  -1   4    1.51    0.10
   4   1  -4    6.33    0.23
  -4  -1   4    6.18    0.22
  -4  -1   4    6.27    0.22
   3   1  -4   21.30    0.66
  -3  -1   4   21.06    0.55
  -3  -1   4   21.15    0.62
  -3  -1   4   21.53    0.66
  -3  -1   4   21.32    0.60
   2   1  -4    4.90    0.19
  -2  -1   4    6.19    0.18
  -2  -1   4    5.91    0.16
  -1  -1   4   10.83    0.31
  -1  -1   4   11.42    0.33
  -1  -1   4   10.72    0.28
   0   1  -4  123.96    3.72
   0   1  -4  112.02    3.64
   0  -1   4  122.22    3.40
   0  -1   4  122.77    3.26
   0  -1   4  128.02    3.03
  -1   1  -4    3.40    0.13
  -1   1  -4    3.22    0.13
   1  -1   4    3.53    0.11
  -2   1  -4    1.09    0.08
  -2   1  -4    0.91    0.07
   2  -1   4    0.90    0.04
  -3   1  -4    0.01    0.02
  -3   1  -4    0.07    0.02
  -3   1  -4    0.05    0.03
  -3   1  -4    0.03    0.02
  -4   1  -4    9.54    0.32
  -4   1  -4   12.07    0.37
  -4   1  -4   12.30    0.33
  -5   1  -4   26.50    0.87
  -5   1  -4   26.93    0.69
  -6   1  -4    2.08    0.15
  -7   1  -4    3.79    0.21
  -8   1  -4    0.66    0.12
  -9   0   4    0.16    0.07
   8   0  -4    1.62    0.16
  -8   0   4    1.84    0.13
   7   0  -4    1.02    0.11
  -7   0   4    1.01    0.09
  -7   0   4    1.02    0.09
   6   0  -4    6.31    0.26
  -6   0   4    6.25    0.23
  -6   0   4    6.58    0.25
  -6   0   4    6.54    0.23
  -6   0   4    6.52    0.22
   5   0  -4    3.37    0.16
  -5   0   4    3.17    0.13
  -5   0   4    3.04    0.14
  -5   0   4    3.34    0.14
  -5   0   4    3.33    0.14
   4   0  -4   11.75    0.40
  -4   0   4   12.15    0.37
  -4   0   4   11.70    0.36
  -4   0   4   11.78    0.38
   3   0  -4    1.25    0.09
  -3   0   4    1.09    0.06
  -3   0   4    1.38    0.08
  -3   0   4    1.26    0.06
  -3   0   4    1.32    0.07
   2   0  -4    0.18    0.04
  -2   0   4    0.18    0.02
  -2   0   4    0.23    0.03
  -2   0   4    0.16    0.03
  -2   0   4    0.17    0.03
   1   0  -4    1.15    0.06
   1   0  -4    1.29    0.08
  -1   0   4    1.22    0.06
  -1   0   4    1.37    0.06
   0   0  -4   17.23    0.56
   0   0  -4   18.16    0.56
   0   0   4   18.23    0.52
   0   0   4   18.53    0.49
  -1   0  -4    2.37    0.09
  -1   0  -4    2.17    0.10
   1   0   4    2.19    0.08
  -2   0  -4    7.79    0.27
  -2   0  -4    8.35    0.26
   2   0   4    7.58    0.24
  -3   0  -4    0.38    0.04
  -3   0  -4    0.53    0.04
  -4   0  -4   20.91    0.54
  -4   0  -4   20.82    0.58
  -4   0  -4   20.85    0.69
  -5   0  -4    0.17    0.04
  -5   0  -4    0.13    0.04
  -5   0  -4   -0.01    0.06
  -6   0  -4    1.08    0.11
  -7   0  -4    3.25    0.20
  -8   0  -4    0.24    0.10
   8  -1  -4    0.57    0.11
  -8   1   4    0.59    0.08
   7  -1  -4    2.26    0.16
  -7   1   4    2.26    0.13
  -7   1   4    2.62    0.14
   6  -1  -4    1.04    0.11
  -6   1   4    1.45    0.11
  -6   1   4    1.10    0.10
  -6   1   4    1.14    0.10
   5  -1  -4    5.75    0.23
  -5   1   4    5.50    0.20
  -5   1   4    5.77    0.22
  -5   1   4    5.64    0.20
   4  -1  -4    0.06    0.05
  -4   1   4    0.13    0.04
  -4   1   4    0.17    0.04
  -4   1   4    0.13    0.04
   3  -1  -4   16.76    0.54
  -3   1   4   17.19    0.54
  -3   1   4   17.03    0.50
   2  -1  -4    0.01    0.03
  -2   1   4    0.03    0.02
  -2   1   4    0.05    0.02
  -2   1   4   -0.01    0.02
   1  -1  -4   28.69    0.87
   1  -1  -4   28.84    0.85
  -1   1   4   26.86    0.86
  -1   1   4   27.21    0.76
   0  -1  -4   24.75    0.75
   0  -1  -4   24.45    0.77
   0   1   4   24.54    0.67
   0   1   4   24.76    0.71
  -1  -1  -4    2.45    0.09
  -1  -1  -4    2.04    0.10
   1   1   4    2.32    0.09
  -2  -1  -4    3.66    0.13
  -2  -1  -4    3.53    0.15
   2   1   4    3.62    0.13
  -3  -1  -4   11.28    0.36
  -4  -1  -4    6.27    0.25
  -4  -1  -4    6.30    0.18
  -5  -1  -4    0.38    0.08
  -5  -1  -4    0.38    0.05
  -5  -1  -4    0.29    0.04
  -6  -1  -4   -0.02    0.07
  -7  -1  -4    0.24    0.09
  -8  -1  -4    2.42    0.19
   8  -2  -4    0.07    0.09
  -8   2   4    0.28    0.07
   7  -2  -4    1.59    0.15
  -7   2   4    1.52    0.11
   6  -2  -4    0.32    0.08
  -6   2   4    0.33    0.07
  -6   2   4    0.24    0.05
  -6   2   4    0.26    0.06
   5  -2  -4    3.34    0.18
  -5   2   4    3.24    0.16
  -5   2   4    3.27    0.14
  -5   2   4    3.14    0.14
  -4   2   4   11.18    0.34
  -4   2   4   11.31    0.35
  -4   2   4   11.40    0.38
   3  -2  -4    0.21    0.05
  -3   2   4    0.17    0.04
  -3   2   4    0.27    0.04
   2  -2  -4    7.53    0.26
   2  -2  -4    6.47    0.26
  -2   2   4    8.46    0.26
  -2   2   4    7.91    0.24
  -2   2   4    7.97    0.24
   1  -2  -4    6.16    0.21
  -1   2   4    6.38    0.21
  -1   2   4    5.77    0.19
   0  -2  -4   16.63    0.52
   0  -2  -4   16.75    0.51
   0   2   4   15.47    0.48
   0   2   4   16.28    0.46
  -1  -2  -4    0.01    0.03
  -1  -2  -4    0.05    0.04
   1   2   4    0.02    0.03
  -2  -2  -4    3.64    0.16
  -2  -2  -4    3.69    0.13
   2   2   4    3.42    0.13
  -3  -2  -4    5.54    0.22
  -3  -2  -4    5.36    0.18
  -4  -2  -4    9.23    0.34
  -5  -2  -4    1.21    0.08
  -5  -2  -4    1.43    0.13
  -6  -2  -4    5.27    0.25
  -6  -2  -4    5.21    0.18
  -7  -2  -4    5.96    0.28
  -8  -2  -4    1.71    0.17
   8  -3  -4    0.77    0.12
  -8   3   4    0.85    0.09
   7  -3  -4    0.77    0.11
  -7   3   4    0.61    0.08
  -7   3   4    0.74    0.10
  -6   3   4    1.16    0.11
  -6   3   4    0.80    0.08
  -6   3   4    1.01    0.08
  -5   3   4    0.77    0.07
  -5   3   4    0.76    0.07
  -5   3   4    0.75    0.08
  -4   3   4    8.36    0.31
  -4   3   4    8.87    0.28
  -4   3   4    8.91    0.28
  -3   3   4    1.95    0.10
  -3   3   4    1.94    0.11
   2  -3  -4    9.33    0.32
   2  -3  -4    9.40    0.32
  -2   3   4    9.39    0.29
  -2   3   4    9.71    0.30
  -2   3   4    9.35    0.32
   1  -3  -4   29.37    0.94
   1  -3  -4   29.76    0.92
  -1   3   4   29.42    0.83
  -1   3   4   30.86    0.87
  -1   3   4   30.41    0.94
   0  -3  -4   34.90    1.04
   0  -3  -4   33.63    1.07
   0   3   4   33.90    0.98
  -1  -3  -4   17.08    0.52
  -1  -3  -4   16.96    0.55
   1   3   4   16.33    0.50
  -4  -3  -4    1.08    0.11
  -5  -3  -4    4.03    0.21
  -6  -3  -4    2.54    0.12
  -6  -3  -4    2.40    0.18
  -7  -3  -4    2.34    0.18
  -8  -3  -4    0.94    0.13
   8  -4  -4    0.32    0.11
  -8   4   4    0.48    0.08
   7  -4  -4    3.92    0.23
  -7   4   4    3.79    0.18
  -7   4   4    4.29    0.21
  -6   4   4    0.76    0.09
  -6   4   4    0.62    0.07
  -5   4   4   15.65    0.48
  -5   4   4   16.55    0.49
  -5   4   4   15.76    0.54
  -4   4   4    6.72    0.26
  -4   4   4    6.71    0.23
  -4   4   4    6.96    0.24
  -3   4   4    6.05    0.24
  -3   4   4    6.47    0.22
   2  -4  -4    0.74    0.07
   2  -4  -4    0.60    0.07
  -2   4   4    0.64    0.07
  -2   4   4    0.77    0.06
   1  -4  -4   10.64    0.36
   1  -4  -4   11.04    0.38
  -1   4   4   11.29    0.35
  -1   4   4   10.84    0.33
  -1   4   4   11.26    0.38
   0  -4  -4   18.37    0.61
   0  -4  -4   18.91    0.58
  -1  -4  -4   13.73    0.46
  -1  -4  -4   13.64    0.42
   1   4   4   13.11    0.41
  -2  -4  -4    0.00    0.02
  -3  -4  -4    2.71    0.17
  -4  -4  -4    0.22    0.08
  -5  -4  -4    0.05    0.08
  -6  -4  -4    0.06    0.05
  -6  -4  -4   -0.02    0.08
  -7  -4  -4    1.08    0.14
  -7   5   4    2.23    0.15
  -7   5   4    2.40    0.17
  -6   5   4    0.68    0.08
  -6   5   4    0.68    0.10
  -5   5   4    1.90    0.14
  -5   5   4    1.91    0.12
  -5   5   4    2.08    0.12
  -4   5   4    1.61    0.12
  -4   5   4    1.75    0.11
  -4   5   4    1.61    0.10
   3  -5  -4    7.64    0.28
  -3   5   4    6.87    0.25
  -3   5   4    7.08    0.24
  -3   5   4    7.11    0.28
   2  -5  -4    2.06    0.13
  -2   5   4    1.90    0.13
  -2   5   4    2.28    0.11
   1  -5  -4   12.67    0.42
   1  -5  -4   12.89    0.44
  -1   5   4   12.43    0.43
  -1   5   4   12.86    0.40
   0  -5  -4    2.19    0.13
   0  -5  -4    2.37    0.12
   1   5   4    2.82    0.13
  -2  -5  -4    3.74    0.18
  -3  -5  -4   -0.01    0.07
  -4  -5  -4    0.05    0.08
  -5  -5  -4   -0.11    0.08
  -6  -5  -4    0.85    0.12
  -7  -5  -4    1.76    0.18
  -7   6   4    0.16    0.09
  -7   6   4    0.26    0.07
  -6   6   4    2.34    0.17
  -6   6   4    2.19    0.14
  -5   6   4    0.51    0.09
  -5   6   4    0.58    0.08
  -5   6   4    0.37    0.06
   4  -6  -4    2.68    0.17
  -4   6   4    2.71    0.14
  -4   6   4    2.81    0.14
  -4   6   4    2.69    0.16
   3  -6  -4    0.71    0.09
  -3   6   4    0.67    0.07
  -3   6   4    0.79    0.09
  -3   6   4    0.75    0.07
   2  -6  -4    0.24    0.07
  -2   6   4    0.21    0.05
  -2   6   4    0.23    0.07
   1  -6  -4    0.51    0.08
   1  -6  -4    0.60    0.07
  -1   6   4    0.43    0.08
  -1   6   4    0.59    0.06
   0  -6  -4   16.96    0.57
   0  -6  -4   16.99    0.54
   0   6   4   16.51    0.52
  -1  -6  -4   10.32    0.38
  -2  -6  -4    0.34    0.08
  -3  -6  -4    0.20    0.08
  -4  -6  -4    0.00    0.08
  -5  -6  -4    0.03    0.09
  -6  -6  -4    0.66    0.12
  -6   7   4    2.05    0.17
  -6   7   4    2.23    0.14
   5  -7  -4    2.31    0.17
  -5   7   4    1.99    0.13
  -5   7   4    2.64    0.17
   4  -7  -4    3.29    0.19
  -4   7   4    3.75    0.19
  -4   7   4    2.86    0.15
  -4   7   4    2.91    0.16
   3  -7  -4    2.23    0.16
  -3   7   4    2.21    0.15
  -3   7   4    1.74    0.12
   2  -7  -4    2.21    0.15
   2  -7  -4    2.03    0.15
  -2   7   4    2.15    0.13
  -2   7   4    2.07    0.15
   1  -7  -4    8.28    0.33
   1  -7  -4    8.55    0.30
  -1   7   4    8.04    0.32
  -1   7   4    8.11    0.29
   0  -7  -4    5.82    0.26
   0   7   4    6.06    0.23
  -1  -7  -4    0.20    0.08
  -2  -7  -4    0.07    0.07
  -3  -7  -4    0.46    0.10
  -4  -7  -4    2.69    0.19
  -5  -7  -4    0.53    0.12
   5  -8  -4    0.31    0.11
  -5   8   4    0.27    0.08
  -5   8   4    0.47    0.11
   4  -8  -4    0.06    0.09
  -4   8   4    0.14    0.06
  -4   8   4    0.24    0.09
   3  -8  -4    0.52    0.10
  -3   8   4    0.49    0.10
  -3   8   4    0.58    0.08
   2  -8  -4    0.04    0.07
   2  -8  -4    0.01    0.08
  -2   8   4    0.06    0.08
  -2   8   4    0.14    0.06
   1  -8  -4    2.57    0.17
  -1   8   4    2.34    0.14
   0  -8  -4    5.78    0.26
  -1  -8  -4    2.49    0.17
  -2  -8  -4    0.21    0.09
  -3  -8  -4    1.36    0.14
  -4  -8  -4    0.76    0.13
  -5  -8  -4    0.11    0.11
   4  -9  -4    2.38    0.19
   4  -9  -4    2.57    0.19
  -4   9   4    2.90    0.20
   3  -9  -4    1.64    0.16
   3  -9  -4    1.34    0.13
  -3   9   4    1.43    0.12
  -3   9   4    1.37    0.14
   2  -9  -4    1.28    0.14
  -2   9   4    1.23    0.13
   1  -9  -4    2.78    0.19
   0  -9  -4    1.92    0.16
  -1  -9  -4    0.29    0.10
  -2  -9  -4    2.01    0.18
  -3  -9  -4    2.87    0.21
   2 -10  -4    0.03    0.10
  -2  10   4    0.02    0.10
   1 -10  -4    0.19    0.10
   0 -10  -4    0.15    0.10
  -1 -10  -4    0.27    0.11
  -3 -11   5    0.79    0.11
  -2 -11   5    0.60    0.10
  -2 -11   5    0.63    0.10
   1  11  -5    3.78    0.22
  -1 -11   5    3.91    0.22
  -1 -11   5    3.62    0.19
   0  11  -5    4.05    0.23
   0 -11   5    3.88    0.23
  -1  11  -5    2.64    0.19
   1 -11   5    2.60    0.20
  -2  11  -5    0.59    0.11
   2 -11   5    0.55    0.12
  -3  11  -5    0.95    0.12
   3 -11   5    1.00    0.14
  -4 -10   5    2.03    0.15
  -3 -10   5    2.54    0.16
  -2 -10   5    6.39    0.26
  -2 -10   5    6.56    0.28
   1  10  -5    7.37    0.30
  -1 -10   5    6.95    0.30
  -1 -10   5    7.10    0.28
   0  10  -5    2.95    0.18
   0 -10   5    3.08    0.19
  -1  10  -5    0.32    0.09
   1 -10   5    0.36    0.10
  -2  10  -5    0.09    0.08
   2 -10   5    0.03    0.09
  -3  10  -5    0.71    0.11
  -4  10  -5    2.57    0.18
  -5  -9   5    0.03    0.07
  -4  -9   5    0.94    0.10
  -3  -9   5    1.22    0.11
  -2  -9   5    8.39    0.33
  -2  -9   5    8.83    0.32
   1   9  -5    1.38    0.13
  -1  -9   5    1.06    0.11
  -1  -9   5    1.22    0.10
   0   9  -5    4.82    0.22
   0   9  -5    4.83    0.21
   0  -9   5    4.78    0.23
  -1   9  -5    0.76    0.09
   1  -9   5    0.87    0.11
  -2   9  -5    5.15    0.24
  -3   9  -5    0.05    0.07
  -4   9  -5    0.11    0.08
  -5   9  -5    0.01    0.09
  -6  -8   5    0.78    0.09
  -6  -8   5    0.76    0.10
  -5  -8   5    0.66    0.09
  -4  -8   5    1.05    0.10
  -3  -8   5    4.75    0.21
  -3  -8   5    4.83    0.21
  -2  -8   5    4.84    0.20
  -2  -8   5    4.73    0.21
   1   8  -5    0.77    0.07
   1   8  -5    0.77    0.08
  -1  -8   5    0.72    0.08
  -1  -8   5    0.68    0.08
   0   8  -5    6.29    0.25
   0   8  -5    6.26    0.24
   0  -8   5    6.37    0.26
  -1   8  -5    5.44    0.23
  -1   8  -5    5.31    0.23
  -2   8  -5    0.56    0.08
  -2   8  -5    0.47    0.08
  -3   8  -5    0.20    0.07
  -4   8  -5    9.84    0.38
  -5   8  -5    4.28    0.22
  -6   8  -5    1.30    0.14
  -7  -7   5    3.52    0.19
  -7  -7   5    3.91    0.18
  -7  -7   5    3.98    0.21
  -6  -7   5    0.84    0.09
  -6  -7   5    0.81    0.10
  -5  -7   5    1.60    0.12
  -5  -7   5    1.46    0.10
  -4  -7   5    0.04    0.05
  -3  -7   5   10.56    0.36
  -3  -7   5   10.79    0.38
   2   7  -5    0.80    0.07
  -2  -7   5    0.64    0.07
  -2  -7   5    0.59    0.07
   1   7  -5    6.23    0.23
   1   7  -5    5.93    0.23
  -1  -7   5    6.03    0.24
  -1  -7   5    6.27    0.23
   0   7  -5    1.07    0.09
   0   7  -5    1.03    0.08
   0  -7   5    0.93    0.09
   0  -7   5    1.00    0.09
  -1   7  -5    7.30    0.27
  -1   7  -5    7.01    0.27
  -2   7  -5    0.51    0.07
  -2   7  -5    0.47    0.07
  -3   7  -5    3.39    0.17
  -4   7  -5    4.77    0.22
  -5   7  -5    4.80    0.24
  -6   7  -5    0.71    0.11
  -7   7  -5    4.50    0.25
  -7  -6   5    4.83    0.20
  -7  -6   5    5.01    0.22
  -7  -6   5    4.93    0.23
  -6  -6   5    0.91    0.10
  -6  -6   5    0.86    0.09
  -6  -6   5    0.94    0.09
  -5  -6   5    1.03    0.10
  -5  -6   5    1.19    0.09
  -4  -6   5    1.50    0.11
   3   6  -5   31.82    0.99
  -3  -6   5   32.34    0.96
  -3  -6   5   33.03    1.02
   2   6  -5    3.70    0.15
  -2  -6   5    3.88    0.16
  -2  -6   5    3.72    0.16
   1   6  -5    8.83    0.30
   1   6  -5    8.32    0.29
  -1  -6   5    8.89    0.30
  -1  -6   5    8.63    0.29
   0   6  -5   24.82    0.77
   0   6  -5   24.58    0.79
   0  -6   5   24.33    0.72
  -1   6  -5   53.16    1.69
  -1   6  -5   55.36    1.66
   1  -6   5   54.65    1.54
  -2   6  -5    5.64    0.22
  -2   6  -5    5.61    0.22
   2  -6   5    5.44    0.18
  -3   6  -5   18.26    0.59
  -3   6  -5   17.64    0.60
  -4   6  -5   15.51    0.54
  -5   6  -5    5.21    0.24
  -6   6  -5    0.52    0.10
  -7   6  -5    2.31    0.19
  -8  -5   5    2.59    0.16
  -8  -5   5    2.66    0.17
  -8  -5   5    2.59    0.15
  -7  -5   5    0.45    0.08
  -7  -5   5    0.52    0.08
  -7  -5   5    0.54    0.08
  -6  -5   5    6.31    0.25
  -6  -5   5    6.52    0.22
  -6  -5   5    6.16    0.24
  -5  -5   5    0.19    0.05
  -5  -5   5    0.23    0.06
   4   5  -5   37.43    1.16
  -4  -5   5   37.47    1.11
  -4  -5   5   38.28    0.98
   3   5  -5    3.29    0.14
  -3  -5   5    3.08    0.14
  -3  -5   5    3.38    0.14
   2   5  -5    1.75    0.10
  -2  -5   5    1.68    0.10
  -2  -5   5    1.68    0.09
   1   5  -5    3.99    0.16
   1   5  -5    4.03    0.16
  -1  -5   5    4.07    0.15
  -1  -5   5    4.15    0.16
   0   5  -5   39.50    1.22
   0   5  -5   39.43    1.19
   0  -5   5   38.00    1.11
  -1   5  -5   25.35    0.78
  -1   5  -5   24.46    0.79
   1  -5   5   24.37    0.71
  -2   5  -5    1.16    0.09
  -2   5  -5    1.28    0.10
   2  -5   5    1.12    0.06
  -4   5  -5    1.39    0.12
  -4   5  -5    1.56    0.12
  -5   5  -5    1.72    0.13
  -6   5  -5    0.45    0.09
  -7   5  -5    5.06    0.26
  -8  -4   5    1.63    0.12
  -8  -4   5    1.40    0.13
  -8  -4   5    1.48    0.13
  -7  -4   5    4.20    0.18
  -7  -4   5    4.56    0.20
  -7  -4   5    4.36    0.20
  -6  -4   5    7.69    0.28
  -6  -4   5    7.36    0.27
  -6  -4   5    7.24    0.25
   5   4  -5    1.20    0.10
  -5  -4   5    1.21    0.09
  -5  -4   5    1.51    0.10
  -5  -4   5    1.45    0.11
   4   4  -5    4.96    0.20
  -4  -4   5    5.42    0.20
  -4  -4   5    5.22    0.20
  -4  -4   5    5.35    0.18
   3   4  -5    0.06    0.04
  -3  -4   5   -0.01    0.02
  -3  -4   5    0.03    0.03
  -3  -4   5    0.00    0.03
   2   4  -5    7.08    0.24
  -2  -4   5    7.09    0.24
  -2  -4   5    6.95    0.23
   1   4  -5    0.11    0.03
   1   4  -5    0.07    0.04
  -1  -4   5    0.15    0.03
  -1  -4   5    0.11    0.03
   0   4  -5  102.08    3.04
   0  -4   5  100.67    2.84
  -1   4  -5    3.55    0.15
  -1   4  -5    3.46    0.14
   1  -4   5    3.59    0.12
  -2   4  -5    9.58    0.33
   2  -4   5    9.81    0.28
  -3   4  -5    7.42    0.27
  -3   4  -5    7.10    0.27
  -4   4  -5   19.59    0.65
  -4   4  -5   20.73    0.67
  -5   4  -5    5.39    0.24
  -6   4  -5    4.64    0.23
  -7   4  -5    0.68    0.11
  -8   4  -5    1.11    0.14
  -8  -3   5    0.45    0.08
  -8  -3   5    0.32    0.08
  -8  -3   5    0.22    0.07
  -7  -3   5    5.30    0.20
  -7  -3   5    5.50    0.22
  -7  -3   5    5.61    0.23
   6   3  -5    0.20    0.07
  -6  -3   5    0.19    0.05
  -6  -3   5    0.20    0.05
  -6  -3   5    0.23    0.06
   5   3  -5    2.12    0.13
  -5  -3   5    2.03    0.11
  -5  -3   5    2.06    0.12
  -5  -3   5    1.95    0.12
   4   3  -5    2.51    0.13
  -4  -3   5    2.76    0.11
  -4  -3   5    2.62    0.12
  -4  -3   5    2.66    0.13
  -4  -3   5    2.54    0.11
   3   3  -5    2.28    0.11
  -3  -3   5    1.90    0.09
  -3  -3   5    1.93    0.10
   2   3  -5    0.06    0.03
  -2  -3   5    0.08    0.03
  -2  -3   5    0.06    0.03
   1   3  -5   39.26    1.21
   1   3  -5   39.00    1.20
  -1  -3   5   39.51    0.99
  -1  -3   5   39.64    1.12
   0   3  -5   51.87    1.56
   0   3  -5   50.90    1.58
   0  -3   5   51.69    1.45
  -1   3  -5    7.18    0.24
   1  -3   5    6.92    0.21
  -2   3  -5   15.63    0.50
  -2   3  -5   15.90    0.51
  -3   3  -5    2.58    0.13
  -3   3  -5    2.49    0.13
  -4   3  -5   18.61    0.60
  -5   3  -5    0.17    0.07
  -6   3  -5    2.27    0.16
  -7   3  -5    2.24    0.17
  -8   3  -5    4.78    0.26
  -8  -2   5    0.97    0.10
  -8  -2   5    0.91    0.10
  -8  -2   5    0.95    0.10
   7   2  -5    4.96    0.22
  -7  -2   5    4.57    0.19
  -7  -2   5    5.15    0.21
  -7  -2   5    5.18    0.21
   6   2  -5    3.79    0.18
  -6  -2   5    3.85    0.17
  -6  -2   5    3.96    0.17
  -6  -2   5    3.84    0.15
   5   2  -5    5.19    0.22
  -5  -2   5    5.43    0.21
  -5  -2   5    5.45    0.20
  -5  -2   5    5.42    0.18
   4   2  -5    3.36    0.15
  -4  -2   5    3.13    0.14
  -4  -2   5    3.08    0.12
  -4  -2   5    3.27    0.12
   3   2  -5   43.91    1.32
  -3  -2   5   42.16    1.09
  -3  -2   5   43.13    1.19
  -3  -2   5   43.74    1.24
   2   2  -5   45.83    1.35
  -2  -2   5   42.86    1.21
  -2  -2   5   44.31    1.26
  -2  -2   5   44.08    1.11
   1   2  -5   45.88    1.38
  -1  -2   5   44.39    1.14
  -1  -2   5   44.87    1.24
  -1  -2   5   47.51    1.29
   0   2  -5   33.49    1.11
   0  -2   5   37.73    0.90
   0  -2   5   36.16    0.98
   0  -2   5   37.41    1.02
  -1   2  -5   35.25    1.08
   1  -2   5   35.96    1.00
  -2   2  -5   21.88    0.68
  -2   2  -5   20.56    0.66
  -3   2  -5   25.55    0.81
  -3   2  -5   26.26    0.83
  -5   2  -5    8.88    0.34
  -6   2  -5    3.60    0.19
  -7   2  -5    2.97    0.19
  -8   2  -5    1.92    0.18
  -8  -1   5    3.09    0.15
  -8  -1   5    3.02    0.16
   7   1  -5    5.71    0.25
  -7  -1   5    5.78    0.21
  -7  -1   5    5.73    0.23
  -7  -1   5    5.69    0.23
   6   1  -5    0.69    0.09
  -6  -1   5    0.66    0.07
  -6  -1   5    0.56    0.07
  -6  -1   5    0.61    0.08
   5   1  -5    2.92    0.15
  -5  -1   5    2.91    0.12
  -5  -1   5    3.16    0.14
  -5  -1   5    2.98    0.14
   4   1  -5    2.72    0.13
  -4  -1   5    2.47    0.10
  -4  -1   5    2.75    0.13
  -4  -1   5    2.46    0.11
   3   1  -5   20.94    0.65
  -3  -1   5   20.81    0.59
  -3  -1   5   21.34    0.54
  -3  -1   5   20.16    0.61
   2   1  -5    3.20    0.13
  -2  -1   5    3.05    0.12
  -2  -1   5    3.10    0.11
  -2  -1   5    3.27    0.11
  -1  -1   5   35.53    0.96
  -1  -1   5   35.01    1.00
  -1  -1   5   35.32    0.88
   0   1  -5   17.10    0.56
   0   1  -5   17.78    0.56
   0  -1   5   18.22    0.52
   0  -1   5   18.79    0.49
  -1   1  -5  132.54    4.01
   1  -1   5  136.04    3.75
  -2   1  -5    0.43    0.05
  -2   1  -5    0.39    0.04
   2  -1   5    0.44    0.04
  -3   1  -5    0.83    0.07
  -3   1  -5    0.79    0.07
  -3   1  -5    0.81    0.04
  -4   1  -5   12.82    0.43
  -4   1  -5   13.19    0.34
  -5   1  -5    7.74    0.30
  -6   1  -5    2.02    0.15
  -7   1  -5    3.68    0.21
  -8   1  -5    0.63    0.12
   8   0  -5    1.61    0.16
  -8   0   5    2.04    0.13
   7   0  -5    5.36    0.25
  -7   0   5    5.25    0.22
  -7   0   5    5.79    0.22
   6   0  -5   15.83    0.54
  -6   0   5   16.09    0.50
  -6   0   5   16.01    0.49
   5   0  -5    4.22    0.20
  -5   0   5    4.63    0.18
  -5   0   5    4.35    0.17
  -5   0   5    4.29    0.17
  -5   0   5    4.42    0.16
   4   0  -5    9.59    0.33
  -4   0   5    9.30    0.30
  -4   0   5    9.05    0.30
   3   0  -5   22.71    0.72
  -3   0   5   22.37    0.71
  -3   0   5   23.58    0.65
  -3   0   5   23.40    0.67
   2   0  -5   10.97    0.34
  -2   0   5   10.46    0.34
  -2   0   5   11.25    0.32
   1   0  -5   15.49    0.52
   1   0  -5   15.95    0.52
  -1   0   5   17.89    0.46
  -1   0   5   16.80    0.48
   0   0  -5   22.18    0.70
   0   0  -5   22.80    0.71
   0   0   5   22.90    0.66
   0   0   5   23.48    0.62
  -1   0  -5    5.02    0.17
  -1   0  -5    4.41    0.18
   1   0   5    5.04    0.16
  -2   0  -5   12.34    0.40
  -2   0  -5   11.82    0.38
   2   0   5   11.94    0.35
  -3   0  -5   15.17    0.48
  -3   0  -5   15.39    0.51
  -4   0  -5    2.61    0.12
  -4   0  -5    2.25    0.08
  -5   0  -5    4.37    0.21
  -6   0  -5   -0.08    0.07
  -7   0  -5    0.18    0.10
  -8   0  -5   -0.10    0.09
   8  -1  -5    0.90    0.12
  -8   1   5    0.74    0.09
   7  -1  -5    2.52    0.18
  -7   1   5    2.66    0.14
  -7   1   5    2.87    0.15
   6  -1  -5    0.04    0.07
  -6   1   5    0.01    0.04
  -6   1   5    0.00    0.04
   5  -1  -5    1.15    0.10
  -5   1   5    1.32    0.10
  -5   1   5    1.16    0.10
  -5   1   5    1.30    0.10
   4  -1  -5   14.81    0.49
  -4   1   5   14.60    0.47
  -4   1   5   14.81    0.45
  -3   1   5    3.06    0.12
  -3   1   5    3.28    0.12
  -3   1   5    3.16    0.13
   2  -1  -5    8.50    0.28
   2  -1  -5    8.20    0.27
  -2   1   5    8.15    0.27
  -2   1   5    8.31    0.26
  -2   1   5    8.15    0.25
   1  -1  -5   23.10    0.73
   1  -1  -5   23.74    0.72
  -1   1   5   24.20    0.65
  -1   1   5   22.61    0.68
   0  -1  -5   18.68    0.58
   0   1   5   18.30    0.54
   0   1   5   18.57    0.51
  -1  -1  -5    6.04    0.22
  -1  -1  -5    5.93    0.20
   1   1   5    5.75    0.19
  -2  -1  -5    5.58    0.19
  -2  -1  -5    5.77    0.22
   2   1   5    5.80    0.19
  -3  -1  -5    1.29    0.10
  -3  -1  -5    1.39    0.08
  -5  -1  -5    3.09    0.17
  -6  -1  -5    1.09    0.11
  -7  -1  -5    7.07    0.31
  -8  -1  -5    0.67    0.12
   8  -2  -5    3.09    0.21
  -8   2   5    3.29    0.17
   7  -2  -5    0.59    0.10
  -7   2   5    0.56    0.08
   6  -2  -5    0.78    0.10
  -6   2   5    0.61    0.07
  -6   2   5    0.87    0.08
  -6   2   5    0.79    0.08
   5  -2  -5    0.69    0.09
  -5   2   5    0.59    0.07
  -5   2   5    0.66    0.07
  -5   2   5    0.63    0.07
   3  -2  -5    0.61    0.07
  -3   2   5    0.53    0.05
  -3   2   5    0.48    0.05
  -3   2   5    0.47    0.05
   2  -2  -5    3.52    0.15
   2  -2  -5    3.53    0.14
  -2   2   5    3.37    0.13
  -2   2   5    3.83    0.14
  -2   2   5    3.45    0.14
   1  -2  -5    1.60    0.09
   1  -2  -5    1.66    0.09
  -1   2   5    1.67    0.08
   0  -2  -5   50.22    1.58
   0  -2  -5   51.15    1.54
   0   2   5   51.90    1.45
   0   2   5   50.81    1.39
  -1  -2  -5    0.15    0.05
  -1  -2  -5    0.18    0.04
   1   2   5    0.15    0.04
  -2  -2  -5   12.19    0.43
  -2  -2  -5   12.93    0.40
   2   2   5   12.78    0.38
  -4  -2  -5   19.08    0.64
  -5  -2  -5    0.17    0.07
  -5  -2  -5    0.18    0.04
  -6  -2  -5    2.74    0.18
  -7  -2  -5    0.27    0.10
  -8  -2  -5    1.03    0.14
   8  -3  -5    0.09    0.10
  -8   3   5   -0.04    0.06
   7  -3  -5    2.91    0.19
  -7   3   5    2.81    0.15
   6  -3  -5    0.04    0.08
  -6   3   5    0.05    0.06
  -6   3   5    0.02    0.05
  -6   3   5    0.11    0.05
   5  -3  -5    8.90    0.34
  -5   3   5    8.81    0.30
  -5   3   5    8.98    0.32
  -5   3   5    9.16    0.30
   4  -3  -5   10.16    0.37
  -4   3   5   10.10    0.35
  -4   3   5   10.02    0.32
  -4   3   5   10.51    0.33
   3  -3  -5    5.14    0.20
   3  -3  -5    5.34    0.21
  -3   3   5    5.12    0.20
  -3   3   5    5.38    0.19
   2  -3  -5    0.15    0.05
   2  -3  -5    0.11    0.04
  -2   3   5    0.09    0.04
  -2   3   5    0.17    0.04
  -2   3   5    0.14    0.04
   1  -3  -5    2.38    0.11
   1  -3  -5    2.18    0.11
  -1   3   5    2.51    0.10
  -1   3   5    1.72    0.09
   0  -3  -5    2.97    0.14
   0  -3  -5    3.17    0.13
   0   3   5    2.94    0.13
  -1  -3  -5    0.23    0.05
  -1  -3  -5    0.34    0.04
   1   3   5    0.26    0.04
  -2  -3  -5    0.07    0.03
  -2  -3  -5    0.01    0.05
   2   3   5   -0.06    0.03
  -3  -3  -5   -0.01    0.03
  -4  -3  -5    9.59    0.36
  -5  -3  -5    3.95    0.21
  -6  -3  -5    6.55    0.30
  -7  -3  -5    1.30    0.14
   8  -4  -5    1.09    0.14
  -8   4   5    1.01    0.11
   7  -4  -5    2.69    0.19
  -7   4   5    2.62    0.15
   6  -4  -5    0.42    0.09
  -6   4   5    0.32    0.08
  -6   4   5    0.40    0.06
  -6   4   5    0.37    0.07
   5  -4  -5    2.36    0.16
  -5   4   5    2.28    0.14
  -5   4   5    2.22    0.13
  -5   4   5    2.27    0.13
   4  -4  -5    1.08    0.11
  -4   4   5    1.08    0.09
  -4   4   5    1.23    0.09
  -4   4   5    1.08    0.10
   3  -4  -5    6.13    0.24
   3  -4  -5    5.98    0.24
  -3   4   5    6.06    0.24
  -3   4   5    6.27    0.22
   2  -4  -5   -0.05    0.05
   2  -4  -5    0.00    0.05
  -2   4   5   -0.01    0.03
  -2   4   5   -0.01    0.04
  -2   4   5   -0.04    0.05
   1  -4  -5   26.91    0.84
   1  -4  -5   25.66    0.86
  -1   4   5   27.20    0.79
  -1   4   5   27.64    0.86
  -1   4   5   27.17    0.76
   0  -4  -5    1.16    0.10
   0  -4  -5    1.30    0.09
  -1  -4  -5    0.01    0.04
  -1  -4  -5    0.01    0.05
   1   4   5    0.04    0.04
  -2  -4  -5    0.06    0.05
   2   4   5   -0.03    0.05
  -3  -4  -5    8.56    0.33
  -4  -4  -5    1.04    0.11
  -5  -4  -5    0.46    0.10
  -6  -4  -5   -0.08    0.08
  -7  -4  -5    0.42    0.11
   7  -5  -5    0.03    0.10
  -7   5   5    0.04    0.06
   6  -5  -5    0.04    0.09
  -6   5   5    0.15    0.06
  -6   5   5    0.09    0.08
   5  -5  -5   -0.04    0.08
  -5   5   5   -0.02    0.06
  -5   5   5   -0.01    0.04
  -5   5   5   -0.02    0.05
   4  -5  -5    0.76    0.09
   4  -5  -5    0.63    0.09
  -4   5   5    0.54    0.07
  -4   5   5    0.61    0.07
  -4   5   5    0.74    0.09
   3  -5  -5    0.03    0.06
   3  -5  -5    0.01    0.06
  -3   5   5    0.01    0.05
  -3   5   5    0.02    0.04
  -3   5   5   -0.01    0.04
   2  -5  -5    2.21    0.14
   2  -5  -5    1.82    0.13
  -2   5   5    2.34    0.14
  -2   5   5    2.11    0.11
  -2   5   5    2.32    0.12
   1  -5  -5    0.60    0.07
   1  -5  -5    0.64    0.08
  -1   5   5    0.59    0.06
  -1   5   5    0.56    0.07
   0  -5  -5    0.22    0.07
   0  -5  -5    0.31    0.06
  -1  -5  -5    8.45    0.31
   1   5   5    7.93    0.28
  -2  -5  -5    1.94    0.14
  -3  -5  -5    5.65    0.26
  -4  -5  -5    0.00    0.08
  -5  -5  -5    0.56    0.11
  -6  -5  -5    0.25    0.10
   7  -6  -5    0.93    0.14
  -7   6   5    0.88    0.10
   6  -6  -5    1.09    0.14
  -6   6   5    1.13    0.12
  -6   6   5    1.39    0.12
   5  -6  -5    1.13    0.13
   5  -6  -5    1.17    0.12
  -5   6   5    1.10    0.10
  -5   6   5    1.11    0.10
  -5   6   5    1.12    0.11
   4  -6  -5    3.18    0.18
   4  -6  -5    3.29    0.19
  -4   6   5    3.07    0.17
  -4   6   5    2.77    0.15
  -4   6   5    3.11    0.15
   3  -6  -5    0.99    0.10
   3  -6  -5    0.94    0.10
  -3   6   5    0.79    0.09
  -3   6   5    0.67    0.08
  -3   6   5    0.80    0.08
   2  -6  -5    0.08    0.06
   2  -6  -5   -0.04    0.06
  -2   6   5   -0.04    0.04
  -2   6   5   -0.01    0.06
   1  -6  -5    0.09    0.07
   1  -6  -5    0.18    0.06
  -1   6   5    0.14    0.05
   0  -6  -5    2.48    0.15
   0   6   5    2.57    0.13
  -1  -6  -5    0.07    0.07
   1   6   5    0.05    0.05
  -2  -6  -5    0.40    0.09
  -3  -6  -5    0.26    0.09
  -4  -6  -5    1.06    0.13
  -5  -6  -5    0.96    0.13
  -6  -6  -5    0.63    0.13
   6  -7  -5    0.25    0.11
   6  -7  -5    0.30    0.10
  -6   7   5    0.30    0.08
  -6   7   5    0.26    0.10
   5  -7  -5    0.27    0.09
   5  -7  -5    0.23    0.10
  -5   7   5    0.42    0.07
  -5   7   5    0.37    0.07
  -5   7   5    0.37    0.09
   4  -7  -5    0.61    0.11
   4  -7  -5    0.50    0.10
  -4   7   5    0.56    0.10
  -4   7   5    0.55    0.08
  -4   7   5    0.59    0.08
   3  -7  -5    0.86    0.11
   3  -7  -5    0.74    0.10
  -3   7   5    0.90    0.11
  -3   7   5    0.77    0.08
   2  -7  -5    2.69    0.16
   2  -7  -5    2.82    0.17
  -2   7   5    2.81    0.15
  -2   7   5    2.90    0.17
   1  -7  -5    5.13    0.21
   1  -7  -5    4.63    0.23
  -1   7   5    4.54    0.20
   0  -7  -5    8.23    0.33
   0   7   5    8.44    0.30
  -1  -7  -5    2.70    0.17
  -2  -7  -5    0.12    0.08
  -3  -7  -5    0.30    0.10
  -4  -7  -5    1.26    0.14
  -5  -7  -5    0.61    0.13
   5  -8  -5   -0.07    0.09
   5  -8  -5   -0.01    0.09
  -5   8   5   -0.04    0.06
  -5   8   5    0.01    0.09
   4  -8  -5    0.61    0.11
   4  -8  -5    0.62    0.11
  -4   8   5    0.51    0.10
  -4   8   5    0.62    0.09
   3  -8  -5    1.22    0.12
   3  -8  -5    1.31    0.13
  -3   8   5    1.14    0.11
  -3   8   5    1.16    0.12
   2  -8  -5    0.90    0.10
   2  -8  -5    0.87    0.12
  -2   8   5    0.92    0.09
  -2   8   5    0.89    0.12
   1  -8  -5    3.98    0.21
  -1   8   5    3.84    0.18
   0  -8  -5    5.25    0.25
  -1  -8  -5    1.19    0.13
  -2  -8  -5   -0.02    0.08
  -3  -8  -5    0.15    0.10
  -4  -8  -5    0.29    0.11
   4  -9  -5    1.62    0.15
   4  -9  -5    1.42    0.15
  -4   9   5    1.72    0.13
  -4   9   5    1.67    0.17
   3  -9  -5    1.13    0.13
   3  -9  -5    1.04    0.13
  -3   9   5    0.95    0.10
  -3   9   5    1.01    0.13
   2  -9  -5    0.05    0.09
  -2   9   5    0.16    0.07
   1  -9  -5    1.07    0.13
   0  -9  -5    0.25    0.10
  -1  -9  -5    0.12    0.09
  -2  -9  -5    0.14    0.10
  -3  -9  -5    0.42    0.12
   1 -10  -5    1.74    0.17
   0 -10  -5    0.71    0.13
  -3 -11   6    0.80    0.11
  -2 -11   6    0.27    0.08
   1  11  -6    1.33    0.13
  -1 -11   6    0.97    0.12
  -1 -11   6    1.18    0.12
   0  11  -6    2.68    0.19
   0 -11   6    2.71    0.19
   0 -11   6    2.81    0.17
  -1  11  -6    2.87    0.19
   1 -11   6    2.79    0.20
  -2  11  -6    0.09    0.09
   2 -11   6    0.08    0.10
  -3  11  -6    0.40    0.10
  -4 -10   6    2.18    0.16
  -3 -10   6    1.81    0.14
  -2 -10   6    1.11    0.11
   1  10  -6    0.76    0.10
  -1 -10   6    0.73    0.09
  -1 -10   6    0.50    0.09
   0  10  -6    1.59    0.15
   0 -10   6    1.54    0.15
   0 -10   6    1.70    0.13
  -1  10  -6    0.13    0.08
   1 -10   6    0.09    0.09
  -2  10  -6    0.86    0.11
  -3  10  -6    2.65    0.18
  -4  10  -6    1.61    0.16
  -5  -9   6    0.70    0.09
  -5  -9   6    0.95    0.11
  -4  -9   6    1.17    0.11
  -3  -9   6    2.95    0.16
  -2  -9   6    7.37    0.29
  -2  -9   6    7.29    0.28
   1   9  -6    5.89    0.25
  -1  -9   6    5.76    0.23
  -1  -9   6    5.88    0.25
   0   9  -6    2.29    0.15
   0   9  -6    2.56    0.16
   0  -9   6    2.56    0.14
   0  -9   6    2.47    0.16
  -1   9  -6    1.60    0.14
  -1   9  -6    1.87    0.14
  -2   9  -6    0.23    0.08
  -3   9  -6    0.36    0.09
  -4   9  -6    0.70    0.11
  -5   9  -6    0.34    0.10
  -6  -8   6    0.86    0.11
  -6  -8   6    0.81    0.09
  -5  -8   6   -0.04    0.06
  -5  -8   6    0.00    0.05
  -4  -8   6    1.15    0.11
  -3  -8   6    1.94    0.13
  -2  -8   6    2.72    0.15
  -2  -8   6    2.85    0.15
   1   8  -6    0.64    0.08
   1   8  -6    0.73    0.08
  -1  -8   6    0.64    0.08
  -1  -8   6    0.70    0.08
   0   8  -6    3.03    0.16
   0   8  -6    2.97    0.16
   0  -8   6    3.24    0.15
   0  -8   6    3.37    0.17
  -1   8  -6    0.75    0.09
  -1   8  -6    0.92    0.09
   1  -8   6    0.84    0.07
  -2   8  -6    1.30    0.12
  -2   8  -6    1.18    0.12
  -3   8  -6    1.36    0.13
  -4   8  -6    8.12    0.33
  -5   8  -6    3.71    0.21
  -6   8  -6    0.37    0.10
  -7  -7   6    3.69    0.20
  -7  -7   6    3.69    0.18
  -7  -7   6    3.62    0.19
  -6  -7   6    2.48    0.15
  -6  -7   6    2.40    0.15
  -6  -7   6    2.34    0.14
  -5  -7   6    1.27    0.11
  -5  -7   6    1.16    0.10
  -4  -7   6    0.22    0.06
  -3  -7   6   10.54    0.36
   2   7  -6   25.72    0.79
  -2  -7   6   24.90    0.81
  -2  -7   6   25.05    0.76
   1   7  -6   10.24    0.35
   1   7  -6   10.48    0.35
  -1  -7   6    9.86    0.33
  -1  -7   6   10.03    0.36
   0   7  -6    4.12    0.18
   0   7  -6    3.99    0.18
   0  -7   6    4.04    0.16
  -1   7  -6    2.26    0.13
  -1   7  -6    2.09    0.13
   1  -7   6    2.20    0.11
  -2   7  -6   -0.04    0.05
  -2   7  -6   -0.04    0.05
  -3   7  -6    4.16    0.20
  -3   7  -6    4.27    0.20
  -4   7  -6    9.62    0.37
  -5   7  -6    4.96    0.24
  -7   7  -6    1.10    0.14
  -7  -6   6    3.63    0.17
  -7  -6   6    3.60    0.19
  -7  -6   6    3.46    0.19
  -6  -6   6    0.43    0.07
  -6  -6   6    0.43    0.08
  -6  -6   6    0.48    0.07
  -5  -6   6    0.33    0.07
  -5  -6   6    0.41    0.06
  -4  -6   6   13.87    0.45
  -4  -6   6   13.44    0.39
   3   6  -6   69.26    2.09
  -3  -6   6   69.12    1.98
   2   6  -6   10.89    0.37
  -2  -6   6   11.09    0.36
  -2  -6   6   11.09    0.37
   1   6  -6    5.06    0.20
   1   6  -6    5.19    0.20
  -1  -6   6    5.37    0.20
  -1  -6   6    5.20    0.19
   0   6  -6    1.59    0.11
   0   6  -6    1.65    0.10
   0  -6   6    1.75    0.10
  -1   6  -6   15.29    0.51
  -1   6  -6   14.91    0.50
   1  -6   6   15.39    0.45
  -2   6  -6    1.70    0.12
  -2   6  -6    1.56    0.12
  -3   6  -6    8.31    0.31
  -3   6  -6    8.42    0.31
  -4   6  -6    3.82    0.18
  -4   6  -6    3.53    0.19
  -5   6  -6    2.21    0.16
  -6   6  -6    0.01    0.08
  -7   6  -6    2.70    0.19
  -8  -5   6    3.55    0.18
  -8  -5   6    3.69    0.20
  -8  -5   6    3.67    0.19
  -7  -5   6    4.84    0.20
  -7  -5   6    4.96    0.22
  -7  -5   6    4.93    0.21
  -6  -5   6    0.42    0.07
  -6  -5   6    0.46    0.07
  -6  -5   6    0.37    0.07
  -5  -5   6    2.44    0.14
  -5  -5   6    2.28    0.13
  -5  -5   6    2.08    0.11
   4   5  -6    5.85    0.24
  -4  -5   6    6.60    0.24
  -4  -5   6    6.33    0.21
   3   5  -6   13.29    0.44
  -3  -5   6   13.54    0.37
  -3  -5   6   13.08    0.42
   2   5  -6    6.25    0.23
  -2  -5   6    6.06    0.22
  -2  -5   6    6.32    0.22
   1   5  -6    1.39    0.08
   1   5  -6    1.18    0.09
  -1  -5   6    1.28    0.09
  -1  -5   6    1.34    0.08
   0   5  -6   29.67    0.91
   0   5  -6   28.77    0.92
   0  -5   6   29.02    0.84
  -1   5  -6    3.73    0.16
  -1   5  -6    3.74    0.16
   1  -5   6    3.63    0.13
  -2   5  -6    0.53    0.07
   2  -5   6    0.65    0.05
  -3   5  -6    2.46    0.14
  -3   5  -6    2.63    0.14
  -4   5  -6    8.70    0.33
  -4   5  -6    8.70    0.33
  -5   5  -6    0.83    0.10
  -6   5  -6    1.40    0.13
  -7   5  -6    1.75    0.17
  -8  -4   6    1.77    0.14
  -8  -4   6    1.77    0.14
  -8  -4   6    1.71    0.13
  -7  -4   6    1.05    0.10
  -7  -4   6    0.98    0.10
  -7  -4   6    0.97    0.09
  -6  -4   6    4.40    0.19
  -6  -4   6    4.32    0.19
  -6  -4   6    4.28    0.17
  -5  -4   6    0.64    0.07
  -5  -4   6    0.45    0.07
   4   4  -6   24.79    0.78
  -4  -4   6   24.71    0.74
  -4  -4   6   24.77    0.71
  -4  -4   6   24.52    0.65
   3   4  -6   13.73    0.42
  -3  -4   6   12.98    0.35
  -3  -4   6   11.29    0.40
   2   4  -6    0.38    0.05
  -2  -4   6    0.37    0.03
  -2  -4   6    0.42    0.04
  -2  -4   6    0.39    0.05
   1   4  -6    1.21    0.07
   1   4  -6    1.18    0.09
  -1  -4   6    1.14    0.08
   0   4  -6    8.17    0.29
   0  -4   6    8.63    0.26
  -1   4  -6    9.24    0.32
  -1   4  -6    9.18    0.31
   1  -4   6    9.40    0.28
  -2   4  -6    6.22    0.23
  -2   4  -6    6.25    0.23
   2  -4   6    5.72    0.18
  -3   4  -6    5.00    0.21
  -3   4  -6    5.41    0.21
  -4   4  -6   11.10    0.39
  -4   4  -6   11.45    0.40
  -5   4  -6    4.21    0.20
  -6   4  -6    2.08    0.16
  -7   4  -6    1.41    0.15
  -8   4  -6    1.51    0.16
  -8  -3   6    2.64    0.16
  -8  -3   6    2.36    0.14
  -8  -3   6    2.51    0.16
  -7  -3   6    0.62    0.08
  -7  -3   6    0.80    0.09
  -7  -3   6    0.75    0.08
   6   3  -6    2.13    0.14
  -6  -3   6    2.11    0.12
  -6  -3   6    2.25    0.13
  -6  -3   6    2.27    0.14
   5   3  -6    0.97    0.09
  -5  -3   6    0.99    0.09
  -5  -3   6    0.99    0.08
  -5  -3   6    1.10    0.08
   4   3  -6   15.17    0.49
  -4  -3   6   14.57    0.41
  -4  -3   6   14.80    0.46
  -4  -3   6   14.69    0.44
   3   3  -6    3.71    0.16
  -3  -3   6    3.34    0.14
  -3  -3   6    3.57    0.13
   2   3  -6   27.81    0.84
  -2  -3   6   27.06    0.76
  -2  -3   6   27.02    0.79
  -2  -3   6   26.89    0.70
   1   3  -6   31.86    1.01
   1   3  -6   33.41    1.01
  -1  -3   6   33.34    0.94
  -1  -3   6   32.64    0.90
  -1  -3   6   32.36    0.83
   0   3  -6   36.50    1.10
   0   3  -6   34.26    1.10
   0  -3   6   35.78    1.02
   0  -3   6   36.40    0.89
  -1   3  -6    0.11    0.03
  -1   3  -6    0.10    0.04
   1  -3   6    0.09    0.02
  -2   3  -6    9.70    0.33
  -2   3  -6    9.91    0.33
   2  -3   6    9.11    0.28
  -3   3  -6   12.10    0.41
  -3   3  -6   11.82    0.40
  -4   3  -6    8.20    0.30
  -4   3  -6    8.05    0.31
  -5   3  -6    4.55    0.21
  -6   3  -6    3.95    0.21
  -7   3  -6    2.93    0.19
  -8   3  -6    4.42    0.25
  -8  -2   6    0.50    0.09
  -8  -2   6    0.49    0.08
  -8  -2   6    0.60    0.09
   7   2  -6    4.56    0.21
  -7  -2   6    4.36    0.20
  -7  -2   6    4.78    0.20
  -7  -2   6    4.17    0.18
   6   2  -6    0.20    0.07
  -6  -2   6    0.27    0.06
  -6  -2   6    0.27    0.06
  -6  -2   6    0.23    0.06
   5   2  -6    1.54    0.12
  -5  -2   6    1.46    0.11
  -5  -2   6    1.62    0.10
  -5  -2   6    1.54    0.11
   4   2  -6    3.76    0.17
  -4  -2   6    3.67    0.14
  -4  -2   6    3.97    0.16
  -4  -2   6    3.68    0.16
   3   2  -6    4.07    0.17
  -3  -2   6    3.91    0.15
  -3  -2   6    4.04    0.14
   2   2  -6    7.40    0.26
  -2  -2   6    7.63    0.24
  -2  -2   6    7.15    0.23
  -2  -2   6    7.49    0.21
   1   2  -6   15.14    0.49
  -1  -2   6   15.34    0.43
  -1  -2   6   15.42    0.40
  -1  -2   6   15.97    0.46
   0   2  -6   89.37    2.76
   0   2  -6   87.86    2.81
   0  -2   6   94.27    2.46
   0  -2   6   92.85    2.57
   0  -2   6   94.61    2.27
  -1   2  -6   70.97    2.19
  -1   2  -6   76.39    2.24
   1  -2   6   70.98    2.04
  -2   2  -6  165.44    5.06
  -2   2  -6  172.68    5.18
   2  -2   6  169.82    4.72
  -3   2  -6   15.81    0.53
  -3   2  -6   15.70    0.51
  -4   2  -6   19.95    0.65
  -4   2  -6   20.59    0.67
  -5   2  -6    2.62    0.16
  -5   2  -6    2.42    0.14
  -6   2  -6    4.38    0.22
  -7   2  -6    2.69    0.18
  -8   2  -6    3.12    0.22
   8   1  -6    1.76    0.16
  -8  -1   6    1.91    0.14
  -8  -1   6    1.78    0.13
   7   1  -6    6.09    0.26
  -7  -1   6    5.87    0.23
  -7  -1   6    6.21    0.24
  -7  -1   6    5.69    0.22
   6   1  -6    5.94    0.25
  -6  -1   6    6.13    0.21
  -6  -1   6    5.79    0.22
  -6  -1   6    5.90    0.23
   5   1  -6   12.17    0.42
  -5  -1   6   11.87    0.35
  -5  -1   6   12.01    0.39
  -5  -1   6   11.87    0.38
   4   1  -6    4.78    0.20
  -4  -1   6    4.92    0.19
  -4  -1   6    5.02    0.18
  -4  -1   6    4.95    0.17
   3   1  -6   26.70    0.83
  -3  -1   6   26.33    0.74
  -3  -1   6   26.04    0.77
  -3  -1   6   26.77    0.68
   2   1  -6   18.30    0.58
  -2  -1   6   18.09    0.51
  -2  -1   6   17.98    0.54
  -2  -1   6   18.29    0.47
   1   1  -6   39.36    1.27
  -1  -1   6   43.27    1.14
  -1  -1   6   42.96    1.19
   0   1  -6   36.31    1.17
   0   1  -6   39.24    1.18
   0  -1   6   38.35    1.04
   0  -1   6   39.20    1.09
  -1   1  -6   11.13    0.35
  -1   1  -6   10.21    0.34
   1  -1   6   10.12    0.31
  -2   1  -6    6.26    0.22
  -2   1  -6    5.79    0.23
   2  -1   6    6.15    0.19
  -3   1  -6   10.44    0.37
  -3   1  -6   10.33    0.35
  -4   1  -6   10.46    0.38
  -4   1  -6   10.74    0.36
  -5   1  -6   12.34    0.44
  -5   1  -6   11.81    0.40
  -6   1  -6    1.13    0.12
  -7   1  -6    1.14    0.13
  -8   1  -6    0.48    0.12
   8   0  -6    0.22    0.10
  -8   0   6    0.21    0.07
   7   0  -6    6.62    0.29
  -7   0   6    7.30    0.26
  -7   0   6    6.44    0.25
   6   0  -6    2.29    0.16
  -6   0   6    2.57    0.13
  -6   0   6    2.63    0.14
   5   0  -6    3.36    0.18
  -5   0   6    3.59    0.16
  -5   0   6    3.65    0.15
   4   0  -6    0.73    0.08
  -4   0   6    0.82    0.06
  -4   0   6    0.67    0.06
  -4   0   6    0.77    0.07
   3   0  -6   24.21    0.76
   3   0  -6   24.05    0.75
  -3   0   6   23.28    0.75
  -3   0   6   24.64    0.71
  -3   0   6   25.24    0.68
   2   0  -6   13.07    0.39
   2   0  -6   11.42    0.40
  -2   0   6   11.86    0.37
  -2   0   6   13.13    0.36
   1   0  -6   75.76    2.40
   1   0  -6   75.03    2.35
  -1   0   6   82.58    2.11
  -1   0   6   79.65    2.20
   0   0  -6   13.59    0.44
   0   0   6   13.77    0.38
   0   0   6   13.66    0.41
  -1   0  -6   36.10    1.11
  -1   0  -6   37.35    1.14
   1   0   6   36.29    1.04
  -2   0  -6    2.00    0.12
  -2   0  -6    2.05    0.10
   2   0   6    2.03    0.09
  -3   0  -6    5.11    0.21
  -3   0  -6    5.08    0.19
  -4   0  -6    1.94    0.14
  -4   0  -6    2.35    0.12
  -5   0  -6    3.27    0.18
  -6   0  -6   -0.05    0.07
  -7   0  -6    7.14    0.32
  -8   0  -6    1.19    0.15
   8  -1  -6    5.04    0.26
  -8   1   6    5.22    0.22
   7  -1  -6    2.07    0.16
  -7   1   6    2.07    0.13
  -7   1   6    2.26    0.14
   6  -1  -6    0.53    0.10
  -6   1   6    0.63    0.07
  -6   1   6    0.58    0.07
   5  -1  -6    6.46    0.26
  -5   1   6    6.32    0.23
  -5   1   6    6.14    0.22
   4  -1  -6    0.03    0.06
  -4   1   6    0.08    0.04
  -4   1   6    0.04    0.03
  -4   1   6    0.00    0.04
  -3   1   6   13.02    0.43
  -3   1   6   13.86    0.40
  -3   1   6   13.81    0.42
   2  -1  -6    5.87    0.21
   2  -1  -6    6.04    0.23
  -2   1   6    6.30    0.20
   1  -1  -6    4.36    0.17
  -1   1   6    4.40    0.16
  -1   1   6    4.67    0.15
   0  -1  -6   41.19    1.25
   0  -1  -6   40.89    1.28
   0   1   6   41.31    1.17
   0   1   6   41.25    1.12
  -1  -1  -6   10.26    0.34
  -1  -1  -6   10.58    0.36
   1   1   6   10.66    0.32
  -2  -1  -6    3.85    0.17
  -2  -1  -6    3.67    0.15
   2   1   6    3.99    0.14
  -3  -1  -6   12.66    0.44
  -3  -1  -6   12.77    0.41
  -4  -1  -6   23.61    0.74
  -4  -1  -6   24.24    0.79
  -5  -1  -6    0.23    0.07
  -6  -1  -6    0.90    0.11
  -7  -1  -6   -0.05    0.09
  -8  -1  -6    1.13    0.15
   8  -2  -6    1.55    0.15
  -8   2   6    1.57    0.13
   7  -2  -6    1.78    0.17
  -7   2   6    1.85    0.12
  -7   2   6    2.05    0.13
   6  -2  -6    2.18    0.17
  -6   2   6    2.36    0.13
  -6   2   6    2.42    0.13
   5  -2  -6    0.48    0.09
  -5   2   6    0.38    0.06
  -5   2   6    0.36    0.06
  -5   2   6    0.50    0.06
  -4   2   6   41.24    1.26
  -4   2   6   41.34    1.17
  -4   2   6   38.39    1.12
   3  -2  -6    3.20    0.16
   3  -2  -6    3.23    0.14
  -3   2   6    3.23    0.14
  -3   2   6    3.15    0.13
  -3   2   6    3.21    0.14
   2  -2  -6   11.26    0.39
   2  -2  -6   11.61    0.39
  -2   2   6   12.15    0.39
  -2   2   6   11.59    0.35
  -2   2   6   12.10    0.37
   1  -2  -6    0.30    0.05
   1  -2  -6    0.29    0.05
  -1   2   6    0.38    0.05
  -1   2   6    0.37    0.04
   0  -2  -6   35.49    1.10
   0  -2  -6   36.47    1.13
   0   2   6   36.41    1.03
   0   2   6   35.37    0.99
  -1  -2  -6    9.60    0.32
  -1  -2  -6    9.68    0.34
   1   2   6    9.98    0.31
  -2  -2  -6   10.57    0.35
  -2  -2  -6   11.15    0.38
   2   2   6   10.83    0.34
  -3  -2  -6    8.20    0.31
  -3  -2  -6    8.32    0.27
  -4  -2  -6    6.08    0.26
  -5  -2  -6    1.77    0.15
  -6  -2  -6    4.10    0.22
  -7  -2  -6    7.08    0.32
   8  -3  -6    0.96    0.14
  -8   3   6    1.00    0.11
   7  -3  -6    2.75    0.20
  -7   3   6    2.64    0.15
   6  -3  -6   -0.08    0.08
  -6   3   6    0.00    0.05
  -6   3   6    0.04    0.05
   5  -3  -6    1.18    0.12
  -5   3   6    1.59    0.11
  -5   3   6    1.36    0.11
  -5   3   6    1.57    0.10
   4  -3  -6    4.02    0.20
   4  -3  -6    3.64    0.17
  -4   3   6    3.80    0.17
  -4   3   6    3.74    0.16
  -4   3   6    4.15    0.17
   3  -3  -6   16.40    0.56
   3  -3  -6   17.40    0.56
  -3   3   6   17.36    0.52
  -3   3   6   16.69    0.55
  -3   3   6   17.07    0.50
   2  -3  -6    1.92    0.11
   2  -3  -6    2.15    0.13
  -2   3   6    2.33    0.11
  -2   3   6    1.90    0.11
  -2   3   6    1.86    0.10
   1  -3  -6   13.74    0.46
   1  -3  -6   13.45    0.45
  -1   3   6   14.15    0.41
   0  -3  -6   16.44    0.52
   0  -3  -6   16.39    0.54
   0   3   6   16.30    0.50
  -1  -3  -6    0.18    0.04
  -1  -3  -6    0.08    0.06
   1   3   6    0.10    0.04
  -2  -3  -6    0.11    0.07
  -2  -3  -6    0.16    0.04
   2   3   6    0.15    0.05
  -3  -3  -6    4.80    0.22
  -4  -3  -6    4.70    0.23
  -5  -3  -6    4.60    0.23
  -6  -3  -6    0.89    0.13
  -7  -3  -6    0.02    0.10
   7  -4  -6    2.13    0.18
  -7   4   6    1.88    0.14
   6  -4  -6    0.03    0.09
  -6   4   6   -0.02    0.05
  -6   4   6    0.09    0.05
   5  -4  -6    3.27    0.19
  -5   4   6    3.34    0.17
  -5   4   6    3.54    0.16
  -5   4   6    3.06    0.15
   4  -4  -6    5.45    0.24
   4  -4  -6    5.51    0.22
  -4   4   6    5.13    0.20
  -4   4   6    5.20    0.22
  -4   4   6    5.56    0.21
   3  -4  -6    1.16    0.11
   3  -4  -6    1.35    0.11
  -3   4   6    1.29    0.11
  -3   4   6    1.32    0.10
  -3   4   6    1.41    0.10
   2  -4  -6    1.70    0.12
   2  -4  -6    1.24    0.11
  -2   4   6    1.51    0.10
  -2   4   6    1.48    0.11
  -2   4   6    1.42    0.10
   1  -4  -6   16.01    0.54
   1  -4  -6   15.67    0.52
  -1   4   6   16.63    0.48
   0  -4  -6    9.98    0.36
   0  -4  -6   10.40    0.34
   0   4   6    9.81    0.33
  -1  -4  -6    4.48    0.20
  -1  -4  -6    4.62    0.17
   1   4   6    4.26    0.18
  -2  -4  -6    2.74    0.16
   2   4   6    2.47    0.13
  -3  -4  -6    6.15    0.27
  -4  -4  -6    2.42    0.17
  -5  -4  -6    0.11    0.09
  -6  -4  -6   -0.04    0.09
  -7  -4  -6   -0.05    0.10
   7  -5  -6    1.04    0.14
  -7   5   6    1.06    0.11
   6  -5  -6    0.53    0.11
  -6   5   6    0.51    0.08
  -6   5   6    0.67    0.08
   5  -5  -6    1.03    0.12
   5  -5  -6    0.99    0.10
  -5   5   6    0.92    0.10
  -5   5   6    0.94    0.09
  -5   5   6    0.87    0.09
   4  -5  -6    1.07    0.10
   4  -5  -6    1.25    0.12
  -4   5   6    0.93    0.08
  -4   5   6    1.12    0.10
  -4   5   6    1.10    0.10
   3  -5  -6    1.01    0.10
   3  -5  -6    0.97    0.10
  -3   5   6    1.06    0.10
  -3   5   6    1.27    0.11
  -3   5   6    1.12    0.10
   2  -5  -6    0.07    0.06
   2  -5  -6   -0.02    0.06
  -2   5   6    0.00    0.05
  -2   5   6    0.00    0.04
  -2   5   6   -0.04    0.04
   1  -5  -6    1.11    0.11
   1  -5  -6    1.05    0.10
  -1   5   6    1.22    0.10
   0  -5  -6    2.56    0.15
   0  -5  -6    2.76    0.14
   0   5   6    2.77    0.14
  -1  -5  -6    4.47    0.21
   1   5   6    4.29    0.18
  -2  -5  -6    1.02    0.11
  -3  -5  -6    2.09    0.16
  -4  -5  -6    1.96    0.16
  -5  -5  -6    1.28    0.14
  -6  -5  -6    0.35    0.11
   6  -6  -6    0.17    0.10
  -6   6   6    0.07    0.08
  -6   6   6    0.11    0.06
   5  -6  -6    0.77    0.10
   5  -6  -6    0.87    0.12
  -5   6   6    0.94    0.09
  -5   6   6    0.91    0.09
  -5   6   6    0.92    0.11
   4  -6  -6    0.82    0.10
   4  -6  -6    0.78    0.11
  -4   6   6    0.97    0.09
  -4   6   6    0.92    0.09
  -4   6   6    0.91    0.10
   3  -6  -6    0.21    0.08
   3  -6  -6    0.28    0.08
  -3   6   6    0.35    0.08
  -3   6   6    0.33    0.06
  -3   6   6    0.25    0.06
   2  -6  -6    0.06    0.07
   2  -6  -6    0.03    0.07
  -2   6   6   -0.08    0.05
  -2   6   6   -0.01    0.06
   1  -6  -6    2.02    0.13
   1  -6  -6    2.09    0.15
  -1   6   6    1.90    0.13
   0  -6  -6    1.31    0.13
   0   6   6    1.43    0.11
  -1  -6  -6    6.77    0.29
   1   6   6    7.13    0.26
  -2  -6  -6    0.01    0.08
  -3  -6  -6    0.95    0.12
  -4  -6  -6    0.53    0.11
  -5  -6  -6    0.27    0.11
   6  -7  -6    0.75    0.13
  -6   7   6    0.63    0.12
  -6   7   6    0.52    0.09
   5  -7  -6   -0.10    0.09
   5  -7  -6    0.01    0.08
  -5   7   6   -0.01    0.06
  -5   7   6   -0.05    0.06
  -5   7   6    0.00    0.08
   4  -7  -6    0.23    0.09
   4  -7  -6    0.19    0.09
  -4   7   6    0.32    0.09
  -4   7   6    0.23    0.07
  -4   7   6    0.17    0.06
   3  -7  -6    0.27    0.09
   3  -7  -6    0.39    0.09
  -3   7   6    0.35    0.07
  -3   7   6    0.22    0.08
   2  -7  -6    1.21    0.11
   2  -7  -6    1.39    0.13
  -2   7   6    1.02    0.10
  -2   7   6    1.23    0.12
   1  -7  -6    0.44    0.09
  -1   7   6    0.56    0.08
   0  -7  -6    0.95    0.11
   0   7   6    0.87    0.09
  -1  -7  -6    0.31    0.09
  -2  -7  -6    2.13    0.17
  -3  -7  -6    3.03    0.20
  -4  -7  -6    1.60    0.16
  -5  -7  -6    0.37    0.12
   5  -8  -6    0.33    0.11
  -5   8   6    0.29    0.11
  -5   8   6    0.30    0.08
   4  -8  -6    1.26    0.14
   4  -8  -6    1.26    0.14
  -4   8   6    1.30    0.14
  -4   8   6    1.04    0.11
   3  -8  -6    0.81    0.12
   3  -8  -6    1.00    0.12
  -3   8   6    0.75    0.09
  -3   8   6    0.64    0.11
   2  -8  -6    0.41    0.10
  -2   8   6    0.46    0.08
   1  -8  -6    0.09    0.09
  -1   8   6   -0.03    0.06
   0  -8  -6    2.04    0.17
  -1  -8  -6    0.07    0.09
  -2  -8  -6    0.02    0.09
  -3  -8  -6    0.10    0.10
   3  -9  -6    0.41    0.11
  -3   9   6    0.33    0.11
  -3   9   6    0.41    0.08
   2  -9  -6    0.09    0.09
  -2   9   6   -0.03    0.06
   1  -9  -6    0.42    0.11
   0  -9  -6    0.13    0.10
  -1  -9  -6    0.06    0.09
  -2  -9  -6    0.18    0.11
  -2 -11   7   -0.01    0.07
  -1 -11   7   -0.02    0.07
   0  11  -7    0.28    0.09
   0 -11   7    0.20    0.10
  -1  11  -7    2.79    0.19
   1 -11   7    2.72    0.20
  -2  11  -7    0.50    0.10
   2 -11   7    0.15    0.11
  -4 -10   7    4.19    0.21
  -3 -10   7    0.73    0.10
  -2 -10   7   -0.05    0.06
  -1 -10   7   -0.08    0.07
  -1 -10   7   -0.09    0.05
   0  10  -7    0.40    0.08
   0  10  -7    0.48    0.09
   0 -10   7    0.38    0.07
   0 -10   7    0.32    0.09
  -1  10  -7    0.67    0.10
  -1  10  -7    0.54    0.09
   1 -10   7    0.47    0.10
  -2  10  -7    0.47    0.09
  -3  10  -7    0.03    0.08
  -4  10  -7   -0.02    0.08
  -5  -9   7    0.10    0.07
  -5  -9   7   -0.02    0.06
  -4  -9   7    1.71    0.14
  -3  -9   7   -0.01    0.06
  -2  -9   7    0.34    0.07
   1   9  -7    1.06    0.10
   1   9  -7    0.92    0.10
  -1  -9   7    0.81    0.10
  -1  -9   7    1.09    0.10
   0   9  -7    2.97    0.17
   0   9  -7    3.14    0.17
   0  -9   7    3.02    0.18
   0  -9   7    3.19    0.16
  -1   9  -7    2.36    0.15
  -1   9  -7    2.06    0.15
  -2   9  -7    5.35    0.24
  -2   9  -7    5.24    0.24
  -3   9  -7    0.34    0.08
  -4   9  -7    0.30    0.09
  -5   9  -7    0.54    0.11
  -6  -8   7    0.95    0.11
  -6  -8   7    1.37    0.12
  -6  -8   7    0.98    0.11
  -5  -8   7    4.13    0.20
  -5  -8   7    3.87    0.17
  -4  -8   7    0.60    0.07
  -4  -8   7    0.54    0.08
  -3  -8   7    0.56    0.08
  -2  -8   7    0.74    0.08
   1   8  -7   -0.04    0.05
   1   8  -7    0.00    0.05
  -1  -8   7   -0.06    0.05
  -1  -8   7    0.02    0.06
   0   8  -7    3.55    0.18
   0   8  -7    3.58    0.17
   0  -8   7    3.53    0.16
   0  -8   7    3.78    0.18
  -1   8  -7    3.31    0.17
  -1   8  -7    3.12    0.17
  -2   8  -7    0.70    0.09
  -2   8  -7    0.66    0.08
  -3   8  -7    0.12    0.07
  -3   8  -7    0.09    0.08
  -4   8  -7    7.02    0.30
  -5   8  -7    3.30    0.20
  -6   8  -7    0.48    0.11
  -7  -7   7    1.41    0.13
  -7  -7   7    1.23    0.12
  -7  -7   7    1.33    0.12
  -6  -7   7    2.34    0.14
  -6  -7   7    2.50    0.16
  -6  -7   7    2.12    0.15
  -5  -7   7    2.34    0.13
  -5  -7   7    2.41    0.15
  -4  -7   7    0.05    0.05
  -4  -7   7    0.10    0.05
  -3  -7   7   20.62    0.64
   2   7  -7    9.85    0.34
  -2  -7   7    9.84    0.34
   1   7  -7   12.17    0.41
   1   7  -7   12.00    0.41
  -1  -7   7   11.91    0.38
  -1  -7   7   11.78    0.41
   0   7  -7    1.12    0.10
   0   7  -7    1.22    0.11
   0  -7   7    1.29    0.10
  -1   7  -7    2.55    0.14
  -1   7  -7    2.37    0.13
   1  -7   7    2.34    0.12
  -2   7  -7    1.37    0.12
  -2   7  -7    1.37    0.12
  -3   7  -7    3.37    0.17
  -3   7  -7    2.98    0.17
  -4   7  -7    6.84    0.29
  -4   7  -7    6.95    0.29
  -5   7  -7    1.55    0.15
  -6   7  -7    0.31    0.10
  -7  -6   7    5.30    0.24
  -7  -6   7    5.46    0.23
  -7  -6   7    5.30    0.22
  -6  -6   7    1.94    0.12
  -6  -6   7    1.83    0.14
  -6  -6   7    1.85    0.13
  -5  -6   7   -0.03    0.05
  -5  -6   7    0.00    0.05
  -5  -6   7    0.02    0.05
  -4  -6   7    1.79    0.12
  -4  -6   7    1.98    0.11
   3   6  -7    6.93    0.26
  -3  -6   7    6.89    0.26
  -3  -6   7    7.10    0.22
   2   6  -7    5.54    0.22
  -2  -6   7    5.69    0.21
   1   6  -7    0.56    0.06
   1   6  -7    0.60    0.07
  -1  -6   7    0.50    0.06
  -1  -6   7    0.60    0.06
   0   6  -7    8.75    0.30
   0   6  -7    8.61    0.31
   0  -6   7    8.44    0.28
  -1   6  -7   23.00    0.74
  -1   6  -7   22.97    0.73
   1  -6   7   22.58    0.67
  -2   6  -7    3.07    0.16
  -2   6  -7    3.01    0.15
  -3   6  -7   10.52    0.38
  -3   6  -7   10.60    0.38
  -4   6  -7    8.85    0.34
  -4   6  -7    8.73    0.34
  -5   6  -7    1.50    0.14
  -6   6  -7    0.85    0.11
  -7   6  -7    0.73    0.12
  -7  -5   7    1.46    0.11
  -7  -5   7    1.55    0.14
  -7  -5   7    1.51    0.13
  -6  -5   7    3.13    0.16
  -6  -5   7    2.83    0.14
  -6  -5   7    2.99    0.16
  -5  -5   7    1.54    0.10
  -5  -5   7    1.59    0.12
  -5  -5   7    1.67    0.12
   4   5  -7   16.37    0.54
  -4  -5   7   16.32    0.45
  -4  -5   7   16.29    0.51
  -4  -5   7   16.00    0.49
   3   5  -7   44.17    1.34
  -3  -5   7   43.03    1.26
  -3  -5   7   43.52    1.12
   2   5  -7    4.51    0.18
  -2  -5   7    4.37    0.15
  -2  -5   7    4.40    0.16
  -2  -5   7    4.56    0.18
   1   5  -7    3.01    0.14
   1   5  -7    2.11    0.10
  -1  -5   7    2.78    0.12
   0   5  -7    0.10    0.05
   0   5  -7    0.13    0.04
   0  -5   7    0.14    0.04
  -1   5  -7    2.66    0.13
  -1   5  -7    2.70    0.14
   1  -5   7    2.78    0.11
  -2   5  -7    0.65    0.07
  -3   5  -7   16.32    0.55
  -3   5  -7   16.52    0.55
  -4   5  -7    2.31    0.15
  -4   5  -7    2.26    0.15
  -5   5  -7    1.89    0.15
  -5   5  -7    1.71    0.14
  -6   5  -7    0.02    0.08
  -7   5  -7    1.42    0.14
  -8  -4   7    0.69    0.10
  -8  -4   7    0.87    0.11
  -8  -4   7    0.90    0.11
  -7  -4   7    3.55    0.18
  -7  -4   7    3.36    0.16
  -7  -4   7    3.24    0.17
  -6  -4   7    1.46    0.12
  -6  -4   7    1.32    0.10
  -6  -4   7    1.34    0.12
   5   4  -7    0.89    0.09
  -5  -4   7    0.98    0.09
  -5  -4   7    1.00    0.08
  -5  -4   7    0.89    0.09
   4   4  -7   17.57    0.58
  -4  -4   7   17.96    0.53
  -4  -4   7   17.29    0.55
  -4  -4   7   17.72    0.48
   3   4  -7   10.44    0.35
  -3  -4   7   10.44    0.30
  -3  -4   7   10.22    0.32
  -3  -4   7    9.93    0.34
   2   4  -7    5.90    0.22
  -2  -4   7    5.67    0.19
  -2  -4   7    5.44    0.17
  -2  -4   7    5.50    0.20
   1   4  -7    0.69    0.07
   1   4  -7    0.68    0.05
  -1  -4   7    0.64    0.06
  -1  -4   7    0.84    0.06
   0   4  -7    7.62    0.27
   0   4  -7    7.29    0.26
   0  -4   7    7.71    0.24
   0  -4   7    7.70    0.21
  -1   4  -7    1.47    0.09
   1  -4   7    1.67    0.08
   1  -4   7    1.67    0.06
  -2   4  -7    0.56    0.06
  -2   4  -7    0.55    0.06
   2  -4   7    0.47    0.04
  -3   4  -7    0.84    0.08
  -3   4  -7    0.99    0.10
  -4   4  -7    6.20    0.26
  -4   4  -7    6.27    0.25
  -5   4  -7    1.37    0.13
  -5   4  -7    1.44    0.13
  -6   4  -7    1.13    0.12
  -7   4  -7    1.17    0.13
  -8  -3   7    1.68    0.13
  -8  -3   7    1.54    0.14
  -8  -3   7    1.86    0.14
  -7  -3   7    0.65    0.09
  -7  -3   7    0.74    0.08
  -7  -3   7    0.65    0.09
   6   3  -7    0.13    0.07
  -6  -3   7    0.06    0.05
  -6  -3   7    0.09    0.05
  -6  -3   7    0.13    0.06
   5   3  -7    0.97    0.09
  -5  -3   7    0.88    0.08
  -5  -3   7    0.88    0.08
  -5  -3   7    0.83    0.09
   4   3  -7   34.91    1.04
  -4  -3   7   32.37    0.94
  -4  -3   7   32.83    0.87
  -4  -3   7   33.28    0.98
   3   3  -7   17.79    0.55
  -3  -3   7   16.65    0.45
  -3  -3   7   16.17    0.49
   2   3  -7   16.12    0.50
  -2  -3   7   15.08    0.41
  -2  -3   7   14.89    0.46
  -2  -3   7   15.04    0.44
   1   3  -7    0.03    0.02
   1   3  -7    0.02    0.04
  -1  -3   7    0.07    0.03
  -1  -3   7    0.08    0.03
  -1  -3   7    0.03    0.03
   0   3  -7   29.68    1.09
   0  -3   7   36.71    0.96
   0  -3   7   37.17    0.88
   0  -3   7   37.97    1.01
  -1   3  -7    0.34    0.04
  -1   3  -7    0.36    0.05
   1  -3   7    0.23    0.03
  -2   3  -7   71.71    2.21
  -2   3  -7   72.08    2.17
   2  -3   7   71.06    2.01
  -3   3  -7   12.73    0.44
  -3   3  -7   12.52    0.43
  -4   3  -7   22.05    0.73
  -4   3  -7   21.68    0.70
  -5   3  -7    0.00    0.06
  -5   3  -7    0.01    0.06
  -6   3  -7    0.56    0.09
  -7   3  -7    0.65    0.11
  -8  -2   7    2.56    0.16
  -8  -2   7    2.51    0.16
  -8  -2   7    2.27    0.14
   7   2  -7    1.47    0.15
  -7  -2   7    1.58    0.11
  -7  -2   7    1.50    0.13
  -7  -2   7    1.35    0.12
   6   2  -7    3.56    0.19
  -6  -2   7    3.72    0.17
  -6  -2   7    3.72    0.17
  -6  -2   7    3.63    0.15
   5   2  -7   13.65    0.46
  -5  -2   7   12.95    0.43
  -5  -2   7   13.55    0.42
  -5  -2   7   13.09    0.38
   4   2  -7   19.39    0.63
  -4  -2   7   19.37    0.59
  -4  -2   7   19.29    0.57
  -4  -2   7   19.29    0.52
   3   2  -7   31.79    0.97
  -3  -2   7   31.08    0.80
  -3  -2   7   30.52    0.87
   2   2  -7    3.07    0.14
  -2  -2   7    3.21    0.13
  -2  -2   7    3.19    0.11
  -2  -2   7    2.96    0.12
   1   2  -7    8.24    0.31
  -1  -2   7    9.56    0.29
  -1  -2   7    9.70    0.25
  -1  -2   7    9.83    0.28
   0   2  -7    1.68    0.10
   0   2  -7    1.62    0.08
   0  -2   7    1.78    0.08
   0  -2   7    1.74    0.07
  -1   2  -7   47.82    1.47
  -1   2  -7   50.02    1.49
   1  -2   7   46.54    1.36
  -2   2  -7    2.70    0.14
  -2   2  -7    2.54    0.13
   2  -2   7    2.83    0.10
  -3   2  -7   10.36    0.36
  -3   2  -7    9.94    0.35
  -4   2  -7    5.52    0.22
  -4   2  -7    5.58    0.24
  -5   2  -7    5.39    0.23
  -5   2  -7    5.58    0.24
  -6   2  -7    6.68    0.29
  -7   2  -7    1.09    0.13
   8   1  -7    0.13    0.09
  -8  -1   7    0.29    0.07
  -8  -1   7    0.26    0.07
   7   1  -7    3.84    0.21
  -7  -1   7    4.01    0.19
  -7  -1   7    4.38    0.19
   6   1  -7    2.39    0.16
  -6  -1   7    2.65    0.15
  -6  -1   7    2.54    0.14
  -6  -1   7    2.44    0.12
   5   1  -7   26.50    0.84
  -5  -1   7   26.12    0.78
  -5  -1   7   26.17    0.75
  -5  -1   7   25.54    0.69
   4   1  -7   22.85    0.71
  -4  -1   7   21.28    0.66
  -4  -1   7   22.13    0.59
  -4  -1   7   21.85    0.64
   3   1  -7   34.21    1.03
  -3  -1   7   33.24    0.85
  -3  -1   7   32.20    0.92
   2   1  -7    0.22    0.05
  -2  -1   7    0.23    0.04
  -2  -1   7    0.15    0.03
   1   1  -7   19.76    0.64
   1   1  -7   20.61    0.66
  -1  -1   7   21.79    0.58
  -1  -1   7   20.85    0.61
   0   1  -7    2.11    0.11
   0  -1   7    2.19    0.10
   0  -1   7    2.26    0.08
  -1   1  -7   17.14    0.53
  -1   1  -7   17.06    0.54
   1  -1   7   15.95    0.49
  -2   1  -7    0.11    0.04
  -2   1  -7    0.01    0.05
   2  -1   7    0.12    0.03
  -4   1  -7    2.82    0.14
  -4   1  -7    2.42    0.16
  -5   1  -7    7.10    0.29
  -5   1  -7    6.65    0.26
  -6   1  -7   -0.04    0.07
  -7   1  -7    2.71    0.19
   8   0  -7    0.52    0.11
  -8   0   7    0.52    0.08
  -8   0   7    0.56    0.09
   7   0  -7    2.30    0.17
  -7   0   7    2.44    0.15
  -7   0   7    2.32    0.14
   6   0  -7    6.22    0.27
  -6   0   7    6.35    0.24
  -6   0   7    6.54    0.24
   5   0  -7    2.01    0.15
  -5   0   7    2.00    0.12
  -5   0   7    2.07    0.13
   4   0  -7    0.07    0.06
  -4   0   7    0.02    0.04
  -4   0   7   -0.04    0.04
  -3   0   7    0.59    0.05
   2   0  -7   18.74    0.58
   2   0  -7   18.70    0.59
  -2   0   7   18.28    0.55
  -2   0   7   17.94    0.52
   1   0  -7   11.24    0.38
   1   0  -7   11.14    0.39
  -1   0   7   11.95    0.36
  -1   0   7   12.45    0.34
   0   0  -7   39.74    1.25
   0   0  -7   39.55    1.27
   0   0   7   41.94    1.11
   0   0   7   42.75    1.17
  -1   0  -7   10.22    0.34
  -1   0  -7   10.35    0.35
   1   0   7   10.32    0.32
  -2   0  -7    3.72    0.16
   2   0   7    3.04    0.13
  -3   0  -7    6.18    0.25
  -3   0  -7    5.82    0.22
   3   0   7    5.86    0.20
  -4   0  -7   12.44    0.41
  -4   0  -7   12.65    0.45
  -5   0  -7    2.56    0.14
  -5   0  -7    2.62    0.17
  -6   0  -7    0.75    0.11
  -7   0  -7    0.55    0.12
   8  -1  -7    0.96    0.13
  -8   1   7    1.18    0.11
   7  -1  -7    2.05    0.17
  -7   1   7    2.38    0.15
  -7   1   7    2.12    0.14
   6  -1  -7    3.88    0.21
  -6   1   7    4.03    0.18
  -6   1   7    4.20    0.18
   5  -1  -7    0.17    0.07
  -5   1   7    0.10    0.05
  -5   1   7    0.19    0.05
   4  -1  -7   19.97    0.65
  -4   1   7   19.45    0.58
  -4   1   7   20.36    0.61
  -3   1   7    9.68    0.31
  -3   1   7    9.69    0.30
  -3   1   7    9.10    0.31
   2  -1  -7    8.38    0.29
  -2   1   7    8.05    0.25
   1  -1  -7    0.42    0.06
   1  -1  -7    0.43    0.05
  -1   1   7    0.43    0.05
  -1   1   7    0.41    0.04
   0  -1  -7    3.87    0.16
   0  -1  -7    3.82    0.16
   0   1   7    3.83    0.15
   0   1   7    3.82    0.13
  -1  -1  -7    4.14    0.17
  -1  -1  -7    4.21    0.18
   1   1   7    4.36    0.16
  -2  -1  -7    3.39    0.14
  -2  -1  -7    3.67    0.17
   2   1   7    3.62    0.14
  -3  -1  -7   10.60    0.36
  -3  -1  -7   11.30    0.39
   3   1   7   10.97    0.34
  -4  -1  -7    9.20    0.35
  -5  -1  -7    4.62    0.23
  -6  -1  -7    0.16    0.08
  -7  -1  -7    8.39    0.36
   8  -2  -7    1.21    0.14
  -8   2   7    1.28    0.12
   7  -2  -7    3.86    0.22
  -7   2   7    3.79    0.18
  -7   2   7    4.01    0.19
   6  -2  -7    0.17    0.09
  -6   2   7    0.02    0.05
  -6   2   7    0.12    0.05
   5  -2  -7    0.57    0.09
  -5   2   7    0.55    0.07
  -5   2   7    0.69    0.08
   4  -2  -7    0.01    0.07
  -4   2   7    0.11    0.05
  -4   2   7    0.06    0.05
  -4   2   7    0.09    0.05
   3  -2  -7   18.13    0.60
   3  -2  -7   18.79    0.59
  -3   2   7   18.97    0.54
  -3   2   7   17.74    0.59
  -3   2   7   18.65    0.56
   2  -2  -7    7.84    0.28
   2  -2  -7    8.38    0.29
  -2   2   7    7.87    0.25
   1  -2  -7   24.05    0.74
   1  -2  -7   22.49    0.72
  -1   2   7   21.92    0.68
  -1   2   7   23.42    0.65
   0  -2  -7   39.61    1.22
   0  -2  -7   39.65    1.26
   0   2   7   41.30    1.15
   0   2   7   39.63    1.10
  -1  -2  -7   10.57    0.38
  -1  -2  -7   10.62    0.35
   1   2   7   10.70    0.34
  -2  -2  -7   11.08    0.38
  -2  -2  -7   10.20    0.35
   2   2   7   10.52    0.34
  -3  -2  -7   12.97    0.45
   3   2   7   12.46    0.40
  -4  -2  -7   12.72    0.46
  -5  -2  -7    2.19    0.16
  -6  -2  -7    8.28    0.35
  -7  -2  -7    4.01    0.24
  -8   3   7    1.07    0.11
   7  -3  -7    2.08    0.18
  -7   3   7    2.02    0.14
  -7   3   7    1.92    0.14
   6  -3  -7    0.61    0.11
  -6   3   7    0.58    0.08
  -6   3   7    0.80    0.09
   5  -3  -7    0.70    0.10
  -5   3   7    0.75    0.08
  -5   3   7    0.55    0.07
   4  -3  -7   20.84    0.69
   4  -3  -7   20.67    0.68
  -4   3   7   20.49    0.61
  -4   3   7   21.37    0.64
  -4   3   7   20.87    0.68
   3  -3  -7   15.04    0.49
   3  -3  -7   13.68    0.48
  -3   3   7   15.12    0.46
  -3   3   7   14.48    0.44
  -3   3   7   14.43    0.48
   2  -3  -7    8.03    0.28
   2  -3  -7    7.64    0.28
  -2   3   7    6.51    0.25
  -2   3   7    8.19    0.25
   1  -3  -7    9.54    0.34
   1  -3  -7    9.82    0.34
  -1   3   7    9.92    0.30
   0  -3  -7   18.23    0.58
   0  -3  -7   17.85    0.60
   0   3   7   18.53    0.55
  -1  -3  -7   11.49    0.38
  -1  -3  -7   11.45    0.41
   1   3   7   11.78    0.37
  -2  -3  -7    6.39    0.27
   2   3   7    6.51    0.23
  -3  -3  -7    1.95    0.15
  -4  -3  -7    6.74    0.29
  -5  -3  -7    0.28    0.09
  -6  -3  -7    0.71    0.12
  -7  -3  -7   -0.18    0.10
   7  -4  -7    1.65    0.16
  -7   4   7    1.67    0.13
   6  -4  -7    0.17    0.10
  -6   4   7    0.22    0.06
  -6   4   7    0.19    0.06
   5  -4  -7    0.29    0.09
  -5   4   7    0.28    0.06
  -5   4   7    0.36    0.06
   4  -4  -7    4.88    0.23
   4  -4  -7    4.89    0.21
  -4   4   7    5.23    0.21
  -4   4   7    4.73    0.19
  -4   4   7    5.17    0.20
   3  -4  -7    5.55    0.24
   3  -4  -7    5.59    0.23
  -3   4   7    5.72    0.21
  -3   4   7    5.21    0.22
  -3   4   7    5.58    0.21
   2  -4  -7    8.72    0.32
   2  -4  -7    8.50    0.32
  -2   4   7    8.56    0.28
  -2   4   7    8.81    0.30
   1  -4  -7   10.19    0.36
   1  -4  -7   10.00    0.37
  -1   4   7   10.52    0.33
  -1   4   7   10.84    0.35
   0  -4  -7   10.04    0.37
   0  -4  -7   10.63    0.35
   0   4   7    9.82    0.34
  -1  -4  -7    0.01    0.07
  -1  -4  -7    0.06    0.05
   1   4   7    0.04    0.05
   2   4   7    0.23    0.06
  -3  -4  -7    7.90    0.32
  -4  -4  -7    1.68    0.15
  -5  -4  -7    1.34    0.14
  -6  -4  -7    0.35    0.11
   7  -5  -7    0.25    0.12
  -7   5   7    0.49    0.09
   6  -5  -7    0.36    0.11
  -6   5   7    0.27    0.07
  -6   5   7    0.32    0.07
   5  -5  -7    1.56    0.16
  -5   5   7    1.84    0.12
  -5   5   7    1.50    0.12
  -5   5   7    1.58    0.14
   4  -5  -7    2.27    0.15
   4  -5  -7    2.08    0.16
  -4   5   7    2.11    0.13
  -4   5   7    2.27    0.13
  -4   5   7    2.23    0.15
   3  -5  -7    3.71    0.18
   3  -5  -7    3.77    0.19
  -3   5   7    3.66    0.18
  -3   5   7    3.51    0.16
  -3   5   7    3.70    0.17
   2  -5  -7    0.02    0.07
   2  -5  -7    0.02    0.06
  -2   5   7    0.07    0.05
  -2   5   7    0.09    0.05
   1  -5  -7    0.74    0.09
   1  -5  -7    0.70    0.09
  -1   5   7    0.70    0.08
   0  -5  -7    0.22    0.07
   0  -5  -7    0.26    0.06
   0   5   7    0.23    0.06
  -1  -5  -7    7.22    0.30
   1   5   7    7.53    0.27
  -2  -5  -7    2.89    0.18
   2   5   7    2.42    0.15
  -3  -5  -7    2.35    0.18
  -4  -5  -7    0.24    0.10
  -5  -5  -7    0.21    0.10
  -6  -5  -7    0.06    0.10
   6  -6  -7    0.31    0.11
  -6   6   7    0.18    0.07
   5  -6  -7    1.43    0.15
  -5   6   7    1.56    0.12
  -5   6   7    1.47    0.12
  -5   6   7    1.59    0.15
   4  -6  -7    4.18    0.22
   4  -6  -7    4.01    0.20
  -4   6   7    3.86    0.18
  -4   6   7    4.02    0.18
  -4   6   7    3.98    0.20
   3  -6  -7    2.64    0.16
   3  -6  -7    2.70    0.17
  -3   6   7    2.44    0.14
  -3   6   7    2.73    0.16
  -3   6   7    2.54    0.14
   2  -6  -7    3.83    0.19
   2  -6  -7    3.58    0.18
  -2   6   7    3.49    0.17
   1  -6  -7    3.54    0.19
   1  -6  -7    3.68    0.18
  -1   6   7    3.67    0.17
   0  -6  -7    5.90    0.26
   0   6   7    6.07    0.24
  -1  -6  -7    0.25    0.09
   1   6   7    0.41    0.07
  -2  -6  -7    0.30    0.10
  -3  -6  -7    1.19    0.13
  -4  -6  -7    1.40    0.15
  -5  -6  -7    1.01    0.14
   5  -7  -7    0.74    0.13
   5  -7  -7    0.63    0.11
  -5   7   7    0.45    0.08
  -5   7   7    0.62    0.11
  -5   7   7    0.50    0.08
   4  -7  -7    0.83    0.12
   4  -7  -7    0.86    0.11
  -4   7   7    0.74    0.11
  -4   7   7    0.82    0.10
  -4   7   7    0.80    0.10
   3  -7  -7    0.11    0.08
   3  -7  -7    0.07    0.08
  -3   7   7    0.04    0.08
  -3   7   7    0.04    0.06
   2  -7  -7    0.71    0.11
   2  -7  -7    0.63    0.10
  -2   7   7    0.72    0.09
   1  -7  -7   -0.03    0.08
  -1   7   7    0.04    0.06
   0  -7  -7    1.13    0.12
   0   7   7    1.02    0.10
  -1  -7  -7    0.99    0.12
  -2  -7  -7    1.99    0.17
  -3  -7  -7    0.25    0.11
  -4  -7  -7    0.99    0.14
   4  -8  -7    0.44    0.12
   4  -8  -7    0.51    0.11
  -4   8   7    0.57    0.11
  -4   8   7    0.48    0.09
   3  -8  -7    1.80    0.17
   3  -8  -7    1.82    0.17
  -3   8   7    1.52    0.13
   2  -8  -7    0.47    0.10
  -2   8   7    0.33    0.08
   1  -8  -7    1.15    0.13
  -1   8   7    1.37    0.12
   0  -8  -7    0.78    0.12
   0   8   7    1.02    0.11
  -1  -8  -7    0.49    0.11
  -2  -8  -7    0.27    0.11
  -3  -8  -7    1.45    0.16
   2  -9  -7    0.15    0.10
  -2   9   7    0.08    0.07
   1  -9  -7    0.06    0.09
  -1   9   7    0.15    0.08
   0  -9  -7    0.00    0.10
  -2 -11   8    1.17    0.12
  -1 -11   8    1.07    0.11
  -1  11  -8    0.90    0.11
  -1  11  -8    0.81    0.11
   1 -11   8    0.72    0.12
  -2  11  -8   -0.04    0.08
  -4 -10   8    0.47    0.09
  -4 -10   8    0.58    0.08
  -3 -10   8    1.52    0.13
  -2 -10   8   -0.02    0.06
  -1 -10   8    0.37    0.08
   0  10  -8    0.33    0.08
   0 -10   8    0.39    0.09
  -1  10  -8    1.86    0.15
  -1  10  -8    1.75    0.16
   1 -10   8    1.63    0.16
  -2  10  -8    0.80    0.11
  -2  10  -8    0.80    0.11
  -3  10  -8    1.88    0.16
  -4  10  -8    0.15    0.09
  -5  -9   8    0.25    0.07
  -5  -9   8    0.42    0.09
  -4  -9   8    2.02    0.12
  -4  -9   8    1.86    0.15
  -3  -9   8    0.42    0.08
  -2  -9   8    0.04    0.06
   1   9  -8    0.08    0.07
  -1  -9   8    0.15    0.06
   0   9  -8    0.68    0.09
   0   9  -8    0.71    0.09
   0  -9   8    0.69    0.08
   0  -9   8    0.67    0.09
  -1   9  -8    4.41    0.22
  -1   9  -8    4.61    0.22
  -2   9  -8    2.28    0.16
  -2   9  -8    2.12    0.15
  -3   9  -8    0.07    0.08
  -3   9  -8    0.11    0.08
  -4   9  -8   -0.01    0.08
  -5   9  -8    0.66    0.11
  -6  -8   8    2.29    0.16
  -6  -8   8    2.10    0.14
  -6  -8   8    1.89    0.15
  -5  -8   8    1.19    0.10
  -5  -8   8    1.25    0.12
  -4  -8   8    2.12    0.12
  -4  -8   8    2.21    0.15
  -3  -8   8    0.27    0.07
   2   8  -8    0.06    0.06
  -2  -8   8   -0.02    0.06
   1   8  -8    0.04    0.06
  -1  -8   8    0.04    0.05
   0   8  -8    6.39    0.26
   0   8  -8    6.59    0.26
   0  -8   8    6.35    0.24
  -1   8  -8    1.05    0.10
  -1   8  -8    1.15    0.11
  -2   8  -8    0.23    0.07
  -2   8  -8    0.34    0.08
  -3   8  -8    0.67    0.09
  -3   8  -8    0.77    0.11
  -4   8  -8    0.17    0.08
  -4   8  -8    0.07    0.08
  -5   8  -8    0.12    0.09
  -6  -7   8    3.89    0.20
  -6  -7   8    4.00    0.20
  -6  -7   8    4.06    0.18
  -5  -7   8    0.93    0.09
  -5  -7   8    0.87    0.10
  -5  -7   8    0.99    0.10
  -4  -7   8    0.34    0.07
  -4  -7   8    0.26    0.06
   3   7  -8    0.24    0.06
  -3  -7   8    0.15    0.06
  -3  -7   8    0.23    0.05
   2   7  -8    3.22    0.16
  -2  -7   8    3.18    0.16
   1   7  -8    0.95    0.09
  -1  -7   8    0.96    0.08
  -1  -7   8    0.83    0.08
   0   7  -8    9.14    0.33
   0   7  -8    9.29    0.33
   0  -7   8    8.94    0.30
  -1   7  -8   12.29    0.43
  -1   7  -8   12.16    0.42
  -2   7  -8    4.10    0.19
  -2   7  -8    4.08    0.20
  -3   7  -8    0.31    0.07
  -3   7  -8    0.42    0.08
  -4   7  -8    2.97    0.18
  -4   7  -8    3.38    0.19
  -5   7  -8    2.74    0.18
  -6   7  -8    0.22    0.10
  -7  -6   8    4.77    0.21
  -7  -6   8    5.25    0.23
  -7  -6   8    5.33    0.24
  -6  -6   8    0.76    0.09
  -6  -6   8    0.75    0.09
  -6  -6   8    0.81    0.10
  -5  -6   8    3.73    0.17
  -5  -6   8    3.54    0.18
  -5  -6   8    3.60    0.16
   4   6  -8    0.32    0.07
  -4  -6   8    0.33    0.07
  -4  -6   8    0.34    0.06
  -4  -6   8    0.34    0.06
   3   6  -8   12.01    0.41
  -3  -6   8   11.94    0.40
  -3  -6   8   12.10    0.35
   2   6  -8    0.46    0.07
  -2  -6   8    0.63    0.06
  -2  -6   8    0.58    0.07
   1   6  -8    1.78    0.12
  -1  -6   8    1.89    0.11
  -1  -6   8    1.58    0.10
   0   6  -8    6.19    0.23
   0   6  -8    6.25    0.24
   0  -6   8    6.23    0.22
  -1   6  -8    9.28    0.34
  -1   6  -8    9.35    0.33
   1  -6   8    9.14    0.29
  -2   6  -8    0.04    0.05
  -2   6  -8    0.01    0.06
  -3   6  -8    0.36    0.07
  -3   6  -8    0.24    0.07
  -4   6  -8    0.88    0.10
  -4   6  -8    1.00    0.10
  -5   6  -8    0.10    0.08
  -5   6  -8    0.13    0.08
  -6   6  -8   -0.02    0.08
  -7  -5   8    4.44    0.21
  -7  -5   8    4.43    0.19
  -7  -5   8    5.14    0.23
  -6  -5   8    3.83    0.16
  -6  -5   8    3.79    0.18
  -6  -5   8    4.07    0.20
   5   5  -8    1.64    0.13
  -5  -5   8    1.85    0.12
  -5  -5   8    1.86    0.13
  -5  -5   8    1.65    0.11
   4   5  -8   -0.03    0.06
  -4  -5   8    0.05    0.05
  -4  -5   8    0.08    0.04
  -4  -5   8   -0.01    0.04
   3   5  -8    0.90    0.09
  -3  -5   8    1.05    0.08
  -3  -5   8    0.95    0.09
  -3  -5   8    0.98    0.08
   2   5  -8    0.19    0.06
  -2  -5   8    0.26    0.04
  -2  -5   8    0.22    0.05
   1   5  -8    3.02    0.15
  -1  -5   8    2.90    0.14
  -1  -5   8    3.07    0.11
   0   5  -8    2.43    0.13
   0   5  -8    2.52    0.12
   0  -5   8    2.55    0.09
   0  -5   8    2.31    0.12
  -1   5  -8   10.28    0.36
  -1   5  -8   10.17    0.35
   1  -5   8   10.40    0.32
  -2   5  -8    0.26    0.06
  -2   5  -8    0.33    0.07
  -3   5  -8    1.94    0.13
  -3   5  -8    1.76    0.14
  -4   5  -8    3.34    0.18
  -4   5  -8    3.31    0.18
  -5   5  -8    1.61    0.14
  -5   5  -8    1.59    0.14
  -6   5  -8    0.48    0.10
  -7   5  -8    1.64    0.17
  -8  -4   8    1.54    0.14
  -8  -4   8    1.35    0.12
  -8  -4   8    1.32    0.13
  -7  -4   8    1.72    0.13
  -7  -4   8    1.67    0.14
  -7  -4   8    1.62    0.12
   6   4  -8    3.43    0.18
  -6  -4   8    3.46    0.17
  -6  -4   8    3.43    0.17
  -6  -4   8    3.33    0.15
   5   4  -8    2.81    0.17
  -5  -4   8    2.91    0.15
  -5  -4   8    3.10    0.13
  -5  -4   8    3.01    0.15
   4   4  -8    2.71    0.15
  -4  -4   8    2.67    0.13
  -4  -4   8    2.88    0.15
  -4  -4   8    2.58    0.12
   3   4  -8    1.59    0.12
  -3  -4   8    1.82    0.10
  -3  -4   8    1.78    0.11
  -3  -4   8    1.59    0.11
   2   4  -8    0.68    0.07
  -2  -4   8    0.69    0.06
  -2  -4   8    0.61    0.06
  -2  -4   8    0.56    0.06
   1   4  -8    0.05    0.05
   1   4  -8    0.05    0.02
  -1  -4   8    0.05    0.03
  -1  -4   8   -0.02    0.03
  -1  -4   8   -0.01    0.03
   0   4  -8   18.55    0.59
   0   4  -8   18.93    0.60
   0  -4   8   18.19    0.55
   0  -4   8   18.35    0.52
   0  -4   8   18.77    0.48
  -1   4  -8    2.25    0.11
   1  -4   8    2.33    0.10
  -2   4  -8    2.24    0.12
  -2   4  -8    2.13    0.13
  -3   4  -8    6.90    0.27
  -3   4  -8    7.02    0.27
  -4   4  -8    3.55    0.18
  -4   4  -8    3.71    0.19
  -5   4  -8    0.74    0.10
  -5   4  -8    0.73    0.10
  -6   4  -8    0.15    0.09
  -7   4  -8    0.63    0.12
  -8  -3   8    2.11    0.16
  -8  -3   8    1.95    0.15
  -8  -3   8    1.84    0.13
   7   3  -8    1.90    0.16
  -7  -3   8    1.60    0.12
  -7  -3   8    1.61    0.13
  -7  -3   8    1.58    0.13
   6   3  -8    1.35    0.13
  -6  -3   8    1.33    0.11
  -6  -3   8    1.47    0.12
  -6  -3   8    1.34    0.10
   5   3  -8    0.48    0.08
  -5  -3   8    0.38    0.07
  -5  -3   8    0.41    0.06
  -5  -3   8    0.27    0.06
   4   3  -8   14.07    0.46
  -4  -3   8   13.05    0.41
  -4  -3   8   13.61    0.44
  -4  -3   8   13.26    0.38
   3   3  -8    9.56    0.33
  -3  -3   8    8.83    0.29
  -3  -3   8    9.19    0.31
  -3  -3   8    9.45    0.27
   2   3  -8   16.62    0.53
  -2  -3   8   15.98    0.49
  -2  -3   8   16.15    0.43
  -2  -3   8   15.67    0.46
   1   3  -8   14.02    0.46
   1   3  -8   13.85    0.44
  -1  -3   8   13.40    0.42
  -1  -3   8   14.16    0.40
  -1  -3   8   13.75    0.36
   0  -3   8    9.28    0.24
   0  -3   8    9.30    0.29
   0  -3   8    9.08    0.27
  -1   3  -8   11.44    0.38
  -1   3  -8   11.31    0.38
   1  -3   8   10.93    0.34
  -2   3  -8   11.70    0.39
  -2   3  -8   11.63    0.39
   2  -3   8   10.88    0.34
  -3   3  -8   18.19    0.61
  -3   3  -8   19.27    0.62
  -4   3  -8   10.41    0.38
  -4   3  -8    9.91    0.36
  -5   3  -8    0.01    0.06
  -5   3  -8    0.00    0.07
  -6   3  -8    1.23    0.13
  -7   3  -8    0.71    0.12
  -8  -2   8    2.39    0.16
  -8  -2   8    2.17    0.14
  -8  -2   8    2.25    0.15
   7   2  -8    4.42    0.23
  -7  -2   8    4.84    0.21
  -7  -2   8    4.62    0.21
  -7  -2   8    4.79    0.19
   6   2  -8    0.59    0.09
  -6  -2   8    0.65    0.08
  -6  -2   8    0.50    0.08
  -6  -2   8    0.51    0.08
   5   2  -8    2.01    0.14
  -5  -2   8    1.62    0.13
  -5  -2   8    1.71    0.13
  -5  -2   8    1.72    0.11
   4   2  -8   19.11    0.62
  -4  -2   8   18.33    0.51
  -4  -2   8   18.78    0.55
  -4  -2   8   18.82    0.58
   3   2  -8   13.26    0.44
  -3  -2   8   13.02    0.39
  -3  -2   8   12.98    0.36
   2   2  -8    2.13    0.13
  -2  -2   8    2.17    0.10
  -2  -2   8    2.18    0.11
  -2  -2   8    2.07    0.09
  -1  -2   8    2.77    0.10
  -1  -2   8    2.56    0.12
   0   2  -8   14.93    0.49
   0  -2   8   15.57    0.45
   0  -2   8   14.80    0.42
  -1   2  -8   13.17    0.44
  -1   2  -8   13.85    0.44
   1  -2   8   13.28    0.40
  -2   2  -8   38.33    1.20
  -2   2  -8   37.64    1.17
   2  -2   8   37.82    1.08
  -3   2  -8    5.52    0.23
  -3   2  -8    5.61    0.22
  -4   2  -8    0.77    0.09
  -4   2  -8    1.28    0.11
  -5   2  -8    1.14    0.10
  -5   2  -8    1.13    0.12
  -6   2  -8    0.66    0.10
  -7   2  -8    1.12    0.13
   8   1  -8    0.55    0.11
  -8  -1   8    0.62    0.09
  -8  -1   8    0.51    0.09
   7   1  -8    1.91    0.16
  -7  -1   8    1.81    0.14
  -7  -1   8    1.79    0.13
   6   1  -8    3.37    0.19
  -6  -1   8    3.32    0.17
  -6  -1   8    3.16    0.16
   5   1  -8   32.28    1.01
  -5  -1   8   31.60    0.91
  -5  -1   8   31.29    0.94
   4   1  -8   23.08    0.73
  -4  -1   8   22.19    0.65
  -4  -1   8   22.62    0.68
   3   1  -8   13.08    0.44
  -3  -1   8   13.18    0.39
  -2  -1   8    1.77    0.09
  -2  -1   8    1.75    0.10
   1   1  -8    3.26    0.13
   1   1  -8    3.41    0.16
  -1  -1   8    3.72    0.12
  -1  -1   8    3.36    0.14
   0   1  -8   24.77    0.86
   0   1  -8   28.79    0.86
   0  -1   8   28.00    0.75
   0  -1   8   28.22    0.79
  -1   1  -8   21.06    0.65
  -1   1  -8   19.58    0.63
   1  -1   8   19.42    0.59
  -2   1  -8    5.76    0.22
  -2   1  -8    5.73    0.24
   2  -1   8    5.96    0.20
  -3   1  -8    0.95    0.09
  -3   1  -8    1.18    0.10
   3  -1   8    1.11    0.07
  -4   1  -8    6.49    0.24
  -4   1  -8    6.21    0.26
  -5   1  -8    0.17    0.08
  -5   1  -8    0.13    0.06
  -6   1  -8    0.03    0.08
  -7   1  -8   -0.02    0.09
   8   0  -8    0.11    0.10
  -8   0   8    0.13    0.07
  -8   0   8    0.19    0.07
   7   0  -8    0.98    0.12
  -7   0   8    0.99    0.10
  -7   0   8    0.81    0.09
   6   0  -8    4.67    0.23
  -6   0   8    4.86    0.20
  -6   0   8    4.40    0.19
   5   0  -8    5.08    0.23
  -5   0   8    4.98    0.20
  -5   0   8    5.17    0.21
   4   0  -8    4.44    0.20
  -4   0   8    4.52    0.18
  -4   0   8    4.52    0.19
   2   0  -8    0.31    0.06
   2   0  -8    0.35    0.04
  -2   0   8    0.34    0.05
  -2   0   8    0.30    0.04
   1   0  -8    5.92    0.24
  -1   0   8    6.67    0.20
  -1   0   8    6.47    0.22
   0   0  -8    0.01    0.05
   0   0  -8    0.01    0.04
   0   0   8    0.00    0.03
   0   0   8    0.05    0.03
  -1   0  -8   16.60    0.53
  -1   0  -8   15.58    0.52
   1   0   8   15.85    0.48
  -2   0  -8    0.98    0.10
  -2   0  -8    0.93    0.09
  -3   0  -8    1.67    0.13
  -3   0  -8    1.41    0.10
   3   0   8    1.38    0.09
  -4   0  -8    0.13    0.05
  -4   0  -8    0.10    0.07
  -5   0  -8    1.81    0.15
  -6   0  -8   -0.08    0.08
  -7   0  -8    1.81    0.17
   8  -1  -8    0.54    0.12
  -8   1   8    0.66    0.10
  -8   1   8    0.68    0.09
   7  -1  -8    5.63    0.27
  -7   1   8    5.76    0.24
  -7   1   8    5.23    0.23
   6  -1  -8    3.94    0.21
  -6   1   8    4.20    0.19
  -6   1   8    4.27    0.18
   5  -1  -8    8.26    0.32
  -5   1   8    8.06    0.29
  -5   1   8    8.25    0.28
   4  -1  -8    1.79    0.14
  -4   1   8    1.64    0.11
  -4   1   8    1.79    0.12
   3  -1  -8    3.50    0.17
  -3   1   8    3.24    0.14
  -3   1   8    3.02    0.14
   2  -1  -8    0.29    0.05
   2  -1  -8    0.29    0.06
  -2   1   8    0.32    0.05
   1  -1  -8    0.14    0.05
   1  -1  -8    0.14    0.05
  -1   1   8    0.12    0.04
  -1   1   8    0.14    0.04
   0  -1  -8   20.85    0.66
   0  -1  -8   20.84    0.68
   0   1   8   20.95    0.59
   0   1   8   21.17    0.62
  -1  -1  -8   26.37    0.84
  -1  -1  -8   25.92    0.82
   1   1   8   26.46    0.77
  -3  -1  -8   15.88    0.51
  -3  -1  -8   16.32    0.55
   3   1   8   15.45    0.48
  -4  -1  -8   13.51    0.49
  -5  -1  -8    1.64    0.14
  -6  -1  -8    0.28    0.09
  -7  -1  -8    2.71    0.21
   7  -2  -8    0.90    0.13
  -7   2   8    0.87    0.10
  -7   2   8    0.97    0.10
   6  -2  -8    9.33    0.37
  -6   2   8    9.14    0.32
  -6   2   8    9.37    0.33
   5  -2  -8    1.88    0.15
  -5   2   8    1.90    0.13
  -5   2   8    1.81    0.12
   4  -2  -8   21.02    0.71
  -4   2   8   21.85    0.63
  -4   2   8   22.05    0.66
   3  -2  -8    5.86    0.22
   3  -2  -8    5.71    0.24
  -3   2   8    5.88    0.21
  -3   2   8    5.61    0.22
   2  -2  -8    5.03    0.21
   2  -2  -8    5.04    0.19
  -2   2   8    4.83    0.18
   1  -2  -8    2.96    0.14
   1  -2  -8    2.97    0.15
  -1   2   8    2.96    0.13
  -1   2   8    2.98    0.14
   0  -2  -8   12.20    0.41
   0  -2  -8   11.94    0.42
   0   2   8   12.14    0.36
   0   2   8   12.31    0.38
  -1  -2  -8    6.58    0.26
  -1  -2  -8    6.50    0.24
   1   2   8    6.82    0.24
  -2  -2  -8    4.96    0.20
  -2  -2  -8    5.53    0.23
   2   2   8    5.21    0.20
  -3  -2  -8    3.19    0.18
   3   2   8    3.32    0.15
  -4  -2  -8    3.03    0.18
  -5  -2  -8    2.00    0.16
  -6  -2  -8    2.91    0.20
  -7  -2  -8    4.69    0.27
   7  -3  -8    5.61    0.28
  -7   3   8    5.39    0.23
  -7   3   8    5.80    0.24
   6  -3  -8    5.45    0.26
  -6   3   8    5.30    0.22
  -6   3   8    5.44    0.22
   5  -3  -8    2.55    0.17
  -5   3   8    2.06    0.13
  -5   3   8    2.20    0.13
   4  -3  -8    7.10    0.29
  -4   3   8    7.14    0.26
  -4   3   8    7.10    0.25
   3  -3  -8    3.07    0.15
   3  -3  -8    2.91    0.17
  -3   3   8    2.92    0.15
  -3   3   8    2.84    0.14
   2  -3  -8    7.09    0.26
   2  -3  -8    6.85    0.27
  -2   3   8    6.91    0.24
  -2   3   8    7.07    0.25
   1  -3  -8    2.55    0.15
   1  -3  -8    2.61    0.15
  -1   3   8    3.01    0.13
  -1   3   8    2.77    0.14
   0  -3  -8   30.52    0.95
   0  -3  -8   30.36    0.98
   0   3   8   30.50    0.90
  -2  -3  -8    0.56    0.09
   2   3   8    0.56    0.07
  -3  -3  -8    3.63    0.20
  -4  -3  -8    4.97    0.24
  -5  -3  -8    0.98    0.12
  -6  -3  -8    0.69    0.13
   7  -4  -8    4.04    0.24
  -7   4   8    3.95    0.19
   6  -4  -8   -0.07    0.09
  -6   4   8   -0.02    0.06
  -6   4   8    0.04    0.06
   5  -4  -8    0.48    0.10
  -5   4   8    0.57    0.08
  -5   4   8    0.50    0.07
   4  -4  -8    0.52    0.10
  -4   4   8    0.58    0.08
  -4   4   8    0.48    0.07
  -4   4   8    0.44    0.07
   3  -4  -8    3.22    0.17
   3  -4  -8    3.06    0.16
  -3   4   8    3.07    0.15
  -3   4   8    3.14    0.15
   2  -4  -8   -0.03    0.06
   2  -4  -8    0.01    0.06
  -2   4   8   -0.02    0.04
  -2   4   8   -0.03    0.04
   1  -4  -8    5.20    0.23
   1  -4  -8    5.04    0.22
  -1   4   8    5.43    0.21
  -1   4   8    5.63    0.20
  -1  -4  -8    1.05    0.11
   1   4   8    1.20    0.11
  -2  -4  -8    8.48    0.34
   2   4   8    8.32    0.30
  -3  -4  -8    6.68    0.29
  -4  -4  -8    4.67    0.24
  -5  -4  -8    0.04    0.10
  -6  -4  -8    0.86    0.13
   6  -5  -8    0.50    0.12
  -6   5   8    0.53    0.08
  -6   5   8    0.42    0.08
   5  -5  -8    1.88    0.17
  -5   5   8    1.91    0.13
  -5   5   8    1.87    0.13
   4  -5  -8    5.42    0.25
   4  -5  -8    5.00    0.23
  -4   5   8    5.42    0.23
  -4   5   8    5.20    0.21
  -4   5   8    5.14    0.22
   3  -5  -8    6.08    0.26
   3  -5  -8    6.38    0.25
  -3   5   8    5.87    0.23
  -3   5   8    5.90    0.24
   2  -5  -8    1.46    0.12
   2  -5  -8    1.61    0.13
  -2   5   8    1.10    0.10
  -2   5   8    1.27    0.11
   1  -5  -8    0.37    0.08
   1  -5  -8    0.39    0.08
  -1   5   8    0.43    0.07
   0   5   8    0.16    0.06
  -1  -5  -8    1.53    0.15
   1   5   8    1.46    0.12
  -2  -5  -8    0.30    0.10
   2   5   8    0.57    0.08
  -3  -5  -8    2.37    0.18
  -4  -5  -8    0.35    0.10
  -5  -5  -8    1.39    0.15
   5  -6  -8    0.69    0.12
  -5   6   8    0.55    0.08
  -5   6   8    0.45    0.08
   4  -6  -8    3.68    0.19
   4  -6  -8    3.07    0.20
  -4   6   8    3.13    0.16
  -4   6   8    3.46    0.17
  -4   6   8    3.47    0.19
   3  -6  -8    1.41    0.14
   3  -6  -8    1.24    0.12
  -3   6   8    1.28    0.12
  -3   6   8    1.34    0.12
   2  -6  -8    1.14    0.12
   2  -6  -8    1.17    0.11
  -2   6   8    1.36    0.12
   1  -6  -8    3.24    0.18
   1  -6  -8    3.08    0.18
  -1   6   8    3.17    0.16
   0  -6  -8    3.51    0.20
   0   6   8    3.35    0.17
  -1  -6  -8    3.76    0.21
   1   6   8    4.07    0.19
  -2  -6  -8    2.57    0.18
  -3  -6  -8    1.92    0.17
  -4  -6  -8    1.77    0.18
  -5   7   8    0.91    0.10
  -5   7   8    0.63    0.09
   4  -7  -8    0.81    0.11
   4  -7  -8    0.68    0.12
  -4   7   8    0.72    0.10
  -4   7   8    0.65    0.09
  -4   7   8    0.77    0.11
   3  -7  -8    1.13    0.12
   3  -7  -8    1.15    0.12
  -3   7   8    1.02    0.11
   2  -7  -8    1.17    0.12
   2  -7  -8    1.22    0.12
  -2   7   8    1.25    0.11
   1  -7  -8    1.58    0.15
  -1   7   8    1.41    0.13
   0  -7  -8    3.11    0.19
   0   7   8    2.90    0.17
  -1  -7  -8    2.85    0.19
   1   7   8    2.83    0.17
  -2  -7  -8    1.81    0.17
  -3  -7  -8    1.92    0.19
   3  -8  -8    2.05    0.17
  -3   8   8    1.58    0.14
   2  -8  -8    0.84    0.12
  -2   8   8    0.87    0.10
   1  -8  -8    0.02    0.10
  -1   8   8    0.11    0.07
   0  -8  -8    0.33    0.10
   0   8   8    0.33    0.08
  -1  -8  -8   -0.12    0.10
  -2  -8  -8    0.02    0.10
  -1  11  -9    0.64    0.11
  -3 -10   9    1.85    0.15
  -2 -10   9    2.20    0.16
  -1 -10   9    2.69    0.16
   0  10  -9    1.69    0.15
  -1  10  -9    0.70    0.11
  -2  10  -9    0.52    0.11
  -2  10  -9    0.52    0.10
  -3  10  -9    1.03    0.13
  -3  10  -9    1.10    0.13
  -5  -9   9    0.07    0.07
  -5  -9   9    0.02    0.06
  -4  -9   9    0.70    0.10
  -4  -9   9    0.84    0.09
  -3  -9   9    1.55    0.11
  -3  -9   9    1.43    0.13
  -2  -9   9    0.95    0.10
   1   9  -9    0.36    0.08
  -1  -9   9    0.23    0.07
   0   9  -9    0.39    0.08
  -1   9  -9    0.51    0.08
  -1   9  -9    0.55    0.09
  -2   9  -9    1.17    0.11
  -2   9  -9    1.14    0.12
  -3   9  -9    0.83    0.12
  -3   9  -9    0.99    0.11
  -4   9  -9    1.11    0.13
  -4   9  -9    1.02    0.12
  -5  -8   9    0.69    0.10
  -5  -8   9    0.74    0.09
  -5  -8   9    0.83    0.09
  -4  -8   9    2.36    0.13
  -4  -8   9    2.11    0.15
  -3  -8   9    0.46    0.07
  -3  -8   9    0.30    0.07
   2   8  -9    1.30    0.13
  -2  -8   9    1.35    0.12
   1   8  -9    3.86    0.19
  -1  -8   9    3.59    0.17
   0   8  -9    5.49    0.24
   0  -8   9    5.53    0.21
  -1   8  -9    2.65    0.16
  -1   8  -9    2.92    0.16
  -2   8  -9    1.75    0.14
  -2   8  -9    1.85    0.14
  -3   8  -9   -0.02    0.07
  -3   8  -9   -0.05    0.06
  -4   8  -9    1.58    0.16
  -4   8  -9    1.50    0.15
  -5   8  -9    1.39    0.14
  -6  -7   9    0.62    0.09
  -6  -7   9    0.54    0.09
  -6  -7   9    0.47    0.09
  -5  -7   9    0.87    0.10
  -5  -7   9    0.96    0.09
  -5  -7   9    0.83    0.09
  -4  -7   9    0.41    0.08
  -4  -7   9    0.47    0.07
  -4  -7   9    0.41    0.07
   3   7  -9   10.40    0.37
  -3  -7   9   10.45    0.31
  -3  -7   9   10.57    0.36
   2   7  -9    9.18    0.34
  -2  -7   9    9.44    0.33
  -2  -7   9    9.49    0.28
   1   7  -9    1.60    0.13
  -1  -7   9    1.54    0.11
   0   7  -9    3.69    0.17
   0   7  -9    3.59    0.18
   0  -7   9    3.54    0.15
  -1   7  -9    3.80    0.18
  -1   7  -9    4.00    0.19
  -2   7  -9    2.71    0.16
  -2   7  -9    2.72    0.16
  -3   7  -9    0.02    0.07
  -3   7  -9    0.10    0.06
  -4   7  -9    1.03    0.11
  -4   7  -9    1.11    0.12
  -5   7  -9    0.15    0.09
  -5   7  -9    0.20    0.09
  -6   7  -9    0.70    0.12
  -7  -6   9    2.70    0.17
  -7  -6   9    2.54    0.16
  -7  -6   9    2.51    0.15
  -6  -6   9    2.66    0.16
  -6  -6   9    2.90    0.15
  -6  -6   9    2.94    0.17
  -5  -6   9    0.55    0.08
  -5  -6   9    0.66    0.08
  -5  -6   9    0.60    0.09
   4   6  -9    1.58    0.14
  -4  -6   9    1.94    0.12
  -4  -6   9    1.92    0.11
  -4  -6   9    1.86    0.13
   3   6  -9    0.93    0.09
  -3  -6   9    0.90    0.08
  -3  -6   9    0.81    0.09
  -3  -6   9    0.93    0.08
   2   6  -9    0.06    0.06
  -2  -6   9    0.04    0.04
  -2  -6   9   -0.01    0.05
   1   6  -9    1.93    0.13
  -1  -6   9    1.92    0.11
  -1  -6   9    1.90    0.09
   0   6  -9    4.39    0.18
   0   6  -9    4.31    0.20
   0  -6   9    4.33    0.17
  -1   6  -9   14.61    0.50
  -1   6  -9   15.17    0.51
  -2   6  -9    1.48    0.12
  -2   6  -9    1.36    0.11
  -3   6  -9    0.81    0.10
  -3   6  -9    0.83    0.09
  -4   6  -9    0.09    0.07
  -4   6  -9    0.11    0.07
  -5   6  -9    1.43    0.14
  -5   6  -9    1.62    0.15
  -6   6  -9    0.13    0.09
  -7  -5   9    1.31    0.12
  -7  -5   9    1.30    0.12
  -7  -5   9    1.58    0.14
  -6  -5   9    2.14    0.14
  -6  -5   9    2.03    0.13
  -6  -5   9    2.35    0.15
   5   5  -9    1.11    0.11
  -5  -5   9    1.16    0.09
  -5  -5   9    1.09    0.10
  -5  -5   9    1.05    0.09
   4   5  -9   -0.11    0.06
  -4  -5   9    0.08    0.05
  -4  -5   9    0.04    0.05
  -4  -5   9    0.02    0.05
   3   5  -9    2.33    0.15
  -3  -5   9    2.52    0.13
  -3  -5   9    2.38    0.11
  -3  -5   9    2.51    0.14
   2   5  -9    0.05    0.05
  -2  -5   9    0.02    0.04
  -2  -5   9    0.05    0.04
  -2  -5   9    0.14    0.04
   1   5  -9    0.11    0.06
  -1  -5   9    0.15    0.04
  -1  -5   9    0.13    0.04
  -1  -5   9    0.06    0.05
   0   5  -9    4.63    0.18
   0   5  -9    4.62    0.20
   0  -5   9    4.43    0.17
   0  -5   9    4.58    0.15
   0  -5   9    4.59    0.14
  -1   5  -9    1.62    0.11
  -1   5  -9    1.65    0.12
   1  -5   9    1.54    0.09
  -2   5  -9    3.28    0.16
  -3   5  -9    0.13    0.06
  -3   5  -9    0.07    0.06
  -4   5  -9    0.29    0.08
  -4   5  -9    0.17    0.07
  -5   5  -9    2.77    0.18
  -5   5  -9    2.78    0.18
  -6   5  -9    0.40    0.10
  -7  -4   9    4.40    0.21
  -7  -4   9    4.15    0.19
  -7  -4   9    4.50    0.21
   6   4  -9    0.91    0.10
  -6  -4   9    0.98    0.10
  -6  -4   9    0.90    0.09
  -6  -4   9    0.87    0.09
   5   4  -9    0.05    0.06
  -5  -4   9   -0.02    0.04
  -5  -4   9    0.02    0.05
  -5  -4   9    0.06    0.05
   4   4  -9    0.04    0.06
  -4  -4   9   -0.02    0.04
  -4  -4   9   -0.04    0.04
  -4  -4   9   -0.03    0.05
   3   4  -9    0.77    0.09
  -3  -4   9    0.85    0.07
  -3  -4   9    0.79    0.08
  -3  -4   9    0.82    0.07
   2   4  -9    1.19    0.11
  -2  -4   9    1.02    0.09
  -2  -4   9    1.02    0.08
  -2  -4   9    1.04    0.07
   1   4  -9   13.73    0.45
  -1  -4   9   12.77    0.41
  -1  -4   9   13.45    0.39
  -1  -4   9   13.32    0.36
   0   4  -9   22.58    0.71
   0  -4   9   22.46    0.57
   0  -4   9   21.80    0.62
   0  -4   9   22.57    0.66
  -1   4  -9    0.20    0.05
   1  -4   9    0.30    0.04
  -2   4  -9    8.07    0.31
  -2   4  -9    8.39    0.30
  -3   4  -9    4.76    0.21
  -3   4  -9    4.77    0.21
  -4   4  -9    4.37    0.21
  -4   4  -9    4.52    0.21
  -5   4  -9    0.69    0.10
  -5   4  -9    0.76    0.11
  -6   4  -9    0.78    0.11
  -7   4  -9    1.39    0.15
   7   3  -9    3.01    0.19
  -7  -3   9    2.90    0.17
  -7  -3   9    2.86    0.17
  -7  -3   9    3.00    0.16
   6   3  -9    2.07    0.16
  -6  -3   9    1.93    0.12
  -6  -3   9    2.23    0.14
  -6  -3   9    1.90    0.13
   5   3  -9    2.42    0.16
  -5  -3   9    2.42    0.12
  -5  -3   9    2.64    0.14
  -5  -3   9    2.49    0.14
   4   3  -9    0.03    0.06
  -4  -3   9   -0.01    0.05
  -4  -3   9    0.09    0.05
  -4  -3   9   -0.01    0.05
   3   3  -9    0.27    0.07
  -3  -3   9    0.26    0.05
  -3  -3   9    0.24    0.05
  -3  -3   9    0.17    0.05
   2   3  -9    2.02    0.14
  -2  -3   9    1.90    0.11
  -2  -3   9    2.02    0.09
  -2  -3   9    2.03    0.10
  -1  -3   9    1.91    0.09
  -1  -3   9    2.04    0.08
  -1  -3   9    1.99    0.11
   0   3  -9    9.74    0.32
   0  -3   9    9.69    0.28
   0  -3   9    9.84    0.31
  -2   3  -9   10.32    0.37
  -2   3  -9   10.81    0.37
  -3   3  -9   24.31    0.78
  -3   3  -9   24.36    0.80
  -4   3  -9    4.84    0.21
  -4   3  -9    4.57    0.22
  -5   3  -9    1.37    0.13
  -5   3  -9    1.02    0.12
  -6   3  -9    0.52    0.10
  -7   3  -9    1.42    0.15
   8   2  -9    2.86    0.20
  -8  -2   9    3.13    0.18
  -8  -2   9    2.99    0.17
   7   2  -9    4.61    0.23
  -7  -2   9    4.36    0.21
  -7  -2   9    4.28    0.19
  -7  -2   9    4.30    0.20
   6   2  -9    0.93    0.11
  -6  -2   9    0.95    0.10
  -6  -2   9    0.80    0.08
  -6  -2   9    0.73    0.09
   5   2  -9    0.55    0.09
  -5  -2   9    0.62    0.08
  -5  -2   9    0.62    0.07
  -5  -2   9    0.58    0.07
   4   2  -9    5.72    0.24
  -4  -2   9    5.72    0.22
  -4  -2   9    5.53    0.21
  -4  -2   9    5.49    0.19
   3   2  -9    7.64    0.29
  -3  -2   9    7.40    0.26
  -3  -2   9    7.56    0.23
  -3  -2   9    7.33    0.25
  -2  -2   9    6.64    0.21
  -2  -2   9    6.47    0.23
  -1  -2   9    7.78    0.23
  -1  -2   9    7.42    0.25
   0   2  -9    5.28    0.20
   0   2  -9    5.43    0.22
   0  -2   9    5.11    0.16
   0  -2   9    5.42    0.19
  -1   2  -9    3.63    0.18
  -1   2  -9    4.24    0.17
   1  -2   9    3.78    0.15
  -2   2  -9    0.08    0.06
  -2   2  -9    0.07    0.05
   2  -2   9    0.25    0.04
  -3   2  -9    0.66    0.08
  -3   2  -9    0.60    0.09
  -4   2  -9    2.65    0.15
  -4   2  -9    2.42    0.16
  -5   2  -9    0.70    0.09
  -5   2  -9    0.57    0.10
  -6   2  -9    2.49    0.18
  -7   2  -9    0.34    0.11
   8   1  -9    1.37    0.15
  -8  -1   9    1.59    0.14
  -8  -1   9    1.66    0.15
   7   1  -9    0.58    0.11
  -7  -1   9    0.52    0.09
  -7  -1   9    0.43    0.08
   6   1  -9    0.59    0.10
  -6  -1   9    0.55    0.08
  -6  -1   9    0.49    0.08
   5   1  -9    0.31    0.08
  -5  -1   9    0.44    0.07
  -5  -1   9    0.39    0.07
   4   1  -9    4.40    0.21
  -4  -1   9    4.84    0.19
  -4  -1   9    4.48    0.18
   3   1  -9    5.29    0.23
  -3  -1   9    5.36    0.21
  -3  -1   9    5.66    0.20
  -2  -1   9    2.88    0.12
  -2  -1   9    2.61    0.13
   1   1  -9    7.52    0.27
   1   1  -9    7.88    0.29
  -1  -1   9    8.42    0.27
  -1  -1   9    8.55    0.25
   0   1  -9   11.13    0.39
   0   1  -9   11.13    0.38
   0  -1   9   11.82    0.33
   0  -1   9   11.96    0.36
  -1   1  -9    5.78    0.23
  -1   1  -9    5.98    0.23
   1  -1   9    5.77    0.20
  -2   1  -9    3.26    0.16
  -2   1  -9    3.18    0.15
   2  -1   9    3.19    0.13
  -3   1  -9    1.22    0.11
  -3   1  -9    1.48    0.11
  -4   1  -9    0.02    0.06
  -4   1  -9   -0.12    0.06
  -5   1  -9   -0.02    0.08
  -5   1  -9    0.02    0.06
  -6   1  -9    0.13    0.09
  -7   1  -9    0.22    0.10
  -8   0   9    0.41    0.09
  -8   0   9    0.46    0.09
   7   0  -9    3.77    0.22
  -7   0   9    3.80    0.19
  -7   0   9    4.20    0.20
   6   0  -9   -0.04    0.08
  -6   0   9    0.05    0.06
  -6   0   9    0.02    0.06
   5   0  -9    0.36    0.09
  -5   0   9    0.46    0.07
  -5   0   9    0.44    0.07
   4   0  -9    0.22    0.08
  -4   0   9    0.36    0.07
  -4   0   9    0.37    0.06
   3   0  -9    0.18    0.07
  -3   0   9    0.08    0.05
  -3   0   9    0.12    0.05
   2   0  -9    1.16    0.12
  -2   0   9    1.32    0.09
  -2   0   9    1.42    0.09
   1   0  -9    0.10    0.06
   1   0  -9    0.22    0.05
  -1   0   9    0.22    0.04
  -1   0   9    0.27    0.05
   0   0  -9    6.64    0.24
   0   0  -9    6.15    0.25
   0   0   9    6.85    0.23
   0   0   9    6.95    0.21
  -1   0  -9   18.77    0.62
  -1   0  -9   19.11    0.61
   1   0   9   18.94    0.57
  -2   0  -9    2.45    0.14
  -2   0  -9    2.53    0.13
   2   0   9    2.27    0.12
  -3   0  -9    2.47    0.15
  -3   0  -9    2.23    0.13
   3   0   9    2.30    0.12
  -4   0  -9    2.36    0.13
  -4   0  -9    2.26    0.16
  -5   0  -9    3.05    0.19
  -6   0  -9   -0.03    0.08
  -7   0  -9    0.70    0.13
   7  -1  -9    0.38    0.11
  -7   1   9    0.58    0.09
  -7   1   9    0.47    0.09
   6  -1  -9    2.11    0.16
  -6   1   9    1.85    0.13
  -6   1   9    2.00    0.14
   5  -1  -9    4.38    0.22
  -5   1   9    4.07    0.18
  -5   1   9    4.36    0.19
   4  -1  -9    8.91    0.33
  -4   1   9    8.74    0.31
  -4   1   9    8.85    0.29
   3  -1  -9   18.87    0.61
  -3   1   9   18.28    0.54
  -3   1   9   18.38    0.57
   2  -1  -9    0.04    0.06
  -2   1   9    0.01    0.04
  -2   1   9    0.01    0.04
   1  -1  -9    3.93    0.18
   1  -1  -9    3.99    0.17
  -1   1   9    3.92    0.15
  -1   1   9    4.10    0.16
   0  -1  -9   11.11    0.38
   0  -1  -9   10.82    0.38
   0   1   9   11.13    0.33
   0   1   9   11.13    0.35
  -1  -1  -9   21.38    0.70
  -1  -1  -9   21.00    0.68
   1   1   9   21.74    0.64
  -2  -1  -9    5.99    0.23
  -2  -1  -9    6.28    0.26
   2   1   9    6.19    0.22
  -3  -1  -9    4.29    0.18
  -3  -1  -9    4.04    0.20
   3   1   9    4.16    0.17
  -4  -1  -9    1.53    0.15
  -5  -1  -9    0.41    0.10
  -6  -1  -9    0.37    0.10
   7  -2  -9    1.41    0.15
  -7   2   9    1.52    0.13
  -7   2   9    1.84    0.14
   6  -2  -9    4.79    0.25
  -6   2   9    5.14    0.22
  -6   2   9    4.68    0.20
   5  -2  -9    3.18    0.19
  -5   2   9    3.21    0.16
  -5   2   9    3.25    0.16
   4  -2  -9    5.66    0.25
  -4   2   9    5.45    0.21
  -4   2   9    5.66    0.22
   3  -2  -9    0.80    0.10
  -3   2   9    0.79    0.08
  -3   2   9    0.73    0.07
   2  -2  -9    4.96    0.20
   2  -2  -9    4.85    0.22
  -2   2   9    5.03    0.18
  -2   2   9    4.81    0.19
   1  -2  -9    3.72    0.18
   1  -2  -9    3.78    0.17
  -1   2   9    3.69    0.15
  -1   2   9    3.50    0.16
   0  -2  -9   33.07    1.07
   0  -2  -9   33.22    1.04
   0   2   9   34.14    0.93
   0   2   9   33.37    0.98
  -1  -2  -9   11.17    0.40
  -1  -2  -9   11.30    0.38
   1   2   9   11.13    0.37
  -2  -2  -9    0.52    0.09
  -2  -2  -9    0.59    0.07
   2   2   9    0.59    0.07
  -3  -2  -9    0.01    0.07
   3   2   9    0.01    0.04
  -4  -2  -9    1.30    0.13
  -5  -2  -9    0.24    0.10
  -6  -2  -9    2.24    0.19
   7  -3  -9    4.71    0.26
  -7   3   9    4.63    0.21
  -7   3   9    4.50    0.22
   6  -3  -9    4.57    0.24
  -6   3   9    4.27    0.20
  -6   3   9    4.40    0.21
   5  -3  -9    2.36    0.17
  -5   3   9    2.10    0.14
  -5   3   9    2.14    0.13
   4  -3  -9    3.54    0.20
  -4   3   9    3.73    0.16
  -4   3   9    3.54    0.17
   3  -3  -9    1.25    0.12
  -3   3   9    1.35    0.10
  -3   3   9    1.40    0.11
   2  -3  -9   -0.01    0.06
   2  -3  -9    0.03    0.07
  -2   3   9   -0.05    0.04
  -2   3   9    0.06    0.05
   1  -3  -9    9.93    0.36
   1  -3  -9    9.34    0.36
  -1   3   9   10.45    0.34
  -1   3   9   10.27    0.32
   0  -3  -9   30.36    0.95
   0  -3  -9   30.53    0.98
   0   3   9   30.43    0.90
  -1  -3  -9   11.33    0.41
  -1  -3  -9   11.27    0.38
   1   3   9   11.17    0.37
  -2  -3  -9    5.23    0.24
   2   3   9    5.64    0.22
  -3  -3  -9    1.85    0.16
   3   3   9    2.19    0.13
  -4  -3  -9    2.43    0.18
  -5  -3  -9    0.00    0.09
  -6  -3  -9    0.00    0.10
   6  -4  -9    3.91    0.23
  -6   4   9    3.82    0.19
  -6   4   9    4.18    0.20
   5  -4  -9    2.01    0.17
  -5   4   9    2.47    0.14
  -5   4   9    2.00    0.13
   4  -4  -9    1.32    0.13
  -4   4   9    1.27    0.11
  -4   4   9    1.30    0.11
   3  -4  -9    0.74    0.10
  -3   4   9    0.53    0.08
  -3   4   9    0.51    0.07
   2  -4  -9    1.01    0.10
   2  -4  -9    0.85    0.10
  -2   4   9    0.87    0.09
  -2   4   9    0.84    0.08
   1  -4  -9    2.90    0.16
   1  -4  -9    2.54    0.16
  -1   4   9    3.10    0.15
   0   4   9    0.31    0.07
  -1  -4  -9    0.18    0.08
   1   4   9    0.06    0.06
  -2  -4  -9    1.11    0.12
   2   4   9    1.10    0.10
  -3  -4  -9    2.48    0.18
  -4  -4  -9    0.22    0.10
  -5  -4  -9    0.42    0.11
   6  -5  -9    0.12    0.11
  -6   5   9    0.08    0.07
  -6   5   9    0.04    0.07
   5  -5  -9    0.28    0.11
  -5   5   9    0.37    0.08
  -5   5   9    0.32    0.07
   4  -5  -9    1.85    0.16
  -4   5   9    1.67    0.13
  -4   5   9    1.60    0.12
   3  -5  -9    1.11    0.12
   3  -5  -9    1.09    0.11
  -3   5   9    0.99    0.09
  -3   5   9    1.05    0.10
   2  -5  -9    0.83    0.10
   2  -5  -9    0.67    0.10
  -2   5   9    0.60    0.08
  -2   5   9    0.71    0.08
   1  -5  -9    1.91    0.15
   1  -5  -9    1.76    0.14
  -1   5   9    1.87    0.13
   0  -5  -9    4.87    0.23
   0   5   9    5.02    0.21
  -1  -5  -9    3.22    0.19
   1   5   9    3.11    0.17
  -2  -5  -9    5.11    0.25
   2   5   9    5.15    0.22
  -3  -5  -9    0.48    0.11
  -4  -5  -9    0.16    0.11
   5  -6  -9    0.59    0.12
  -5   6   9    0.69    0.09
  -5   6   9    0.76    0.10
   4  -6  -9    0.14    0.10
  -4   6   9    0.14    0.07
  -4   6   9    0.26    0.07
   3  -6  -9    0.46    0.09
   3  -6  -9    0.40    0.10
  -3   6   9    0.35    0.08
  -3   6   9    0.42    0.08
   2  -6  -9    0.72    0.10
   2  -6  -9    0.83    0.11
  -2   6   9    0.59    0.09
   1  -6  -9    2.90    0.18
  -1   6   9    2.47    0.15
   0  -6  -9    2.23    0.17
   0   6   9    2.51    0.15
  -1  -6  -9    1.57    0.15
   1   6   9    1.96    0.14
  -2  -6  -9    1.24    0.14
  -3  -6  -9    2.55    0.20
  -4  -6  -9    1.62    0.17
   4  -7  -9    2.09    0.19
  -4   7   9    1.95    0.15
  -4   7   9    1.88    0.14
   3  -7  -9    1.74    0.17
   3  -7  -9    1.77    0.16
  -3   7   9    1.68    0.14
   2  -7  -9    1.16    0.13
  -2   7   9    1.43    0.13
   1  -7  -9    0.93    0.12
  -1   7   9    0.81    0.10
   0  -7  -9    0.45    0.11
   0   7   9    0.62    0.09
  -1  -7  -9    1.68    0.17
   1   7   9    1.86    0.15
  -2  -7  -9    0.62    0.12
   1  -8  -9    0.16    0.10
  -1   8   9    0.13    0.08
   0  -8  -9    0.72    0.12
   0   8   9    0.57    0.10
  -3 -10  10    2.35    0.17
  -3 -10  10    2.19    0.13
  -2 -10  10    0.26    0.08
   1  10 -10    1.49    0.14
  -1 -10  10    1.62    0.14
   0  10 -10    0.07    0.08
  -1  10 -10    1.09    0.12
  -2  10 -10   -0.06    0.09
  -3  10 -10    3.54    0.22
  -3  10 -10    3.47    0.21
  -4  -9  10    2.55    0.17
  -4  -9  10    2.67    0.14
  -3  -9  10    0.98    0.11
  -3  -9  10    0.94    0.09
   2   9 -10   -0.03    0.07
  -2  -9  10    0.08    0.05
  -2  -9  10   -0.01    0.06
   1   9 -10   -0.02    0.07
  -1  -9  10   -0.08    0.06
   0   9 -10    0.24    0.08
  -1   9 -10    0.70    0.11
  -2   9 -10    0.77    0.10
  -2   9 -10    0.62    0.11
  -3   9 -10    1.72    0.16
  -3   9 -10    1.48    0.15
  -4   9 -10    2.57    0.19
  -4   9 -10    2.89    0.19
  -5  -8  10    0.19    0.07
  -5  -8  10    0.07    0.07
  -5  -8  10   -0.04    0.07
  -4  -8  10    2.65    0.15
  -4  -8  10    2.74    0.17
  -4  -8  10    2.66    0.14
   3   8 -10    0.90    0.10
  -3  -8  10    1.17    0.11
  -3  -8  10    1.09    0.09
   2   8 -10   14.06    0.48
  -2  -8  10   13.90    0.40
  -2  -8  10   13.37    0.45
   1   8 -10    3.12    0.18
  -1  -8  10    3.07    0.16
   0   8 -10    5.59    0.25
  -1   8 -10    0.09    0.07
  -2   8 -10    2.00    0.16
  -2   8 -10    2.08    0.15
  -3   8 -10    2.88    0.18
  -3   8 -10    3.24    0.19
  -4   8 -10    5.14    0.26
  -4   8 -10    5.67    0.27
  -5   8 -10    1.40    0.15
  -6  -7  10    1.21    0.12
  -6  -7  10    1.29    0.11
  -6  -7  10    1.51    0.13
  -5  -7  10    0.09    0.07
  -5  -7  10    0.08    0.06
  -5  -7  10    0.04    0.06
  -4  -7  10    0.84    0.09
  -4  -7  10    0.48    0.08
  -4  -7  10    0.76    0.08
   3   7 -10    2.67    0.17
  -3  -7  10    2.82    0.13
  -3  -7  10    2.93    0.16
  -3  -7  10    2.99    0.15
   2   7 -10    1.60    0.14
  -2  -7  10    1.67    0.10
  -2  -7  10    1.68    0.11
  -2  -7  10    1.78    0.13
   1   7 -10    0.25    0.07
  -1  -7  10    0.12    0.05
   0   7 -10    0.28    0.08
   0  -7  10    0.31    0.06
  -1   7 -10    6.22    0.27
  -1   7 -10    6.43    0.25
  -2   7 -10   10.13    0.38
  -2   7 -10    9.78    0.37
  -3   7 -10    3.26    0.19
  -3   7 -10    3.23    0.19
  -4   7 -10    4.24    0.22
  -4   7 -10    4.07    0.22
  -5   7 -10    1.36    0.14
  -5   7 -10    1.66    0.16
  -6  -6  10   -0.06    0.06
  -6  -6  10   -0.04    0.06
  -6  -6  10   -0.01    0.06
  -5  -6  10    2.50    0.13
  -5  -6  10    2.68    0.16
  -5  -6  10    2.50    0.14
   4   6 -10    1.88    0.15
  -4  -6  10    1.90    0.12
  -4  -6  10    2.09    0.11
  -4  -6  10    1.84    0.14
   3   6 -10   14.51    0.50
  -3  -6  10   14.74    0.45
  -3  -6  10   14.42    0.47
  -3  -6  10   14.33    0.41
   2   6 -10    4.78    0.22
  -2  -6  10    4.65    0.18
  -2  -6  10    4.62    0.20
  -2  -6  10    4.88    0.17
   1   6 -10    0.00    0.06
  -1  -6  10    0.03    0.04
  -1  -6  10    0.03    0.04
  -1  -6  10    0.04    0.04
   0   6 -10    1.87    0.14
   0  -6  10    1.84    0.11
  -1   6 -10    2.44    0.14
  -1   6 -10    2.31    0.15
  -2   6 -10    1.21    0.11
  -2   6 -10    1.26    0.12
  -3   6 -10    1.45    0.13
  -3   6 -10    1.49    0.14
  -4   6 -10    3.75    0.20
  -4   6 -10    3.91    0.21
  -5   6 -10    0.45    0.10
  -5   6 -10    0.55    0.11
  -6   6 -10    0.36    0.11
  -7  -5  10    0.37    0.09
  -7  -5  10    0.42    0.08
  -7  -5  10    0.41    0.09
  -6  -5  10    0.91    0.09
  -6  -5  10    0.83    0.10
  -6  -5  10    0.93    0.10
   5   5 -10    0.84    0.10
  -5  -5  10    1.12    0.10
  -5  -5  10    0.88    0.10
  -5  -5  10    0.98    0.09
   4   5 -10    1.22    0.12
  -4  -5  10    1.37    0.11
  -4  -5  10    1.39    0.12
  -4  -5  10    1.51    0.10
   3   5 -10    5.89    0.25
  -3  -5  10    5.79    0.21
  -3  -5  10    5.68    0.23
  -3  -5  10    5.80    0.19
   2   5 -10    0.12    0.06
  -2  -5  10    0.05    0.04
  -2  -5  10    0.07    0.05
  -2  -5  10    0.09    0.04
   1   5 -10    0.74    0.09
  -1  -5  10    0.63    0.05
  -1  -5  10    0.60    0.07
  -1  -5  10    0.64    0.06
   0   5 -10    1.85    0.13
   0  -5  10    1.60    0.11
  -1   5 -10    7.53    0.28
  -1   5 -10    7.32    0.27
   1  -5  10    6.90    0.24
  -2   5 -10    0.17    0.06
  -2   5 -10    0.13    0.07
  -3   5 -10    1.75    0.14
  -3   5 -10    2.08    0.14
  -4   5 -10    0.30    0.08
  -4   5 -10    0.28    0.08
  -5   5 -10    1.28    0.14
  -5   5 -10    1.57    0.15
  -6   5 -10    0.46    0.11
  -7  -4  10    0.51    0.09
  -7  -4  10    0.66    0.09
  -7  -4  10    0.71    0.10
   6   4 -10    1.00    0.11
  -6  -4  10    1.14    0.10
  -6  -4  10    0.84    0.10
  -6  -4  10    0.99    0.10
   5   4 -10    0.07    0.07
  -5  -4  10    0.21    0.06
  -5  -4  10    0.19    0.06
  -5  -4  10    0.16    0.06
   4   4 -10    1.07    0.11
  -4  -4  10    0.97    0.09
  -4  -4  10    1.16    0.09
  -4  -4  10    0.89    0.09
   3   4 -10    5.72    0.24
  -3  -4  10    5.19    0.21
  -3  -4  10    5.45    0.18
  -3  -4  10    5.49    0.20
   2   4 -10    0.52    0.08
  -2  -4  10    0.54    0.05
  -2  -4  10    0.49    0.07
  -2  -4  10    0.49    0.06
   1   4 -10    4.52    0.21
  -1  -4  10    4.53    0.15
  -1  -4  10    4.79    0.16
  -1  -4  10    4.54    0.18
   0   4 -10    6.40    0.25
   0  -4  10    6.23    0.22
  -1   4 -10    8.28    0.31
  -1   4 -10    8.03    0.29
   1  -4  10    7.94    0.26
  -2   4 -10    3.21    0.17
  -2   4 -10    3.51    0.17
  -3   4 -10   12.15    0.44
  -3   4 -10   12.60    0.44
  -4   4 -10    5.12    0.24
  -4   4 -10    5.26    0.23
  -5   4 -10    5.23    0.25
  -5   4 -10    5.26    0.24
  -6   4 -10    0.03    0.09
  -6   4 -10   -0.09    0.07
   7   3 -10    3.00    0.20
  -7  -3  10    2.90    0.15
  -7  -3  10    2.97    0.17
  -7  -3  10    2.95    0.18
   6   3 -10    1.70    0.16
  -6  -3  10    1.60    0.13
  -6  -3  10    1.78    0.12
  -6  -3  10    1.84    0.14
   5   3 -10    0.45    0.09
  -5  -3  10    0.37    0.07
  -5  -3  10    0.41    0.07
  -5  -3  10    0.46    0.07
   4   3 -10    5.24    0.23
  -4  -3  10    5.05    0.21
  -4  -3  10    5.02    0.20
  -4  -3  10    4.93    0.18
   3   3 -10    1.71    0.13
  -3  -3  10    1.52    0.10
  -3  -3  10    1.33    0.11
  -3  -3  10    1.63    0.09
   2   3 -10    5.60    0.23
  -2  -3  10    5.44    0.19
  -2  -3  10    5.57    0.17
  -2  -3  10    5.17    0.21
   1   3 -10    2.29    0.14
  -1  -3  10    2.78    0.11
  -1  -3  10    2.77    0.13
   0   3 -10    9.03    0.31
   0   3 -10    9.43    0.34
   0  -3  10    9.19    0.30
  -1   3 -10    0.26    0.07
  -2   3 -10    0.37    0.07
  -2   3 -10    0.23    0.07
  -3   3 -10    0.02    0.06
  -3   3 -10   -0.08    0.06
  -4   3 -10    4.73    0.21
  -4   3 -10    4.44    0.22
  -5   3 -10    1.32    0.14
  -5   3 -10    1.42    0.13
  -6   3 -10    1.73    0.16
  -6   3 -10    1.88    0.15
   7   2 -10    1.23    0.14
  -7  -2  10    1.54    0.14
  -7  -2  10    1.60    0.13
   6   2 -10    1.88    0.16
  -6  -2  10    1.90    0.14
  -6  -2  10    1.76    0.13
   5   2 -10   -0.01    0.07
  -5  -2  10    0.08    0.06
  -5  -2  10    0.00    0.05
   4   2 -10   10.17    0.37
  -4  -2  10    9.89    0.33
  -4  -2  10   10.15    0.35
   3   2 -10    8.40    0.31
  -3  -2  10    8.04    0.28
  -3  -2  10    7.51    0.26
   2   2 -10   11.90    0.41
  -2  -2  10   11.27    0.37
  -2  -2  10   11.54    0.35
   1   2 -10    0.37    0.07
  -1  -2  10    0.42    0.06
  -1  -2  10    0.36    0.05
   0   2 -10    8.50    0.31
   0   2 -10    8.24    0.29
   0  -2  10    8.72    0.28
  -1   2 -10    3.75    0.18
  -1   2 -10    3.81    0.17
   1  -2  10    3.68    0.15
  -2   2 -10    0.45    0.07
  -2   2 -10    0.39    0.07
   2  -2  10    0.44    0.05
  -3   2 -10    0.12    0.06
  -3   2 -10    0.05    0.07
  -4   2 -10    2.31    0.16
  -4   2 -10    2.23    0.15
  -5   2 -10    0.42    0.10
  -5   2 -10    0.46    0.08
  -6   2 -10    0.97    0.13
   7   1 -10    2.38    0.18
  -7  -1  10    2.41    0.16
  -7  -1  10    2.12    0.15
   6   1 -10   -0.05    0.08
  -6  -1  10   -0.04    0.06
  -6  -1  10    0.03    0.06
   5   1 -10    0.20    0.08
  -5  -1  10    0.39    0.07
  -5  -1  10    0.24    0.06
   4   1 -10    0.08    0.07
  -4  -1  10    0.13    0.05
  -4  -1  10    0.19    0.06
   3   1 -10    0.22    0.07
  -3  -1  10    0.08    0.05
  -3  -1  10    0.12    0.05
   2   1 -10    0.26    0.07
  -2  -1  10    0.30    0.06
  -2  -1  10    0.26    0.05
   1   1 -10    8.17    0.32
  -1  -1  10    9.04    0.27
  -1  -1  10    8.91    0.29
   0   1 -10    0.88    0.09
   0   1 -10    0.81    0.07
   0  -1  10    0.98    0.07
   0  -1  10    0.85    0.07
  -1   1 -10    0.13    0.06
  -1   1 -10    0.23    0.06
   1  -1  10    0.13    0.04
  -2   1 -10    0.25    0.07
  -2   1 -10    0.34    0.07
   2  -1  10    0.31    0.05
  -3   1 -10    0.73    0.08
  -3   1 -10    0.67    0.09
  -4   1 -10    2.50    0.14
  -4   1 -10    2.36    0.16
  -5   1 -10    2.37    0.18
  -6   1 -10   -0.12    0.09
   7   0 -10    1.40    0.15
  -7   0  10    1.64    0.14
  -7   0  10    1.22    0.12
   6   0 -10    0.05    0.09
  -6   0  10    0.01    0.06
  -6   0  10    0.06    0.06
   5   0 -10    0.07    0.08
  -5   0  10    0.13    0.06
  -5   0  10    0.07    0.06
   4   0 -10    0.09    0.07
  -4   0  10    0.00    0.05
  -4   0  10   -0.01    0.05
   3   0 -10   21.49    0.69
  -3   0  10   21.14    0.64
  -3   0  10   20.81    0.61
   2   0 -10    1.54    0.13
  -2   0  10    1.46    0.09
  -2   0  10    1.40    0.10
   1   0 -10    1.74    0.13
  -1   0  10    1.97    0.10
  -1   0  10    1.87    0.11
   0   0 -10    5.81    0.23
   0   0 -10    5.73    0.22
   0   0  10    5.59    0.18
   0   0  10    5.51    0.21
  -1   0 -10    0.50    0.07
  -1   0 -10    0.48    0.07
   1   0  10    0.54    0.06
  -2   0 -10   -0.01    0.06
  -2   0 -10    0.19    0.06
   2   0  10    0.07    0.05
  -3   0 -10    1.43    0.12
  -3   0 -10    1.67    0.13
  -4   0 -10    3.34    0.17
  -4   0 -10    3.18    0.19
  -5   0 -10    1.34    0.13
  -6   0 -10    0.35    0.10
   7  -1 -10    0.30    0.11
  -7   1  10    0.37    0.08
  -7   1  10    0.24    0.08
   6  -1 -10    0.25    0.10
  -6   1  10    0.12    0.06
  -6   1  10    0.09    0.06
   5  -1 -10    0.37    0.10
  -5   1  10    0.33    0.07
  -5   1  10    0.29    0.07
   4  -1 -10    2.51    0.17
  -4   1  10    2.57    0.14
  -4   1  10    2.37    0.13
   3  -1 -10    0.23    0.08
  -3   1  10    0.22    0.05
  -3   1  10    0.25    0.06
   2  -1 -10    5.27    0.23
  -2   1  10    5.24    0.21
  -2   1  10    5.47    0.19
   1  -1 -10    0.37    0.06
   1  -1 -10    0.45    0.07
  -1   1  10    0.33    0.05
  -1   1  10    0.22    0.06
   0  -1 -10    5.19    0.22
   0  -1 -10    5.24    0.22
   0   1  10    5.08    0.20
   0   1  10    5.12    0.18
  -1  -1 -10    5.77    0.23
  -1  -1 -10    5.60    0.24
   1   1  10    5.77    0.22
  -2  -1 -10    0.47    0.08
  -2  -1 -10    0.46    0.07
   2   1  10    0.49    0.07
  -3  -1 -10    1.95    0.13
  -3  -1 -10    1.94    0.15
   3   1  10    2.15    0.12
  -4  -1 -10    2.88    0.19
  -5  -1 -10    1.32    0.14
  -6  -1 -10    0.79    0.12
   7  -2 -10    0.07    0.10
  -7   2  10    0.20    0.08
  -7   2  10    0.22    0.07
   6  -2 -10    0.31    0.10
  -6   2  10    0.42    0.08
  -6   2  10    0.35    0.08
   5  -2 -10    0.33    0.09
  -5   2  10    0.25    0.07
  -5   2  10    0.31    0.07
   4  -2 -10    4.66    0.22
  -4   2  10    4.27    0.19
  -4   2  10    4.31    0.18
   3  -2 -10   10.70    0.39
  -3   2  10   10.82    0.36
  -3   2  10   10.77    0.34
   2  -2 -10    2.14    0.15
  -2   2  10    2.12    0.12
  -2   2  10    2.23    0.13
   1  -2 -10    1.01    0.10
   1  -2 -10    1.43    0.12
  -1   2  10    0.70    0.08
  -1   2  10    0.98    0.08
   0  -2 -10    7.96    0.29
   0  -2 -10    7.62    0.30
   0   2  10    7.71    0.28
  -1  -2 -10    6.09    0.24
  -1  -2 -10    5.78    0.25
   1   2  10    6.04    0.23
  -2  -2 -10    2.93    0.18
  -2  -2 -10    2.97    0.15
   2   2  10    3.08    0.15
  -3  -2 -10    1.20    0.12
   3   2  10    1.36    0.11
  -4  -2 -10    0.46    0.10
  -5  -2 -10    0.97    0.13
  -6  -2 -10    0.14    0.10
   6  -3 -10    0.91    0.13
  -6   3  10    1.02    0.11
  -6   3  10    0.92    0.10
   5  -3 -10    1.37    0.14
  -5   3  10    1.02    0.10
  -5   3  10    1.11    0.11
   4  -3 -10    1.56    0.15
  -4   3  10    1.55    0.12
  -4   3  10    1.57    0.12
   3  -3 -10    0.94    0.11
  -3   3  10    0.94    0.09
  -3   3  10    1.17    0.10
   1  -3 -10    5.91    0.25
   1  -3 -10    6.21    0.25
  -1   3  10    5.69    0.23
  -1   3  10    6.33    0.22
   0  -3 -10   12.34    0.43
   0  -3 -10   12.34    0.44
   0   3  10   12.42    0.41
  -1  -3 -10    2.99    0.16
  -1  -3 -10    2.95    0.17
   1   3  10    2.90    0.15
  -2  -3 -10    1.26    0.12
   2   3  10    1.30    0.12
  -3  -3 -10    0.05    0.08
   3   3  10   -0.04    0.06
  -4  -3 -10    2.16    0.18
  -5  -3 -10    0.27    0.10
   6  -4 -10    0.63    0.13
  -6   4  10    0.66    0.09
  -6   4  10    0.60    0.09
   5  -4 -10    0.12    0.10
  -5   4  10    0.06    0.06
  -5   4  10    0.12    0.06
   4  -4 -10    1.66    0.16
  -4   4  10    1.40    0.12
  -4   4  10    1.48    0.12
   3  -4 -10    0.42    0.09
  -3   4  10    0.29    0.07
  -3   4  10    0.33    0.07
   2  -4 -10    0.61    0.09
   2  -4 -10    0.66    0.09
  -2   4  10    0.63    0.08
  -2   4  10    0.50    0.07
   1  -4 -10    0.60    0.09
   1  -4 -10    0.51    0.09
  -1   4  10    0.40    0.08
   0  -4 -10    3.66    0.19
   0  -4 -10    3.45    0.19
   0   4  10    3.47    0.18
  -1  -4 -10    0.10    0.08
   1   4  10    0.06    0.07
  -2  -4 -10    2.30    0.17
   2   4  10    2.40    0.15
  -3  -4 -10    0.53    0.11
  -4  -4 -10    0.43    0.11
  -5  -4 -10    0.05    0.10
   5  -5 -10    0.56    0.12
  -5   5  10    0.62    0.09
  -5   5  10    0.60    0.09
   4  -5 -10    0.50    0.11
  -4   5  10    0.41    0.08
  -4   5  10    0.42    0.08
   3  -5 -10    1.11    0.12
  -3   5  10    1.31    0.12
  -3   5  10    1.27    0.11
   2  -5 -10    2.13    0.16
   2  -5 -10    1.81    0.15
  -2   5  10    1.76    0.13
  -2   5  10    1.90    0.14
   1  -5 -10    9.04    0.36
   1  -5 -10    9.43    0.35
  -1   5  10    9.13    0.34
   0  -5 -10    5.76    0.27
   0   5  10    6.63    0.26
  -1  -5 -10    3.34    0.20
   1   5  10    3.24    0.18
  -2  -5 -10    0.12    0.09
   2   5  10    0.14    0.07
  -3  -5 -10    0.09    0.10
  -4  -5 -10    0.36    0.12
   4  -6 -10    0.53    0.12
  -4   6  10    0.41    0.09
  -4   6  10    0.62    0.09
   3  -6 -10    0.56    0.11
  -3   6  10    0.57    0.09
  -3   6  10    0.39    0.08
   2  -6 -10    0.77    0.11
   2  -6 -10    0.74    0.11
  -2   6  10    0.68    0.10
   1  -6 -10    3.83    0.21
  -1   6  10    4.09    0.20
   0  -6 -10    0.85    0.12
   0   6  10    0.75    0.10
  -1  -6 -10    0.58    0.12
   1   6  10    0.60    0.10
  -2  -6 -10    0.08    0.10
  -3  -6 -10    0.72    0.13
   2  -7 -10    3.19    0.20
  -2   7  10    3.02    0.18
   1  -7 -10    2.12    0.18
  -1   7  10    1.98    0.16
   0  -7 -10    2.51    0.19
   0   7  10    2.42    0.16
  -1  -7 -10    0.28    0.11
   1   7  10    0.39    0.09
  -2 -10  11    0.70    0.10
   1  10 -11    0.14    0.08
   0  10 -11    1.16    0.13
  -1  10 -11    1.49    0.14
  -2  10 -11    0.63    0.12
  -4  -9  11    2.74    0.15
  -4  -9  11    2.67    0.16
  -4  -9  11    2.65    0.18
  -3  -9  11    2.68    0.17
  -3  -9  11    2.76    0.14
  -3  -9  11    2.74    0.16
   2   9 -11    0.70    0.10
  -2  -9  11    0.45    0.08
   1   9 -11    1.00    0.11
  -1  -9  11    0.84    0.10
   0   9 -11    2.86    0.18
  -1   9 -11    2.32    0.17
  -2   9 -11   -0.08    0.08
  -3   9 -11    0.48    0.11
  -3   9 -11    0.47    0.10
  -5  -8  11    1.46    0.13
  -5  -8  11    1.45    0.12
  -5  -8  11    1.65    0.15
  -4  -8  11    1.38    0.11
  -4  -8  11    1.19    0.11
  -4  -8  11    1.13    0.12
   3   8 -11    1.79    0.15
  -3  -8  11    1.75    0.13
  -3  -8  11    1.94    0.11
  -3  -8  11    1.63    0.14
   2   8 -11    1.01    0.11
  -2  -8  11    0.89    0.10
   1   8 -11    5.65    0.25
  -1  -8  11    5.58    0.23
   0   8 -11    3.21    0.19
  -1   8 -11    1.85    0.15
  -2   8 -11    3.49    0.20
  -3   8 -11    3.30    0.20
  -3   8 -11    3.33    0.20
  -4   8 -11    4.73    0.25
  -4   8 -11    4.43    0.24
  -5  -7  11    0.21    0.07
  -5  -7  11    0.19    0.07
  -5  -7  11    0.27    0.08
   4   7 -11    3.01    0.19
  -4  -7  11    3.02    0.14
  -4  -7  11    3.16    0.16
  -4  -7  11    2.86    0.17
   3   7 -11    1.89    0.15
  -3  -7  11    1.88    0.14
  -3  -7  11    1.83    0.11
  -3  -7  11    1.88    0.12
   2   7 -11    9.92    0.37
  -2  -7  11   10.12    0.30
  -2  -7  11    9.82    0.35
  -2  -7  11    9.89    0.32
   1   7 -11   -0.05    0.06
  -1  -7  11    0.07    0.05
   0   7 -11    1.33    0.13
  -1   7 -11    1.05    0.12
  -2   7 -11    3.63    0.19
  -2   7 -11    3.81    0.20
  -3   7 -11    2.13    0.16
  -3   7 -11    2.09    0.16
  -4   7 -11    4.04    0.23
  -4   7 -11    4.09    0.23
  -5   7 -11    0.15    0.10
  -5   7 -11    0.23    0.10
  -6  -6  11    1.45    0.12
  -6  -6  11    1.66    0.14
  -6  -6  11    1.56    0.14
   5   6 -11    1.34    0.13
  -5  -6  11    1.27    0.10
  -5  -6  11    1.21    0.12
  -5  -6  11    1.35    0.12
   4   6 -11    3.21    0.19
  -4  -6  11    3.14    0.14
  -4  -6  11    3.20    0.16
  -4  -6  11    3.17    0.17
   3   6 -11    3.37    0.19
  -3  -6  11    3.48    0.16
  -3  -6  11    3.34    0.17
  -3  -6  11    3.58    0.14
   2   6 -11    0.76    0.09
  -2  -6  11    0.50    0.06
  -2  -6  11    0.57    0.07
  -2  -6  11    0.50    0.08
   1   6 -11    0.06    0.06
  -1  -6  11    0.01    0.05
   0   6 -11    0.38    0.08
   0  -6  11    0.43    0.06
  -1   6 -11    2.44    0.16
  -2   6 -11    3.74    0.20
  -2   6 -11    3.68    0.18
  -3   6 -11    1.63    0.14
  -3   6 -11    1.35    0.13
  -4   6 -11    1.61    0.15
  -4   6 -11    1.59    0.15
  -5   6 -11    0.67    0.11
  -5   6 -11    0.42    0.10
  -6  -5  11    0.02    0.07
  -6  -5  11    0.13    0.07
  -6  -5  11    0.09    0.07
   5   5 -11    0.76    0.11
  -5  -5  11    0.80    0.08
  -5  -5  11    0.86    0.09
  -5  -5  11    0.72    0.09
   4   5 -11    0.09    0.08
  -4  -5  11    0.12    0.07
  -4  -5  11    0.19    0.06
  -4  -5  11    0.16    0.06
   3   5 -11    4.70    0.22
  -3  -5  11    4.51    0.17
  -3  -5  11    4.53    0.18
  -3  -5  11    4.53    0.20
   2   5 -11    0.03    0.06
  -2  -5  11    0.05    0.04
  -2  -5  11    0.06    0.05
  -2  -5  11    0.00    0.04
   1   5 -11    0.09    0.07
  -1  -5  11    0.04    0.05
   0   5 -11    0.29    0.07
   0  -5  11    0.13    0.05
  -1   5 -11   12.62    0.45
  -2   5 -11    1.42    0.12
  -2   5 -11    1.45    0.14
  -3   5 -11    4.85    0.23
  -3   5 -11    5.01    0.23
  -4   5 -11    2.12    0.16
  -4   5 -11    2.16    0.16
  -5   5 -11    0.86    0.12
  -5   5 -11    0.74    0.11
  -6   5 -11   -0.03    0.09
  -6   5 -11   -0.07    0.08
  -7  -4  11    1.06    0.12
  -7  -4  11    1.16    0.11
  -7  -4  11    1.25    0.12
   6   4 -11    0.16    0.09
  -6  -4  11    0.13    0.07
  -6  -4  11    0.11    0.06
  -6  -4  11    0.12    0.07
   5   4 -11    0.42    0.09
  -5  -4  11    0.51    0.07
  -5  -4  11    0.29    0.07
  -5  -4  11    0.43    0.08
   4   4 -11    3.04    0.18
  -4  -4  11    2.80    0.15
  -4  -4  11    2.98    0.16
  -4  -4  11    2.85    0.13
   3   4 -11    6.21    0.26
  -3  -4  11    5.84    0.21
  -3  -4  11    5.69    0.19
  -3  -4  11    5.65    0.23
   2   4 -11    0.61    0.09
  -2  -4  11    0.51    0.05
  -2  -4  11    0.69    0.07
  -2  -4  11    0.44    0.06
   1   4 -11    1.45    0.13
  -1  -4  11    1.62    0.11
   0   4 -11   13.15    0.47
   0  -4  11   13.75    0.42
  -1   4 -11    6.11    0.24
  -1   4 -11    6.42    0.26
   1  -4  11    5.87    0.21
  -2   4 -11    6.22    0.25
  -2   4 -11    5.81    0.25
  -3   4 -11    4.06    0.21
  -3   4 -11    4.17    0.20
  -4   4 -11    6.91    0.29
  -4   4 -11    6.80    0.29
  -5   4 -11    1.67    0.15
  -5   4 -11    1.68    0.16
  -6   4 -11    0.03    0.09
  -6   4 -11   -0.01    0.09
   7   3 -11    0.93    0.13
  -7  -3  11    1.19    0.12
  -7  -3  11    1.19    0.12
   6   3 -11    2.54    0.18
  -6  -3  11    2.61    0.15
  -6  -3  11    2.77    0.16
  -6  -3  11    2.50    0.14
   5   3 -11    0.08    0.08
  -5  -3  11    0.01    0.06
  -5  -3  11    0.11    0.05
  -5  -3  11    0.00    0.06
   4   3 -11    3.35    0.19
  -4  -3  11    3.14    0.17
  -4  -3  11    3.32    0.16
  -4  -3  11    3.24    0.14
   3   3 -11    4.84    0.22
  -3  -3  11    4.56    0.18
  -3  -3  11    4.65    0.20
  -3  -3  11    4.91    0.17
   2   3 -11    0.89    0.10
  -2  -3  11    0.90    0.07
  -2  -3  11    0.77    0.08
   1   3 -11    0.17    0.07
  -1  -3  11    0.12    0.04
  -1  -3  11    0.12    0.05
   0   3 -11    2.74    0.16
   0  -3  11    2.37    0.13
  -1   3 -11    5.77    0.23
  -1   3 -11    5.88    0.25
   1  -3  11    5.67    0.21
  -2   3 -11    2.96    0.17
  -2   3 -11    2.91    0.16
  -3   3 -11    6.59    0.28
  -3   3 -11    6.46    0.27
  -4   3 -11    1.52    0.15
  -4   3 -11    1.86    0.14
  -5   3 -11   -0.13    0.08
  -5   3 -11   -0.03    0.07
  -6   3 -11    0.67    0.11
  -6   3 -11    0.82    0.12
   7   2 -11    0.50    0.11
  -7  -2  11    0.68    0.10
  -7  -2  11    0.61    0.09
   6   2 -11    0.88    0.12
  -6  -2  11    0.85    0.10
  -6  -2  11    0.65    0.09
   5   2 -11    1.63    0.15
  -5  -2  11    1.86    0.13
  -5  -2  11    1.80    0.12
   4   2 -11   14.70    0.51
  -4  -2  11   14.17    0.47
  -4  -2  11   14.75    0.45
   3   2 -11    4.06    0.20
  -3  -2  11    3.65    0.17
  -3  -2  11    3.87    0.16
   2   2 -11    0.17    0.07
  -2  -2  11    0.19    0.06
  -2  -2  11    0.23    0.05
   1   2 -11    3.53    0.18
  -1  -2  11    3.35    0.13
  -1  -2  11    3.45    0.15
   0   2 -11    8.95    0.34
   0  -2  11    9.17    0.30
  -1   2 -11    8.37    0.31
  -1   2 -11    7.64    0.29
   1  -2  11    7.66    0.26
  -2   2 -11    0.68    0.09
  -2   2 -11    0.84    0.09
  -3   2 -11    0.92    0.10
  -3   2 -11    0.91    0.11
  -4   2 -11    1.57    0.13
  -4   2 -11    1.49    0.15
  -5   2 -11    1.49    0.13
  -5   2 -11    1.29    0.14
  -6   2 -11    0.09    0.10
   7   1 -11    0.38    0.11
  -7  -1  11    0.58    0.10
  -7  -1  11    0.39    0.08
   6   1 -11    0.23    0.09
  -6  -1  11    0.12    0.07
  -6  -1  11    0.17    0.07
   5   1 -11    0.86    0.11
  -5  -1  11    1.08    0.09
  -5  -1  11    0.99    0.10
   4   1 -11    0.15    0.08
  -4  -1  11    0.22    0.06
  -4  -1  11    0.30    0.06
   3   1 -11    0.78    0.10
  -3  -1  11    0.68    0.07
  -3  -1  11    0.70    0.08
   2   1 -11    2.34    0.15
  -2  -1  11    2.27    0.13
  -2  -1  11    2.21    0.11
   1   1 -11    1.70    0.14
  -1  -1  11    2.09    0.10
  -1  -1  11    1.94    0.12
   0   1 -11    3.05    0.17
   0  -1  11    3.31    0.15
  -1   1 -11    1.50    0.13
  -1   1 -11    1.71    0.13
   1  -1  11    1.89    0.11
  -2   1 -11    0.08    0.06
  -2   1 -11   -0.05    0.06
   2  -1  11    0.00    0.04
  -3   1 -11    0.25    0.07
  -3   1 -11    0.10    0.07
  -4   1 -11    1.23    0.13
  -4   1 -11    1.57    0.13
  -5   1 -11   -0.05    0.08
  -6   1 -11    0.10    0.10
   7   0 -11    1.23    0.15
  -7   0  11    1.45    0.13
  -7   0  11    1.32    0.12
   6   0 -11    1.48    0.14
  -6   0  11    1.58    0.13
  -6   0  11    1.53    0.12
   5   0 -11    0.02    0.08
  -5   0  11    0.08    0.06
  -5   0  11    0.05    0.06
   4   0 -11    1.92    0.15
  -4   0  11    1.88    0.12
  -4   0  11    1.93    0.13
   3   0 -11    0.08    0.07
  -3   0  11    0.13    0.06
  -3   0  11    0.11    0.05
   2   0 -11    2.08    0.14
  -2   0  11    1.89    0.11
  -2   0  11    1.88    0.12
   1   0 -11    0.09    0.07
  -1   0  11    0.11    0.04
  -1   0  11    0.04    0.05
   0   0 -11    0.00    0.06
   0   0 -11   -0.01    0.05
   0   0  11   -0.01    0.05
  -1   0 -11    0.29    0.07
  -1   0 -11    0.28    0.07
   1   0  11    0.31    0.06
  -2   0 -11    0.92    0.09
  -2   0 -11    0.84    0.10
   2   0  11    0.79    0.08
  -3   0 -11    3.52    0.19
  -3   0 -11    3.75    0.18
  -4   0 -11    6.20    0.28
  -5   0 -11    2.97    0.19
  -6   0 -11    0.00    0.09
   7  -1 -11    0.15    0.11
  -7   1  11    0.26    0.08
  -7   1  11    0.19    0.08
   6  -1 -11    0.10    0.10
  -6   1  11    0.16    0.07
  -6   1  11    0.11    0.07
   5  -1 -11    0.97    0.12
  -5   1  11    1.26    0.11
  -5   1  11    0.97    0.10
   4  -1 -11    0.49    0.09
  -4   1  11    0.56    0.08
  -4   1  11    0.49    0.07
   3  -1 -11   14.51    0.50
  -3   1  11   14.31    0.46
  -3   1  11   14.35    0.44
   2  -1 -11    2.89    0.17
  -2   1  11    2.85    0.15
  -2   1  11    3.04    0.14
   1  -1 -11    0.90    0.10
  -1   1  11    1.14    0.09
  -1   1  11    0.90    0.08
   0  -1 -11    0.10    0.06
   0  -1 -11    0.07    0.07
   0   1  11    0.07    0.05
   0   1  11    0.06    0.04
  -1  -1 -11    0.15    0.07
  -1  -1 -11    0.02    0.07
   1   1  11    0.13    0.06
  -2  -1 -11    0.32    0.07
  -2  -1 -11    0.40    0.08
   2   1  11    0.40    0.07
  -3  -1 -11    3.82    0.20
  -4  -1 -11    1.33    0.13
  -5  -1 -11    0.23    0.10
   6  -2 -11    0.54    0.12
  -6   2  11    0.64    0.09
  -6   2  11    0.48    0.09
   5  -2 -11    1.02    0.13
  -5   2  11    0.88    0.09
  -5   2  11    0.88    0.10
   4  -2 -11    2.82    0.18
  -4   2  11    2.89    0.16
  -4   2  11    2.65    0.14
   3  -2 -11    6.34    0.27
  -3   2  11    6.41    0.25
  -3   2  11    6.36    0.23
  -2   2  11    1.22    0.10
  -2   2  11    1.19    0.11
   1  -2 -11    0.44    0.08
  -1   2  11    0.35    0.06
  -1   2  11    0.35    0.07
   0  -2 -11   -0.01    0.07
   0  -2 -11    0.12    0.07
   0   2  11   -0.03    0.06
  -1  -2 -11    3.04    0.17
  -1  -2 -11    3.17    0.18
   1   2  11    3.14    0.16
  -2  -2 -11    0.12    0.08
   2   2  11    0.08    0.06
  -3  -2 -11    0.37    0.10
   3   2  11    0.25    0.06
  -4  -2 -11    1.73    0.16
  -5  -2 -11    0.29    0.10
   6  -3 -11    0.35    0.11
  -6   3  11    0.37    0.08
  -6   3  11    0.39    0.08
   5  -3 -11    0.48    0.11
  -5   3  11    0.35    0.08
  -5   3  11    0.29    0.07
   4  -3 -11    2.22    0.17
  -4   3  11    2.02    0.13
  -4   3  11    1.91    0.14
   3  -3 -11    0.26    0.09
  -3   3  11    0.31    0.07
  -3   3  11    0.29    0.06
   2  -3 -11    0.10    0.08
  -2   3  11    0.05    0.06
  -2   3  11    0.06    0.05
   1  -3 -11    1.90    0.15
   1  -3 -11    2.12    0.15
  -1   3  11    1.95    0.13
  -1   3  11    1.99    0.12
   0  -3 -11    0.26    0.08
   0  -3 -11    0.18    0.08
   0   3  11    0.35    0.07
  -1  -3 -11    0.41    0.09
   1   3  11    0.41    0.08
  -2  -3 -11    0.13    0.09
   2   3  11    0.35    0.08
  -3  -3 -11    3.41    0.21
   3   3  11    3.43    0.18
  -4  -3 -11    1.99    0.17
  -5  -3 -11    0.23    0.11
   5  -4 -11    0.83    0.13
  -5   4  11    0.96    0.10
  -5   4  11    1.00    0.11
   4  -4 -11    3.05    0.20
  -4   4  11    2.58    0.16
  -4   4  11    2.64    0.15
   3  -4 -11    2.47    0.18
  -3   4  11    2.72    0.14
  -3   4  11    2.39    0.15
   2  -4 -11    0.41    0.09
  -2   4  11    0.17    0.07
  -2   4  11    0.26    0.06
   1  -4 -11    0.09    0.08
   1  -4 -11    0.05    0.08
  -1   4  11   -0.10    0.06
   0  -4 -11   -0.08    0.08
   0   4  11   -0.09    0.06
  -1  -4 -11   -0.14    0.08
   1   4  11   -0.06    0.07
  -2  -4 -11    0.08    0.10
   2   4  11    0.10    0.07
  -3  -4 -11    0.16    0.10
  -4  -4 -11    0.42    0.12
   4  -5 -11    0.91    0.13
  -4   5  11    0.72    0.10
  -4   5  11    0.85    0.10
   3  -5 -11    0.76    0.12
  -3   5  11    0.74    0.10
  -3   5  11    0.78    0.09
   2  -5 -11    0.12    0.08
  -2   5  11   -0.04    0.07
   1  -5 -11    0.64    0.10
  -1   5  11    0.51    0.09
   0  -5 -11    1.25    0.13
   0   5  11    1.76    0.14
  -1  -5 -11    0.59    0.11
   1   5  11    0.71    0.10
  -2  -5 -11    0.37    0.11
   2   5  11    0.48    0.09
  -3  -5 -11    0.77    0.13
   3  -6 -11   -0.16    0.09
  -3   6  11    0.02    0.07
  -2   6  11    0.33    0.09
   1  -6 -11    1.58    0.16
  -1   6  11    1.54    0.14
   0  -6 -11    1.54    0.15
   0   6  11    1.66    0.14
  -1  -6 -11    0.43    0.11
   1   6  11    0.52    0.10
   1  10 -12    0.28    0.09
   0  10 -12    0.08    0.09
  -1  10 -12    1.93    0.17
  -3  -9  12    3.12    0.19
   2   9 -12    0.01    0.08
  -2  -9  12    0.15    0.07
   1   9 -12    1.30    0.13
   0   9 -12    5.82    0.27
  -1   9 -12    4.73    0.24
  -2   9 -12    0.83    0.12
  -3   9 -12    0.69    0.12
  -4  -8  12    3.47    0.18
  -4  -8  12    3.41    0.19
  -4  -8  12    3.73    0.16
   3   8 -12    0.89    0.11
  -3  -8  12    0.84    0.10
   2   8 -12    8.77    0.35
  -2  -8  12    8.90    0.32
   1   8 -12    5.19    0.25
  -1  -8  12    5.33    0.22
   0   8 -12    5.26    0.25
  -1   8 -12    2.13    0.17
  -2   8 -12    1.08    0.13
  -3   8 -12    1.46    0.15
  -4   8 -12    1.96    0.17
  -4   8 -12    1.61    0.16
  -5  -7  12    2.16    0.15
  -5  -7  12    2.12    0.16
  -5  -7  12    2.17    0.13
   4   7 -12    2.89    0.19
  -4  -7  12    2.90    0.14
  -4  -7  12    2.74    0.17
  -4  -7  12    3.04    0.16
   3   7 -12    4.63    0.23
  -3  -7  12    4.79    0.21
  -3  -7  12    4.42    0.19
  -3  -7  12    4.59    0.18
   2   7 -12    2.53    0.18
  -2  -7  12    2.47    0.15
   1   7 -12    0.88    0.11
  -1  -7  12    0.92    0.09
   0   7 -12    4.85    0.23
  -1   7 -12    1.80    0.15
  -2   7 -12    3.29    0.19
  -3   7 -12   -0.03    0.08
  -3   7 -12    0.09    0.07
  -4   7 -12    1.14    0.13
  -4   7 -12    1.09    0.13
  -6  -6  12    0.45    0.08
  -6  -6  12    0.56    0.10
   5   6 -12    3.21    0.20
  -5  -6  12    2.86    0.15
  -5  -6  12    2.79    0.16
  -5  -6  12    2.85    0.17
   4   6 -12    1.89    0.17
  -4  -6  12    2.04    0.15
  -4  -6  12    2.01    0.12
  -4  -6  12    2.23    0.14
   3   6 -12    3.89    0.21
  -3  -6  12    3.90    0.17
  -3  -6  12    3.67    0.19
  -3  -6  12    4.11    0.16
   2   6 -12    3.22    0.19
  -2  -6  12    3.26    0.17
   1   6 -12    0.87    0.11
  -1  -6  12    0.90    0.09
   0   6 -12    0.24    0.08
   0  -6  12    0.11    0.06
  -1   6 -12    1.43    0.14
  -2   6 -12    0.58    0.10
  -3   6 -12    0.46    0.09
  -3   6 -12    0.40    0.10
  -4   6 -12    3.27    0.20
  -4   6 -12    3.00    0.20
  -5   6 -12    0.15    0.10
  -5   6 -12    0.24    0.10
   6   5 -12    2.32    0.18
  -6  -5  12    2.14    0.16
  -6  -5  12    2.17    0.15
  -6  -5  12    2.08    0.13
   5   5 -12    0.64    0.11
  -5  -5  12    0.77    0.08
  -5  -5  12    0.62    0.08
  -5  -5  12    0.49    0.09
   4   5 -12    1.08    0.12
  -4  -5  12    1.24    0.10
  -4  -5  12    1.09    0.10
  -4  -5  12    1.18    0.11
   3   5 -12    4.82    0.23
  -3  -5  12    4.49    0.19
  -3  -5  12    4.39    0.20
  -3  -5  12    4.61    0.17
   2   5 -12    1.70    0.14
  -2  -5  12    1.74    0.12
   1   5 -12    2.12    0.15
  -1  -5  12    1.99    0.12
   0   5 -12    6.33    0.27
   0  -5  12    6.09    0.23
  -1   5 -12    7.39    0.30
  -2   5 -12    0.48    0.08
  -2   5 -12    0.28    0.08
  -3   5 -12   -0.03    0.07
  -3   5 -12    0.02    0.07
  -4   5 -12    0.14    0.09
  -4   5 -12    0.22    0.09
  -5   5 -12    1.30    0.13
  -5   5 -12    1.35    0.14
   6   4 -12    1.83    0.17
  -6  -4  12    1.91    0.13
  -6  -4  12    2.01    0.15
  -6  -4  12    1.76    0.14
   5   4 -12    0.67    0.11
  -5  -4  12    0.72    0.09
  -5  -4  12    0.78    0.10
  -5  -4  12    0.78    0.08
   4   4 -12    0.12    0.08
  -4  -4  12    0.33    0.06
  -4  -4  12    0.17    0.06
  -4  -4  12    0.17    0.07
   3   4 -12    3.33    0.19
  -3  -4  12    3.08    0.15
  -3  -4  12    3.00    0.13
  -3  -4  12    2.93    0.16
   2   4 -12    0.31    0.08
  -2  -4  12    0.38    0.07
  -2  -4  12    0.16    0.05
   1   4 -12    0.68    0.09
  -1  -4  12    0.70    0.08
   0   4 -12    0.90    0.10
   0  -4  12    0.86    0.08
  -1   4 -12    6.32    0.27
  -2   4 -12    1.68    0.13
  -2   4 -12    1.76    0.15
  -3   4 -12   12.40    0.44
  -3   4 -12   11.85    0.44
  -4   4 -12    7.98    0.33
  -4   4 -12    8.01    0.33
  -5   4 -12    0.64    0.11
  -5   4 -12    0.65    0.12
   6   3 -12    2.37    0.18
  -6  -3  12    2.15    0.16
  -6  -3  12    2.50    0.15
   5   3 -12    0.47    0.10
  -5  -3  12    0.50    0.08
  -5  -3  12    0.35    0.07
   4   3 -12    6.69    0.29
  -4  -3  12    6.68    0.27
  -4  -3  12    6.90    0.25
   3   3 -12    6.81    0.28
  -3  -3  12    6.76    0.24
  -3  -3  12    6.29    0.25
   2   3 -12    2.49    0.16
  -2  -3  12    2.22    0.12
  -2  -3  12    2.24    0.13
   1   3 -12    0.47    0.09
  -1  -3  12    0.44    0.07
   0   3 -12    5.62    0.25
   0  -3  12    5.17    0.20
  -1   3 -12    5.03    0.23
   1  -3  12    4.73    0.19
  -2   3 -12    3.71    0.20
  -2   3 -12    4.19    0.20
  -3   3 -12    0.69    0.10
  -3   3 -12    0.58    0.10
  -4   3 -12   -0.13    0.07
  -4   3 -12   -0.17    0.08
  -5   3 -12    0.18    0.10
  -5   3 -12    0.33    0.09
   6   2 -12   -0.02    0.09
  -6  -2  12    0.04    0.07
  -6  -2  12    0.10    0.07
   5   2 -12    0.54    0.11
  -5  -2  12    0.59    0.09
  -5  -2  12    0.69    0.09
   4   2 -12    3.05    0.19
  -4  -2  12    3.53    0.17
  -4  -2  12    3.29    0.16
   3   2 -12    2.30    0.16
  -3  -2  12    2.17    0.14
  -3  -2  12    2.16    0.12
   2   2 -12    0.41    0.08
  -2  -2  12    0.39    0.06
  -2  -2  12    0.38    0.07
   1   2 -12    0.05    0.07
  -1  -2  12    0.09    0.05
   0   2 -12   13.29    0.47
   0  -2  12   13.10    0.42
  -1   2 -12    5.76    0.25
   1  -2  12    5.51    0.21
  -2   2 -12    2.91    0.17
  -2   2 -12    3.20    0.17
  -3   2 -12    0.58    0.10
  -3   2 -12    0.62    0.09
  -4   2 -12    0.36    0.09
  -4   2 -12    0.35    0.09
  -5   2 -12    0.01    0.07
  -5   2 -12    0.02    0.09
   6   1 -12    1.95    0.17
  -6  -1  12    1.87    0.14
  -6  -1  12    1.70    0.15
   5   1 -12    0.08    0.09
  -5  -1  12    0.05    0.06
  -5  -1  12    0.13    0.06
   4   1 -12    0.46    0.10
  -4  -1  12    0.43    0.07
  -4  -1  12    0.41    0.08
   3   1 -12    1.19    0.12
  -3  -1  12    1.06    0.10
  -3  -1  12    1.20    0.10
   2   1 -12    1.31    0.12
  -2  -1  12    1.53    0.10
  -2  -1  12    1.29    0.11
   1   1 -12    1.54    0.14
  -1  -1  12    1.61    0.11
   0   1 -12    3.16    0.18
   0  -1  12    3.41    0.16
  -1   1 -12    5.31    0.23
  -1   1 -12    4.60    0.21
   1  -1  12    4.79    0.19
  -2   1 -12    2.32    0.16
  -2   1 -12    2.68    0.16
  -3   1 -12    0.43    0.09
  -3   1 -12    0.37    0.08
  -4   1 -12    1.01    0.10
  -4   1 -12    0.71    0.11
  -5   1 -12    1.16    0.14
   6   0 -12   -0.01    0.09
  -6   0  12   -0.03    0.07
  -6   0  12   -0.02    0.07
   5   0 -12    1.16    0.13
  -5   0  12    1.30    0.12
  -5   0  12    1.18    0.10
   4   0 -12    0.55    0.10
  -4   0  12    0.69    0.08
  -4   0  12    0.63    0.09
   3   0 -12    3.28    0.19
  -3   0  12    3.25    0.15
  -3   0  12    3.12    0.16
   2   0 -12    2.85    0.18
  -2   0  12    2.83    0.15
  -2   0  12    2.84    0.13
   1   0 -12    1.65    0.14
  -1   0  12    1.44    0.11
  -1   0  12    1.62    0.10
   0   0 -12    5.50    0.24
   0   0  12    5.24    0.21
  -1   0 -12    3.55    0.18
  -1   0 -12    3.65    0.18
   1   0  12    3.52    0.16
  -2   0 -12    2.38    0.16
  -2   0 -12    2.32    0.15
   2   0  12    2.22    0.13
  -3   0 -12    2.31    0.17
  -3   0 -12    2.60    0.16
  -4   0 -12    2.14    0.17
  -5   0 -12    0.53    0.12
   6  -1 -12    0.40    0.11
  -6   1  12    0.35    0.09
  -6   1  12    0.36    0.08
   5  -1 -12    0.98    0.12
  -5   1  12    0.90    0.10
  -5   1  12    0.97    0.11
   4  -1 -12    0.74    0.11
  -4   1  12    0.74    0.09
  -4   1  12    0.85    0.09
   3  -1 -12    1.33    0.13
  -3   1  12    1.52    0.11
  -3   1  12    1.28    0.11
   2  -1 -12    0.75    0.10
  -2   1  12    0.91    0.08
  -2   1  12    0.76    0.09
   1  -1 -12    6.77    0.28
  -1   1  12    7.16    0.23
  -1   1  12    6.41    0.25
   0  -1 -12    2.67    0.17
   0   1  12    2.43    0.14
  -1  -1 -12    6.36    0.26
  -1  -1 -12    6.01    0.26
   1   1  12    6.26    0.24
  -2  -1 -12    0.72    0.09
  -2  -1 -12    0.52    0.09
   2   1  12    0.71    0.09
  -3  -1 -12    0.41    0.10
  -4  -1 -12    0.26    0.09
  -5  -1 -12    0.16    0.10
   6  -2 -12    1.24    0.15
  -6   2  12    1.55    0.14
  -6   2  12    1.18    0.12
   5  -2 -12    0.18    0.10
  -5   2  12    0.15    0.07
  -5   2  12    0.08    0.07
   4  -2 -12    0.63    0.11
  -4   2  12    0.64    0.09
  -4   2  12    0.62    0.09
   3  -2 -12    1.12    0.12
  -3   2  12    1.01    0.10
  -3   2  12    1.35    0.11
   2  -2 -12    1.20    0.12
  -2   2  12    1.31    0.11
  -2   2  12    1.24    0.10
   1  -2 -12   -0.09    0.07
  -1   2  12    0.00    0.06
  -1   2  12   -0.05    0.05
   0  -2 -12    3.88    0.20
   0   2  12    3.77    0.18
  -1  -2 -12    4.69    0.22
  -1  -2 -12    4.38    0.22
   1   2  12    4.75    0.20
  -2  -2 -12    2.59    0.18
   2   2  12    2.71    0.15
  -3  -2 -12    4.00    0.22
  -4  -2 -12    0.93    0.13
   5  -3 -12    0.77    0.13
  -5   3  12    0.66    0.10
  -5   3  12    0.62    0.09
   4  -3 -12    1.82    0.17
  -4   3  12    1.50    0.13
  -4   3  12    1.77    0.13
   3  -3 -12    1.58    0.16
  -3   3  12    1.57    0.13
  -3   3  12    1.43    0.11
   2  -3 -12    0.23    0.09
  -2   3  12    0.25    0.07
  -2   3  12    0.37    0.07
   1  -3 -12   -0.02    0.08
  -1   3  12   -0.03    0.06
   0  -3 -12   -0.07    0.07
   0  -3 -12   -0.09    0.08
   0   3  12   -0.05    0.07
  -1  -3 -12    0.39    0.10
   1   3  12    0.67    0.10
  -2  -3 -12    0.07    0.09
   2   3  12    0.03    0.07
  -3  -3 -12   -0.05    0.09
   3   3  12    0.06    0.07
  -4  -3 -12    0.73    0.12
   4  -4 -12    0.62    0.12
  -4   4  12    0.94    0.10
  -4   4  12    0.71    0.10
   3  -4 -12    2.07    0.17
  -3   4  12    1.85    0.14
  -3   4  12    1.95    0.13
   2  -4 -12    0.07    0.09
  -2   4  12    0.01    0.07
  -2   4  12    0.06    0.06
   1  -4 -12    0.07    0.08
  -1   4  12    0.03    0.07
   0  -4 -12    0.04    0.08
   0   4  12    0.04    0.07
  -1  -4 -12    0.86    0.12
   1   4  12    0.77    0.10
  -2  -4 -12    1.84    0.17
   2   4  12    1.90    0.15
  -3  -4 -12    2.41    0.20
   3  -5 -12    0.01    0.09
  -3   5  12    0.07    0.07
  -3   5  12   -0.02    0.07
   2  -5 -12    0.23    0.10
  -2   5  12    0.28    0.08
  -1   5  12   -0.05    0.07
   0  -5 -12    0.28    0.10
   0   5  12    0.26    0.09
  -1  -5 -12    0.74    0.12
   1   5  12    0.84    0.11
  -2  -5 -12    0.76    0.13
   2   5  12    0.80    0.11
   2   9 -13    0.08    0.09
  -2  -9  13    0.21    0.07
   1   9 -13    3.92    0.22
   0   9 -13    2.83    0.20
  -1   9 -13    3.72    0.22
  -2   9 -13   -0.03    0.09
  -4  -8  13    0.31    0.09
   3   8 -13    0.47    0.10
  -3  -8  13    0.58    0.09
   2   8 -13    0.37    0.10
  -2  -8  13    0.40    0.08
   1   8 -13    0.28    0.10
   0   8 -13    1.37    0.14
  -1   8 -13    0.85    0.12
  -2   8 -13    2.58    0.19
  -3   8 -13    1.70    0.17
   4   7 -13    3.86    0.22
  -4  -7  13    3.35    0.19
  -4  -7  13    3.67    0.18
  -4  -7  13    3.48    0.16
   3   7 -13    1.67    0.16
  -3  -7  13    1.82    0.14
   2   7 -13    4.62    0.24
  -2  -7  13    4.57    0.21
   1   7 -13    1.34    0.13
  -1  -7  13    1.43    0.12
   0   7 -13    1.48    0.14
  -1   7 -13    1.49    0.14
  -2   7 -13    0.58    0.11
  -3   7 -13    0.20    0.10
  -4   7 -13    2.11    0.18
   5   6 -13    0.83    0.12
  -5  -6  13    0.93    0.11
  -5  -6  13    0.79    0.09
  -5  -6  13    0.83    0.10
   4   6 -13    2.34    0.18
  -4  -6  13    2.33    0.14
  -4  -6  13    2.29    0.16
  -4  -6  13    2.20    0.13
   3   6 -13    1.70    0.15
  -3  -6  13    1.86    0.14
   2   6 -13    1.74    0.16
  -2  -6  13    1.70    0.13
   1   6 -13    0.21    0.09
  -1  -6  13    0.15    0.06
   0   6 -13    2.92    0.18
  -1   6 -13    2.72    0.18
  -2   6 -13    1.34    0.13
  -3   6 -13   -0.04    0.08
  -4   6 -13    0.05    0.09
  -4   6 -13    0.17    0.09
   5   5 -13    1.52    0.15
  -5  -5  13    1.58    0.14
  -5  -5  13    1.73    0.12
  -5  -5  13    1.84    0.14
   4   5 -13   -0.02    0.09
  -4  -5  13    0.10    0.07
  -4  -5  13    0.06    0.06
  -4  -5  13    0.15    0.06
   3   5 -13    3.02    0.19
  -3  -5  13    2.81    0.15
  -3  -5  13    2.71    0.16
   2   5 -13    2.63    0.18
  -2  -5  13    2.29    0.15
   1   5 -13    2.16    0.16
  -1  -5  13    1.99    0.13
   0   5 -13    5.05    0.24
   0  -5  13    4.94    0.20
  -1   5 -13    4.62    0.23
  -2   5 -13    1.66    0.15
  -3   5 -13    0.45    0.09
  -3   5 -13    0.42    0.10
  -4   5 -13    9.45    0.37
  -4   5 -13    9.18    0.38
   6   4 -13    2.99    0.20
  -6  -4  13    2.81    0.18
  -6  -4  13    2.65    0.17
   5   4 -13    2.50    0.18
  -5  -4  13    2.34    0.15
  -5  -4  13    2.19    0.16
   4   4 -13    3.20    0.20
  -4  -4  13    2.96    0.17
  -4  -4  13    3.08    0.16
   3   4 -13    7.05    0.30
  -3  -4  13    7.02    0.25
  -3  -4  13    6.36    0.27
   2   4 -13    1.98    0.16
  -2  -4  13    2.01    0.14
   1   4 -13    3.26    0.19
  -1  -4  13    3.19    0.16
   0   4 -13    4.60    0.22
   0  -4  13    3.99    0.18
  -1   4 -13    2.92    0.18
  -2   4 -13    0.32    0.09
  -3   4 -13    3.38    0.20
  -3   4 -13    3.43    0.20
  -4   4 -13    2.02    0.18
  -4   4 -13    2.25    0.17
  -5   4 -13    1.35    0.14
  -5   4 -13    1.35    0.15
   6   3 -13    2.10    0.18
  -6  -3  13    1.86    0.15
  -6  -3  13    1.66    0.15
   5   3 -13    1.97    0.17
  -5  -3  13    1.91    0.15
  -5  -3  13    1.85    0.13
   4   3 -13    3.36    0.20
  -4  -3  13    3.26    0.16
  -4  -3  13    3.18    0.18
   3   3 -13   14.89    0.52
  -3  -3  13   13.92    0.47
  -3  -3  13   14.46    0.44
   2   3 -13    7.41    0.30
  -2  -3  13    6.74    0.26
   1   3 -13    4.64    0.22
  -1  -3  13    4.14    0.19
   0   3 -13    1.70    0.15
   0  -3  13    1.50    0.12
  -1   3 -13    3.88    0.21
  -2   3 -13   -0.08    0.07
  -3   3 -13    1.20    0.12
  -3   3 -13    1.26    0.12
  -4   3 -13    0.57    0.10
  -4   3 -13    0.49    0.11
  -5   3 -13    0.13    0.10
  -5   3 -13    0.02    0.08
   6   2 -13    2.37    0.19
  -6  -2  13    2.41    0.15
  -6  -2  13    2.38    0.17
   5   2 -13    0.31    0.10
  -5  -2  13    0.20    0.07
  -5  -2  13    0.40    0.09
   4   2 -13    4.40    0.23
  -4  -2  13    4.40    0.19
  -4  -2  13    4.15    0.20
   3   2 -13    0.45    0.10
  -3  -2  13    0.49    0.08
  -3  -2  13    0.46    0.07
   2   2 -13    0.39    0.09
  -2  -2  13    0.31    0.07
   1   2 -13    0.11    0.08
  -1  -2  13    0.12    0.05
   0   2 -13    4.74    0.23
   0  -2  13    4.84    0.20
  -1   2 -13    2.71    0.18
   1  -2  13    2.71    0.14
  -2   2 -13    1.63    0.14
  -2   2 -13    1.72    0.14
  -3   2 -13    0.42    0.10
  -3   2 -13    0.50    0.09
  -4   2 -13    0.37    0.10
  -4   2 -13    0.60    0.10
  -5   2 -13    0.03    0.10
   6   1 -13    1.13    0.14
  -6  -1  13    1.04    0.11
  -6  -1  13    1.00    0.12
   5   1 -13    0.48    0.11
  -5  -1  13    0.52    0.08
  -5  -1  13    0.44    0.09
   4   1 -13    2.65    0.18
  -4  -1  13    2.98    0.15
  -4  -1  13    2.65    0.16
   3   1 -13    0.42    0.10
  -3  -1  13    0.48    0.08
  -3  -1  13    0.54    0.07
   2   1 -13    6.72    0.29
  -2  -1  13    6.95    0.23
  -2  -1  13    6.00    0.25
   1   1 -13    0.15    0.08
  -1  -1  13    0.17    0.06
   0   1 -13    2.83    0.18
   0  -1  13    2.93    0.15
  -1   1 -13    0.01    0.07
   1  -1  13   -0.02    0.05
  -2   1 -13    0.17    0.08
  -2   1 -13    0.23    0.08
  -3   1 -13    0.12    0.08
  -3   1 -13    0.10    0.07
  -4   1 -13    0.64    0.11
  -5   1 -13    0.85    0.13
   6   0 -13    0.22    0.11
  -6   0  13    0.19    0.08
  -6   0  13    0.26    0.08
   5   0 -13    0.78    0.12
  -5   0  13    0.75    0.09
  -5   0  13    1.00    0.11
   4   0 -13    0.36    0.10
  -4   0  13    0.30    0.07
  -4   0  13    0.35    0.08
   3   0 -13    1.20    0.13
  -3   0  13    1.39    0.11
  -3   0  13    1.29    0.12
   2   0 -13    0.17    0.08
  -2   0  13    0.28    0.06
  -2   0  13    0.18    0.06
   1   0 -13    2.85    0.18
  -1   0  13    3.19    0.16
   0   0 -13    2.83    0.17
   0   0  13    2.77    0.15
  -1   0 -13    5.45    0.24
   1   0  13    5.39    0.22
  -2   0 -13    1.65    0.14
  -2   0 -13    1.40    0.14
  -3   0 -13    0.20    0.09
  -4   0 -13    0.37    0.10
   5  -1 -13    0.70    0.12
  -5   1  13    0.68    0.10
  -5   1  13    0.60    0.09
   4  -1 -13    0.52    0.11
  -4   1  13    0.42    0.08
  -4   1  13    0.54    0.09
   3  -1 -13    1.40    0.14
  -3   1  13    1.41    0.12
  -3   1  13    1.65    0.12
   2  -1 -13    2.39    0.17
  -2   1  13    2.44    0.13
  -2   1  13    2.15    0.14
   1  -1 -13    2.37    0.17
  -1   1  13    2.20    0.14
   0  -1 -13    3.64    0.20
   0   1  13    3.56    0.18
  -1  -1 -13    4.51    0.22
   1   1  13    4.78    0.20
  -2  -1 -13    1.05    0.12
  -2  -1 -13    1.07    0.11
   2   1  13    0.97    0.10
  -3  -1 -13    1.10    0.13
  -4  -1 -13    0.62    0.12
   5  -2 -13    0.47    0.12
  -5   2  13    0.38    0.08
  -5   2  13    0.35    0.09
   4  -2 -13    0.49    0.11
  -4   2  13    0.49    0.08
  -4   2  13    0.47    0.09
   3  -2 -13    0.10    0.09
  -3   2  13    0.16    0.06
  -3   2  13    0.17    0.07
   2  -2 -13    0.20    0.09
  -2   2  13    0.18    0.07
  -2   2  13    0.16    0.06
   1  -2 -13    1.77    0.15
  -1   2  13    1.61    0.13
   0  -2 -13    6.31    0.28
   0   2  13    6.51    0.25
  -1  -2 -13    2.55    0.18
  -1  -2 -13    2.64    0.17
   1   2  13    2.60    0.16
  -2  -2 -13    0.05    0.08
   2   2  13    0.10    0.07
  -3  -2 -13    0.52    0.11
   4  -3 -13   -0.03    0.09
  -4   3  13    0.11    0.07
  -4   3  13   -0.04    0.07
   3  -3 -13    0.47    0.11
  -3   3  13    0.40    0.08
  -3   3  13    0.41    0.08
   2  -3 -13    0.34    0.10
  -2   3  13    0.31    0.08
  -2   3  13    0.31    0.07
   1  -3 -13    1.00    0.12
  -1   3  13    0.78    0.10
   0  -3 -13    0.47    0.10
   0   3  13    0.43    0.09
  -1  -3 -13    0.02    0.09
   1   3  13    0.08    0.07
  -2  -3 -13    0.25    0.10
   2   3  13    0.22    0.08
  -3  -3 -13    1.93    0.18
   3  -4 -13    0.21    0.10
  -3   4  13    0.35    0.08
  -3   4  13    0.26    0.08
   2  -4 -13    0.89    0.12
  -2   4  13    0.67    0.10
  -2   4  13    0.80    0.10
   1  -4 -13    0.93    0.12
  -1   4  13    0.88    0.11
   0   4  13    3.18    0.18
  -1  -4 -13    1.06    0.13
   1   4  13    1.20    0.12
  -2  -4 -13    0.94    0.13
   2   4  13    1.01    0.11
   3   8 -14    0.29    0.10
   2   8 -14    0.75    0.12
  -2  -8  14    0.75    0.10
   1   8 -14    2.94    0.20
   0   8 -14    0.53    0.12
  -1   8 -14    0.46    0.11
  -2   8 -14    0.00    0.09
   4   7 -14    0.19    0.10
  -4  -7  14    0.32    0.08
   3   7 -14    1.13    0.14
  -3  -7  14    1.18    0.12
   2   7 -14    0.86    0.12
  -2  -7  14    0.96    0.10
   1   7 -14    0.04    0.09
   0   7 -14    0.55    0.11
  -1   7 -14    0.03    0.09
  -2   7 -14    0.08    0.09
  -3   7 -14    0.09    0.10
   4   6 -14   -0.05    0.09
  -4  -6  14    0.09    0.07
   3   6 -14   -0.08    0.08
  -3  -6  14   -0.02    0.07
   2   6 -14    0.57    0.11
  -2  -6  14    0.61    0.09
   1   6 -14   -0.04    0.08
  -1  -6  14    0.04    0.06
   0   6 -14    0.39    0.09
  -1   6 -14    0.27    0.09
  -2   6 -14    1.55    0.15
  -3   6 -14    0.12    0.10
   5   5 -14    0.13    0.10
  -5  -5  14    0.05    0.07
  -5  -5  14    0.02    0.06
  -5  -5  14    0.09    0.08
   4   5 -14    0.32    0.10
  -4  -5  14    0.27    0.07
  -4  -5  14    0.26    0.08
   3   5 -14    2.00    0.17
  -3  -5  14    1.96    0.15
   2   5 -14    0.91    0.12
  -2  -5  14    0.86    0.10
   1   5 -14    0.79    0.11
  -1  -5  14    0.86    0.09
   0   5 -14    2.28    0.17
  -1   5 -14    5.78    0.27
  -2   5 -14    0.33    0.10
  -3   5 -14    1.16    0.14
  -4   5 -14    1.84    0.17
   5   4 -14    1.43    0.15
  -5  -4  14    1.27    0.13
  -5  -4  14    1.13    0.11
   4   4 -14    0.28    0.10
  -4  -4  14    0.17    0.07
  -4  -4  14    0.25    0.08
   3   4 -14    2.85    0.19
  -3  -4  14    2.62    0.17
   2   4 -14    1.97    0.16
  -2  -4  14    1.59    0.13
   1   4 -14    1.93    0.16
  -1  -4  14    1.95    0.13
   0   4 -14    1.21    0.13
   0  -4  14    1.18    0.10
  -1   4 -14    1.99    0.16
  -2   4 -14    0.25    0.09
  -3   4 -14    1.52    0.15
  -4   4 -14    3.68    0.21
  -4   4 -14    3.22    0.22
   5   3 -14    0.42    0.11
  -5  -3  14    0.42    0.08
  -5  -3  14    0.30    0.09
   4   3 -14    2.88    0.20
  -4  -3  14    3.09    0.16
  -4  -3  14    3.21    0.18
   3   3 -14    7.71    0.33
  -3  -3  14    7.42    0.29
   2   3 -14    1.73    0.15
  -2  -3  14    1.41    0.13
   1   3 -14    0.49    0.10
  -1  -3  14    0.45    0.08
   0   3 -14    5.28    0.25
   0  -3  14    5.14    0.21
  -1   3 -14    3.66    0.21
  -2   3 -14    2.16    0.17
  -3   3 -14    1.51    0.14
  -4   3 -14    1.52    0.15
  -4   3 -14    1.73    0.16
   5   2 -14    0.22    0.10
  -5  -2  14    0.20    0.08
  -5  -2  14    0.28    0.09
   4   2 -14    2.21    0.18
  -4  -2  14    2.27    0.15
  -4  -2  14    2.35    0.14
   3   2 -14    0.45    0.10
  -3  -2  14    0.23    0.07
   2   2 -14    1.43    0.14
  -2  -2  14    1.28    0.11
   1   2 -14    1.63    0.16
  -1  -2  14    1.50    0.12
   0   2 -14    3.96    0.22
   0  -2  14    4.06    0.18
  -1   2 -14    1.00    0.12
  -2   2 -14   -0.02    0.07
  -3   2 -14    0.97    0.12
  -4   2 -14    0.87    0.13
  -4   2 -14    1.20    0.12
   5   1 -14    2.26    0.18
  -5  -1  14    2.05    0.15
  -5  -1  14    1.98    0.14
   4   1 -14    0.97    0.13
  -4  -1  14    0.96    0.09
  -4  -1  14    0.74    0.10
   3   1 -14    3.12    0.20
  -3  -1  14    2.87    0.17
  -3  -1  14    3.18    0.15
   2   1 -14    0.13    0.09
  -2  -1  14    0.07    0.06
   1   1 -14    1.91    0.17
  -1  -1  14    1.85    0.13
   0   1 -14    0.88    0.11
   0  -1  14    0.99    0.10
  -1   1 -14    0.66    0.10
   1  -1  14    0.76    0.09
  -2   1 -14    2.18    0.16
  -3   1 -14    1.75    0.16
  -3   1 -14    2.17    0.16
  -4   1 -14    1.76    0.17
   5   0 -14    0.23    0.11
  -5   0  14    0.17    0.08
  -5   0  14    0.11    0.08
   4   0 -14    2.63    0.19
  -4   0  14    2.77    0.16
  -4   0  14    2.64    0.16
   3   0 -14    1.51    0.14
  -3   0  14    1.53    0.12
  -3   0  14    1.60    0.13
   2   0 -14    5.54    0.26
  -2   0  14    5.57    0.23
   1   0 -14    2.16    0.16
  -1   0  14    1.87    0.14
   0   0 -14    2.41    0.17
   0   0  14    2.19    0.14
  -1   0 -14    1.49    0.15
   1   0  14    1.11    0.11
  -2   0 -14    0.62    0.10
  -3   0 -14    1.13    0.13
   4  -1 -14    3.08    0.21
  -4   1  14    3.03    0.18
  -4   1  14    3.14    0.16
   3  -1 -14    2.33    0.19
  -3   1  14    2.57    0.15
  -3   1  14    2.47    0.16
   2  -1 -14    1.88    0.17
  -2   1  14    1.84    0.14
   1  -1 -14    0.99    0.12
  -1   1  14    1.14    0.11
   0  -1 -14    2.97    0.19
   0   1  14    2.85    0.16
  -1  -1 -14    2.20    0.17
   1   1  14    1.83    0.14
  -3  -1 -14    0.05    0.09
   4  -2 -14    0.08    0.10
  -4   2  14   -0.07    0.07
  -4   2  14    0.05    0.07
   3  -2 -14    0.83    0.12
  -3   2  14    0.56    0.08
  -3   2  14    0.63    0.10
   2  -2 -14    0.06    0.09
  -2   2  14    0.01    0.06
   1  -2 -14    0.36    0.10
  -1   2  14    0.21    0.07
   0  -2 -14    0.10    0.09
   0   2  14    0.04    0.07
   1   2  14    1.12    0.12
   2   2  14    0.13    0.08
   3  -3 -14    0.66    0.12
  -3   3  14    0.76    0.09
  -3   3  14    0.73    0.10
   2  -3 -14    1.02    0.13
  -2   3  14    0.83    0.09
  -2   3  14    0.84    0.11
   1  -3 -14    0.99    0.13
  -1   3  14    0.99    0.11
   0   3  14    1.51    0.14
   1   3  14   -0.03    0.07
   2   7 -15    0.80    0.13
  -2  -7  15    0.91    0.11
   1   7 -15    0.51    0.11
   0   7 -15    0.36    0.11
  -1   7 -15    0.04    0.09
   3   6 -15    0.52    0.12
  -3  -6  15    0.28    0.09
   2   6 -15    1.53    0.15
  -2  -6  15    1.27    0.12
   1   6 -15    0.71    0.12
   0   6 -15    0.86    0.12
  -1   6 -15    0.80    0.12
  -2   6 -15    0.27    0.10
   4   5 -15   -0.09    0.09
  -4  -5  15    0.07    0.08
   3   5 -15    0.44    0.11
  -3  -5  15    0.36    0.09
   2   5 -15    1.16    0.14
  -2  -5  15    1.11    0.11
   1   5 -15    0.28    0.10
  -1  -5  15    0.17    0.07
   0   5 -15    0.37    0.10
  -1   5 -15    0.06    0.09
  -2   5 -15   -0.01    0.09
  -3   5 -15   -0.08    0.09
   4   4 -15    0.25    0.11
  -4  -4  15    0.37    0.09
   3   4 -15    5.71    0.28
  -3  -4  15    5.25    0.24
   2   4 -15    2.93    0.19
  -2  -4  15    2.56    0.16
   1   4 -15    1.14    0.13
  -1  -4  15    1.04    0.10
   0   4 -15    0.41    0.10
  -1   4 -15    0.54    0.11
  -2   4 -15   -0.07    0.09
  -3   4 -15    0.13    0.10
   4   3 -15    0.56    0.12
  -4  -3  15    0.81    0.11
   3   3 -15    2.79    0.20
  -3  -3  15    2.81    0.17
   2   3 -15    0.75    0.12
  -2  -3  15    0.72    0.09
   1   3 -15    0.41    0.10
  -1  -3  15    0.30    0.07
   0   3 -15    0.21    0.10
  -1   3 -15    2.36    0.18
  -2   3 -15   -0.02    0.09
  -3   3 -15    0.23    0.10
   4   2 -15    0.37    0.11
  -4  -2  15    0.48    0.10
   3   2 -15    0.44    0.11
  -3  -2  15    0.43    0.09
   2   2 -15    0.58    0.11
  -2  -2  15    0.47    0.09
   1   2 -15    0.08    0.09
  -1  -2  15   -0.10    0.06
   0   2 -15    1.73    0.16
   0  -2  15    1.68    0.13
  -1   2 -15    0.13    0.09
  -2   2 -15    0.07    0.08
  -3   2 -15    0.56    0.11
   4   1 -15    1.46    0.15
  -4  -1  15    1.66    0.13
  -4  -1  15    1.59    0.14
   3   1 -15    0.46    0.11
  -3  -1  15    0.33    0.08
   2   1 -15    2.25    0.18
  -2  -1  15    2.12    0.15
   1   1 -15    1.73    0.17
  -1  -1  15    1.64    0.14
   0   1 -15    1.82    0.16
   0  -1  15    1.41    0.13
  -1   1 -15    0.73    0.11
  -2   1 -15    0.50    0.10
  -3   1 -15    1.70    0.16
   4   0 -15    1.29    0.15
  -4   0  15    1.23    0.11
  -4   0  15    1.29    0.13
   3   0 -15    1.48    0.15
  -3   0  15    1.25    0.12
   2   0 -15    1.07    0.13
  -2   0  15    1.02    0.11
   1   0 -15    1.99    0.17
  -1   0  15    1.66    0.14
   0   0 -15    4.44    0.23
   0   0  15    4.01    0.20
  -1   0 -15    1.02    0.12
   1   0  15    0.82    0.10
  -2   0 -15    2.46    0.18
   3  -1 -15    1.13    0.14
  -3   1  15    1.20    0.12
   2  -1 -15    0.61    0.11
  -2   1  15    0.53    0.10
   1  -1 -15    1.03    0.13
  -1   1  15    1.28    0.12
   0  -1 -15    0.29    0.10
   0   1  15    0.26    0.08
  -1  -1 -15    3.38    0.21
   1   1  15    2.99    0.18
   2  -2 -15    0.79    0.12
  -2   2  15    0.77    0.10
   1  -2 -15    0.73    0.12
  -1   2  15    0.62    0.10
   0  -2 -15    1.17    0.13
   0   2  15    1.32    0.12
   2   6 -16    0.10    0.10
   1   6 -16   -0.03    0.09
   0   6 -16    0.69    0.12
   2   5 -16    0.91    0.13
  -2  -5  16    0.45    0.09
   1   5 -16    0.29    0.10
   0   5 -16    0.60    0.11
  -1   5 -16    0.54    0.11
   3   4 -16    2.07    0.18
  -3  -4  16    1.62    0.15
   2   4 -16    4.50    0.24
  -2  -4  16    4.04    0.21
   1   4 -16    2.30    0.18
  -1  -4  16    1.92    0.15
   0   4 -16    0.53    0.11
  -1   4 -16    0.12    0.09
  -2   4 -16    0.12    0.10
   3   3 -16    1.95    0.19
  -3  -3  16    2.43    0.16
   2   3 -16   -0.01    0.10
  -2  -3  16    0.06    0.07
   1   3 -16    0.79    0.12
  -1  -3  16    0.71    0.10
   0   3 -16    0.08    0.09
  -1   3 -16    0.10    0.09
  -2   3 -16    0.10    0.09
   3   2 -16    1.78    0.18
  -3  -2  16    1.85    0.15
   2   2 -16    0.30    0.11
  -2  -2  16    0.13    0.07
   1   2 -16    1.21    0.14
  -1  -2  16    0.98    0.11
   0   2 -16   -0.08    0.09
  -1   2 -16   -0.04    0.09
  -2   2 -16    0.35    0.10
   3   1 -16    0.91    0.13
  -3  -1  16    0.97    0.12
   2   1 -16    0.24    0.10
  -2  -1  16    0.22    0.08
   1   1 -16    0.16    0.10
  -1  -1  16    0.04    0.07
   0   1 -16    0.69    0.11
   0  -1  16    0.36    0.08
  -1   1 -16    0.01    0.09
   2   0 -16    0.51    0.12
  -2   0  16    0.48    0.10
   1   0 -16    0.65    0.12
  -1   0  16    0.66    0.10
   0   0 -16    0.29    0.10
   0   0  16    0.19    0.08
   0   0   0    0.00    0.00
;
loop_
_space_group_symop_operation_xyz
'x, y, z'
'-x, -y, -z'
loop_
_atom_site_label
_atom_site_type_symbol
_atom_site_fract_x
_atom_site_fract_y
_atom_site_fract_z
_atom_site_U_iso_or_equiv
_atom_site_adp_type
_atom_site_occupancy
_atom_site_site_symmetry_order
_atom_site_calc_flag
_atom_site_refinement_flags_posn
_atom_site_refinement_flags_adp
_atom_site_refinement_flags_occupancy
_atom_site_disorder_assembly
_atom_site_disorder_group
C1 C 0.0628(4) 0.5909(4) 0.1667(2) 0.0495(7) Uani 1 1 d . . . . .
C2 C 0.1446(4) 0.4646(4) 0.0934(2) 0.0422(6) Uani 1 1 d . . . . .
C3 C 0.0359(4) 0.3213(4) 0.0691(2) 0.0479(7) Uani 1 1 d . . . . .
C4 C 0.3219(4) 0.4808(3) 0.0465(2) 0.0357(5) Uani 1 1 d . . . . .
C5 C 0.4295(4) 0.6258(3) 0.0739(2) 0.0396(6) Uani 1 1 d . . . . .
H5 H 0.3821 0.7103 0.1237 0.047 Uiso 1 1 calc R U . . .
C6 C 0.4006(4) 0.3560(3) -0.0292(2) 0.0392(6) Uani 1 1 d . . . . .
H6 H 0.3346 0.2593 -0.0489 0.047 Uiso 1 1 calc R U . . .
C7 C 0.4188(4) 0.3133(3) 0.6338(2) 0.0361(5) Uani 1 1 d . . . . .
H7 H 0.3060 0.2724 0.6541 0.043 Uiso 1 1 calc R U . . .
C8 C 0.4700(5) 0.4696(3) 0.6750(2) 0.0470(7) Uani 1 1 d . . . . .
H8 H 0.3932 0.5339 0.7237 0.056 Uiso 1 1 calc R U . . .
C9 C 0.6358(5) 0.5287(3) 0.6430(2) 0.0490(7) Uani 1 1 d . . . . .
H9 H 0.6708 0.6339 0.6699 0.059 Uiso 1 1 calc R U . . .
C10 C 0.7505(4) 0.4338(3) 0.5715(2) 0.0419(6) Uani 1 1 d . . . . .
H10 H 0.8623 0.4734 0.5492 0.050 Uiso 1 1 calc R U . . .
C11 C 0.6948(3) 0.2768(3) 0.53321(19) 0.0309(5) Uani 1 1 d . . . . .
C12 C 0.7934(3) 0.1464(3) 0.4539(2) 0.0318(5) Uani 1 1 d . . . . .
C13 C 0.6633(3) 0.1120(3) 0.34610(19) 0.0307(5) Uani 1 1 d . . . . .
C14 C 0.7017(4) 0.1423(3) 0.2482(2) 0.0405(6) Uani 1 1 d . . . . .
H14 H 0.8222 0.1860 0.2400 0.049 Uiso 1 1 calc R U . . .
C15 C 0.5549(5) 0.1056(3) 0.1613(2) 0.0473(7) Uani 1 1 d . . . . .
H15 H 0.5766 0.1251 0.0942 0.057 Uiso 1 1 calc R U . . .
C16 C 0.3782(5) 0.0406(3) 0.1752(2) 0.0448(6) Uani 1 1 d . . . . .
H16 H 0.2788 0.0182 0.1182 0.054 Uiso 1 1 calc R U . . .
C17 C 0.3495(4) 0.0087(3) 0.2749(2) 0.0341(5) Uani 1 1 d . . . . .
H17 H 0.2311 -0.0370 0.2843 0.041 Uiso 1 1 calc R U . . .
Co1 Co 0.5000 0.0000 0.5000 0.02453(16) Uani 1 2 d S . P . .
N1 N -0.0021(4) 0.6945(4) 0.2267(2) 0.0663(8) Uani 1 1 d . . . . .
N2 N -0.0519(4) 0.2043(4) 0.0481(3) 0.0669(8) Uani 1 1 d . . . . .
N3 N 0.5314(3) 0.2203(2) 0.56445(15) 0.0281(4) Uani 1 1 d . . . . .
N4 N 0.4917(3) 0.0437(2) 0.35808(15) 0.0280(4) Uani 1 1 d . . . . .
O1 O 0.7733(2) 0.01420(18) 0.49409(14) 0.0308(4) Uani 1 1 d . . . . .
O2 O 0.9850(2) 0.1865(2) 0.44204(18) 0.0446(5) Uani 1 1 d . . . . .
H2 H 1.0591 0.1256 0.4621 0.067 Uiso 1 1 calc R U . . .
loop_
_atom_site_aniso_label
_atom_site_aniso_U_11
_atom_site_aniso_U_22
_atom_site_aniso_U_33
_atom_site_aniso_U_23
_atom_site_aniso_U_13
_atom_site_aniso_U_12
C1 0.0324(13) 0.078(2) 0.0395(15) 0.0174(15) 0.0019(11) 0.0004(14)
C2 0.0304(13) 0.0591(17) 0.0370(13) 0.0135(12) -0.0004(10) -0.0003(12)
C3 0.0374(14) 0.066(2) 0.0464(16) 0.0260(14) 0.0046(12) -0.0008(14)
C4 0.0302(12) 0.0446(14) 0.0319(12) 0.0112(10) -0.0038(9) 0.0009(10)
C5 0.0354(13) 0.0412(14) 0.0379(13) 0.0029(11) 0.0015(10) 0.0039(11)
C6 0.0348(13) 0.0414(14) 0.0402(14) 0.0101(11) -0.0016(10) -0.0016(11)
C7 0.0385(13) 0.0376(13) 0.0324(12) 0.0086(10) 0.0043(10) 0.0072(10)
C8 0.0642(18) 0.0350(14) 0.0406(14) 0.0067(11) 0.0051(13) 0.0115(13)
C9 0.0678(19) 0.0266(13) 0.0473(15) 0.0041(11) -0.0086(14) -0.0025(12)
C10 0.0411(14) 0.0393(14) 0.0459(15) 0.0163(12) -0.0080(11) -0.0121(11)
C11 0.0279(11) 0.0332(12) 0.0333(12) 0.0142(10) -0.0053(9) -0.0018(9)
C12 0.0223(11) 0.0352(12) 0.0429(13) 0.0187(10) 0.0053(9) 0.0012(9)
C13 0.0308(11) 0.0283(11) 0.0366(12) 0.0123(9) 0.0105(10) 0.0077(9)
C14 0.0454(14) 0.0396(14) 0.0412(14) 0.0153(11) 0.0149(11) 0.0041(11)
C15 0.0660(18) 0.0483(16) 0.0319(13) 0.0157(12) 0.0110(12) 0.0049(14)
C16 0.0604(17) 0.0403(14) 0.0308(13) 0.0068(11) -0.0065(12) 0.0037(12)
C17 0.0378(13) 0.0278(11) 0.0343(12) 0.0049(9) -0.0022(10) 0.0004(10)
Co1 0.0200(2) 0.0265(2) 0.0288(2) 0.00977(17) 0.00363(16) 0.00159(16)
N1 0.0517(15) 0.089(2) 0.0526(16) 0.0055(15) 0.0134(13) 0.0123(15)
N2 0.0594(17) 0.073(2) 0.0744(19) 0.0302(16) 0.0111(14) -0.0152(15)
N3 0.0273(9) 0.0289(9) 0.0291(9) 0.0099(7) 0.0003(7) 0.0008(7)
N4 0.0270(9) 0.0262(9) 0.0311(9) 0.0079(7) 0.0031(7) 0.0032(7)
O1 0.0220(7) 0.0339(9) 0.0418(9) 0.0187(7) 0.0052(7) 0.0032(6)
O2 0.0231(8) 0.0532(11) 0.0695(13) 0.0361(10) 0.0085(8) 0.0016(8)
loop_
_atom_type_symbol
_atom_type_description
_atom_type_scat_dispersion_real
_atom_type_scat_dispersion_imag
_atom_type_scat_source
C C 0.0033 0.0016 'International Tables Vol C Tables 4.2.6.8 and 6.1.1.4'
H H 0.0000 0.0000 'International Tables Vol C Tables 4.2.6.8 and 6.1.1.4'
Co Co 0.3494 0.9721 'International Tables Vol C Tables 4.2.6.8 and 6.1.1.4'
N N 0.0061 0.0033 'International Tables Vol C Tables 4.2.6.8 and 6.1.1.4'
O O 0.0106 0.0060 'International Tables Vol C Tables 4.2.6.8 and 6.1.1.4'
loop_
_geom_angle_atom_site_label_1
_geom_angle_atom_site_label_2
_geom_angle_atom_site_label_3
_geom_angle
_geom_angle_site_symmetry_1
_geom_angle_site_symmetry_3
N1 C1 C2 179.3(3) . .
C4 C2 C3 122.1(3) . .
C4 C2 C1 122.3(3) . .
C3 C2 C1 115.6(2) . .
N2 C3 C2 179.2(3) . .
C2 C4 C6 122.3(2) . .
C2 C4 C5 120.8(2) . .
C6 C4 C5 116.9(2) . .
C6 C5 C4 121.7(2) 2_665 .
C6 C5 H5 119.1 2_665 .
C4 C5 H5 119.1 . .
C5 C6 C4 121.4(3) 2_665 .
C5 C6 H6 119.3 2_665 .
C4 C6 H6 119.3 . .
N3 C7 C8 120.3(2) . .
N3 C7 H7 119.9 . .
C8 C7 H7 119.9 . .
C9 C8 C7 119.1(3) . .
C9 C8 H8 120.4 . .
C7 C8 H8 120.4 . .
C10 C9 C8 120.6(3) . .
C10 C9 H9 119.7 . .
C8 C9 H9 119.7 . .
C9 C10 C11 118.3(2) . .
C9 C10 H10 120.9 . .
C11 C10 H10 120.9 . .
N3 C11 C10 120.7(2) . .
N3 C11 C12 110.02(19) . .
C10 C11 C12 129.3(2) . .
O2 C12 O1 114.23(18) . .
O2 C12 C13 112.77(19) . .
O1 C12 C13 105.57(19) . .
O2 C12 C11 112.3(2) . .
O1 C12 C11 105.76(18) . .
C13 C12 C11 105.55(18) . .
N4 C13 C14 121.6(2) . .
N4 C13 C12 109.70(19) . .
C14 C13 C12 128.7(2) . .
C13 C14 C15 118.2(2) . .
C13 C14 H14 120.9 . .
C15 C14 H14 120.9 . .
C16 C15 C14 119.9(2) . .
C16 C15 H15 120.1 . .
C14 C15 H15 120.1 . .
C15 C16 C17 119.5(3) . .
C15 C16 H16 120.3 . .
C17 C16 H16 120.3 . .
N4 C17 C16 120.4(2) . .
N4 C17 H17 119.8 . .
C16 C17 H17 119.8 . .
O1 Co1 O1 180.0 2_656 .
O1 Co1 N3 83.36(7) 2_656 2_656
O1 Co1 N3 96.64(7) . 2_656
O1 Co1 N3 96.64(7) 2_656 .
O1 Co1 N3 83.36(7) . .
N3 Co1 N3 180.0 2_656 .
O1 Co1 N4 96.33(7) 2_656 .
O1 Co1 N4 83.67(7) . .
N3 Co1 N4 92.13(8) 2_656 .
N3 Co1 N4 87.87(8) . .
O1 Co1 N4 83.67(7) 2_656 2_656
O1 Co1 N4 96.33(7) . 2_656
N3 Co1 N4 87.87(8) 2_656 2_656
N3 Co1 N4 92.13(8) . 2_656
N4 Co1 N4 180.0 . 2_656
C7 N3 C11 121.0(2) . .
C7 N3 Co1 128.77(17) . .
C11 N3 Co1 110.16(15) . .
C17 N4 C13 120.4(2) . .
C17 N4 Co1 129.35(16) . .
C13 N4 Co1 110.14(15) . .
C12 O1 Co1 101.44(12) . .
C12 O2 H2 109.5 . .
loop_
_geom_bond_atom_site_label_1
_geom_bond_atom_site_label_2
_geom_bond_distance
_geom_bond_site_symmetry_2
C1 N1 1.154(4) .
C1 C2 1.416(4) .
C2 C4 1.412(3) .
C2 C3 1.416(4) .
C3 N2 1.152(4) .
C4 C6 1.414(4) .
C4 C5 1.423(4) .
C5 C6 1.357(4) 2_665
C5 H5 0.9300 .
C6 C5 1.357(4) 2_665
C6 H6 0.9300 .
C7 N3 1.343(3) .
C7 C8 1.383(4) .
C7 H7 0.9300 .
C8 C9 1.375(4) .
C8 H8 0.9300 .
C9 C10 1.375(4) .
C9 H9 0.9300 .
C10 C11 1.392(4) .
C10 H10 0.9300 .
C11 N3 1.346(3) .
C11 C12 1.532(3) .
C12 O2 1.383(3) .
C12 O1 1.402(3) .
C12 C13 1.525(3) .
C13 N4 1.350(3) .
C13 C14 1.375(3) .
C14 C15 1.396(4) .
C14 H14 0.9300 .
C15 C16 1.374(4) .
C15 H15 0.9300 .
C16 C17 1.388(4) .
C16 H16 0.9300 .
C17 N4 1.345(3) .
C17 H17 0.9300 .
Co1 O1 1.8809(15) 2_656
Co1 O1 1.8810(15) .
Co1 N3 1.9219(19) 2_656
Co1 N3 1.9219(19) .
Co1 N4 1.9253(19) .
Co1 N4 1.9253(19) 2_656
O2 H2 0.8200 .
loop_
_geom_hbond_atom_site_label_D
_geom_hbond_atom_site_label_H
_geom_hbond_atom_site_label_A
_geom_hbond_distance_DH
_geom_hbond_distance_HA
_geom_hbond_distance_DA
_geom_hbond_angle_DHA
_geom_hbond_site_symmetry_A
O2 H2 O1 0.82 1.86 2.680(2) 179.3 2_756
