#------------------------------------------------------------------------------
#$Date: 2022-05-10 10:53:54 +0300 (Tue, 10 May 2022) $
#$Revision: 275290 $
#$URL: file:///home/coder/svn-repositories/cod/cif/8/10/51/8105196.cif $
#------------------------------------------------------------------------------
#
# This file is available in the Crystallography Open Database (COD),
# http://www.crystallography.net/
#
# All data on this site have been placed in the public domain by the
# contributors.
#
data_8105196
loop_
_publ_author_name
'Chen, Jie'
'Zhu, Hengmei'
'Cai, Zhigang'
'Hu, Jing'
'Shen, Lili'
'Zhang, Yali'
'Xu, Xiaoping'
_publ_section_title
;
 The crystal structure of
 5,6-dichloro-2-(quinolin-8-yl)isoindoline-1,3-dione, C17H8Cl2N2O2
;
_journal_issue                   2
_journal_name_full
'Zeitschrift f\"ur Kristallographie - New Crystal Structures'
_journal_page_first              255
_journal_page_last               256
_journal_paper_doi               10.1515/ncrs-2021-0454
_journal_volume                  237
_journal_year                    2022
_chemical_formula_moiety         'C17 H8 Cl2 N2 O2'
_chemical_formula_sum            'C17 H8 Cl2 N2 O2'
_chemical_formula_weight         343.15
_space_group_crystal_system      triclinic
_space_group_IT_number           2
_space_group_name_Hall           '-P 1'
_space_group_name_H-M_alt        'P -1'
_atom_sites_solution_hydrogens   geom
_cell_angle_alpha                85.2310(10)
_cell_angle_beta                 85.0270(10)
_cell_angle_gamma                71.013(2)
_cell_formula_units_Z            2
_cell_length_a                   7.9032(2)
_cell_length_b                   9.0843(3)
_cell_length_c                   10.8051(2)
_cell_measurement_reflns_used    3652
_cell_measurement_temperature    293(2)
_cell_measurement_theta_max      73.2970
_cell_measurement_theta_min      5.1320
_cell_volume                     729.54(3)
_computing_cell_refinement
'CrysAlisPro 1.171.38.46 (Rigaku OD, 2015) [1]'
_computing_data_collection
'CrysAlisPro 1.171.38.46 (Rigaku OD, 2015) [1]'
_computing_data_reduction
'CrysAlisPro 1.171.38.46 (Rigaku OD, 2015) [1]'
_computing_molecular_graphics    'Olex2 (Dolomanov et al., 2009) [2]'
_computing_publication_material  'Olex2 (Dolomanov et al., 2009) [2]'
_computing_structure_refinement  'ShelXL (Sheldrick, 2015) [3]'
_computing_structure_solution    'SHELXT 2018/2 (Sheldrick, 2018) [4]'
_diffrn_ambient_temperature      293(2)
_diffrn_detector                 'CCD plate'
_diffrn_detector_area_resol_mean 5.3031
_diffrn_detector_type            AtlasS2
_diffrn_measured_fraction_theta_full 1.000
_diffrn_measured_fraction_theta_max 1.000
_diffrn_measurement_details
;
List of Runs (angles in degrees, time in seconds):

  # Type    Start    End  Width  t~exp~   \w     \q     \k     \f   Frames
--------------------------------------------------------------------------
  1  \w    -63.00  33.00   1.00    1.50    --  -40.55  38.00   0.00   96
  2  \w    -61.00  32.00   1.00    1.50    --  -40.55  57.00-150.00   93
  3  \w     48.00  80.00   1.00    1.50    --   40.55 -99.00 -30.00   32
  4  \w     31.00  58.00   1.00    1.50    --   40.55-125.00 -90.00   27
  5  \w     68.00 135.00   1.00    4.00    --  107.14 -61.00 -90.00   67
  6  \w     96.00 126.00   1.00    4.00    --  107.14 -30.00-180.00   30
  7  \w     47.00  74.00   1.00    4.00    --  107.14 -30.00-180.00   27
  8  \w     36.00  77.00   1.00    4.00    --  107.14 -95.00 -60.00   41
  9  \w     72.00 107.00   1.00    4.00    --  107.14 -95.00   0.00   35
 10  \w     41.00  71.00   1.00    4.00    --  107.14-125.00-120.00   30
 11  \w     35.00 120.00   1.00    4.00    --  107.14-125.00 -90.00   85
 12  \w     41.00 128.00   1.00    4.00    --  107.14 -30.00  30.00   87
 13  \w     84.00 178.00   1.00    4.00    --  107.14  30.00   0.00   94
 14  \w     90.00 176.00   1.00    4.00    --  107.14  45.00  60.00   86
 15  \w     36.00 129.00   1.00    4.00    --  107.14 -77.00  60.00   93
 16  \w   -110.00 -14.00   1.00    1.50    --  -40.55 -57.00  60.00   96
;
_diffrn_measurement_device       'four-circle diffractometer'
_diffrn_measurement_device_type  'SuperNova, Dual, Cu at zero, AtlasS2'
_diffrn_measurement_method       '\w scans'
_diffrn_orient_matrix_type
'CrysAlisPro convention (1999,Acta A55,543-557)'
_diffrn_orient_matrix_UB_11      -0.1986114000
_diffrn_orient_matrix_UB_12      0.0545748000
_diffrn_orient_matrix_UB_13      0.0484014000
_diffrn_orient_matrix_UB_21      -0.0153671000
_diffrn_orient_matrix_UB_22      -0.1586885000
_diffrn_orient_matrix_UB_23      -0.0262435000
_diffrn_orient_matrix_UB_31      0.0555142000
_diffrn_orient_matrix_UB_32      -0.0628685000
_diffrn_orient_matrix_UB_33      0.1324467000
_diffrn_radiation_monochromator  mirror
_diffrn_radiation_probe          x-ray
_diffrn_radiation_type           CuK\a
_diffrn_radiation_wavelength     1.54184
_diffrn_reflns_av_R_equivalents  0.0152
_diffrn_reflns_av_unetI/netI     0.0171
_diffrn_reflns_Laue_measured_fraction_full 1.000
_diffrn_reflns_Laue_measured_fraction_max 1.000
_diffrn_reflns_limit_h_max       9
_diffrn_reflns_limit_h_min       -7
_diffrn_reflns_limit_k_max       10
_diffrn_reflns_limit_k_min       -10
_diffrn_reflns_limit_l_max       12
_diffrn_reflns_limit_l_min       -11
_diffrn_reflns_number            4172
_diffrn_reflns_point_group_measured_fraction_full 1.000
_diffrn_reflns_point_group_measured_fraction_max 1.000
_diffrn_reflns_theta_full        66.597
_diffrn_reflns_theta_max         66.597
_diffrn_reflns_theta_min         4.114
_diffrn_source                   'micro-focus sealed X-ray tube'
_diffrn_source_type              'SuperNova (Cu) X-ray Source'
_exptl_absorpt_coefficient_mu    4.103
_exptl_absorpt_correction_T_max  1.00000
_exptl_absorpt_correction_T_min  0.78340
_exptl_absorpt_correction_type   multi-scan
_exptl_absorpt_process_details
;
CrysAlisPro 1.171.38.46 (Rigaku Oxford Diffraction, 2015)
Empirical absorption correction using spherical harmonics,
 implemented in SCALE3 ABSPACK scaling algorithm.
;
_exptl_crystal_colour            colourless
_exptl_crystal_colour_primary    colourless
_exptl_crystal_density_diffrn    1.562
_exptl_crystal_description       block
_exptl_crystal_F_000             348
_exptl_crystal_size_max          0.22
_exptl_crystal_size_mid          0.13
_exptl_crystal_size_min          0.11
_refine_diff_density_max         0.343
_refine_diff_density_min         -0.611
_refine_diff_density_rms         0.132
_refine_ls_extinction_coef       .
_refine_ls_extinction_method     none
_refine_ls_goodness_of_fit_ref   1.095
_refine_ls_hydrogen_treatment    constr
_refine_ls_matrix_type           full
_refine_ls_number_parameters     208
_refine_ls_number_reflns         2584
_refine_ls_number_restraints     0
_refine_ls_restrained_S_all      1.095
_refine_ls_R_factor_all          0.0425
_refine_ls_R_factor_gt           0.0417
_refine_ls_shift/su_max          0.001
_refine_ls_shift/su_mean         0.000
_refine_ls_structure_factor_coef Fsqd
_refine_ls_weighting_details
'w=1/[\s^2^(Fo^2^)+(0.0703P)^2^+0.1526P] where P=(Fo^2^+2Fc^2^)/3'
_refine_ls_weighting_scheme      calc
_refine_ls_wR_factor_gt          0.1043
_refine_ls_wR_factor_ref         0.1051
_reflns_Friedel_coverage         0.000
_reflns_Friedel_fraction_full    .
_reflns_Friedel_fraction_max     .
_reflns_number_gt                2489
_reflns_number_total             2584
_reflns_threshold_expression     'I > 2\s(I)'
_cod_data_source_file            suppl_j_ncrs-2021-0454_suppl.cif
_cod_data_source_block           1
_cod_database_code               8105196
_chemical_oxdiff_formula         'C H O N Cl'
_shelx_space_group_comment
;
The symmetry employed for this shelxl refinement is uniquely defined
by the following loop, which should always be used as a source of
symmetry information in preference to the above space-group names.
They are only intended as comments.
;
_shelx_estimated_absorpt_t_max   0.661
_shelx_estimated_absorpt_t_min   0.465
_reflns_odcompleteness_completeness 99.96
_reflns_odcompleteness_iscentric 1
_reflns_odcompleteness_theta     66.97
_olex2_refinement_description
;
1. Fixed Uiso
 At 1.2 times of:
  All C(H) groups
2.a Aromatic/amide H refined with riding coordinates:
 C7(H7), C11(H11), C12(H12), C13(H13), C14(H14), C15(H15), C16(H16), C17(H17)
;
_shelx_res_file
;
TITL 1.res in P-1
    1.res
    created by SHELXL-2018/3 at 15:30:12 on 10-Nov-2021
CELL 1.54184 7.9032 9.0843 10.8051 85.231 85.027 71.013
ZERR 2 0.0002 0.0003 0.0002 0.001 0.001 0.002
LATT 1
SFAC C H Cl N O
UNIT 34 16 4 4 4

L.S. 20
PLAN  20
SIZE 0.22 0.13 0.11
BOND
list 4
fmap 2 53
acta
SHEL 100 0.84
REM <olex2.extras>
REM <HklSrc "%.\\1.hkl">
REM </olex2.extras>

WGHT    0.070300    0.152600
FVAR       0.89703
CL1   3    0.069287    1.201537    0.469032    11.00000    0.03592    0.02899 =
         0.04853   -0.00968    0.00278    0.00015
CL2   3    0.166365    0.992514    0.714993    11.00000    0.05437    0.05148 =
         0.03214   -0.01578    0.01325   -0.00507
O1    5    0.731788    0.491583    0.500494    11.00000    0.04146    0.03202 =
         0.03498    0.00005   -0.00242   -0.00112
O2    5    0.589518    0.798903    0.141374    11.00000    0.05040    0.04724 =
         0.02386   -0.00170    0.00347   -0.00122
N1    4    0.698743    0.618060    0.304145    11.00000    0.03085    0.03040 =
         0.02495   -0.00779    0.00160   -0.00028
N2    4    0.666616    0.413833    0.134161    11.00000    0.03078    0.03959 =
         0.03617   -0.00600   -0.00058   -0.00911
C1    1    0.457600    0.832742    0.353299    11.00000    0.02876    0.02858 =
         0.02465   -0.00533    0.00130   -0.00707
C2    1    0.834416    0.415904    0.153964    11.00000    0.02868    0.02691 =
         0.02407   -0.00107    0.00140   -0.00428
C3    1    0.854405    0.517911    0.239596    11.00000    0.02985    0.03058 =
         0.02370   -0.00460    0.00243   -0.00254
C4    1    0.582759    0.755039    0.249670    11.00000    0.03143    0.03188 =
         0.02546   -0.00551   -0.00006   -0.00462
C5    1    0.501234    0.740736    0.462036    11.00000    0.02834    0.02523 =
         0.02630   -0.00521    0.00053   -0.00760
C6    1    0.992129    0.320783    0.090982    11.00000    0.03383    0.02882 =
         0.02271   -0.00210    0.00402   -0.00480
C7    1    0.324091    0.974358    0.352385    11.00000    0.03217    0.02902 =
         0.02781   -0.00169    0.00039   -0.00573
AFIX  43
H7    2    0.294675    1.035203    0.278932    11.00000   -1.20000
AFIX   0
C8    1    0.655689    0.599930    0.432017    11.00000    0.02885    0.02702 =
         0.02667   -0.00592   -0.00047   -0.00738
C9    1    0.234605    1.023108    0.465861    11.00000    0.02657    0.02607 =
         0.03557   -0.00828    0.00120   -0.00676
C10   1    0.278292    0.929876    0.575361    11.00000    0.03102    0.03360 =
         0.02840   -0.01028    0.00476   -0.01117
C11   1    0.412612    0.785820    0.574770    11.00000    0.03432    0.03207 =
         0.02559   -0.00383    0.00160   -0.00915
AFIX  43
H11   2    0.441158    0.722873    0.647340    11.00000   -1.20000
AFIX   0
C12   1    1.161694    0.329301    0.115577    11.00000    0.02876    0.03936 =
         0.03247   -0.00262    0.00690   -0.00198
AFIX  43
H12   2    1.264843    0.266228    0.074564    11.00000   -1.20000
AFIX   0
C13   1    1.019532    0.524718    0.261315    11.00000    0.03552    0.03874 =
         0.03157   -0.00770   -0.00271   -0.00808
AFIX  43
H13   2    1.029106    0.593032    0.317801    11.00000   -1.20000
AFIX   0
C14   1    1.175021    0.429150    0.198847    11.00000    0.02812    0.04855 =
         0.03603   -0.00455   -0.00129   -0.00864
AFIX  43
H14   2    1.286909    0.434098    0.214366    11.00000   -1.20000
AFIX   0
C15   1    0.971666    0.222302    0.003243    11.00000    0.04673    0.03453 =
         0.03190   -0.01031    0.00707   -0.00571
AFIX  43
H15   2    1.071413    0.157799   -0.040071    11.00000   -1.20000
AFIX   0
C16   1    0.656195    0.320257    0.050225    11.00000    0.04130    0.04838 =
         0.04103   -0.00851   -0.00382   -0.01782
AFIX  43
H16   2    0.542836    0.318805    0.034729    11.00000   -1.20000
AFIX   0
C17   1    0.803631    0.222925   -0.017236    11.00000    0.05667    0.04335 =
         0.03827   -0.01381   -0.00150   -0.01866
AFIX  43
H17   2    0.787143    0.159521   -0.075263    11.00000   -1.20000
AFIX   0
HKLF 4




REM  1.res in P-1
REM wR2 = 0.1051, GooF = S = 1.095, Restrained GooF = 1.095 for all data
REM R1 = 0.0417 for 2489 Fo > 4sig(Fo) and 0.0425 for all 2584 data
REM 208 parameters refined using 0 restraints

END

WGHT      0.0703      0.1526

REM Highest difference peak  0.343,  deepest hole -0.611,  1-sigma level  0.132
Q1    1  -0.1339  1.1608  0.5983  11.00000  0.05    0.34
Q2    1   0.0457  0.9640  0.4484  11.00000  0.05    0.34
Q3    1   0.0167  1.0153  0.5064  11.00000  0.05    0.33
Q4    1   0.2517  0.7906  0.3562  11.00000  0.05    0.29
Q5    1   1.0731  0.4590  0.4545  11.00000  0.05    0.26
Q6    1   1.1236  0.4152  0.3652  11.00000  0.05    0.26
Q7    1   1.0947  0.4316  0.3831  11.00000  0.05    0.26
Q8    1   0.4067  0.3949 -0.0766  11.00000  0.05    0.25
Q9    1   0.9887  0.5227  0.4034  11.00000  0.05    0.25
Q10   1   0.3663  1.2175  0.2796  11.00000  0.05    0.25
Q11   1   1.0792  0.4633  0.4037  11.00000  0.05    0.25
Q12   1   1.2467  0.2840  0.3205  11.00000  0.05    0.24
Q13   1   1.0553  0.1332  0.1600  11.00000  0.05    0.24
Q14   1   0.1093  1.0819  0.1726  11.00000  0.05    0.24
Q15   1   0.3919  1.1547  0.2035  11.00000  0.05    0.24
Q16   1   0.8238  0.7652  0.3073  11.00000  0.05    0.24
Q17   1   0.7326 -0.0015 -0.0258  11.00000  0.05    0.23
Q18   1   0.2244  1.1986  0.6146  11.00000  0.05    0.23
Q19   1   0.5062  0.1732  0.1428  11.00000  0.05    0.23
Q20   1   0.4836  0.8701  0.7845  11.00000  0.05    0.23
;
_shelx_hkl_file
;
   0   0   1  951.67    3.25
   0   0   1  947.89    2.28
   0   0   2  415.43    2.06
   0   0  -2  414.51    2.13
   0   0   2  419.89    3.14
   0   0  -3  521.68    2.92
   0   0   3  528.10    4.36
   0   0  -4 1015.17    4.55
   0   0   4 1021.87    7.19
   0   0   5 1099.44    8.51
   0   0   6   39.36    1.81
   0   0   7  600.89    9.20
   0   0   8   72.36    2.11
   0   0   8   70.77    3.51
   0   0   8   70.41    2.04
   0   0   9    0.86    0.29
   0   0   9    1.58    0.65
   0   0   9    0.93    0.35
   0   0  10   30.93    1.49
   0   0  10   31.91    1.47
   0   0  11   34.97    1.35
   0   0  11   38.28    1.52
   0   0  12   13.05    0.81
   0  -1  12   55.06    1.65
   0  -1  11  243.63    4.13
   0  -1  11  241.32    3.84
   0  -1  10   21.16    1.23
   0  -1  10   20.89    1.07
   0  -1   9   49.79    1.86
   0  -1   9   49.69    1.70
   0  -1   9   49.78    1.84
   0  -1   8  210.87    3.63
   0  -1   8  215.02    6.23
   0  -1   8  221.99    3.71
   0  -1   7  264.35    6.48
   0  -1   6   66.76    2.91
   0  -1   5  144.22    3.79
   0  -1   5  137.60    2.53
   0  -1   4  159.96    2.30
   0   1  -4  152.82    2.57
   0   1  -3 3682.86   11.34
   0  -1   3 3672.26    8.84
   0  -1   2  585.27    4.03
   0  -1   2  572.66    2.33
   0  -1   1 1269.60    5.50
   0  -1   0  108.01    1.43
   0   1   0  120.35    1.24
   0   1   1  889.75    3.18
   0   1   1  874.66    4.65
   0   1   2  115.88    2.06
   0   1   3    6.90    0.60
   0   1   4  260.80    4.16
   0   1   5  350.89    5.42
   0   1   6   61.24    2.50
   0   1   7   56.57    2.67
   0   1   8    5.79    0.61
   0   1   8    7.01    0.63
   0   1   9    3.10    0.50
   0   1   9    2.36    0.39
   0   1  10   27.42    1.38
   0   1  10   28.51    1.34
   0   1  11   39.58    1.46
   0   1  11   37.37    1.56
   0   1  12   35.42    1.20
   0  -2  12    3.64    0.43
   0  -2  11    0.60    0.29
   0  -2  11    0.74    0.32
   0  -2  10   14.77    1.11
   0  -2  10   15.61    1.08
   0  -2   9  469.69    5.76
   0  -2   8    3.60    0.87
   0  -2   8    4.01    0.53
   0  -2   7  107.87    4.19
   0  -2   6  364.26    7.03
   0   2  -5  303.50    4.75
   0  -2   5  323.82    5.99
   0   2  -4    8.06    0.72
   0  -2   4    6.37    0.77
   0  -2   3   49.00    1.89
   0   2  -3   42.54    1.54
   0  -2   2 7790.07   19.27
   0   2  -2 7799.47   19.33
   0   2  -1 1614.26    4.59
   0  -2   1 1617.51    8.14
   0   2   0    1.44    0.20
   0  -2   0    5.92    0.47
   0   2   1  168.68    2.53
   0   2   1  161.93    2.19
   0   2   2   18.66    0.68
   0   2   2   20.38    1.02
   0   2   3  256.00    1.69
   0   2   3  266.47    4.22
   0   2   4  660.28    7.50
   0   2   5 2158.12   14.88
   0   2   6  121.94    3.91
   0   2   7   28.20    2.05
   0   2   8    1.83    0.36
   0   2   8    1.75    0.59
   0   2   9   91.98    2.56
   0   2  10   87.27    2.45
   0   2  11    6.26    0.66
   0   2  12    1.06    0.23
   0  -3  12   67.11    1.61
   0  -3  11   21.16    1.16
   0  -3  10   67.67    2.13
   0  -3  10   66.51    2.29
   0  -3   9    4.01    0.61
   0  -3   9    4.40    0.60
   0  -3   8   27.48    1.39
   0  -3   8   28.97    1.43
   0  -3   8   27.87    1.53
   0  -3   7   47.27    1.79
   0  -3   7   48.34    1.75
   0   3  -6  170.55    4.31
   0   3  -5  595.11    7.69
   0   3  -4  688.09    7.89
   0   3  -3  575.01    6.69
   0   3  -2   43.97    1.78
   0   3  -1  884.43    7.49
   0   3  -1  863.14    4.64
   0   3   0   21.40    1.10
   0   3   0   21.76    0.94
   0   3   1   20.72    1.01
   0   3   1   20.15    1.04
   0   3   2 2462.60   12.94
   0   3   2 2442.28   10.57
   0   3   3 1268.63    6.62
   0   3   3 1241.52   10.28
   0   3   4    8.04    0.94
   0   3   5   47.73    2.46
   0   3   6  205.31    5.54
   0   3   7  286.05    7.07
   0   3   7  302.37    4.24
   0   3   8  657.95    6.52
   0   3   8  632.01   11.08
   0   3   9  168.96    3.40
   0   3  10   47.69    1.80
   0   3  11   43.68    1.58
   0   3  12   70.45    1.71
   0   3  12   68.10    1.66
   0  -4  12   10.52    0.54
   0  -4  11    4.37    0.49
   0  -4  10   10.33    0.89
   0  -4   9   64.77    2.09
   0  -4   9   64.41    2.09
   0  -4   9   65.24    2.39
   0  -4   8  276.70    4.63
   0  -4   8  283.62    4.41
   0  -4   8  286.14    4.98
   0  -4   7   98.68    2.77
   0  -4   7  104.17    2.92
   0  -4   7   98.12    2.56
   0  -4   6   10.16    0.88
   0  -4   6    9.80    0.84
   0   4  -6    7.41    1.02
   0  -4   6    8.43    0.72
   0   4  -5   61.96    2.82
   0   4  -4 2875.22   18.53
   0   4  -3    0.55    0.32
   0   4  -2  100.31    3.12
   0   4  -1  103.58    3.01
   0   4   0 1882.65   12.30
   0   4   0 1836.76    9.94
   0   4   1 1154.68    9.06
   0   4   1 1161.38    9.30
   0   4   2    4.97    0.59
   0   4   2    4.72    0.66
   0   4   3   14.79    1.26
   0   4   3   15.44    0.93
   0   4   4  317.27    6.35
   0   4   5  185.09    5.29
   0   4   6   22.69    2.01
   0   4   7  360.02    8.59
   0   4   7  367.71    4.90
   0   4   8   11.04    0.88
   0   4   9    4.82    0.61
   0   4   9    5.17    0.57
   0   4  10   41.70    1.63
   0   4  11  177.93    2.95
   0   4  12   46.60    1.24
   0  -5  10    7.50    0.67
   0  -5  10    7.13    0.56
   0  -5   9   22.62    1.21
   0  -5   9   23.52    1.36
   0  -5   8    0.30    0.29
   0  -5   8    0.45    0.39
   0  -5   7  617.05    7.22
   0  -5   7  611.01    7.35
   0  -5   6   93.69    2.39
   0  -5   6   97.57    2.87
   0  -5   6   93.50    2.78
   0   5  -5  102.99    4.06
   0  -5   5  113.39    2.98
   0  -5   5  108.69    2.85
   0  -5   4   20.46    1.19
   0   5  -4   20.01    1.75
   0   5  -3    0.53    0.37
   0   5  -2   75.31    3.16
   0   5  -1  162.57    4.48
   0   5   0 2057.22   15.27
   0   5   1  313.23    5.27
   0   5   1  323.18    5.79
   0   5   2   49.20    2.17
   0   5   2   49.24    2.33
   0   5   3    9.87    1.15
   0   5   4   93.15    3.77
   0   5   5    1.88    0.60
   0   5   5    2.60    0.42
   0   5   6  352.13    4.92
   0   5   6  365.49    8.63
   0   5   7  302.12    8.17
   0   5   7  296.72    4.60
   0   5   8   92.71    2.50
   0   5   9   51.67    1.76
   0   5   9   51.11    1.81
   0   5  10    1.23    0.28
   0   5  10    0.73    0.26
   0   5  11   24.83    0.98
   0   5  12   80.80    1.47
   0  -6  10    4.17    0.36
   0  -6   9    0.19    0.18
   0  -6   9   -0.01    0.19
   0  -6   8    0.48    0.30
   0  -6   8    0.17    0.27
   0  -6   7   23.17    1.42
   0  -6   7   23.71    1.45
   0  -6   6   87.39    2.79
   0  -6   6   82.26    2.67
   0  -6   5    1.02    0.36
   0  -6   5    1.50    0.38
   0   6  -4   40.41    2.74
   0  -6   4   41.67    1.80
   0  -6   4   39.55    1.68
   0  -6   4   41.80    1.84
   0  -6   3   56.90    2.01
   0  -6   3   58.62    2.09
   0  -6   2  144.68    3.14
   0   6  -2  160.28    5.15
   0   6  -1   46.58    2.70
   0   6   0  171.37    5.01
   0   6   1   34.46    2.19
   0   6   2   65.79    2.89
   0   6   2   56.88    2.68
   0   6   3   31.50    2.20
   0  -6  -3   28.56    1.37
   0   6   3   29.77    1.38
   0   6   4  513.05    9.47
   0   6   4  540.82    6.01
   0   6   5 1620.00   17.96
   0   6   5 1606.86   10.78
   0   6   6  170.69    3.57
   0   6   7  159.14    3.47
   0   6   8  135.59    3.06
   0   6   8  130.71    2.83
   0   6   9  263.68    3.91
   0   6   9  266.09    3.78
   0   6  10  148.26    2.45
   0   6  10  154.54    2.57
   0   6  11    9.23    0.47
   0  -7   9   32.37    1.08
   0  -7   8   43.41    1.57
   0  -7   7   27.10    1.41
   0  -7   6  103.92    2.97
   0  -7   5  191.84    3.60
   0  -7   5  185.57    4.04
   0  -7   4  100.15    2.95
   0  -7   4  102.49    2.83
   0  -7   3  198.73    4.06
   0  -7   3  191.03    3.93
   0  -7   2  447.28    6.04
   0  -7   2  436.91    5.84
   0  -7   1  120.21    3.12
   0   7  -1  125.60    4.82
   0  -7   0   83.45    2.60
   0   7   0   88.37    4.01
   0   7   1   21.73    1.98
   0  -7  -1   19.73    1.27
   0  -7  -2  303.42    4.92
   0   7   2  292.39    4.42
   0   7   3    1.97    0.39
   0  -7  -3    2.46    0.46
   0  -7  -4   69.55    2.16
   0   7   4   72.06    2.28
   0   7   5  497.20    6.10
   0   7   6  138.58    3.19
   0   7   7   39.41    1.68
   0   7   7   38.44    1.66
   0   7   8    2.08    0.34
   0   7   8    2.24    0.42
   0   7   9   18.88    0.97
   0   7   9   18.44    0.83
   0   7  10   17.25    0.74
   0  -8   8   51.18    1.31
   0  -8   7    2.69    0.40
   0  -8   6    0.65    0.29
   0  -8   5   35.30    1.37
   0  -8   5   33.75    1.57
   0  -8   4  141.80    3.13
   0  -8   4  140.40    3.28
   0  -8   3    8.97    0.86
   0  -8   3    9.32    0.86
   0  -8   2    0.28    0.28
   0  -8   2    0.38    0.22
   0  -8   1    4.75    0.69
   0  -8   0    0.34    0.25
   0  -8  -1   48.41    2.06
   0  -8  -2  546.15    6.61
   0  -8  -3  553.65    6.41
   0   8   3  551.52    5.98
   0  -8  -4   68.31    2.07
   0   8   4   70.52    2.19
   0   8   5    6.89    0.70
   0   8   5    6.64    0.67
   0   8   6    5.18    0.60
   0   8   6    5.51    0.61
   0   8   7  118.08    2.61
   0   8   8   68.59    1.80
   0   8   9   83.14    1.62
   0  -9   6    0.37    0.14
   0  -9   5   23.15    1.03
   0  -9   4   36.50    1.36
   0  -9   4   34.89    1.27
   0  -9   3    6.64    0.60
   0  -9   3    6.28    0.63
   0  -9   2    3.21    0.49
   0  -9   1    4.85    0.64
   0  -9   0   47.48    1.92
   0  -9  -1  229.96    4.13
   0  -9  -2    1.90    0.41
   0  -9  -3   29.53    1.31
   0   9   4    0.98    0.25
   0   9   4    0.86    0.25
   0  -9  -4    1.12    0.25
   0   9   5   14.51    0.84
   0   9   6   14.75    0.81
   0   9   7   62.23    1.47
   0 -10   3   16.46    0.72
   0 -10   2   43.21    1.32
   0 -10   1    5.44    0.52
   0 -10   0  164.40    2.79
   0 -10  -1  210.10    3.14
   0 -10  -2    6.61    0.55
   0 -10  -3   30.44    1.04
   1 -10  -2   12.94    0.64
   1 -10  -1  260.98    3.02
   1 -10   0   22.99    0.91
   1 -10   1    3.00    0.33
   1 -10   2   85.11    1.51
  -1   9   6    6.41    0.44
  -1   9   5    2.54    0.31
   1  -9  -4   63.87    1.57
  -1   9   4   62.57    1.48
   1  -9  -3   58.21    1.70
   1  -9  -2   13.51    0.89
   1  -9  -1   15.28    0.99
   1  -9   0   64.46    2.01
   1  -9   1    0.51    0.28
   1  -9   2    0.11    0.18
   1  -9   3   27.24    1.13
   1  -9   4   40.10    1.16
   1  -9   4   36.10    1.14
   1  -9   5    8.39    0.51
  -1   8   8   83.68    1.71
  -1   8   7   53.62    1.58
  -1   8   6    0.50    0.22
  -1   8   5   14.26    0.94
  -1   8   4   30.54    1.38
   1  -8  -4   30.18    1.34
  -1   8   3  487.31    5.32
   1  -8  -3  510.32    5.84
   1  -8  -2   61.73    2.15
   1  -8  -1   55.02    2.08
   1  -8   0   75.53    2.47
   1  -8   1  198.36    4.01
   1  -8   2   80.23    2.46
   1  -8   2   78.74    2.24
   1  -8   3    1.20    0.33
   1  -8   3    0.65    0.27
   1  -8   4   21.57    1.11
   1  -8   4   21.88    1.21
   1  -8   5   90.76    2.36
   1  -8   6    5.34    0.55
   1  -8   7    5.72    0.48
  -1   7   9   51.96    1.43
  -1   7   8    0.89    0.28
  -1   7   7    3.96    0.54
  -1   7   6  101.02    2.68
  -1   7   5   35.82    1.56
  -1   7   5   35.17    1.59
   1  -7  -4  217.46    3.78
  -1   7   4  224.67    3.95
  -1   7   3  162.44    3.26
   1  -7  -3  173.78    3.51
   1  -7  -2  108.32    2.92
  -1   7   2   91.95    2.37
   1  -7  -1   33.33    1.65
   1  -7   0   50.21    2.06
   1  -7   1  139.28    3.42
   1  -7   2   13.04    1.05
   1  -7   2   14.99    1.07
   1  -7   3    2.70    0.48
   1  -7   3    2.82    0.49
   1  -7   4    4.76    0.60
   1  -7   4    2.74    0.52
   1  -7   5   17.25    1.20
   1  -7   6   97.06    2.69
   1  -7   7   63.71    2.02
   1  -7   8    1.07    0.26
   1  -7   9    0.70    0.17
  -1   6  10  118.56    2.02
  -1   6   9   42.25    1.48
  -1   6   8   33.62    1.50
  -1   6   7    2.19    0.45
  -1   6   6    7.14    0.74
  -1   6   6    7.66    0.80
  -1   6   5 1033.80    8.59
  -1   6   5 1039.04    8.42
  -1   6   4    7.44    1.21
  -1   6   4    6.11    0.65
   1  -6  -4    5.22    0.57
   1  -6  -3    0.97    0.29
  -1   6   3    1.71    0.59
  -1   6   3    1.37    0.31
  -1   6   2   47.69    1.66
   1  -6  -2   63.14    2.11
  -1   6   1  591.63    9.61
   1  -6  -1  584.29    6.57
   1  -6   0  312.20    4.86
  -1   6   0  312.66    7.24
  -1   6  -1   21.00    1.97
   1  -6   1   20.89    1.17
   1  -6   1   22.82    1.32
   1  -6   2    3.03    0.51
   1  -6   2    2.92    0.50
  -1   6  -2    3.28    0.83
   1  -6   3  700.74    7.42
   1  -6   3  685.55    7.27
   1  -6   4  248.18    4.55
   1  -6   4  238.67    4.17
   1  -6   5   42.08    1.92
   1  -6   6   85.50    2.73
   1  -6   7   73.42    2.44
   1  -6   8   -0.04    0.23
   1  -6   9   11.29    0.74
   1  -5 -11    8.88    0.50
  -1   5  10   10.21    0.63
  -1   5  10   10.74    0.68
  -1   5   9    1.14    0.29
  -1   5   9    1.46    0.29
  -1   5   8  466.94    5.14
  -1   5   8  467.11    5.58
  -1   5   7   66.72    2.19
  -1   5   6  623.69    6.62
  -1   5   6  625.68   11.81
  -1   5   5    4.37    0.95
  -1   5   5    6.19    0.65
  -1   5   4  442.58    5.12
  -1   5   4  456.50    8.83
  -1   5   3   12.02    1.34
  -1   5   2   76.93    3.10
  -1   5   2   86.28    3.10
  -1   5   1  471.00    6.91
  -1   5   1  476.63    7.54
  -1   5   0   13.79    1.34
  -1   5  -1    3.64    0.74
  -1   5  -2  255.58    6.13
  -1   5  -3  218.26    5.80
   1  -5   4  693.31    7.16
   1  -5   4  675.96    6.60
  -1   5  -4  672.21   10.67
  -1   5  -5   15.69    1.70
   1  -5   5   15.87    1.15
   1  -5   5   16.10    1.14
   1  -5   6   57.38    2.21
   1  -5   6   59.47    2.24
   1  -5   7   51.76    1.76
   1  -5   7   50.12    2.08
   1  -5   7   49.50    2.08
   1  -5   8   89.00    2.61
   1  -5   8   88.93    2.70
   1  -5   9   33.41    1.43
   1  -5   9   32.88    1.50
   1  -5  10    0.27    0.14
  -1   4  12   73.82    1.47
  -1   4  11    7.89    0.55
  -1   4  10   41.81    1.45
  -1   4  10   43.76    1.41
  -1   4   9  127.53    2.74
  -1   4   9  122.32    2.69
  -1   4   8   14.07    0.94
  -1   4   8    9.73    0.80
  -1   4   7 1286.34    8.66
  -1   4   7 1304.33    9.10
  -1   4   7 1297.54   16.94
  -1   4   6   30.45    1.42
  -1   4   6   30.85    2.48
  -1   4   5  133.93    4.80
  -1   4   4  213.61    5.63
  -1   4   3 1279.03   12.60
  -1   4   2  112.92    3.41
  -1   4   2  110.86    3.00
  -1   4   1   69.10    2.42
  -1   4   0    0.80    0.26
   1  -4   0   15.91    1.25
   1  -4   1  192.31    4.49
   1  -4   2   29.08    1.83
  -1   4  -2   30.13    1.85
  -1   4  -3  198.82    4.93
  -1   4  -4  403.53    7.30
   1  -4   5    1.87    0.39
  -1   4  -5    1.56    0.53
   1  -4   5    2.31    0.43
   1  -4   6   41.53    1.78
   1  -4   6   42.45    1.57
   1  -4   6   42.69    1.85
   1  -4   7  192.48    4.02
   1  -4   7  183.43    3.83
   1  -4   7  186.74    3.49
   1  -4   8  184.25    3.97
   1  -4   8  177.69    3.48
   1  -4   8  176.07    3.69
   1  -4   9  112.78    3.01
   1  -4   9  110.63    2.64
   1  -4   9  105.83    2.70
   1  -4  10   14.63    0.98
   1  -4  11    1.30    0.27
  -1   3  12   60.74    1.49
  -1   3  11   10.31    0.70
  -1   3  10  265.49    3.89
  -1   3   9  426.25    5.17
  -1   3   8  813.43    7.14
  -1   3   8  837.44    6.87
  -1   3   8  840.05   13.52
  -1   3   7   25.12    2.22
  -1   3   7   22.24    1.13
  -1   3   6   60.62    3.22
  -1   3   5    6.60    0.99
  -1   3   4 1050.33   11.28
  -1   3   3 1058.94    7.11
  -1   3   3  987.24    9.97
   1  -3  -2    1.15    0.28
  -1   3   2    1.20    0.35
  -1   3   1   88.51    2.44
   1  -3  -1   87.26    2.42
  -1   3   0   91.85    2.16
   1  -3   0   92.29    2.62
   1  -3   1  210.87    4.16
  -1   3  -1  208.19    2.65
   1  -3   2  915.24    9.05
   1  -3   3   59.40    2.40
  -1   3  -4   55.20    2.38
   1  -3   4   62.67    2.52
  -1   3  -5   12.49    1.21
  -1   3  -6    3.61    0.70
   1  -3   7   89.97    2.55
   1  -3   7   92.11    2.42
   1  -3   7   96.32    2.70
   1  -3   8   54.73    2.13
   1  -3   8   56.53    1.97
   1  -3   8   54.85    2.00
   1  -3   9  219.69    3.95
   1  -3   9  220.79    4.26
   1  -3  10   61.03    2.11
   1  -3  10   63.47    2.04
   1  -3  11   16.80    0.96
   1  -3  11   16.68    0.93
   1  -3  12    8.44    0.51
  -1   2  12    2.26    0.33
  -1   2  11  130.15    2.65
  -1   2  10   55.53    1.86
  -1   2   9  695.78    6.71
  -1   2   8    0.16    0.15
  -1   2   8    1.26    0.53
  -1   2   7    7.67    1.16
  -1   2   6  216.08    5.60
  -1   2   5  254.73    5.55
  -1   2   4   71.54    2.69
  -1   2   3   16.33    1.17
  -1   2   2  528.12    5.77
   1  -2  -2  499.94    4.42
   1  -2  -1  121.39    2.33
  -1   2   1  119.72    2.42
   1  -2   0   50.89    1.58
  -1   2   0   47.92    1.32
   1  -2   1  856.84    6.89
  -1   2  -1  790.67    4.37
   1  -2   2 1471.80    9.68
   1  -2   3  564.84    6.39
   1  -2   4   92.33    2.71
   1  -2   4   91.33    2.88
   1  -2   5    1.03    0.40
   1  -2   5    1.23    0.36
  -1   2  -5    0.96    0.31
   1  -2   6  430.29    7.77
  -1   2  -6  374.10    5.93
   1  -2   7  106.66    4.21
   1  -2   7  107.98    2.55
   1  -2   7  112.14    2.78
   1  -2   8  156.77    3.23
   1  -2   8  157.72    3.49
   1  -2   9    7.59    0.76
   1  -2   9    6.66    0.75
   1  -2  10  332.72    4.98
   1  -2  10  348.22    4.97
   1  -2  11    3.04    0.48
   1  -2  11    2.90    0.45
   1  -2  12    6.27    0.49
  -1   1  12  183.32    2.73
  -1   1  11   68.79    1.98
  -1   1  10  363.44    4.87
  -1   1   9    4.69    0.58
  -1   1   8   10.52    0.80
  -1   1   8   10.51    1.33
  -1   1   7   58.17    2.91
  -1   1   6  743.03    9.47
  -1   1   5 1268.18   11.42
  -1   1   4  508.15    6.42
  -1   1   3  105.42    2.56
   1  -1  -3   83.39    0.95
  -1   1   2   16.53    0.89
   1  -1  -2   16.82    0.61
  -1   1   1 2079.26    9.09
   1  -1  -1 2160.44    7.88
   1  -1   0   16.55    0.76
   1  -1   1    2.44    0.32
   1  -1   1    2.41    0.26
   1  -1   2   21.75    0.98
   1  -1   2   19.51    0.93
   1  -1   2   20.26    0.90
   1  -1   3  489.58    5.27
   1  -1   3  485.96    4.99
   1  -1   4   85.70    2.22
   1  -1   4   84.41    2.57
   1  -1   5  178.90    3.36
   1  -1   5  184.98    4.32
   1  -1   6  426.49    7.36
   1  -1   7   60.40    3.01
   1  -1   8   87.37    3.91
   1  -1   8   92.61    2.45
   1  -1   8   93.30    2.42
   1  -1   9    1.78    0.38
   1  -1   9    2.33    0.43
   1  -1  10   24.78    1.34
   1  -1  10   24.59    1.36
   1  -1  11  100.93    2.49
   1  -1  11   98.33    2.53
   1  -1  12   27.28    1.14
   1  -1  12   27.18    1.07
  -1   0  12    3.37    0.38
  -1   0  11  258.25    3.74
  -1   0  10   58.92    1.92
  -1   0  10   58.10    1.92
  -1   0  10   60.38    2.01
  -1   0   9   40.36    1.65
  -1   0   9   38.81    1.56
  -1   0   8  639.37   10.43
  -1   0   8  622.76    6.11
  -1   0   8  648.07    6.19
  -1   0   7   95.49    3.41
  -1   0   6  421.02    6.53
  -1   0   5  380.12    5.60
   1   0  -4  587.57    3.80
  -1   0   4  609.89    6.19
   1   0  -3  115.26    1.70
  -1   0   3  114.75    2.36
   1   0  -2   19.61    0.68
  -1   0   2   20.56    0.90
   1   0  -1  746.09    4.20
   1   0  -1  767.47    4.05
   1   0   0  322.78    2.88
   1   0   1 2156.53    5.61
   1   0   1 2231.39    7.35
   1   0   2    1.26    0.20
   1   0   2    1.05    0.17
   1   0   3  286.20    3.18
   1   0   3  292.28    3.19
   1   0   4 1872.32    8.71
   1   0   4 1900.56    9.21
   1   0   5   70.29    1.74
   1   0   5   65.38    1.95
   1   0   6  491.95    5.95
   1   0   6  491.27    7.38
   1   0   7   65.73    3.05
   1   0   8 1086.66    8.20
   1   0   8 1108.69    8.19
   1   0   8 1123.04   14.14
   1   0   9  136.10    3.05
   1   0   9  145.93    5.44
   1   0   9  139.93    3.04
   1   0  10  243.57    4.11
   1   0  10  244.13    4.10
   1   0  11    7.84    0.74
   1   0  11    7.97    0.72
   1   0  12   17.60    0.92
  -1  -1  12  104.21    1.91
  -1  -1  12  105.94    2.32
  -1  -1  11    6.91    0.62
  -1  -1  10    0.81    0.26
  -1  -1  10    0.89    0.30
  -1  -1   9  323.75    4.65
  -1  -1   9  318.94    4.44
  -1  -1   8  993.11    7.92
  -1  -1   8  994.34    7.94
  -1  -1   7  617.02    9.93
  -1  -1   6  155.12    4.39
  -1  -1   5    0.88    0.27
  -1  -1   5    0.63    0.32
  -1  -1   4   94.10    2.67
  -1  -1   4   87.51    2.11
   1   1  -4   88.93    1.99
   1   1  -3 2662.06   10.21
  -1  -1   3 2671.19   10.62
  -1  -1   3 2659.24   12.17
  -1  -1   2 1203.35    6.75
   1   1  -2 1233.23    6.44
  -1  -1   1 1345.62    5.72
   1   1  -1 1362.30    6.15
   1   1   0  115.39    1.71
   1   1   1  605.66    3.91
   1   1   1  617.13    4.13
   1   1   2 1028.83    6.10
   1   1   2 1040.73    5.36
   1   1   3  152.05    2.67
   1   1   3  151.21    2.67
   1   1   4  865.08    7.37
   1   1   4  864.89    4.69
   1   1   4  863.55    7.21
   1   1   5   60.45    2.14
   1   1   6  611.69    7.53
   1   1   7   17.98    1.41
   1   1   8  430.33    4.99
   1   1   8  418.58    8.32
   1   1   9 1032.18    8.46
   1   1   9 1025.13    8.12
   1   1  10   72.01    2.25
   1   1  10   75.27    2.21
   1   1  11    7.11    0.72
   1   1  11    7.11    0.67
   1   1  12   29.52    1.13
  -1  -2  12   14.32    0.83
  -1  -2  11   24.88    1.34
  -1  -2  10    2.84    0.43
  -1  -2   9  170.74    3.43
  -1  -2   9  169.44    3.20
  -1  -2   8  430.67    9.02
  -1  -2   8  416.86    4.90
  -1  -2   8  421.52    5.35
  -1  -2   7  359.42    7.57
  -1  -2   7  368.61    4.69
  -1  -2   6   42.85    2.42
   1   2  -5   42.71    1.77
  -1  -2   5   47.77    2.33
  -1  -2   4   13.01    1.08
   1   2  -4   12.31    0.91
   1   2  -3  782.84    6.58
  -1  -2   3  783.22    4.91
  -1  -2   2 3044.51   12.64
   1   2  -2 3126.04   12.05
   1   2  -1  834.79    5.84
   1   2   0 1167.89    5.89
   1   2   0 1142.74    6.67
   1   2   1   84.72    1.80
   1   2   1   81.15    1.66
   1   2   2 2568.61    8.86
   1   2   2 2594.53   11.38
   1   2   3  373.37    4.15
   1   2   3  368.93    2.98
   1   2   4  208.31    4.04
   1   2   4  203.26    2.13
   1   2   5  313.39    5.51
   1   2   6 1533.99   13.13
   1   2   7   25.98    1.86
   1   2   8   33.36    2.26
   1   2   8   34.96    1.40
   1   2   8   36.25    1.52
   1   2   9  326.80    4.80
   1   2   9  328.02    4.42
   1   2  10    4.43    0.60
   1   2  10    5.32    0.57
   1   2  11   27.07    1.33
   1   2  12   21.87    1.06
   1   2  12   19.86    0.88
  -1  -3  12    8.15    0.59
  -1  -3  11   74.70    2.18
  -1  -3  10   78.05    2.53
  -1  -3   9  120.84    2.94
  -1  -3   8   21.66    1.23
  -1  -3   7    0.11    0.14
  -1  -3   7    0.09    0.17
  -1  -3   6  293.61    6.69
   1   3  -5 1301.21   11.51
  -1  -3   5 1369.82   13.29
   1   3  -4 1956.12   12.93
   1   3  -3   17.78    1.18
   1   3  -2  132.54    3.00
   1   3  -1   90.44    2.35
   1   3   0    4.59    0.44
   1   3   0    3.77    0.47
   1   3   1  905.12    6.85
   1   3   1  938.92    6.93
   1   3   2  704.61    6.70
   1   3   2  665.29    5.54
   1   3   3  578.61    6.83
   1   3   3  591.22    4.83
   1   3   3  592.44    5.21
   1   3   4 1075.61    7.73
   1   3   4 1062.41   10.26
   1   3   5   31.53    1.91
   1   3   6  573.68    8.80
   1   3   7  351.55    7.45
   1   3   8  132.82    2.91
   1   3   8  138.14    3.04
   1   3   9    2.25    0.43
   1   3  10  207.33    3.85
   1   3  11   54.15    1.83
   1   3  12    1.63    0.32
  -1  -4  12    0.42    0.14
  -1  -4  11    1.58    0.33
  -1  -4  10   48.92    1.91
  -1  -4   9   58.66    1.97
  -1  -4   9   56.17    2.20
  -1  -4   8   65.36    2.20
  -1  -4   8   66.64    2.41
  -1  -4   7    1.18    0.33
  -1  -4   7    0.65    0.25
  -1  -4   6    1.20    0.32
  -1  -4   6    1.42    0.34
   1   4  -6    1.65    0.52
   1   4  -5   13.55    1.34
   1   4  -4  503.90    7.49
   1   4  -3  669.96    8.30
   1   4  -2   25.91    1.57
   1   4  -1  426.00    6.01
   1   4   0  543.38    6.49
   1   4   0  559.52    5.47
   1   4   1   17.30    1.12
   1   4   1   16.65    1.06
   1   4   2  127.94    2.96
   1   4   2  128.55    3.24
   1   4   3    2.05    0.51
   1   4   3    1.59    0.32
   1   4   4  277.33    5.71
   1   4   5   31.73    2.09
   1   4   6   86.35    3.71
   1   4   7   60.51    3.32
   1   4   7   64.65    2.02
   1   4   8   23.40    2.19
   1   4   8   22.99    1.26
   1   4   9    3.19    0.51
   1   4  10   38.02    1.63
   1   4  11   48.79    1.67
   1   4  12   33.05    1.15
  -1  -5  11   10.46    0.65
  -1  -5  10    1.68    0.34
  -1  -5   9   14.12    0.97
  -1  -5   9   14.26    1.09
  -1  -5   8  195.72    3.91
  -1  -5   8  195.45    4.14
  -1  -5   7  277.14    4.87
  -1  -5   7  271.28    4.66
  -1  -5   6  688.98    7.48
  -1  -5   6  684.05    7.33
  -1  -5   5   40.70    1.75
   1   5  -5   37.58    2.48
   1   5  -4    3.62    0.79
   1   5  -3   33.80    2.11
   1   5  -2  153.85    4.33
   1   5  -1  814.39    9.71
   1   5   0  204.48    3.70
   1   5   0  201.49    4.52
   1   5   1   28.26    1.69
   1   5   1   25.79    1.48
   1   5   2  608.34    7.78
   1   5   2  626.82    7.71
   1   5   3    4.89    0.63
   1   5   3    3.85    0.70
   1   5   4  905.85   11.27
   1   5   5  595.72    9.78
   1   5   6    4.98    1.01
   1   5   6    5.32    0.61
   1   5   7    7.77    1.29
   1   5   7   15.06    1.04
   1   5   8  245.43    4.20
   1   5   9  240.35    4.13
   1   5  10  110.87    2.66
   1   5  10  114.44    2.39
   1   5  11   21.01    1.02
   1   5  12    4.82    0.40
  -1  -6  10    2.28    0.28
  -1  -6  10    2.35    0.34
  -1  -6   9  158.94    3.12
  -1  -6   9  159.28    2.95
  -1  -6   8   13.18    1.01
  -1  -6   8   12.80    1.01
  -1  -6   7   80.38    2.61
  -1  -6   7   78.25    2.60
  -1  -6   6  613.66    7.23
  -1  -6   6  640.80    7.39
  -1  -6   5    5.40    0.69
  -1  -6   5    6.32    0.76
   1   6  -5    5.65    1.06
  -1  -6   4   64.51    2.22
  -1  -6   4   65.39    2.26
   1   6  -4   71.88    3.66
  -1  -6   3  233.64    3.99
   1   6  -3  288.22    7.03
   1   6  -2  172.58    5.21
   1   6  -1  143.02    4.60
   1   6   0  124.64    4.27
   1   6   1   87.82    3.47
   1   6   2   40.22    2.25
   1   6   2   38.98    2.19
   1   6   3  207.69    5.47
   1   6   4  499.65    5.87
   1   6   4  481.56    5.68
   1   6   4  483.61    8.85
   1   6   5    1.09    0.52
   1   6   5    0.94    0.29
   1   6   6    8.36    0.81
   1   6   6    7.21    1.23
   1   6   7   10.01    0.90
   1   6   8  161.35    3.46
   1   6   9  183.47    3.42
   1   6  10    2.50    0.40
   1   6  10    2.77    0.38
   1   6  11   75.12    1.63
  -1  -7   9   58.66    1.52
  -1  -7   8  191.91    3.40
  -1  -7   7    7.92    0.82
  -1  -7   6   -0.05    0.29
  -1  -7   6    0.17    0.31
  -1  -7   5   52.68    1.92
  -1  -7   5   52.40    2.15
  -1  -7   4   50.00    2.06
  -1  -7   3  435.98    5.89
  -1  -7   2  258.73    4.41
   1   7  -2  312.59    7.97
  -1  -7   1    0.55    0.25
   1   7  -1    0.68    0.45
   1   7   0   16.04    1.77
   1   7   1    9.33    1.31
   1   7   1    6.86    0.69
   1   7   2  241.47    4.15
  -1  -7  -2  238.69    4.20
   1   7   3   15.34    1.07
  -1  -7  -3   14.46    1.03
   1   7   4    1.71    0.60
   1   7   4    1.57    0.38
   1   7   5   70.37    2.37
   1   7   6  198.20    3.96
   1   7   7   31.25    1.55
   1   7   8    1.44    0.38
   1   7   9   43.92    1.50
   1   7   9   44.29    1.55
   1   7  10    2.05    0.30
   1   7  10    2.22    0.31
  -1  -8   8   54.17    1.45
  -1  -8   7    2.47    0.42
  -1  -8   6   79.39    2.37
  -1  -8   5   12.70    1.04
  -1  -8   5   12.20    0.89
  -1  -8   4  104.35    2.80
  -1  -8   4  102.12    2.92
  -1  -8   3  126.12    3.20
  -1  -8   3  129.41    3.24
  -1  -8   2  306.77    5.14
  -1  -8   2  294.79    4.81
  -1  -8   1   42.87    1.93
  -1  -8   0   10.22    0.96
  -1  -8  -1  169.20    3.78
   1   8   1  161.68    3.35
   1   8   2  234.49    4.17
  -1  -8  -2  242.46    4.46
   1   8   3    2.47    0.47
  -1  -8  -3    1.99    0.45
  -1  -8  -4   40.46    1.66
   1   8   4   45.47    1.87
   1   8   5    6.13    0.70
   1   8   6  103.00    2.72
   1   8   7   42.98    1.68
   1   8   8    2.56    0.36
   1   8   8    2.83    0.41
   1   8   9   35.09    1.06
   1   8   9   39.28    1.25
  -1  -9   7    5.66    0.41
  -1  -9   6   44.08    1.38
  -1  -9   5   33.63    1.14
  -1  -9   5   32.55    1.32
  -1  -9   4    5.69    0.61
  -1  -9   4    6.09    0.61
  -1  -9   3    6.19    0.64
  -1  -9   3    6.82    0.72
  -1  -9   2    7.11    0.67
  -1  -9   2    7.50    0.80
  -1  -9   1   57.48    2.22
  -1  -9   0  106.38    3.02
  -1  -9  -1   25.51    1.47
   1   9   2   39.86    1.56
  -1  -9  -2   41.10    1.78
   1   9   3    0.73    0.30
  -1  -9  -3    0.79    0.31
   1   9   4   22.71    1.13
   1   9   4   23.37    1.20
   1   9   5   19.65    1.08
   1   9   5   19.19    1.04
   1   9   6    5.14    0.53
   1   9   6    5.65    0.57
   1   9   7    1.19    0.22
   1   9   7    1.49    0.29
   1   9   8    0.79    0.19
  -1 -10   4   14.92    0.64
  -1 -10   3    2.18    0.32
  -1 -10   2    0.49    0.21
  -1 -10   1   13.77    0.91
  -1 -10   0  107.92    2.55
  -1 -10  -1    0.99    0.30
  -1 -10  -2   10.01    0.73
  -1 -10  -3   14.14    0.79
   1  10   4   85.61    1.72
   1  10   5   66.87    1.35
  -1 -11   0   10.30    0.54
   2  -9  -3   20.43    0.86
   2  -9  -2    3.11    0.38
   2  -9  -1    4.90    0.50
   2  -9   0    4.33    0.48
   2  -9   1    2.39    0.35
   2  -9   2    3.79    0.40
   2  -9   3   30.26    0.97
   2  -8  -7    0.70    0.17
   2  -8  -6   16.22    0.77
   2  -8  -5  125.16    2.22
  -2   8   5  112.46    2.24
  -2   8   4   96.26    2.15
   2  -8  -4  103.64    2.24
  -2   8   3   53.13    1.54
   2  -8  -3   61.36    1.88
   2  -8  -2   31.80    1.45
   2  -8  -1   67.37    2.17
   2  -8   0  210.88    3.87
   2  -8   1  228.22    3.95
   2  -8   2   22.14    1.19
   2  -8   3   10.07    0.76
   2  -8   3    9.49    0.70
   2  -8   4   18.03    0.89
   2  -8   4   17.90    0.95
   2  -8   5   71.60    1.79
   2  -8   6    0.86    0.20
   2  -7  -9    3.33    0.31
   2  -7  -8    1.61    0.28
  -2   7   8    1.77    0.29
  -2   7   7  223.28    3.42
  -2   7   6  140.06    2.90
  -2   7   5   11.77    0.89
  -2   7   4    7.65    0.72
   2  -7  -4    7.85    0.70
  -2   7   3   21.00    1.16
   2  -7  -3   23.29    1.29
   2  -7  -2   75.65    2.39
  -2   7   2   66.43    1.98
   2  -7  -1  129.10    3.16
   2  -7   0   15.40    1.11
   2  -7   1    2.90    0.53
   2  -7   2    7.57    0.75
   2  -7   2    7.05    0.76
   2  -7   3   69.29    2.17
   2  -7   3   68.86    2.24
   2  -7   4    7.36    0.76
   2  -7   4    8.50    0.73
   2  -7   5   20.21    1.22
   2  -7   6   75.93    2.18
   2  -7   7    5.96    0.56
   2  -7   8    1.29    0.24
   2  -6 -10   10.92    0.55
   2  -6  -9   29.82    1.15
  -2   6   9   31.12    1.12
  -2   6   8   39.64    1.50
  -2   6   7   97.35    2.54
  -2   6   6   26.36    1.39
  -2   6   5   35.93    1.63
   2  -6  -4  151.30    3.15
  -2   6   4  161.94    3.37
   2  -6  -3    0.87    0.29
  -2   6   3    0.94    0.30
   2  -6  -2  589.42    6.47
  -2   6   2  536.92    5.78
  -2   6   1  585.87   10.18
   2  -6  -1  550.79    6.35
   2  -6   0    5.33    0.65
  -2   6   0    4.99    0.98
  -2   6  -1   64.13    3.54
   2  -6   1   63.93    2.22
   2  -6   2   34.61    1.59
   2  -6   2   35.98    1.65
   2  -6   3  135.41    3.12
   2  -6   3  134.91    3.27
   2  -6   4   64.74    2.32
   2  -6   4   61.21    2.01
   2  -6   5  136.73    3.38
   2  -6   6   15.04    1.14
   2  -6   7    0.95    0.36
   2  -6   8   16.40    0.97
   2  -6   9   10.72    0.64
  -2   5  10    4.06    0.40
   2  -5 -10    3.31    0.38
  -2   5   9  110.71    2.37
  -2   5   8   97.38    2.48
  -2   5   7   19.07    1.18
  -2   5   6   52.23    1.94
  -2   5   5  489.74    5.85
  -2   5   5  469.37   10.21
  -2   5   4  541.71   10.36
  -2   5   4  548.34    5.98
  -2   5   4  529.54    5.71
  -2   5   3   17.55    1.75
  -2   5   3   18.48    1.06
   2  -5  -3   19.88    1.11
   2  -5  -2  420.24    5.14
  -2   5   2  417.84    7.88
  -2   5   1   85.92    3.54
   2  -5  -1   83.65    2.30
   2  -5   0    8.30    0.75
  -2   5   0   15.90    1.58
   2  -5   1  612.32    6.36
  -2   5  -1  620.91   10.02
   2  -5   2  265.09    4.20
   2  -5   2  262.47    4.16
  -2   5  -2  268.27    6.79
   2  -5   3  485.70    5.94
  -2   5  -3  461.83    9.22
   2  -5   4  498.41    6.24
   2  -5   4  498.48    5.65
   2  -5   5   90.54    2.75
   2  -5   6  315.71    5.17
   2  -5   7  129.61    3.27
   2  -5   8   43.95    1.78
   2  -5   9    0.32    0.16
   2  -5  10    0.28    0.13
  -2   4  11   25.55    0.95
   2  -4 -10   14.97    0.82
  -2   4   9  240.90    3.62
  -2   4   8   94.05    2.45
  -2   4   7  579.20    6.30
  -2   4   6   20.79    2.18
  -2   4   6   20.73    1.20
  -2   4   5  755.96    6.78
  -2   4   5  738.50   12.09
  -2   4   4 1290.99   15.02
  -2   4   4 1339.08    8.63
  -2   4   3  468.64    8.37
   2  -4  -2   77.39    2.86
  -2   4   2   86.37    3.30
   2  -4  -1    3.91    0.70
  -2   4   1    2.85    0.57
   2  -4   0    2.39    0.56
   2  -4   1 1581.55   14.72
   2  -4   2    8.98    1.16
   2  -4   3  128.05    4.36
   2  -4   4   37.41    1.61
   2  -4   4   40.44    1.66
   2  -4   4   36.33    2.40
   2  -4   5   56.48    2.07
  -2   4  -5   53.92    3.00
   2  -4   5   62.11    2.15
   2  -4   6   -0.01    0.23
   2  -4   6    0.24    0.21
  -2   4  -6    0.32    0.31
   2  -4   7   12.54    1.03
   2  -4   7   13.02    1.04
   2  -4   7   12.38    0.89
   2  -4   8   10.17    0.90
   2  -4   8   10.08    0.91
   2  -4   8   10.22    0.83
   2  -4   9    6.17    0.66
   2  -4   9    6.13    0.61
   2  -4   9    5.67    0.62
   2  -4  10   21.94    1.00
   2  -4  10   22.16    0.97
  -2   3  12   62.62    1.31
  -2   3  11  133.59    2.44
   2  -3 -10  168.87    2.78
  -2   3   9   20.07    1.04
  -2   3   8   36.24    1.48
  -2   3   7  399.03    9.46
  -2   3   7  398.66    4.97
  -2   3   6  270.81    7.30
  -2   3   6  279.69    3.99
  -2   3   5  166.14    5.36
  -2   3   4  181.84    5.23
  -2   3   3   19.07    1.57
  -2   3   2  138.86    3.82
   2  -3  -2  124.71    3.29
  -2   3   1  707.59    7.82
   2  -3  -1  706.93    7.91
   2  -3   0  878.41    9.16
  -2   3   0  839.23    7.70
  -2   3  -1 1319.48    8.49
   2  -3   1 1387.52   12.00
   2  -3   2  245.45    5.29
   2  -3   3  318.26    6.29
   2  -3   4    0.36    0.31
   2  -3   5   93.72    3.57
   2  -3   6  158.57    3.33
   2  -3   6  149.41    2.93
   2  -3   6  152.00    3.28
   2  -3   7   92.93    2.64
   2  -3   7   99.83    2.77
   2  -3   7   94.92    2.46
   2  -3   8  152.74    3.35
   2  -3   8  156.20    3.51
   2  -3   8  155.40    3.27
   2  -3   9    5.32    0.61
   2  -3   9    4.94    0.63
   2  -3   9    4.63    0.60
   2  -3  10    1.48    0.35
   2  -3  10    1.70    0.37
   2  -3  11    7.75    0.60
  -2   2  12   52.73    1.35
  -2   2  11   61.76    1.77
  -2   2  10   24.67    1.13
  -2   2   9  233.20    3.60
  -2   2   8  198.43    3.33
  -2   2   8  202.28    6.61
  -2   2   7   63.43    1.85
  -2   2   7   62.33    3.52
  -2   2   6  107.76    4.33
  -2   2   5    6.15    0.99
  -2   2   4   24.83    1.77
  -2   2   3  675.89    8.35
   2  -2  -3  585.21    5.55
   2  -2  -2  239.42    3.93
  -2   2   2  241.97    4.55
   2  -2  -1  840.23    3.80
   2  -2  -1  836.46    7.57
   2  -2   0 2619.45   14.07
   2  -2   0 2640.46    8.42
  -2   2  -1  948.63    6.78
   2  -2   1  994.52    6.52
   2  -2   2   13.57    1.12
  -2   2  -2   12.80    0.69
   2  -2   3  357.18    5.84
   2  -2   4  178.09    4.26
   2  -2   5  780.29    9.44
  -2   2  -6  393.29    6.82
   2  -2   6  453.77    7.32
   2  -2   7   24.12    1.28
   2  -2   7   25.69    1.33
   2  -2   7   26.07    1.28
   2  -2   8   30.90    1.53
   2  -2   8   30.92    1.45
   2  -2   8   31.47    1.47
   2  -2   9  234.57    4.19
   2  -2   9  230.13    4.04
   2  -2  10   48.63    1.78
   2  -2  10   47.68    1.80
   2  -2  11    6.22    0.55
   2  -2  11    6.06    0.60
   2  -2  12    0.64    0.19
  -2   1  12   95.56    1.90
  -2   1  11  321.62    4.11
  -2   1  10   39.53    1.60
  -2   1   9  266.98    3.99
  -2   1   8   34.15    1.40
  -2   1   8   38.64    2.74
  -2   1   7  652.11   10.54
  -2   1   7  650.81    5.75
  -2   1   6  676.82   10.03
  -2   1   5  132.96    4.08
  -2   1   4  959.19    9.96
  -2   1   3  719.41    7.85
   2  -1  -3  658.25    5.23
   2  -1  -2 2092.57   10.30
  -2   1   2 2115.57   12.52
   2  -1  -1 1134.89    7.86
   2  -1   0  258.90    3.95
   2  -1   1    0.23    0.16
   2  -1   2  286.83    3.93
   2  -1   2  286.98    4.49
   2  -1   3  973.30    8.19
   2  -1   3  992.43    8.66
   2  -1   4  520.63    6.60
   2  -1   4  557.36    6.52
   2  -1   5    7.50    0.83
   2  -1   5    9.43    0.96
   2  -1   6   19.14    1.37
   2  -1   6   17.79    1.46
   2  -1   7  164.39    4.95
   2  -1   7  163.69    3.14
   2  -1   8    9.92    0.82
   2  -1   8    8.69    0.74
   2  -1   8    8.46    1.24
   2  -1   8    9.04    0.79
   2  -1   9   60.02    2.05
   2  -1   9   58.88    2.05
   2  -1  10    6.94    0.69
   2  -1  10    6.19    0.71
   2  -1  11   12.16    0.89
   2  -1  12   12.07    0.75
  -2   0  12    0.37    0.19
  -2   0  11   65.48    1.86
  -2   0  10    3.06    0.49
  -2   0   9  207.89    3.61
  -2   0   9  205.77    3.70
  -2   0   8    4.95    0.56
  -2   0   8    2.94    0.75
  -2   0   7    3.13    0.71
  -2   0   7    2.42    0.61
  -2   0   6  249.21    5.64
  -2   0   5  331.79    5.87
  -2   0   4  877.16    8.70
  -2   0   3 1585.60   10.94
   2   0  -3 1534.63    8.20
   2   0  -2  821.99    6.28
   2   0  -1  161.44    2.85
   2   0   0  267.38    3.67
   2   0   1   74.85    1.87
   2   0   2   28.77    1.28
   2   0   2   32.87    0.96
   2   0   3 1649.59    9.10
   2   0   3 1640.40   10.52
   2   0   4  758.92    7.08
   2   0   4  753.78    7.95
   2   0   5   65.58    2.19
   2   0   5   73.77    2.58
   2   0   6   56.64    2.57
   2   0   7  223.18    5.63
   2   0   8  117.20    4.39
   2   0   8  121.00    2.83
   2   0   8  117.72    2.70
   2   0   9    7.67    0.72
   2   0   9    9.45    0.82
   2   0  10  277.98    4.26
   2   0  10  283.09    4.46
   2   0  11   40.08    1.60
   2   0  12   34.94    1.31
  -2  -1  12    3.46    0.37
  -2  -1  11  114.80    2.46
  -2  -1  10   13.66    0.93
  -2  -1   9    3.23    0.48
  -2  -1   8   17.86    1.84
  -2  -1   8   16.98    1.04
  -2  -1   7   52.30    2.92
  -2  -1   7   50.47    1.67
  -2  -1   7   51.74    1.70
  -2  -1   6  589.16    8.06
  -2  -1   6  601.76    8.68
  -2  -1   5  332.75    5.48
  -2  -1   5  347.00    5.84
  -2  -1   4  441.67    5.96
  -2  -1   4  440.01    5.79
   2   1  -3   15.79    0.97
  -2  -1   3   15.58    0.94
  -2  -1   2   52.32    1.42
   2   1  -2   53.73    1.72
   2   1  -1  190.23    3.14
  -2  -1   1  184.82    2.10
   2   1   0  148.91    2.68
   2   1   1 3768.73   13.41
   2   1   2  344.35    4.37
   2   1   3  597.35    6.14
   2   1   3  595.77    5.45
   2   1   4  271.30    4.23
   2   1   4  272.42    4.64
   2   1   4  278.43    3.99
   2   1   5   54.78    2.07
   2   1   5   56.46    2.35
   2   1   5   58.59    1.84
   2   1   6  164.73    3.92
   2   1   7    3.74    0.71
   2   1   8  353.10    4.74
   2   1   8  360.16    4.73
   2   1   8  348.86    7.59
   2   1   9   14.19    1.71
   2   1   9   13.65    0.97
   2   1   9   14.49    1.01
   2   1  10    0.90    0.31
   2   1  10    0.96    0.34
   2   1  11   63.93    1.99
   2   1  11   65.48    2.00
   2   1  12  145.36    2.59
  -2  -2  12    4.85    0.39
  -2  -2  12    5.57    0.51
  -2  -2  11   44.67    1.48
  -2  -2  10   30.91    1.39
  -2  -2   9   15.53    1.02
  -2  -2   8    1.08    0.33
  -2  -2   8    1.21    0.59
  -2  -2   7    1.91    0.37
  -2  -2   7    1.54    0.58
  -2  -2   7    1.17    0.30
  -2  -2   6   64.34    2.94
   2   2  -5    1.58    0.38
  -2  -2   5    1.94    0.50
  -2  -2   5    2.07    0.42
  -2  -2   4 1182.84   10.13
  -2  -2   4 1188.02    9.00
   2   2  -4 1171.29    9.57
   2   2  -3  427.72    5.42
  -2  -2   3  427.94    5.34
  -2  -2   2  104.16    2.29
   2   2  -2  104.70    2.57
   2   2  -1 1258.79    8.58
   2   2   0 4951.54   16.72
   2   2   1 9999.00   23.07
   2   2   2 2665.39   12.29
   2   2   2 2683.37   11.58
   2   2   3  321.51    4.23
   2   2   3  315.41    4.64
   2   2   4   12.11    0.99
   2   2   4   13.68    0.87
   2   2   4   13.47    1.05
   2   2   5  849.38    9.07
   2   2   5  860.32    9.07
   2   2   6  766.34    9.23
   2   2   7   15.05    1.42
   2   2   8  189.49    3.51
   2   2   8  184.63    3.37
   2   2   9    0.49    0.25
   2   2   9    0.32    0.30
   2   2  10    1.18    0.36
   2   2  10    1.23    0.35
   2   2  11   66.02    2.03
   2   2  11   66.30    1.93
   2   2  12    0.93    0.28
   2   2  12    1.07    0.25
  -2  -3  12    4.36    0.41
  -2  -3  11   59.33    1.54
  -2  -3  11   59.56    1.88
  -2  -3  10  188.09    3.25
  -2  -3   9   19.42    1.14
  -2  -3   8  250.22    4.05
  -2  -3   7  269.47    6.83
  -2  -3   7  265.88    4.08
  -2  -3   6  206.26    5.60
   2   3  -5   77.28    2.87
  -2  -3   5   80.62    3.21
   2   3  -4  167.82    3.96
   2   3  -3  213.29    4.21
   2   3  -2  840.33    8.12
   2   3  -1  786.29    7.49
   2   3   0 1251.99    9.11
   2   3   1  162.45    3.22
   2   3   2  250.65    3.91
   2   3   2  250.83    4.16
   2   3   3   96.25    2.34
   2   3   3   96.75    2.85
   2   3   4  261.50    4.59
   2   3   4  270.66    4.09
   2   3   4  259.87    5.07
   2   3   5   34.38    2.00
   2   3   5   32.64    1.79
   2   3   6  516.94    8.36
   2   3   7    1.87    0.58
   2   3   8    2.83    0.44
   2   3   8    3.62    0.46
   2   3   8    2.93    0.73
   2   3   9    1.98    0.36
   2   3   9    0.38    0.25
   2   3  10    4.97    0.64
   2   3  11   10.35    0.82
   2   3  12   67.28    1.75
  -2  -4  11   18.76    0.97
  -2  -4  10    0.86    0.37
  -2  -4   9  119.97    3.16
  -2  -4   9  125.45    2.77
  -2  -4   8   80.83    2.31
  -2  -4   8   77.73    2.34
  -2  -4   7   11.36    0.88
  -2  -4   6   88.50    2.36
   2   4  -5  259.88    5.82
   2   4  -4   46.38    2.34
   2   4  -3  127.85    3.74
   2   4  -2  398.75    6.43
   2   4  -1  693.30    8.13
   2   4   0   19.45    1.29
   2   4   1   78.19    2.49
   2   4   1   81.00    2.44
   2   4   2  638.13    7.41
   2   4   2  642.14    7.01
   2   4   3  224.61    4.03
   2   4   3  222.21    4.73
   2   4   4  169.91    3.75
   2   4   4  173.92    4.53
   2   4   5  653.61    7.73
   2   4   5  636.71    9.34
   2   4   6  629.60    9.95
   2   4   7  103.77    4.28
   2   4   7  104.12    2.52
   2   4   7  113.26    2.67
   2   4   8    2.55    0.42
   2   4   8    3.36    0.48
   2   4   8    3.17    0.82
   2   4   9    0.07    0.22
   2   4  10    6.91    0.75
   2   4  11  135.53    2.83
   2   4  12    1.09    0.25
  -2  -5  11   15.30    0.74
  -2  -5  10   26.16    1.23
  -2  -5   9   26.20    1.40
  -2  -5   9   27.19    1.29
  -2  -5   8    1.00    0.31
  -2  -5   8    0.67    0.31
  -2  -5   7    0.07    0.34
  -2  -5   7    0.30    0.25
  -2  -5   6   71.56    2.36
  -2  -5   6   73.99    2.22
  -2  -5   5    5.68    0.65
   2   5  -5    4.99    0.90
  -2  -5   5    5.66    0.62
   2   5  -4   52.98    2.78
   2   5  -3   45.23    2.52
   2   5  -2  432.38    7.48
   2   5  -1  126.59    3.92
   2   5   0    4.90    0.78
   2   5   1   45.61    2.16
   2   5   2  513.02    7.10
   2   5   2  518.91    7.26
   2   5   3  529.40    7.96
   2   5   3  566.66    7.28
   2   5   4  656.39    9.52
   2   5   5   33.11    2.31
   2   5   6    1.14    0.32
   2   5   6    0.62    0.23
   2   5   7  114.41    2.83
   2   5   7  116.14    4.84
   2   5   7  119.53    2.96
   2   5   8  363.18    5.04
   2   5   9   70.62    2.18
   2   5   9   70.76    2.29
   2   5  10  172.11    3.40
   2   5  11    2.27    0.41
   2   5  12   43.32    1.20
  -2  -6  10    0.39    0.17
  -2  -6   9   23.90    1.12
  -2  -6   9   21.81    1.13
  -2  -6   8   32.44    1.53
  -2  -6   8   31.73    1.52
  -2  -6   7  198.15    3.96
  -2  -6   7  197.44    3.98
  -2  -6   6    7.02    0.78
  -2  -6   6    8.17    0.83
   2   6  -5   51.37    3.11
  -2  -6   5   54.06    2.06
  -2  -6   4  249.94    4.22
   2   6  -4  262.24    6.80
   2   6  -3  329.53    7.48
   2   6  -2  113.64    4.24
   2   6  -1  154.16    4.83
   2   6   0    3.53    0.75
   2   6   1 1305.95   12.89
   2   6   2  394.92    6.88
   2   6   2  397.07    7.06
   2   6   3   17.61    1.58
   2   6   4   82.66    2.39
   2   6   4   79.75    3.57
   2   6   4   81.26    2.37
   2   6   5   77.73    2.39
   2   6   5   76.06    3.70
   2   6   5   77.63    2.40
   2   6   6   20.39    1.25
   2   6   6   21.63    1.30
   2   6   6   19.62    1.99
   2   6   7   23.29    1.34
   2   6   8   35.46    1.62
   2   6   9   20.07    1.22
   2   6   9   19.77    1.16
   2   6  10    4.40    0.53
   2   6  11   44.74    1.36
  -2  -7   9   10.13    0.64
  -2  -7   8   58.46    1.87
  -2  -7   8   54.37    1.68
  -2  -7   7   30.26    1.40
  -2  -7   7   32.56    1.58
  -2  -7   6   75.57    2.53
  -2  -7   6   68.39    2.21
  -2  -7   5    0.90    0.29
  -2  -7   5    0.58    0.29
  -2  -7   4   80.58    2.40
  -2  -7   4   89.08    2.75
   2   7  -3   13.91    1.64
   2   7  -2   58.79    3.35
   2   7  -1   50.14    1.90
   2   7  -1   60.38    3.33
   2   7   0  631.68   10.39
   2   7   0  582.76    6.51
   2   7   1  334.50    7.43
   2   7   1  311.15    4.76
   2   7   2  199.02    3.82
   2   7   2  205.67    5.73
   2   7   3    7.28    0.76
   2   7   3    7.28    0.73
   2   7   4    3.40    0.55
   2   7   4    3.03    0.52
   2   7   4    2.78    0.73
   2   7   5   41.34    1.85
   2   7   5   39.77    1.79
   2   7   6  159.47    3.58
   2   7   7   17.64    1.20
   2   7   8  114.11    2.82
   2   7   9    6.90    0.66
   2   7  10   10.33    0.70
   2   7  10    9.57    0.62
   2   7  11    0.67    0.16
  -2  -8   8    1.51    0.27
  -2  -8   7    0.91    0.29
  -2  -8   6    0.67    0.31
  -2  -8   5    0.36    0.29
  -2  -8   5    0.48    0.23
  -2  -8   4   32.98    1.66
  -2  -8   3  132.96    3.28
  -2  -8   2    0.31    0.24
   2   8  -1   99.74    2.63
  -2  -8   1  103.77    2.74
   2   8   0    3.37    0.52
   2   8   1   44.65    1.84
   2   8   2    0.35    0.24
   2   8   3    1.62    0.41
  -2  -8  -3    1.73    0.39
   2   8   4   16.10    1.16
   2   8   5  263.22    4.63
   2   8   6  471.44    6.05
   2   8   7  246.06    4.16
   2   8   8   87.87    2.27
   2   8   9   58.51    1.56
   2   8   9   61.40    1.63
   2   8  10   89.08    1.52
   2   8  10   89.46    1.52
  -2  -9   7    0.25    0.13
  -2  -9   6   25.57    1.11
  -2  -9   5  134.78    2.81
  -2  -9   5  133.56    2.47
  -2  -9   4   35.30    1.48
  -2  -9   4   32.87    1.48
  -2  -9   3    4.79    0.59
  -2  -9   3    4.91    0.65
  -2  -9   2  186.35    3.57
  -2  -9   2  191.21    3.91
  -2  -9   1   46.97    1.99
   2   9   0   66.10    2.06
  -2  -9   0   69.35    2.43
   2   9   1   19.92    1.19
  -2  -9  -1   20.64    1.33
   2   9   2    1.96    0.40
  -2  -9  -2    1.41    0.37
   2   9   3   96.44    2.67
  -2  -9  -3   88.26    2.53
   2   9   4   77.13    2.34
   2   9   5   30.38    1.45
   2   9   6  195.14    3.43
   2   9   7   17.67    0.96
   2   9   8    3.99    0.38
   2   9   8    3.70    0.39
  -2 -10   4    4.75    0.42
  -2 -10   4    5.42    0.45
  -2 -10   3   75.00    1.68
  -2 -10   3   84.55    2.02
  -2 -10   2   11.39    0.83
  -2 -10   1    0.12    0.23
  -2 -10   0    5.83    0.65
  -2 -10  -1    3.55    0.52
   2  10   2   41.74    1.42
  -2 -10  -2   41.19    1.55
   2  10   3  175.27    2.92
  -2 -10  -3  169.05    2.87
   2  10   4   65.43    1.75
   2  10   5    0.10    0.12
   2  10   5    0.32    0.19
   2  10   6    0.15    0.12
   2  10   6    0.07    0.11
  -2 -11   1    6.45    0.46
  -2 -11   0    0.11    0.12
  -2 -11  -1    1.94    0.26
   3  -9  -1   51.57    1.23
   3  -9   0   73.90    1.48
   3  -8  -4   19.45    0.82
   3  -8  -3    9.56    0.66
   3  -8  -2   11.83    0.78
   3  -8  -1   87.76    2.19
   3  -8   0  158.90    2.94
   3  -8   1   19.73    1.02
   3  -8   2   42.74    1.42
   3  -8   3   43.77    1.30
   3  -8   4   81.27    1.56
   3  -7  -7  187.63    2.49
   3  -7  -6   21.69    0.95
   3  -7  -5   36.27    1.29
   3  -7  -4    1.35    0.29
   3  -7  -4    1.29    0.30
   3  -7  -3  122.42    2.77
   3  -7  -2  137.40    3.05
   3  -7  -1    4.27    0.60
   3  -7   0   55.95    2.03
   3  -7   1    3.81    0.59
   3  -7   2    3.28    0.45
   3  -7   2    2.83    0.47
   3  -7   3    2.63    0.42
   3  -7   3    2.43    0.40
   3  -7   4   53.51    1.77
   3  -7   4   52.42    1.58
   3  -7   5   43.71    1.54
   3  -7   6    0.87    0.24
   3  -7   7    6.76    0.49
   3  -6  -9    1.41    0.21
   3  -6  -8    1.93    0.30
   3  -6  -7  187.45    3.10
  -3   6   6   40.09    1.59
   3  -6  -6   40.16    1.57
   3  -6  -5    3.28    0.44
  -3   6   5    3.94    0.55
   3  -6  -4   42.80    1.66
  -3   6   4   40.96    1.68
  -3   6   3  312.11    4.56
   3  -6  -3  335.29    4.84
   3  -6  -2  109.17    2.85
  -3   6   2   89.38    2.36
   3  -6  -1   23.65    1.36
   3  -6   0    9.28    0.86
   3  -6   1   64.56    2.22
   3  -6   2  267.28    4.33
   3  -6   2  259.87    4.39
   3  -6   3  114.58    2.91
   3  -6   3  112.41    2.81
   3  -6   4    4.72    0.62
   3  -6   4    5.14    0.57
   3  -6   5    0.27    0.25
   3  -6   6   34.27    1.53
   3  -6   7   45.08    1.60
   3  -6   8    5.60    0.50
   3  -5 -10  308.47    2.76
   3  -5  -9  251.74    3.23
   3  -5  -8   18.97    1.03
  -3   5   7    3.94    0.54
  -3   5   6    5.90    0.67
   3  -5  -5   69.46    2.05
  -3   5   5   77.48    2.36
   3  -5  -4    0.75    0.24
  -3   5   4    1.18    0.33
   3  -5  -3   53.15    1.91
  -3   5   3   52.26    1.87
   3  -5  -2    0.66    0.27
  -3   5   2    0.78    0.26
  -3   5   1    9.03    1.29
  -3   5   1    9.27    0.74
   3  -5  -1    9.40    0.83
   3  -5   0    2.79    0.46
   3  -5   1   81.71    4.01
   3  -5   1   81.94    2.30
   3  -5   1   80.16    2.36
   3  -5   2   88.91    2.53
  -3   5  -2   91.90    4.33
   3  -5   2   92.96    4.36
   3  -5   2   87.44    2.46
   3  -5   3    1.30    0.36
   3  -5   3    1.41    0.34
   3  -5   4   62.28    2.24
   3  -5   4   62.85    2.00
   3  -5   5    1.70    0.42
   3  -5   6    2.71    0.53
   3  -5   7   54.83    2.00
   3  -5   8  106.35    2.50
   3  -5   9   27.01    1.07
  -3   4  10   11.50    0.62
   3  -4 -10   10.19    0.60
   3  -4  -9  157.11    2.81
  -3   4   9  167.63    2.72
   3  -4  -8    1.16    0.33
  -3   4   8    1.39    0.32
  -3   4   7  103.26    2.64
  -3   4   6   13.16    0.97
  -3   4   5  282.17    8.04
  -3   4   5  289.49    4.43
  -3   4   4  271.78    7.52
  -3   4   4  282.52    4.29
  -3   4   3  111.83    4.54
   3  -4  -3  107.12    2.57
  -3   4   3  109.60    2.59
  -3   4   2   29.36    2.21
   3  -4  -2   26.05    1.28
  -3   4   2   27.74    1.26
   3  -4  -1    3.48    0.76
   3  -4  -1    3.79    0.49
  -3   4   1    3.89    0.76
   3  -4   0  645.36   10.29
   3  -4   1  328.14    7.54
   3  -4   1  316.51    4.33
   3  -4   2    0.92    0.27
   3  -4   2    0.90    0.48
   3  -4   2    0.64    0.23
   3  -4   3   77.50    2.32
   3  -4   3   70.45    2.07
   3  -4   4  278.72    7.31
   3  -4   4  276.64    4.58
   3  -4   5  412.75    5.70
   3  -4   5  422.51    9.11
   3  -4   6   11.92    1.01
   3  -4   7   58.20    2.15
   3  -4   8   45.86    1.79
   3  -4   9   10.90    0.78
   3  -4   9   11.26    0.70
   3  -4  10    3.09    0.33
  -3   3  11   63.95    1.41
   3  -3 -10    2.17    0.31
  -3   3  10    3.34    0.40
  -3   3   9   10.01    0.75
   3  -3  -9    8.67    0.70
   3  -3  -8   17.15    1.07
  -3   3   8   21.98    1.15
  -3   3   7  175.30    3.38
  -3   3   6   17.45    2.01
  -3   3   6   15.80    1.03
  -3   3   5  506.69   10.35
  -3   3   5  511.09    5.63
  -3   3   4  375.16    8.32
  -3   3   4  403.10    4.80
  -3   3   3   73.10    3.42
  -3   3   2  126.23    4.10
   3  -3  -2  123.14    3.74
   3  -3  -1  472.44    7.67
  -3   3   1  471.20    7.40
   3  -3   0  269.53    5.87
  -3   3   0  260.95    5.09
   3  -3   1   17.84    1.57
   3  -3   2    9.83    1.22
   3  -3   3  320.81    7.04
   3  -3   4  418.08    5.26
   3  -3   4  438.96    8.59
   3  -3   5  400.59    4.87
   3  -3   5  418.04    8.65
   3  -3   5  409.69    5.43
   3  -3   6   39.70    1.75
   3  -3   6   40.97    1.70
   3  -3   6   39.00    2.63
   3  -3   6   41.68    1.59
   3  -3   7  155.97    3.47
   3  -3   7  158.24    3.37
   3  -3   7  157.85    3.18
   3  -3   8  233.59    3.86
   3  -3   8  227.32    4.07
   3  -3   9  131.44    2.83
   3  -3   9  137.71    2.85
   3  -3  10   24.49    1.10
   3  -3  11    3.10    0.34
  -3   2  11  137.74    2.34
  -3   2  10    2.68    0.40
  -3   2   9   29.06    1.34
   3  -2  -9   25.07    1.16
   3  -2  -8  213.28    3.58
  -3   2   7  492.29   10.58
  -3   2   7  486.95    5.40
  -3   2   6  287.49    7.81
  -3   2   6  280.01    4.00
  -3   2   5   13.39    1.59
  -3   2   4   15.42    1.55
  -3   2   3  183.85    5.00
   3  -2  -2 1109.68   10.40
  -3   2   2 1173.29   11.64
  -3   2   1  240.31    4.97
   3  -2  -1  245.74    5.00
  -3   2   0   47.34    2.13
   3  -2   0   47.27    2.28
   3  -2   1   66.12    2.03
  -3   2  -1   60.45    2.22
   3  -2   1   65.12    2.77
   3  -2   2    4.04    0.56
   3  -2   2    4.95    0.81
   3  -2   3   57.83    2.78
   3  -2   4  426.82    7.55
   3  -2   5    7.53    1.07
   3  -2   6    3.50    0.53
   3  -2   6    3.95    0.51
   3  -2   6    3.87    0.82
   3  -2   6    3.62    0.48
   3  -2   6    4.13    0.52
   3  -2   7  162.13    3.25
   3  -2   7  155.52    3.21
   3  -2   8   64.68    2.12
   3  -2   8   70.48    2.17
   3  -2   8   67.31    2.17
   3  -2   9   47.41    1.80
   3  -2   9   49.33    1.73
   3  -2  10   98.78    2.44
   3  -2  11   11.01    0.73
   3  -2  12    0.58    0.16
  -3   1  12   28.11    0.91
  -3   1  11   50.90    1.51
  -3   1  10   78.55    2.12
  -3   1   9   30.17    1.40
   3  -1  -8  118.73    2.59
  -3   1   7  378.64    4.39
  -3   1   7  381.86    8.92
  -3   1   6   88.87    4.02
  -3   1   6   95.07    2.21
  -3   1   5   73.85    3.37
  -3   1   4   92.79    3.53
  -3   1   3 2002.83   15.45
   3  -1  -3 1848.91   11.98
  -3   1   2  186.29    4.47
   3  -1  -2  177.82    3.89
   3  -1  -1    1.31    0.36
   3  -1   0    4.30    0.66
   3  -1   1    4.39    0.67
   3  -1   2  338.74    5.13
   3  -1   2  355.60    6.18
   3  -1   3  628.58    8.32
   3  -1   3  603.11    7.23
   3  -1   4   43.57    2.26
   3  -1   4   42.05    2.12
   3  -1   5  468.00    7.67
   3  -1   6   44.83    2.41
   3  -1   7   38.54    1.57
   3  -1   7   40.33    1.65
   3  -1   8   34.12    1.56
   3  -1   9  190.60    3.72
   3  -1  10  163.30    3.31
   3  -1  11    0.15    0.29
   3  -1  12    1.46    0.26
  -3   0  12   60.53    1.38
  -3   0  11    0.08    0.18
  -3   0  10   83.25    2.26
  -3   0   9   43.32    1.70
  -3   0   8   99.87    2.55
  -3   0   7    8.44    1.27
  -3   0   7    8.79    1.14
  -3   0   6   76.18    3.46
  -3   0   5   17.16    1.55
  -3   0   4  121.71    3.83
   3   0  -3   25.59    1.33
   3   0  -2   32.55    1.48
   3   0  -1  111.63    2.85
   3   0   0    4.30    0.57
   3   0   1   34.76    1.69
   3   0   2 1955.29   13.31
   3   0   3    4.69    0.71
   3   0   3    4.62    0.66
   3   0   4   81.31    2.88
   3   0   4   92.72    3.09
   3   0   5    7.26    0.88
   3   0   5    6.51    0.91
   3   0   5    6.72    0.75
   3   0   6   20.98    1.54
   3   0   6   24.41    1.60
   3   0   7  163.38    3.28
   3   0   8   56.12    1.99
   3   0   9   22.84    1.17
   3   0   9   22.95    1.31
   3   0  10   21.54    1.26
   3   0  11   83.58    2.25
   3   0  12   40.15    1.33
  -3  -1  12   79.71    1.55
  -3  -1  11   21.23    1.02
  -3  -1  10    4.91    0.57
  -3  -1   9  244.59    4.04
  -3  -1   8  126.57    2.87
  -3  -1   7  183.66    5.43
  -3  -1   7  179.22    3.31
  -3  -1   6   99.46    3.62
  -3  -1   6  101.40    3.73
  -3  -1   5 2075.01   14.57
  -3  -1   5 2069.44   15.70
   3   1  -4  668.44    7.37
   3   1  -4  674.41    7.62
  -3  -1   3  782.35    6.69
   3   1  -3  756.73    7.94
  -3  -1   2   23.12    0.96
   3   1  -2   21.32    1.33
   3   1  -2   21.16    1.30
   3   1  -1  110.41    2.94
   3   1  -1  113.16    3.00
   3   1   0 1640.87   11.54
   3   1   1  334.59    5.37
   3   1   2    2.64    0.48
   3   1   3  107.37    1.87
   3   1   3   92.37    2.74
   3   1   4  381.21    6.38
   3   1   4  392.82    5.95
   3   1   5  339.27    5.21
   3   1   5  322.02    5.57
   3   1   6   16.79    1.56
   3   1   6   21.08    1.49
   3   1   7  439.53    5.31
   3   1   8   16.74    1.01
   3   1   8   16.99    1.13
   3   1   9   12.07    0.88
   3   1   9   12.64    0.96
   3   1  10    5.02    0.57
   3   1  10    5.90    0.67
   3   1  11    4.33    0.54
   3   1  12   31.48    1.18
  -3  -2  12   64.13    1.28
  -3  -2  12   70.05    1.51
  -3  -2  11   60.54    1.67
  -3  -2  10   17.30    1.03
  -3  -2   9    5.18    0.62
  -3  -2   8  465.55    5.62
  -3  -2   7  284.86    4.23
  -3  -2   7  277.64    6.58
  -3  -2   6   18.60    1.04
  -3  -2   6   18.61    1.58
  -3  -2   5   48.38    2.30
  -3  -2   5   50.99    2.37
   3   2  -4  454.65    6.77
  -3  -2   4  448.29    6.15
   3   2  -3    0.48    0.26
  -3  -2   3    1.32    0.31
   3   2  -2  109.71    3.14
   3   2  -1  105.88    2.99
   3   2   0  779.23    7.93
   3   2   1 1160.74    9.60
   3   2   2  194.04    3.88
   3   2   2  196.66    4.04
   3   2   3   73.55    2.57
   3   2   4  253.48    5.11
   3   2   4  252.31    4.51
   3   2   5  285.11    5.79
   3   2   5  304.76    5.19
   3   2   6    0.79    0.37
   3   2   7   11.86    0.87
   3   2   8   95.05    2.48
   3   2   8   92.75    2.54
   3   2   9  304.57    4.50
   3   2   9  306.94    4.64
   3   2  10  303.00    4.38
   3   2  10  320.09    4.60
   3   2  11   38.05    1.44
   3   2  11   41.51    1.53
   3   2  12    0.36    0.18
  -3  -3  12    0.23    0.10
  -3  -3  11   38.28    1.38
  -3  -3  11   37.39    1.21
  -3  -3  10    6.29    0.62
  -3  -3   9    0.48    0.28
  -3  -3   8  165.30    3.40
  -3  -3   7 1313.38    9.40
  -3  -3   6  161.75    3.19
   3   3  -5  152.17    4.42
   3   3  -4    0.01    0.19
   3   3  -3   84.89    3.05
   3   3  -2  448.44    6.74
   3   3  -1   34.12    1.82
   3   3   0   96.19    3.00
   3   3   1  551.99    7.04
   3   3   2  469.03    6.23
   3   3   3   73.11    2.45
   3   3   4  149.69    3.81
   3   3   5  488.56    7.65
   3   3   5  490.35    6.34
   3   3   6    0.80    0.36
   3   3   7   17.51    1.06
   3   3   8  158.98    3.31
   3   3   8  163.29    3.29
   3   3   9  202.63    3.78
   3   3   9  207.27    3.71
   3   3  10  504.88    5.80
   3   3  10  519.15    5.64
   3   3  11    8.30    0.69
   3   3  11    7.82    0.63
   3   3  12   10.99    0.66
  -3  -4  11    4.68    0.45
  -3  -4  11    4.48    0.37
  -3  -4  10   83.74    2.01
  -3  -4  10   84.59    2.24
  -3  -4   9   59.53    2.11
  -3  -4   9   60.83    1.97
  -3  -4   8  146.46    3.10
  -3  -4   8  150.46    3.25
  -3  -4   7  115.19    2.88
  -3  -4   6  370.46    5.03
   3   4  -5   16.45    1.59
  -3  -4   5   16.61    1.04
   3   4  -4   44.06    2.47
   3   4  -3  395.30    7.15
   3   4  -2  953.80   10.68
   3   4  -1   81.12    3.04
   3   4   0   19.77    1.47
   3   4   1  240.57    4.95
   3   4   2  169.32    4.11
   3   4   3  764.26    8.38
   3   4   4   38.45    1.82
   3   4   4   35.59    2.10
   3   4   5   77.34    3.06
   3   4   5   81.71    3.36
   3   4   6  127.35    4.45
   3   4   6  128.00    4.21
   3   4   7  455.22    5.46
   3   4   8  118.76    2.80
   3   4   9  125.51    3.00
   3   4  10    6.70    0.72
   3   4  11    4.56    0.51
   3   4  12    6.54    0.50
  -3  -5  10    9.21    0.68
  -3  -5   9  193.31    3.48
  -3  -5   9  192.45    3.17
  -3  -5   9  193.29    3.22
  -3  -5   8   54.14    1.99
  -3  -5   8   56.16    1.92
  -3  -5   8   53.96    1.92
  -3  -5   7   35.17    1.65
  -3  -5   7   38.10    1.67
  -3  -5   6   25.60    1.42
  -3  -5   6   26.46    1.40
  -3  -5   5  175.74    3.50
   3   5  -5  177.29    5.58
   3   5  -4   91.16    3.83
  -3  -5   4   93.39    2.51
   3   5  -3   55.22    2.87
   3   5  -2   64.33    3.03
   3   5  -1  124.19    4.06
   3   5   0  133.16    4.12
   3   5   1   12.20    1.25
   3   5   2  346.77    6.42
   3   5   3  158.80    4.26
   3   5   4   40.03    2.16
   3   5   4   41.10    2.42
   3   5   5   13.93    1.51
   3   5   5   13.79    0.97
   3   5   6  187.61    3.55
   3   5   6  192.05    5.83
   3   5   6  200.72    3.79
   3   5   7   71.37    2.21
   3   5   7   73.66    2.36
   3   5   7   67.74    3.65
   3   5   8  113.52    2.87
   3   5   8  104.63    2.61
   3   5   9   58.06    1.85
   3   5   9   57.59    2.06
   3   5  10    0.43    0.28
   3   5  11  117.68    2.39
   3   5  12   26.84    0.91
  -3  -6  10    0.45    0.14
  -3  -6   9    9.42    0.67
  -3  -6   9    8.91    0.67
  -3  -6   8   20.69    1.16
  -3  -6   8   22.97    1.15
  -3  -6   8   20.49    1.14
  -3  -6   7   97.15    2.63
  -3  -6   7   96.45    2.73
  -3  -6   7  104.00    2.71
  -3  -6   6   26.31    1.39
  -3  -6   6   29.12    1.50
  -3  -6   5   73.87    2.42
  -3  -6   4   25.19    1.42
   3   6  -4   27.81    2.29
   3   6  -3    6.94    1.13
  -3  -6   3    7.04    0.75
   3   6  -2   48.35    2.83
   3   6  -2   44.17    1.76
  -3  -6   2   50.44    1.97
   3   6  -1    6.71    1.06
   3   6   0  220.57    5.79
   3   6   1  103.10    3.94
   3   6   2    7.84    1.08
   3   6   3   20.92    1.20
   3   6   3   23.41    1.80
   3   6   4   23.96    1.31
   3   6   4   22.05    1.28
   3   6   5   51.47    1.96
   3   6   5   52.73    2.02
   3   6   6    2.73    0.49
   3   6   6    2.84    0.51
   3   6   7  110.64    2.87
   3   6   7  120.31    3.11
   3   6   8    7.27    0.72
   3   6   8    7.29    0.77
   3   6   9   51.73    1.75
   3   6   9   54.46    1.94
   3   6  10    3.07    0.45
   3   6  11    4.32    0.43
  -3  -7   9   -0.09    0.13
  -3  -7   8   48.76    1.63
  -3  -7   8   46.18    1.40
  -3  -7   7   80.38    2.37
  -3  -7   7   76.23    2.04
  -3  -7   6    2.85    0.53
  -3  -7   6    2.81    0.44
  -3  -7   6    3.21    0.49
  -3  -7   5   11.01    0.95
   3   7  -4    7.67    0.76
  -3  -7   4    8.92    0.87
   3   7  -3   16.62    1.14
   3   7  -2   17.35    1.19
   3   7  -2   21.87    2.09
   3   7  -1   85.90    2.62
   3   7  -1   92.68    4.21
   3   7   0  248.05    4.43
   3   7   0  263.93    6.96
   3   7   1  100.53    2.82
   3   7   1  104.57    4.35
   3   7   2   35.08    1.65
   3   7   2   31.90    1.48
   3   7   2   36.47    2.51
   3   7   3   29.20    1.52
   3   7   3   26.97    1.43
   3   7   4  220.42    4.16
   3   7   4  219.05    4.20
   3   7   5  242.35    4.47
   3   7   5  252.98    4.56
   3   7   6  316.44    5.08
   3   7   6  318.79    5.17
   3   7   7    2.21    0.45
   3   7   7    3.00    0.56
   3   7   8    1.88    0.39
   3   7   9  155.10    2.89
   3   7   9  158.96    3.07
   3   7  10  184.47    2.90
   3   7  11   17.31    0.69
  -3  -8   8   25.24    0.96
  -3  -8   7   76.49    2.05
  -3  -8   6   94.11    2.54
  -3  -8   5   96.38    2.73
  -3  -8   4   20.50    1.31
   3   8  -3   75.51    2.32
   3   8  -2   97.17    2.74
   3   8  -1  124.70    3.16
   3   8   0    4.98    0.66
   3   8   1    3.19    0.56
   3   8   2   47.53    1.99
   3   8   2   44.46    1.76
   3   8   3    5.88    0.74
   3   8   3    6.34    0.70
   3   8   4   72.61    2.48
   3   8   4   67.77    2.32
   3   8   5  169.22    3.79
   3   8   5  183.54    3.86
   3   8   6   60.87    2.20
   3   8   7    0.11    0.28
   3   8   8    0.10    0.20
   3   8   9   47.88    1.47
   3   8  10   12.24    0.60
   3   8  10   11.73    0.55
  -3  -9   7    3.25    0.33
  -3  -9   6   12.79    0.79
  -3  -9   5    0.02    0.19
  -3  -9   5    0.08    0.14
  -3  -9   4   38.50    1.59
  -3  -9   4   38.34    1.53
  -3  -9   3   59.30    2.01
   3   9  -2  194.00    3.40
  -3  -9   2  202.73    3.70
   3   9  -1   89.36    2.46
   3   9   0    5.88    0.67
   3   9   1    1.94    0.43
   3   9   2   70.81    2.35
   3   9   3   26.99    1.47
  -3  -9  -3   23.24    1.27
   3   9   4   56.20    2.08
   3   9   5    0.62    0.31
   3   9   6   14.27    0.98
   3   9   7   51.49    1.65
   3   9   8   18.18    0.86
   3   9   8   18.50    0.85
   3   9   9    6.28    0.41
  -3 -10   4    5.29    0.46
  -3 -10   4    5.62    0.47
  -3 -10   3   33.74    1.20
  -3 -10   3   37.38    1.38
  -3 -10   2  122.98    2.70
  -3 -10   1   59.82    1.97
   3  10   0   25.98    1.14
  -3 -10   0   27.78    1.38
   3  10   1    5.66    0.57
  -3 -10  -1    5.96    0.65
   3  10   2   79.24    2.14
  -3 -10  -2   76.50    2.16
   3  10   3   59.14    1.84
  -3 -10  -3   53.82    1.64
   3  10   4    4.65    0.53
   3  10   5   26.80    1.14
   3  10   6    4.28    0.40
   3  10   6    3.84    0.41
   3  10   7   15.68    0.70
   3  10   7   14.52    0.63
   3  10   7   13.79    0.60
  -3 -11   2    1.72    0.23
  -3 -11   1    3.78    0.38
  -3 -11   0   43.03    1.28
  -3 -11  -1   16.59    0.78
  -3 -11  -2   49.96    1.21
   4  -8  -2    6.07    0.44
   4  -8  -1   73.92    1.61
   4  -8   0    2.31    0.32
   4  -8   1    6.33    0.46
   4  -7  -4  226.49    2.93
   4  -7  -3  188.65    2.99
   4  -7  -2    0.81    0.26
   4  -7  -1   14.17    0.91
   4  -7   0   13.71    0.92
   4  -7   1   21.67    1.10
   4  -7   2   16.15    0.90
   4  -7   3    9.90    0.65
   4  -7   3    9.77    0.62
   4  -7   4   43.35    1.28
   4  -7   5   10.03    0.58
   4  -6  -7    4.01    0.38
   4  -6  -6   32.24    1.16
   4  -6  -5    0.58    0.21
   4  -6  -5    0.71    0.20
   4  -6  -4   94.06    2.17
   4  -6  -4   89.87    2.25
   4  -6  -3  224.91    3.29
   4  -6  -3  212.55    3.69
   4  -6  -2    7.04    0.72
   4  -6  -1   30.50    1.48
   4  -6   0  160.53    3.40
   4  -6   1  229.67    4.01
   4  -6   2  121.26    2.71
   4  -6   2  119.98    2.81
   4  -6   3   17.87    1.06
   4  -6   3   17.71    1.02
   4  -6   4   25.67    1.27
   4  -6   4   27.02    1.14
   4  -6   5   72.41    2.05
   4  -6   6   12.44    0.79
   4  -6   7    6.38    0.50
   4  -5  -9   13.01    0.58
   4  -5  -8    5.87    0.49
   4  -5  -7   11.73    0.78
   4  -5  -6  252.17    3.82
   4  -5  -5  129.11    2.83
   4  -5  -5  120.96    2.62
   4  -5  -4   15.25    0.99
   4  -5  -4   15.19    1.01
   4  -5  -3   70.20    2.10
   4  -5  -3   68.42    2.19
   4  -5  -2    6.39    0.63
   4  -5  -2    5.31    0.67
   4  -5  -1  246.73    4.26
   4  -5   0  282.16    4.58
   4  -5   1   14.39    0.98
   4  -5   1   13.90    1.01
   4  -5   2   20.77    1.23
   4  -5   2   18.93    1.16
   4  -5   3    0.03    0.29
   4  -5   3    0.43    0.24
   4  -5   4   11.13    0.93
   4  -5   4   11.47    0.82
   4  -5   5    2.22    0.46
   4  -5   6  112.02    2.81
   4  -5   7   22.49    1.16
   4  -5   8    1.81    0.31
   4  -4  -9    0.14    0.16
   4  -4  -8  117.58    2.43
   4  -4  -7    1.53    0.37
   4  -4  -6   47.78    1.78
   4  -4  -5   93.02    2.51
   4  -4  -5   87.65    2.34
  -4   4   4   63.64    2.08
   4  -4  -4   67.89    2.13
   4  -4  -4   63.95    2.09
   4  -4  -3  197.56    3.54
   4  -4  -3  194.82    3.66
   4  -4  -2   61.15    1.96
   4  -4  -2   61.56    2.08
   4  -4  -1  775.49   12.12
   4  -4  -1  853.06    7.64
   4  -4   0  131.68    5.21
   4  -4   0  142.17    3.12
   4  -4   1   30.77    2.56
   4  -4   1   30.95    1.45
   4  -4   1   31.18    1.45
   4  -4   2   11.30    0.91
   4  -4   2   11.52    1.60
   4  -4   2   10.11    0.83
   4  -4   3    3.61    0.55
   4  -4   3    3.15    0.47
   4  -4   4   15.78    1.12
   4  -4   5    3.91    0.58
   4  -4   6  110.06    2.93
   4  -4   7    5.93    0.68
   4  -4   8    1.74    0.38
   4  -4   9   14.05    0.76
  -4   3  10   58.74    1.26
   4  -3 -10   54.03    1.21
   4  -3  -9    1.42    0.28
  -4   3   9    1.92    0.30
  -4   3   8  120.68    2.35
   4  -3  -8  118.08    2.60
   4  -3  -7   24.63    1.27
   4  -3  -6   12.16    0.92
   4  -3  -5  192.96    3.59
   4  -3  -5  187.16    3.40
  -4   3   5  188.39    3.53
  -4   3   4  290.52    8.07
   4  -3  -4  283.37    4.30
   4  -3  -4  279.08    4.28
  -4   3   4  293.63    4.40
  -4   3   3  475.07    9.72
   4  -3  -3  496.12    5.51
   4  -3  -3  504.83    5.68
  -4   3   3  472.39    5.40
  -4   3   2   20.17    1.88
   4  -3  -2   21.26    1.10
   4  -3  -2   18.56    1.09
   4  -3  -1  204.13    5.77
   4  -3  -1  224.16    3.46
   4  -3  -1  231.61    3.80
  -4   3   1  206.35    5.64
   4  -3   0   93.63    3.99
   4  -3   0   99.03    2.45
   4  -3   1   23.99    1.22
   4  -3   1   21.98    1.98
   4  -3   1   25.01    1.23
   4  -3   2  166.07    3.27
   4  -3   2  159.51    5.52
   4  -3   2  153.14    3.03
   4  -3   3  387.01    5.13
   4  -3   3  373.70    4.72
   4  -3   3  376.64    8.60
   4  -3   4  595.84    6.21
   4  -3   4  608.44    6.60
   4  -3   5  330.14    4.70
   4  -3   5  330.59    5.04
   4  -3   6  198.49    3.91
   4  -3   7  107.98    2.87
   4  -3   8  111.81    2.75
   4  -3   8  113.72    2.47
   4  -3   9   15.67    0.89
   4  -3   9   16.76    0.87
   4  -3  10   -0.06    0.11
  -4   2  11    2.00    0.23
  -4   2  10   61.24    1.53
  -4   2   9   40.57    1.40
   4  -2  -9   37.94    1.33
  -4   2   8  168.41    3.04
   4  -2  -8  160.95    3.07
  -4   2   7  299.60    4.13
   4  -2  -7  291.60    4.37
  -4   2   6   56.35    1.76
   4  -2  -6   58.85    1.97
   4  -2  -5   38.02    1.57
   4  -2  -5   38.30    1.50
  -4   2   5   42.60    3.09
   4  -2  -4  877.66    7.24
   4  -2  -4  851.66    7.22
  -4   2   4  873.92    7.16
  -4   2   4  855.71   12.78
   4  -2  -3 1090.95    7.77
  -4   2   3 1067.30    7.67
   4  -2  -2   73.79    3.17
  -4   2   2   77.64    3.45
   4  -2  -1   48.36    2.64
  -4   2   1   52.39    2.73
   4  -2   0   89.45    3.69
  -4   2   0   90.73    3.50
   4  -2   1  127.67    4.48
  -4   2  -1  127.12    3.95
   4  -2   2  547.01    9.56
   4  -2   3   28.12    2.24
   4  -2   4  317.15    4.53
   4  -2   4  301.72    4.33
   4  -2   4  305.95    7.38
   4  -2   5   13.46    0.98
   4  -2   5   14.35    1.65
   4  -2   5   13.11    0.95
   4  -2   6   62.42    2.15
   4  -2   6   66.44    2.14
   4  -2   6   65.56    3.58
   4  -2   6   66.50    2.07
   4  -2   7    6.49    0.71
   4  -2   7    6.07    0.64
   4  -2   8    6.66    0.70
   4  -2   8    6.38    0.67
   4  -2   9    9.47    0.74
   4  -2   9    9.25    0.76
   4  -2  10    0.56    0.22
   4  -2  11    1.08    0.21
  -4   1  11  122.60    1.97
  -4   1  10  140.09    2.54
  -4   1   9   47.58    1.63
   4  -1  -9   44.62    1.44
  -4   1   8   27.34    1.29
   4  -1  -8   24.96    1.19
  -4   1   7   61.24    1.92
   4  -1  -7   59.19    1.92
  -4   1   6  155.69    2.98
   4  -1  -6  153.73    3.09
  -4   1   5  145.19    2.72
   4  -1  -5  150.87    3.00
  -4   1   5  155.36    5.53
   4  -1  -4   71.16    1.97
  -4   1   4   61.52    3.27
  -4   1   3   50.51    2.85
  -4   1   2  114.98    4.11
   4  -1  -2  107.38    3.70
   4  -1  -1    2.45    0.58
   4  -1   0   78.24    3.27
   4  -1   1 1564.08   15.00
   4  -1   2  751.70   10.45
   4  -1   2  786.09    9.05
   4  -1   3   47.15    2.68
   4  -1   3   45.69    2.28
   4  -1   4   23.16    1.76
   4  -1   4   23.67    1.95
   4  -1   5   60.81    1.97
   4  -1   5   66.26    2.04
   4  -1   5   61.00    3.23
   4  -1   5   60.69    1.93
   4  -1   6  226.99    3.95
   4  -1   6  236.29    3.99
   4  -1   6  227.50    6.24
   4  -1   6  236.56    3.96
   4  -1   7   85.50    2.46
   4  -1   7   91.98    2.59
   4  -1   7   90.65    2.52
   4  -1   8   82.26    2.35
   4  -1   8   84.25    2.44
   4  -1   9   69.23    2.18
   4  -1  10    5.94    0.63
   4  -1  11   44.31    1.40
   4  -1  12    4.50    0.35
  -4   0  11   20.83    0.89
  -4   0  10   67.66    1.87
  -4   0   9  154.66    3.07
  -4   0   8   10.34    0.83
   4   0  -8    8.78    0.69
  -4   0   7   72.71    2.15
   4   0  -7   70.02    2.03
  -4   0   6  134.42    2.81
   4   0  -6  129.35    2.76
  -4   0   5   89.12    2.15
   4   0  -5   86.23    2.22
  -4   0   4   14.07    1.52
  -4   0   3  136.14    4.51
   4   0  -3  106.92    3.40
   4   0  -2   87.70    3.13
   4   0  -1    2.93    0.59
   4   0   0    9.96    1.10
   4   0   1  603.90    8.69
   4   0   2 1000.90   11.39
   4   0   3  248.93    5.85
   4   0   3  234.07    5.25
   4   0   4  294.37    6.54
   4   0   4  261.51    5.85
   4   0   5  201.77    5.41
   4   0   5  192.18    5.36
   4   0   6  412.60    5.09
   4   0   6  435.57    5.25
   4   0   6  429.28    8.16
   4   0   6  423.95    5.35
   4   0   7   87.64    2.37
   4   0   7   88.99    2.54
   4   0   7   91.59    2.58
   4   0   8    0.71    0.28
   4   0   9   71.33    2.28
   4   0  10  246.49    4.04
   4   0  11   50.17    1.61
   4   0  12   35.72    1.11
  -4  -1  11    2.08    0.30
  -4  -1  10   65.65    1.89
  -4  -1   9    2.19    0.44
  -4  -1   8  100.26    2.59
  -4  -1   7    1.64    0.36
  -4  -1   6  360.92    4.68
  -4  -1   6  381.28    8.20
  -4  -1   5  262.86    3.76
  -4  -1   5  280.43    6.66
  -4  -1   4   51.19    2.78
   4   1  -3  209.81    4.87
   4   1  -2   56.41    2.56
   4   1  -1 2266.92   16.35
   4   1   0  101.76    3.43
   4   1   1  193.26    4.70
   4   1   2  122.23    3.62
   4   1   3   10.71    1.17
   4   1   4  775.52   10.19
   4   1   4  786.89   10.14
   4   1   5  318.21    6.77
   4   1   5  359.59    7.09
   4   1   6    0.28    0.18
   4   1   6    0.42    0.17
   4   1   6    0.46    0.32
   4   1   6    0.36    0.25
   4   1   7   28.24    1.40
   4   1   7   31.78    1.54
   4   1   8    0.28    0.26
   4   1   9  190.04    3.77
   4   1  10   23.56    1.29
   4   1  11   85.31    2.16
   4   1  12    1.39    0.26
  -4  -2  11   29.22    1.05
  -4  -2  10    9.00    0.71
  -4  -2   9   12.37    0.93
  -4  -2   8  144.82    3.20
  -4  -2   7    1.99    0.41
  -4  -2   6    8.66    0.76
  -4  -2   5   74.57    2.07
  -4  -2   5   75.87    3.37
   4   2  -4  527.26    8.21
   4   2  -3  528.24    8.07
   4   2  -3  496.11    7.85
   4   2  -2   65.08    2.74
   4   2  -2   68.27    2.90
   4   2  -1    3.03    0.64
   4   2  -1    8.78    1.00
   4   2   0  144.51    4.06
   4   2   0  142.90    4.16
   4   2   1  838.87   10.15
   4   2   2   31.44    1.99
   4   2   3   95.59    3.34
   4   2   4  789.02    9.57
   4   2   5  135.79    4.55
   4   2   5  144.59    4.28
   4   2   6   26.78    2.13
   4   2   6   27.35    1.35
   4   2   7   87.23    2.55
   4   2   7   86.52    2.39
   4   2   8  268.95    4.48
   4   2   9   36.57    1.46
   4   2   9   34.49    1.61
   4   2  10    0.73    0.31
   4   2  10    1.63    0.32
   4   2  11   91.24    2.20
   4   2  12    6.92    0.51
  -4  -3  11   -0.01    0.15
  -4  -3  11    0.31    0.16
  -4  -3  10   17.70    0.96
  -4  -3   9   15.49    1.01
  -4  -3   8    1.81    0.39
  -4  -3   7   30.38    1.49
  -4  -3   6   13.73    0.99
  -4  -3   5   85.23    2.34
   4   3  -4   16.15    1.54
   4   3  -3  541.87    8.53
   4   3  -2   57.15    2.75
   4   3  -1  214.75    5.20
   4   3   0   13.03    1.28
   4   3   1   29.85    1.91
   4   3   2 1849.76   15.14
   4   3   2 1881.83   14.69
   4   3   3  283.49    6.07
   4   3   4  137.88    4.23
   4   3   5   53.67    2.91
   4   3   5   54.81    2.56
   4   3   6  118.62    2.81
   4   3   6  113.92    4.42
   4   3   7   65.64    3.51
   4   3   7   68.46    2.23
   4   3   8   33.74    1.46
   4   3   8   32.56    1.56
   4   3   9  277.97    4.16
   4   3   9  280.44    4.42
   4   3  10    0.64    0.30
   4   3  10    2.16    0.38
   4   3  11    1.38    0.28
   4   3  11    1.42    0.27
   4   3  12   83.98    1.56
  -4  -4  10   57.27    1.59
  -4  -4  10   59.48    1.62
  -4  -4   9   10.66    0.81
  -4  -4   9   11.57    0.85
  -4  -4   8    6.87    0.74
  -4  -4   7   27.16    1.45
  -4  -4   6   42.97    1.80
  -4  -4   5   25.02    1.34
   4   4  -5   21.77    1.93
  -4  -4   4   45.27    1.76
   4   4  -4   46.63    2.78
   4   4  -3  194.02    5.49
   4   4  -2  672.97   10.03
   4   4  -1  122.69    4.18
   4   4   0  677.33    9.62
   4   4   1 3214.35   20.34
   4   4   2 3493.98   21.10
   4   4   3  203.72    4.97
   4   4   4   18.59    1.62
   4   4   5  101.91    4.01
   4   4   6  514.79    5.85
   4   4   6  503.83    9.11
   4   4   7    7.77    1.21
   4   4   7    8.58    0.80
   4   4   7    8.11    0.77
   4   4   8    0.78    0.36
   4   4   8    0.81    0.27
   4   4   8    0.99    0.30
   4   4   9   34.93    1.51
   4   4   9   36.17    1.53
   4   4  10    1.77    0.37
   4   4  10    1.91    0.37
   4   4  11   17.56    0.87
   4   4  12    7.43    0.43
  -4  -5  10   30.74    0.99
  -4  -5  10   31.63    1.03
  -4  -5   9   90.79    2.09
  -4  -5   9   91.36    2.20
  -4  -5   8    9.19    0.75
  -4  -5   8    9.26    0.76
  -4  -5   8    9.96    0.84
  -4  -5   7   44.59    1.73
  -4  -5   7   43.94    1.83
  -4  -5   6   31.77    1.57
   4   5  -5  185.91    5.98
  -4  -5   5  199.33    3.90
  -4  -5   4    1.99    0.41
   4   5  -4    2.32    0.72
   4   5  -3  321.02    7.56
  -4  -5   3  316.42    4.72
   4   5  -2  179.55    5.48
   4   5  -1  128.24    4.59
   4   5   0   75.92    3.48
   4   5   1   53.99    2.86
   4   5   2    1.52    0.52
   4   5   3   29.88    2.05
   4   5   4   23.85    1.88
   4   5   5    6.94    0.68
   4   5   5    8.47    1.20
   4   5   5    6.85    0.66
   4   5   6  157.18    3.25
   4   5   6  154.93    3.21
   4   5   7  229.61    4.17
   4   5   8   12.57    0.96
   4   5   9    2.83    0.45
   4   5   9    3.38    0.47
   4   5  10    2.81    0.43
   4   5  11    1.11    0.24
  -4  -6   9    0.10    0.15
  -4  -6   8   78.80    2.08
  -4  -6   8   78.61    1.92
  -4  -6   8   84.26    2.20
  -4  -6   7    6.98    0.73
  -4  -6   6   11.32    0.97
  -4  -6   5   72.73    2.48
   4   6  -4  308.26    8.02
  -4  -6   4  325.02    5.23
  -4  -6   3   18.24    1.25
   4   6  -3   17.36    1.88
  -4  -6   2   87.01    2.71
   4   6  -2   91.31    4.18
   4   6  -1  296.46    4.77
   4   6  -1  311.41    7.55
   4   6   0  239.29    6.50
   4   6   0  236.96    4.23
   4   6   1    0.32    0.20
   4   6   1    0.36    0.20
   4   6   1    0.57    0.44
   4   6   2    0.75    0.43
   4   6   2    0.63    0.26
   4   6   2    0.50    0.21
   4   6   3    3.01    0.50
   4   6   3    2.78    0.70
   4   6   4  122.62    3.00
   4   6   5    2.03    0.42
   4   6   5    2.50    0.49
   4   6   6  138.42    3.20
   4   6   6  148.65    3.50
   4   6   7  114.86    2.81
   4   6   7  122.05    3.16
   4   6   8    5.47    0.59
   4   6   8    5.55    0.67
   4   6   9    0.57    0.27
   4   6  10    2.92    0.41
   4   6  11   21.45    0.83
  -4  -7   8    2.10    0.34
  -4  -7   7    3.34    0.48
  -4  -7   7    3.70    0.49
   4   7  -6   14.06    0.94
  -4  -7   6   15.84    1.10
   4   7  -5    6.58    0.72
  -4  -7   5    7.59    0.82
  -4  -7   4    1.79    0.46
   4   7  -4    1.84    0.42
   4   7  -3   20.92    1.32
  -4  -7   3   20.56    1.39
   4   7  -2    3.92    0.61
   4   7  -1   12.83    1.07
   4   7  -1   14.08    1.73
   4   7   0    6.43    0.76
   4   7   0    6.38    1.16
   4   7   1    6.35    0.76
   4   7   1    6.14    1.12
   4   7   2    2.77    0.52
   4   7   2    0.65    0.37
   4   7   3   12.74    1.03
   4   7   3   11.48    0.96
   4   7   4  287.74    4.78
   4   7   4  283.67    4.84
   4   7   5   58.53    2.18
   4   7   5   60.44    2.27
   4   7   6    1.02    0.34
   4   7   6    1.28    0.39
   4   7   7    7.42    0.75
   4   7   7    7.80    0.82
   4   7   8   84.26    2.22
   4   7   8   93.70    2.57
   4   7   9   72.41    1.80
   4   7   9   75.72    2.03
   4   7  10   10.83    0.67
  -4  -8   8    1.25    0.20
  -4  -8   7   51.63    1.56
  -4  -8   6  101.16    2.49
  -4  -8   5    7.28    0.75
   4   8  -5    7.59    0.66
   4   8  -4   35.80    1.57
   4   8  -3  124.49    3.10
   4   8  -2  116.73    3.10
   4   8  -1    7.55    0.83
   4   8   0    4.33    0.65
   4   8   1  127.64    3.33
   4   8   2  311.97    5.17
   4   8   2  285.48    4.53
   4   8   3   54.12    2.15
   4   8   3   50.33    1.98
   4   8   4    0.04    0.32
   4   8   4    0.27    0.25
   4   8   5   35.87    1.72
   4   8   5   33.78    1.67
   4   8   6   39.02    1.72
   4   8   6   39.21    1.78
   4   8   7    0.37    0.23
   4   8   8    9.87    0.71
   4   8   9   19.88    0.91
   4   8  10    3.42    0.31
  -4  -9   6    7.91    0.59
  -4  -9   5    7.15    0.63
  -4  -9   5    6.08    0.52
  -4  -9   4    4.44    0.55
   4   9  -3    9.89    0.76
  -4  -9   3   11.04    0.86
  -4  -9   2    2.64    0.45
   4   9  -2    1.82    0.38
  -4  -9   1    2.39    0.41
   4   9  -1    3.04    0.51
   4   9   0    2.15    0.46
   4   9   1  105.75    2.88
   4   9   2  161.92    3.60
   4   9   3   13.52    1.05
   4   9   3   11.52    0.87
   4   9   4   43.71    1.85
   4   9   4   41.36    1.66
   4   9   5    4.47    0.60
   4   9   6   38.48    1.53
   4   9   7   40.29    1.40
   4   9   8   15.84    0.75
   4   9   8   16.75    0.79
  -4 -10   4    8.02    0.54
  -4 -10   4    8.01    0.54
  -4 -10   3   22.15    0.95
  -4 -10   3   23.47    1.04
  -4 -10   2   18.36    0.88
   4  10  -2   18.78    0.86
  -4 -10   2   20.44    1.07
   4  10  -1   30.95    1.22
   4  10   0    8.32    0.69
   4  10   1    2.08    0.38
  -4 -10  -1    2.02    0.40
   4  10   2    6.38    0.64
  -4 -10  -2    5.29    0.56
   4  10   3    2.50    0.42
  -4 -10  -3    1.39    0.28
   4  10   4    2.80    0.42
   4  10   5   18.60    0.95
   4  10   6  115.82    2.12
   4  10   7  163.73    2.15
  -4 -11   1   13.30    0.69
  -4 -11   0   16.28    0.78
  -4 -11  -1    1.30    0.23
   4  11   2   23.17    0.83
   4  11   3    0.53    0.15
   5  -7  -2   18.88    0.77
   5  -7  -1   58.61    1.44
   5  -7   0   24.06    0.93
   5  -7   1  159.85    2.29
   5  -6  -5    3.89    0.32
   5  -6  -4    3.21    0.31
   5  -6  -4    3.37    0.37
   5  -6  -3   68.99    1.79
   5  -6  -2    4.34    0.52
   5  -6  -1    7.59    0.67
   5  -6   0  130.14    2.73
   5  -6   1   99.52    2.33
   5  -6   2    9.61    0.70
   5  -6   3   13.84    0.76
   5  -6   3   13.16    0.74
   5  -6   4   21.48    0.91
   5  -6   5  242.19    2.82
   5  -5  -7   67.92    1.43
   5  -5  -6  197.25    2.77
   5  -5  -5   29.02    1.15
   5  -5  -5   29.31    1.10
   5  -5  -4    4.91    0.50
   5  -5  -4    5.06    0.54
   5  -5  -3   25.02    1.12
   5  -5  -3   24.79    1.26
   5  -5  -2   50.38    1.86
   5  -5  -1  134.83    3.07
   5  -5   0   17.11    1.12
   5  -5   1   33.98    1.37
   5  -5   1   35.45    1.57
   5  -5   2    0.64    0.30
   5  -5   2    2.46    0.46
   5  -5   3   24.50    1.19
   5  -5   3   25.02    1.24
   5  -5   4    7.63    0.70
   5  -5   5    5.83    0.60
   5  -5   6  170.50    2.84
   5  -5   7    8.14    0.55
   5  -4  -8   18.09    0.77
   5  -4  -7   35.88    1.26
   5  -4  -6   50.27    1.64
   5  -4  -5  143.84    2.90
   5  -4  -5  138.97    2.73
   5  -4  -4   55.93    1.85
   5  -4  -4   54.84    1.88
   5  -4  -3  102.66    2.50
   5  -4  -3  105.16    2.76
   5  -4  -2  423.04    5.04
   5  -4  -2  431.70    5.67
   5  -4  -1   49.62    1.94
   5  -4   0   11.24    0.94
   5  -4   1   16.63    1.05
   5  -4   1   16.29    1.09
   5  -4   2   81.42    2.38
   5  -4   2   82.85    2.40
   5  -4   3  740.83    7.31
   5  -4   3  736.16    6.90
   5  -4   4   23.43    1.34
   5  -4   5    0.37    0.30
   5  -4   6   35.30    1.51
   5  -4   7   15.91    0.94
   5  -4   8   23.81    0.96
   5  -3  -9  221.58    2.50
   5  -3  -8  291.86    3.50
   5  -3  -7    5.81    0.58
   5  -3  -6    2.36    0.42
   5  -3  -5   39.79    1.63
   5  -3  -5   39.07    1.55
   5  -3  -4   12.65    0.93
   5  -3  -4   12.52    0.93
   5  -3  -3    5.48    0.62
   5  -3  -3    5.58    0.66
   5  -3  -2    0.03    0.16
   5  -3  -2    0.88    0.29
   5  -3  -1    4.17    0.53
   5  -3  -1    4.13    0.61
   5  -3   0    2.55    0.43
   5  -3   0    2.36    0.79
   5  -3   0    3.56    0.54
   5  -3   1   84.77    4.32
   5  -3   1   91.39    2.54
   5  -3   1   90.61    2.47
   5  -3   2    5.97    0.65
   5  -3   2    7.33    0.75
   5  -3   3    4.91    0.64
   5  -3   3    4.85    0.58
   5  -3   3    4.84    0.58
   5  -3   4   30.13    1.55
   5  -3   4   31.72    1.46
   5  -3   5  130.48    3.19
   5  -3   5  127.02    2.88
   5  -3   6   31.14    1.53
   5  -3   7    0.43    0.25
   5  -3   8   36.68    1.38
   5  -3   9   26.51    0.95
   5  -2  -9   35.00    1.09
   5  -2  -8   17.58    0.93
   5  -2  -7   27.62    1.29
   5  -2  -6  245.47    4.01
   5  -2  -5   49.11    1.83
   5  -2  -5   48.87    1.77
   5  -2  -4  396.47    5.14
   5  -2  -4  388.42    5.11
   5  -2  -3  319.44    4.52
   5  -2  -3  317.47    4.74
   5  -2  -2   45.31    1.68
   5  -2  -2   49.05    1.85
   5  -2  -1    2.41    0.39
   5  -2  -1    2.74    0.42
   5  -2  -1    1.63    0.59
   5  -2  -1    2.50    0.44
  -5   2   1    2.67    0.73
   5  -2   0   19.80    2.01
   5  -2   0   20.74    1.08
   5  -2   0   22.30    1.24
  -5   2   0   19.42    1.80
   5  -2   0   20.56    1.13
   5  -2   1 1218.83    9.05
   5  -2   1 1228.75    8.93
   5  -2   2   23.27    2.27
   5  -2   2   23.00    1.24
   5  -2   2   25.39    1.33
   5  -2   3    6.73    0.71
   5  -2   3    6.14    0.66
   5  -2   3    6.68    1.24
   5  -2   3    6.62    0.67
   5  -2   4  146.90    3.34
   5  -2   4  141.91    3.17
   5  -2   5  176.10    3.70
   5  -2   5  172.10    3.50
   5  -2   6   99.42    2.76
   5  -2   6  102.38    2.71
   5  -2   7    7.58    0.68
   5  -2   7    6.73    0.71
   5  -2   8  129.28    2.59
   5  -2   8  126.66    2.73
   5  -2   9    3.17    0.39
   5  -2   9    2.85    0.37
   5  -2  10    0.06    0.11
  -5   1  10   98.30    1.65
  -5   1   9   11.60    0.69
   5  -1  -9   10.67    0.63
  -5   1   8    1.67    0.32
   5  -1  -8    1.74    0.32
  -5   1   7  103.62    2.37
   5  -1  -7   99.72    2.46
   5  -1  -6   14.64    0.99
   5  -1  -5   70.65    2.15
   5  -1  -5   66.50    2.07
   5  -1  -4  241.23    3.96
   5  -1  -4  240.23    3.98
   5  -1  -3  250.91    3.95
   5  -1  -3  245.05    4.03
  -5   1   3  247.25    7.01
   5  -1  -2    5.75    0.99
   5  -1  -2    5.59    0.59
   5  -1  -2    6.28    0.66
  -5   1   2    5.47    1.06
   5  -1  -1   24.57    1.19
   5  -1  -1   23.09    1.22
  -5   1   1   21.37    1.94
   5  -1   0   65.02    3.40
   5  -1   0   73.72    2.15
   5  -1   1   26.49    2.21
   5  -1   1   29.82    1.36
   5  -1   1   27.10    1.27
   5  -1   2   30.85    2.43
   5  -1   2   30.12    1.36
   5  -1   2   29.61    1.37
   5  -1   3    3.83    0.76
   5  -1   3    2.70    0.41
   5  -1   3    2.85    0.80
   5  -1   3    3.03    0.47
   5  -1   4  103.14    2.69
   5  -1   4   98.24    2.62
   5  -1   4   98.45    4.50
   5  -1   4   96.43    3.92
   5  -1   4   99.01    2.50
   5  -1   5  326.29    4.92
   5  -1   5  327.84    4.85
   5  -1   5  336.83    8.46
   5  -1   5  325.07    4.65
   5  -1   6  134.69    3.13
   5  -1   6  136.00    3.17
   5  -1   6  129.89    3.02
   5  -1   7    0.88    0.30
   5  -1   7    0.64    0.27
   5  -1   8    1.23    0.33
   5  -1   8    0.68    0.25
   5  -1   9  128.07    2.69
   5  -1  10   21.56    0.97
   5  -1  11  106.83    1.73
  -5   0  10   42.13    1.23
  -5   0   9   19.33    0.97
  -5   0   8   46.74    1.64
   5   0  -8   45.53    1.51
  -5   0   7  294.44    4.21
   5   0  -7  286.53    4.12
  -5   0   6  464.03    5.29
   5   0  -6  470.35    5.44
  -5   0   5  272.22    3.94
   5   0  -5  280.72    4.20
   5   0  -4    0.10    0.14
   5   0  -4    0.01    0.21
   5   0  -3    6.38    0.65
  -5   0   3    7.74    1.28
   5   0  -2  487.57    5.22
   5   0  -2  467.51    5.35
   5   0  -1 1260.87   14.22
   5   0   0   14.10    1.54
   5   0   1   45.58    2.81
   5   0   2   35.16    2.52
   5   0   3   16.04    1.59
   5   0   3   18.03    1.86
   5   0   3   18.24    1.06
   5   0   4    0.02    0.14
   5   0   4    0.13    0.17
   5   0   4   -0.06    0.26
   5   0   4   -0.06    0.33
   5   0   5   40.67    2.81
   5   0   5   42.41    1.74
   5   0   5   39.15    2.63
   5   0   5   41.24    1.69
   5   0   5   40.23    1.66
   5   0   6   38.62    1.68
   5   0   6   38.02    2.75
   5   0   6   38.06    1.68
   5   0   6   37.06    1.60
   5   0   7    0.00    0.21
   5   0   7    0.05    0.18
   5   0   7   -0.09    0.27
   5   0   8   11.58    0.94
   5   0   8   11.59    0.84
   5   0   9   87.91    2.39
   5   0  10   66.49    1.89
   5   0  11    1.99    0.31
  -5  -1  10    0.33    0.18
  -5  -1   9  112.29    2.45
  -5  -1   8    6.24    0.65
  -5  -1   7  123.44    2.84
   5   1  -7  117.07    2.58
  -5  -1   6   64.83    2.03
   5   1  -6   60.97    1.95
  -5  -1   5    0.91    0.28
   5   1  -5    1.44    0.33
  -5  -1   5    1.22    0.56
  -5  -1   4   73.87    2.04
   5   1  -4   79.03    2.18
   5   1  -3   77.84    2.13
   5   1  -3   64.63    3.04
   5   1  -2  231.97    5.80
   5   1  -1   11.34    1.31
   5   1   0    5.95    0.96
   5   1   1    5.26    0.92
   5   1   2   23.40    1.97
   5   1   3  260.25    6.63
   5   1   4  124.92    2.75
   5   1   4  123.94    2.82
   5   1   4  120.80    4.52
   5   1   4  126.54    4.74
   5   1   5    2.99    0.49
   5   1   5    2.48    0.43
   5   1   5    2.71    0.73
   5   1   5    2.32    0.40
   5   1   5    2.33    0.70
   5   1   6   27.76    2.25
   5   1   6   27.36    1.41
   5   1   6   26.40    2.28
   5   1   6   27.76    1.45
   5   1   6   25.99    1.30
   5   1   7    2.75    0.50
   5   1   7    2.99    0.51
   5   1   8   22.21    1.33
   5   1   9  199.67    3.76
   5   1  10  226.95    3.66
   5   1  11   92.98    2.00
  -5  -2  10    9.46    0.64
  -5  -2   9   41.26    1.52
  -5  -2   8   56.73    1.93
  -5  -2   7  128.82    3.01
  -5  -2   6    2.05    0.40
   5   2  -6    1.04    0.28
  -5  -2   5    1.21    0.32
   5   2  -5    1.53    0.34
  -5  -2   5    1.44    0.58
  -5  -2   4   93.06    2.40
   5   2  -4   93.65    2.38
   5   2  -3  184.20    3.30
   5   2  -3  184.63    5.42
   5   2  -2   18.20    1.73
   5   2  -1   27.05    2.13
   5   2   0   95.34    3.95
   5   2   1   81.00    3.58
   5   2   2   78.17    3.42
   5   2   3  324.16    7.08
   5   2   4   31.36    2.27
   5   2   4   33.57    2.35
   5   2   5   30.58    1.41
   5   2   5   29.95    2.35
   5   2   5   30.99    1.49
   5   2   5   30.84    2.31
   5   2   5   28.56    1.30
   5   2   6   51.98    1.88
   5   2   6   51.16    3.20
   5   2   6   54.58    2.04
   5   2   7  155.98    3.33
   5   2   7  163.37    3.57
   5   2   8  233.31    4.26
   5   2   9   85.93    2.50
   5   2  10   31.17    1.38
   5   2  11   25.47    1.06
   5   2  12   44.85    1.07
  -5  -3  10    1.01    0.24
  -5  -3  10    0.79    0.19
  -5  -3   9   20.04    1.07
  -5  -3   8   94.18    2.49
  -5  -3   7    2.64    0.49
  -5  -3   6   94.23    2.62
  -5  -3   5   55.21    1.99
   5   3  -4  475.27    5.33
  -5  -3   4  503.28    5.83
   5   3  -3  549.66    5.70
   5   3  -3  573.06    9.89
  -5  -3   3  537.46    5.79
   5   3  -3  593.11   10.02
   5   3  -2  185.32    5.58
   5   3  -2  192.93    5.61
   5   3  -1  158.26    5.15
   5   3  -1  161.67    5.13
   5   3   0   72.70    3.50
   5   3   1  672.35   10.67
   5   3   2   26.05    2.13
   5   3   3    0.19    0.29
   5   3   4   35.73    2.31
   5   3   5  119.00    2.94
   5   3   5  122.06    2.70
   5   3   5  123.52    2.90
   5   3   5  122.96    4.83
   5   3   5  120.12    4.46
   5   3   6   28.52    1.34
   5   3   6   28.15    2.35
   5   3   6   27.84    1.47
   5   3   7  265.54    4.17
   5   3   7  269.70    4.58
   5   3   8  264.37    4.51
   5   3   9   16.64    1.10
   5   3  10   18.95    1.05
   5   3  11    1.93    0.30
  -5  -4  10   44.21    1.24
  -5  -4   9   23.20    0.96
  -5  -4   9   24.92    1.14
  -5  -4   8    3.47    0.52
  -5  -4   7  225.57    4.12
  -5  -4   6  303.63    4.85
  -5  -4   5   14.28    1.06
   5   4  -4   37.14    2.72
  -5  -4   4   37.30    1.67
   5   4  -3   78.64    2.18
  -5  -4   3   79.91    2.36
  -5  -4   2    0.11    0.17
   5   4  -2    0.28    0.19
   5   4  -1  226.18    6.30
   5   4   0  144.08    4.98
   5   4   1   19.43    1.86
   5   4   1   20.38    1.85
   5   4   2   63.85    3.39
   5   4   3    3.20    0.49
   5   4   3    3.80    0.89
   5   4   4   33.04    1.55
   5   4   4   30.41    2.31
   5   4   5  333.15    5.01
   5   4   5  319.73    7.89
   5   4   5  321.50    7.22
   5   4   5  326.38    4.90
   5   4   6  195.75    6.19
   5   4   6  203.12    3.89
   5   4   7  261.96    4.47
   5   4   8   80.49    2.27
   5   4   8   80.64    2.44
   5   4   9   75.43    2.21
   5   4  10  136.63    2.61
   5   4  11  121.43    2.00
  -5  -5   9    0.61    0.23
  -5  -5   8   15.03    0.84
  -5  -5   8   15.63    1.00
  -5  -5   7  269.55    4.39
  -5  -5   6  289.48    4.79
  -5  -5   5  181.32    3.85
   5   5  -4    0.40    0.36
  -5  -5   4    0.07    0.26
  -5  -5   3   75.40    2.46
   5   5  -3   78.15    3.93
   5   5  -2   22.93    1.21
  -5  -5   2   23.61    1.38
   5   5  -2   27.18    2.29
   5   5  -1   91.78    2.46
  -5  -5   1   85.39    2.61
  -5  -5   0    0.27    0.20
   5   5   0    0.16    0.36
   5   5   0    0.72    0.25
   5   5   1    0.61    0.26
   5   5   1    0.79    0.29
   5   5   1    0.54    0.43
   5   5   2  142.56    3.13
   5   5   2  140.59    3.25
   5   5   2  143.92    5.05
   5   5   3  118.89    2.84
   5   5   3  118.28    3.03
   5   5   3  119.74    4.78
   5   5   4  425.28    5.26
   5   5   4  426.78    5.86
   5   5   4  430.69    9.15
   5   5   5  124.85    4.96
   5   5   5  122.59    2.98
   5   5   6  231.33    4.11
   5   5   7   28.19    1.48
   5   5   7   27.49    1.41
   5   5   8    0.91    0.27
   5   5   8    0.66    0.23
   5   5   8    1.05    0.31
   5   5   9   27.57    1.20
   5   5   9   28.90    1.24
   5   5   9   27.90    1.23
   5   5  10  100.15    1.97
  -5  -6   9    2.98    0.33
  -5  -6   8    8.09    0.58
   5   6  -8    7.20    0.56
  -5  -6   8    8.30    0.67
  -5  -6   7   69.84    2.17
  -5  -6   6   30.08    1.55
  -5  -6   5   88.97    2.77
  -5  -6   4   -0.01    0.30
  -5  -6   3   41.06    1.93
  -5  -6   2  235.62    4.64
   5   6  -2  254.83    7.34
   5   6  -1  244.13    4.47
   5   6  -1  216.22    3.94
  -5  -6   1  205.51    4.29
   5   6  -1  252.06    7.19
   5   6   0   75.20    2.49
   5   6   0   73.67    3.84
   5   6   1    5.59    0.69
   5   6   1    5.42    0.66
   5   6   1    5.35    1.06
   5   6   2  224.23    4.22
   5   6   2  214.31    4.18
   5   6   2  227.85    6.62
   5   6   3  414.09    5.66
   5   6   3  414.74    5.88
   5   6   3  427.01    8.81
   5   6   4  376.29    5.24
   5   6   5   70.16    2.24
   5   6   5   71.98    2.23
   5   6   6  141.73    3.10
   5   6   6  146.14    3.51
   5   6   6  144.59    3.10
   5   6   7  101.80    2.84
   5   6   8  108.35    2.72
   5   6   9   19.02    0.97
   5   6   9   21.56    1.07
   5   6  10   52.19    1.35
  -5  -7   8   45.16    1.18
  -5  -7   7   78.31    1.96
  -5  -7   7   84.90    2.12
  -5  -7   6    0.59    0.28
   5   7  -6    0.53    0.24
   5   7  -5   85.98    2.47
  -5  -7   5   96.88    2.83
   5   7  -4   44.04    1.89
  -5  -7   4   47.37    2.07
   5   7  -3    8.79    0.90
  -5  -7   3   16.80    1.28
   5   7  -2   41.07    1.91
   5   7  -1   26.96    1.55
   5   7   0    1.60    0.43
   5   7   0    0.09    0.17
   5   7   1   55.38    2.19
   5   7   2  181.32    3.94
   5   7   3   40.86    1.84
   5   7   4   62.77    2.24
   5   7   5    0.55    0.27
   5   7   5    0.79    0.33
   5   7   6    1.16    0.33
   5   7   6    1.87    0.46
   5   7   7   16.71    1.00
   5   7   7   17.07    1.17
   5   7   8   23.43    1.23
   5   7   9    0.11    0.14
   5   7  10    1.32    0.20
  -5  -8   7    0.22    0.14
  -5  -8   6   28.22    1.20
   5   8  -6   25.37    0.99
   5   8  -5   25.04    1.18
   5   8  -4   19.34    1.15
   5   8  -3    3.77    0.57
   5   8  -2   -0.02    0.25
   5   8  -1    1.47    0.44
   5   8   0   18.83    1.31
   5   8   1  238.17    4.58
   5   8   2   57.41    2.23
   5   8   2   50.78    1.92
   5   8   3   53.88    2.11
   5   8   3   49.18    1.96
   5   8   4   20.27    1.28
   5   8   4   19.36    1.25
   5   8   5    1.35    0.36
   5   8   5    1.73    0.44
   5   8   6    5.17    0.61
   5   8   6    5.25    0.67
   5   8   7    4.51    0.51
   5   8   7    4.76    0.59
   5   8   8   31.05    1.07
   5   8   9    0.16    0.13
  -5  -9   6   15.13    0.69
  -5  -9   5    0.49    0.21
  -5  -9   4    3.51    0.45
   5   9  -4    3.38    0.40
   5   9  -3    1.76    0.35
   5   9  -2    2.26    0.43
   5   9  -1    0.62    0.31
   5   9   0  156.06    3.42
   5   9   1    3.33    0.58
   5   9   2   66.87    2.27
   5   9   2   61.84    1.86
   5   9   3   38.53    1.70
   5   9   3   37.39    1.53
   5   9   4   21.05    1.23
   5   9   4   18.90    1.09
   5   9   5   58.70    1.92
   5   9   5   57.69    1.87
   5   9   6  107.33    2.36
   5   9   7   22.11    0.93
   5   9   8    8.40    0.49
  -5 -10   3   16.35    0.75
  -5 -10   2    1.76    0.27
   5  10  -2    0.86    0.22
   5  10  -1  115.39    2.32
   5  10   0   53.01    1.66
   5  10   1    3.67    0.49
   5  10   2    2.92    0.43
  -5 -10  -2    2.35    0.35
   5  10   3    0.86    0.27
   5  10   4    1.88    0.34
   5  10   5    6.86    0.55
   5  10   6   25.19    0.90
   5  11   2    1.85    0.24
   6  -6  -2  101.38    1.65
   6  -6  -1    1.97    0.26
   6  -6   0   13.72    0.66
   6  -6   1    0.15    0.10
   6  -5  -4   11.53    0.53
   6  -5  -4   11.95    0.62
   6  -5  -3  201.98    2.84
   6  -5  -2  103.80    2.20
   6  -5  -1    0.35    0.19
   6  -5   0    0.63    0.22
   6  -5   1    3.27    0.42
   6  -5   2   26.27    1.07
   6  -5   2   25.70    0.97
   6  -5   3    9.73    0.57
   6  -5   3    9.50    0.60
   6  -5   4    6.70    0.50
   6  -5   5   15.64    0.69
   6  -4  -6    1.58    0.25
   6  -4  -5   28.81    1.08
   6  -4  -4    1.34    0.28
   6  -4  -4    1.51    0.30
   6  -4  -3  131.40    2.48
   6  -4  -3  132.16    2.72
   6  -4  -2   45.34    1.44
   6  -4  -2   43.94    1.65
   6  -4  -1   29.26    1.40
   6  -4   0   33.11    1.48
   6  -4   1   14.07    0.87
   6  -4   1   13.94    0.96
   6  -4   2  181.48    3.23
   6  -4   2  180.35    3.15
   6  -4   3  246.29    3.70
   6  -4   3  247.58    3.52
   6  -4   4   47.95    1.62
   6  -4   5   79.15    1.97
   6  -4   6   36.34    1.23
   6  -4   7   14.78    0.67
   6  -3  -7    0.71    0.19
   6  -3  -6   27.52    1.13
   6  -3  -5  159.19    2.90
   6  -3  -4   58.96    1.85
   6  -3  -4   57.03    1.84
   6  -3  -3   18.53    1.06
   6  -3  -3   18.79    1.12
   6  -3  -2    6.44    0.64
   6  -3  -2    6.64    0.72
   6  -3  -1   22.57    1.14
   6  -3  -1   25.63    1.38
   6  -3   0  391.67    5.38
   6  -3   0  379.02    4.73
   6  -3   1    1.58    0.36
   6  -3   1    0.93    0.28
   6  -3   1    1.39    0.39
   6  -3   2  166.11    3.20
   6  -3   2  166.99    3.33
   6  -3   2  165.04    3.33
   6  -3   3    4.20    0.54
   6  -3   3    3.69    0.51
   6  -3   3    4.24    0.60
   6  -3   4   74.12    2.06
   6  -3   4   75.63    2.27
   6  -3   5    0.33    0.24
   6  -3   5    0.72    0.24
   6  -3   6    7.71    0.68
   6  -3   7   46.61    1.45
   6  -3   8    6.23    0.45
   6  -2  -8    8.15    0.52
   6  -2  -7   36.18    1.28
   6  -2  -6   11.89    0.82
   6  -2  -5   69.59    2.08
   6  -2  -4    1.42    0.35
   6  -2  -4    1.41    0.36
   6  -2  -3   53.20    1.88
   6  -2  -3   52.75    1.93
   6  -2  -2   68.92    2.13
   6  -2  -2   68.92    2.26
   6  -2  -1    5.63    0.63
   6  -2  -1    4.47    0.62
   6  -2   0  628.79    6.12
   6  -2   0  620.21    6.77
   6  -2   1  358.93    5.07
   6  -2   1  350.72    4.86
   6  -2   2  422.99    5.45
   6  -2   2  423.35    5.40
   6  -2   3   20.03    1.21
   6  -2   3   20.30    1.15
   6  -2   3   20.92    1.25
   6  -2   4   22.30    1.27
   6  -2   4   22.27    1.30
   6  -2   5   29.70    1.43
   6  -2   5   30.44    1.50
   6  -2   6    0.37    0.25
   6  -2   6    0.81    0.29
   6  -2   7   33.13    1.36
   6  -2   8    5.65    0.50
   6  -1  -8   23.37    0.92
   6  -1  -7   77.45    1.96
   6  -1  -6   21.28    1.14
   6  -1  -5   45.45    1.74
   6  -1  -4  132.77    3.02
   6  -1  -4  134.53    3.03
   6  -1  -3  407.08    5.32
   6  -1  -3  395.80    5.34
   6  -1  -2  454.41    5.53
   6  -1  -2  453.67    5.77
   6  -1  -1  558.25    6.05
   6  -1  -1  561.05    6.40
   6  -1   0   54.32    3.47
   6  -1   0   58.77    1.92
   6  -1   0   59.16    2.08
  -6   1   0   56.12    3.47
   6  -1   0   60.46    2.00
   6  -1   1   11.27    1.64
   6  -1   1   13.09    0.91
   6  -1   1   12.19    0.95
   6  -1   1   12.31    0.93
   6  -1   2  200.65    3.68
   6  -1   2  207.26    3.81
   6  -1   3   35.24    1.52
   6  -1   3   35.87    1.63
   6  -1   4  240.38    4.27
   6  -1   4  247.97    4.32
   6  -1   5  337.92    5.06
   6  -1   5  335.31    4.99
   6  -1   6  128.12    3.05
   6  -1   6  128.79    2.77
   6  -1   6  125.71    2.96
   6  -1   7  236.73    3.61
   6  -1   7  232.78    3.76
   6  -1   8   29.24    1.18
   6  -1   8   28.57    1.18
   6  -1   9   10.62    0.63
  -6   0   9    3.24    0.30
  -6   0   8    3.78    0.40
   6   0  -8    2.87    0.34
   6   0  -7  133.46    2.61
  -6   0   7  136.65    2.50
   6   0  -6   91.49    2.38
   6   0  -5   30.98    1.45
   6   0  -4   96.89    2.59
   6   0  -3  109.65    2.75
   6   0  -3  107.88    2.79
   6   0  -2  476.83    5.68
   6   0  -2  474.26    5.83
   6   0  -1  463.38    5.54
   6   0  -1  471.53    5.77
   6   0   0  173.18    3.39
   6   0   0  170.97    3.31
   6   0   0  177.87    3.53
   6   0   1  165.56    3.35
   6   0   1  163.79    3.21
   6   0   1  170.43    3.40
   6   0   1  166.23    6.14
   6   0   2  203.93    6.86
   6   0   2  198.45    3.52
   6   0   2  196.72    3.64
   6   0   2  203.52    3.75
   6   0   3  230.72    7.23
   6   0   3  213.34    6.10
   6   0   3  229.76    3.81
   6   0   3  226.56    3.87
   6   0   3  231.40    4.04
   6   0   4    2.38    0.45
   6   0   4    3.01    0.53
   6   0   4    3.86    0.57
   6   0   5  110.26    2.92
   6   0   5  106.18    2.77
   6   0   5  108.53    2.79
   6   0   6   11.01    0.95
   6   0   6   10.69    0.90
   6   0   6   10.96    0.89
   6   0   7    3.91    0.56
   6   0   7    3.79    0.54
   6   0   7    3.69    0.51
   6   0   8    3.36    0.47
   6   0   8    3.30    0.43
   6   0   9    1.14    0.28
   6   0  10    3.72    0.38
  -6  -1   9   66.88    1.50
  -6  -1   8   32.29    1.22
   6   1  -7   18.54    0.97
  -6  -1   7   18.98    1.02
   6   1  -6   18.08    1.05
  -6  -1   6   17.49    1.02
   6   1  -5  154.55    3.19
  -6  -1   5  143.73    2.91
   6   1  -4  148.68    3.21
   6   1  -3  660.18    6.74
  -6  -1   3  751.24   12.95
   6   1  -2  124.96    2.91
   6   1  -2  118.69    4.82
   6   1  -1   53.31    1.88
   6   1  -1   56.33    2.00
   6   1   0  174.62    3.35
   6   1   0  175.04    3.47
   6   1   0  165.50    5.84
   6   1   1   52.37    1.84
   6   1   1   53.72    1.91
   6   1   1   52.80    3.35
   6   1   1   54.91    1.90
   6   1   2  694.22    6.65
   6   1   2  698.49    6.76
   6   1   2  702.92   12.35
   6   1   3  332.48    4.53
   6   1   3  348.35    8.80
   6   1   3  343.04    4.82
   6   1   4    7.53    1.33
   6   1   4    7.78    1.26
   6   1   4    7.54    0.74
   6   1   4    7.89    0.78
   6   1   5    8.16    0.81
   6   1   5    8.26    0.81
   6   1   5    8.26    0.77
   6   1   6    0.37    0.28
   6   1   6    0.54    0.26
   6   1   6    0.56    0.30
   6   1   7   64.77    2.20
   6   1   7   64.48    2.20
   6   1   7   62.26    1.95
   6   1   8   13.19    0.97
   6   1   9   14.49    0.92
   6   1  10   31.46    1.17
   6   1  11    4.71    0.36
  -6  -2   9   62.56    1.53
  -6  -2   8   42.62    1.47
  -6  -2   7   11.03    0.83
  -6  -2   6    0.11    0.21
   6   2  -6    0.12    0.18
   6   2  -5    4.87    0.58
  -6  -2   5    5.56    0.64
   6   2  -4   86.33    2.39
  -6  -2   4   81.44    2.30
   6   2  -3  139.49    3.05
   6   2  -2  570.44    6.16
   6   2  -2  488.23    9.59
   6   2  -1    0.50    0.21
   6   2  -1    0.84    0.44
   6   2   0   83.60    2.36
   6   2   0   71.05    3.68
   6   2   1    1.79    0.39
   6   2   1    1.59    0.65
   6   2   2  101.91    2.58
   6   2   2   97.86    4.47
   6   2   3   92.73    2.49
   6   2   3   93.97    4.50
   6   2   3   99.10    2.57
   6   2   4    0.37    0.24
   6   2   4    0.58    0.48
   6   2   4    0.03    0.24
   6   2   4    1.14    0.55
   6   2   5    3.97    0.56
   6   2   5    4.32    0.62
   6   2   6   46.68    1.85
   6   2   6   45.82    1.94
   6   2   6   47.16    1.75
   6   2   7  229.22    4.04
   6   2   7  229.29    4.27
   6   2   8    4.10    0.60
   6   2   9    1.08    0.33
   6   2  10   25.49    1.10
   6   2  11   23.09    0.84
  -6  -3   9   28.86    1.06
  -6  -3   8   -0.05    0.24
  -6  -3   7   90.91    2.38
  -6  -3   6    5.78    0.67
   6   3  -5  728.40    6.65
  -6  -3   5  723.04    7.14
   6   3  -4   25.84    1.31
  -6  -3   4   24.10    1.32
  -6  -3   3    1.48    0.34
   6   3  -3    1.18    0.34
  -6  -3   2    1.57    0.35
   6   3  -2    1.71    0.38
   6   3  -2    1.81    0.65
   6   3  -1   62.54    2.09
   6   3  -1   65.22    3.71
   6   3   0  498.66    5.84
   6   3   0  478.23    9.89
   6   3   1   83.28    2.39
   6   3   1   77.75    3.95
   6   3   2    2.05    0.40
   6   3   2    1.65    0.59
   6   3   3   82.32    2.42
   6   3   3   82.06    4.02
   6   3   4   34.91    1.54
   6   3   4   39.64    1.73
   6   3   4   35.02    2.68
   6   3   4   36.50    2.75
   6   3   5  139.17    3.10
   6   3   5  143.17    3.25
   6   3   5  139.91    5.38
   6   3   5  144.76    3.40
   6   3   6   38.90    1.62
   6   3   6   40.41    1.82
   6   3   7   79.37    2.27
   6   3   7   78.84    2.52
   6   3   8   -0.13    0.34
   6   3   9   20.28    1.14
   6   3  10    6.04    0.55
   6   3  11   19.40    0.75
  -6  -4   9    0.94    0.22
  -6  -4   8   39.31    1.42
  -6  -4   7   11.84    0.89
  -6  -4   6    5.15    0.66
  -6  -4   5  126.97    3.11
   6   4  -4   10.51    0.82
  -6  -4   4   10.56    0.91
   6   4  -3  205.33    3.71
  -6  -4   3  197.70    3.90
   6   4  -2  163.60    3.35
  -6  -4   2  148.44    3.37
  -6  -4   1    0.10    0.20
   6   4  -1    0.35    0.39
   6   4  -1    0.40    0.24
   6   4   0    3.70    0.53
   6   4   0    3.87    1.00
  -6  -4   0    2.60    0.46
   6   4   1    2.65    0.47
   6   4   1    2.63    0.81
   6   4   2    5.47    0.66
   6   4   2    5.32    1.12
   6   4   3    7.61    0.80
   6   4   3    6.80    1.20
   6   4   4    5.58    0.71
   6   4   4    4.36    0.97
   6   4   5  559.11    6.68
   6   4   5  567.66    6.70
   6   4   6   25.82    1.46
   6   4   7   13.99    1.07
   6   4   8   27.24    1.23
   6   4   8   25.04    1.35
   6   4   9   44.11    1.59
   6   4  10    7.07    0.55
  -6  -5   9   22.74    0.84
  -6  -5   8   24.72    1.10
  -6  -5   7   82.36    2.26
  -6  -5   6   13.23    1.03
  -6  -5   5    2.75    0.54
  -6  -5   4    1.28    0.40
   6   5  -3   20.39    1.16
  -6  -5   3   18.70    1.27
   6   5  -2   61.63    2.08
  -6  -5   2   58.47    2.23
   6   5  -1   24.37    1.35
   6   5  -1   26.88    2.48
  -6  -5   1   21.37    1.36
   6   5  -1   27.57    2.45
   6   5   0    0.25    0.20
   6   5   0    0.60    0.43
   6   5   0    0.73    0.27
   6   5   0    0.02    0.30
   6   5   1   56.90    2.05
   6   5   1   56.52    2.12
   6   5   1   60.01    3.74
   6   5   2  332.77    4.86
   6   5   2  337.41    5.26
   6   5   2  347.28    9.07
   6   5   3  416.44    5.93
   6   5   3  415.65    9.67
   6   5   4    5.39    0.74
   6   5   5   45.11    1.88
   6   5   6   72.23    2.36
   6   5   7    1.49    0.37
   6   5   7    1.46    0.37
   6   5   8    1.29    0.32
   6   5   8    1.44    0.33
   6   5   9    1.43    0.30
   6   5  10   22.95    0.85
   6   6  -8   24.68    0.87
  -6  -6   8   28.03    1.05
  -6  -6   7   15.80    0.95
  -6  -6   6   50.92    1.89
  -6  -6   5   13.70    1.08
  -6  -6   4   12.39    1.06
  -6  -6   3   27.96    1.61
   6   6  -2   23.71    1.30
  -6  -6   2   23.05    1.48
   6   6  -1   61.10    2.26
   6   6  -1   52.56    2.00
   6   6   0   12.45    1.03
   6   6   0   11.40    0.97
   6   6   1  214.82    4.17
   6   6   1  209.77    4.18
   6   6   2  414.95    5.73
   6   6   2  417.60    5.97
   6   6   3 1093.53    9.03
   6   6   3 1101.08    9.91
   6   6   4    2.15    0.42
   6   6   5    0.06    0.19
   6   6   6   38.52    1.64
   6   6   7  106.93    2.76
   6   6   7  107.42    2.56
   6   6   8   19.79    1.07
   6   6   8   20.13    0.99
   6   6   9   15.65    0.79
  -6  -7   7   12.50    0.65
   6   7  -7   11.20    0.61
   6   7  -6   12.48    0.80
   6   7  -5   17.58    1.07
  -6  -7   5   17.91    1.14
   6   7  -4   19.00    1.20
  -6  -7   4   18.23    1.23
   6   7  -3   27.45    1.52
   6   7  -2   22.40    1.40
   6   7  -1   65.42    2.39
   6   7  -1   61.06    2.06
   6   7   0  145.22    3.55
   6   7   0  133.23    3.20
   6   7   1    1.05    0.40
   6   7   1    2.10    0.50
   6   7   2   56.92    2.18
   6   7   3  165.71    3.55
   6   7   4   20.57    1.22
   6   7   4   22.09    1.22
   6   7   5    0.12    0.17
   6   7   5   -0.02    0.22
   6   7   5    0.04    0.27
   6   7   6   31.60    1.32
   6   7   6   31.53    1.56
   6   7   7   34.14    1.50
   6   7   8   23.74    1.10
  -6  -8   6    0.07    0.14
   6   8  -6    0.11    0.10
   6   8  -5   15.85    0.86
   6   8  -4   22.94    1.17
   6   8  -3   50.68    1.86
   6   8  -2   10.85    0.94
   6   8  -1   41.30    1.85
   6   8   0    1.20    0.45
   6   8   1  277.02    4.73
   6   8   1  251.00    3.98
   6   8   2    1.36    0.43
   6   8   2    0.72    0.32
   6   8   3    4.35    0.60
   6   8   3    4.88    0.62
   6   8   4    1.31    0.34
   6   8   4    1.32    0.37
   6   8   5   29.76    1.34
   6   8   5   28.50    1.42
   6   8   6    1.45    0.29
   6   8   6    1.69    0.41
   6   8   7   35.19    1.36
   6   8   8   61.17    1.24
  -6  -9   5    2.35    0.28
  -6  -9   4    0.00    0.14
   6   9  -4   -0.18    0.19
   6   9  -3    1.93    0.33
   6   9  -2   67.87    1.97
   6   9  -1    0.65    0.32
   6   9   0   25.45    1.31
   6   9   1   57.46    1.96
   6   9   2   18.07    1.10
   6   9   2   16.41    0.90
   6   9   3    5.44    0.61
   6   9   3    5.40    0.55
   6   9   4   22.01    1.13
   6   9   4   21.15    1.07
   6   9   5   33.34    1.27
   6   9   5   33.52    1.31
   6   9   6    0.50    0.18
   6   9   6    0.54    0.21
   6  10  -2    1.11    0.22
   6  10  -1  109.07    2.04
   6  10   0    0.53    0.21
   6  10   1    0.11    0.17
   6  10   2   42.38    1.39
   6  10   3   64.53    1.66
   6  10   4   18.63    0.84
   6  10   5    4.30    0.36
   7  -4  -2   29.09    1.05
   7  -4  -1    2.99    0.37
   7  -4   0    5.45    0.48
   7  -4   1   82.53    1.77
   7  -4   2   47.96    1.26
   7  -3  -5  102.16    1.73
   7  -3  -4   35.82    1.12
   7  -3  -3    5.12    0.46
   7  -3  -2   44.60    1.34
   7  -3  -2   49.24    1.60
   7  -3  -1   79.34    2.10
   7  -3   0   16.48    0.97
   7  -3   1   42.87    1.37
   7  -3   1   42.82    1.51
   7  -3   2    1.10    0.25
   7  -3   2    0.96    0.26
   7  -3   3    3.45    0.39
   7  -3   3    3.48    0.39
   7  -3   3    3.13    0.42
   7  -3   4    0.35    0.18
   7  -3   4    0.39    0.16
   7  -3   5    6.54    0.52
   7  -3   6   12.08    0.63
   7  -2  -6   24.29    0.89
   7  -2  -5   33.40    1.19
   7  -2  -4   28.45    1.17
   7  -2  -3    1.11    0.28
   7  -2  -2   54.08    1.70
   7  -2  -2   52.20    1.82
   7  -2  -1  134.44    2.67
   7  -2  -1  139.89    3.02
   7  -2   0   36.64    1.35
   7  -2   0   36.72    1.56
   7  -2   1    2.79    0.46
   7  -2   2   13.09    0.91
   7  -2   2   12.92    0.88
   7  -2   2   12.36    0.88
   7  -2   3   98.81    2.43
   7  -2   3  103.51    2.28
   7  -2   3  100.47    2.45
   7  -2   4  160.33    2.96
   7  -2   4  162.42    3.06
   7  -2   5   11.62    0.77
   7  -2   5   11.76    0.80
   7  -2   6    5.04    0.49
   7  -2   7    0.24    0.14
   7  -1  -7  111.33    1.85
   7  -1  -6   24.37    1.01
   7  -1  -5    8.19    0.66
   7  -1  -4   48.96    1.67
   7  -1  -3   45.81    1.67
   7  -1  -2    6.17    0.64
   7  -1  -2    6.50    0.71
   7  -1  -1   11.00    0.84
   7  -1  -1   10.62    0.90
   7  -1   0   59.10    1.91
   7  -1   0   60.82    2.09
   7  -1   1   27.16    1.26
   7  -1   1   25.71    1.34
   7  -1   2   -0.07    0.31
   7  -1   2    1.34    0.33
   7  -1   3    3.98    0.57
   7  -1   3    4.66    0.60
   7  -1   4   10.45    0.87
   7  -1   4   11.72    0.91
   7  -1   5   44.79    1.69
   7  -1   5   44.40    1.67
   7  -1   6   27.35    1.26
   7  -1   6   25.70    1.18
   7  -1   7    1.44    0.28
   7   0  -7    4.77    0.42
   7   0  -6    3.54    0.43
   7   0  -5   24.11    1.17
   7   0  -4   60.17    1.95
   7   0  -3   90.32    2.46
   7   0  -2  354.65    4.88
   7   0  -1   53.77    1.92
   7   0   0   25.30    1.31
   7   0   0   25.78    1.39
   7   0   1   59.85    1.98
   7   0   1   61.30    2.09
   7   0   2  247.48    3.86
   7   0   2  238.79    4.14
   7   0   3   25.22    1.37
   7   0   4    0.46    0.23
   7   0   4    0.08    0.30
   7   0   4   -0.03    0.31
   7   0   5    4.68    0.66
   7   0   5    4.22    0.51
   7   0   5    4.50    0.61
   7   0   6  157.73    3.23
   7   0   6  155.72    2.91
   7   0   6  154.02    3.03
   7   0   7   28.46    1.15
   7   0   8   55.47    1.42
   7   1  -7    8.53    0.56
   7   1  -6   43.96    1.46
   7   1  -5   28.24    1.29
   7   1  -4   43.09    1.68
   7   1  -3  428.37    5.43
   7   1  -2    0.27    0.27
   7   1  -1   13.19    0.99
   7   1   0    0.64    0.23
   7   1   1  117.30    2.88
   7   1   2    4.70    0.58
   7   1   2    5.19    0.62
   7   1   3   10.58    0.83
   7   1   3   10.06    0.86
   7   1   4   21.79    1.31
   7   1   4   20.46    1.22
   7   1   4   21.25    1.25
   7   1   5  161.43    3.46
   7   1   5  152.75    3.29
   7   1   5  159.07    3.28
   7   1   6   15.75    1.06
   7   1   6   16.26    1.05
   7   1   7   60.35    1.92
   7   1   7   59.23    1.87
   7   1   8    0.50    0.21
   7   1   9    5.86    0.47
   7   2  -7    7.74    0.51
  -7  -2   7    8.66    0.59
   7   2  -6  262.89    3.51
  -7  -2   6  267.50    3.54
   7   2  -5   39.85    1.53
   7   2  -4  279.02    4.28
   7   2  -3   20.00    1.20
   7   2  -2    0.84    0.33
   7   2  -1  352.42    5.09
   7   2   0  220.45    4.05
   7   2   1   32.89    1.56
   7   2   2    9.12    0.84
   7   2   3   22.57    1.27
   7   2   3   22.77    1.32
   7   2   4   39.02    1.71
   7   2   4   41.14    1.68
   7   2   4   37.96    1.72
   7   2   5    2.58    0.48
   7   2   5    2.60    0.48
   7   2   6   45.20    1.74
   7   2   6   46.18    1.86
   7   2   7    1.24    0.36
   7   2   7    0.90    0.29
   7   2   8    8.18    0.69
   7   2   9   18.93    0.90
   7   2  10    1.02    0.18
  -7  -3   8   14.23    0.66
  -7  -3   7    2.87    0.37
   7   3  -6   22.31    0.98
  -7  -3   6   22.33    1.10
   7   3  -5  160.42    2.97
  -7  -3   5  156.76    3.07
   7   3  -4  143.80    3.05
  -7  -3   4  136.43    2.95
   7   3  -3    0.98    0.32
   7   3  -2    8.76    0.83
   7   3  -1  109.35    2.87
   7   3   0    2.43    0.48
   7   3   1   10.03    0.90
   7   3   2    0.55    0.28
   7   3   3   40.34    1.77
   7   3   4    8.97    0.82
   7   3   4    8.36    0.81
   7   3   4    9.78    0.91
   7   3   5   53.72    1.90
   7   3   5   53.40    1.92
   7   3   5   54.26    2.08
   7   3   6    2.77    0.51
   7   3   6    2.20    0.39
   7   3   7   25.50    1.36
   7   3   8    6.07    0.62
   7   3   9    2.17    0.34
   7   3  10    1.17    0.20
  -7  -4   8   48.21    1.21
  -7  -4   7    9.32    0.66
  -7  -4   6  157.91    2.95
   7   4  -5    3.99    0.46
  -7  -4   5    3.87    0.53
   7   4  -4    7.85    0.70
  -7  -4   4    8.83    0.80
   7   4  -3   67.68    2.13
  -7  -4   3   66.83    2.21
   7   4  -2   26.06    1.38
  -7  -4   2   24.90    1.37
   7   4  -1    8.87    0.84
   7   4   0    2.58    0.44
   7   4   0    1.92    0.43
   7   4   1   83.31    2.57
   7   4   2   41.68    1.83
   7   4   3   15.20    1.14
   7   4   4  130.21    2.86
   7   4   4  131.66    3.26
   7   4   5    1.69    0.46
   7   4   5    1.42    0.38
   7   4   6    4.11    0.60
   7   4   7    1.79    0.43
   7   4   8    2.27    0.40
   7   4   9   56.06    1.52
   7   4  10    0.34    0.12
  -7  -5   7  154.24    2.56
  -7  -5   6   98.33    2.33
  -7  -5   5    4.99    0.61
   7   5  -4   25.75    1.17
  -7  -5   4   26.76    1.41
   7   5  -3  240.55    3.87
  -7  -5   3  239.40    4.34
   7   5  -2  226.49    3.98
  -7  -5   2  202.50    4.01
   7   5  -1   26.77    1.42
   7   5  -1   26.36    1.42
   7   5   0   17.03    1.12
   7   5   0   15.35    1.11
   7   5   1  208.95    3.79
   7   5   1  207.99    4.16
   7   5   2   51.55    2.12
   7   5   3    9.32    0.92
   7   5   4    1.68    0.44
   7   5   5    0.65    0.32
   7   5   6   50.27    1.90
   7   5   7    0.59    0.28
   7   5   7    0.68    0.25
   7   5   8    7.67    0.57
   7   5   8    7.56    0.63
   7   5   9    4.66    0.42
   7   6  -7   27.97    0.93
   7   6  -6   62.01    1.67
  -7  -6   6   66.97    1.81
   7   6  -5  119.21    2.59
  -7  -6   5  117.45    2.70
  -7  -6   4    0.67    0.32
  -7  -6   3    2.66    0.49
   7   6  -3    3.69    0.58
   7   6  -2    0.26    0.25
   7   6  -2    0.13    0.19
   7   6  -1    5.50    0.68
   7   6  -1    5.13    0.64
   7   6   0   37.86    1.70
   7   6   0   35.66    1.69
   7   6   1    6.89    0.73
   7   6   1    6.41    0.77
   7   6   2    3.98    0.55
   7   6   2    4.20    0.65
   7   6   3    5.24    0.72
   7   6   5   24.43    1.30
   7   6   6    2.26    0.41
   7   6   7   40.04    1.48
   7   6   7   38.90    1.42
   7   6   8    0.44    0.17
   7   6   8    0.39    0.16
   7   7  -6   86.33    1.67
   7   7  -5   91.47    2.06
   7   7  -4   66.30    1.95
   7   7  -3    0.65    0.29
   7   7  -2    3.90    0.57
   7   7  -1   62.76    2.15
   7   7  -1   59.55    1.93
   7   7   0    8.17    0.81
   7   7   0    7.82    0.76
   7   7   1    0.35    0.26
   7   7   1    0.27    0.26
   7   7   2    5.74    0.66
   7   7   3  101.38    2.48
   7   7   4   18.54    1.00
   7   7   4   19.57    1.10
   7   7   5   23.33    1.28
   7   7   5   21.96    1.10
   7   7   6   14.87    0.96
   7   7   6   15.43    0.85
   7   7   7    2.23    0.36
   7   7   8    0.18    0.12
   7   8  -5    6.02    0.44
   7   8  -4   -0.03    0.20
   7   8  -3    3.12    0.43
   7   8  -2    0.41    0.25
   7   8  -1   45.21    1.71
   7   8   0   48.61    1.79
   7   8   1   21.52    1.18
   7   8   1   20.25    1.03
   7   8   2   16.44    1.01
   7   8   2   15.69    0.97
   7   8   3    1.48    0.30
   7   8   3    1.39    0.31
   7   8   3    1.35    0.34
   7   8   4   15.08    0.86
   7   8   4   16.16    0.99
   7   8   5   89.04    1.84
   7   8   5   91.86    2.25
   7   8   6    5.68    0.53
   7   8   7    6.24    0.48
   7   9  -3   18.12    0.77
   7   9  -2    0.30    0.18
   7   9  -1   23.30    1.04
   7   9   0    2.62    0.38
   7   9   1    0.12    0.17
   7   9   2   10.47    0.72
   7   9   2    9.16    0.57
   7   9   3    7.71    0.59
   7   9   3    7.39    0.55
   7   9   4   12.78    0.69
   7   9   4   11.55    0.68
   7   9   5    0.66    0.15
   7   9   5    0.31    0.15
   7   9   6    4.50    0.37
   7  10   0    2.90    0.30
   7  10   1   14.12    0.66
   7  10   2    3.59    0.34
   8  -2  -3    0.08    0.09
   8  -2  -2    6.24    0.42
   8  -2  -2    6.26    0.43
   8  -2  -1   53.28    1.30
   8  -2   0    0.57    0.17
   8  -2   1   10.39    0.62
   8  -2   2   20.89    0.86
   8  -2   3   28.27    0.96
   8  -1  -5    1.90    0.24
   8  -1  -4  185.71    2.52
   8  -1  -3    0.32    0.17
   8  -1  -2   10.82    0.68
   8  -1  -1    2.81    0.37
   8  -1   0    6.37    0.52
   8  -1   1  205.36    3.29
   8  -1   2   56.48    1.72
   8  -1   3    0.17    0.18
   8  -1   4    1.72    0.31
   8  -1   5    0.52    0.19
   8   0  -5    1.39    0.24
   8   0  -4    0.46    0.20
   8   0  -3    2.71    0.39
   8   0  -2   87.12    2.13
   8   0  -1   23.87    1.14
   8   0   0   88.10    2.16
   8   0   1   98.16    2.22
   8   0   2   19.72    1.13
   8   0   3    2.96    0.46
   8   0   4   -0.12    0.24
   8   0   5    5.06    0.52
   8   0   6   53.67    1.50
   8   1  -6  110.26    1.71
   8   1  -5    3.06    0.36
   8   1  -4   58.21    1.67
   8   1  -3  107.44    2.43
   8   1  -2  137.21    2.86
   8   1  -1   99.75    2.48
   8   1   0   20.01    1.12
   8   1   1   18.56    1.06
   8   1   2   -0.01    0.19
   8   1   3    3.49    0.50
   8   1   3    5.16    0.53
   8   1   4   68.54    2.07
   8   1   4   67.98    1.86
   8   1   5  124.59    2.64
   8   1   5  119.25    2.35
   8   1   6   76.66    1.91
   8   1   6   70.95    1.67
   8   1   7   72.38    1.47
   8   2  -6   14.38    0.63
   8   2  -5   33.56    1.15
   8   2  -4    3.86    0.47
   8   2  -3   18.38    1.05
   8   2  -2  122.17    2.79
   8   2  -1   19.24    1.15
   8   2   0   51.95    1.86
   8   2   1   19.62    1.15
   8   2   2   15.74    1.02
   8   2   2   14.95    0.98
   8   2   3   37.09    1.59
   8   2   3   34.88    1.45
   8   2   3   36.68    1.53
   8   2   4  151.92    3.11
   8   2   4  152.83    2.82
   8   2   4  147.07    2.99
   8   2   5    2.62    0.43
   8   2   5    4.03    0.51
   8   2   6   22.86    1.06
   8   2   6   21.59    1.05
   8   2   7    6.25    0.52
   8   2   8    2.06    0.26
   8   3  -5    6.17    0.49
   8   3  -4   24.23    1.10
   8   3  -3   12.51    0.88
   8   3  -2   23.17    1.23
   8   3  -1   43.65    1.74
   8   3   0   17.61    1.14
   8   3   1    3.88    0.56
   8   3   2  137.45    3.11
   8   3   3  255.23    4.01
   8   3   3  254.52    4.13
   8   3   3  250.23    4.15
   8   3   4   26.12    1.26
   8   3   4   25.99    1.27
   8   3   4   25.43    1.33
   8   3   5    2.65    0.39
   8   3   5    2.59    0.45
   8   3   6    0.14    0.18
   8   3   6    0.13    0.16
   8   3   7   11.93    0.76
   8   3   8   12.23    0.65
   8   4  -5    2.77    0.31
   8   4  -4   23.76    1.04
   8   4  -3    1.87    0.37
   8   4  -2    3.60    0.45
   8   4  -2    3.44    0.51
   8   4  -1    9.15    0.81
   8   4   0    0.24    0.29
   8   4   1    1.71    0.41
   8   4   2   25.88    1.41
   8   4   3   34.23    1.38
   8   4   3   34.70    1.60
   8   4   3   35.63    1.61
   8   4   4    3.27    0.43
   8   4   4    2.97    0.48
   8   4   4    3.64    0.55
   8   4   5   -0.08    0.23
   8   4   5    0.04    0.14
   8   4   6    3.31    0.47
   8   4   7   13.85    0.67
   8   4   7   14.69    0.85
   8   4   8   19.65    0.83
   8   5  -6   16.34    0.68
   8   5  -5    5.08    0.46
   8   5  -4   41.71    1.39
   8   5  -4   40.54    1.24
   8   5  -3   13.81    0.85
   8   5  -3   14.53    0.86
   8   5  -2    9.40    0.74
   8   5  -2    9.33    0.75
   8   5  -1   30.18    1.30
   8   5  -1   29.02    1.39
   8   5   0   81.59    2.41
   8   5   1  100.78    2.75
   8   5   2    0.90    0.37
   8   5   3   13.06    1.00
   8   5   4    2.38    0.46
   8   5   4    2.54    0.45
   8   5   5   18.13    1.08
   8   5   6   39.07    1.46
   8   5   7   36.66    1.13
   8   5   7   37.99    1.28
   8   5   8    1.07    0.21
   8   6  -5    2.72    0.32
   8   6  -4   14.29    0.78
   8   6  -3   25.06    1.11
   8   6  -3   24.38    0.98
   8   6  -2   28.99    1.25
   8   6  -2   28.70    1.21
   8   6  -1    0.36    0.25
   8   6  -1    0.23    0.22
   8   6   0   24.03    1.14
   8   6   0   24.77    1.29
   8   6   1    2.30    0.45
   8   6   2    0.08    0.27
   8   6   3    5.50    0.65
   8   6   4    0.33    0.25
   8   6   5   16.01    0.95
   8   6   6   53.39    1.56
   8   6   6   52.08    1.54
   8   6   7    6.89    0.48
   8   6   7    6.58    0.48
   8   7  -4    1.19    0.23
   8   7  -3   15.33    0.80
   8   7  -2   22.07    1.02
   8   7  -1   24.13    1.10
   8   7  -1   24.08    1.05
   8   7   0    0.26    0.16
   8   7   0    0.01    0.20
   8   7   1   25.56    1.10
   8   7   2   19.29    0.90
   8   7   3  114.91    2.45
   8   7   4  133.65    2.51
   8   7   5   18.34    0.95
   8   7   5   17.47    0.85
   8   7   6    1.08    0.24
   8   7   6    1.31    0.23
   8   8  -3    6.25    0.44
   8   8  -2    3.10    0.35
   8   8  -1   13.02    0.72
   8   8   0    5.87    0.49
   8   8   1    0.99    0.22
   8   8   1    1.30    0.23
   8   8   2   73.60    1.60
   8   8   2   77.86    1.73
   8   8   2   76.32    1.72
   8   8   3  130.83    2.29
   8   8   3  130.85    2.14
   8   8   4   52.95    1.43
   8   8   4   50.41    1.21
   8   8   5    0.36    0.15
   9   0  -1   34.32    1.03
   9   0  -1   31.99    0.89
   9   0   0   43.35    1.21
   9   0   1    7.93    0.54
   9   0   2    0.93    0.21
   9   0   3   61.26    1.35
   9   0   4   43.13    1.04
   9   1  -3    9.91    0.53
   9   1  -2   18.14    0.78
   9   1  -1    3.13    0.35
   9   1   0   21.55    0.89
   9   1   1    1.89    0.32
   9   1   1    1.56    0.25
   9   1   2   15.29    0.81
   9   1   3   10.47    0.64
   9   1   4    2.05    0.28
   9   1   5    4.59    0.36
   9   2  -4    6.34    0.40
   9   2  -3   38.02    1.11
   9   2  -2  106.87    2.03
   9   2  -1   84.55    1.88
   9   2   0    1.65    0.31
   9   2   1    7.29    0.58
   9   2   2   28.00    1.13
   9   2   2   26.62    1.04
   9   2   3   30.95    1.14
   9   2   4    1.05    0.19
   9   2   4    0.93    0.22
   9   2   5    3.87    0.36
   9   3  -4    0.18    0.11
   9   3  -3   19.73    0.83
   9   3  -2   28.79    1.09
   9   3  -1   22.82    1.03
   9   3  -1   20.64    0.83
   9   3   0    0.11    0.13
   9   3   0    0.08    0.20
   9   3   1    5.53    0.54
   9   3   1    5.13    0.48
   9   3   2   15.26    0.82
   9   3   2   14.95    0.85
   9   3   2   13.91    0.78
   9   3   3    1.45    0.28
   9   3   3    1.57    0.28
   9   3   3    1.40    0.28
   9   3   4    0.50    0.17
   9   3   4    0.56    0.18
   9   3   5    1.11    0.22
   9   3   5    1.39    0.22
   9   4  -3   23.14    0.88
   9   4  -2    0.78    0.22
   9   4  -1   48.38    1.50
   9   4   0   79.23    2.00
   9   4   1   23.22    0.95
   9   4   1   24.28    1.13
   9   4   1   22.33    1.02
   9   4   2    3.36    0.36
   9   4   2    3.26    0.43
   9   4   2    2.86    0.39
   9   4   3    2.16    0.29
   9   4   3    2.26    0.35
   9   4   3    2.23    0.36
   9   4   4    0.74    0.23
   9   4   5    1.33    0.25
   9   4   6    5.13    0.39
   9   5  -3    1.08    0.19
   9   5  -2    1.11    0.23
   9   5  -1    0.29    0.18
   9   5   0   11.20    0.75
   9   5   1    0.30    0.21
   9   5   2    0.44    0.21
   9   5   2    0.53    0.21
   9   5   3    3.60    0.43
   9   5   3    3.80    0.44
   9   5   4    6.94    0.56
   9   5   5   16.48    0.77
   9   5   6    0.09    0.11
   9   6  -2    9.97    0.51
   9   6  -1    7.03    0.52
   9   6   0    3.73    0.41
   9   6   1    1.02    0.24
   9   6   2    0.60    0.20
   9   6   3    1.89    0.30
   9   6   4    0.15    0.14
   9   6   5   26.66    0.88
   9   6   5   26.64    0.89
   9   7   1    2.20    0.29
   9   7   2   33.19    1.05
   9   7   3   14.96    0.68
   9   7   3   14.80    0.67
   9   7   4    1.40    0.22
   0   0   0    0.00    0.00




TITL SXJ-20180812-S-38-TM1-1 in P-1
REM P-1 (#2 in standard setting)
CELL 1.54184   7.895037   9.108869  10.799639  85.1906  85.0492  70.9871
ZERR   10.00   0.000301   0.000395   0.000318   0.0029   0.0028   0.0037
LATT  1
SFAC C H N O Cl
UNIT 10.00 10.00 10.00 10.00 10.00
TREF
HKLF 4
END
_computing_structure_solution     'SHELXT 2014/5 (Sheldrick, 2014)'
_computing_structure_solution     'SHELXT 2014/5 (Sheldrick, 2014)'
_computing_structure_solution     'SHELXT 2018/2 (Sheldrick, 2018)'
;
loop_
_space_group_symop_operation_xyz
'x, y, z'
'-x, -y, -z'
loop_
_atom_site_label
_atom_site_type_symbol
_atom_site_fract_x
_atom_site_fract_y
_atom_site_fract_z
_atom_site_U_iso_or_equiv
_atom_site_adp_type
_atom_site_occupancy
_atom_site_site_symmetry_order
_atom_site_calc_flag
_atom_site_refinement_flags_posn
_atom_site_refinement_flags_adp
_atom_site_refinement_flags_occupancy
_atom_site_disorder_assembly
_atom_site_disorder_group
Cl1 Cl 0.06929(5) 1.20154(5) 0.46903(4) 0.04028(16) Uani 1 1 d . . . . .
Cl2 Cl 0.16636(7) 0.99251(6) 0.71499(4) 0.04909(17) Uani 1 1 d . . . . .
O1 O 0.73179(16) 0.49158(14) 0.50049(11) 0.0389(3) Uani 1 1 d . . . . .
O2 O 0.58952(18) 0.79890(16) 0.14137(11) 0.0444(3) Uani 1 1 d . . . . .
N1 N 0.69874(18) 0.61806(16) 0.30415(12) 0.0309(3) Uani 1 1 d . . . . .
N2 N 0.66662(19) 0.41383(18) 0.13416(14) 0.0359(3) Uani 1 1 d . . . . .
C1 C 0.4576(2) 0.83274(18) 0.35330(14) 0.0278(3) Uani 1 1 d . . . . .
C2 C 0.8344(2) 0.41590(18) 0.15396(14) 0.0279(3) Uani 1 1 d . . . . .
C3 C 0.8544(2) 0.51791(19) 0.23960(15) 0.0299(3) Uani 1 1 d . . . . .
C4 C 0.5828(2) 0.75504(19) 0.24967(15) 0.0308(3) Uani 1 1 d . . . . .
C5 C 0.5012(2) 0.74074(17) 0.46204(14) 0.0268(3) Uani 1 1 d . . . . .
C6 C 0.9921(2) 0.32078(19) 0.09098(14) 0.0301(3) Uani 1 1 d . . . . .
C7 C 0.3241(2) 0.97436(19) 0.35238(15) 0.0308(3) Uani 1 1 d . . . . .
H7 H 0.294675 1.035203 0.278932 0.037 Uiso 1 1 calc R . . . .
C8 C 0.6557(2) 0.59993(18) 0.43202(14) 0.0277(3) Uani 1 1 d . . . . .
C9 C 0.2346(2) 1.02311(18) 0.46586(15) 0.0296(3) Uani 1 1 d . . . . .
C10 C 0.2783(2) 0.92988(19) 0.57536(15) 0.0307(3) Uani 1 1 d . . . . .
C11 C 0.4126(2) 0.78582(19) 0.57477(15) 0.0311(3) Uani 1 1 d . . . . .
H11 H 0.441158 0.722873 0.647340 0.037 Uiso 1 1 calc R . . . .
C12 C 1.1617(2) 0.3293(2) 0.11558(16) 0.0362(4) Uani 1 1 d . . . . .
H12 H 1.264843 0.266228 0.074564 0.043 Uiso 1 1 calc R . . . .
C13 C 1.0195(2) 0.5247(2) 0.26132(16) 0.0358(4) Uani 1 1 d . . . . .
H13 H 1.029106 0.593032 0.317801 0.043 Uiso 1 1 calc R . . . .
C14 C 1.1750(2) 0.4291(2) 0.19885(17) 0.0384(4) Uani 1 1 d . . . . .
H14 H 1.286909 0.434098 0.214366 0.046 Uiso 1 1 calc R . . . .
C15 C 0.9717(3) 0.2223(2) 0.00324(17) 0.0396(4) Uani 1 1 d . . . . .
H15 H 1.071413 0.157799 -0.040071 0.048 Uiso 1 1 calc R . . . .
C16 C 0.6562(3) 0.3203(2) 0.05023(18) 0.0423(4) Uani 1 1 d . . . . .
H16 H 0.542836 0.318805 0.034729 0.051 Uiso 1 1 calc R . . . .
C17 C 0.8036(3) 0.2229(2) -0.01724(18) 0.0449(4) Uani 1 1 d . . . . .
H17 H 0.787143 0.159521 -0.075263 0.054 Uiso 1 1 calc R . . . .
loop_
_atom_site_aniso_label
_atom_site_aniso_U_11
_atom_site_aniso_U_22
_atom_site_aniso_U_33
_atom_site_aniso_U_23
_atom_site_aniso_U_13
_atom_site_aniso_U_12
Cl1 0.0359(2) 0.0290(2) 0.0485(3) -0.00968(18) 0.00278(18) 0.00015(18)
Cl2 0.0544(3) 0.0515(3) 0.0321(3) -0.0158(2) 0.0133(2) -0.0051(2)
O1 0.0415(7) 0.0320(6) 0.0350(6) 0.0000(5) -0.0024(5) -0.0011(5)
O2 0.0504(7) 0.0472(7) 0.0239(6) -0.0017(5) 0.0035(5) -0.0012(6)
N1 0.0308(7) 0.0304(7) 0.0250(7) -0.0078(5) 0.0016(5) -0.0003(5)
N2 0.0308(7) 0.0396(8) 0.0362(7) -0.0060(6) -0.0006(6) -0.0091(6)
C1 0.0288(7) 0.0286(8) 0.0247(7) -0.0053(6) 0.0013(6) -0.0071(6)
C2 0.0287(7) 0.0269(7) 0.0241(7) -0.0011(6) 0.0014(6) -0.0043(6)
C3 0.0298(8) 0.0306(8) 0.0237(7) -0.0046(6) 0.0024(6) -0.0025(6)
C4 0.0314(8) 0.0319(8) 0.0255(8) -0.0055(6) -0.0001(6) -0.0046(6)
C5 0.0283(7) 0.0252(7) 0.0263(7) -0.0052(6) 0.0005(6) -0.0076(6)
C6 0.0338(8) 0.0288(8) 0.0227(7) -0.0021(6) 0.0040(6) -0.0048(6)
C7 0.0322(8) 0.0290(8) 0.0278(8) -0.0017(6) 0.0004(6) -0.0057(7)
C8 0.0289(7) 0.0270(8) 0.0267(7) -0.0059(6) -0.0005(6) -0.0074(6)
C9 0.0266(7) 0.0261(8) 0.0356(8) -0.0083(6) 0.0012(6) -0.0068(6)
C10 0.0310(8) 0.0336(8) 0.0284(8) -0.0103(6) 0.0048(6) -0.0112(7)
C11 0.0343(8) 0.0321(8) 0.0256(8) -0.0038(6) 0.0016(6) -0.0092(7)
C12 0.0288(8) 0.0394(9) 0.0325(8) -0.0026(7) 0.0069(6) -0.0020(7)
C13 0.0355(8) 0.0387(9) 0.0316(8) -0.0077(7) -0.0027(7) -0.0081(7)
C14 0.0281(8) 0.0485(10) 0.0360(9) -0.0045(8) -0.0013(7) -0.0086(7)
C15 0.0467(10) 0.0345(9) 0.0319(9) -0.0103(7) 0.0071(7) -0.0057(7)
C16 0.0413(10) 0.0484(11) 0.0410(10) -0.0085(8) -0.0038(8) -0.0178(8)
C17 0.0567(11) 0.0434(10) 0.0383(10) -0.0138(8) -0.0015(8) -0.0187(9)
loop_
_atom_type_symbol
_atom_type_description
_atom_type_scat_dispersion_real
_atom_type_scat_dispersion_imag
_atom_type_scat_source
C C 0.0181 0.0091 'International Tables Vol C Tables 4.2.6.8 and 6.1.1.4'
H H 0.0000 0.0000 'International Tables Vol C Tables 4.2.6.8 and 6.1.1.4'
Cl Cl 0.3639 0.7018 'International Tables Vol C Tables 4.2.6.8 and 6.1.1.4'
N N 0.0311 0.0180 'International Tables Vol C Tables 4.2.6.8 and 6.1.1.4'
O O 0.0492 0.0322 'International Tables Vol C Tables 4.2.6.8 and 6.1.1.4'
loop_
_geom_angle_atom_site_label_1
_geom_angle_atom_site_label_2
_geom_angle_atom_site_label_3
_geom_angle
_geom_angle_site_symmetry_1
_geom_angle_site_symmetry_3
C4 N1 C3 123.69(13) . .
C4 N1 C8 111.99(13) . .
C8 N1 C3 123.98(13) . .
C16 N2 C2 116.65(15) . .
C5 C1 C4 108.58(13) . .
C7 C1 C4 129.58(14) . .
C7 C1 C5 121.77(14) . .
N2 C2 C3 119.49(14) . .
N2 C2 C6 122.91(15) . .
C3 C2 C6 117.60(14) . .
C2 C3 N1 119.67(14) . .
C13 C3 N1 118.94(15) . .
C13 C3 C2 121.39(15) . .
O2 C4 N1 125.74(15) . .
O2 C4 C1 128.73(15) . .
N1 C4 C1 105.51(13) . .
C1 C5 C8 108.26(13) . .
C11 C5 C1 121.83(14) . .
C11 C5 C8 129.86(14) . .
C12 C6 C2 119.96(15) . .
C15 C6 C2 117.55(16) . .
C15 C6 C12 122.48(16) . .
C1 C7 C9 117.26(15) . .
O1 C8 N1 125.61(15) . .
O1 C8 C5 128.74(15) . .
N1 C8 C5 105.65(13) . .
C7 C9 Cl1 118.67(13) . .
C7 C9 C10 120.89(15) . .
C10 C9 Cl1 120.44(12) . .
C9 C10 Cl2 120.19(13) . .
C11 C10 Cl2 118.55(13) . .
C11 C10 C9 121.26(15) . .
C5 C11 C10 116.98(14) . .
C14 C12 C6 120.56(15) . .
C3 C13 C14 120.49(16) . .
C12 C14 C13 120.00(16) . .
C17 C15 C6 119.08(17) . .
N2 C16 C17 124.66(17) . .
C15 C17 C16 119.14(17) . .
loop_
_geom_bond_atom_site_label_1
_geom_bond_atom_site_label_2
_geom_bond_distance
_geom_bond_site_symmetry_2
Cl1 C9 1.7202(16) .
Cl2 C10 1.7223(16) .
O1 C8 1.204(2) .
O2 C4 1.207(2) .
N1 C3 1.434(2) .
N1 C4 1.402(2) .
N1 C8 1.403(2) .
N2 C2 1.368(2) .
N2 C16 1.319(2) .
C1 C4 1.488(2) .
C1 C5 1.385(2) .
C1 C7 1.373(2) .
C2 C3 1.415(2) .
C2 C6 1.419(2) .
C3 C13 1.367(2) .
C5 C8 1.489(2) .
C5 C11 1.375(2) .
C6 C12 1.416(2) .
C6 C15 1.410(2) .
C7 C9 1.391(2) .
C9 C10 1.397(2) .
C10 C11 1.391(2) .
C12 C14 1.363(3) .
C13 C14 1.407(2) .
C15 C17 1.363(3) .
C16 C17 1.400(3) .
