#------------------------------------------------------------------------------
#$Date: 2022-04-04 10:39:39 +0300 (Mon, 04 Apr 2022) $
#$Revision: 274301 $
#$URL: file:///home/coder/svn-repositories/cod/cif/8/10/50/8105001.cif $
#------------------------------------------------------------------------------
#
# This file is available in the Crystallography Open Database (COD),
# http://www.crystallography.net/
#
# All data on this site have been placed in the public domain by the
# contributors.
#
data_8105001
loop_
_publ_author_name
'Ma, Jin-Xia'
'Wei, Ping'
'Li, Qing-Lin'
'Fu, Tao'
'Zhao, Ji-Xing'
'Zhao, Li'
_publ_section_title
;
 Crystal structure of
 (E)-1-(4-(((E)-2-bromo-6-hydroxybenzylidene)amino)phenyl)ethan-1-one
 O-methyl oxime, C16H15BrN2O2
;
_journal_issue                   1
_journal_name_full
'Zeitschrift f\"ur Kristallographie - New Crystal Structures'
_journal_page_first              19
_journal_page_last               20
_journal_paper_doi               10.1515/ncrs-2019-0435
_journal_volume                  235
_journal_year                    2019
_chemical_formula_moiety         'C16 H15 Br N2 O2'
_chemical_formula_sum            'C16 H15 Br N2 O2'
_chemical_formula_weight         347.21
_space_group_crystal_system      monoclinic
_space_group_IT_number           4
_space_group_name_Hall           'P 2yb'
_space_group_name_H-M_alt        'P 1 21 1'
_atom_sites_solution_hydrogens   geom
_atom_sites_solution_primary     direct
_cell_angle_alpha                90
_cell_angle_beta                 92.743(2)
_cell_angle_gamma                90
_cell_formula_units_Z            2
_cell_length_a                   10.9311(8)
_cell_length_b                   3.9554(3)
_cell_length_c                   16.5215(12)
_cell_measurement_reflns_used    2895
_cell_measurement_temperature    173(2)
_cell_measurement_theta_max      27.67
_cell_measurement_theta_min      2.47
_cell_volume                     713.52(9)
_computing_cell_refinement       'Bruker SAINT'
_computing_data_reduction        'Bruker SAINT'
_computing_molecular_graphics    'Olex2 (Dolomanov et al., 2009)'
_computing_publication_material  'Olex2 (Dolomanov et al., 2009)'
_computing_structure_refinement  'XL (Sheldrick, 2008)'
_computing_structure_solution    'ShelXS-1997 (Sheldrick, 2008)'
_diffrn_ambient_temperature      173.0
_diffrn_measured_fraction_theta_full 0.997
_diffrn_measured_fraction_theta_max 0.997
_diffrn_measurement_device_type  'Bruker APEX-II CCD'
_diffrn_measurement_method       '\f and \w scans'
_diffrn_radiation_type           MoK\a
_diffrn_radiation_wavelength     0.71073
_diffrn_reflns_av_R_equivalents  0.0755
_diffrn_reflns_av_unetI/netI     0.0706
_diffrn_reflns_Laue_measured_fraction_full 0.997
_diffrn_reflns_Laue_measured_fraction_max 0.997
_diffrn_reflns_limit_h_max       13
_diffrn_reflns_limit_h_min       -13
_diffrn_reflns_limit_k_max       4
_diffrn_reflns_limit_k_min       -4
_diffrn_reflns_limit_l_max       20
_diffrn_reflns_limit_l_min       -19
_diffrn_reflns_number            7892
_diffrn_reflns_point_group_measured_fraction_full 0.998
_diffrn_reflns_point_group_measured_fraction_max 0.998
_diffrn_reflns_theta_full        25.242
_diffrn_reflns_theta_max         25.499
_diffrn_reflns_theta_min         2.468
_exptl_absorpt_coefficient_mu    2.886
_exptl_absorpt_correction_type   none
_exptl_crystal_density_diffrn    1.616
_exptl_crystal_description       block
_exptl_crystal_F_000             352
_exptl_crystal_size_max          0.17
_exptl_crystal_size_mid          0.14
_exptl_crystal_size_min          0.13
_refine_diff_density_max         0.685
_refine_diff_density_min         -0.300
_refine_diff_density_rms         0.073
_refine_ls_abs_structure_details
;
 Refined as an inversion twin.
;
_refine_ls_abs_structure_Flack   0.182(17)
_refine_ls_extinction_coef       .
_refine_ls_extinction_method     none
_refine_ls_goodness_of_fit_ref   1.000
_refine_ls_hydrogen_treatment    constr
_refine_ls_matrix_type           full
_refine_ls_number_parameters     194
_refine_ls_number_reflns         2622
_refine_ls_number_restraints     1
_refine_ls_restrained_S_all      0.999
_refine_ls_R_factor_all          0.0460
_refine_ls_R_factor_gt           0.0335
_refine_ls_shift/su_max          0.000
_refine_ls_shift/su_mean         0.000
_refine_ls_structure_factor_coef Fsqd
_refine_ls_weighting_details
'w=1/[\s^2^(Fo^2^)+(0.0188P)^2^] where P=(Fo^2^+2Fc^2^)/3'
_refine_ls_weighting_scheme      calc
_refine_ls_wR_factor_gt          0.0614
_refine_ls_wR_factor_ref         0.0655
_reflns_Friedel_coverage         0.731
_reflns_Friedel_fraction_full    1.000
_reflns_Friedel_fraction_max     1.000
_reflns_number_gt                2263
_reflns_number_total             2622
_reflns_threshold_expression     'I > 2\s(I)'
_iucr_refine_instructions_details
;

    2_c.res created by SHELXL-2014/7

TITL 2_c.res in P2(1)
REM Old TITL 2 in P2(1)
REM SHELXT solution in P2(1)
REM R1 0.101, Rweak 0.033, Alpha 0.044, Orientation as input
REM Flack x = 0.259 ( 0.012 ) from Parsons' quotients
REM Formula found by SHELXT: C17 Br N2 O3
CELL 0.71073 10.9311 3.9554 16.5215 90 92.743 90
ZERR 2 0.0008 0.0003 0.0012 0 0.002 0
LATT -1
SYMM -X,0.5+Y,-Z
SFAC C H Br N O
UNIT 32 30 2 4 4
 
L.S. 10
PLAN  20
SIZE 0.17 0.14 0.13
TEMP -100.15
CONF
MORE -1
BOND $H
LIST 6
fmap 2
acta
TWIN -1 0 0 0 -1 0 0 0 -1 2
OMIT -2 51
REM <olex2.extras>
REM <HklSrc "%.\\2_c.hkl">
REM </olex2.extras>
 
WGHT    0.018800
BASF   0.18158
FVAR       0.93345
BR1   3   -1.512305   -1.151971   -1.161702    11.00000    0.02956    0.03777 =
         0.02753    0.00058    0.00170    0.00814
N2    4   -1.182445   -1.757883   -1.646187    11.00000    0.04036    0.04067 =
         0.01999   -0.00228    0.00401    0.00310
O1    5   -1.066863   -1.669611   -1.126638    11.00000    0.02693    0.05107 =
         0.02508    0.00189   -0.00191    0.00375
AFIX 147
H1    2   -1.085501   -1.720155   -1.175049    11.00000   -1.50000
AFIX   0
N1    4   -1.192214   -1.664306   -1.263953    11.00000    0.02602    0.03378 =
         0.01970    0.00171    0.00080    0.00302
C4    1   -1.353720   -1.174546   -1.022754    11.00000    0.03665    0.03128 =
         0.02305   -0.00587    0.00668    0.00105
AFIX  43
H4    2   -1.418828   -1.060900   -0.998082    11.00000   -1.20000
AFIX   0
C12   1   -1.136165   -1.718964   -1.481804    11.00000    0.02276    0.03770 =
         0.02486    0.00000    0.00193    0.00041
AFIX  43
H12   2   -1.073017   -1.659471   -1.516709    11.00000   -1.20000
AFIX   0
C8    1   -1.211565   -1.739461   -1.347895    11.00000    0.02811    0.02129 =
         0.02178    0.00172   -0.00004    0.00366
C5    1   -1.245833   -1.252071   -0.978411    11.00000    0.04649    0.03830 =
         0.01969   -0.00002    0.00100   -0.01079
AFIX  43
H5    2   -1.237247   -1.187326   -0.923059    11.00000   -1.20000
AFIX   0
C13   1   -1.118780   -1.668587   -1.399582    11.00000    0.02044    0.03791 =
         0.02553   -0.00203    0.00056   -0.00521
AFIX  43
H13   2   -1.042535   -1.584543   -1.378126    11.00000   -1.20000
AFIX   0
C15   1   -1.376184   -2.078117   -1.636617    11.00000    0.04028    0.03353 =
         0.02510   -0.00453   -0.00729   -0.00557
AFIX 137
H15A  2   -1.363468   -2.150666   -1.692305    11.00000   -1.50000
H15B  2   -1.446565   -1.924737   -1.636275    11.00000   -1.50000
H15C  2   -1.391868   -2.276319   -1.603063    11.00000   -1.50000
AFIX   0
C11   1   -1.245325   -1.856285   -1.514598    11.00000    0.03006    0.02030 =
         0.02222    0.00334    0.00444    0.00418
C7    1   -1.280537   -1.526549   -1.226854    11.00000    0.02287    0.02293 =
         0.02250    0.00366    0.00083   -0.00164
AFIX  43
H7    2   -1.355607   -1.482843   -1.256353    11.00000   -1.20000
AFIX   0
C9    1   -1.319033   -1.885559   -1.378704    11.00000    0.02634    0.02677 =
         0.02325    0.00447    0.00313   -0.00072
AFIX  43
H9    2   -1.381401   -1.946382   -1.343323    11.00000   -1.20000
AFIX   0
O2    5   -1.211052   -1.796656   -1.729764    11.00000    0.04940    0.05783 =
         0.02659   -0.00025    0.00068   -0.00660
C16   1   -1.118123   -1.617984   -1.772256    11.00000    0.05757    0.05148 =
         0.03619   -0.00133    0.01802   -0.00052
AFIX 137
H16A  2   -1.037131   -1.706509   -1.755397    11.00000   -1.50000
H16B  2   -1.121880   -1.376452   -1.759391    11.00000   -1.50000
H16C  2   -1.132401   -1.649942   -1.830768    11.00000   -1.50000
AFIX   0
C3    1   -1.363808   -1.265802   -1.102677    11.00000    0.02646    0.02229 =
         0.03112    0.00284    0.00143    0.00211
C10   1   -1.335538   -1.943110   -1.461485    11.00000    0.02663    0.02578 =
         0.02614    0.00138   -0.00036   -0.00184
AFIX  43
H10   2   -1.409548   -2.043313   -1.482228    11.00000   -1.20000
AFIX   0
C1    1   -1.162425   -1.507921   -1.094067    11.00000    0.02614    0.02613 =
         0.02187    0.00268    0.00195   -0.00410
C14   1   -1.265024   -1.900247   -1.603590    11.00000    0.03321    0.02419 =
         0.02303    0.00370    0.00211    0.00659
C6    1   -1.151572   -1.420123   -1.012980    11.00000    0.02892    0.03706 =
         0.02527    0.00642   -0.00568   -0.00452
AFIX  43
H6    2   -1.079426   -1.475696   -0.981438    11.00000   -1.20000
AFIX   0
C2    1   -1.269642   -1.436021   -1.142007    11.00000    0.02338    0.02529 =
         0.02294    0.00462   -0.00041   -0.00221
HKLF 4
 
REM  2_c.res in P2(1)
REM R1 =  0.0335 for    2263 Fo > 4sig(Fo)  and  0.0460 for all    2622 data
REM    194 parameters refined using      1 restraints
 
END  
     
WGHT      0.0188      0.0000 

REM Highest difference peak  0.685,  deepest hole -0.300,  1-sigma level  0.073
Q1    1  -1.3715 -1.1492 -1.1606  11.00000  0.05    0.68
Q2    1  -1.6575 -1.1443 -1.1588  11.00000  0.05    0.65
Q3    1  -1.2201 -1.6384 -1.8423  11.00000  0.05    0.38
Q4    1  -1.2265 -1.1527 -1.1664  11.00000  0.05    0.32
Q5    1  -1.4753 -1.1533 -1.1300  11.00000  0.05    0.27
Q6    1  -1.4845 -2.1471 -1.7597  11.00000  0.05    0.25
Q7    1  -0.9522 -1.6542 -1.8028  11.00000  0.05    0.24
Q8    1  -1.2701 -1.6631 -1.3638  11.00000  0.05    0.24
Q9    1  -1.1771 -1.7950 -1.8199  11.00000  0.05    0.24
Q10   1  -1.4004 -1.6303 -1.2134  11.00000  0.05    0.24
Q11   1  -1.0791 -1.9987 -1.1381  11.00000  0.05    0.23
Q12   1  -1.1029 -1.3472 -1.2565  11.00000  0.05    0.23
Q13   1  -1.3082 -1.6479 -1.7211  11.00000  0.05    0.23
Q14   1  -1.1357 -2.0142 -1.3822  11.00000  0.05    0.23
Q15   1  -1.2872 -1.4919 -0.9021  11.00000  0.05    0.23
Q16   1  -1.4443 -1.1621 -1.2628  11.00000  0.05    0.22
Q17   1  -1.4988 -0.7766 -1.1794  11.00000  0.05    0.22
Q18   1  -1.0942 -1.7334 -1.6419  11.00000  0.05    0.22
Q19   1  -1.1652 -1.2926 -1.5029  11.00000  0.05    0.22
Q20   1  -1.2364 -1.9348 -1.5535  11.00000  0.05    0.21

REM The information below was added by Olex2.
REM
REM R1 = 0.0335 for 2263 Fo > 4sig(Fo) and 0.0460 for all 9109 data
REM n/a parameters refined using n/a restraints
REM Highest difference peak 0.68, deepest hole -0.30
REM Mean Shift 0, Max Shift 0.000.

REM +++ Tabular Listing of Refinement Information +++
REM R1_all = 0.0460
REM R1_gt = 0.0335
REM wR_ref = 0.0655
REM GOOF = 1.000
REM Shift_max = 0.000
REM Shift_mean = 0
REM Reflections_all = 9109
REM Reflections_gt = 2263
REM Parameters = n/a
REM Hole = -0.30
REM Peak = 0.68
REM Flack = n/a

;
_cod_data_source_file            suppl_ncrs-2019-0435_suppl.cif
_cod_data_source_block           2_c
_cod_database_code               8105001
_shelx_space_group_comment
;
The symmetry employed for this shelxl refinement is uniquely defined
by the following loop, which should always be used as a source of
symmetry information in preference to the above space-group names.
They are only intended as comments.
;
_shelx_estimated_absorpt_t_max   0.705
_shelx_estimated_absorpt_t_min   0.640
_olex2_refinement_description
;
1. Twinned data refinement
 Scales: 0.818(17) 0.182(17)
2. Fixed Uiso
 At 1.2 times of:
  All C(H) groups
 At 1.5 times of:
  All C(H,H,H) groups, All O(H) groups
3.a Aromatic/amide H refined with riding coordinates:
 C4(H4), C12(H12), C5(H5), C13(H13), C7(H7), C9(H9), C10(H10), C6(H6)
3.b Idealised Me refined as rotating group:
 C15(H15A,H15B,H15C), C16(H16A,H16B,H16C)
3.c Idealised tetrahedral OH refined as rotating group:
 O1(H1)
;
_shelx_shelxl_version_number     2014/7
_olex2_submission_special_instructions 'No special instructions were received'
loop_
_space_group_symop_operation_xyz
'x, y, z'
'-x, y+1/2, -z'
loop_
_atom_site_label
_atom_site_type_symbol
_atom_site_fract_x
_atom_site_fract_y
_atom_site_fract_z
_atom_site_U_iso_or_equiv
_atom_site_adp_type
_atom_site_occupancy
_atom_site_site_symmetry_order
_atom_site_calc_flag
_atom_site_refinement_flags_posn
_atom_site_refinement_flags_adp
_atom_site_refinement_flags_occupancy
_atom_site_disorder_assembly
_atom_site_disorder_group
Br1 Br -1.51230(4) -1.15197(17) -1.16170(3) 0.03161(16) Uani 1 1 d . . . . .
N2 N -1.1824(4) -1.7579(12) -1.6462(3) 0.0336(13) Uani 1 1 d . . . . .
O1 O -1.0669(3) -1.6696(19) -1.12664(18) 0.0345(8) Uani 1 1 d . . . . .
H1 H -1.0855 -1.7202 -1.1750 0.052 Uiso 1 1 calc GR . . . .
N1 N -1.1922(3) -1.664(2) -1.2640(2) 0.0265(9) Uani 1 1 d . . . . .
C4 C -1.3537(4) -1.175(3) -1.0228(3) 0.0302(12) Uani 1 1 d . . . . .
H4 H -1.4188 -1.0609 -0.9981 0.036 Uiso 1 1 calc R . . . .
C12 C -1.1362(4) -1.7190(17) -1.4818(3) 0.0284(17) Uani 1 1 d . . . . .
H12 H -1.0730 -1.6595 -1.5167 0.034 Uiso 1 1 calc R . . . .
C8 C -1.2116(4) -1.7395(12) -1.3479(3) 0.0238(14) Uani 1 1 d . . . . .
C5 C -1.2458(5) -1.2521(14) -0.9784(3) 0.0348(17) Uani 1 1 d . . . . .
H5 H -1.2372 -1.1873 -0.9231 0.042 Uiso 1 1 calc R . . . .
C13 C -1.1188(4) -1.669(3) -1.3996(2) 0.0280(11) Uani 1 1 d . . . . .
H13 H -1.0425 -1.5845 -1.3781 0.034 Uiso 1 1 calc R . . . .
C15 C -1.3762(4) -2.0781(16) -1.6366(3) 0.0333(17) Uani 1 1 d . . . . .
H15A H -1.3635 -2.1507 -1.6923 0.050 Uiso 1 1 calc GR . . . .
H15B H -1.4466 -1.9247 -1.6363 0.050 Uiso 1 1 calc GR . . . .
H15C H -1.3919 -2.2763 -1.6031 0.050 Uiso 1 1 calc GR . . . .
C11 C -1.2453(5) -1.8563(14) -1.5146(3) 0.0241(12) Uani 1 1 d . . . . .
C7 C -1.2805(4) -1.5265(12) -1.2269(3) 0.0228(12) Uani 1 1 d . . . . .
H7 H -1.3556 -1.4828 -1.2564 0.027 Uiso 1 1 calc R . . . .
C9 C -1.3190(5) -1.8856(13) -1.3787(3) 0.0254(12) Uani 1 1 d . . . . .
H9 H -1.3814 -1.9464 -1.3433 0.030 Uiso 1 1 calc R . . . .
O2 O -1.2111(4) -1.7967(10) -1.7298(2) 0.0446(12) Uani 1 1 d . . . . .
C16 C -1.1181(5) -1.618(3) -1.7723(3) 0.0479(17) Uani 1 1 d . . . . .
H16A H -1.0371 -1.7065 -1.7554 0.072 Uiso 1 1 calc GR . . . .
H16B H -1.1219 -1.3765 -1.7594 0.072 Uiso 1 1 calc GR . . . .
H16C H -1.1324 -1.6499 -1.8308 0.072 Uiso 1 1 calc GR . . . .
C3 C -1.3638(4) -1.2658(13) -1.1027(3) 0.0266(13) Uani 1 1 d . . . . .
C10 C -1.3355(5) -1.9431(14) -1.4615(3) 0.0262(13) Uani 1 1 d . . . . .
H10 H -1.4095 -2.0433 -1.4822 0.031 Uiso 1 1 calc R . . . .
C1 C -1.1624(5) -1.5079(14) -1.0941(3) 0.0247(12) Uani 1 1 d . . . . .
C14 C -1.2650(5) -1.9002(14) -1.6036(3) 0.0268(12) Uani 1 1 d . . . . .
C6 C -1.1516(5) -1.4201(15) -1.0130(3) 0.0306(14) Uani 1 1 d . . . . .
H6 H -1.0794 -1.4757 -0.9814 0.037 Uiso 1 1 calc R . . . .
C2 C -1.2696(4) -1.4360(14) -1.1420(3) 0.0239(12) Uani 1 1 d . . . . .
loop_
_atom_site_aniso_label
_atom_site_aniso_U_11
_atom_site_aniso_U_22
_atom_site_aniso_U_33
_atom_site_aniso_U_23
_atom_site_aniso_U_13
_atom_site_aniso_U_12
Br1 0.0296(2) 0.0378(3) 0.0275(2) 0.0006(4) 0.00170(17) 0.0081(4)
N2 0.040(2) 0.041(4) 0.020(2) -0.002(2) 0.0040(19) 0.003(2)
O1 0.0269(15) 0.051(2) 0.0251(17) 0.002(4) -0.0019(13) 0.004(3)
N1 0.0260(18) 0.034(2) 0.0197(18) 0.002(4) 0.0008(15) 0.003(4)
C4 0.037(2) 0.031(3) 0.023(2) -0.006(4) 0.0067(19) 0.001(4)
C12 0.023(2) 0.038(5) 0.025(2) 0.000(3) 0.0019(19) 0.000(3)
C8 0.028(2) 0.021(4) 0.022(2) 0.002(2) 0.000(2) 0.004(2)
C5 0.046(3) 0.038(5) 0.020(3) 0.000(3) 0.001(2) -0.011(3)
C13 0.020(2) 0.038(3) 0.026(2) -0.002(5) 0.0006(18) -0.005(4)
C15 0.040(3) 0.034(5) 0.025(3) -0.005(3) -0.007(2) -0.006(3)
C11 0.030(3) 0.020(3) 0.022(3) 0.003(2) 0.004(2) 0.004(2)
C7 0.023(2) 0.023(3) 0.023(3) 0.004(2) 0.001(2) -0.002(2)
C9 0.026(3) 0.027(3) 0.023(3) 0.004(2) 0.003(2) -0.001(2)
O2 0.049(2) 0.058(3) 0.027(2) -0.0002(19) 0.0007(19) -0.007(2)
C16 0.058(3) 0.051(5) 0.036(3) -0.001(5) 0.018(3) -0.001(5)
C3 0.026(3) 0.022(3) 0.031(3) 0.003(2) 0.001(2) 0.002(2)
C10 0.027(3) 0.026(3) 0.026(3) 0.001(3) 0.000(2) -0.002(2)
C1 0.026(3) 0.026(3) 0.022(3) 0.003(2) 0.002(2) -0.004(2)
C14 0.033(3) 0.024(3) 0.023(3) 0.004(2) 0.002(2) 0.007(3)
C6 0.029(3) 0.037(4) 0.025(3) 0.006(3) -0.006(2) -0.005(3)
C2 0.023(3) 0.025(3) 0.023(3) 0.005(2) 0.000(2) -0.002(2)
loop_
_atom_type_symbol
_atom_type_description
_atom_type_scat_dispersion_real
_atom_type_scat_dispersion_imag
_atom_type_scat_source
C C 0.0033 0.0016 'International Tables Vol C Tables 4.2.6.8 and 6.1.1.4'
H H 0.0000 0.0000 'International Tables Vol C Tables 4.2.6.8 and 6.1.1.4'
Br Br -0.2901 2.4595 'International Tables Vol C Tables 4.2.6.8 and 6.1.1.4'
N N 0.0061 0.0033 'International Tables Vol C Tables 4.2.6.8 and 6.1.1.4'
O O 0.0106 0.0060 'International Tables Vol C Tables 4.2.6.8 and 6.1.1.4'
loop_
_geom_angle_atom_site_label_1
_geom_angle_atom_site_label_2
_geom_angle_atom_site_label_3
_geom_angle
_geom_angle_site_symmetry_1
_geom_angle_site_symmetry_3
C14 N2 O2 110.9(4) . .
C1 O1 H1 109.5 . .
C7 N1 C8 118.1(4) . .
C5 C4 H4 120.8 . .
C3 C4 H4 120.8 . .
C3 C4 C5 118.5(5) . .
C13 C12 H12 119.5 . .
C13 C12 C11 120.9(5) . .
C11 C12 H12 119.5 . .
C13 C8 N1 118.6(4) . .
C9 C8 N1 121.9(5) . .
C9 C8 C13 119.4(5) . .
C4 C5 H5 119.3 . .
C6 C5 C4 121.4(5) . .
C6 C5 H5 119.3 . .
C12 C13 C8 120.5(5) . .
C12 C13 H13 119.7 . .
C8 C13 H13 119.7 . .
H15A C15 H15B 109.5 . .
H15A C15 H15C 109.5 . .
H15B C15 H15C 109.5 . .
C14 C15 H15A 109.5 . .
C14 C15 H15B 109.5 . .
C14 C15 H15C 109.5 . .
C12 C11 C14 120.7(5) . .
C10 C11 C12 117.9(5) . .
C10 C11 C14 121.4(5) . .
N1 C7 H7 118.8 . .
N1 C7 C2 122.5(4) . .
C2 C7 H7 118.8 . .
C8 C9 H9 120.1 . .
C8 C9 C10 119.9(5) . .
C10 C9 H9 120.1 . .
N2 O2 C16 107.1(4) . .
O2 C16 H16A 109.5 . .
O2 C16 H16B 109.5 . .
O2 C16 H16C 109.5 . .
H16A C16 H16B 109.5 . .
H16A C16 H16C 109.5 . .
H16B C16 H16C 109.5 . .
C4 C3 Br1 117.3(4) . .
C4 C3 C2 122.8(5) . .
C2 C3 Br1 119.9(4) . .
C11 C10 H10 119.4 . .
C9 C10 C11 121.1(5) . .
C9 C10 H10 119.4 . .
O1 C1 C6 118.0(5) . .
O1 C1 C2 120.4(4) . .
C6 C1 C2 121.5(5) . .
N2 C14 C15 125.7(5) . .
N2 C14 C11 114.4(5) . .
C15 C14 C11 119.8(5) . .
C5 C6 C1 119.5(5) . .
C5 C6 H6 120.2 . .
C1 C6 H6 120.2 . .
C3 C2 C7 122.4(5) . .
C1 C2 C7 121.4(5) . .
C1 C2 C3 116.2(5) . .
loop_
_geom_bond_atom_site_label_1
_geom_bond_atom_site_label_2
_geom_bond_distance
_geom_bond_site_symmetry_2
Br1 C3 1.907(5) .
N2 O2 1.409(5) .
N2 C14 1.299(7) .
O1 H1 0.8400 .
O1 C1 1.358(6) .
N1 C8 1.424(6) .
N1 C7 1.289(6) .
C4 H4 0.9500 .
C4 C5 1.392(7) .
C4 C3 1.368(7) .
C12 H12 0.9500 .
C12 C13 1.377(6) .
C12 C11 1.397(7) .
C8 C13 1.385(6) .
C8 C9 1.384(7) .
C5 H5 0.9500 .
C5 C6 1.373(8) .
C13 H13 0.9500 .
C15 H15A 0.9800 .
C15 H15B 0.9800 .
C15 H15C 0.9800 .
C15 C14 1.485(7) .
C11 C10 1.394(7) .
C11 C14 1.486(7) .
C7 H7 0.9500 .
C7 C2 1.446(7) .
C9 H9 0.9500 .
C9 C10 1.390(7) .
O2 C16 1.447(8) .
C16 H16A 0.9800 .
C16 H16B 0.9800 .
C16 H16C 0.9800 .
C3 C2 1.414(7) .
C10 H10 0.9500 .
C1 C6 1.384(7) .
C1 C2 1.412(7) .
C6 H6 0.9500 .
loop_
_geom_torsion_atom_site_label_1
_geom_torsion_atom_site_label_2
_geom_torsion_atom_site_label_3
_geom_torsion_atom_site_label_4
_geom_torsion
_geom_torsion_site_symmetry_1
_geom_torsion_site_symmetry_2
_geom_torsion_site_symmetry_3
_geom_torsion_site_symmetry_4
Br1 C3 C2 C7 0.6(7) . . . .
Br1 C3 C2 C1 179.5(4) . . . .
O1 C1 C6 C5 179.1(6) . . . .
O1 C1 C2 C7 -0.9(8) . . . .
O1 C1 C2 C3 -179.8(5) . . . .
N1 C8 C13 C12 -176.2(7) . . . .
N1 C8 C9 C10 177.7(6) . . . .
N1 C7 C2 C3 175.9(6) . . . .
N1 C7 C2 C1 -2.8(9) . . . .
C4 C5 C6 C1 1.5(9) . . . .
C4 C3 C2 C7 -179.0(7) . . . .
C4 C3 C2 C1 -0.2(9) . . . .
C12 C11 C10 C9 1.9(8) . . . .
C12 C11 C14 N2 -9.5(8) . . . .
C12 C11 C14 C15 173.8(6) . . . .
C8 N1 C7 C2 -179.1(6) . . . .
C8 C9 C10 C11 0.0(8) . . . .
C5 C4 C3 Br1 -179.5(6) . . . .
C5 C4 C3 C2 0.2(11) . . . .
C13 C12 C11 C10 -0.5(10) . . . .
C13 C12 C11 C14 178.1(7) . . . .
C13 C8 C9 C10 -3.4(9) . . . .
C11 C12 C13 C8 -2.9(12) . . . .
C7 N1 C8 C13 137.3(7) . . . .
C7 N1 C8 C9 -43.8(10) . . . .
C9 C8 C13 C12 4.8(11) . . . .
O2 N2 C14 C15 -0.7(8) . . . .
O2 N2 C14 C11 -177.0(4) . . . .
C3 C4 C5 C6 -0.9(11) . . . .
C10 C11 C14 N2 169.0(5) . . . .
C10 C11 C14 C15 -7.6(8) . . . .
C14 N2 O2 C16 177.3(5) . . . .
C14 C11 C10 C9 -176.7(5) . . . .
C6 C1 C2 C7 179.7(5) . . . .
C6 C1 C2 C3 0.9(8) . . . .
C2 C1 C6 C5 -1.5(8) . . . .
loop_
_refln_index_h
_refln_index_k
_refln_index_l
_refln_F_squared_meas
_refln_F_squared_sigma
2 0 0 956.2 29.1
-2 0 0 944.31 28.9
-2 0 0 987.8 52.29
-3 0 0 4209.98 157.08
3 0 0 4276.37 111.59
3 0 0 4149.08 154.48
-3 0 0 4247.38 111.59
-4 0 0 759.02 61.59
4 0 0 713.23 28.1
4 0 0 766.12 60.79
-4 0 0 754.82 28.5
5 0 0 1261.17 44.4
-5 0 0 1277.37 44.7
5 0 0 1303.07 90.19
-6 0 0 1257.77 47.2
6 0 0 1380.06 101.29
6 0 0 1273.57 46.9
7 0 0 1413.76 130.29
7 0 0 1486.85 54.89
-7 0 0 1472.25 55.09
7 0 0 1601.14 118.49
8 0 0 863.51 40.5
-8 0 0 862.21 40.6
8 0 0 852.71 90.39
8 0 0 969.8 96.99
9 0 0 390.56 86.99
9 0 0 534.05 31.8
9 0 0 522.65 74.89
-9 0 0 483.75 30.3
10 0 0 106.19 17.9
-10 0 0 95.39 17.8
10 0 0 90.79 50.59
10 0 0 103.69 49.7
11 0 0 88.19 50.39
11 0 0 61.19 40.9
11 0 0 71.39 15.4
-11 0 0 88.89 17.2
12 0 0 37.4 46.1
-12 0 0 48.3 13.7
12 0 0 58.39 15.6
13 0 0 103.29 19.3
13 0 0 112.69 62.59
-14 0 0 66.79 25.1
14 0 0 -1.4 68.89
14 0 0 32.4 12.9
0 -1 0 1.7 1.7
0 1 0 1.6 6.6
0 1 0 2.7 1.6
-1 -1 0 2234.38 63.29
1 -1 0 2420.76 103.19
-1 -1 0 2364.66 117.29
1 1 0 2362.56 118.29
-1 1 0 2355.66 101.39
1 1 0 2191.78 62.79
-2 -1 0 4709.33 127.19
-2 -1 0 4948.9 200.78
2 -1 0 4856.91 165.98
2 1 0 4737.13 127.39
2 1 0 4960.2 201.18
-2 1 0 4795.52 167.18
3 -1 0 140.69 22.1
-3 -1 0 204.88 57.99
-3 -1 0 146.69 11.4
-3 1 0 197.98 25.9
3 1 0 168.18 12
-3 1 0 213.18 9.6
3 1 0 235.88 51.49
4 -1 0 622.74 22.8
-4 -1 0 623.44 27.6
4 -1 0 638.34 52.19
-4 1 0 581.74 47.9
4 1 0 603.94 70.49
-4 1 0 601.84 22.4
4 1 0 564.54 26.5
5 -1 0 453.45 47.9
5 -1 0 471.95 21
-5 1 0 487.45 46.5
5 1 0 507.65 68.29
5 1 0 501.85 67.99
5 1 0 492.15 25.6
-5 1 0 457.05 20.7
-6 -1 0 534.55 29.2
6 -1 0 559.24 57.09
6 -1 0 574.94 25.5
-6 1 0 549.45 78.69
6 1 0 584.34 30.2
-6 1 0 577.24 25.4
6 1 0 505.45 75.99
6 1 0 519.75 74.59
7 -1 0 542.15 60.09
7 -1 0 568.94 27
-7 -1 0 557.04 31.3
-7 1 0 540.85 60.99
7 1 0 535.15 83.09
-7 1 0 547.45 26.5
7 1 0 504.35 29.9
7 1 0 431.56 74.49
8 -1 0 366.56 57.39
8 -1 0 367.16 22.7
8 1 0 329.47 25.2
8 1 0 448.86 97.29
-8 1 0 333.97 21.9
8 1 0 331.97 86.69
-8 1 0 373.16 55.49
9 -1 0 52.19 12.1
-9 -1 0 58.09 14.4
9 -1 0 42.1 30.1
9 1 0 17.4 25.7
-9 1 0 58.79 11.9
9 1 0 171.78 63.69
9 1 0 58.89 13.1
-10 -1 0 181.68 21.7
10 -1 0 198.78 19.5
10 -1 0 216.68 62.49
10 -1 0 183.58 52.99
-10 1 0 232.28 20.2
10 1 0 199.28 22.6
10 1 0 108.19 51.49
11 -1 0 373.46 77.79
-11 -1 0 297.77 28.6
11 -1 0 344.37 26.6
11 -1 0 356.66 76.69
11 1 0 153.18 56.49
-11 1 0 284.17 24.1
11 1 0 469.55 173.08
11 1 0 263.07 27
12 -1 0 209.08 22.9
12 -1 0 146.89 59.69
-12 1 0 179.18 20.1
12 1 0 131.49 61.09
12 1 0 153.88 25.8
13 -1 0 96.19 61.79
-13 -1 0 73.09 18.4
13 -1 0 81.49 16.3
13 1 0 56.69 17.8
13 1 0 64.79 68.49
-13 1 0 46.4 13.2
14 -1 0 224.88 25.9
14 -1 0 139.19 83.99
-14 1 0 221.68 25.4
0 -2 0 2607.44 70.69
0 2 0 2479.05 69.99
0 2 0 2295.77 145.19
-1 -2 0 536.05 68.09
-1 -2 0 549.85 24.2
1 -2 0 547.85 63.89
1 2 0 660.93 75.79
1 2 0 629.14 24.9
-1 2 0 679.73 70.39
2 -2 0 2935.61 154.38
-2 -2 0 2838.02 177.38
-2 -2 0 2739.63 83.79
-2 2 0 2842.02 148.59
2 2 0 2934.31 84.39
2 2 0 2959.5 183.88
-3 -2 0 2092.19 66.79
-3 2 0 1904.21 117.39
3 2 0 2043.4 154.28
3 2 0 1986.6 65.19
-4 -2 0 422.66 89.89
4 -2 0 287.17 44.5
-4 -2 0 306.67 20.3
-4 2 0 293.27 64.29
4 2 0 177.08 48.2
4 2 0 230.78 18
5 -2 0 640.24 63.59
-5 -2 0 665.03 34.1
5 2 0 722.23 97.49
5 2 0 683.63 34.2
-5 2 0 750.92 69.09
6 -2 0 584.04 62.09
-6 -2 0 566.04 32.9
-6 2 0 591.24 63.19
6 2 0 661.83 95.49
6 2 0 549.15 32.3
-7 -2 0 1224.38 53.89
7 -2 0 1215.98 91.49
-7 2 0 1206.58 92.39
7 2 0 1129.19 62.69
7 2 0 976.4 130.99
7 2 0 1105.09 132.09
-7 2 0 1124.79 40.6
-8 -2 0 346.07 29.7
8 -2 0 288.77 48.6
8 2 0 193.78 58.49
8 2 0 282.97 25.4
-8 2 0 377.46 52.69
8 2 0 302.47 93.69
-8 2 0 332.27 19.8
9 -2 0 314.47 62.29
-9 2 0 265.87 56.09
-9 2 0 276.47 19.4
9 2 0 309.67 99.69
9 2 0 185.68 61.39
9 2 0 295.47 26.6
10 -2 0 276.37 58.29
10 2 0 392.26 128.79
-10 2 0 233.88 88.89
10 2 0 256.97 26.2
-10 2 0 281.47 20.8
-11 -2 0 79.99 17.4
11 -2 0 77.79 42
-11 2 0 69.89 13.3
11 2 0 43.9 13.6
11 2 0 -48.7 40.1
11 2 0 -13.2 55.49
12 -2 0 -43 29
-12 2 0 18.5 10.3
12 2 0 173.08 75.29
12 2 0 13.1 9.2
13 -2 0 46.1 45
-13 2 0 42.6 12.8
0 -3 0 11.7 19.6
0 -3 0 3.6 3.2
0 3 0 1.1 3.3
0 3 0 38.7 29.4
1 -3 0 -1.6 25.1
1 -3 0 3 3.4
-1 -3 0 5.4 4.1
-1 -3 0 -34.3 19.8
1 3 0 9.5 5.5
1 3 0 15.2 22.3
-1 3 0 -9.6 20.1
-2 -3 0 152.58 14.5
2 -3 0 186.58 59.79
-2 -3 0 115.49 46.1
2 3 0 172.78 15.3
2 3 0 204.78 72.99
-2 3 0 192.08 54.69
3 -3 0 410.36 83.69
-3 -3 0 356.26 23.7
-3 -3 0 357.96 93.79
-3 3 0 417.86 68.59
3 3 0 274.77 79.69
3 3 0 354.16 23.5
4 -3 0 251.77 66.29
-4 -3 0 220.38 19.7
-4 -3 0 207.48 71.39
-4 3 0 174.98 54.49
4 3 0 189.08 75.99
4 3 0 188.18 18.4
-5 -3 0 28 35.5
5 -3 0 33.1 31.3
5 3 0 12.8 38.7
5 3 0 38.4 10.6
-5 3 0 34.2 27.6
-6 -3 0 78.89 16.1
6 -3 0 30.5 38.4
6 3 0 20.5 53.79
-6 3 0 198.18 52.49
6 3 0 99.09 17
7 -3 0 6.3 27.9
7 3 0 16.4 44.2
7 3 0 47.4 57.19
-7 3 0 83.79 38.8
8 -3 0 121.89 43.6
-8 -3 0 173.38 23.6
8 3 0 173.98 81.09
8 3 0 175.58 22.4
8 3 0 296.47 90.49
9 -3 0 43.9 33.3
-9 -3 0 23.6 14.8
9 3 0 35.7 44.2
-9 3 0 113.89 45.1
9 3 0 43.7 13.7
9 3 0 76.49 78.39
10 -3 0 60.79 36.8
-10 -3 0 37 14.9
10 3 0 -2.2 50.09
10 3 0 59.09 65.79
10 3 0 28.7 13.4
-10 3 0 96.89 38.4
11 -3 0 115.39 42.7
11 3 0 105.89 24.2
11 3 0 46.1 68.49
0 4 0 332.17 92.49
-1 -4 0 154.18 62.79
-1 -4 0 204.08 17.8
1 -4 0 300.17 89.59
-1 4 0 201.88 78.89
1 4 0 132.79 62.39
1 4 0 236.88 19.2
-2 -4 0 280.47 21.9
2 -4 0 116.49 70.99
-2 -4 0 126.99 65.19
-2 4 0 223.38 67.29
2 4 0 286.07 22.2
2 4 0 297.27 102.49
-3 -4 0 31.1 50.39
3 -4 0 197.28 69.09
3 4 0 180.38 91.49
3 4 0 131.39 17
-3 4 0 182.48 67.69
-4 -4 0 167.48 84.09
4 -4 0 242.68 69.29
-4 -4 0 128.69 17.9
-4 4 0 131.19 56.79
4 4 0 149.09 18.7
4 4 0 183.58 95.49
5 -4 0 406.26 94.59
-5 4 0 318.67 71.99
5 4 0 369.16 30
5 4 0 266.67 110.49
-6 -4 0 156.58 21.8
6 -4 0 32.6 75.89
-6 4 0 58.49 49.7
6 4 0 86.69 62.79
6 4 0 107.19 19.2
-7 -4 0 97.29 23.2
7 -4 0 60.89 54.09
7 4 0 74.19 61.29
7 4 0 72.89 16.3
7 4 0 124.89 73.89
-7 4 0 41.5 48.6
-8 -4 0 56.69 17
8 -4 0 58.89 53.09
8 4 0 -133.59 98.39
8 4 0 77.59 17
8 4 0 45.1 86.59
-8 4 0 105.19 53.69
9 -4 0 88.59 56.09
9 4 0 23.6 12.4
-9 4 0 -13.9 58.29
9 4 0 -47 91.29
9 4 0 118.39 98.39
0 -5 0 74.79 103.69
-1 -5 0 64.09 86.39
1 -5 0 -39.4 76.79
-2 -5 0 -61.59 71.99
2 -5 0 33.7 93.29
3 -5 0 85.89 100.69
14 0 -1 162.18 81.79
14 0 -1 174.98 27
-13 0 1 177.38 27.7
13 0 -1 175.88 76.99
13 0 -1 165.18 22.6
12 0 -1 370.86 30.7
12 0 -1 224.98 78.49
-12 0 1 320.57 28.6
11 0 -1 198.38 58.29
11 0 -1 184.68 21.2
11 0 -1 241.68 69.09
-11 0 1 233.78 23.3
10 0 -1 102.09 46.1
-10 0 1 125.39 16.7
10 0 -1 94.69 34.5
10 0 -1 143.39 18.1
-9 0 1 1489.35 59.89
9 0 -1 1443.66 126.09
9 0 -1 1519.45 60.09
9 0 -1 1287.97 119.79
8 0 -1 818.22 38.8
8 0 -1 703.53 82.49
8 0 -1 773.62 122.89
-8 0 1 843.12 39.8
7 0 -1 738.33 35
-7 0 1 763.72 35.3
7 0 -1 738.63 75.69
7 0 -1 833.12 180.58
-6 0 1 764.92 33.3
6 0 -1 733.93 33
6 0 -1 772.52 71.89
6 0 -1 715.83 69.89
5 0 -1 1234.38 44.3
-5 0 1 1259.87 44.4
5 0 -1 1311.97 87.59
5 0 -1 1226.88 84.59
4 0 -1 3103.19 133.29
4 0 -1 2886.61 129.29
-4 0 1 2935.71 84.89
4 0 -1 3073.39 85.49
3 0 -1 1329.97 70.39
3 0 -1 1393.96 72.29
-3 0 1 1317.37 41.6
3 0 -1 1374.86 42.1
2 0 -1 2553.74 91.09
-2 0 1 2432.46 89.79
-2 0 1 2338.47 65.39
2 0 1 1618.34 45.4
-2 0 -1 1635.44 45.4
-2 0 -1 1636.84 77.69
-3 0 -1 176.28 35.2
3 0 1 183.88 10.5
-3 0 -1 171.78 10.1
4 0 1 98.19 8.7
-4 0 -1 114.79 32.9
-4 0 -1 82.09 8
5 0 1 39 20
-5 0 -1 54.99 7.6
5 0 1 44.7 7.4
-5 0 -1 49.5 24
-6 0 -1 18.1 5.6
6 0 1 37.8 23.5
-6 0 -1 43.5 22
6 0 1 21.3 6.2
7 0 1 139.09 47.9
7 0 1 99.69 12
-7 0 -1 97.89 11.9
8 0 1 69.29 35.7
-8 0 -1 43.8 10.2
8 0 1 36.2 9.1
-9 0 -1 12.2 7.6
9 0 1 -13.7 19.8
9 0 1 8.2 6
9 0 1 13.3 22.8
-10 0 -1 46.3 11.4
10 0 1 58.99 13.8
10 0 1 9.4 21.7
10 0 1 54.69 40.7
11 0 1 133.29 50.09
11 0 1 138.19 50.79
-11 0 -1 160.48 19.9
11 0 1 165.88 20.2
12 0 1 6.7 7
-12 0 -1 19.5 8.9
12 0 1 -49.7 37.3
13 0 1 84.89 66.69
13 0 1 111.29 19.6
14 0 1 -102.79 68.59
-14 0 -1 15 11
14 -1 -1 -3.3 9.7
14 -1 -1 -26.7 57.89
-14 1 1 -7.5 9.5
-13 -1 1 4.6 8.8
13 -1 -1 -13.1 47.4
13 -1 -1 19.6 10.2
13 1 -1 2.4 10.1
13 1 -1 49.6 70.89
-13 1 1 -3.9 7.8
12 -1 -1 59.79 44.9
12 -1 -1 -10 6
12 1 -1 -29.7 53.39
12 1 -1 0.1 6.5
-12 1 1 1.7 8.4
11 -1 -1 250.67 64.09
11 -1 -1 167.18 52.09
-11 -1 1 261.87 26
11 -1 -1 211.18 21.3
-11 1 1 226.48 22
11 1 -1 125.99 47.7
11 1 -1 192.48 76.99
11 1 -1 238.48 25.5
10 -1 -1 5.7 7.1
10 -1 -1 22.6 25.7
-10 -1 1 16.2 7.4
10 -1 -1 7.6 19.2
-10 1 1 13.5 7
10 1 -1 22.9 27.9
10 1 -1 17.5 39.2
10 1 -1 4.4 6.4
-9 -1 1 315.37 25.6
9 -1 -1 296.47 22.1
9 -1 -1 243.08 53.39
9 -1 -1 261.87 44.6
-9 1 1 233.68 19.5
9 1 -1 151.88 55.69
9 1 -1 251.27 23.6
8 -1 -1 418.86 24.9
-8 -1 1 421.16 28.2
8 -1 -1 399.56 54.19
8 1 -1 422.26 92.69
-8 1 1 353.06 23.1
8 1 -1 412.96 27.8
-7 -1 1 115.29 14.2
7 -1 -1 101.99 11.8
7 -1 -1 178.28 38.5
-7 1 1 144.69 13.2
7 1 -1 117.39 14.3
7 1 -1 73.19 33.2
-7 1 1 157.68 38.2
6 -1 -1 562.74 25.5
6 -1 -1 519.15 49
-6 -1 1 518.85 28.7
-6 1 1 560.34 50.39
6 1 -1 427.46 65.59
6 1 -1 488.15 71.19
-6 1 1 516.35 24.6
5 -1 -1 382.36 19.4
5 -1 -1 349.87 37.5
-5 -1 1 368.36 22.5
-5 1 1 481.95 40.7
-5 1 1 442.86 20.3
5 1 -1 462.15 24.3
5 1 -1 431.16 62.89
-4 -1 1 1200.28 43.6
4 -1 -1 1244.98 63.89
-4 -1 1 1175.78 99.49
-4 1 1 1162.18 38.4
-4 1 1 1212.28 62.99
4 1 -1 1210.38 43.5
4 1 -1 1176.48 98.69
3 -1 -1 772.72 44.4
-3 -1 1 718.93 80.29
-3 -1 1 748.63 30
3 1 -1 812.82 30.6
-3 1 1 816.62 45.9
3 1 -1 819.72 75.79
-3 1 1 826.12 26.6
-2 -1 1 1784.72 55.99
-2 -1 1 1900.61 112.49
2 -1 -1 1893.51 78.79
-2 1 1 1991.2 53.19
2 1 -1 1993.1 56.79
-2 1 1 1970.9 79.79
1 -1 -1 9999 280.37
-1 -1 1 9634.34 312.47
1 -1 -1 9721.33 233.08
-1 -1 1 9580.64 234.28
1 1 -1 9217.88 307.37
-1 1 1 8841.32 232.38
-1 1 1 9169.58 275.67
1 1 -1 8934.01 233.88
0 -1 -1 1337.37 36.5
0 -1 1 1336.27 34.1
0 -1 1 1403.06 80.99
0 1 -1 1164.68 74.19
0 1 -1 1123.79 33.5
0 1 1 1139.79 70.69
0 1 1 1091.39 35.5
-1 -1 -1 4157.78 117.79
-1 -1 -1 4286.87 176.98
1 1 1 4831.62 118.79
-1 1 -1 4877.81 172.08
-2 -1 -1 3135.29 154.88
-2 -1 -1 3135.39 96.79
2 -1 1 3400.56 138.19
-2 1 -1 3614.44 142.99
2 1 1 3296.77 94.39
2 1 1 3576.84 162.58
-3 -1 -1 3574.84 98.79
3 -1 1 3555.54 148.39
3 1 1 3715.23 177.98
3 1 1 3354.06 98.09
3 1 1 3390.56 172.78
-3 1 -1 3511.45 146.79
4 -1 1 1054.39 75.59
4 -1 1 1095.89 33
-4 -1 -1 1077.59 39.7
-4 1 -1 966.7 32.1
4 1 1 970.5 38.5
-4 1 -1 994.4 72.59
4 1 1 1049.79 95.29
4 1 1 1084.89 94.99
5 -1 1 2041.3 117.09
5 -1 1 1906.31 58.39
-5 -1 -1 1902.41 65.29
5 1 1 1907.81 64.89
-5 1 -1 2087.29 115.29
5 1 1 2030.3 143.09
5 1 1 1911.11 138.59
6 -1 1 1645.74 52.59
-6 -1 -1 1521.75 58.59
6 -1 1 1619.54 109.19
6 1 1 1574.24 58.59
-6 1 -1 1631.84 52.39
6 1 1 1623.84 133.79
-6 1 -1 1658.13 107.49
6 1 1 1754.92 139.99
7 -1 1 1226.88 100.99
-7 -1 -1 1216.38 51.09
7 -1 1 1185.48 44.1
7 1 1 1110.19 115.79
7 1 1 1167.68 118.99
7 1 1 1198.38 50.19
-7 1 -1 1220.48 97.59
-7 1 -1 1200.58 44.3
8 -1 1 734.43 33.8
-8 -1 -1 732.73 39.3
8 -1 1 891.81 91.29
8 1 1 741.93 39.1
-8 1 -1 755.32 82.99
-8 1 -1 692.83 32.9
8 1 1 674.53 93.89
8 1 1 728.73 99.39
-9 -1 -1 163.98 19.6
9 -1 1 161.08 16.1
9 -1 1 164.38 52.69
-9 1 -1 234.28 59.49
9 1 1 226.58 72.29
9 1 1 159.18 64.79
9 1 1 141.19 18.1
-9 1 -1 159.58 15.9
10 -1 1 630.34 89.59
-10 -1 -1 583.24 38.1
10 -1 1 556.44 32.5
10 1 1 635.24 38.9
10 1 1 501.65 108.49
-10 1 -1 615.64 33.8
-11 -1 -1 252.07 26.6
11 -1 1 244.08 68.39
11 -1 1 223.28 21.4
11 -1 1 215.18 63.79
11 1 1 215.88 75.59
11 1 1 240.68 25.7
-11 1 -1 255.97 22.2
-12 -1 -1 332.37 61.19
12 -1 1 353.76 28.5
12 -1 1 242.98 77.99
12 1 1 313.67 29.5
-12 1 -1 318.67 27.5
-13 -1 -1 200.48 24.7
13 -1 1 9.9 57.89
13 -1 1 121.59 20.3
13 1 1 42.8 69.29
13 1 1 120.39 24
-13 1 -1 138.19 19
14 -1 1 -46.2 73.69
14 -1 1 40.8 13.1
-14 1 -1 33.7 13
-13 2 1 146.19 19.2
12 -2 -1 333.37 88.09
-12 2 1 335.27 26.2
12 2 -1 273.87 90.19
12 2 -1 313.17 31.6
-11 -2 1 192.88 24.9
11 -2 -1 221.98 46.9
11 2 -1 182.48 82.79
11 2 -1 281.47 96.49
-11 2 1 197.28 37.2
11 2 -1 197.78 24.3
10 -2 -1 140.49 37.3
10 2 -1 142.69 20
-10 2 1 130.09 15.3
10 2 -1 151.28 64.49
10 2 -1 124.99 60.09
9 -2 -1 314.67 45.6
9 2 -1 231.08 64.29
9 2 -1 330.77 28.3
-9 2 1 387.66 23.1
9 2 -1 169.38 71.39
-8 -2 1 228.28 23.3
8 -2 -1 237.58 39.6
-8 2 1 257.27 17.8
8 2 -1 214.88 78.89
8 2 -1 240.88 23.4
-8 2 1 313.17 41.7
7 -2 -1 1367.86 86.79
-7 -2 1 1169.28 53.49
7 2 -1 1162.58 55.29
-7 2 1 1181.38 79.29
7 2 -1 934.91 119.99
-7 2 1 1097.49 41.6
-6 -2 1 776.52 104.29
6 -2 -1 690.43 60.99
-6 -2 1 788.82 39.5
6 2 -1 896.71 113.79
-6 2 1 783.52 30.8
-6 2 1 712.43 29.1
6 2 -1 705.13 37.4
-6 2 1 760.92 62.29
5 -2 -1 533.35 52.89
-5 -2 1 527.75 29.5
-5 -2 1 466.25 79.19
-5 2 1 539.05 54.19
-5 2 1 488.35 22
5 2 -1 768.72 127.09
-5 2 1 473.05 21.2
5 2 -1 525.25 29.2
-4 -2 1 789.92 98.99
-4 -2 1 781.22 35.4
4 -2 -1 813.72 67.69
-4 2 1 762.42 65.89
4 2 -1 788.62 97.09
4 2 -1 778.92 35.3
-3 -2 1 739.93 33.8
-3 -2 1 752.52 92.29
3 -2 -1 751.62 68.09
3 2 -1 962.8 36.6
-3 2 1 1025.7 75.29
3 2 -1 1079.79 108.89
2 -2 -1 964 78.49
2 -2 -1 921.31 30.9
-2 -2 1 916.91 35.3
-2 -2 1 982.1 100.19
2 2 -1 998.8 100.19
-2 2 1 902.11 30.6
-2 2 1 891.91 74.79
2 2 -1 973.6 35.6
-1 -2 1 1290.17 111.49
1 -2 -1 1409.46 102.59
-1 -2 1 1408.16 44.3
1 -2 -1 1404.06 42.8
1 2 -1 1393.36 114.69
1 2 -1 1322.47 43.6
-1 2 1 1386.56 100.29
-1 2 1 1319.97 42
0 -2 -1 856.41 31.8
0 -2 1 828.62 85.69
0 -2 1 841.02 29.5
0 2 -1 919.41 85.89
0 2 1 992 88.29
0 2 1 980.7 32.7
0 2 -1 885.01 29.8
-1 -2 -1 972.4 35.1
-1 -2 -1 913.41 89.89
-1 2 -1 977.3 86.69
1 2 1 921.31 34.5
1 2 1 943.71 91.99
-2 -2 -1 155.08 12.5
2 -2 1 191.68 44.1
-2 -2 -1 201.58 55.69
2 2 1 168.88 54.19
2 2 1 95.09 10.3
-2 2 -1 122.89 39
3 -2 1 113.99 35.8
-3 -2 -1 119.19 12.4
-3 -2 -1 82.79 39.8
-3 2 -1 167.08 44.5
3 2 1 216.58 60.79
3 2 1 134.69 12.9
-4 -2 -1 575.14 29.6
4 -2 1 573.54 66.39
4 2 1 531.85 28.6
4 2 1 500.85 80.39
-4 2 -1 574.04 66.29
-5 -2 -1 246.48 20.4
5 -2 1 299.17 47.7
5 2 1 344.67 81.29
5 2 1 243.08 68.59
-5 2 -1 318.57 89.09
5 2 1 252.67 19.9
6 -2 1 123.89 39.5
-6 -2 -1 119.59 15.4
6 2 1 91.69 45.5
-6 2 -1 119.19 40.1
6 2 1 107.69 17.1
6 2 1 103.69 56.49
7 -2 1 79.29 32.7
-7 -2 -1 133.59 16.7
7 2 1 139.29 91.99
-7 2 -1 129.69 42.9
7 2 1 126.09 60.39
8 -2 1 15.4 21.2
8 2 1 15.3 32.6
-8 2 -1 54.59 27.7
8 2 1 42 41
8 2 1 37.2 12.5
9 -2 1 60.49 37.7
9 2 1 21.4 35.4
9 2 1 18.3 30.2
-9 2 -1 79.89 12.2
-9 2 -1 71.59 34.5
9 2 1 67.29 15.9
10 -2 1 38.3 33.8
-10 2 -1 85.39 39.9
10 2 1 39.6 52.99
10 2 1 78.89 16.4
10 2 1 105.29 48.6
-10 2 -1 79.59 13.3
-11 -2 -1 26.9 11.1
11 -2 1 -40.5 35.4
11 2 1 27.5 13
11 2 1 8.4 57.29
-11 2 -1 83.69 46.4
-11 2 -1 14.1 8.1
11 2 1 -17.8 39.3
12 -2 1 62.29 45
-12 2 -1 8.4 6.8
12 2 1 -7.2 8.2
13 -2 1 149.29 61.69
11 3 -1 13.6 55.99
11 3 -1 11.5 10.9
10 3 -1 61.29 75.39
10 3 -1 19.6 64.59
-9 -3 1 61.59 16.3
9 -3 -1 73.49 29.5
9 3 -1 -28.4 48.1
9 3 -1 61.39 63.39
-9 3 1 62.09 31.6
9 3 -1 65.89 16.5
-8 -3 1 58.99 14.5
8 -3 -1 33.2 28.5
8 3 -1 26.8 63.09
8 3 -1 95.99 65.79
-8 3 1 79.49 30.7
8 3 -1 72.09 15.4
-7 -3 1 18.5 15.6
7 -3 -1 21 28.1
-7 3 1 25.1 28.3
7 3 -1 30.8 10.5
7 3 -1 22.3 39.3
6 -3 -1 177.58 48
-6 -3 1 80.99 50.19
-6 -3 1 217.78 21.9
6 3 -1 167.98 91.39
6 3 -1 234.08 22.6
-6 3 1 257.87 54.79
-5 -3 1 224.58 85.69
5 -3 -1 206.38 49.6
-5 -3 1 176.88 19.6
-5 3 1 237.38 57.99
5 3 -1 151.08 73.49
5 3 -1 214.38 20.5
-4 -3 1 261.27 21.5
4 -3 -1 224.38 57.49
-4 -3 1 183.88 67.19
4 3 -1 213.98 72.99
-4 3 1 232.98 56.79
4 3 -1 258.57 20.9
-3 -3 1 177.48 59.79
-3 -3 1 258.07 19.7
3 -3 -1 212.48 54.39
-3 3 1 494.15 121.29
3 3 -1 166.28 55.79
3 3 -1 292.67 20.6
-2 -3 1 402.66 97.59
-2 -3 1 350.96 21.9
2 -3 -1 439.96 91.49
2 3 -1 384.16 22.7
-2 3 1 410.76 79.19
2 3 -1 516.85 87.69
-1 -3 1 794.32 32.3
1 -3 -1 753.02 30.6
-1 -3 1 733.63 100.39
1 -3 -1 699.13 90.39
-1 3 1 821.72 96.79
1 3 -1 798.62 32.4
1 3 -1 857.71 108.89
-1 3 1 734.03 30.1
0 -3 -1 333.67 19.4
0 -3 1 335.17 17.9
0 -3 1 264.17 74.49
0 3 1 324.67 19.1
0 3 -1 346.37 18
0 3 -1 264.27 68.59
0 3 1 317.67 77.89
-1 -3 -1 632.24 91.99
-1 -3 -1 561.74 27.5
1 3 1 524.15 26.9
1 3 1 661.53 94.19
-1 3 -1 540.85 81.79
-2 -3 -1 684.53 97.19
-2 -3 -1 568.94 29.3
2 -3 1 538.35 82.69
2 3 1 560.14 29
2 3 1 533.95 89.09
-2 3 -1 472.85 76.79
-3 -3 -1 259.57 21
-3 -3 -1 451.75 134.99
3 -3 1 238.48 67.59
-3 3 -1 282.57 66.79
3 3 1 378.66 24
3 3 1 366.36 92.69
4 -3 1 515.75 79.69
-4 -3 -1 559.34 33.1
-4 -3 -1 664.93 133.49
4 3 1 672.53 35
-4 3 -1 652.83 101.79
4 3 1 618.74 107.29
5 -3 1 1140.49 112.99
-5 -3 -1 1266.17 54.59
-5 3 -1 1156.48 112.59
5 3 1 1162.38 63.69
5 3 1 1041.6 141.69
6 -3 1 254.37 65.59
-6 -3 -1 374.06 28.5
6 3 1 356.16 104.79
-6 3 -1 321.17 71.29
6 3 1 360.36 102.29
6 3 1 301.07 25.9
7 -3 1 8.4 35
7 3 1 105.99 20.2
-7 3 -1 62.69 42.3
7 3 1 132.39 66.09
7 3 1 46 46.2
8 -3 1 501.95 86.79
-8 -3 -1 506.65 37.3
8 3 1 494.25 36.2
-8 3 -1 423.86 72.29
8 3 1 538.95 132.59
8 3 1 407.46 105.39
9 -3 1 248.98 56.69
9 3 1 107.79 77.39
-9 3 -1 154.28 55.59
9 3 1 188.48 86.19
9 3 1 184.98 24.3
-10 -3 -1 119.69 25.2
10 -3 1 47.4 47.8
-10 3 -1 65.89 50.89
10 3 1 65.99 70.79
10 3 1 109.39 22.1
10 3 1 31.1 60.89
11 -3 1 114.19 59.09
11 3 1 127.99 34.3
11 3 1 -4.9 81.29
-11 3 -1 118.29 49.9
9 4 -1 186.78 24.4
9 4 -1 113.29 90.79
9 4 -1 94.69 138.39
8 -4 -1 47.7 52.49
-8 -4 1 33.8 13.1
-8 4 1 -43.2 36
8 4 -1 -77.49 71.39
8 4 -1 22.7 73.09
8 4 -1 22.2 11.8
-7 -4 1 88.39 19.8
7 -4 -1 33.4 51.89
-7 4 1 110.79 50.79
7 4 -1 82.29 15.8
7 4 -1 218.28 118.59
-6 -4 1 173.88 22.9
6 -4 -1 229.88 63.29
6 4 -1 160.88 114.49
6 4 -1 217.18 24.1
-5 -4 1 -39.1 70.29
-5 -4 1 81.39 17.7
5 -4 -1 55.19 46.1
5 4 -1 -12.4 52.69
-5 4 1 194.78 63.09
5 4 -1 83.69 16.7
-4 -4 1 66.99 13.9
4 -4 -1 3.1 44.2
-4 -4 1 23.5 61.99
4 4 -1 60.09 13.9
4 4 -1 47 51.89
-4 4 1 82.19 46.7
-3 -4 1 121.59 16.8
-3 -4 1 108.49 76.99
3 -4 -1 89.19 51.59
-3 4 1 68.39 45.8
3 4 -1 246.68 94.19
3 4 -1 161.68 18.6
-2 -4 1 253.47 87.39
-2 -4 1 230.08 19.5
2 -4 -1 241.68 81.49
2 4 -1 75.19 66.79
2 4 -1 245.18 20.8
-2 4 1 212.08 63.99
-1 -4 1 113.19 60.99
1 -4 -1 90.29 47.1
1 4 -1 71.09 12.4
-1 4 1 39.2 34.6
1 4 -1 30.9 46.3
0 -4 -1 29.3 8.5
0 -4 -1 -6.9 37.1
0 -4 1 13.4 33.8
0 4 1 118.79 60.79
0 4 -1 100.09 63.49
0 4 1 21.1 8.2
-1 -4 -1 103.69 54.79
-1 -4 -1 97.79 13.5
1 -4 1 96.29 67.69
1 4 1 66.89 52.39
-1 4 -1 17.6 44.4
1 4 1 72.49 13.1
-2 -4 -1 71.49 13.8
2 -4 1 79.69 60.19
-2 -4 -1 14.8 49.6
2 4 1 102.19 67.99
2 4 1 83.79 14.3
-2 4 -1 46.2 44.8
-3 -4 -1 53.49 12.8
-3 -4 -1 34.3 52.49
3 -4 1 58.09 54.19
-3 4 -1 11.5 39.9
3 4 1 138.69 74.79
3 4 1 60.99 15.6
-4 -4 -1 5.8 8.7
4 -4 1 2.3 39
4 4 1 29.2 57.29
4 4 1 25.9 11.3
-4 4 -1 27.4 46.4
5 -4 1 8.2 53.19
5 4 1 19.1 9.5
-5 4 -1 -1.4 45.3
5 4 1 -1.8 62.89
6 -4 1 -20.6 43.2
-6 -4 -1 33.8 13.7
6 4 1 -28.4 49.5
-6 4 -1 99.09 58.59
6 4 1 39.5 71.99
6 4 1 53.29 14.1
-7 -4 -1 23.3 16.1
7 -4 1 -67.09 42.9
7 4 1 38.1 14
7 4 1 31.1 53.89
7 4 1 3.3 85.29
-7 4 -1 15.8 88.79
8 -4 1 50.09 54.69
8 4 1 43.8 107.59
8 4 1 60.39 75.89
9 -4 1 -47.8 60.29
9 4 1 -190.38 175.18
-9 4 -1 106.59 60.39
9 4 1 17.5 15.7
-3 -5 1 -36.5 118.49
3 -5 -1 -65.99 76.29
2 -5 -1 -35 82.39
-1 -5 1 49.6 91.89
1 -5 -1 8.3 76.89
0 -5 -1 29.4 86.09
1 -5 1 9.2 90.79
-2 -5 -1 56.79 14.5
2 -5 1 27.1 95.89
2 5 1 62.69 15.6
-3 -5 -1 46.4 17.5
3 -5 1 -134.69 129.49
3 5 1 36.8 13.9
14 0 -2 112.69 75.99
14 0 -2 53.89 18.3
13 0 -2 20 10.9
13 0 -2 32.9 58.29
-13 0 2 16.6 8.4
12 0 -2 369.16 31.2
-12 0 2 317.37 28.3
12 0 -2 329.97 92.39
11 0 -2 370.46 84.09
-11 0 2 399.86 31.1
11 0 -2 415.66 88.59
11 0 -2 380.56 30.3
10 0 -2 903.61 45.4
10 0 -2 766.02 97.99
-10 0 2 858.61 44.5
10 0 -2 651.33 85.99
9 0 -2 -18.8 12.4
9 0 -2 3.9 21
9 0 -2 -2.8 4.5
-9 0 2 1 4.8
8 0 -2 674.33 77.19
-8 0 2 734.83 37.2
8 0 -2 755.22 37.7
8 0 -2 811.82 83.59
7 0 -2 11.3 5.5
7 0 -2 -18.6 9.7
7 0 -2 1.7 16.1
-7 0 2 5 5.2
6 0 -2 263.67 54.59
6 0 -2 215.98 16.5
-6 0 2 223.68 16.8
6 0 -2 229.08 45.6
5 0 -2 2.8 3.3
-5 0 2 3.3 2.9
5 0 -2 -7.2 7.2
5 0 -2 5.1 8.3
-4 0 2 493.45 22.5
4 0 -2 504.75 45.5
4 0 -2 527.95 23.1
-3 0 2 1009.5 57.99
-3 0 2 895.01 31.7
3 0 -2 870.41 32.4
3 0 -2 978.3 57.49
-2 0 2 551.74 20
2 0 -2 531.45 34.9
2 0 -2 526.85 19.7
-2 0 2 547.55 35.7
1 0 -2 1930.21 71.49
-1 0 2 1911.91 71.19
0 0 2 118.19 6.4
0 0 2 126.19 16.1
0 0 -2 128.99 16
0 0 -2 131.19 6.3
-1 0 -2 137.19 19.5
1 0 2 120.19 6.4
-1 0 -2 116.49 6.2
-2 0 -2 583.94 48.1
2 0 2 614.04 20.9
-2 0 -2 614.44 21
2 0 2 644.74 50.49
3 0 2 1890.61 53.19
3 0 2 1486.05 94.09
-3 0 -2 1899.71 53.19
-3 0 -2 1905.41 102.59
-4 0 -2 2397.36 129.09
-4 0 -2 2342.47 69.59
4 0 2 2437.36 69.99
-5 0 -2 211.68 48.2
-5 0 -2 211.78 14.5
5 0 2 191.58 13.8
-6 0 -2 1473.25 115.39
-6 0 -2 1523.55 53.79
6 0 2 1587.84 54.19
7 0 2 1326.07 49.99
7 0 2 1317.07 117.49
-7 0 -2 1189.48 111.49
-7 0 -2 1287.37 49.9
8 0 2 576.94 31.4
-8 0 -2 617.04 86.79
8 0 2 587.24 83.79
-8 0 -2 545.55 30.9
-9 0 -2 441.46 28.5
9 0 2 385.76 26.8
10 0 2 233.28 64.89
10 0 2 344.27 86.79
10 0 2 273.17 23.7
-10 0 -2 280.67 23.4
11 0 2 409.16 101.89
11 0 2 285.37 73.99
-11 0 -2 376.56 28.9
11 0 2 325.17 27.8
-12 0 -2 130.69 18.4
12 0 2 108.59 18.9
12 0 2 64.49 58.29
13 0 2 403.86 134.69
13 0 2 346.77 31.3
-14 0 -2 141.49 30.6
14 0 2 165.48 143.29
14 0 2 179.78 25.4
14 -1 -2 116.79 72.69
-14 1 2 129.09 22.7
13 -1 -2 112.89 20.2
13 -1 -2 135.89 58.79
-13 -1 2 110.39 26.4
-13 1 2 164.08 21.8
13 1 -2 106.39 72.79
13 1 -2 123.69 22.7
12 -1 -2 11.1 8.2
-12 -1 2 8.8 10.2
12 -1 -2 -6.1 35.8
12 1 -2 9.6 9.1
-12 1 2 11.1 7.4
11 -1 -2 357.46 28
11 -1 -2 375.26 68.79
11 -1 -2 347.77 69.39
-11 -1 2 386.16 32.4
11 1 -2 374.46 95.69
-11 1 2 361.66 27.6
11 1 -2 326.07 29.9
11 1 -2 204.48 71.79
-10 -1 2 573.54 37.9
10 -1 -2 639.14 70.19
10 -1 -2 587.64 69.79
10 -1 -2 607.04 35.3
10 1 -2 567.24 117.19
10 1 -2 699.93 103.79
10 1 -2 623.54 39
9 -1 -2 140.89 40.9
9 -1 -2 131.39 15.7
9 -1 -2 149.09 38.3
-9 -1 2 125.99 16.6
9 1 -2 76.39 33.8
-9 1 2 150.68 15.9
9 1 -2 150.78 18.5
9 1 -2 57.39 33.2
8 -1 -2 1924.01 108.19
8 -1 -2 1849.11 109.99
8 -1 -2 1947.51 68.49
-8 -1 2 1995.8 74.89
8 1 -2 2002.2 161.38
8 1 -2 2039.2 74.49
-8 1 2 1939.01 68.19
-7 -1 2 1293.17 52.59
7 -1 -2 1240.58 78.79
7 -1 -2 1218.98 76.69
7 -1 -2 1269.97 47.8
-7 1 2 1221.98 46.9
7 1 -2 1115.99 114.69
7 1 -2 1208.38 51.09
6 -1 -2 839.92 34.2
-6 -1 2 836.62 38.2
6 -1 -2 784.92 53.89
-6 1 2 810.22 33.4
6 1 -2 777.02 36.8
6 1 -2 855.91 93.59
-5 -1 2 1517.65 53.39
5 -1 -2 1416.36 65.99
-5 -1 2 1566.04 121.69
-5 1 2 1394.06 47.8
5 1 -2 1382.96 114.99
5 1 -2 1473.65 52.49
-4 -1 2 1153.38 97.39
-4 -1 2 1071.49 39.7
4 -1 -2 1058.79 44.7
-4 1 2 987.5 35.2
4 1 -2 1013.2 38.7
-4 1 2 989.2 43.6
4 1 -2 974.8 90.29
3 -1 -2 724.53 32.8
-3 -1 2 689.83 70.09
-3 -1 2 679.33 28.4
3 1 -2 779.22 74.09
-3 1 2 753.32 26.5
-3 1 2 651.93 44.8
3 1 -2 792.32 29.5
-2 -1 2 3219.98 91.19
-2 -1 2 3471.05 163.18
2 -1 -2 3117.39 119.49
-2 1 2 3352.96 89.79
2 1 -2 3442.06 91.79
-2 1 2 3390.36 109.39
2 1 -2 3511.55 161.88
-1 -1 2 9471.75 240.08
1 -1 -2 9898.91 281.47
1 -1 -2 9368.76 240.68
-1 -1 2 9758.62 321.77
-1 1 2 9326.47 240.58
-1 1 2 9897.41 282.57
1 1 -2 9659.13 318.67
1 1 -2 9613.54 240.08
0 -1 -2 3113.59 83.49
0 -1 2 3164.58 142.69
0 1 2 3064.99 129.69
0 1 2 3074.79 83.49
-1 -1 -2 880.41 29.4
1 1 2 791.22 28.5
1 1 2 812.12 65.49
1 1 2 852.51 66.69
-2 -1 -2 1320.67 42.1
2 1 2 1144.59 87.09
2 1 2 1334.67 94.29
2 1 2 1244.88 41.3
-2 1 -2 1284.07 84.49
3 -1 2 1972.6 113.09
-3 -1 -2 2060.79 64.39
-3 1 -2 2185.88 116.59
3 1 2 2144.39 64.69
3 1 2 2145.59 132.29
4 -1 2 737.53 26.1
4 -1 2 717.63 68.59
-4 -1 -2 697.13 32.5
4 1 2 747.33 80.89
4 1 2 909.31 34.7
-4 1 -2 915.01 27.2
4 1 2 834.12 84.29
-4 1 -2 917.51 74.39
-5 -1 -2 482.95 25
5 -1 2 397.06 53.89
5 1 2 408.56 81.69
-5 1 -2 382.76 18.5
5 1 2 400.26 23.2
5 1 2 362.76 58.79
-5 1 -2 343.27 49.6
6 -1 2 1612.94 51.69
6 -1 2 1662.33 118.09
-6 -1 -2 1644.54 59.29
-6 1 -2 1549.94 51.09
6 1 2 1553.64 58.29
-6 1 -2 1609.94 112.39
6 1 2 1512.25 133.09
6 1 2 1601.14 134.69
7 -1 2 306.67 18.6
-7 -1 -2 273.27 21.4
7 -1 2 275.37 72.09
-7 1 -2 345.07 55.09
7 1 2 215.88 62.19
7 1 2 168.38 49.99
-7 1 -2 313.67 18.6
7 1 2 307.07 22.6
8 -1 2 345.07 21.5
-8 -1 -2 343.77 25.8
8 -1 2 329.37 70.99
-8 1 -2 343.67 21.2
8 1 2 463.55 104.79
8 1 2 215.38 61.19
8 1 2 326.17 25.1
-8 1 -2 317.17 68.29
9 -1 2 20 29.8
9 -1 2 27.3 8.5
-9 -1 -2 30.1 10.3
9 1 2 18.7 28.9
9 1 2 30.8 35.1
-9 1 -2 35.7 9.1
9 1 2 29.8 9.3
-9 1 -2 70.19 36.6
10 -1 2 51.89 42.3
10 -1 2 71.39 13.7
-10 -1 -2 48.3 13.2
10 1 2 72.29 16.7
10 1 2 67.29 38.1
-10 1 -2 101.79 50.09
10 1 2 80.59 42.7
-10 1 -2 72.89 14.3
-11 -1 -2 14.1 10.7
11 -1 2 9 7.8
11 -1 2 77.59 49.8
11 1 2 11.2 10.1
-11 1 -2 2.9 6.8
11 1 2 7.7 33.6
11 1 2 16.8 39.2
12 -1 2 7 8.4
-12 -1 -2 -1.4 9
12 -1 2 -12.4 45.2
12 1 2 -23.2 51.09
12 1 2 0 8.1
-12 1 -2 15.2 8.5
13 -1 2 20.8 10.5
-13 -1 -2 18.4 14.2
13 -1 2 -17.5 54.39
13 1 2 19.9 12.5
-13 1 -2 20.3 10.3
-13 2 2 23.7 11.4
12 2 -2 3.3 9.4
12 2 -2 -30.8 45
-12 2 2 14.9 9.8
11 2 -2 -73.69 34.9
11 2 -2 -9.4 43.2
10 2 -2 33.8 11.8
-10 2 2 14.4 8.5
10 2 -2 64.19 63.29
10 2 -2 37.4 35.3
9 -2 -2 92.09 22.4
-9 2 2 111.09 13.7
9 2 -2 113.29 20.6
9 2 -2 16.3 38.2
8 -2 -2 45.1 16.2
-8 -2 2 83.59 17.1
8 2 -2 115.39 52.09
8 2 -2 39.9 11.4
8 2 -2 47.5 45.2
-8 2 2 61.39 11.5
7 -2 -2 102.09 22.7
-7 -2 2 80.49 14.8
-7 2 2 71.59 9.9
-7 2 2 70.79 11.6
7 2 -2 66.79 15.9
-7 2 2 100.09 23.1
7 2 -2 29.8 32.3
-6 -2 2 37 34.2
6 -2 -2 25.8 15.5
-6 -2 2 36.9 9.6
-6 2 2 47.2 8.5
-6 2 2 46.8 8.9
6 2 -2 64.19 12
-6 2 2 38 14.3
6 2 -2 25.5 33
-5 -2 2 183.88 17.1
5 -2 -2 192.58 29.9
-5 -2 2 181.18 53.39
-5 2 2 207.98 30.6
5 2 -2 210.88 18.2
-5 2 2 210.58 13.8
5 2 -2 230.18 65.09
-5 2 2 207.88 14.4
-4 -2 2 30.3 25.4
-4 -2 2 26 7.2
4 -2 -2 29.9 15.2
4 2 -2 49.2 10.1
-4 2 2 41 7.2
4 2 -2 54.99 31.4
-4 2 2 39.9 6.8
-4 2 2 39.5 19.6
3 -2 -2 989 72.89
-3 -2 2 860.11 99.19
-3 -2 2 904.31 36.9
-3 2 2 926.71 68.99
-3 2 2 955.2 33.3
3 2 -2 1055.39 108.09
3 2 -2 911.61 37.1
2 -2 -2 277.17 54.89
-2 -2 2 237.08 54.19
-2 -2 2 244.48 15.1
-2 2 2 226.78 36.6
2 2 -2 229.08 14.9
-2 2 2 208.78 13
2 2 -2 211.08 57.79
1 -2 -2 36.5 21.5
-1 -2 2 33.1 21.5
1 -2 -2 59.29 7.3
1 2 -2 71.19 7.6
-1 2 2 47.2 23.6
-1 2 2 77.39 8.1
1 2 -2 108.69 42.6
0 -2 -2 778.42 79.39
0 -2 2 842.02 28.2
0 -2 -2 865.81 32.4
0 -2 2 985.4 93.39
0 2 2 795.42 80.09
0 2 2 898.41 32.5
0 2 -2 903.21 89.69
-1 -2 -2 378.16 58.09
-1 -2 -2 386.06 20.1
1 2 2 355.96 55.59
1 2 2 364.36 19.6
-1 2 -2 386.66 56.19
-2 -2 -2 13.1 19.4
2 -2 2 20.6 21.8
-2 -2 -2 23.3 6.6
2 2 2 14.8 16.1
-2 2 -2 -2.9 11.2
2 2 2 8 4.4
-3 -2 -2 255.27 18
3 -2 2 382.56 74.19
-3 2 -2 262.57 56.39
3 2 2 227.18 62.99
3 2 2 250.67 17.8
-4 -2 -2 1200.48 48.3
4 -2 2 1204.18 100.29
-4 2 -2 1254.27 104.29
4 2 2 1135.29 119.69
4 2 2 1331.67 127.69
4 2 2 1216.08 48.3
5 -2 2 728.53 77.09
-5 -2 -2 632.74 34.1
5 2 2 575.64 88.19
5 2 2 631.34 33.7
5 2 2 724.53 99.39
-5 2 -2 697.73 78.19
6 -2 2 1235.88 104.49
-6 -2 -2 1332.57 54.79
6 2 2 1194.68 51.99
-6 2 -2 1300.07 157.78
6 2 2 1102.09 129.89
6 2 2 1051.69 123.29
7 -2 2 193.68 55.89
-7 -2 -2 181.48 19.8
7 2 2 113.49 58.89
7 2 2 189.78 19.9
-7 2 -2 174.88 54.39
7 2 2 133.89 55.79
8 -2 2 234.08 54.59
8 2 2 222.68 70.79
8 2 2 287.17 25.5
-8 2 -2 339.67 69.79
9 -2 2 488.35 75.29
-9 2 -2 415.26 84.59
9 2 2 461.05 34.1
9 2 2 488.15 118.29
9 2 2 233.78 81.29
-10 -2 -2 168.08 32.5
10 -2 2 198.88 55.49
10 2 2 248.78 26.3
10 2 2 180.38 63.89
10 2 2 142.79 78.29
-10 2 -2 214.28 17.1
-10 2 -2 228.18 64.49
11 -2 2 275.07 97.99
-11 -2 -2 280.67 30.6
11 2 2 418.16 119.39
11 2 2 308.57 102.69
11 2 2 259.67 29
-11 2 -2 325.87 79.59
-11 2 -2 257.57 20.6
12 -2 2 56.99 49.8
12 2 2 103.39 20.7
-12 2 -2 104.69 17
12 2 2 238.38 98.39
13 -2 2 166.88 73.69
-13 2 -2 109.89 17.6
11 3 -2 60.39 19
11 3 -2 -21.1 90.29
-10 -3 2 137.49 27.6
10 3 -2 172.08 28.1
10 3 -2 129.89 64.69
10 3 -2 16.2 59.89
-9 -3 2 196.48 26.2
9 3 -2 217.58 25.3
9 3 -2 127.39 76.09
9 3 -2 92.99 68.79
-8 -3 2 484.25 35.5
8 3 -2 528.25 128.79
8 3 -2 414.86 32.6
-7 -3 2 175.48 28.6
-7 -3 2 237.68 85.69
7 -3 -2 183.68 41.5
7 3 -2 198.98 22.3
7 3 -2 85.29 64.49
-7 3 2 217.68 43.6
-6 -3 2 519.85 34.2
-6 -3 2 478.55 116.59
6 -3 -2 552.14 65.89
6 3 -2 575.14 35.1
-6 3 2 616.14 64.49
6 3 -2 474.55 157.08
-5 -3 2 383.86 115.09
-5 -3 2 352.56 26.5
5 -3 -2 417.76 58.39
5 3 -2 323.37 25
5 3 -2 469.15 142.09
-5 3 2 337.47 54.99
-4 -3 2 425.66 96.69
4 -3 -2 625.24 74.79
-4 -3 2 570.44 32
4 3 -2 572.04 31.6
4 3 -2 426.76 93.09
-4 3 2 642.54 76.59
-3 -3 2 943.71 41.4
-3 -3 2 938.81 125.29
3 -3 -2 1030.4 99.69
-3 3 2 952 94.29
3 3 -2 1072.69 130.99
3 3 -2 1008.7 42.1
2 -3 -2 217.48 14.5
-2 -3 2 220.78 16.2
2 -3 -2 236.58 63.49
2 3 -2 168.08 15.2
-2 3 2 175.58 13.5
2 3 -2 297.67 81.39
-2 3 2 158.58 46.5
1 -3 -2 595.84 26.8
-1 -3 2 596.14 26.5
1 -3 -2 570.24 81.59
-1 -3 2 587.84 116.29
-1 3 2 567.44 26.5
1 3 -2 507.15 111.89
-1 3 2 541.15 82.49
1 3 -2 525.15 25.4
0 -3 -2 910.81 38.1
0 -3 2 836.62 110.19
0 -3 -2 1012.9 111.99
0 3 -2 1000.7 114.29
0 3 2 984.7 38.4
0 3 2 1064.39 116.09
-1 -3 -2 439.36 25.2
-1 -3 -2 546.65 83.79
1 3 2 503.95 100.79
1 3 2 533.25 26.8
-1 3 -2 384.46 79.89
-2 -3 -2 184.48 60.29
-2 -3 -2 290.27 20.8
2 -3 2 281.37 69.79
2 3 2 333.37 21.7
2 3 2 369.36 93.49
-2 3 -2 285.57 66.39
3 -3 2 621.24 90.29
-3 -3 -2 589.44 31.8
3 3 2 566.14 31.3
-3 3 -2 447.06 77.79
3 3 2 423.86 95.79
-4 -3 -2 160.28 17.7
4 -3 2 91.19 40.6
-4 3 -2 179.78 57.59
4 3 2 148.69 17
4 3 2 188.28 67.69
-5 -3 -2 249.97 23.4
5 -3 2 294.57 72.79
5 3 2 223.38 73.59
-5 3 -2 319.57 70.69
5 3 2 318.57 25.1
5 3 2 270.87 92.39
6 -3 2 238.88 68.09
-6 -3 -2 279.87 25.4
-6 3 -2 301.97 74.59
6 3 2 180.68 93.79
6 3 2 219.48 77.99
6 3 2 278.87 24.7
7 -3 2 63.39 38.6
7 3 2 62.39 49.99
7 3 2 2.2 40.6
7 3 2 38.1 12.3
-7 3 -2 81.39 46.2
8 -3 2 156.88 54.39
-8 -3 -2 128.59 22.7
8 3 2 137.39 22.5
8 3 2 168.58 86.79
-8 3 -2 77.89 52.69
8 3 2 223.68 86.19
9 -3 2 25.6 38.1
-9 -3 -2 38.7 15.4
9 3 2 19.5 44.8
-9 3 -2 87.89 43
9 3 2 32.8 57.29
9 3 2 58.89 16.9
-10 -3 -2 9.8 10.1
10 -3 2 -4.5 50.59
10 3 2 22.3 11.5
10 3 2 66.59 73.99
10 3 2 101.59 84.39
-10 3 -2 29.4 44.9
11 -3 2 -26.8 50.89
-11 3 -2 -1.9 51.49
11 3 2 -52.29 77.59
9 4 -2 -39.2 53.19
9 4 -2 -1.8 9
9 4 -2 114.09 107.69
-8 -4 2 29 14.4
8 4 -2 24.9 13.9
-8 4 2 40.1 43.3
8 4 -2 -101.79 91.59
-7 -4 2 32.4 14.5
7 4 -2 9.2 9.4
-7 4 2 35.9 36.6
7 4 -2 -86.99 61.19
-6 -4 2 21.5 10.7
6 -4 -2 28.2 35.1
-6 -4 2 48.7 74.79
-6 4 2 39.7 43
6 4 -2 26.6 68.89
6 4 -2 12.8 9.4
-5 -4 2 40.5 66.19
5 -4 -2 43 78.59
-5 -4 2 109.69 19.3
-5 4 2 60.49 48.1
5 4 -2 68.69 14.4
5 4 -2 64.89 94.59
-4 -4 2 13.8 9.4
4 -4 -2 8.4 39.4
-4 -4 2 -62.19 53.99
4 4 -2 -7.6 6.8
-4 4 2 71.79 46.7
4 4 -2 91.49 89.79
3 -4 -2 -19.4 42.1
-3 -4 2 6.8 7.1
3 4 -2 13.4 8.1
-3 4 2 -1.8 31
3 4 -2 33.5 56.29
-2 -4 2 51.09 10.6
2 -4 -2 81.59 46.9
-2 -4 2 164.48 75.49
-2 4 2 57.79 52.19
2 4 -2 71.79 13
2 4 -2 87.39 60.89
-1 -4 2 85.69 49.4
1 -4 -2 -5.4 37.1
-1 4 2 122.29 57.99
1 4 -2 -21.7 40.2
-1 4 2 12.5 6.7
0 -4 -2 23.2 8.3
0 -4 2 -36.7 35.5
0 -4 -2 65.09 44.9
0 4 2 44.3 10.4
0 4 2 55.39 50.59
0 4 -2 12.6 43.7
-1 -4 -2 80.79 14.3
-1 -4 -2 6.5 35.9
1 4 2 66.29 55.89
-1 4 -2 31.6 38.8
1 4 2 73.29 13.2
2 -4 2 106.89 69.89
-2 -4 -2 158.78 18
2 4 2 149.79 72.69
2 4 2 124.39 17.1
-2 4 -2 83.89 48.9
3 -4 2 165.78 101.89
-3 -4 -2 218.18 22.2
3 4 2 130.19 61.19
3 4 2 237.68 22.7
-3 4 -2 208.88 66.49
4 -4 2 137.99 68.69
-4 -4 -2 176.18 21.1
4 4 2 165.08 20.7
4 4 2 109.19 68.09
-4 4 -2 168.98 67.19
5 -4 2 -18.4 48.7
-5 -4 -2 -2 9.3
-5 4 -2 69.89 52.89
5 4 2 -10 6.2
5 4 2 13.5 62.19
6 -4 2 -12.5 41.9
-6 -4 -2 82.39 18
6 4 2 20.5 64.09
6 4 2 94.69 17.8
-6 4 -2 86.29 58.59
7 -4 2 62.89 82.29
-7 -4 -2 193.28 26.7
7 4 2 83.19 86.49
7 4 2 144.99 23.6
-7 4 -2 112.99 61.29
8 -4 2 19.1 64.59
-8 -4 -2 97.19 22.5
8 4 2 162.98 112.29
8 4 2 64.09 17.9
-8 4 -2 161.98 68.39
9 -4 2 21 71.89
9 4 2 91.89 129.09
-9 4 -2 143.29 68.69
-3 -5 2 178.58 22.5
-3 -5 2 72.59 160.48
3 5 -2 151.98 19.1
-2 -5 2 -8.3 101.69
-1 -5 2 40 91.39
0 -5 2 -58.49 68.19
0 -5 -2 45.5 13
0 5 2 30.5 11
-1 -5 -2 51.89 13.9
1 -5 2 -6.3 97.99
1 5 2 37 13
2 -5 2 80.79 137.79
2 5 2 62.49 15.4
-3 -5 -2 11 14.1
3 5 2 2.7 11.2
14 0 -3 23 13.6
14 0 -3 27.6 66.29
13 0 -3 18.3 11.2
-13 0 3 1.8 7.9
13 0 -3 33.5 53.69
12 0 -3 395.76 92.19
-12 0 3 178.78 21.7
12 0 -3 250.67 25.9
11 0 -3 80.49 45.1
11 0 -3 84.59 16.2
11 0 -3 154.08 59.69
-11 0 3 79.39 16.2
10 0 -3 20.4 23.9
-10 0 3 11.7 6.9
10 0 -3 -30.4 20.7
10 0 -3 6.4 6.4
9 0 -3 481.75 70.69
9 0 -3 640.24 77.49
9 0 -3 553.74 33.7
8 0 -3 1194.18 101.79
8 0 -3 1205.38 50.39
8 0 -3 1063.49 96.39
-8 0 3 1147.89 49.5
-7 0 3 564.84 30.6
7 0 -3 568.74 64.79
7 0 -3 598.64 66.19
7 0 -3 587.24 31
-6 0 3 435.46 24.3
6 0 -3 454.55 52.89
6 0 -3 382.26 49.4
6 0 -3 406.56 23.7
5 0 -3 1806.62 60.19
-5 0 3 1745.93 59.49
5 0 -3 1981.5 106.29
-4 0 3 1250.07 42.9
4 0 -3 1225.48 42.6
-4 0 3 1146.19 72.19
4 0 -3 1248.28 74.29
3 0 -3 4830.82 164.38
-3 0 3 4626.24 126.89
3 0 -3 4698.53 126.79
-3 0 3 4878.11 165.88
2 0 -3 2822.42 105.39
-2 0 3 2834.02 106.59
-2 0 3 2749.43 76.99
1 0 -3 4188.88 166.08
-1 0 3 4617.74 149.09
0 0 3 1460.45 41.9
0 0 -3 1472.65 42
0 0 -3 1507.55 74.29
0 0 3 1465.65 73.79
1 0 3 518.75 18.7
1 0 3 624.44 49.6
-1 0 -3 524.05 18.7
-2 0 -3 8491.05 282.47
2 0 3 8463.55 281.67
3 0 3 60.79 6.6
3 0 3 87.19 31.4
-3 0 -3 77.79 28
-3 0 -3 62.99 6.7
4 0 3 3599.34 176.98
-4 0 -3 3681.73 176.68
4 0 3 3753.72 102.29
-4 0 -3 3715.23 102.49
5 0 3 7102.69 290.67
-5 0 -3 7075.99 286.87
-5 0 -3 7279.77 189.88
5 0 3 7144.89 189.18
-6 0 -3 450.85 24.3
-6 0 -3 456.65 65.49
6 0 3 492.45 25
-7 0 -3 423.66 85.99
7 0 3 330.67 21.8
-7 0 -3 346.57 22.1
-8 0 -3 373.26 24.6
8 0 3 372.46 24.6
-8 0 -3 360.06 84.59
-9 0 -3 357.76 85.49
-9 0 -3 422.76 27.7
9 0 3 234.48 72.19
9 0 3 404.86 27.1
-10 0 -3 352.66 26.8
10 0 3 271.37 81.19
10 0 3 343.57 26.4
11 0 3 233.88 75.69
11 0 3 313.07 90.59
11 0 3 250.97 24.3
-11 0 -3 264.27 25.1
12 0 3 64.49 17.4
12 0 3 71.39 61.19
-12 0 -3 67.09 15.6
13 0 3 98.89 18.8
13 0 3 -0.7 51.99
14 0 3 34.8 13.1
14 -1 -3 45.6 53.49
-14 1 3 53.69 14.4
13 -1 -3 114.49 50.99
-13 1 3 126.69 20.8
13 1 -3 123.89 73.09
13 1 -3 110.89 22.2
-12 -1 3 321.97 31.1
12 -1 -3 250.37 57.89
12 1 -3 270.77 29.1
12 1 -3 212.18 86.89
-12 1 3 266.67 25.9
11 -1 -3 186.98 44.5
11 -1 -3 65.09 34.2
-11 -1 3 91.09 19.4
11 1 -3 156.28 21
11 1 -3 73.79 49.1
-11 1 3 126.79 17.2
11 1 -3 123.49 61.09
-10 -1 3 435.66 32.8
10 -1 -3 328.77 41
10 -1 -3 375.06 52.99
-10 1 3 509.15 31.3
10 1 -3 482.05 34
10 1 -3 341.57 88.59
10 1 -3 348.07 81.59
9 -1 -3 1040.8 77.89
9 -1 -3 1020.6 46
9 -1 -3 840.02 70.59
-9 -1 3 1065.59 50.79
-9 1 3 946.01 44.7
9 1 -3 891.91 111.39
9 1 -3 1010.9 49.5
9 1 -3 983.9 116.29
-8 -1 3 237.88 31.9
8 -1 -3 226.68 33
8 -1 -3 267.57 35.7
8 1 -3 211.28 20.1
-8 1 3 168.38 16.6
8 1 -3 151.18 54.99
8 1 -3 196.88 57.59
7 -1 -3 132.69 23.3
7 -1 -3 189.48 25.8
-7 -1 3 144.79 16.4
-7 1 3 232.28 17.4
7 1 -3 204.58 62.39
7 1 -3 197.88 18.2
6 -1 -3 1065.29 51.49
-6 -1 3 1044.8 44.3
-6 -1 3 1118.89 107.19
6 -1 -3 1041 51.49
6 1 -3 930.01 42.6
6 1 -3 1046.3 104.09
-6 1 3 995.7 39.9
-5 -1 3 165.58 14.6
-5 -1 3 188.38 50.99
5 1 -3 149.49 40.1
5 1 -3 166.08 14.8
-5 1 3 193.38 13.7
-4 -1 3 16 14.1
-4 -1 3 40.7 8.5
-4 1 3 53.99 7.2
4 1 -3 64.49 11
4 1 -3 76.39 32.8
-3 -1 3 651.43 26.6
-3 -1 3 646.34 68.99
3 1 -3 585.34 25.6
-3 1 3 580.24 24.5
3 1 -3 570.74 64.59
-2 -1 3 124.79 36.9
-2 -1 3 103.79 10.3
-2 1 3 119.09 15.1
-2 1 3 131.19 9.7
-2 1 3 129.89 14.7
2 1 -3 162.08 42
2 1 -3 130.99 11.6
1 -1 -3 1949.51 57.09
-1 -1 3 1862.61 113.19
-1 -1 3 1865.91 54.89
1 1 -3 1876.41 123.99
-1 1 3 1967.7 57.09
1 1 -3 1914.71 54.89
-1 1 3 2111.99 88.89
-1 1 3 2043.8 88.69
0 -1 3 167.28 41.4
0 -1 3 169.48 8.1
0 -1 -3 160.38 10.6
0 1 -3 182.78 38.9
0 1 3 181.08 27.3
0 1 3 199.98 28.6
0 1 3 153.68 10.3
1 -1 3 221.88 35
-1 -1 -3 156.18 13.2
1 1 3 171.08 11.6
1 1 3 152.58 35.5
-1 1 -3 225.28 36.4
-2 -1 -3 418.46 20.2
2 1 3 428.36 20.2
-2 1 -3 395.36 49.99
-3 -1 -3 954.9 36.6
-3 1 -3 947.81 79.69
3 1 3 1002.4 88.49
3 1 3 993.3 36.8
4 -1 3 234.68 52.19
-4 -1 -3 227.58 16.1
4 1 3 238.88 60.09
-4 1 -3 271.47 56.59
-4 1 -3 198.08 10.5
-5 -1 -3 422.56 24.3
5 -1 3 341.47 55.09
-5 1 -3 424.56 19.5
-5 1 -3 421.86 56.79
5 1 3 435.66 24.6
5 1 3 479.85 70.09
6 -1 3 122.89 10.4
6 -1 3 124.09 40.7
-6 -1 -3 123.99 13.8
-6 1 -3 94.09 36.6
6 1 3 53.69 24
6 1 3 130.89 46.9
6 1 3 109.59 12.9
-6 1 -3 95.59 9.5
7 -1 3 14.6 24.3
-7 -1 -3 32.3 9.2
7 -1 3 42.7 8.4
7 1 3 12.2 20.5
7 1 3 18.6 21
-7 1 -3 21.4 6.4
-7 1 -3 33.5 23.6
7 1 3 28.8 8.7
8 -1 3 243.68 18
8 -1 3 246.78 68.39
-8 1 -3 237.38 17.7
8 1 3 194.38 66.39
8 1 3 178.68 85.09
8 1 3 231.58 21.6
-8 1 -3 244.38 57.29
9 -1 3 360.06 86.19
9 -1 3 305.97 21.6
-9 -1 -3 341.67 27.8
9 1 3 330.17 26.6
-9 1 -3 317.47 21.7
9 1 3 315.97 81.19
9 1 3 227.98 70.99
-9 1 -3 318.57 70.79
10 -1 3 185.08 18.4
10 -1 3 252.97 76.59
-10 -1 -3 178.48 22.2
-10 1 -3 368.56 95.79
-10 1 -3 245.78 20.7
10 1 3 247.08 81.69
10 1 3 231.58 24
11 -1 3 128.79 23.5
11 -1 3 243.18 81.39
-11 -1 -3 165.08 22.4
11 1 3 60.19 61.89
-11 1 -3 151.98 56.29
11 1 3 93.69 63.49
-11 1 -3 174.98 19.8
11 1 3 185.08 23.2
12 -1 3 58.29 52.69
12 -1 3 159.68 19.9
-12 -1 -3 186.08 30.4
12 1 3 156.28 25.3
-12 1 -3 144.29 19.4
12 1 3 205.48 88.79
13 -1 3 51.29 69.69
13 -1 3 30.4 12.1
13 1 3 -63.09 54.79
-13 1 -3 19.6 10.3
13 1 3 35 14.3
-13 2 3 97.49 18.8
12 2 -3 44.3 15.3
12 2 -3 -4.6 56.09
-12 2 3 46.9 12.6
-11 -2 3 253.37 26.8
11 2 -3 257.17 116.99
11 2 -3 191.28 88.39
-11 2 3 145.99 19
11 2 -3 198.98 24.4
-10 -2 3 104.39 21
-10 2 3 123.39 15.8
10 2 -3 29.7 45.5
10 2 -3 75.39 57.79
10 2 -3 143.39 19.7
9 2 -3 360.56 100.59
9 2 -3 219.08 74.29
9 2 -3 459.85 33.5
-9 2 3 428.96 26.5
8 2 -3 183.18 20.8
-8 2 3 189.38 16.4
-8 2 3 159.48 15.7
8 2 -3 167.28 64.39
-7 -2 3 67.99 46.4
-7 2 3 118.99 13.6
7 2 -3 111.99 58.29
-7 2 3 109.59 12.3
7 2 -3 100.49 22.8
-6 -2 3 813.42 111.89
-6 -2 3 909.31 43.2
6 2 -3 979.1 122.29
6 2 -3 949.51 43.7
-6 2 3 948.51 38
-6 2 3 860.11 35.9
-5 -2 3 1419.66 140.09
-5 -2 3 1505.65 56.49
5 -2 -3 1511.65 65.79
5 2 -3 1425.56 55.19
-5 2 3 1422.56 50.19
-5 2 3 1477.25 65.89
5 2 -3 1470.35 140.49
-5 2 3 1379.86 48.8
4 -2 -3 476.35 41.3
-4 -2 3 408.06 24.7
-4 -2 3 422.66 71.79
4 2 -3 511.25 26.8
-4 2 3 531.75 44.2
-4 2 3 532.35 23.9
4 2 -3 436.36 87.99
-3 -2 3 2285.67 74.59
-3 -2 3 2480.95 175.48
3 -2 -3 2503.85 118.09
-3 2 3 2532.25 72.99
3 2 -3 2382.36 171.08
3 2 -3 2416.26 74.99
-3 2 3 2373.46 114.39
-2 -2 3 2142.19 64.39
-2 -2 3 2127.99 163.38
2 -2 -3 2182.38 117.49
2 -2 -3 2127.29 63.79
2 2 -3 2270.37 156.58
-2 2 3 1912.51 62.69
-2 2 3 1951.7 113.29
2 2 -3 2129.49 64.39
1 -2 -3 584.24 24.9
-1 -2 3 518.35 73.29
1 -2 -3 608.74 63.49
1 2 -3 513.05 73.89
-1 2 3 585.04 24.9
1 2 -3 525.75 22.4
-1 2 3 549.15 61.09
0 -2 3 1227.78 111.19
0 -2 -3 1182.68 43.7
0 2 -3 1221.78 106.59
0 2 3 1410.76 107.59
0 2 3 1331.77 44.6
1 -2 3 744.73 84.49
-1 -2 -3 712.23 31.3
1 2 3 805.52 83.49
-1 2 -3 721.53 80.59
1 2 3 797.12 32.3
-2 -2 -3 3070.39 91.79
2 2 3 3192.68 189.78
-2 2 -3 2950.8 174.08
2 2 3 2891.71 90.19
2 2 3 3181.38 188.68
3 -2 3 864.71 89.19
-3 -2 -3 902.01 39.8
3 2 3 1067.09 109.89
3 2 3 956.1 40.1
3 2 3 1042 108.29
-3 2 -3 983.4 94.79
4 -2 3 1065.79 98.79
-4 -2 -3 988.8 43.9
4 2 3 1128.19 119.99
-4 2 -3 1145.79 102.99
4 2 3 1042.3 44
4 2 3 1089.09 118.09
-5 -2 -3 775.72 38.7
5 -2 3 791.92 86.59
-5 2 -3 749.23 86.19
5 2 3 754.72 38.1
5 2 3 841.92 107.49
5 2 3 917.31 113.79
-6 -2 -3 449.06 29.5
6 -2 3 379.76 64.09
-6 2 -3 429.46 69.29
6 2 3 448.36 29.4
6 2 3 503.75 106.59
6 2 3 385.26 89.89
-7 -2 -3 787.12 42.9
7 -2 3 694.63 86.59
7 2 3 1188.18 181.98
-7 2 -3 799.52 189.68
7 2 3 1320.27 190.48
7 2 3 775.22 42
8 -2 3 262.97 65.99
8 2 3 128.09 53.49
8 2 3 216.48 73.09
-8 2 -3 177.38 60.39
8 2 3 232.08 23.2
9 -2 3 165.58 57.79
9 2 3 82.39 59.09
9 2 3 221.68 69.99
9 2 3 179.78 21.7
-9 2 -3 168.98 61.39
-10 -2 -3 180.68 23.1
10 -2 3 213.18 70.49
-10 2 -3 195.48 60.79
10 2 3 186.38 81.09
10 2 3 107.59 58.99
11 -2 3 216.88 71.19
-11 -2 -3 261.77 28.3
11 2 3 106.79 70.49
11 2 3 250.47 33.6
-11 2 -3 248.88 19.6
11 2 3 236.28 102.39
-11 2 -3 181.08 61.29
12 -2 3 75.29 58.59
-12 2 -3 45.5 66.79
12 2 3 29 15.5
-12 2 -3 50.29 15.3
12 2 3 -44.6 53.19
13 -2 3 80.19 73.59
11 3 -3 186.98 104.99
-11 3 3 49.2 12.7
11 3 -3 30.5 14.2
-10 -3 3 71.89 21
10 3 -3 -5.7 61.19
10 3 -3 22.6 57.19
-10 3 3 104.59 14.3
10 3 -3 104.59 21.7
-9 -3 3 111.19 20.7
9 3 -3 70.79 16.3
-9 3 3 126.29 14.7
9 3 -3 106.79 71.69
-8 -3 3 75.59 15.8
-8 3 3 106.19 13.5
8 3 -3 88.29 58.79
8 3 -3 77.19 15.9
-7 -3 3 262.57 29.4
-7 -3 3 357.66 104.69
-7 3 3 266.17 19.3
7 3 -3 256.27 25.2
-7 3 3 256.67 18.3
7 3 -3 423.96 114.49
-6 -3 3 482.45 31.9
-6 -3 3 549.35 128.69
-6 3 3 424.46 89.69
6 3 -3 375.46 98.29
6 3 -3 411.06 29.5
-5 -3 3 67.39 13.8
5 -3 -3 39.7 25.5
-5 -3 3 58.09 55.99
-5 3 3 18.6 21.4
5 3 -3 42.4 11.1
5 3 -3 -1.7 28.9
-5 3 3 41.9 9
-5 3 3 25.9 7.1
4 -3 -3 351.36 54.89
-4 -3 3 311.77 22.9
-4 -3 3 294.47 84.59
-4 3 3 393.96 58.69
4 3 -3 380.86 101.79
4 3 -3 343.87 23.8
-4 3 3 351.76 20.2
-3 -3 3 324.27 85.79
-3 -3 3 454.35 26.4
3 -3 -3 405.06 61.59
3 3 -3 538.25 118.69
3 3 -3 467.45 26.2
-3 3 3 459.25 23.5
-3 3 3 375.36 60.39
2 -3 -3 72.49 36.2
-2 -3 3 70.99 9.6
2 -3 -3 58.29 9.5
-2 -3 3 49.3 48.3
-2 3 3 45.4 36.9
2 3 -3 53.69 9.9
-2 3 3 49.2 8.9
2 3 -3 61.89 37.8
-1 -3 3 50.69 37
-1 -3 3 35.9 7.4
1 -3 -3 49.99 9.5
1 -3 -3 69.99 34.6
1 3 -3 59.69 8.3
-1 3 3 79.19 35.1
1 3 -3 14.7 35.1
-1 3 3 74.59 10.1
0 -3 3 -3.5 20.5
0 -3 -3 27.1 25
0 -3 -3 8.6 5.3
0 3 3 18.2 29.6
0 3 -3 -1.6 24.5
0 3 3 6 4.9
1 -3 3 5.7 22.4
-1 -3 -3 45.2 9.4
1 3 3 41.6 36
-1 3 -3 86.49 46
1 3 3 47.7 10
-2 -3 -3 44 10.6
-2 3 -3 52.19 39.3
2 3 3 40.7 9.6
2 3 3 15.7 27.4
-3 -3 -3 34 9.7
3 -3 3 8.7 31.5
3 3 3 80.19 52.99
3 3 3 19.3 32.8
3 3 3 53.89 11.9
-3 3 -3 64.49 37.5
-4 -3 -3 33.9 10.7
-4 3 -3 67.69 35.6
4 3 3 23.7 9.2
4 3 3 -15.7 30.2
4 3 3 32.3 53.19
-5 -3 -3 167.58 19.2
5 -3 3 115.39 48.6
5 3 3 146.39 57.89
5 3 3 146.39 18
-5 3 -3 123.09 51.89
-6 -3 -3 10.4 8.2
6 -3 3 -31.9 31.1
6 3 3 -19.3 69.29
-6 3 -3 4.2 33.8
6 3 3 10.3 7.4
6 3 3 -29.5 39.4
7 -3 3 180.08 59.59
7 3 3 67.29 50.99
7 3 3 111.99 20.4
7 3 3 85.19 57.09
-7 3 -3 119.89 62.79
8 -3 3 216.88 68.79
-8 -3 -3 265.17 26.6
-8 3 -3 269.17 76.09
8 3 3 220.58 128.09
8 3 3 223.08 25.6
8 3 3 192.28 81.09
9 -3 3 49.99 45.9
-9 -3 -3 58.79 15.9
9 3 3 66.19 16
-9 3 -3 180.48 66.79
9 3 3 -48.7 61.19
10 -3 3 108.09 61.89
10 3 3 34.7 13.3
10 3 3 -32.7 70.69
-10 3 -3 8.3 81.29
10 3 3 -2.9 59.19
11 -3 3 -45.7 59.49
11 3 3 -24.5 88.59
-11 3 -3 23.5 56.89
9 4 -3 28.5 12.6
9 4 -3 -100.99 95.99
9 4 -3 222.68 119.79
-8 -4 3 53.79 16.6
8 4 -3 49.4 75.89
8 4 -3 51.89 17.6
-7 -4 3 64.99 84.89
-7 -4 3 134.69 22.8
7 4 -3 54.59 69.69
7 4 -3 179.28 22.6
-7 4 3 108.89 41
-6 -4 3 154.98 21.8
-6 -4 3 121.39 89.89
6 4 -3 94.79 17.2
6 4 -3 178.68 84.39
-6 4 3 62.89 47.7
-5 -4 3 83.19 95.79
-5 -4 3 100.39 17.6
5 4 -3 101.59 17.5
-5 4 3 87.09 65.69
5 4 -3 106.49 93.19
-4 -4 3 97.29 71.99
-4 -4 3 164.08 18.9
4 4 -3 154.98 18.4
4 4 -3 55.29 65.39
-4 4 3 83.89 49.2
-3 -4 3 237.58 93.39
-3 -4 3 383.26 25.7
3 4 -3 328.47 24.3
-3 4 3 225.98 72.09
3 4 -3 375.96 119.29
-2 -4 3 182.08 79.49
2 -4 -3 236.38 18.3
-2 -4 3 198.88 17.8
2 4 -3 103.89 73.59
-2 4 3 151.98 58.69
2 4 -3 207.08 18
-2 4 3 166.28 16.3
-1 -4 3 182.38 76.29
1 -4 -3 225.58 18.8
-1 4 3 185.98 17.3
-1 4 3 98.49 58.89
1 4 -3 71.39 54.99
1 4 -3 170.88 15
0 -4 -3 293.97 22.1
0 -4 3 210.48 73.69
0 4 3 248.68 86.59
0 4 3 292.97 22.1
-1 -4 -3 175.48 18.7
1 -4 3 158.98 76.99
-1 4 -3 197.88 75.19
1 4 3 232.18 20.3
1 4 3 103.59 63.29
2 -4 3 72.39 53.59
-2 -4 -3 199.18 20
2 4 3 181.48 24.5
-2 4 -3 191.58 64.19
-3 -4 -3 168.08 20.6
3 -4 3 77.29 59.39
-3 4 -3 155.58 74.19
3 4 3 244.78 23.3
3 4 3 171.98 70.29
4 -4 3 374.06 121.19
-4 4 -3 652.43 112.09
4 4 3 361.06 115.39
4 4 3 564.24 36.6
5 -4 3 42.8 55.59
-5 -4 -3 138.09 22.1
5 4 3 84.89 16.6
-5 4 -3 64.89 61.49
5 4 3 151.08 94.09
-6 -4 -3 15 11
6 -4 3 -10.4 54.09
-6 4 -3 7.8 51.29
6 4 3 38.2 78.59
6 4 3 0.9 7.5
7 -4 3 40.6 61.09
-7 -4 -3 206.98 26.6
7 4 3 301.97 137.69
-7 4 -3 91.29 68.49
7 4 3 202.38 27.4
8 -4 3 -1.3 56.99
8 4 3 -14.5 99.89
8 4 3 120.79 90.39
-8 4 -3 -71.29 85.99
-3 -5 3 28.2 12.7
3 5 -3 -0.1 7.8
1 -5 -3 20.9 10.7
-1 -5 3 -18.4 91.89
0 -5 3 -135.09 96.59
0 -5 -3 14.4 9.8
0 5 3 12.5 8.3
-1 -5 -3 -13.7 8.8
1 5 3 4.5 9.5
2 5 3 -4.9 8.1
-3 -5 -3 20 13.5
3 5 3 1.9 9.6
14 0 -4 85.49 66.39
-13 0 4 162.78 25.7
13 0 -4 221.68 81.09
13 0 -4 111.09 26.6
12 0 -4 252.97 77.69
12 0 -4 237.28 26.1
-12 0 4 251.47 26.3
11 0 -4 174.28 21.5
11 0 -4 124.69 49.9
-11 0 4 157.08 19.6
11 0 -4 97.39 48
-10 0 4 661.63 39.1
10 0 -4 660.63 82.09
10 0 -4 597.44 37.6
10 0 -4 513.75 79.59
-9 0 4 1153.88 52.69
9 0 -4 1260.77 109.79
9 0 -4 1101.89 102.59
-8 0 4 435.56 28.2
8 0 -4 409.36 60.29
8 0 -4 499.35 64.29
8 0 -4 437.16 28.5
-7 0 4 1188.18 49.2
7 0 -4 1212.58 49.7
7 0 -4 1117.69 90.89
7 0 -4 1287.87 97.09
-6 0 4 554.24 28.8
6 0 -4 506.85 55.99
6 0 -4 601.24 29.9
-5 0 4 1132.59 79.09
5 0 -4 1209.68 45.1
5 0 -4 1234.48 81.39
-5 0 4 1178.38 44.7
-4 0 4 1624.34 88.29
4 0 -4 1524.45 51.39
4 0 -4 1435.26 82.79
-4 0 4 1507.65 51.09
3 0 -4 501.35 42.4
-3 0 4 503.65 43.4
-2 0 4 2457.15 72.69
2 0 -4 2544.25 107.59
-2 0 4 2561.14 107.89
-1 0 4 1314.87 74.09
-1 0 4 1283.17 40.9
1 0 -4 1388.76 75.79
0 0 4 1247.08 37.9
0 0 -4 1247.68 38
0 0 4 1217.08 74.39
0 0 -4 1206.88 73.79
-1 0 -4 1668.23 48.7
1 0 4 1630.34 94.39
-1 0 -4 1660.63 95.19
1 0 4 1697.83 48.9
2 0 4 1898.71 55.89
-2 0 -4 1938.41 112.39
-2 0 -4 1833.22 55.19
2 0 4 2049.4 114.89
-3 0 -4 20.9 5.1
-3 0 -4 11.7 11.5
3 0 4 16.1 4.6
3 0 4 19.9 11.7
4 0 4 0.1 9.1
-4 0 -4 11 4.2
4 0 4 4.4 3.2
-4 0 -4 3.9 9.8
-5 0 -4 410.26 77.29
5 0 4 404.56 21
-5 0 -4 364.56 20.3
5 0 4 320.27 56.09
6 0 4 50.09 18.9
-6 0 -4 88.69 37.2
-6 0 -4 71.49 11.3
6 0 4 67.39 11.5
-7 0 -4 110.69 12.7
7 0 4 176.98 56.49
-7 0 -4 52.89 34.7
7 0 4 85.79 11.8
8 0 4 19 7.3
-8 0 -4 21.1 7.5
8 0 4 -3.2 11.9
-8 0 -4 30.5 29
-9 0 -4 11.4 25.3
-9 0 -4 18.4 7.4
9 0 4 12.6 8.2
-10 0 -4 12.3 7
10 0 4 -51.89 35.4
10 0 4 10.7 7.6
11 0 4 -30.7 33.5
-11 0 -4 56.49 14.7
11 0 4 47 13.2
12 0 4 17.3 10.5
12 0 4 71.09 64.69
-12 0 -4 -1.8 7.3
13 0 4 51.89 73.69
-13 0 -4 30.3 13.6
13 0 4 14.5 10.7
13 1 -4 13.9 64.99
13 1 -4 38.8 13.8
12 -1 -4 6.6 28.1
-12 -1 4 14.4 10.6
12 1 -4 8.1 49.2
-12 1 4 5.9 8
12 1 -4 13.3 9
-11 -1 4 129.69 23
11 -1 -4 97.89 32.8
11 -1 -4 24.1 25.4
11 1 -4 76.89 16.7
11 1 -4 59.39 48.9
-11 1 4 106.39 19
11 1 -4 92.29 85.69
10 -1 -4 0.9 19.6
-10 -1 4 20.7 10.9
10 -1 -4 16.3 19.2
-10 1 4 11.3 7.3
10 1 -4 9.2 36.7
10 1 -4 6.8 9
-9 -1 4 60.39 18.6
9 -1 -4 60.19 23
-9 1 4 69.29 13.6
9 1 -4 39.8 31.4
9 1 -4 53.69 12.2
9 1 -4 31.8 34.5
8 -1 -4 27.6 14.3
-8 -1 4 43.8 10.9
8 -1 -4 49.8 16.5
-8 1 4 50.59 11.9
8 1 -4 34.2 9.5
8 1 -4 30.7 25.4
-7 -1 4 117.89 14.7
-7 -1 4 170.88 69.79
7 1 -4 154.88 51.39
-7 1 4 131.59 13.9
7 1 -4 124.19 15.2
-6 -1 4 614.54 32.9
-6 -1 4 617.64 80.69
-6 1 4 659.63 30.9
6 1 -4 725.43 86.69
6 1 -4 709.33 34.5
-5 -1 4 109.29 12
-5 -1 4 110.69 35.8
5 1 -4 72.19 30.2
5 1 -4 68.09 12.1
-5 1 4 73.89 11.3
-4 -1 4 2079.09 64.29
-4 -1 4 1844.62 129.49
4 1 -4 1888.71 130.19
-4 1 4 1804.02 59.89
4 1 -4 1893.71 62.59
-3 -1 4 861.21 34.1
-3 -1 4 826.32 81.09
-3 1 4 891.41 33.8
3 1 -4 858.31 81.09
3 1 -4 971.6 35
-2 -1 4 1342.17 99.99
-2 -1 4 1329.77 43
2 -1 -4 1236.08 42.8
-2 1 4 1308.07 59.29
-2 1 4 1365.16 61.19
2 1 -4 1371.46 43.2
2 1 -4 1297.87 96.99
-2 1 4 1299.57 43.8
1 -1 -4 1405.66 46.3
-1 -1 4 1461.55 44.2
-1 -1 4 1461.85 102.49
1 1 -4 1415.76 98.39
-1 1 4 1496.55 76.19
1 1 -4 1477.85 44.2
-1 1 4 1487.85 46.9
0 -1 4 1502.25 44.3
0 -1 4 1597.54 105.49
0 -1 -4 1605.74 92.89
0 -1 -4 1525.55 49.3
0 1 4 1529.95 89.29
0 1 -4 1634.44 105.69
0 1 4 1632.44 49.99
-1 -1 -4 1455.95 96.89
-1 -1 -4 1475.35 47.3
1 -1 4 1441.06 100.79
1 1 4 1404.86 93.09
1 1 4 1451.55 47.1
-1 1 -4 1361.06 99.19
2 -1 4 896.61 81.29
-2 -1 -4 906.81 35.2
-2 -1 -4 986 84.59
2 1 4 975.6 35.9
-2 1 -4 957 83.79
2 1 4 1019.7 83.99
-3 -1 -4 2453.85 150.28
-3 -1 -4 2326.47 72.39
3 -1 4 2194.38 136.79
3 1 4 2293.07 143.39
-3 1 -4 2342.17 139.99
-4 -1 -4 1452.15 50.69
-4 -1 -4 1509.35 123.19
4 -1 4 1403.06 41.1
4 1 4 1266.07 48.8
-4 1 -4 1231.18 103.49
4 1 4 1364.76 114.99
-5 -1 -4 1423.06 53.09
5 -1 4 1406.76 45.8
-5 -1 -4 1456.55 129.19
5 -1 4 1314.67 220.28
-5 1 -4 1446.16 114.99
5 1 4 1378.56 52.19
5 1 4 1446.46 189.18
-6 -1 -4 1030.2 44.7
6 -1 4 976.3 101.19
6 -1 4 1030 37.1
-6 1 -4 1084.09 37.4
6 1 4 891.71 108.99
-6 1 -4 944.51 97.69
6 1 4 1054.69 45
-7 -1 -4 1128.49 49.5
7 -1 4 1099.09 41.1
7 -1 4 1241.38 119.29
-7 1 -4 1101.99 108.59
-7 1 -4 1095.19 41.1
7 1 4 1066.99 48.2
7 1 4 1039 118.19
-8 -1 -4 706.03 39.1
8 -1 4 685.73 31.8
8 -1 4 640.14 91.59
8 1 4 603.54 97.29
-8 1 -4 647.34 87.79
8 1 4 742.83 40.9
8 1 4 758.32 110.09
-8 1 -4 685.93 32.2
-9 -1 -4 390.86 29.6
9 -1 4 388.06 24.4
9 -1 4 590.14 121.09
9 1 4 473.85 111.29
9 1 4 357.56 28.3
-9 1 -4 359.46 23.8
9 1 4 210.68 60.79
-9 1 -4 507.45 81.89
-10 -1 -4 400.46 31.6
10 -1 4 352.16 25
10 -1 4 356.56 96.09
-10 1 -4 578.24 119.39
10 1 4 357.26 97.59
-10 1 -4 394.16 26.3
10 1 4 350.66 29.7
10 1 4 329.37 90.89
-11 -1 -4 144.49 20
11 -1 4 132.89 22.6
11 -1 4 158.78 73.99
-11 1 -4 129.29 19.6
11 1 4 99.89 61.39
-11 1 -4 112.99 64.59
11 1 4 111.59 19.5
12 -1 4 273.07 102.09
12 -1 4 254.57 24
-12 -1 -4 267.87 27.6
12 1 4 247.98 27.8
-12 1 -4 131.89 75.79
12 1 4 153.48 83.59
-12 1 -4 283.67 25.1
13 -1 4 56.19 90.29
13 -1 4 150.18 20.3
-13 1 -4 116.69 19
13 1 4 -16.4 72.99
13 1 4 126.79 25
-13 2 4 9.1 10.5
12 2 -4 60.39 16.3
-12 2 4 118.39 20.4
-11 -2 4 305.07 30.5
-11 2 4 307.27 25.5
11 2 -4 294.77 30.8
-10 -2 4 226.68 24.9
10 2 -4 152.88 70.69
10 2 -4 104.19 62.39
-10 2 4 205.88 20.2
10 2 -4 179.38 22.9
9 2 -4 246.28 24.7
-9 2 4 248.98 21.5
9 2 -4 267.57 88.29
-9 2 4 260.67 21.4
-8 -2 4 659.63 109.59
-8 -2 4 589.04 37.1
8 2 -4 594.14 36.9
8 2 -4 403.46 85.99
-8 2 4 596.84 32.4
-8 2 4 614.94 31.6
-7 -2 4 1032 131.49
-7 -2 4 1072.59 50.89
-7 2 4 1080.39 43.6
-7 2 4 1094.19 45
7 2 -4 923.51 120.59
7 2 -4 1026.2 71.69
-6 -2 4 292.57 22.9
-6 -2 4 279.57 73.69
-6 2 4 277.77 18.9
6 2 -4 270.77 84.89
6 2 -4 292.57 23.1
-6 2 4 292.07 20.2
-5 -2 4 519.25 83.89
-5 -2 4 486.75 28
5 2 -4 437.46 26.9
-5 2 4 404.96 22.8
5 2 -4 553.94 111.79
-5 2 4 440.96 24.5
-4 -2 4 418.16 25.4
-4 -2 4 357.06 79.39
4 2 -4 551.64 28
-4 2 4 498.35 24.7
4 2 -4 483.75 80.69
-4 2 4 499.95 37.3
-4 2 4 527.95 38.7
-3 -2 4 803.02 34.5
-3 -2 4 657.73 91.99
-3 2 4 884.11 34.5
3 2 -4 852.11 98.69
-3 2 4 791.52 59.29
-3 2 4 844.32 61.09
3 2 -4 855.21 35
-2 -2 4 2294.57 164.28
-2 -2 4 2092.19 62.69
2 -2 -4 2023.2 63.09
-2 2 4 2025.3 112.59
2 2 -4 1966.8 61.79
-2 2 4 1931.81 62.69
2 2 -4 1810.42 145.69
-2 2 4 1771.22 120.89
1 -2 -4 309.07 18
-1 -2 4 286.77 16
-1 -2 4 212.58 59.29
1 2 -4 270.47 15
-1 2 4 302.27 18
-1 2 4 291.27 46.4
1 2 -4 356.66 76.39
-1 2 4 286.77 44.8
0 -2 -4 418.86 22.4
0 -2 4 428.26 66.39
0 2 4 386.16 57.09
0 2 -4 396.16 62.29
0 2 4 425.76 22.7
0 2 4 406.76 55.99
1 -2 4 99.49 38
-1 -2 -4 124.09 12.1
1 2 4 95.19 10.9
-1 2 -4 109.79 40.7
1 2 4 153.08 47.7
1 2 4 51.79 27.4
2 -2 4 496.15 70.39
-2 -2 -4 537.45 27.6
2 2 4 534.65 73.99
2 2 4 548.05 28.1
2 2 4 648.64 82.29
-2 2 -4 485.25 70.49
-3 -2 -4 344.37 22.4
3 2 4 254.17 65.09
-3 2 -4 442.86 68.09
3 2 4 379.26 80.29
3 2 4 335.87 22.1
4 -2 4 43.7 31.6
-4 -2 -4 65.39 13
4 2 4 19 28.6
-4 2 -4 62.39 28.6
4 2 4 90.89 45.4
4 2 4 40.5 9.3
-5 -2 -4 46.3 10.6
5 -2 4 49.9 27.9
5 2 4 10.7 20.3
-5 2 -4 51.69 27.4
5 2 4 6.1 21
5 2 4 56.79 12.2
6 -2 4 37.7 28.1
6 2 4 -13.3 24.3
6 2 4 29.7 9.4
6 2 4 43.4 37.1
-6 2 -4 28.2 28.1
-7 -2 -4 25.9 12.6
7 -2 4 19 29.3
7 2 4 22.2 9.3
7 2 4 31.9 36.6
-7 2 -4 50.89 35
7 2 4 3.2 38.5
8 -2 4 91.39 46.9
-8 2 -4 125.59 60.39
8 2 4 79.69 52.69
8 2 4 64.69 44.8
8 2 4 80.29 16
9 -2 4 20.8 30.8
9 2 4 -3.2 40.2
-9 2 -4 -19 31.8
9 2 4 -8.6 40.6
9 2 4 21.7 10.3
10 -2 4 -9.7 42.7
10 2 4 34.1 50.39
10 2 4 7.1 10.2
-10 2 -4 42.7 39.3
10 2 4 52.59 47.1
-11 -2 -4 43.7 16.2
11 -2 4 -31.8 47.1
11 2 4 52.29 56.79
-11 2 -4 19.8 46.9
11 2 4 28 17.7
11 2 4 72.59 57.99
12 -2 4 16.3 57.39
12 2 4 62.29 91.39
12 2 4 8.7 11.3
-12 2 -4 37.5 50.99
-11 3 4 4.4 8.4
11 3 -4 33.6 75.29
-11 3 4 -7.1 7.1
11 3 -4 -10.3 15.1
-10 -3 4 43.4 14.8
10 3 -4 20.6 10.9
10 3 -4 -20.4 60.49
10 3 -4 -6 74.19
-10 3 4 19.6 9.2
-10 3 4 29.9 11.3
-9 -3 4 11.7 10.1
-9 3 4 14.8 7.8
9 3 -4 64.29 77.99
-9 3 4 25.4 9.1
9 3 -4 26.2 11.2
-8 -3 4 74.99 16.8
-8 -3 4 102.99 67.39
-8 3 4 76.09 12.9
8 3 -4 -1.7 57.39
8 3 -4 85.69 17.3
-8 3 4 42.2 10.3
-7 -3 4 132.79 74.09
-7 -3 4 117.99 31.3
-7 3 4 110.99 13.5
7 3 -4 104.99 19.2
7 3 -4 4.7 43.8
-7 3 4 129.19 15
-6 -3 4 71.29 15.1
-6 -3 4 72.19 71.29
-6 3 4 61.59 11.3
6 3 -4 20.8 57.99
6 3 -4 55.59 12.6
-6 3 4 46.2 10.1
-5 -3 4 77.69 14.2
-5 -3 4 10.7 41.7
-5 3 4 101.69 12.6
-5 3 4 103.49 30.9
-5 3 4 90.49 13.2
5 3 -4 126.79 70.59
5 3 -4 106.59 14.8
-4 -3 4 467.45 28
-4 -3 4 495.15 110.09
4 3 -4 610.94 133.99
-4 3 4 420.86 24.3
-4 3 4 410.06 55.79
4 3 -4 450.95 27.8
-3 -3 4 172.38 69.49
-3 -3 4 150.88 15
-3 3 4 143.39 14
3 3 -4 140.49 14.7
-3 3 4 119.69 42.4
3 3 -4 143.19 61.79
-2 -3 4 83.29 51.89
2 -3 -4 179.18 15.3
-2 -3 4 184.08 15
2 3 -4 148.99 57.39
2 3 -4 189.58 15.4
-2 3 4 187.78 16.1
-2 3 4 234.08 59.49
1 -3 -4 297.27 20.5
-1 -3 4 328.17 98.99
-1 -3 4 315.87 17.8
-1 3 4 298.87 69.19
1 3 -4 275.47 79.79
-1 3 4 339.87 21.6
0 -3 -4 379.26 23.5
0 -3 4 321.87 77.49
0 3 4 409.66 85.69
0 3 4 254.17 68.09
0 3 4 387.66 23.8
0 3 -4 458.35 127.79
1 -3 4 390.86 86.79
-1 -3 -4 451.65 26.6
1 3 4 376.26 89.79
-1 3 -4 284.57 67.89
1 3 4 394.16 86.29
1 3 4 452.95 26.1
-2 -3 -4 442.76 28
-2 3 -4 492.35 102.59
2 3 4 503.45 108.39
2 3 4 331.87 77.79
2 3 4 495.65 28.8
3 -3 4 595.44 100.29
-3 -3 -4 622.24 34.4
3 3 4 620.14 34.1
3 3 4 431.66 120.19
-3 3 -4 578.04 93.49
3 3 4 506.75 109.89
-4 -3 -4 365.36 27
4 -3 4 283.57 75.99
-4 3 -4 240.28 67.89
4 3 4 327.87 38.7
4 3 4 219.88 78.19
4 3 4 395.66 94.19
-5 -3 -4 516.05 34
5 -3 4 500.35 106.59
5 3 4 392.86 103.59
5 3 4 478.85 32.9
-5 3 -4 558.74 86.89
5 3 4 469.15 103.49
6 -3 4 176.08 58.39
6 3 4 425.76 112.19
-6 3 -4 229.68 69.79
6 3 4 220.08 23.3
-7 -3 -4 181.28 22.2
7 -3 4 276.87 74.89
7 3 4 200.78 23.2
-7 3 -4 127.99 62.99
7 3 4 133.69 108.59
7 3 4 90.89 54.39
8 -3 4 125.19 65.39
-8 -3 -4 255.47 27.9
8 3 4 263.47 95.99
-8 3 -4 194.68 70.99
8 3 4 173.48 98.79
8 3 4 274.77 27.8
9 -3 4 433.46 88.49
-9 -3 -4 279.07 31.6
9 3 4 170.98 78.09
9 3 4 307.97 33.1
-9 3 -4 346.97 97.79
9 3 4 183.68 88.79
10 -3 4 228.68 135.39
10 3 4 227.88 27.5
10 3 4 24.1 104.99
-10 3 -4 201.78 71.99
10 3 4 262.17 100.99
11 -3 4 113.89 74.89
-11 3 -4 134.99 76.79
11 3 4 -117.89 66.89
-8 -4 4 57.09 19
8 4 -4 221.58 111.39
8 4 -4 50.49 25.2
-7 -4 4 -156.88 73.99
7 4 -4 -83.69 73.89
-6 -4 4 50.69 13.5
-6 -4 4 36.7 77.59
-6 4 4 63.99 39.6
6 4 -4 53.29 61.59
6 4 -4 74.39 15.9
-5 -4 4 414.76 30.7
-5 -4 4 188.48 95.89
-5 4 4 258.87 61.19
5 4 -4 424.06 30.3
5 4 -4 440.46 133.99
-4 -4 4 503.45 130.69
-4 -4 4 432.46 29.1
4 4 -4 198.78 87.29
-4 4 4 392.56 85.49
4 4 -4 375.86 28.4
-4 4 4 335.27 76.09
-3 -4 4 44.2 10.9
-3 -4 4 -9.2 59.29
-3 4 4 88.59 45.8
-3 4 4 19.4 7.5
-3 4 4 43.9 36.4
3 4 -4 30.7 49.5
3 4 -4 38.1 10.4
2 -4 -4 81.39 13.7
-2 -4 4 -3.9 48.3
-2 -4 4 96.09 12.7
-2 4 4 113.09 47.6
-2 4 4 93.69 14.3
2 4 -4 76.39 12.3
2 4 -4 190.78 84.79
-1 -4 4 31.4 49.6
1 -4 -4 153.88 17.6
1 4 -4 127.89 64.69
-1 4 4 154.98 64.29
-1 4 4 188.78 18
-1 4 4 197.48 64.09
0 -4 -4 83.89 14.7
0 -4 4 77.69 63.69
0 4 4 34.6 44.8
0 4 4 15.8 41.9
0 4 -4 67.69 56.39
0 4 4 75.49 14.1
1 -4 4 77.69 54.79
-1 -4 -4 44 14.1
1 4 4 110.89 55.19
1 4 4 -44.5 37
1 4 4 62.59 13.7
-1 4 -4 27.1 50.99
-2 -4 -4 41 12
2 4 4 76.09 46
-2 4 -4 19.1 38.8
2 4 4 48.2 13
-3 -4 -4 19.9 9.8
3 -4 4 26.6 57.79
3 4 4 45.2 84.59
-3 4 -4 44.1 45.6
3 4 4 89.29 58.59
3 4 4 17.2 9.1
4 -4 4 66.79 59.79
4 4 4 108.29 19
4 4 4 125.89 85.89
-4 4 -4 37.2 55.09
4 4 4 76.39 81.69
-5 -4 -4 62.69 15.6
5 -4 4 75.09 68.49
5 4 4 91.49 106.59
5 4 4 62.39 70.39
-6 -4 -4 29 14.9
6 -4 4 75.99 61.59
6 4 4 104.29 99.59
-6 4 -4 -12.4 48
6 4 4 38.7 73.59
6 4 4 26.8 11.5
-7 -4 -4 18.1 11.6
7 -4 4 82.19 68.39
-7 4 -4 13.5 52.39
7 4 4 -21.6 109.79
7 4 4 -109.59 52.39
7 4 4 6.6 9.5
8 -4 4 28.1 78.89
8 4 4 -2.5 104.69
8 4 4 8.6 10.7
8 4 4 90.39 84.39
-8 4 -4 -70.89 56.69
-3 -5 4 7.7 10.6
3 5 -4 -8 7.5
1 -5 -4 57.69 14.6
-1 -5 4 83.79 124.09
-1 5 4 39.7 12.1
0 -5 4 113.89 140.69
0 -5 -4 45.5 14
0 5 4 51.29 13.4
1 5 4 62.49 15
-2 -5 -4 84.69 19.2
2 5 4 154.78 22.7
14 0 -5 94.69 23.4
14 0 -5 35.8 66.29
-13 0 5 27.3 12.8
13 0 -5 68.19 42.7
13 0 -5 12.9 11.2
12 0 -5 26.3 45.4
12 0 -5 -0.3 10.6
-12 0 5 16.8 9.8
-11 0 5 46.4 13.2
11 0 -5 68.09 16.1
11 0 -5 6.2 33.6
11 0 -5 80.89 46.7
10 0 -5 128.39 18.1
-10 0 5 119.19 20.3
10 0 -5 58.49 31.8
10 0 -5 43.3 35.9
9 0 -5 122.99 38.8
9 0 -5 92.89 17.4
9 0 -5 90.99 33.4
-9 0 5 130.89 16.7
8 0 -5 9.1 15.6
8 0 -5 2.6 18.7
8 0 -5 30.4 9
-8 0 5 35 10.1
7 0 -5 819.62 75.79
-7 0 5 803.62 39.1
7 0 -5 821.52 77.69
7 0 -5 838.32 39.8
-6 0 5 47.7 10.8
6 0 -5 40.9 9.3
6 0 -5 39.2 20
-6 0 5 23.3 17.1
-5 0 5 2291.47 73.99
5 0 -5 2140.59 115.49
-5 0 5 2404.56 122.49
5 0 -5 2324.87 74.39
-4 0 5 159.48 13.4
4 0 -5 171.98 35
-4 0 5 159.78 27.8
3 0 -5 138.79 24.2
-3 0 5 174.08 12.9
-3 0 5 217.78 41.2
2 0 -5 38.9 16.4
-2 0 5 75.79 21.6
-1 0 5 432.56 20.1
-1 0 5 493.25 47.9
1 0 -5 454.75 45.8
0 0 -5 578.54 54.29
0 0 5 576.34 54.79
0 0 -5 525.45 21.7
0 0 5 531.85 21.7
1 0 5 857.11 71.19
1 0 5 845.92 30.1
-1 0 -5 848.02 30
-1 0 -5 875.61 71.99
2 0 5 1395.36 43.2
2 0 5 1550.84 103.79
-2 0 -5 1306.87 96.69
-2 0 -5 1156.78 45.3
-3 0 -5 743.63 28.7
3 0 5 745.53 28.9
-3 0 -5 771.92 83.49
3 0 5 709.23 74.19
-4 0 -5 1186.18 101.79
-4 0 -5 1268.67 43.8
4 0 5 1335.67 109.89
4 0 5 1225.58 43.3
5 0 5 123.09 35.9
5 0 5 133.59 12.3
-5 0 -5 142.39 12.6
-5 0 -5 122.69 48.3
6 0 5 586.44 28.9
6 0 5 588.44 80.29
-6 0 -5 551.54 28.2
-6 0 -5 599.54 81.29
-7 0 -5 477.25 27.3
-7 0 -5 445.26 76.39
7 0 5 550.24 83.79
7 0 5 478.75 27.1
-8 0 -5 422.76 88.39
-8 0 -5 514.15 30.2
8 0 5 521.95 88.09
8 0 5 564.04 30.9
-9 0 -5 391.56 28.2
-9 0 -5 349.96 78.09
9 0 5 218.68 67.19
9 0 5 470.05 29.3
-10 0 -5 429.06 98.69
-10 0 -5 634.94 37.1
10 0 5 574.64 35.4
-11 0 -5 251.17 23.8
11 0 5 263.87 25
-12 0 -5 57.39 15.9
12 0 5 75.19 72.19
12 0 5 50.89 14
13 0 5 298.97 29.2
13 0 5 161.48 102.69
-13 0 -5 230.98 26.6
-13 1 5 172.28 23.1
13 1 -5 155.58 91.99
-12 -1 5 102.99 22.7
-12 1 5 146.39 19.7
12 1 -5 79.19 18.9
12 1 -5 43.1 58.99
11 -1 -5 295.87 38.4
-11 -1 5 301.77 29.7
11 -1 -5 250.37 38.6
11 1 -5 233.18 65.39
11 1 -5 321.87 29.2
-11 1 5 349.47 28.1
11 1 -5 199.78 64.89
10 -1 -5 258.57 33.9
10 1 -5 204.38 88.59
10 1 -5 210.58 64.59
-10 1 5 243.48 23.3
10 1 -5 283.57 26.9
9 1 -5 632.74 38.4
9 1 -5 486.45 105.99
9 1 -5 537.25 83.69
-9 1 5 589.24 42.2
-8 -1 5 513.05 32.9
-8 -1 5 469.25 80.99
-8 1 5 552.64 31.1
8 1 -5 423.46 88.09
8 1 -5 489.35 34.3
-7 -1 5 215.88 61.29
-7 -1 5 271.67 22.1
-7 1 5 239.08 19.3
7 1 -5 195.68 54.29
-6 -1 5 2522.95 170.78
-6 -1 5 2472.95 83.19
-6 1 5 2353.56 79.09
6 1 -5 2561.84 241.08
6 1 -5 2479.95 82.69
-5 -1 5 816.42 88.69
-5 -1 5 782.92 36.2
5 1 -5 789.82 87.19
5 1 -5 826.82 36.7
-5 1 5 773.52 34.4
-4 -1 5 1543.45 119.99
-4 -1 5 1438.16 53.49
4 1 -5 1508.25 116.79
-4 1 5 1603.74 54.09
4 1 -5 1614.84 54.79
-4 1 5 1552.34 53.39
-3 -1 5 3815.22 106.09
-3 -1 5 3684.53 190.58
-3 1 5 3570.24 105.19
3 1 -5 3650.03 186.88
-3 1 5 3780.02 113.39
3 1 -5 3734.13 105.59
2 -1 -5 1756.92 79.39
-2 -1 5 1764.72 53.29
-2 -1 5 1816.42 121.39
2 -1 -5 1658.63 53.79
-2 1 5 1514.15 53.29
2 1 -5 1585.14 52.09
-2 1 5 1630.94 77.39
1 -1 -5 1064.89 69.49
1 -1 -5 1171.48 40.3
-1 -1 5 1056.39 36.6
-1 -1 5 1137.99 98.89
-1 1 5 1098.29 70.19
1 1 -5 1179.58 93.19
-1 1 5 1177.68 40.4
0 -1 5 1106.59 34.5
0 -1 -5 1138.79 79.89
0 -1 5 1056.39 34.2
0 -1 5 1238.58 95.49
0 -1 -5 1073.39 38.9
0 1 5 1065.79 38.8
0 1 -5 1093.59 92.79
0 1 5 1062.19 76.89
1 -1 5 2735.73 153.28
-1 -1 -5 2716.83 144.39
-1 -1 -5 2678.53 80.09
1 1 5 2707.73 80.29
1 1 5 2799.42 143.59
-1 1 -5 2625.34 153.18
-2 -1 -5 548.25 26.2
-2 -1 -5 534.95 65.39
2 -1 5 493.15 64.59
2 1 5 644.14 27.9
-2 1 -5 616.64 70.29
2 1 5 736.33 74.39
-3 -1 -5 1885.41 135.09
3 -1 5 1981 136.39
-3 -1 -5 2042.3 66.59
3 1 5 2159.68 142.39
3 1 5 2094.59 66.89
-3 1 -5 2139.19 139.89
-4 -1 -5 1713.03 134.09
4 -1 5 1610.64 47.6
-4 -1 -5 1669.93 57.89
4 -1 5 1601.14 125.69
-4 1 -5 1612.64 47.8
-4 1 -5 1567.54 124.49
4 1 5 1534.65 128.19
4 1 5 1549.84 56.29
5 -1 5 785.32 28.4
-5 -1 -5 792.52 95.39
-5 -1 -5 768.72 36.2
-5 1 -5 731.53 27.9
-5 1 -5 622.64 79.39
5 1 5 734.03 90.69
5 1 5 768.32 35.8
-6 -1 -5 330.27 79.49
6 -1 5 331.07 18
-6 1 -5 326.17 18.1
6 1 5 487.65 100.99
6 1 5 320.87 22.7
-6 1 -5 282.37 64.69
-7 -1 -5 167.18 17.8
7 -1 5 139.99 44.3
7 -1 5 149.69 13.1
7 1 5 187.18 18.4
-7 1 -5 205.38 66.09
7 1 5 82.09 38.4
-7 1 -5 195.48 14.6
-8 -1 -5 184.78 19.6
8 -1 5 173.08 15.3
8 -1 5 139.59 44.9
8 1 5 197.98 70.09
-8 1 -5 111.39 49.4
-8 1 -5 172.48 15.1
8 1 5 158.28 18.9
9 -1 5 178.28 16.6
9 -1 5 197.98 74.59
-9 -1 -5 158.98 20
-9 1 -5 145.89 61.49
-9 1 -5 139.19 15.2
9 1 5 224.28 96.89
9 1 5 166.88 19.6
9 1 5 138.59 59.59
-10 -1 -5 171.68 21.7
10 -1 5 213.38 78.59
10 -1 5 168.68 17.8
-10 1 -5 167.78 60.99
10 1 5 138.79 61.89
-10 1 -5 168.78 17.6
10 1 5 171.28 21.1
10 1 5 312.87 91.69
11 -1 5 41.2 55.79
-11 -1 -5 22.2 10.8
11 -1 5 18.9 8.9
-11 1 -5 46.4 46.6
11 1 5 63.49 52.99
11 1 5 38.5 12.8
11 1 5 30 47.3
-11 1 -5 33.7 9.9
-12 -1 -5 53.69 14.9
12 -1 5 86.09 65.59
12 -1 5 74.29 15.4
12 1 5 47.5 45.3
-12 1 -5 106.19 17.7
-12 1 -5 119.49 74.19
12 1 5 89.69 19.1
13 -1 5 33.7 10.7
13 1 5 35.2 83.29
-13 1 -5 5.7 8.3
13 1 5 27.9 13.3
-13 2 5 23.1 10.9
-12 2 5 53.59 13.6
12 2 -5 46.6 14.1
-12 2 5 44.7 13.5
-11 -2 5 65.39 18.4
11 2 -5 56.39 61.79
-11 2 5 95.79 17.5
11 2 -5 92.49 28.9
-11 2 5 80.19 16.1
-10 -2 5 87.69 19.4
10 2 -5 83.29 19.2
10 2 -5 113.49 59.99
10 2 -5 -3 41.4
-10 2 5 87.29 16.1
-10 2 5 110.99 18.6
-9 -2 5 74.89 19.1
-9 2 5 135.39 17.6
9 2 -5 110.99 48.5
9 2 -5 83.09 16.1
-9 2 5 118.89 15.8
-8 -2 5 35.3 36.6
-8 -2 5 15 7.5
-8 2 5 16.3 7.8
8 2 -5 29 36
8 2 -5 14.8 8.5
-7 -2 5 75.69 41.2
-7 -2 5 66.69 15.4
-7 2 5 38.9 9.7
-7 2 5 50.49 10.7
7 2 -5 40.6 38.8
7 2 -5 36.8 10.8
-6 -2 5 38 37
-6 -2 5 41.3 11.5
6 2 -5 67.49 45.6
-6 2 5 25.2 7.9
-6 2 5 23.9 8.1
6 2 -5 34.1 10.4
-5 -2 5 20.2 8.2
-5 -2 5 12.8 21.7
-5 2 5 14.7 6.4
5 2 -5 23.3 7.8
-5 2 5 8.1 5.4
5 2 -5 -0.2 26.7
-4 -2 5 33.4 8.5
-4 -2 5 52.79 33.2
4 2 -5 54.09 11.4
-4 2 5 45.7 9.5
-4 2 5 41.5 11.8
4 2 -5 48.5 31.2
-3 -2 5 220.88 68.99
-3 -2 5 179.28 14.5
-3 2 5 156.18 26.1
-3 2 5 167.38 28.4
-3 2 5 136.29 13.4
3 2 -5 221.48 57.89
3 2 -5 165.58 14.1
2 -2 -5 56.49 9.6
-2 -2 5 104.79 45
-2 -2 5 61.19 8.4
-2 2 5 46.5 9.2
-2 2 5 80.99 28.4
2 2 -5 105.09 40.3
-2 2 5 48.6 21.6
2 2 -5 41.8 7.6
-1 -2 5 125.49 43.9
-1 -2 5 161.38 11.4
1 -2 -5 200.48 15.3
1 2 -5 135.39 10.8
-1 2 5 130.79 37.1
1 2 -5 176.68 51.49
-1 2 5 161.28 39.3
-1 2 5 168.58 14.3
0 -2 -5 164.58 14.3
0 -2 5 102.99 39.7
0 2 5 142.19 42.2
0 2 -5 216.68 61.89
0 2 5 178.38 14.9
0 2 5 189.18 44.1
-1 -2 -5 748.53 35
1 -2 5 713.33 89.89
1 2 5 859.61 89.29
1 2 5 971.2 96.19
1 2 5 850.51 36.3
-1 2 -5 887.51 97.19
-2 -2 -5 483.55 26.8
2 -2 5 510.65 75.79
-2 2 -5 441.16 71.49
2 2 5 454.15 67.49
2 2 5 511.25 74.69
2 2 5 473.45 26.5
3 -2 5 236.58 58.39
-3 -2 -5 207.88 17.6
-3 2 -5 196.28 62.59
3 2 5 148.29 15.2
3 2 5 142.59 48.1
3 2 5 78.09 46.3
-4 -2 -5 499.75 29.4
4 2 5 447.66 28
4 2 5 493.05 84.49
4 2 5 507.05 84.99
-4 2 -5 443.46 91.79
-5 -2 -5 224.08 20.6
5 -2 5 290.97 78.39
5 2 5 301.67 83.99
5 2 5 223.38 20.5
5 2 5 253.37 82.69
-5 2 -5 221.38 59.39
6 -2 5 346.37 82.29
-6 -2 -5 351.66 26.9
6 2 5 313.17 87.69
6 2 5 282.87 76.69
-6 2 -5 288.27 73.79
7 -2 5 332.37 77.39
-7 2 -5 439.16 95.19
7 2 5 249.58 66.99
7 2 5 328.17 87.09
7 2 5 413.56 30.1
8 -2 5 424.46 93.99
-8 2 -5 539.25 90.19
8 2 5 500.55 35
8 2 5 451.65 105.29
8 2 5 434.66 112.99
9 -2 5 84.29 53.39
9 2 5 93.99 64.39
9 2 5 118.89 70.49
-9 2 -5 168.08 70.79
9 2 5 163.98 25.6
10 -2 5 320.07 96.19
-10 -2 -5 250.27 33.2
10 2 5 117.99 53.29
10 2 5 279.77 28.6
-10 2 -5 214.78 81.09
-11 -2 -5 170.48 28.5
11 -2 5 187.98 81.59
11 2 5 205.88 92.09
11 2 5 192.38 25
11 2 5 110.49 70.49
-11 2 -5 188.38 80.39
12 -2 5 -71.79 66.49
12 2 5 41 15.6
12 2 5 11.6 67.09
-12 2 -5 120.09 72.19
11 3 -5 63.59 79.89
-11 3 5 148.69 19.7
-11 3 5 103.99 17.1
-10 -3 5 93.79 20.4
-10 3 5 72.39 14.6
10 3 -5 78.49 16.8
-10 3 5 98.59 16.1
-9 3 5 122.99 17.5
9 3 -5 106.59 19.8
9 3 -5 98.99 70.09
-9 3 5 107.49 16.9
-8 -3 5 175.38 86.49
-8 -3 5 224.68 25
-8 3 5 155.68 16.5
-8 3 5 152.28 18
8 3 -5 97.49 61.69
8 3 -5 182.88 22
-7 -3 5 85.99 59.09
7 3 -5 165.28 20.9
7 3 -5 134.29 93.29
-7 3 5 224.28 18.6
-7 3 5 217.88 19.6
-6 -3 5 479.75 32.8
-6 -3 5 660.03 169.18
-6 3 5 511.65 28.1
6 3 -5 361.46 99.09
-6 3 5 500.85 29
6 3 -5 531.75 33.6
-5 -3 5 294.97 85.39
-5 -3 5 368.16 27.2
-5 3 5 419.36 42.8
-5 3 5 441.46 69.49
-5 3 5 456.55 26.2
5 3 -5 365.96 127.09
5 3 -5 425.86 28.3
-4 -3 5 1086.79 144.49
-4 -3 5 964.7 43.7
-4 3 5 964.3 41.4
4 3 -5 1003.3 43.9
4 3 -5 831.92 128.09
-4 3 5 935.31 79.69
-4 3 5 1002.4 81.29
3 -3 -5 532.35 28.4
-3 -3 5 577.34 127.89
-3 -3 5 613.04 30.3
-3 3 5 411.86 61.39
-3 3 5 514.35 28.4
3 3 -5 507.05 28.1
-3 3 5 580.24 70.89
3 3 -5 494.55 111.99
-2 -3 5 91.39 48.7
-2 -3 5 87.39 10.9
2 -3 -5 124.99 13.9
2 3 -5 108.49 11.7
-2 3 5 105.79 37.5
-2 3 5 156.28 49.6
2 3 -5 48.8 40.9
-2 3 5 102.19 13.2
1 -3 -5 672.83 33.8
-1 -3 5 807.82 113.99
-1 -3 5 639.24 27.9
1 3 -5 658.13 28
-1 3 5 716.53 90.19
-1 3 5 718.03 34.2
1 3 -5 730.63 106.19
-1 3 5 632.34 84.39
0 -3 -5 552.54 29.9
0 -3 5 374.46 86.49
0 3 5 527.55 29.2
0 3 -5 327.77 81.69
0 3 5 527.65 81.59
0 3 5 508.75 79.19
1 -3 5 374.16 86.19
-1 -3 -5 559.94 31.1
-1 3 -5 494.35 108.89
1 3 5 530.95 30.5
1 3 5 515.45 83.79
1 3 5 309.57 73.89
-2 -3 -5 433.36 27.9
2 -3 5 285.17 74.99
2 3 5 429.86 27.6
-2 3 -5 387.06 96.49
2 3 5 482.45 79.89
2 3 5 399.66 92.99
-3 -3 -5 497.75 36.6
3 3 5 590.54 34.3
3 3 5 623.14 100.69
-3 3 -5 683.13 104.09
3 3 5 503.55 108.49
4 -3 5 403.86 97.39
-4 -3 -5 350.46 27
4 3 5 474.85 107.49
4 3 5 359.76 27.6
5 -3 5 142.29 57.59
-5 -3 -5 94.49 16.4
5 3 5 116.99 20.5
5 3 5 97.39 64.09
5 3 5 91.59 61.19
-5 3 -5 74.29 43.1
6 -3 5 139.19 70.79
6 3 5 114.89 19.4
6 3 5 147.79 78.49
-6 3 -5 76.89 46.4
6 3 5 98.59 59.59
-7 -3 -5 221.08 25.1
7 -3 5 107.89 60.79
7 3 5 231.38 25.5
7 3 5 383.26 132.29
7 3 5 250.37 88.39
8 -3 5 44.4 55.19
-8 -3 -5 53.09 15.4
8 3 5 49.3 15.8
-8 3 -5 42.4 54.89
8 3 5 132.29 70.49
8 3 5 -37.8 44.5
-9 -3 -5 11.7 12.1
9 -3 5 10.7 48.1
9 3 5 6.8 11.2
9 3 5 170.28 69.99
9 3 5 11.8 52.19
-9 3 -5 39.3 56.79
10 -3 5 -30.5 60.79
-10 3 -5 95.59 57.29
10 3 5 79.29 71.49
10 3 5 90.49 18.6
11 -3 5 57.19 69.79
11 3 5 253.97 110.59
-8 -4 5 -130.99 106.49
-8 -4 5 4 13.4
8 4 -5 -51.79 77.89
8 4 -5 15.8 12.6
-7 -4 5 30.8 13.4
-7 -4 5 -6.3 87.59
7 4 -5 17.3 10.9
7 4 -5 68.49 65.29
-6 -4 5 84.09 83.89
-6 -4 5 82.89 18.2
6 4 -5 180.38 89.69
-6 4 5 81.69 13.1
-6 4 5 76.59 12.9
6 4 -5 50.99 13.7
-6 4 5 73.09 32.5
-5 -4 5 50.49 77.29
-5 -4 5 11.3 8.7
5 4 -5 -112.59 69.69
-5 4 5 0.7 33.1
-5 4 5 -1.1 6.8
-5 4 5 -0.3 6.1
5 4 -5 9.5 8.5
-4 -4 5 83.49 15.7
-4 -4 5 32.2 60.99
4 4 -5 81.29 17.2
-4 4 5 61.79 12.1
4 4 -5 17.8 50.19
-4 4 5 136.29 48.8
-3 -4 5 25.7 9.1
-3 -4 5 -5.8 45.6
-3 4 5 -4.6 35
-3 4 5 -40.7 41.7
3 4 -5 39 54.19
-3 4 5 15.7 8.3
3 4 -5 15.2 8.1
2 -4 -5 -5.3 6.6
-2 -4 5 -55.79 43.5
-2 -4 5 10.5 6.7
-2 4 5 6 7.2
-2 4 5 -30.2 23.6
2 4 -5 25.4 51.39
-2 4 5 -3.9 38.3
-1 -4 5 -25 55.49
1 -4 -5 24.2 9.8
1 4 -5 -54.39 41.8
-1 4 5 7.7 38.2
-1 4 5 42.1 47.1
0 -4 -5 115.09 20.8
0 -4 5 90.09 68.79
0 4 -5 46.2 52.49
0 4 5 132.59 16.9
0 4 5 66.89 46.2
0 4 5 70.39 52.39
1 -4 5 -32.1 37.7
-1 -4 -5 37.2 11.5
1 4 5 38.2 57.59
1 4 5 -59.89 39.4
1 4 5 42.9 12
-1 4 -5 10.1 41.9
-2 -4 -5 31.7 11.4
2 -4 5 -15 36.3
2 4 5 1.4 49.99
-2 4 -5 29.6 41.5
2 4 5 48.6 82.99
2 4 5 33.1 11.9
-3 4 -5 -53.49 39.4
3 4 5 -1.3 50.79
3 4 5 55.69 14.1
3 4 5 23 49.3
4 -4 5 58.19 65.79
-4 -4 -5 50.09 14.5
4 4 5 36.1 65.09
4 4 5 58.19 14.5
4 4 5 25.4 61.59
5 -4 5 16.4 51.49
-5 -4 -5 74.09 18.2
5 4 5 58.39 57.69
-5 4 -5 8 49.9
5 4 5 72.19 17.5
5 4 5 113.99 70.49
6 -4 5 130.79 75.89
-6 -4 -5 71.89 18.2
6 4 5 69.19 16.3
6 4 5 56.19 75.79
6 4 5 103.19 87.69
-6 4 -5 -0.7 63.99
-7 -4 -5 82.79 21.2
7 -4 5 117.99 86.39
7 4 5 58.49 16.1
-7 4 -5 105.59 70.69
7 4 5 -100.29 63.69
7 4 5 61.59 80.69
8 -4 5 98.39 83.39
8 4 5 179.98 32.4
8 4 5 117.09 121.49
8 4 5 144.39 113.79
-2 5 5 37.8 11.9
1 -5 -5 52.89 15.2
-1 5 5 22.3 10.9
0 5 5 19.6 11.3
-1 -5 -5 61.59 15.6
1 5 5 54.09 15.7
-2 -5 -5 133.79 23.1
2 5 5 136.39 22.5
14 0 -6 -27.6 58.79
13 0 -6 10.8 9.9
13 0 -6 97.79 60.39
12 0 -6 47.5 43.9
12 0 -6 44.9 12.9
11 0 -6 82.69 45
-11 0 6 55.59 13.7
11 0 -6 34.9 11.9
11 0 -6 50.19 38.3
10 0 -6 161.28 61.79
10 0 -6 186.58 21.7
-10 0 6 199.18 22.5
10 0 -6 198.88 58.59
-9 0 6 347.27 27.4
9 0 -6 282.67 57.29
9 0 -6 318.17 67.39
9 0 -6 327.47 26.8
8 0 -6 262.57 56.09
-8 0 6 308.57 30.3
8 0 -6 344.97 26
8 0 -6 326.57 52.69
7 0 -6 513.25 30.4
7 0 -6 484.15 58.39
-7 0 6 486.55 29.5
-6 0 6 401.96 25.4
-6 0 6 384.76 50.29
-5 0 6 792.92 35.6
5 0 -6 760.52 65.49
-5 0 6 758.32 67.59
-4 0 6 1288.87 85.69
4 0 -6 1309.77 84.49
-4 0 6 1253.17 47.2
-3 0 6 2828.52 134.19
-3 0 6 2821.92 84.79
3 0 -6 2823.42 134.59
-2 0 6 1285.27 45.1
2 0 -6 1380.06 89.29
-2 0 6 1331.97 85.89
-1 0 6 4661.63 128.59
-1 0 6 4862.91 197.38
1 0 -6 4767.22 195.68
0 0 -6 2935.61 83.39
0 0 6 2904.91 83.19
0 0 -6 3047.5 149.59
0 0 6 2813.32 146.69
1 0 6 1376.86 100.59
-1 0 -6 1297.07 96.89
1 0 6 1422.16 44.9
-1 0 -6 1298.77 43.8
2 0 6 2445.56 148.49
-2 0 -6 2660.03 150.98
-2 0 -6 2518.15 74.59
2 0 6 2567.04 74.79
3 0 6 774.92 83.69
-3 0 -6 834.62 87.59
-3 0 -6 792.52 31.6
3 0 6 825.62 32
4 0 6 1942.21 61.79
-4 0 -6 1937.61 139.89
-4 0 -6 1838.22 60.39
4 0 6 1836.42 139.09
5 0 6 1034.7 108.39
-5 0 -6 982.7 105.89
5 0 6 1042.4 40.8
-5 0 -6 1039 40.4
6 0 6 972.6 41.2
-6 0 -6 1078.39 43.1
-6 0 -6 1047 114.89
6 0 6 1071.39 116.79
-7 0 -6 978.8 43
-7 0 -6 1009.2 116.99
7 0 6 942.61 42
7 0 6 1065.39 119.69
-8 0 -6 842.72 113.19
8 0 6 759.22 109.39
8 0 6 824.82 39.8
-8 0 -6 835.82 40.4
9 0 6 246.78 83.79
-9 0 -6 274.77 28
9 0 6 289.67 23.6
-9 0 -6 354.06 88.29
-10 0 -6 11.6 30.1
10 0 6 8.5 45
10 0 6 1.8 6.2
-10 0 -6 3.2 5.6
-11 0 -6 382.36 112.29
11 0 6 453.85 32.8
-11 0 -6 447.06 32.6
12 0 6 234.88 25.3
-12 0 -6 191.98 22.7
-13 0 -6 2.3 9
13 0 6 37.9 80.39
13 0 6 30.9 10.5
13 1 -6 107.49 22.9
13 1 -6 -72.79 63.69
-13 1 6 57.69 15.7
-12 -1 6 130.59 24
-12 1 6 185.98 23.1
12 1 -6 104.69 23.4
12 1 -6 129.59 72.09
-11 -1 6 238.78 25.7
11 1 -6 258.87 82.49
11 1 -6 113.09 20.4
-11 1 6 171.68 20.3
10 1 -6 162.78 62.69
10 1 -6 319.27 79.79
10 1 -6 272.87 27
-10 1 6 287.17 25.4
-9 1 6 199.48 20
9 1 -6 218.38 22.8
9 1 -6 156.48 61.49
-8 -1 6 531.85 86.69
-8 1 6 591.34 33.7
8 1 -6 521.35 82.89
8 1 -6 557.64 35.4
-7 -1 6 423.66 28.7
-7 -1 6 472.05 96.19
-7 1 6 416.66 26.6
7 1 -6 389.36 27.6
7 1 -6 446.26 73.29
-6 -1 6 227.78 57.59
-6 -1 6 232.98 19.8
6 1 -6 326.17 73.89
-6 1 6 258.67 19.6
6 1 -6 261.47 20.9
-5 -1 6 328.87 22.4
-5 -1 6 215.48 53.69
5 1 -6 361.56 23.2
-5 1 6 361.86 22.4
-5 1 6 368.96 22.8
5 1 -6 353.86 60.29
-4 -1 6 813.42 34.8
-4 -1 6 808.52 87.19
4 1 -6 742.03 81.19
4 1 -6 765.82 34
-4 1 6 677.53 32.8
-3 -1 6 153.48 13.1
-3 -1 6 226.38 55.79
3 -1 -6 127.69 18.8
-3 1 6 105.39 17.7
3 1 -6 127.99 42.1
-3 1 6 118.99 12.1
3 1 -6 127.39 12
-2 -1 6 15 15.9
-2 -1 6 35.5 6.9
2 -1 -6 44.5 8.5
2 -1 -6 38.6 15.6
2 1 -6 57.29 29.4
-2 1 6 100.79 23.5
-2 1 6 54.99 8.9
1 -1 -6 264.67 36.3
-1 -1 6 286.17 15.9
-1 -1 6 326.57 50.49
1 -1 -6 303.27 18
-1 1 6 293.77 37.4
1 1 -6 326.07 52.39
0 -1 6 56.79 6.5
0 -1 6 58.99 28.3
0 -1 -6 71.99 8.9
0 -1 -6 68.79 24.5
0 1 6 59.69 8.3
0 1 6 77.59 26.8
0 1 -6 25.6 15.5
1 -1 6 961 32.1
-1 -1 -6 1013.6 38.8
1 -1 6 936.51 90.19
-1 -1 -6 1051.99 88.49
1 1 6 974.7 38.2
-1 1 -6 1034.3 96.69
1 1 6 1006.2 86.09
2 -1 6 222.38 56.29
-2 -1 -6 247.88 58.99
-2 -1 -6 175.88 14.2
2 -1 6 181.88 10.4
2 1 6 152.18 41.5
-2 1 -6 118.29 45.5
2 1 6 166.28 14.1
-2 1 -6 177.88 10.4
-3 -1 -6 170.58 54.69
3 -1 6 151.78 46.8
3 -1 6 113.29 8.5
-3 -1 -6 104.89 11.6
-3 1 -6 98.19 36
3 1 6 120.19 12.4
3 1 6 117.99 42.1
-3 1 -6 113.19 8.5
-4 -1 -6 15.7 19.5
4 -1 6 6.8 10.2
-4 -1 -6 14.9 5.8
4 1 6 17 6.1
-4 1 -6 19.6 5.3
4 1 6 45.2 30.1
-4 1 -6 1.8 14.1
-5 -1 -6 50.09 33.7
-5 -1 -6 121.79 13.9
5 -1 6 150.28 11.1
5 -1 6 107.99 38.7
-5 1 -6 122.19 42.7
-5 1 -6 159.08 11.3
5 1 6 210.88 58.59
5 1 6 163.48 15.8
-6 -1 -6 146.29 58.79
6 -1 6 133.59 11.5
-6 -1 -6 127.79 15.2
6 -1 6 111.69 48.9
6 1 6 122.09 15.1
6 1 6 95.39 50.89
-6 1 -6 141.49 47.7
-6 1 -6 137.09 11.6
-7 -1 -6 99.09 49.8
7 -1 6 126.19 12.6
-7 -1 -6 154.48 17.9
7 1 6 214.38 77.09
-7 1 -6 160.98 13.8
7 1 6 151.58 17
-7 1 -6 97.39 40.2
-8 -1 -6 8.8 6.3
8 -1 6 20 7.4
8 1 6 -6.7 20.3
8 1 6 5.5 6.8
-8 1 -6 16 26
-8 1 -6 5.7 5.3
9 -1 6 183.08 17.4
9 -1 6 191.18 76.29
-9 -1 -6 213.88 22.7
9 1 6 183.98 21.2
-9 1 -6 233.08 77.79
-9 1 -6 220.88 18.7
9 1 6 301.47 97.59
-10 -1 -6 37.3 11.8
10 -1 6 65.49 53.99
10 -1 6 44.9 11.2
10 1 6 2.2 46.3
-10 1 -6 108.19 56.09
10 1 6 59.49 13.8
-10 1 -6 43.6 11.1
10 1 6 71.59 63.09
11 -1 6 51.29 12.8
11 -1 6 14.4 58.49
-11 -1 -6 32.4 11.2
11 1 6 97.29 61.49
-11 1 -6 -6.3 41.5
11 1 6 24.2 56.19
11 1 6 31.9 12.6
-11 1 -6 55.99 12.5
-12 -1 -6 193.38 23.3
12 -1 6 77.19 92.29
12 -1 6 187.88 20.5
12 1 6 120.79 89.99
-12 1 -6 217.58 22
-12 1 -6 153.08 81.89
13 -1 6 12.7 95.09
13 -1 6 36.7 12.7
13 1 6 46.3 17
13 1 6 -45.5 88.09
-13 1 -6 46.8 13.7
12 2 -6 40.9 63.19
-12 2 6 70.89 16.4
12 2 -6 76.89 20
-12 2 6 74.09 15.5
-11 -2 6 63.99 17.6
-11 2 6 44.4 13.4
-11 2 6 57.09 14.9
11 2 -6 38.4 12.9
11 2 -6 -31.7 48.6
-10 -2 6 80.39 18.1
-10 2 6 69.89 15.6
10 2 -6 71.59 53.39
-10 2 6 54.19 12.6
10 2 -6 42.6 12.4
-9 -2 6 72.49 16.3
9 2 -6 75.19 16.9
9 2 -6 47.6 40.6
-9 2 6 88.09 16.5
-9 2 6 82.29 14.8
-8 -2 6 194.28 72.39
-8 -2 6 194.48 22.3
-8 2 6 241.28 21.2
-8 2 6 194.18 18.7
8 2 -6 199.58 22.2
8 2 -6 122.69 62.99
-7 -2 6 362.46 83.39
-7 -2 6 543.95 34.5
7 2 -6 543.85 34.2
-7 2 6 518.85 30.1
7 2 -6 588.54 119.59
-7 2 6 524.25 30.8
-6 -2 6 399.76 99.39
-6 -2 6 412.16 27.9
-6 2 6 331.27 23.6
6 2 -6 361.06 26
6 2 -6 454.95 101.59
-6 2 6 323.87 22.8
-5 -2 6 505.05 29.7
-5 -2 6 454.45 95.69
5 2 -6 640.24 130.59
-5 2 6 498.45 28.5
5 2 -6 503.25 29.5
-5 2 6 476.95 27.4
-4 -2 6 798.52 36.7
-4 -2 6 819.82 105.39
-4 2 6 770.72 36
4 2 -6 744.63 35.7
4 2 -6 916.91 111.79
-3 -2 6 809.22 34.8
-3 2 6 797.82 60.79
-3 2 6 757.82 57.49
3 2 -6 791.42 34.4
-3 2 6 774.22 35.7
3 2 -6 764.92 96.59
-2 -2 6 553.64 26.8
-2 -2 6 767.42 119.79
2 -2 -6 557.84 29.2
-2 2 6 617.04 58.79
-2 2 6 719.23 66.69
2 2 -6 810.12 96.19
2 2 -6 636.24 27.8
-2 2 6 647.94 30.9
-1 -2 6 1669.03 54.99
1 -2 -6 1799.22 62.29
-1 2 6 1842.22 120.99
1 2 -6 1826.12 146.19
-1 2 6 1827.12 61.99
-1 2 6 1805.82 116.89
0 -2 -6 970.3 40.1
0 2 6 901.21 88.69
0 2 6 883.41 86.59
0 2 -6 923.61 102.39
0 2 6 934.11 39.7
1 -2 6 1384.16 128.49
-1 -2 -6 1200.98 48.5
1 2 6 1221.98 109.49
-1 2 -6 1117.29 116.09
1 2 6 1294.47 49.7
1 2 6 1212.38 111.09
2 -2 6 1750.12 146.49
-2 -2 -6 1807.12 64.69
2 2 6 1784.02 64.49
-2 2 -6 1885.91 153.78
2 2 6 1854.01 144.29
2 2 6 1806.12 148.09
3 -2 6 440.46 91.29
-3 -2 -6 423.86 26.4
3 2 6 538.85 108.19
3 2 6 454.45 96.59
-3 2 -6 347.37 77.19
3 2 6 348.97 24.5
4 -2 6 744.83 95.39
-4 -2 -6 737.83 37.6
-4 2 -6 642.54 92.89
4 2 6 728.33 100.89
4 2 6 614.04 94.69
4 2 6 713.93 37
-5 -2 -6 599.54 36.2
5 2 6 703.53 97.79
5 2 6 496.05 109.39
-5 2 -6 650.23 93.29
5 2 6 619.14 35.6
-6 -2 -6 683.93 39.3
6 -2 6 590.34 94.29
-6 2 -6 782.72 105.59
6 2 6 714.63 112.29
6 2 6 750.62 40.5
6 2 6 605.74 103.49
7 -2 6 387.76 89.99
-7 2 -6 517.75 104.19
7 2 6 651.13 140.19
7 2 6 514.95 34.5
8 -2 6 325.77 92.59
8 2 6 306.07 27.7
8 2 6 244.78 88.09
8 2 6 286.37 92.79
9 -2 6 480.75 116.09
-9 -2 -6 330.97 30.4
9 2 6 277.47 28
9 2 6 248.78 89.89
-9 2 -6 300.57 90.59
9 2 6 340.87 98.59
-10 -2 -6 183.48 24.4
10 -2 6 196.28 83.59
10 2 6 114.59 81.99
10 2 6 112.39 55.59
-10 2 -6 189.28 71.79
10 2 6 165.48 27.4
11 -2 6 119.39 80.49
-11 -2 -6 93.09 21.8
11 2 6 44.1 59.59
11 2 6 82.29 19.8
11 2 6 52.29 62.99
-11 2 -6 11.6 57.59
12 -2 6 57.89 94.19
12 2 6 34.4 86.99
-11 3 6 27.3 10.6
-11 3 6 47.1 14.3
-10 -3 6 113.49 25.1
10 3 -6 150.08 26.1
-10 3 6 108.59 18.2
-10 3 6 145.39 18.5
-9 -3 6 66.49 20.3
-9 -3 6 32.9 60.49
-9 3 6 95.89 16.4
9 3 -6 196.68 76.29
-9 3 6 91.49 15.4
9 3 -6 87.09 18.5
-8 -3 6 72.09 16.1
-8 -3 6 16.6 67.99
-8 3 6 90.39 16.4
-8 3 6 94.99 15.7
8 3 -6 78.69 17.6
8 3 -6 114.69 70.99
-7 -3 6 71.99 75.29
7 3 -6 100.29 18.8
-7 3 6 101.19 16.1
7 3 -6 130.39 89.29
-7 3 6 92.29 15.9
-6 -3 6 149.59 19.2
-6 -3 6 78.59 60.79
6 3 -6 123.19 17.6
-6 3 6 147.19 17
6 3 -6 92.29 65.39
-6 3 6 150.98 15.8
-5 -3 6 129.19 54.59
-5 -3 6 134.09 27.4
5 3 -6 147.69 79.99
-5 3 6 169.88 17.5
-5 3 6 154.98 26.9
5 3 -6 152.08 17.6
-4 -3 6 112.79 59.99
-4 -3 6 139.19 15.9
4 3 -6 153.98 16.4
4 3 -6 149.39 68.69
-4 3 6 109.99 32.3
-4 3 6 133.19 15
-4 3 6 103.19 32.9
-3 -3 6 107.89 57.89
3 -3 -6 181.98 17.2
-3 -3 6 187.28 16.7
-3 3 6 143.89 40.9
-3 3 6 188.48 51.49
3 3 -6 115.99 51.19
3 3 -6 174.28 16
-3 3 6 176.38 17.1
2 -3 -6 109.09 13.8
-2 -3 6 88.49 61.89
-2 -3 6 122.89 12.4
2 3 -6 191.28 67.19
-2 3 6 131.29 15.1
2 3 -6 133.39 13.2
-2 3 6 106.39 38.9
-2 3 6 64.99 37.8
-1 -3 6 87.89 43.7
-1 3 6 13 21.9
-1 3 6 104.59 47
1 3 -6 63.99 56.19
-1 3 6 64.89 12.4
0 -3 6 53.29 42.8
0 -3 -6 58.89 12
0 3 -6 66.79 45.9
0 3 6 59.69 12.1
0 3 6 9.1 24.7
0 3 6 113.79 51.79
1 -3 6 209.28 67.39
-1 -3 -6 157.68 17.1
-1 3 -6 111.19 53.79
1 3 6 146.29 45.6
1 3 6 179.48 18.3
1 3 6 233.88 75.89
-2 -3 -6 11.2 6.8
2 -3 6 1.2 30.6
2 3 6 15.9 32
-2 3 -6 31.2 31.6
2 3 6 29.7 35.1
2 3 6 13 8.1
3 -3 6 14.9 29.4
-3 -3 -6 16 8.6
3 3 6 -2.5 33.2
3 3 6 16.3 8.6
-3 3 -6 23.4 35.7
3 3 6 24.5 36.6
-4 -3 -6 7.1 6.8
4 3 6 -35.2 41.8
4 3 6 15.6 9.4
-4 3 -6 -2.4 29.7
4 3 6 4.9 23.9
5 -3 6 58.19 49.4
-5 -3 -6 19.5 10.7
5 3 6 2.4 41.4
5 3 6 31.9 11
-5 3 -6 13.3 37.7
5 3 6 9.9 47.5
-6 -3 -6 58.89 19.1
6 -3 6 67.39 50.09
-6 3 -6 53.79 43.2
6 3 6 6.3 37.8
6 3 6 28.4 11.2
6 3 6 -10.1 55.49
-7 -3 -6 133.99 23.3
7 -3 6 78.69 50.59
-7 3 -6 138.89 68.79
7 3 6 193.98 23.6
7 3 6 138.09 83.59
7 3 6 160.28 119.89
-8 -3 -6 33.2 14.6
8 -3 6 -67.79 40.7
8 3 6 -16.6 49.3
-8 3 -6 30.9 53.69
8 3 6 24.4 10.5
8 3 6 -19.7 57.59
9 -3 6 54.49 71.19
-9 -3 -6 58.59 18.7
-9 3 -6 -68.19 51.99
9 3 6 40 14.1
9 3 6 58.29 71.29
9 3 6 107.79 101.99
10 -3 6 -33 57.99
10 3 6 45.4 17.7
10 3 6 23.2 73.49
-10 3 -6 172.48 80.49
-8 -4 6 58.19 114.49
-8 -4 6 66.99 17.6
8 4 -6 59.09 16.7
8 4 -6 -38.1 101.09
-7 -4 6 37.6 13.3
7 4 -6 -139.99 72.89
7 4 -6 35.7 11.6
-6 -4 6 110.49 20.2
-6 -4 6 29 79.09
-6 4 6 94.29 15.7
6 4 -6 120.69 83.29
6 4 -6 106.29 19.8
-5 -4 6 141.79 98.49
-5 -4 6 278.37 25.4
-5 4 6 234.08 21.7
5 4 -6 285.67 24.9
-5 4 6 217.88 50.69
5 4 -6 193.78 92.59
-4 -4 6 64.59 68.29
-4 -4 6 69.29 13.9
4 4 -6 63.29 15.6
4 4 -6 20.1 70.19
-4 4 6 86.49 14.6
-4 4 6 96.39 43.3
-3 -4 6 34.7 10.2
-3 -4 6 10.4 49.2
3 4 -6 -5.4 59.39
3 4 -6 37.7 10.9
-3 4 6 -13.3 43.8
-3 4 6 9.4 37.3
2 -4 -6 114.19 18
-2 -4 6 124.89 14
-2 -4 6 241.38 93.69
-2 4 6 158.48 63.49
2 4 -6 128.59 64.59
-2 4 6 112.19 17.5
-2 4 6 80.59 43.2
-1 -4 6 106.19 67.19
-1 4 6 174.28 68.69
1 4 -6 233.88 100.39
-1 4 6 178.98 61.89
0 -4 -6 259.47 23.4
0 -4 6 203.68 80.19
0 4 -6 216.88 86.59
0 4 6 75.69 62.19
0 4 6 163.28 63.39
0 4 6 231.78 22.2
-1 -4 -6 309.17 25.6
1 -4 6 126.99 70.89
1 4 6 216.28 69.19
1 4 6 286.97 25.4
1 4 6 294.47 94.39
-1 4 -6 151.98 70.79
2 -4 6 151.28 78.39
-2 -4 -6 242.58 26.3
2 4 6 280.17 88.39
2 4 6 188.28 73.89
-2 4 -6 190.48 81.69
3 4 6 178.18 22.1
3 4 6 88.39 69.79
-3 4 -6 156.78 76.69
3 4 6 139.29 72.39
-4 -4 -6 139.59 22.8
4 -4 6 90.49 75.69
-4 4 -6 43.9 67.19
4 4 6 125.59 77.79
4 4 6 131.39 72.49
4 4 6 109.89 19.5
-5 -4 -6 37.4 14.3
5 -4 6 62.59 59.79
5 4 6 13.5 44.3
-5 4 -6 -69.49 49.9
5 4 6 8.8 61.59
5 4 6 50.99 14.9
6 -4 6 133.09 86.19
-6 -4 -6 139.79 26.2
6 4 6 81.59 71.49
6 4 6 139.59 90.39
-6 4 -6 60.19 70.69
7 -4 6 7 79.99
-7 4 -6 -18 58.39
7 4 6 126.19 71.99
7 4 6 29.7 86.79
8 4 6 -34.9 66.39
8 4 6 104.49 113.19
0 5 6 -14.1 8.6
13 0 -7 172.38 69.19
-12 0 7 238.08 26.9
12 0 -7 290.77 71.59
-11 0 7 224.28 24.7
11 0 -7 280.07 63.29
11 0 -7 259.57 65.29
10 0 -7 446.86 69.69
-10 0 7 388.56 31.6
10 0 -7 371.76 71.69
9 0 -7 393.96 62.89
9 0 -7 277.17 60.89
-9 0 7 363.76 28.6
8 0 -7 431.36 57.19
-8 0 7 413.86 29.1
-7 0 7 1269.37 99.79
-7 0 7 1212.58 52.89
7 0 -7 1200.28 93.89
-6 0 7 557.64 59.99
6 0 -7 545.95 60.49
-6 0 7 495.75 29.5
-5 0 7 1572.34 104.59
5 0 -7 1537.05 100.49
-5 0 7 1545.45 57.89
-4 0 7 1427.26 52.59
-4 0 7 1397.96 95.29
4 0 -7 1407.26 96.19
-3 0 7 925.41 38.4
3 0 -7 954.4 76.89
-3 0 7 994.6 78.29
-2 0 7 919.41 36.8
2 0 -7 962.5 77.69
-2 0 7 920.11 76.69
-1 0 7 1248.68 44.6
1 0 -7 1284.47 95.39
-1 0 7 1301.27 96.09
0 0 7 606.44 26.1
0 0 -7 578.24 25.8
0 0 -7 587.34 65.59
0 0 7 502.55 60.89
-1 0 -7 270.27 16.7
-1 0 -7 313.67 49.99
1 0 7 286.17 47.3
1 0 7 328.57 17.8
2 0 7 1414.96 48.3
-2 0 -7 1439.56 113.09
-2 0 -7 1434.36 48.5
2 0 7 1436.46 113.39
3 0 7 276.87 17.4
-3 0 -7 265.97 16.8
-3 0 -7 355.56 77.49
3 0 7 237.78 58.79
4 0 7 666.63 30.4
4 0 7 771.12 173.28
-4 0 -7 690.53 30.7
-4 0 -7 716.23 88.59
-5 0 -7 79.59 10.5
5 0 7 92.29 38.9
-5 0 -7 117.99 47.6
5 0 7 90.59 11.2
-6 0 -7 14.8 22.7
-6 0 -7 23 7.6
6 0 7 12.3 27
6 0 7 19.7 7.5
7 0 7 86.49 12.3
-7 0 -7 84.09 14.7
-7 0 -7 77.19 50.79
7 0 7 33 27
-8 0 -7 22.7 42.9
8 0 7 12.8 27
-8 0 -7 -3.3 3.5
8 0 7 8.9 5.8
-9 0 -7 58.49 46.9
-9 0 -7 14.8 8.5
9 0 7 0.1 33
10 0 7 -22.7 44.1
-10 0 -7 44.6 11.8
-10 0 -7 164.08 78.09
10 0 7 58.89 14.6
11 0 7 25.7 63.89
11 0 7 -4.6 6.2
-11 0 -7 -36.3 46.5
-11 0 -7 12 7.8
12 0 7 11.1 9.2
12 0 7 -52.69 52.79
-12 0 -7 3 9.4
13 0 7 6.1 10.6
-13 0 -7 -8 8.7
13 1 -7 67.89 79.69
-12 -1 7 11.4 9.5
-12 1 7 -0.6 8.6
12 1 -7 -0.5 6.7
12 1 -7 -21.8 50.99
-11 -1 7 5 10.8
11 1 -7 69.29 48.5
11 1 -7 8.9 8
-11 1 7 5.6 7.1
10 1 -7 30.7 39.9
-10 1 7 3.6 6.2
10 1 -7 12.5 38.2
10 1 -7 5.1 6.3
-9 -1 7 71.49 62.89
9 1 -7 20.7 33.8
9 1 -7 70.79 16
-9 1 7 75.09 16
-8 -1 7 22.3 25.9
-8 1 7 70.39 18.3
8 1 -7 58.29 15.1
8 1 -7 -0.4 24.8
-7 -1 7 157.48 59.39
-7 1 7 125.69 15.4
7 1 -7 173.58 52.89
7 1 -7 150.78 17.4
-6 -1 7 322.27 72.89
-6 -1 7 412.06 27.4
6 1 -7 439.66 28
6 1 -7 436.26 73.49
-6 1 7 447.76 27.2
-6 1 7 416.96 26.5
-5 -1 7 134.19 14.5
-5 -1 7 114.39 40.2
-5 1 7 129.89 14.5
-5 1 7 123.59 13.8
5 1 -7 131.79 14.6
5 1 -7 79.69 35.8
-4 -1 7 267.97 68.59
-4 -1 7 278.07 19.8
4 -1 -7 239.18 23.9
4 1 -7 290.97 20
4 1 -7 327.67 71.29
-4 1 7 279.47 20.1
-4 1 7 325.87 27.2
-3 -1 7 168.78 14.2
3 -1 -7 138.39 23.8
-3 -1 7 193.78 54.29
-3 1 7 149.59 14.2
-3 1 7 149.29 24
3 1 -7 151.68 45.5
-2 -1 7 667.63 80.49
2 -1 -7 618.64 29.2
-2 -1 7 608.24 27.4
2 -1 -7 611.84 54.59
-2 1 7 549.95 52.49
-2 1 7 547.85 28
2 1 -7 803.72 103.79
-1 -1 7 1129.49 40.4
-1 -1 7 1015.6 98.69
1 -1 -7 1228.88 86.39
1 -1 -7 1180.18 44
-1 -1 7 1224.98 40.9
-1 1 7 1119.19 43.6
-1 1 7 1113.09 83.49
1 1 -7 1075.29 101.69
0 -1 -7 2076.39 127.49
0 -1 -7 2189.38 71.09
0 -1 7 2189.88 65.59
0 -1 7 2241.28 149.88
0 1 7 2294.97 71.79
0 1 -7 2387.66 155.58
0 1 7 2209.28 130.29
1 -1 7 631.84 26.7
1 -1 7 677.83 81.29
-1 -1 -7 714.03 75.19
-1 -1 -7 600.34 29.9
1 1 7 773.12 32.7
-1 1 -7 890.41 92.39
1 1 7 728.13 75.89
-2 -1 -7 1645.34 125.59
-2 -1 -7 1586.04 55.19
-2 1 -7 1491.55 125.89
-2 1 -7 1456.45 47.2
2 1 7 1502.95 54.69
2 1 7 1505.55 121.09
3 -1 7 1501.55 128.49
-3 -1 -7 1590.94 130.89
-3 -1 -7 1526.75 55.49
3 -1 7 1478.75 48
3 1 7 1502.45 127.89
3 1 7 1526.25 55.59
-3 1 -7 1476.65 128.89
-4 -1 -7 467.85 27
4 -1 7 466.95 21
-4 -1 -7 463.35 74.19
4 -1 7 508.75 75.19
-4 1 -7 484.45 21.4
-4 1 -7 510.45 76.89
4 1 7 456.15 27
-5 -1 -7 1354.56 134.19
5 -1 7 1312.37 43.7
-5 -1 -7 1326.77 52.69
5 -1 7 1242.78 128.49
-5 1 -7 1271.37 43.5
5 1 7 1258.27 127.79
-5 1 -7 1049.79 117.59
5 1 7 1290.07 52.09
-6 -1 -7 500.65 30.6
-6 -1 -7 542.25 88.19
6 -1 7 537.65 87.69
6 -1 7 526.45 24.8
-6 1 -7 527.15 25
-6 1 -7 456.15 76.49
6 1 7 592.04 33
6 1 7 537.75 90.29
-7 -1 -7 887.61 119.89
7 -1 7 650.73 30.2
7 -1 7 670.53 101.99
-7 -1 -7 663.63 39.1
-7 1 -7 666.03 30.6
-7 1 -7 597.84 96.69
7 1 7 690.73 38.1
-8 -1 -7 376.46 29.3
8 -1 7 380.66 23.3
-8 -1 -7 262.87 79.29
8 1 7 236.98 70.09
8 1 7 425.86 30.3
-8 1 -7 490.35 105.79
-8 1 -7 376.06 23.1
9 -1 7 429.56 26.5
-9 -1 -7 443.26 33.2
9 1 7 460.05 33.2
-9 1 -7 343.37 86.89
9 1 7 565.14 130.49
-9 1 -7 419.16 26
10 -1 7 410.16 103.29
10 -1 7 457.95 28.3
-10 -1 -7 452.05 34.4
10 1 7 430.26 33.6
-10 1 -7 408.26 27.4
-10 1 -7 289.07 75.89
11 -1 7 321.87 117.19
-11 -1 -7 187.18 25.1
11 -1 7 172.38 18.7
-11 1 -7 133.29 19.8
11 1 7 139.99 23
-11 1 -7 151.38 74.99
11 1 7 145.79 66.49
11 1 7 124.69 77.59
-12 -1 -7 222.48 27.2
12 -1 7 222.78 22.8
12 -1 7 160.48 84.49
-12 1 -7 241.28 23
12 1 7 201.38 25.2
-12 1 -7 173.08 85.89
12 1 7 105.79 79.89
13 -1 7 105.29 19.5
-13 1 -7 123.29 20.6
13 1 7 150.18 33
12 2 -7 4.6 70.89
-12 2 7 134.59 23.5
-12 2 7 120.89 21.2
-11 -2 7 141.19 24.2
-11 2 7 160.48 21.9
-11 2 7 187.98 22.8
11 2 -7 180.08 24.2
-10 -2 7 311.77 58.99
10 2 -7 277.77 29
10 2 -7 234.18 87.19
-10 2 7 289.57 26.9
-10 2 7 274.77 24.8
-9 -2 7 263.37 26.7
9 2 -7 189.28 23.7
9 2 -7 143.59 64.49
-9 2 7 197.78 21
-9 2 7 217.28 21.9
-8 -2 7 264.07 90.09
8 2 -7 115.19 56.09
-8 2 7 164.58 23.1
8 2 -7 212.28 22.9
-8 2 7 195.88 19.5
-7 -2 7 453.15 95.59
-7 -2 7 718.23 41.1
-7 2 7 741.23 38
-7 2 7 729.03 38.5
7 2 -7 770.02 42
7 2 -7 643.64 103.89
-6 -2 7 447.16 106.39
-6 -2 7 533.75 48.1
-6 2 7 469.45 29.7
-6 2 7 463.45 28.7
6 2 -7 639.04 100.89
6 2 -7 479.65 31.2
-5 -2 7 484.05 103.39
-5 -2 7 716.63 36.9
-5 2 7 709.03 36.1
5 2 -7 806.42 109.39
5 2 -7 706.03 36.4
-4 -2 7 743.93 36.3
-4 -2 7 750.82 106.59
4 2 -7 797.12 104.79
-4 2 7 780.52 37.2
4 2 -7 735.03 35.6
-3 -2 7 374.06 22.8
-3 -2 7 480.85 109.69
3 2 -7 389.96 23.1
-3 2 7 378.36 24.8
-3 2 7 380.76 42.9
-3 2 7 451.35 47.2
3 2 -7 482.25 100.79
2 -2 -7 520.25 28.1
-2 -2 7 486.35 24.5
-2 -2 7 496.65 83.09
-2 2 7 497.15 54.69
-2 2 7 407.66 51.89
2 2 -7 522.55 81.49
-2 2 7 446.36 26.7
-1 -2 7 933.81 34.7
-1 -2 7 1029.8 113.99
1 -2 -7 919.81 40.5
-1 2 7 944.21 86.39
-1 2 7 811.12 77.29
-1 2 7 853.71 39.6
1 2 -7 1249.68 151.28
0 -2 -7 424.06 25.2
0 -2 7 432.26 92.09
0 -2 7 404.06 18.8
0 2 7 403.76 62.79
0 2 7 424.46 25.8
0 2 7 364.46 57.59
0 2 -7 471.35 97.79
-1 -2 -7 260.77 20.1
1 -2 7 234.48 83.89
1 2 7 261.77 20.4
1 2 7 228.98 51.89
-1 2 -7 166.08 55.79
1 2 7 211.38 53.29
-2 -2 -7 729.63 37.4
2 -2 7 749.62 97.49
2 2 7 813.02 99.69
-2 2 -7 1023.1 118.59
2 2 7 867.31 99.39
2 2 7 821.32 38.9
3 -2 7 143.19 51.99
-3 -2 -7 132.59 15.7
3 2 7 246.28 74.89
3 2 7 139.79 16
3 2 7 137.29 56.79
-3 2 -7 93.79 41.6
-4 -2 -7 176.58 18.4
4 -2 7 148.49 55.79
4 2 7 196.58 82.59
4 2 7 199.58 19.5
4 2 7 294.67 89.39
-4 2 -7 164.98 54.59
5 -2 7 39.2 31.6
-5 -2 -7 47.7 11.7
5 2 7 9.9 29.6
-5 2 -7 69.09 39
5 2 7 19.8 30.1
6 2 7 37.1 37.3
6 2 7 32.4 11.7
-6 2 -7 7.1 28.7
6 2 7 0.4 24.5
7 -2 7 16.8 36.3
7 2 7 107.69 60.19
7 2 7 47 44.2
-7 2 -7 24.9 38.1
7 2 7 71.99 14.4
8 -2 7 72.19 52.19
8 2 7 27 10.6
-8 2 -7 16.3 41.7
8 2 7 14.1 70.79
8 2 7 -26.1 37.3
-9 -2 -7 11.5 8.3
9 -2 7 37.5 52.89
9 2 7 -42.5 52.89
9 2 7 14.5 9
-9 2 -7 -36.9 33
9 2 7 -7 44.8
10 -2 7 12.1 56.09
-10 -2 -7 34.7 15.5
-10 2 -7 26.5 49.99
10 2 7 59.69 67.29
10 2 7 -60.79 41
11 -2 7 -14.9 60.69
11 2 7 113.69 84.69
11 2 7 11.7 9.6
11 2 7 1.5 62.69
-11 2 -7 31.3 63.49
12 -2 7 78.69 167.28
12 2 7 5.1 104.19
-11 3 7 -1.4 10.2
-11 3 7 7.9 10.3
10 3 -7 -7.9 5.6
-10 3 7 -3.9 7.3
-10 3 7 7.5 8.6
-9 -3 7 12.3 62.69
-9 -3 7 17 13.7
9 3 -7 -6.5 59.19
9 3 -7 9.4 8.2
-9 3 7 14 7.9
-9 3 7 12.3 8.1
-8 -3 7 31.5 12.4
8 3 -7 19.7 8.9
8 3 -7 16.1 101.59
-8 3 7 15.4 10.3
-8 3 7 19.7 7.9
-7 -3 7 6.5 47.7
-7 3 7 69.79 14.6
7 3 -7 47.4 13.1
7 3 -7 131.89 80.79
-6 -3 7 106.89 18.1
-6 -3 7 23.2 52.29
6 3 -7 274.37 110.99
-6 3 7 116.69 17.8
-6 3 7 101.39 16.8
6 3 -7 94.69 17.3
-5 -3 7 12 7.9
-5 -3 7 2.2 36.5
5 3 -7 26.4 11.6
5 3 -7 -38.4 60.59
-5 3 7 18.2 8.7
-4 -3 7 174.88 74.99
-4 -3 7 71.29 13.5
-4 3 7 78.29 14.3
-4 3 7 79.49 29.8
-4 3 7 43.3 25.1
4 3 -7 97.39 92.49
4 3 -7 83.69 14.6
3 -3 -7 189.48 18.6
-3 -3 7 221.88 18.3
-3 -3 7 190.68 70.89
3 3 -7 225.58 81.19
3 3 -7 241.58 18.7
-3 3 7 205.78 50.09
-3 3 7 232.58 20.4
-3 3 7 239.38 54.89
2 -3 -7 272.97 21.9
-2 -3 7 273.67 87.49
-2 -3 7 277.87 18.3
-2 3 7 262.57 62.89
2 3 -7 131.89 60.89
-2 3 7 282.97 22.2
2 3 -7 243.58 18.2
-2 3 7 167.28 58.79
-1 -3 7 51.49 47.9
1 -3 -7 129.39 16.2
-1 3 7 69.99 43.2
1 3 -7 76.49 40.4
-1 3 7 129.89 16.1
0 -3 7 440.86 103.19
0 -3 -7 450.75 29
0 3 -7 525.65 118.99
0 3 7 464.85 29.5
0 3 7 461.75 79.99
0 3 7 282.07 69.69
1 -3 7 345.97 117.59
-1 -3 -7 303.57 24.2
1 3 7 502.55 80.69
1 3 7 251.57 69.69
1 3 7 274.57 23.4
-1 3 -7 461.95 113.59
-2 -3 -7 282.37 23.8
2 -3 7 361.76 93.39
-2 3 -7 189.88 70.39
2 3 7 280.77 84.09
2 3 7 205.98 28.7
2 3 7 256.97 75.99
3 -3 7 288.47 82.59
-3 -3 -7 308.77 25.8
3 3 7 324.67 26.3
-3 3 -7 288.77 90.29
3 3 7 207.68 59.99
3 3 7 315.97 79.59
-4 -3 -7 266.17 24.5
4 -3 7 225.98 70.49
-4 3 -7 234.58 82.49
4 3 7 137.79 55.89
4 3 7 245.58 24.3
4 3 7 157.48 66.99
5 3 7 348.97 108.09
-5 3 -7 114.59 57.29
5 3 7 200.28 69.59
5 3 7 288.37 26.6
-6 -3 -7 179.28 22.8
6 -3 7 143.29 66.59
6 3 7 212.48 24.1
-6 3 -7 189.68 69.69
6 3 7 146.89 79.79
6 3 7 221.68 82.29
-7 -3 -7 473.85 36.9
7 -3 7 516.05 118.89
7 3 7 468.15 36.4
7 3 7 304.97 119.59
7 3 7 292.07 85.39
-7 3 -7 319.47 82.99
-8 -3 -7 187.88 25.4
8 -3 7 78.29 62.39
8 3 7 77.29 106.79
-8 3 -7 224.48 90.59
8 3 7 259.17 28.8
8 3 7 146.99 88.59
9 -3 7 114.59 73.59
-9 3 -7 71.59 59.79
9 3 7 53.99 63.39
9 3 7 89.59 19.4
9 3 7 96.49 85.19
10 -3 7 40.4 89.29
10 3 7 161.18 135.59
10 3 7 66.39 86.29
-8 -4 7 -124.39 107.09
-8 -4 7 112.59 21.9
8 4 -7 76.89 17.4
-8 4 7 120.29 19.1
8 4 -7 225.78 168.18
-8 4 7 75.89 16.1
-7 -4 7 164.28 125.89
-7 -4 7 101.29 21.5
7 4 -7 122.99 92.19
-7 4 7 97.29 15.4
7 4 -7 86.29 18.3
-7 4 7 120.49 19.1
-6 -4 7 118.29 19.8
-6 -4 7 59.49 87.79
-6 4 7 130.49 18.3
6 4 -7 112.09 19.5
-6 4 7 142.69 19.3
6 4 -7 226.78 92.39
-5 -4 7 114.89 94.99
-5 -4 7 171.98 23.6
5 4 -7 303.17 119.59
-5 4 7 120.09 42.6
5 4 -7 136.59 19.4
-5 4 7 146.29 26.1
-4 -4 7 133.39 19.7
-4 -4 7 80.49 75.79
4 4 -7 94.59 15.8
4 4 -7 -54.89 88.89
-4 4 7 151.38 25.1
-4 4 7 115.39 48.8
-3 -4 7 171.38 17.6
-3 -4 7 44.2 68.39
3 4 -7 177.78 17.8
3 4 -7 69.69 62.99
-3 4 7 240.98 67.59
-3 4 7 180.78 20.3
-2 -4 7 -22.8 65.79
-2 4 7 16.1 46.6
2 4 -7 -63.49 35.6
-2 4 7 30.5 10.1
-1 -4 7 65.49 63.79
1 -4 -7 16.7 10.2
-1 4 7 42.8 13
1 4 -7 126.19 71.29
-1 4 7 -65.19 45.6
-1 4 7 -30.4 32.8
0 -4 7 134.29 76.49
0 -4 -7 329.27 27.3
0 4 7 172.48 73.59
0 4 7 245.58 93.79
0 4 7 266.67 25.6
0 4 -7 344.37 116.09
-1 -4 -7 87.59 18.1
1 4 7 112.79 68.29
-1 4 -7 219.38 82.19
1 4 7 176.58 75.29
1 4 7 109.99 18.8
2 -4 7 33 64.89
2 4 7 74.29 16.5
2 4 7 -7.5 44.2
2 4 7 -12.2 45.8
-2 4 -7 109.89 88.49
-3 -4 -7 79.89 18.3
3 -4 7 -24 50.39
-3 4 -7 62.39 55.79
3 4 7 97.09 72.19
3 4 7 88.79 82.69
3 4 7 102.19 19.2
-4 -4 -7 6.1 9.2
4 4 7 -4 67.29
4 4 7 19 10.4
-4 4 -7 -8 58.29
4 4 7 -50.09 53.29
-5 -4 -7 -3.7 9.8
5 -4 7 -27 57.89
5 4 7 -40.4 58.69
-5 4 -7 84.99 63.19
5 4 7 27.5 61.89
5 4 7 14.8 9.1
-6 -4 -7 43.9 17
6 -4 7 106.59 100.39
6 4 7 -64.19 74.99
-6 4 -7 7.7 67.59
6 4 7 29.6 72.49
7 -4 7 11.5 88.69
7 4 7 77.09 84.29
7 4 7 -3.2 9.6
13 0 -8 149.09 69.39
-12 0 8 81.29 18
12 0 -8 129.39 56.79
11 0 -8 38.6 39.6
-11 0 8 30.4 13.3
-10 0 8 20.7 9.6
10 0 -8 5.5 28.6
10 0 -8 81.39 39.2
9 0 -8 197.78 51.79
-9 0 8 191.88 21.4
9 0 -8 148.09 43.4
-8 0 8 76.09 15.6
8 0 -8 46.6 27.4
-7 0 8 156.98 18.4
-7 0 8 141.79 41
7 0 -8 114.69 37.6
-6 0 8 -3 2.8
-6 0 8 -6.1 14.9
-5 0 8 66.49 29.4
5 0 -8 108.69 35.9
-5 0 8 82.29 11.7
-4 0 8 -5.4 9.5
4 0 -8 9.5 12.6
-4 0 8 -4.4 2.3
3 0 -8 145.99 37.2
-3 0 8 141.79 13.8
-3 0 8 206.68 45.5
-3 0 8 139.99 13.6
2 0 -8 199.68 43.7
-2 0 8 234.18 51.59
-2 0 8 247.28 17.4
-1 0 8 245.98 56.49
1 0 -8 157.18 38.6
-1 0 8 178.88 14.5
0 0 -8 2872.31 168.18
0 0 8 3247.18 177.18
0 0 -8 3117.09 91.29
0 0 8 3019.8 90.59
-1 0 -8 1165.98 43.2
-1 0 -8 1143.59 102.69
1 0 8 1248.48 106.89
1 0 8 1145.09 42.7
2 0 8 1684.73 135.19
-2 0 -8 2019.5 64.29
-2 0 -8 2177.68 149.09
2 0 8 2012.7 64.29
3 0 8 -12.3 13.7
-3 0 -8 2.8 15.4
-3 0 -8 8.8 4.5
3 0 8 9.9 4.8
-4 0 -8 484.75 25.7
4 0 8 444.56 72.09
-4 0 -8 436.66 73.79
4 0 8 545.05 27
5 0 8 649.93 32
5 0 8 609.54 88.79
-5 0 -8 670.13 32.1
-5 0 -8 705.33 95.09
-6 0 -8 398.36 24.6
6 0 8 390.06 24.7
-6 0 -8 292.47 68.49
6 0 8 360.86 104.39
7 0 8 350.66 122.19
7 0 8 286.27 21.4
-7 0 -8 297.97 22.3
-7 0 -8 191.08 58.79
8 0 8 317.07 24.2
-8 0 -8 267.37 75.89
-8 0 -8 315.37 24.4
8 0 8 567.64 127.69
9 0 8 186.08 19.1
-9 0 -8 160.78 18.4
-9 0 -8 90.99 48.4
10 0 8 248.18 23.7
-10 0 -8 231.48 22.4
-10 0 -8 179.68 76.29
10 0 8 166.78 80.59
11 0 8 -5.2 64.89
-11 0 -8 160.88 84.99
-11 0 -8 173.98 21.4
11 0 8 168.08 21.3
12 0 8 48.7 64.79
12 0 8 247.08 25.6
-12 0 -8 194.08 24.1
-12 0 -8 130.79 88.19
13 0 8 63.49 16.5
-13 0 -8 28.1 13
13 1 -8 68.59 87.19
12 1 -8 86.19 21.2
-12 1 8 69.49 17.3
12 1 -8 52.89 68.09
-11 -1 8 182.78 24.2
11 1 -8 193.28 25.3
-11 1 8 209.08 23.4
11 1 -8 90.69 59.99
10 1 -8 148.89 61.89
10 1 -8 205.28 24.2
-10 1 8 207.98 22
9 1 -8 537.65 37.9
9 1 -8 632.44 151.68
-9 1 8 627.24 38.4
-8 -1 8 507.95 102.09
-8 1 8 416.56 29.5
8 1 -8 440.36 32
8 1 -8 427.16 86.79
-7 -1 8 453.45 78.39
-7 -1 8 478.95 32.1
7 1 -8 456.55 73.29
-7 1 8 479.25 31
-7 1 8 487.95 30.8
7 1 -8 512.45 37.4
-6 -1 8 990.3 45.8
-6 -1 8 1129.89 114.79
-6 1 8 962.1 45
6 1 -8 948.91 45.3
6 1 -8 875.51 100.09
-6 1 8 983.8 45.5
-5 -1 8 529.05 30.7
-5 -1 8 445.96 73.49
-5 1 8 552.24 30.8
5 1 -8 520.55 73.39
-5 1 8 510.05 30.2
4 -1 -8 1346.97 72.89
-4 -1 8 1386.06 52.49
-4 -1 8 1179.48 115.29
4 1 -8 1323.67 118.19
-4 1 8 1341.57 72.39
-4 1 8 1328.77 52.49
-3 -1 8 1076.09 42.7
3 -1 -8 1042.8 71.59
-3 -1 8 1045.1 105.09
-3 1 8 1021.8 71.79
3 1 -8 997.2 100.09
-3 1 8 974.1 43.1
-2 -1 8 3061.79 91.39
2 -1 -8 3062.29 93.89
2 -1 -8 3095.09 147.19
-2 -1 8 2793.52 180.58
-2 1 8 3065.89 93.89
-2 1 8 3116.49 148.39
2 1 -8 2923.81 182.98
-1 -1 8 952.6 37.3
-1 -1 8 998.2 37.6
-1 -1 8 858.51 93.49
1 -1 -8 978.6 82.69
1 -1 -8 928.01 39.8
1 1 -8 1083.19 105.19
-1 1 8 1017 41.3
-1 1 8 923.61 79.79
0 -1 8 1245.88 42.7
0 -1 -8 1245.68 47.6
0 -1 -8 1202.28 99.19
0 1 8 1198.88 99.29
0 1 8 1164.88 46.4
0 1 -8 1100.89 109.69
1 -1 8 2912.71 84.89
1 -1 8 3024.6 188.88
-1 -1 -8 2971.7 92.29
-1 -1 -8 3286.27 180.18
-1 1 -8 2958.5 186.98
1 1 8 2833.32 170.18
1 1 8 2930.21 92.09
-2 -1 -8 73.49 33.1
2 -1 8 128.29 62.49
2 -1 8 95.29 9.2
-2 -1 -8 88.39 11.6
2 1 8 102.39 33.7
2 1 8 126.49 13.4
-2 1 -8 50.09 32.8
3 -1 8 757.92 29.8
3 -1 8 689.33 115.89
-3 -1 -8 769.72 94.09
-3 -1 -8 725.63 35.4
3 1 8 863.41 97.59
-3 1 -8 815.42 98.69
3 1 8 742.43 36
-3 1 -8 814.12 30.7
-4 -1 -8 876.81 40.2
4 -1 8 880.11 108.79
-4 -1 -8 856.91 104.69
4 -1 8 854.51 32.5
-4 1 -8 830.52 32.4
4 1 8 867.71 101.99
-4 1 -8 810.02 104.79
4 1 8 826.02 39.5
-5 -1 -8 614.74 34
5 -1 8 611.44 93.09
-5 -1 -8 654.73 97.99
5 -1 8 648.64 27.7
5 1 8 801.62 102.39
5 1 8 608.64 34.3
-5 1 -8 598.94 27.4
-5 1 -8 933.11 137.79
6 -1 8 477.45 24.3
6 -1 8 459.35 101.59
-6 -1 -8 532.55 110.39
-6 -1 -8 493.75 31
-6 1 -8 501.85 25.1
-6 1 -8 576.34 92.39
6 1 8 544.75 92.49
6 1 8 506.95 31.6
-7 -1 -8 543.65 118.89
7 -1 8 532.35 118.69
7 -1 8 411.06 23.6
-7 -1 -8 435.36 30.2
7 1 8 474.55 109.19
7 1 8 399.66 29.3
-7 1 -8 456.15 106.49
-7 1 -8 433.46 24.2
8 -1 8 280.37 88.79
-8 -1 -8 165.48 65.59
8 -1 8 199.98 16.8
-8 -1 -8 208.08 21.9
-8 1 -8 175.18 16.3
8 1 8 110.89 47.4
8 1 8 214.38 21.9
-8 1 -8 284.27 81.69
-9 -1 -8 96.29 64.09
9 -1 8 92.99 52.19
9 -1 8 89.49 15.6
-9 -1 -8 74.79 16.5
9 1 8 84.09 61.79
-9 1 -8 106.99 13.6
-9 1 -8 61.49 52.49
9 1 8 98.69 18.1
10 -1 8 65.19 13.9
-10 -1 -8 44.7 12.5
10 -1 8 -37.9 34.7
-10 1 -8 74.99 17.3
-10 1 -8 108.79 68.29
10 1 8 -13.1 47.9
10 1 8 42 12.6
-11 -1 -8 53.29 13.8
11 -1 8 33.3 91.29
11 -1 8 60.09 13.7
11 1 8 63.19 55.49
-11 1 -8 49.1 12.5
11 1 8 77.09 83.69
11 1 8 45.9 14.4
12 -1 8 21.4 10.6
-12 -1 -8 14.4 11.6
12 -1 8 14.5 91.19
-12 1 -8 20.1 9.6
12 1 8 -99.09 49.5
-12 1 -8 -13.8 51.59
12 1 8 -7.6 8
-12 2 8 60.49 15.6
-12 2 8 39.8 14.1
12 2 -8 -0.1 109.09
-11 -2 8 39.4 24.8
-11 2 8 35.7 12.8
11 2 -8 35.2 14.6
-11 2 8 42.4 13.2
-10 -2 8 55.99 15.7
-10 -2 8 68.39 66.89
-10 2 8 89.99 17.4
-10 2 8 88.09 17.6
10 2 -8 52.19 15.9
-9 -2 8 31.5 55.59
-9 -2 8 74.09 17.6
9 2 -8 -3.8 49.2
-9 2 8 92.29 18.6
9 2 -8 74.69 16.8
-9 2 8 73.99 15.1
-8 -2 8 26.8 40.2
8 2 -8 29.9 47
-8 2 8 29.3 9.2
8 2 -8 18.7 9.6
-8 2 8 20 9
-7 -2 8 53.89 49.5
-7 -2 8 92.89 17.1
-7 2 8 93.69 16.7
-7 2 8 109.49 18.3
7 2 -8 149.09 71.99
7 2 -8 109.79 20.2
-6 -2 8 62.09 43.6
-6 -2 8 56.79 13.6
6 2 -8 52.19 41
-6 2 8 34.8 10
-6 2 8 42.5 11
-5 -2 8 49.99 50.59
-5 -2 8 35.6 10.4
-5 2 8 32 9.7
5 2 -8 24.8 30.1
5 2 -8 48.1 11.5
-4 -2 8 46.7 11
-4 -2 8 59.39 37.9
-4 2 8 27.8 8.9
-4 2 8 35.4 15.1
4 2 -8 46.1 10.3
4 2 -8 52.79 39.7
-4 2 8 36 14.8
-3 -2 8 29.4 36.1
-3 -2 8 41 9.5
-3 2 8 51.39 12.3
-3 2 8 67.09 25.6
-3 2 8 55.99 22.5
3 2 -8 23.2 27.1
-2 -2 8 37.9 8.7
-2 -2 8 1.9 25.2
2 -2 -8 29.5 9.2
2 2 -8 4.9 20.2
-2 2 8 32.9 9
-2 2 8 12.8 16.5
-1 -2 8 257.47 66.99
1 -2 -8 328.17 23
-1 -2 8 335.67 18.7
-1 2 8 324.47 23.1
-1 2 8 260.27 58.59
1 2 -8 221.68 57.39
-1 2 8 366.96 62.39
0 -2 8 62.29 7.9
0 -2 8 67.39 42.8
0 -2 8 64.59 8.2
0 -2 -8 63.29 12.2
0 2 -8 74.69 36
0 2 8 111.09 50.09
0 2 8 106.79 40.5
0 2 8 90.99 12.9
-1 -2 -8 147.79 15.7
1 -2 8 138.19 54.69
1 2 8 132.99 15.5
1 2 8 168.68 49.2
-1 2 -8 117.19 47.2
-2 -2 -8 101.29 13.9
2 2 8 95.39 43.1
-2 2 -8 52.19 33.8
2 2 8 54.59 11.2
-3 -2 -8 54.49 12.6
3 -2 8 37.8 28.3
-3 2 -8 40.8 34.2
3 2 8 32.6 31.1
3 2 8 49.2 11.5
-4 -2 -8 491.15 34.3
4 -2 8 575.44 93.19
4 2 8 554.74 34.3
-4 2 -8 562.74 94.59
4 2 8 602.04 95.99
-5 -2 -8 583.64 35.4
5 -2 8 574.74 94.29
-5 2 -8 554.64 118.49
5 2 8 409.96 92.49
5 2 8 518.15 33.9
5 2 8 506.95 116.19
6 -2 8 292.27 87.49
6 2 8 300.37 87.29
-6 2 -8 159.28 59.29
6 2 8 374.66 107.19
6 2 8 317.17 26.9
-7 2 -8 30.4 39.3
7 2 8 251.47 85.29
7 2 8 138.39 19.5
7 2 8 99.29 63.99
8 -2 8 100.69 109.79
-8 -2 -8 178.48 22.1
8 2 8 134.39 77.79
-8 2 -8 158.08 66.69
8 2 8 170.78 22.3
-9 -2 -8 246.68 28.2
9 -2 8 133.39 71.09
-9 2 -8 97.39 57.89
9 2 8 382.06 115.09
9 2 8 364.16 115.09
9 2 8 256.47 27.8
-10 -2 -8 87.99 21.2
10 -2 8 178.88 87.39
10 2 8 129.09 25.9
10 2 8 67.79 75.29
-10 2 -8 67.49 68.89
10 2 8 254.17 80.69
11 -2 8 32.8 81.39
11 2 8 102.29 22.7
11 2 8 24.3 70.59
-11 2 -8 69.89 79.29
11 2 8 163.68 85.49
-10 3 8 16.2 10.6
10 3 -8 8.9 11.8
-10 3 8 12.3 10.6
-9 -3 8 115.89 92.59
-9 -3 8 218.38 27.5
-9 3 8 238.78 23.3
-9 3 8 194.28 22.8
9 3 -8 181.08 32.2
-8 -3 8 280.07 28.4
-8 -3 8 271.57 153.18
-8 3 8 227.08 23.6
-8 3 8 190.98 22
8 3 -8 164.28 83.89
8 3 -8 245.98 26.4
-7 -3 8 139.49 79.29
7 3 -8 174.68 76.29
-7 3 8 321.37 25.9
-7 3 8 301.97 26.2
7 3 -8 287.27 27.2
-6 -3 8 314.67 27.5
-6 -3 8 251.77 95.39
-6 3 8 306.57 25.5
6 3 -8 438.56 113.09
6 3 -8 347.07 27.4
-6 3 8 323.37 41.6
-5 -3 8 255.07 85.19
-5 -3 8 344.67 26.5
5 3 -8 303.67 25.3
-5 3 8 306.67 24.5
5 3 -8 287.17 94.59
-4 -3 8 342.97 25.2
-4 -3 8 213.98 77.09
-4 3 8 362.06 46.3
4 3 -8 355.66 25.2
-4 3 8 411.06 74.89
4 3 -8 320.97 109.49
-4 3 8 396.06 27.8
-3 -3 8 68.09 56.09
3 -3 -8 45.4 11.4
-3 -3 8 61.09 11.7
-3 3 8 1.6 24.6
3 3 -8 13.7 42.2
3 3 -8 57.09 11.3
-3 3 8 27.4 27.6
-3 3 8 33.4 10.5
-2 -3 8 838.22 132.79
2 -3 -8 783.42 40
-2 -3 8 733.73 33.6
-2 3 8 689.53 38.4
2 3 -8 602.64 126.89
-2 3 8 765.22 91.09
1 -3 -8 915.01 44.3
-1 -3 8 728.73 122.49
1 3 -8 845.02 123.09
-1 3 8 884.01 44
-1 3 8 714.83 95.99
0 -3 8 463.75 109.89
0 -3 -8 395.56 34.1
0 3 8 463.15 99.99
0 3 8 526.05 87.49
0 3 8 467.95 31.5
0 3 -8 561.04 125.79
1 -3 8 428.36 109.79
-1 -3 -8 597.74 35.2
-1 3 -8 499.55 112.19
1 3 8 359.16 86.29
1 3 8 621.64 36.4
1 3 8 497.15 85.49
2 -3 8 221.38 76.99
-2 -3 -8 191.38 21
2 3 8 146.19 52.69
-2 3 -8 180.68 77.49
2 3 8 178.08 20.1
2 3 8 182.78 62.39
-3 -3 -8 284.87 25.1
3 -3 8 346.57 89.49
3 3 8 232.38 23.9
3 3 8 312.67 94.09
3 3 8 254.77 82.09
4 -3 8 215.58 72.39
4 3 8 202.48 22.4
4 3 8 86.49 45.5
-4 3 -8 168.08 73.99
4 3 8 217.18 73.49
5 -3 8 102.09 56.59
-5 -3 -8 223.28 24.5
-5 3 -8 194.98 76.99
5 3 8 229.98 24.8
5 3 8 280.07 96.09
-6 -3 -8 126.89 22.7
6 3 8 101.29 74.19
6 3 8 59.09 55.39
-6 3 -8 268.37 82.49
6 3 8 171.38 22.4
7 -3 8 73.99 63.79
-7 -3 -8 150.48 35.8
7 3 8 197.68 94.89
7 3 8 108.59 75.29
-7 3 -8 149.69 66.29
7 3 8 195.28 29.5
8 -3 8 64.29 66.19
-8 -3 -8 137.19 25.7
8 3 8 152.68 103.39
-8 3 -8 91.29 64.69
8 3 8 102.09 19.6
8 3 8 15.4 80.49
9 -3 8 65.99 70.69
9 3 8 61.89 89.09
-9 3 -8 83.09 70.09
9 3 8 103.69 87.59
9 3 8 82.49 19.6
10 3 8 45.9 114.49
10 3 8 43.4 97.19
-7 -4 8 136.79 112.09
-7 -4 8 14.5 18
-7 4 8 17.1 9.1
7 4 -8 -46.9 66.29
7 4 -8 8.6 10.1
-7 4 8 7.6 10.5
-6 -4 8 27.1 11.9
-6 -4 8 59.69 94.29
-6 4 8 6.5 8.7
-6 4 8 5.4 8.3
6 4 -8 2.1 8.9
6 4 -8 -32 77.39
-5 -4 8 20.7 11.5
-5 -4 8 91.79 96.39
5 4 -8 127.69 84.29
5 4 -8 35.9 11.7
-5 4 8 21.3 11.2
-5 4 8 9.7 40.2
-4 -4 8 13.3 9.9
-4 -4 8 70.89 109.29
4 4 -8 4.4 7.4
-4 4 8 7.9 35.8
-4 4 8 -2.8 7.9
4 4 -8 -14.2 57.19
-3 -4 8 74.29 71.99
-3 -4 8 23 9.5
-3 4 8 -6.3 49.1
3 4 -8 -34.6 53.59
-3 4 8 -3 7.6
2 -4 -8 2.9 7.6
-2 -4 8 76.39 69.19
-2 4 8 26.3 46.9
-2 4 8 5.4 8.7
2 4 -8 -59.59 66.39
-1 -4 8 120.99 89.89
-1 4 8 65.99 58.59
1 4 -8 -42.7 42.2
0 -4 8 54.19 79.89
0 4 8 15.4 43.2
0 4 -8 -40 44.1
0 4 8 2.2 8
1 -4 8 28.4 68.29
1 4 8 20.7 10.6
1 4 8 -4.3 43.3
-1 4 -8 6 55.69
-2 -4 -8 34.4 13.2
2 -4 8 65.79 73.29
-2 4 -8 98.19 70.39
2 4 8 -30.3 52.19
2 4 8 40.8 13.7
-3 -4 -8 36.6 13.2
3 -4 8 25.7 56.29
3 4 8 39.1 13.9
3 4 8 60.39 66.19
-3 4 -8 87.09 76.19
4 -4 8 -5.8 63.59
4 4 8 32 11.3
-4 4 -8 13.5 61.49
4 4 8 43.8 61.09
-5 -4 -8 11.5 11.1
5 4 8 -0.4 13.3
5 4 8 -10 54.69
-5 4 -8 132.29 84.69
6 -4 8 96.79 101.79
-6 4 -8 6.4 95.99
6 4 8 95.99 88.99
6 4 8 39.3 15.5
13 0 -9 72.39 58.29
-12 0 9 32.7 13.4
12 0 -9 -20.3 42
11 0 -9 68.19 32.7
10 0 -9 118.59 54.39
-10 0 9 144.19 20.5
10 0 -9 136.59 42.5
9 0 -9 49.7 30.5
-8 0 9 197.28 51.59
8 0 -9 241.48 54.99
-8 0 9 246.18 23.6
-7 0 9 543.85 67.39
7 0 -9 472.05 62.79
-7 0 9 535.75 33.5
6 0 -9 391.16 56.49
-6 0 9 460.55 29.7
-6 0 9 463.55 61.59
5 0 -9 542.65 64.49
-5 0 9 493.95 30
-4 0 9 668.43 34.2
-4 0 9 690.43 74.19
-4 0 9 644.94 33.4
-3 0 9 1303.57 51.79
-3 0 9 1386.36 106.19
3 0 -9 1399.56 105.79
-2 0 9 1046.9 42.7
2 0 -9 960.1 90.59
-2 0 9 1097.29 96.09
-1 0 9 2167.38 142.59
1 0 -9 1854.91 131.99
-1 0 9 1944.11 66.09
0 0 -9 1147.29 106.19
0 0 -9 1195.28 45.9
0 0 9 1246.88 109.69
0 0 9 1200.98 45.7
1 0 9 1083.39 41.6
-1 0 -9 948.61 99.79
1 0 9 956.6 98.09
-1 0 -9 1038.8 41.1
2 0 9 595.44 29.3
-2 0 -9 699.23 87.09
2 0 9 583.64 81.59
-2 0 -9 638.94 29.8
3 0 9 1453.65 54.09
3 0 9 1528.85 136.59
-3 0 -9 1534.45 54.49
-3 0 -9 1534.55 138.89
4 0 9 2866.41 89.09
-4 0 -9 2800.42 88.69
-4 0 -9 2855.21 199.08
4 0 9 2766.72 194.88
-5 0 -9 818.52 37.9
5 0 9 837.12 38.9
5 0 9 1016.2 118.39
-5 0 -9 938.71 114.29
6 0 9 378.56 24.7
6 0 9 495.05 115.49
-6 0 -9 260.37 72.09
-6 0 -9 388.36 25.4
-7 0 -9 181.08 61.29
7 0 9 196.48 58.39
7 0 9 307.07 23.2
-7 0 -9 327.77 23.8
8 0 9 332.57 96.69
-8 0 -9 288.77 82.09
-8 0 -9 465.35 30.5
8 0 9 481.15 30.8
-9 0 -9 227.68 21.7
9 0 9 182.48 19.9
9 0 9 64.09 48.4
-9 0 -9 283.77 82.49
10 0 9 251.37 129.59
-10 0 -9 285.37 103.79
-10 0 -9 305.07 26.9
10 0 9 362.66 28.8
11 0 9 307.67 109.59
-11 0 -9 262.67 26
-11 0 -9 343.07 109.99
11 0 9 274.67 26.5
12 0 9 72.99 18.3
12 0 9 6.7 68.89
-12 0 -9 74.69 76.39
13 1 -9 197.48 113.89
-12 1 9 139.19 25.3
12 1 -9 101.39 66.79
-11 -1 9 165.58 23
-11 1 9 180.68 22.6
-10 -1 9 167.28 22
10 1 -9 89.59 47.1
-10 1 9 112.89 19.8
-9 -1 9 267.47 107.99
9 1 -9 253.77 69.09
-9 1 9 230.88 24.4
-8 -1 9 389.86 89.19
-8 1 9 414.76 30.5
-8 1 9 439.96 31.2
8 1 -9 334.77 80.59
-7 -1 9 169.08 54.49
-7 -1 9 247.98 23
-7 1 9 228.58 21.9
7 1 -9 214.78 56.99
-7 1 9 262.07 25.1
-6 -1 9 461.25 79.19
-6 -1 9 442.76 31
6 1 -9 440.66 74.39
-6 1 9 474.65 30.8
-6 1 9 468.35 30.3
-5 -1 9 190.28 18.7
-5 -1 9 146.49 49.99
5 -1 -9 218.18 27.5
-5 1 9 212.08 19.7
-5 1 9 233.58 20.4
5 1 -9 274.77 71.69
-4 -1 9 275.17 65.79
-4 -1 9 342.17 23.6
4 -1 -9 380.56 42.4
-4 1 9 305.77 39.2
4 1 -9 389.06 85.99
-4 1 9 336.47 24
-3 -1 9 155.08 49.4
-3 -1 9 224.28 18.2
3 -1 -9 293.87 80.89
-3 1 9 277.17 40.6
3 1 -9 235.38 59.79
-3 1 9 252.67 20.1
2 -1 -9 357.36 49.2
-2 -1 9 367.86 21.9
2 -1 -9 342.17 23
-2 -1 9 360.76 21.9
-2 -1 9 371.26 76.49
-2 1 9 351.46 23.3
-2 1 9 342.27 48.6
2 1 -9 392.46 67.29
1 -1 -9 711.83 74.29
-1 -1 9 698.93 88.39
-1 -1 9 736.93 32
-1 -1 9 745.03 32.6
1 -1 -9 719.73 35.1
-1 1 9 684.73 73.59
-1 1 9 725.93 35.4
1 1 -9 1064.89 135.89
0 -1 9 26.9 6.8
0 -1 9 44.3 29.6
0 -1 -9 13.8 6.7
0 -1 -9 22.2 17.6
0 1 9 28.8 23
0 1 -9 5.9 16.2
1 -1 9 402.16 21.3
-1 -1 -9 381.46 62.49
-1 -1 -9 407.26 25.1
1 -1 9 427.86 72.69
1 1 9 486.05 27.1
-1 1 -9 522.85 79.19
1 1 9 427.16 66.19
2 -1 9 7.2 5
-2 -1 -9 3 4.1
-2 -1 -9 24.4 23.7
-2 1 -9 9.1 4.8
2 1 9 -11.6 21.2
2 1 9 5.6 5
-2 1 -9 13.2 23.7
3 -1 9 225.18 72.79
-3 -1 -9 124.49 14.2
3 -1 9 118.19 11.1
-3 -1 -9 189.68 65.89
3 1 9 118.69 14.7
-3 1 -9 113.49 11.1
-3 1 -9 117.39 43.7
3 1 9 128.09 51.29
4 -1 9 82.39 9.7
-4 -1 -9 92.59 55.79
4 -1 9 95.19 46.7
-4 -1 -9 62.29 12.3
-4 1 -9 92.09 10.2
4 1 9 31.3 23.2
4 1 9 98.09 16.6
-4 1 -9 117.69 48.2
5 -1 9 12.2 29.8
5 -1 9 33.3 7.7
-5 -1 -9 41 11.6
-5 -1 -9 62.19 40.5
-5 1 -9 24.6 6.9
-5 1 -9 5.9 35.4
5 1 9 19.2 28.9
5 1 9 20.8 8.2
-6 -1 -9 78.99 47.2
6 -1 9 78.89 10.4
6 -1 9 87.29 46.5
-6 -1 -9 81.99 14.9
-6 1 -9 47 40.9
6 1 9 86.79 19.2
6 1 9 20 29.3
-6 1 -9 72.89 10.2
-7 -1 -9 54.79 12.7
7 -1 9 82.09 13.1
7 -1 9 166.78 65.09
-7 -1 -9 30.2 38.3
-7 1 -9 85.79 11.5
7 1 9 60.79 13.3
-7 1 -9 61.59 44.4
7 1 9 68.29 51.49
8 -1 9 137.39 14.7
-8 -1 -9 68.59 60.69
-8 -1 -9 117.69 20.3
8 -1 9 45.3 44.3
-8 1 -9 158.68 58.79
-8 1 -9 168.18 16
8 1 9 152.38 19
9 -1 9 318.17 99.29
-9 -1 -9 116.09 74.39
9 -1 9 167.08 17.3
-9 -1 -9 150.68 20.5
-9 1 -9 146.39 16.4
9 1 9 178.08 21.6
-9 1 -9 110.49 60.69
10 -1 9 57.59 58.79
-10 -1 -9 15.2 9.3
10 -1 9 7.3 8
-10 1 -9 0.3 50.19
10 1 9 8.7 8.5
-10 1 -9 13.6 7.1
10 1 9 -38.1 39.6
11 -1 9 -2.2 62.69
11 -1 9 76.29 15
-11 -1 -9 79.49 18
-11 1 -9 95.29 61.89
11 1 9 194.38 106.89
-11 1 -9 77.89 16
11 1 9 54.09 14.8
12 -1 9 11.5 8.7
12 1 9 22.6 12.6
-12 1 -9 17.6 9.1
12 1 9 31.3 68.99
-12 2 9 3.1 10.7
-11 2 9 7.9 9.7
11 2 -9 -5.5 9.3
-11 2 9 16.6 9.7
-10 -2 9 52.09 16.5
-10 2 9 63.99 16.4
-10 2 9 78.79 17.3
10 2 -9 65.99 17.4
-9 -2 9 74.89 46.1
-9 -2 9 41.7 14.2
9 2 -9 52.59 42.2
-9 2 9 43.4 12.1
9 2 -9 53.49 15.8
-9 2 9 48.3 13.4
-8 -2 9 203.68 25
-8 2 9 197.38 22.2
-8 2 9 204.88 21.7
8 2 -9 188.98 22.8
-7 -2 9 128.59 53.19
-7 -2 9 210.58 22.7
7 2 -9 210.58 65.59
-7 2 9 218.08 21.8
-7 2 9 227.88 22.8
7 2 -9 246.98 24.2
-6 -2 9 252.37 88.99
-6 -2 9 235.58 22.3
6 2 -9 223.38 69.89
6 2 -9 213.48 21.8
-6 2 9 258.67 27.2
-6 2 9 183.98 19.8
-5 -2 9 296.17 92.39
-5 -2 9 374.86 26.7
5 2 -9 264.77 74.29
-5 2 9 310.47 24.7
-4 -2 9 331.57 23.9
-4 -2 9 359.76 90.39
-4 2 9 302.27 24.2
-4 2 9 345.87 36.6
-4 2 9 296.97 35
4 2 -9 327.77 89.19
-3 -2 9 1251.57 140.39
-3 -2 9 1136.49 45.9
-3 2 9 1070.39 48.7
-3 2 9 1041.2 82.39
-3 2 9 1002.6 78.79
3 2 -9 921.51 117.29
2 -2 -9 557.24 32.6
-2 -2 9 522.05 27.7
-2 -2 9 597.14 98.29
-2 2 9 601.44 33.6
-2 2 9 606.84 69.59
-2 2 9 640.34 68.79
-1 -2 9 581.54 27.5
-1 -2 9 567.84 26.9
-1 -2 9 558.84 112.69
1 -2 -9 521.55 31.6
-1 2 9 594.24 72.99
1 2 -9 655.53 97.79
-1 2 9 624.54 34.3
0 -2 9 609.34 26.3
0 -2 9 617.44 26.5
0 -2 9 590.04 91.79
0 -2 -9 627.14 34.6
0 2 9 448.46 70.09
0 2 -9 550.44 91.39
0 2 9 538.05 32.3
1 -2 9 762.42 105.79
1 -2 9 766.12 28.9
-1 -2 -9 751.92 38.9
1 2 9 735.13 93.09
1 2 9 741.43 38.7
-1 2 -9 648.94 103.89
2 -2 9 1213.98 135.49
-2 -2 -9 1238.58 54.29
2 2 9 1313.57 55.89
-2 2 -9 1341.27 143.79
2 2 9 1233.98 127.99
-3 -2 -9 751.22 46.9
3 -2 9 904.31 121.19
3 2 9 921.31 116.79
3 2 9 907.01 44.7
-3 2 -9 948.41 123.89
-4 -2 -9 168.78 19.4
4 -2 9 180.68 57.59
4 2 9 169.58 19.5
4 2 9 263.47 87.99
-4 2 -9 118.19 47.9
5 -2 9 362.66 101.09
-5 2 -9 337.47 109.69
5 2 9 491.45 125.19
5 2 9 311.17 26.2
6 -2 9 892.11 129.59
6 2 9 1055.59 164.38
6 2 9 1067.49 53.49
-6 2 -9 1080.39 137.09
7 -2 9 168.48 77.49
-7 2 -9 289.77 92.49
7 2 9 173.18 76.99
7 2 9 167.18 61.89
-8 -2 -9 181.18 23.5
-8 2 -9 120.09 56.89
8 2 9 197.18 23.2
8 2 9 169.28 108.39
-9 -2 -9 218.58 26.6
9 2 9 228.08 100.39
9 2 9 241.18 109.19
-9 2 -9 165.68 87.69
9 2 9 192.38 25.4
10 -2 9 97.49 80.19
-10 -2 -9 159.18 25.6
-10 2 -9 70.29 64.49
10 2 9 114.59 21.2
10 2 9 253.47 111.89
10 2 9 23.6 56.09
11 -2 9 67.39 93.99
11 2 9 21.6 85.59
11 2 9 66.29 96.09
-10 3 9 98.69 19
10 3 -9 78.59 17.5
-10 3 9 88.59 18.3
-9 -3 9 52.89 16
-9 3 9 24.7 11.3
9 3 -9 57.49 17.2
-9 3 9 38.8 12.2
-8 -3 9 71.29 69.59
-8 -3 9 117.89 22
8 3 -9 149.09 21
8 3 -9 46.7 68.79
-8 3 9 112.29 19.8
-8 3 9 119.89 20.3
-7 -3 9 153.68 24.5
7 3 -9 152.88 88.29
-7 3 9 82.09 15.8
-7 3 9 108.59 18.4
7 3 -9 82.89 16.1
-6 -3 9 136.69 69.49
-6 -3 9 193.98 22.2
6 3 -9 196.08 21.5
-6 3 9 212.08 21.6
-6 3 9 169.68 20.8
6 3 -9 70.89 57.29
-5 -3 9 114.49 58.49
-5 -3 9 102.29 18.1
5 3 -9 149.79 18.3
-5 3 9 138.89 18.6
5 3 -9 145.39 87.19
-4 -3 9 40.6 59.59
-4 -3 9 115.09 16.4
-4 3 9 172.78 37
4 3 -9 48.3 55.69
-4 3 9 176.98 38.6
-4 3 9 156.98 19.1
-3 -3 9 17.3 35.3
-3 -3 9 27 9
3 -3 -9 18.8 8.5
-3 3 9 65.09 34.1
-3 3 9 53.49 32.1
3 3 -9 -50.09 32.5
-3 3 9 25.8 10.8
-2 -3 9 46.4 10.6
-2 -3 9 27.9 38
2 -3 -9 71.19 14.5
-2 3 9 91.99 42.4
-2 3 9 53.59 13.4
2 3 -9 51.59 47.8
-1 -3 9 164.18 74.49
1 -3 -9 143.99 17.9
-1 3 9 1 36.7
-1 3 9 96.79 16.3
1 3 -9 87.99 63.39
0 -3 9 14.8 38.2
0 -3 -9 20.1 9.3
0 3 9 15.1 8.3
0 3 -9 31.8 42.4
0 3 9 35.5 38
0 3 9 27.5 47.3
-1 -3 -9 124.49 20.7
1 -3 9 107.89 55.99
-1 3 -9 100.19 54.19
1 3 9 41.7 41.8
1 3 9 47.9 39.5
1 3 9 81.59 16.4
2 -3 9 36.3 44.7
-2 -3 -9 40.7 13
2 3 9 56.69 51.99
2 3 9 30 11.1
2 3 9 8.9 30.1
-2 3 -9 46.4 42
3 -3 9 54.39 46.3
3 3 9 89.89 17.8
-3 3 -9 91.59 47.5
3 3 9 21.1 41.4
3 3 9 88.49 58.89
4 -3 9 -13.9 33.5
4 3 9 83.29 64.89
4 3 9 33.3 12.5
4 3 9 23.4 37.4
-5 -3 -9 8.9 8.6
5 -3 9 -42.9 35.3
5 3 9 14.1 65.49
5 3 9 26.7 12.5
-5 3 -9 24.2 41.5
5 3 9 57.79 78.29
6 -3 9 128.79 68.39
-6 -3 -9 63.19 16.8
6 3 9 -1.2 64.39
-6 3 -9 36.7 49.1
6 3 9 -10.9 47.4
6 3 9 75.99 17.6
-7 -3 -9 57.99 17.6
7 3 9 45.5 14.6
7 3 9 39.9 62.39
-7 3 -9 80.29 71.29
7 3 9 23.6 56.49
-8 -3 -9 54.89 20.9
8 -3 9 5.2 66.89
8 3 9 61.79 91.19
8 3 9 36.7 14.2
-8 3 -9 -31.9 46.5
9 -3 9 54.79 94.69
-9 3 -9 -18 100.09
9 3 9 -28.6 76.79
-7 -4 9 77.09 19.3
-7 4 9 71.29 16.3
7 4 -9 60.89 101.49
-7 4 9 98.89 16.9
7 4 -9 92.59 18.3
-6 -4 9 11.2 12
6 4 -9 22.4 10.1
-6 4 9 35.7 13.8
6 4 -9 150.08 97.29
-6 4 9 20.3 10.6
-5 -4 9 -5.5 83.59
5 4 -9 37.2 67.29
-5 4 9 55.49 13.9
-4 -4 9 131.49 19.3
-4 -4 9 96.39 98.69
-4 4 9 139.19 47.8
4 4 -9 111.89 82.79
-4 4 9 173.58 21.9
-3 -4 9 -114.89 83.89
3 4 -9 -14.7 71.09
-3 4 9 61.89 45
-2 -4 9 -34.7 55.59
-2 4 9 30.3 12.2
2 4 -9 131.59 92.89
-2 4 9 30.6 42.1
-1 -4 9 220.38 103.19
1 4 -9 560.94 135.19
-1 4 9 469.95 103.89
-1 4 9 385.56 31.6
0 -4 9 132.59 83.89
0 -4 -9 375.26 31.3
0 4 9 355.16 30.7
0 4 9 474.25 120.29
0 4 -9 226.98 89.29
-1 -4 -9 79.69 15.9
1 -4 9 -22.7 60.49
-1 4 -9 114.79 73.19
1 4 9 85.49 19.1
1 4 9 165.88 75.99
-2 -4 -9 45.7 14.2
2 -4 9 94.79 70.99
-2 4 -9 47.1 74.99
2 4 9 -60.09 59.49
2 4 9 36 13.1
-3 -4 -9 163.08 42
3 -4 9 35.9 78.29
3 4 9 91.69 19.7
3 4 9 109.89 87.19
-3 4 -9 144.09 75.89
-4 -4 -9 143.69 25.2
4 -4 9 52.09 79.39
4 4 9 156.28 31.9
4 4 9 86.39 100.39
-4 4 -9 162.28 81.59
5 -4 9 -89.19 71.49
-5 -4 -9 181.88 30.5
5 4 9 114.09 98.99
5 4 9 183.68 24
-5 4 -9 112.29 80.49
6 4 9 154.88 159.18
6 4 9 106.99 21.7
13 0 -10 32.3 69.99
12 0 -10 114.59 50.99
-11 0 10 86.79 18.1
11 0 -10 82.99 43.5
10 0 -10 993.1 107.59
10 0 -10 1126.29 105.29
-10 0 10 1083.59 57.99
-9 0 10 336.37 29.5
9 0 -10 354.66 57.79
-8 0 10 161.48 45
8 0 -10 166.48 49.4
-8 0 10 140.59 19.2
-7 0 10 847.92 45.2
-7 0 10 899.41 89.59
7 0 -10 828.12 84.69
-6 0 10 367.86 28.6
6 0 -10 269.27 56.89
-6 0 10 369.26 57.99
-5 0 10 889.91 43.1
-5 0 10 808.72 41.1
-5 0 10 892.51 88.79
5 0 -10 829.62 84.99
4 0 -10 1211.58 102.89
-4 0 10 1168.58 49.5
-4 0 10 1044.2 47.7
-4 0 10 1019.7 128.89
3 0 -10 715.83 89.89
-3 0 10 719.53 79.59
-3 0 10 725.13 35.9
2 0 -10 659.13 79.09
-2 0 10 803.12 86.59
-2 0 10 784.62 36.6
-1 0 10 1419.76 53.29
-1 0 10 1478.15 122.89
1 0 -10 1320.97 117.29
0 0 -10 721.43 89.09
0 0 10 764.22 35.2
0 0 10 790.12 91.89
0 0 -10 773.12 35.7
1 0 10 408.16 87.19
1 0 10 372.26 22.9
-1 0 -10 313.37 77.79
-1 0 -10 356.06 22.4
2 0 10 196.28 16.6
-2 0 -10 187.68 16.2
2 0 10 245.08 78.69
-2 0 -10 99.89 36.7
-3 0 -10 553.74 109.69
-3 0 -10 442.76 25.5
3 0 10 486.35 104.09
3 0 10 399.56 25
-4 0 -10 540.65 29.8
-4 0 -10 760.12 102.09
4 0 10 571.84 89.89
4 0 10 561.44 30.3
-5 0 -10 62.99 12.3
5 0 10 16.3 26.1
5 0 10 43 11.4
-5 0 -10 4 21.9
6 0 10 249.38 73.89
6 0 10 348.87 24.6
-6 0 -10 302.67 84.79
-6 0 -10 378.26 25.3
7 0 10 367.66 96.49
7 0 10 306.07 24.3
-7 0 -10 353.66 25.3
-7 0 -10 238.18 71.59
-8 0 -10 31.3 34.9
-8 0 -10 19.6 8.9
8 0 10 -24.5 30
8 0 10 5.5 6.8
9 0 10 11.3 37.9
-9 0 -10 49.9 57.19
9 0 10 -2.4 6
-10 0 -10 44.5 66.79
-10 0 -10 3.4 7.6
10 0 10 -49.9 48.6
10 0 10 1.7 6.3
-11 0 -10 21.2 56.69
11 0 10 -16.1 59.39
11 0 10 -0.7 8.5
-11 0 -10 -6.1 6.8
-12 0 -10 8.9 9.1
12 0 10 -56.39 88.99
12 0 10 0.5 8.4
12 1 -10 -11.3 57.09
-12 1 10 -1.7 11.5
-11 -1 10 16.1 11.3
-11 1 10 -5.5 6.8
-10 1 10 16.1 8.9
-10 1 10 8.7 9.7
-9 -1 10 7.7 36.4
9 1 -10 23.9 39.2
-8 1 10 33.3 11.1
-8 1 10 39.7 11.9
8 1 -10 45.4 34.8
-7 -1 10 5.9 6.4
-7 -1 10 6.5 27.6
7 1 -10 -0.1 24.1
-7 1 10 13.6 8.4
-7 1 10 17.5 8.4
6 -1 -10 47.1 14.4
-6 -1 10 7.8 34.1
-6 -1 10 32.9 9.7
6 1 -10 72.49 39.2
-6 1 10 58.99 17.9
-6 1 10 38.7 10.8
5 -1 -10 93.99 27.1
-5 -1 10 73.29 41
-5 -1 10 78.99 13.8
-5 1 10 63.99 22.8
5 1 -10 93.09 39.7
-5 1 10 69.99 14
-5 1 10 54.79 12.4
4 -1 -10 417.66 49.99
-4 -1 10 446.86 28.1
-4 1 10 434.96 28.7
4 1 -10 463.75 95.29
-4 1 10 351.76 46.2
-3 -1 10 342.37 73.29
3 -1 -10 395.56 52.39
-3 -1 10 390.16 25.2
-3 1 10 420.36 27.3
-2 -1 10 226.88 65.19
2 -1 -10 239.38 52.59
2 -1 -10 234.88 19.4
-2 -1 10 218.98 17.6
-2 -1 10 200.48 17.1
-2 1 10 192.38 18.2
2 1 -10 269.77 70.89
-2 1 10 219.38 51.59
-1 -1 10 80.29 40.5
-1 -1 10 170.18 14.7
-1 -1 10 166.98 14.8
1 -1 -10 108.49 37.6
-1 1 10 183.68 46.4
1 1 -10 225.68 70.39
0 -1 -10 537.15 85.09
0 -1 10 504.95 26
0 -1 10 455.95 91.49
0 -1 -10 485.35 29.1
0 1 10 608.54 75.99
0 1 10 564.14 31
0 1 -10 520.95 79.69
-1 -1 -10 818.72 95.19
-1 -1 -10 756.52 37.4
1 -1 10 720.83 32.3
1 -1 10 847.42 104.59
1 1 10 735.73 37
-1 1 -10 750.82 99.29
1 1 10 790.22 93.49
-2 -1 -10 559.64 31.3
2 -1 10 560.94 26.7
-2 -1 -10 447.46 76.49
2 -1 10 493.75 86.09
2 1 10 523.95 85.59
2 1 10 549.05 31.3
-2 1 -10 593.54 90.99
-2 1 -10 555.84 26.9
-3 -1 -10 497.55 29.5
3 -1 10 487.85 24
3 -1 10 470.95 100.79
-3 -1 -10 421.56 91.49
3 1 10 401.86 27.6
3 1 10 517.35 115.29
-3 1 -10 402.26 22.6
-3 1 -10 311.57 75.19
4 -1 10 1992.7 64.49
4 -1 10 2061.49 179.78
-4 -1 -10 2047 73.89
-4 -1 -10 1977.2 171.68
-4 1 -10 1950.01 64.89
4 1 10 1967.1 171.98
-4 1 -10 2020.8 177.88
4 1 10 1882.01 72.39
5 -1 10 1071.69 134.89
-5 -1 -10 1170.98 139.79
-5 -1 -10 1095.49 62.59
5 -1 10 1126.79 44.9
5 1 10 1332.27 148.49
5 1 10 1305.77 55.49
-5 1 -10 1255.77 45.9
-5 1 -10 1333.57 146.49
6 -1 10 228.08 17.7
-6 -1 -10 189.28 20.4
6 -1 10 189.58 65.29
-6 -1 -10 139.69 59.29
-6 1 -10 290.77 19.4
6 1 10 287.17 24.1
-6 1 -10 321.17 89.29
6 1 10 249.28 78.39
-7 -1 -10 993.5 140.39
-7 -1 -10 993.9 49.3
7 -1 10 934.11 39.7
7 -1 10 679.23 189.88
7 1 10 890.31 47.7
7 1 10 967.3 136.09
-7 1 -10 830.42 125.49
-7 1 -10 883.31 39.9
8 -1 10 191.48 74.09
-8 -1 -10 334.77 28.4
-8 -1 -10 308.57 96.09
8 -1 10 338.67 23.2
8 1 10 211.88 69.99
-8 1 -10 290.77 98.79
-8 1 -10 295.57 21.9
8 1 10 300.77 27.1
-9 -1 -10 190.78 22.2
9 -1 10 195.48 18.7
9 -1 10 275.47 97.89
-9 -1 -10 142.09 66.19
9 1 10 402.56 122.09
-9 1 -10 97.89 54.09
9 1 10 183.78 23.2
-9 1 -10 183.48 18.3
-10 -1 -10 77.39 79.29
10 -1 10 241.48 21.3
-10 -1 -10 270.67 32.6
10 -1 10 440.36 133.69
-10 1 -10 276.27 22.6
10 1 10 243.58 27.2
-10 1 -10 164.68 86.69
10 1 10 355.46 111.69
11 -1 10 214.78 21.8
11 -1 10 228.08 103.19
-11 -1 -10 174.18 23.2
-11 1 -10 221.48 87.59
11 1 10 78.89 72.29
-11 1 -10 213.38 21.2
11 1 10 183.68 25.7
12 -1 10 121.59 20.2
12 1 10 39.5 155.18
-12 1 -10 109.39 20.3
12 1 10 124.09 25
11 2 -10 36.9 15.7
-11 2 10 41.5 13.9
-11 2 10 58.09 15.4
-10 -2 10 226.98 28.1
-10 2 10 176.18 22.7
-10 2 10 175.08 23.6
10 2 -10 198.28 31.3
-9 -2 10 199.28 26.1
-9 -2 10 83.59 63.89
-9 2 10 227.88 24.7
9 2 -10 267.27 27.9
-9 2 10 238.08 23.9
-8 -2 10 338.67 30.7
-8 -2 10 362.46 158.48
-8 2 10 344.67 28.5
8 2 -10 235.98 82.29
-8 2 10 369.26 30.2
8 2 -10 390.16 32.1
-7 -2 10 566.34 122.69
-7 2 10 638.34 38.6
7 2 -10 359.06 89.69
-7 2 10 636.64 38.9
-6 -2 10 260.77 24.9
-6 -2 10 201.98 73.49
-6 2 10 335.77 27.2
6 2 -10 198.98 60.99
-6 2 10 291.77 25.3
-5 -2 10 190.48 23.4
-5 -2 10 219.28 77.59
-5 2 10 197.18 21.5
5 2 -10 248.18 79.49
-4 -2 10 271.77 86.29
-4 -2 10 345.97 24.7
-4 2 10 269.87 38.3
4 2 -10 369.86 94.29
-4 2 10 267.67 24
-4 2 10 264.87 36.3
-3 -2 10 1215.28 49.8
-3 -2 10 1181.48 138.39
-3 2 10 1243.28 54.99
-3 2 10 1236.08 93.59
3 2 -10 1201.28 135.39
-3 2 10 1193.18 92.89
-2 -2 10 735.73 109.89
2 -2 -10 669.13 37.9
-2 -2 10 725.53 34.3
-2 2 10 650.73 74.89
-2 2 10 766.42 40
2 2 -10 780.92 110.59
1 -2 -10 298.77 23.8
-1 -2 10 353.86 95.69
-1 -2 10 291.97 19.7
-1 -2 10 300.37 19.6
-1 2 10 354.46 26.2
1 2 -10 324.97 100.19
-1 2 10 346.47 72.99
0 -2 10 421.06 96.59
0 -2 -10 535.65 33.5
0 -2 10 558.24 26.7
0 -2 10 569.24 26.6
0 2 10 575.64 80.49
0 2 10 598.24 34.7
0 2 -10 581.24 98.59
-1 -2 -10 297.17 73.29
1 -2 10 388.16 20.2
-1 -2 -10 461.85 37.1
1 -2 10 411.16 102.09
1 2 10 301.27 69.69
-1 2 -10 434.56 106.29
1 2 10 414.06 28.6
2 -2 10 25.1 35.9
-2 -2 -10 20.7 24.4
-2 -2 -10 4.7 4.7
2 2 10 -10.7 19.3
-2 2 -10 17.6 34.3
3 -2 10 131.19 53.29
-3 -2 -10 220.28 21.7
-3 -2 -10 238.58 77.99
3 2 10 160.18 19.1
-3 2 -10 148.09 57.39
3 2 10 86.19 37
4 -2 10 682.73 107.49
4 2 10 656.83 39.3
4 2 10 725.83 142.79
-4 2 -10 621.54 106.39
5 -2 10 -7.6 35.8
-5 2 -10 47.7 33.9
5 2 10 44.4 13.7
5 2 10 78.59 51.49
6 -2 10 99.59 61.69
6 2 10 232.68 94.79
6 2 10 179.88 22
-6 2 -10 215.78 82.09
-7 -2 -10 47.2 13.6
7 -2 10 72.49 58.59
-7 2 -10 11.4 41.6
7 2 10 83.79 55.99
7 2 10 53.49 14.9
8 -2 10 257.87 101.49
-8 -2 -10 188.98 23.6
8 2 10 100.59 65.19
-8 2 -10 71.89 48
8 2 10 218.48 114.29
8 2 10 200.08 24.5
9 -2 10 105.89 80.89
-9 -2 -10 71.09 17.1
-9 2 -10 97.29 85.79
9 2 10 211.78 101.19
9 2 10 -83.99 55.49
10 2 10 3.1 8.8
-10 2 -10 -42.2 54.89
10 2 10 24.1 86.59
11 2 10 46.9 77.79
11 2 10 -12.9 88.29
-10 3 10 18.4 11.6
-10 3 10 7 10.9
-9 -3 10 19.3 15.8
9 3 -10 9.6 10.6
-9 3 10 5.3 10.2
-9 3 10 12.4 11.1
-8 -3 10 92.99 78.59
-8 -3 10 19.4 21.1
8 3 -10 34.3 13.4
-8 3 10 28.9 12.7
-8 3 10 17.6 9.7
-7 -3 10 2.2 10.1
7 3 -10 -3.9 6.8
-7 3 10 -1.6 8.4
-7 3 10 10.1 8.5
7 3 -10 43.2 64.69
-6 -3 10 86.49 78.89
6 3 -10 8.1 55.49
-6 3 10 48.9 13.8
-6 3 10 26.5 10.6
-5 -3 10 91.09 16.6
-5 -3 10 229.18 80.89
5 3 -10 79.29 60.19
-5 3 10 59.29 15.3
-4 -3 10 -41.8 54.89
-4 -3 10 36.6 21.5
-4 3 10 46.7 25.6
-4 3 10 37.4 23.3
4 3 -10 5.8 45.8
-4 3 10 56.89 14.3
-3 -3 10 85.79 14.2
-3 -3 10 45.7 48.3
3 -3 -10 76.89 15.3
-3 3 10 54.89 14
3 3 -10 -16.4 35.7
-3 3 10 -2.9 26.1
-3 3 10 108.29 44
-2 -3 10 380.46 23.9
2 -3 -10 403.06 30.3
-2 -3 10 209.48 84.59
2 3 -10 205.98 105.09
-2 3 10 399.96 30.2
-2 3 10 425.56 87.59
-1 -3 10 194.78 15.7
1 -3 -10 189.08 21
-1 -3 10 100.59 63.79
-1 -3 10 170.78 15.5
-1 3 10 203.88 22.3
1 3 -10 214.18 84.39
-1 3 10 225.08 70.79
0 -3 -10 55.99 14.2
0 -3 10 68.29 39.3
0 3 -10 24.5 39.4
0 3 10 62.99 42.5
1 -3 10 201.18 81.79
-1 -3 -10 293.37 26.6
-1 3 -10 159.08 69.89
1 3 10 196.28 63.39
1 3 10 233.28 24.1
2 -3 10 407.26 111.59
2 3 10 458.75 109.69
2 3 10 417.56 32.2
-2 3 -10 228.38 85.19
3 -3 10 62.59 48.5
3 3 10 167.68 72.39
-3 3 -10 30.5 36
-4 -3 -10 194.68 23.5
4 -3 10 145.19 56.49
4 3 10 214.68 24.2
4 3 10 205.38 90.39
-4 3 -10 221.28 82.49
-5 -3 -10 235.38 25.5
5 -3 10 139.19 76.79
-5 3 -10 -13.6 89.09
5 3 10 238.38 26.4
5 3 10 169.98 87.99
6 -3 10 55.59 64.89
-6 3 -10 -34.3 58.19
6 3 10 120.79 23.1
6 3 10 52.79 59.09
7 -3 10 207.38 97.09
-7 -3 -10 280.17 30.8
-7 3 -10 128.79 72.79
7 3 10 258.17 116.29
7 3 10 223.98 26.8
8 3 10 -118.49 81.89
8 3 10 35.6 126.49
8 3 10 75.89 19.1
-8 3 -10 41.1 71.29
9 3 10 43.1 104.39
9 3 10 149.39 115.99
-6 -4 10 112.39 21.4
-6 -4 10 -129.19 78.49
-6 4 10 101.69 19.2
-6 4 10 84.39 16.9
6 4 -10 173.18 99.29
5 4 -10 82.79 79.19
-5 4 10 83.69 19.6
-4 -4 10 -30.5 86.59
-4 -4 10 77.49 15.6
-4 4 10 12.3 40.6
4 4 -10 57.09 67.89
-4 4 10 38.4 13.8
-3 -4 10 -58.39 75.99
-3 -4 10 99.79 16.2
3 4 -10 171.38 115.59
-3 4 10 133.19 61.09
-3 4 10 97.69 19.3
-2 -4 10 64.59 95.49
2 -4 -10 136.89 22.7
-2 4 10 116.59 20.5
-2 4 10 11 52.99
2 4 -10 67.49 57.99
-1 -4 10 117.29 91.29
1 -4 -10 86.09 19
-1 4 10 177.48 66.89
-1 4 10 109.49 20.6
1 4 -10 9.8 79.79
0 -4 10 144.79 93.69
0 -4 -10 75.99 17.8
0 4 -10 23.5 72.99
0 4 10 65.79 62.19
0 4 10 56.49 15.8
-1 -4 -10 135.49 23
1 -4 10 185.88 87.89
1 4 10 123.39 22.2
-1 4 -10 159.58 97.89
1 4 10 60.09 71.79
2 -4 10 72.99 67.39
2 4 10 84.99 18
2 4 10 36.5 71.19
-2 4 -10 -4.3 85.49
3 -4 10 129.79 90.29
-3 4 -10 79.09 64.99
3 4 10 3.8 74.39
4 -4 10 -64.59 78.09
-4 -4 -10 51.19 15.5
4 4 10 -61.29 94.39
4 4 10 0.2 11.6
-4 4 -10 8.2 80.09
5 -4 10 -28.7 83.29
5 4 10 14 10.5
12 0 -11 94.19 50.59
-11 0 11 42.4 15.4
11 0 -11 68.59 45.1
-10 0 11 44.7 18.2
-9 0 11 288.17 70.19
-8 0 11 321.77 68.49
8 0 -11 323.97 68.79
7 0 -11 25.7 24.1
-7 0 11 13.4 26.2
-6 0 11 96.89 17.8
6 0 -11 76.49 32.9
-6 0 11 89.69 33.5
-6 0 11 81.39 15.6
-5 0 11 5 18.3
-5 0 11 73.49 14.2
5 0 -11 41.8 27
-4 0 11 23.6 8.6
-4 0 11 18.7 7.9
4 0 -11 2 17.7
-4 0 11 7.6 20.4
-3 0 11 180.38 17.8
-3 0 11 141.99 66.69
3 0 -11 213.38 57.59
-2 0 11 25.2 8
-2 0 11 24.6 23.2
2 0 -11 30 23.6
-1 0 11 31.2 26
1 0 -11 13.6 24.1
-1 0 11 28.8 8
0 0 -11 279.67 20.8
0 0 -11 226.18 58.29
0 0 11 250.27 69.29
0 0 11 275.37 20.6
1 0 11 451.95 95.39
1 0 11 340.97 23.2
-1 0 -11 510.55 101.59
-1 0 -11 363.56 23.7
2 0 11 -31 16.8
2 0 11 0.7 4
-2 0 -11 -24.4 18.6
-2 0 -11 2.4 4.2
3 0 11 1390.16 54.69
3 0 11 1410.96 142.09
-3 0 -11 1435.56 54.99
-3 0 -11 1435.96 145.49
4 0 11 5.7 5.6
-4 0 -11 -12.1 21.1
-4 0 -11 -1.1 3.6
4 0 11 0.5 24.9
5 0 11 560.44 32.1
-5 0 -11 545.95 31.7
-5 0 -11 530.65 90.29
5 0 11 644.74 103.29
6 0 11 1130.39 50.09
-6 0 -11 1116.09 143.59
6 0 11 1155.18 148.29
-6 0 -11 1174.28 50.79
-7 0 -11 923.91 44.8
7 0 11 758.12 128.49
-7 0 -11 1015.1 143.09
-8 0 -11 10.7 44.9
8 0 11 34.5 10.5
-8 0 -11 53.09 12.3
8 0 11 25.2 37.8
9 0 11 143.09 22.9
-9 0 -11 125.89 20.2
-9 0 -11 181.28 83.89
10 0 11 47.2 69.99
-10 0 -11 34.6 60.99
11 0 11 78.19 17.4
-11 0 -11 69.09 17.1
-11 0 -11 39.6 61.49
11 0 11 86.49 92.89
-12 0 -11 94.69 18.8
12 0 11 130.79 30.3
-12 1 11 105.39 23
12 1 -11 77.09 72.69
-11 1 11 170.28 23.5
-11 1 11 176.18 23.8
-10 -1 11 149.29 26.9
-10 1 11 112.19 22.2
-10 1 11 152.08 21.6
-9 -1 11 150.68 25.6
-9 -1 11 109.89 56.09
-9 1 11 204.58 23.9
9 1 -11 70.09 46.9
-9 1 11 168.88 21.9
-8 -1 11 292.97 28.9
8 1 -11 317.47 78.59
-8 1 11 354.86 29.9
-8 1 11 344.27 29.7
-7 -1 11 625.64 39.5
-7 -1 11 618.74 96.39
-7 1 11 601.14 38.2
7 1 -11 562.64 88.09
-7 1 11 541.15 36.8
-6 -1 11 141.69 53.69
6 -1 -11 185.38 34
-6 -1 11 184.18 21
6 1 -11 126.59 52.19
-6 1 11 184.38 21
-6 1 11 151.38 19
-6 1 11 197.08 38.4
-5 -1 11 882.81 114.89
5 -1 -11 884.01 72.99
-5 -1 11 812.02 52.19
-5 1 11 791.22 50.99
-5 1 11 866.41 44.5
-5 1 11 852.01 72.19
5 1 -11 727.53 103.29
-4 -1 11 1665.03 64.39
4 -1 -11 1544.45 107.39
-4 -1 11 1471.15 143.59
-4 1 11 1625.94 65.59
-4 1 11 1676.93 110.39
4 1 -11 1541.45 146.39
-3 -1 11 816.32 171.48
-3 -1 11 577.64 32.5
3 -1 -11 566.24 69.19
-3 -1 11 576.84 32.7
3 1 -11 667.33 93.19
-3 1 11 627.24 35.4
-3 1 11 719.93 75.49
-2 -1 11 880.21 39.3
-2 -1 11 875.51 39.8
2 -1 -11 889.81 88.89
-2 -1 11 900.81 112.19
-2 1 11 809.62 88.09
-2 1 11 813.22 41.3
2 1 -11 507.05 118.89
1 -1 -11 587.84 75.59
1 -1 -11 495.05 30.4
-1 -1 11 488.85 27.4
-1 -1 11 463.75 80.09
1 1 -11 466.45 99.69
-1 1 11 462.35 29.7
-1 1 11 441.76 67.49
0 -1 -11 1223.78 115.89
0 -1 11 1041.3 118.59
0 -1 11 1135.29 44.9
0 -1 -11 1157.28 49.99
0 1 -11 1043.2 120.39
0 1 11 1209.78 122.79
0 1 11 1177.08 50.49
1 -1 11 513.55 89.49
-1 -1 -11 445.86 75.79
1 -1 11 498.75 26.8
-1 -1 -11 517.85 31.1
-1 1 -11 559.24 90.09
1 1 11 539.45 31.6
1 1 11 505.65 79.29
-2 -1 -11 1226.08 127.39
2 -1 11 1235.38 47.5
2 -1 11 1226.38 136.39
-2 -1 -11 1252.57 53.09
2 1 11 1280.17 129.49
-2 1 -11 1335.07 48.7
-2 1 -11 1409.86 143.29
2 1 11 1266.57 54.19
3 -1 11 1750.22 59.99
3 -1 11 1786.32 168.98
-3 -1 -11 1712.83 67.19
-3 -1 -11 1805.12 167.88
-3 1 -11 1992.9 179.08
-3 1 -11 1666.53 59.79
3 1 11 1764.62 68.59
3 1 11 1754.42 163.08
-4 -1 -11 73.29 15.6
4 -1 11 92.09 52.29
4 -1 11 68.29 11.5
4 1 11 44.2 39.7
4 1 11 49.5 12
-4 1 -11 47.8 47.8
-4 1 -11 72.09 12
5 -1 11 613.94 106.59
5 -1 11 691.43 32.6
-5 -1 -11 679.23 154.88
-5 -1 -11 714.73 39.2
5 1 11 680.53 39
-5 1 -11 724.73 110.49
-5 1 -11 664.13 32
5 1 11 417.96 99.19
-6 -1 -11 422.26 30.7
6 -1 11 369.96 23.6
6 -1 11 648.44 137.59
-6 -1 -11 405.16 102.29
6 1 11 394.56 29.8
-6 1 -11 406.56 24.6
-6 1 -11 492.15 128.19
6 1 11 395.86 102.49
-7 -1 -11 32.7 10.9
7 -1 11 36.3 9.4
-7 -1 -11 5.6 44.7
7 -1 11 25.8 42.1
7 1 11 -8.5 34.6
-7 1 -11 41.9 10.2
-7 1 -11 -15.4 34.5
7 1 11 29 10.8
-8 -1 -11 150.58 64.19
8 -1 11 110.59 81.49
-8 -1 -11 195.68 23
8 -1 11 199.28 18.7
8 1 11 236.68 25.3
-8 1 -11 214.38 19.6
-8 1 -11 276.47 86.39
8 1 11 252.87 89.49
-9 -1 -11 279.97 27.1
9 -1 11 275.67 22.2
-9 -1 -11 237.88 89.29
9 -1 11 201.58 128.49
9 1 11 273.67 27.3
-9 1 -11 233.38 24.9
9 1 11 135.09 73.19
-9 1 -11 124.69 75.49
-10 -1 -11 39.2 12
10 -1 11 65.59 13.8
10 -1 11 56.59 74.89
-10 -1 -11 -19.5 57.59
-10 1 -11 49.4 12.3
-10 1 -11 106.89 87.59
10 1 11 -38.7 50.79
10 1 11 53.49 17.5
11 -1 11 -66.39 69.59
-11 -1 -11 82.69 28.2
11 -1 11 66.39 14.2
11 1 11 -76.59 51.99
11 1 11 83.39 20.7
-11 2 11 88.69 19.5
-11 2 11 96.49 21.1
-10 -2 11 41.3 16.7
-10 2 11 43.5 14.7
-10 2 11 89.89 19.4
-9 -2 11 59.69 15.9
-9 2 11 50.19 14.2
-9 2 11 61.89 14.5
-8 -2 11 70.59 58.19
-8 -2 11 49.6 15.5
-8 2 11 27.2 11.5
8 2 -11 47.1 46.2
-8 2 11 38.3 10.9
-7 2 11 -5.6 5.9
7 2 -11 9.7 47.2
-7 2 11 6.3 6.3
-6 -2 11 73.19 44.7
-6 -2 11 122.39 20
-6 2 11 101.69 17.8
-6 2 11 136.99 18.9
6 2 -11 92.59 46.8
-5 -2 11 245.38 79.39
-5 -2 11 183.68 20.3
-5 2 11 191.58 21.3
5 2 -11 297.37 87.09
-4 -2 11 151.18 17.1
-4 -2 11 63.19 49
-4 2 11 158.08 40.1
4 2 -11 135.69 59.89
-4 2 11 144.39 18.4
-4 2 11 140.29 36.6
-3 -2 11 67.49 13.6
-3 -2 11 50.29 36.9
-3 2 11 52.99 13.9
-3 2 11 35.7 30
3 2 -11 -13.7 28.8
-2 -2 11 124.49 14.6
-2 -2 11 90.39 12.7
2 -2 -11 59.89 15.1
-2 -2 11 126.19 58.19
-2 2 11 87.69 36.9
-2 2 11 82.59 21.8
2 2 -11 54.79 43.3
-1 -2 11 23.6 7.8
1 -2 -11 21 8.9
-1 -2 11 30.8 8.7
1 -2 -11 28.7 23.9
-1 -2 11 47 44.5
1 2 -11 19.8 40.9
-1 2 11 39.6 27.2
0 -2 11 40.8 8.8
0 -2 11 -16.4 48.7
0 -2 11 29.3 8
0 -2 -11 29 26.3
0 -2 -11 54.79 13.5
0 2 -11 11.5 44.4
0 2 11 20.3 26.2
0 2 11 24.9 9.6
1 -2 11 174.38 14.1
1 -2 11 168.28 13.8
-1 -2 -11 101.99 43.6
1 -2 11 150.08 66.59
-1 -2 -11 185.88 20.2
1 2 11 218.28 68.49
-1 2 -11 201.08 71.59
1 2 11 196.38 20.8
2 -2 11 19.5 6.3
2 -2 11 47.3 58.29
2 -2 11 23.4 6.4
-2 -2 -11 20.1 8.3
-2 -2 -11 20.4 24.2
-2 2 -11 155.38 65.29
2 2 11 18.2 9.9
2 2 11 38.9 32.9
-3 -2 -11 130.69 57.49
3 -2 11 209.68 76.29
3 2 11 185.78 20.9
-3 2 -11 195.18 93.59
3 2 11 101.09 43.8
-4 -2 -11 216.18 71.89
4 -2 11 198.38 64.79
4 2 11 249.08 24.5
-4 2 -11 100.19 47.3
4 2 11 206.08 64.79
-5 -2 -11 47.3 46.1
5 -2 11 39.5 53.59
5 2 11 91.29 17.9
-5 2 -11 83.09 44.7
5 2 11 72.19 53.69
6 -2 11 197.98 108.39
6 2 11 49.4 66.59
6 2 11 59.59 15.1
-6 2 -11 7.7 44.6
-7 -2 -11 45.2 14.4
7 -2 11 48.2 61.79
-7 2 -11 39.1 62.79
7 2 11 40.8 16.1
7 2 11 24.2 46.6
8 -2 11 -7.1 68.79
-8 -2 -11 131.19 23.4
8 2 11 15.6 46.8
8 2 11 148.09 25.3
-8 2 -11 150.38 83.59
-9 -2 -11 292.27 31.6
9 -2 11 248.18 99.59
9 2 11 280.27 97.69
-9 2 -11 393.96 140.29
9 2 11 111.09 75.39
9 2 11 263.87 29.5
10 -2 11 90.79 107.79
10 2 11 140.69 25.9
10 2 11 127.09 93.69
10 2 11 105.79 81.99
-9 3 11 44.4 17
-9 3 11 55.59 15.8
-8 -3 11 159.08 25.8
-8 3 11 174.08 22.4
-8 3 11 128.69 22.1
-7 -3 11 146.09 81.59
-7 3 11 248.58 26.2
-7 3 11 227.88 25.8
7 3 -11 147.79 73.89
6 3 -11 173.78 96.09
-6 3 11 117.29 21.2
-5 -3 11 389.66 30.1
-5 -3 11 228.28 91.29
-5 3 11 377.86 30.6
5 3 -11 376.76 115.99
-4 -3 11 269.17 89.19
-4 -3 11 273.67 23.6
-4 3 11 202.28 38.8
-4 3 11 185.68 46
4 3 -11 103.59 49.5
-4 3 11 184.18 22.7
-3 -3 11 205.28 77.39
-3 -3 11 116.99 17.9
-3 3 11 110.59 20.2
3 3 -11 35.4 48.7
-3 3 11 140.39 44
-3 3 11 129.09 44.9
-2 -3 11 651.23 33.2
-2 -3 11 662.53 33.3
2 -3 -11 586.04 46.6
2 3 -11 400.06 102.79
-2 3 11 555.94 89.89
-2 3 11 614.34 82.89
-2 3 11 696.83 41.6
-1 -3 11 276.87 19.2
-1 -3 11 237.38 82.49
-1 -3 11 233.28 18.1
-1 3 11 386.96 94.49
1 3 -11 268.57 105.89
-1 3 11 197.08 23.3
0 -3 11 196.68 82.09
0 3 -11 249.08 85.19
0 3 11 334.87 83.09
0 3 11 390.16 31.2
1 -3 11 296.47 107.09
1 3 11 335.37 102.39
-1 3 -11 189.28 73.29
1 3 11 352.76 29.7
-2 -3 -11 101.29 18.8
2 -3 11 105.69 67.59
-2 3 -11 68.59 62.39
2 3 11 91.49 17.7
2 3 11 71.29 49.99
2 3 11 143.29 81.89
3 -3 11 303.67 106.39
-3 -3 -11 426.26 33.1
3 3 11 427.16 127.89
3 3 11 171.78 70.19
3 3 11 323.87 29.8
-4 -3 -11 242.48 26.5
4 -3 11 217.08 83.29
4 3 11 243.78 27
-4 3 -11 153.08 70.59
4 3 11 128.09 95.09
4 3 11 144.49 73.89
5 -3 11 110.29 79.39
-5 -3 -11 123.79 27.9
5 3 11 42.2 64.29
5 3 11 152.28 25.8
5 3 11 -9.1 77.49
-5 3 -11 83.09 64.19
6 -3 11 51.09 70.49
-6 -3 -11 46.9 14.9
6 3 11 23.4 18.4
6 3 11 -1.3 58.19
-6 3 -11 69.89 62.69
6 3 11 53.19 51.09
7 -3 11 49.6 76.69
7 3 11 49 63.89
7 3 11 90.49 19.6
7 3 11 13.4 47.5
-7 3 -11 89.99 65.49
8 -3 11 24.3 86.89
8 3 11 37.5 96.79
8 3 11 254.27 166.58
-5 -4 11 0.1 97.59
-5 -4 11 22.3 13.1
-5 4 11 -5.5 10.2
5 4 -11 3.4 93.69
-4 -4 11 -45.9 76.09
-4 -4 11 16.2 11.5
4 4 -11 -47.7 73.89
-4 4 11 -7 10.1
-4 4 11 6.4 40.1
-3 -4 11 153.48 116.19
-3 -4 11 16.4 11.4
-3 4 11 -23.7 42.2
3 4 -11 -39.8 61.49
-3 4 11 27.1 12.6
-2 -4 11 47.2 89.09
2 -4 -11 23.6 11.3
-2 4 11 -68.69 62.49
2 4 -11 -88.89 61.19
-1 -4 11 13.7 91.79
-1 4 11 34 58.29
1 4 -11 47.8 75.19
-1 4 11 13.7 11.8
0 -4 11 2.4 71.19
0 -4 -11 20.7 14.3
0 4 11 11.5 9.3
0 4 11 41.4 67.19
0 4 -11 0.1 73.29
-1 -4 -11 49.5 16.8
1 -4 11 1.1 80.99
1 4 11 54.29 75.79
-1 4 -11 -43.7 64.29
1 4 11 31.5 10.7
2 -4 11 146.99 92.79
2 4 11 67.79 67.29
-2 4 -11 -4.7 73.69
-3 -4 -11 51.19 16.5
3 -4 11 -99.99 56.19
-3 4 -11 32 64.49
3 4 11 -6.1 76.79
3 4 11 50.59 14.3
4 -4 11 -0.6 89.19
4 4 11 21.8 13.4
11 0 -12 13.2 43.6
-10 0 12 33.8 13.4
-9 0 12 -6.9 38.1
-9 0 12 27.2 10.7
9 0 -12 13.3 31.7
8 0 -12 128.59 45.4
-8 0 12 52.59 71.09
7 0 -12 56.89 31.9
-7 0 12 144.99 23.8
6 0 -12 574.04 76.69
-6 0 12 525.65 35.5
5 0 -12 170.38 51.49
-5 0 12 252.17 62.79
-5 0 12 266.87 23.9
-5 0 12 231.18 22.5
-4 0 12 431.06 29.3
-4 0 12 353.26 77.79
4 0 -12 436.96 68.19
3 0 -12 1219.68 117.39
-3 0 12 1302.47 55.09
-3 0 12 1268.17 121.99
-2 0 12 452.35 91.39
2 0 -12 498.25 99.99
-2 0 12 357.76 25.9
-1 0 12 646.94 92.19
1 0 -12 727.93 95.19
-1 0 12 657.63 35.3
0 0 -12 752.52 37.6
0 0 12 748.43 99.99
0 0 -12 805.02 100.99
0 0 12 709.63 36.9
1 0 12 581.34 91.09
-1 0 -12 512.45 30.4
-1 0 -12 644.34 107.49
1 0 12 549.15 31
-2 0 -12 651.93 34.4
-2 0 -12 549.95 90.29
2 0 12 627.14 96.79
2 0 12 639.34 34
-3 0 -12 2066.49 74.09
3 0 12 2064.29 73.89
-3 0 -12 2132.49 184.68
3 0 12 2070.59 180.78
4 0 12 910.41 126.29
-4 0 -12 834.52 40.5
-4 0 -12 760.12 117.99
4 0 12 863.31 42.2
5 0 12 138.49 16.9
-5 0 -12 138.79 16.2
5 0 12 120.49 69.09
-5 0 -12 126.39 63.29
6 0 12 352.86 31.3
-6 0 -12 332.37 25.6
-6 0 -12 429.46 115.29
6 0 12 367.36 103.79
7 0 12 308.97 117.19
-7 0 -12 296.27 24.8
-7 0 -12 429.56 128.99
7 0 12 302.57 25.3
-8 0 -12 534.05 135.19
-8 0 -12 512.95 33.8
8 0 12 525.85 141.89
8 0 12 489.45 33.8
-9 0 -12 165.98 79.09
9 0 12 245.78 117.39
-9 0 -12 316.57 27.7
9 0 12 290.07 26.5
10 0 12 209.98 113.39
-10 0 -12 134.79 87.89
10 0 12 188.08 22.7
-10 0 -12 168.78 25.2
11 0 12 25.5 11.5
-11 0 -12 -40.1 75.69
-11 0 -12 44.5 14.9
11 0 12 49.8 107.69
12 1 -12 118.59 82.29
-11 1 12 185.68 40.2
-11 1 12 200.18 26.6
-10 -1 12 137.99 25.9
-10 1 12 164.88 22.9
-10 1 12 120.49 21
-9 -1 12 230.78 32.7
-9 -1 12 271.37 113.19
-9 1 12 232.08 26.1
-9 1 12 201.88 24
-8 -1 12 103.89 56.09
-8 -1 12 238.68 26
8 1 -12 193.38 63.79
-8 1 12 219.58 24.4
-8 1 12 227.48 25.3
7 -1 -12 383.06 40.3
-7 1 12 403.86 42
-7 1 12 412.46 32.3
-7 1 12 415.16 32.5
-6 -1 12 207.58 63.89
-6 -1 12 308.47 26.9
6 -1 -12 314.97 43.5
-6 1 12 263.07 42.4
-6 1 12 373.56 29.7
-6 1 12 391.56 30.1
6 1 -12 364.86 91.89
-5 -1 12 285.67 24.7
-5 -1 12 378.36 90.99
-5 1 12 235.58 50.39
-5 1 12 182.98 20.4
5 1 -12 282.37 76.89
-5 1 12 212.28 22.8
-4 -1 12 1209.18 52.79
-4 -1 12 1355.56 140.09
-4 -1 12 1178.28 60.89
4 -1 -12 1306.87 103.29
-4 1 12 1133.69 53.89
-4 1 12 1063.29 94.19
4 1 -12 979.9 121.19
-3 -1 12 296.37 23.9
3 -1 -12 269.37 59.89
-3 -1 12 430.66 96.49
-3 -1 12 303.77 23.7
-3 1 12 409.96 60.79
3 1 -12 429.66 103.69
-3 1 12 354.96 31
-2 -1 12 205.28 97.49
2 -1 -12 175.88 45.4
-2 -1 12 238.28 19.9
-2 -1 12 235.28 20.3
-2 1 12 261.97 22.8
2 1 -12 343.47 90.99
-2 1 12 423.26 64.09
-1 -1 12 191.38 60.69
-1 -1 12 275.97 20.7
1 -1 -12 235.88 22
1 -1 -12 310.17 71.79
-1 1 12 277.97 68.79
1 1 -12 361.86 91.69
-1 1 12 280.27 23.8
0 -1 12 48.7 10.6
0 -1 -12 32.6 33.7
0 -1 12 42.8 37.8
0 -1 -12 49.6 11.7
0 1 12 68.59 15
0 1 -12 13.7 25.3
0 1 12 34.5 29
1 -1 12 67.29 11.9
-1 -1 -12 49.2 31.5
-1 -1 -12 75.29 15.7
1 -1 12 35.3 45
-1 1 -12 32.3 37
1 1 12 87.59 44.1
1 1 12 45.8 11.5
-2 -1 -12 11.2 27.2
2 -1 12 51.09 10.8
2 -1 12 36.5 32.2
2 1 12 45.5 35.9
-2 1 -12 65.49 44
2 1 12 50.29 12.9
3 -1 12 166.98 70.99
-3 -1 -12 105.79 55.39
3 -1 12 113.59 15.9
-3 -1 -12 78.49 14.3
3 1 12 111.69 54.89
-3 1 -12 111.69 13.1
-3 1 -12 95.29 55.59
4 -1 12 133.99 14.2
4 -1 12 145.19 73.89
-4 -1 -12 150.28 17.9
-4 -1 -12 88.19 47.8
-4 1 -12 148.79 69.89
-4 1 -12 122.09 13.6
4 1 12 128.09 17.1
5 -1 12 69.19 44
-5 -1 -12 16 8.9
-5 -1 -12 6.3 32.5
5 -1 12 7.8 6
-5 1 -12 11.9 6.6
5 1 12 8 7.7
-5 1 -12 -20.9 26.2
5 1 12 16.1 44.5
-6 -1 -12 47.9 43.9
-6 -1 -12 165.08 19.9
6 -1 12 217.08 89.09
6 -1 12 140.79 15.4
-6 1 -12 229.08 79.79
6 1 12 116.69 66.19
6 1 12 156.48 20.1
-6 1 -12 160.88 16.2
-7 -1 -12 3.9 6.8
7 -1 12 63.89 68.69
7 -1 12 26.6 9
-7 -1 -12 46.4 51.29
-7 1 -12 21.6 46
7 1 12 21.4 10.7
7 1 12 8 41.3
-7 1 -12 27.6 8.9
8 -1 12 179.38 96.59
-8 -1 -12 19.4 49.7
8 -1 12 33.3 10.3
-8 -1 -12 43.6 13.9
-8 1 -12 -1.6 45.3
8 1 12 44.7 13.8
-8 1 -12 70.79 14.1
8 1 12 97.09 61.09
-9 -1 -12 43.3 45.4
-9 -1 -12 53.69 20.7
9 -1 12 37.7 10.6
9 -1 12 45.1 72.79
-9 1 -12 56.69 77.29
9 1 12 34 13.2
9 1 12 72.59 98.69
-9 1 -12 54.89 12.2
-10 -1 -12 28.7 11.9
-10 -1 -12 -107.09 62.09
10 -1 12 20.7 10
10 -1 12 10.2 74.49
-10 1 -12 -53.09 62.59
-10 1 -12 16.4 9.3
10 1 12 15.8 11.4
10 1 12 114.89 86.49
11 -1 12 59.49 14.3
-11 -1 -12 60.39 97.89
-11 1 -12 55.29 14.5
11 1 12 222.88 195.28
11 1 12 38.2 14.4
-11 2 12 1.6 10.6
-10 2 12 48 14.7
-10 2 12 29.4 15.9
-9 -2 12 62.49 17.1
-9 2 12 67.09 18
-8 -2 12 -58.69 45.3
-8 -2 12 -2 7.5
-8 2 12 8.9 9.8
-8 2 12 19.1 8.5
-7 -2 12 12.6 47.7
-7 -2 12 65.99 17.2
-7 2 12 34.1 13
-7 2 12 38.2 12.2
7 2 -12 -37.4 33.1
6 2 -12 290.57 75.79
-6 2 12 402.06 32.1
-6 2 12 410.26 32
-5 -2 12 187.08 65.89
-5 -2 12 250.87 24.2
-5 2 12 280.17 26.8
5 2 -12 281.77 80.79
-4 -2 12 355.26 26.7
-4 -2 12 387.46 103.79
4 2 -12 264.07 68.09
-4 2 12 340.47 49.4
-4 2 12 301.07 57.49
-4 2 12 291.17 27.2
-3 -2 12 257.47 21.5
-3 -2 12 284.07 23.2
-3 -2 12 371.96 95.89
-3 2 12 251.97 55.19
3 2 -12 172.68 62.89
-3 2 12 261.47 25.4
-2 -2 12 310.07 22.5
-2 -2 12 319.37 96.29
2 -2 -12 273.07 68.99
2 -2 -12 257.37 24.5
-2 -2 12 280.07 22
-2 2 12 355.06 28.6
2 2 -12 388.36 107.39
1 -2 -12 558.94 85.09
-1 -2 12 626.84 31.9
-1 -2 12 616.34 31.8
-1 -2 12 549.15 126.49
1 -2 -12 628.04 38.4
-1 2 12 583.34 37.5
1 2 -12 647.74 110.69
0 -2 -12 538.25 35.5
0 -2 12 559.64 123.79
0 -2 12 567.74 28.8
0 -2 -12 526.95 88.19
0 -2 12 518.95 27.7
0 2 12 520.65 35.1
0 2 12 463.35 95.19
0 2 -12 515.85 122.29
1 -2 12 647.24 30.2
1 -2 12 738.33 148.59
1 -2 12 615.74 29.4
-1 -2 -12 629.84 38.9
-1 -2 -12 658.63 98.09
-1 2 -12 634.74 134.59
1 2 12 598.54 38
1 2 12 529.75 88.79
-2 -2 -12 517.65 114.39
2 -2 12 569.14 26.7
2 -2 12 677.23 137.19
2 -2 12 576.24 26.7
2 2 12 478.75 108.89
-2 2 -12 375.66 97.49
2 2 12 457.55 34.2
3 -2 12 548.95 127.69
-3 -2 -12 394.56 103.69
3 2 12 274.07 81.39
-3 2 -12 227.38 86.19
3 2 12 306.47 27.4
4 -2 12 376.76 100.09
-4 -2 -12 346.87 99.89
4 2 12 426.86 114.89
4 2 12 424.66 33
-4 2 -12 636.74 141.39
5 -2 12 356.96 115.09
-5 -2 -12 275.07 94.19
5 2 12 347.97 30.8
5 2 12 294.57 99.79
-5 2 -12 402.36 119.79
-6 -2 -12 300.97 28.1
6 -2 12 292.07 99.19
-6 2 -12 232.68 89.99
6 2 12 306.37 28.6
7 -2 12 339.07 115.79
-7 2 -12 223.68 78.59
7 2 12 388.76 34.3
7 2 12 506.55 138.69
8 -2 12 203.18 108.49
-8 -2 -12 284.97 29.9
8 2 12 134.49 74.09
-8 2 -12 124.29 84.29
8 2 12 200.98 35.7
9 -2 12 -9.6 84.69
9 2 12 82.39 115.99
9 2 12 7.5 10.5
-9 2 -12 163.48 99.59
9 2 12 37.2 76.69
10 2 12 289.17 173.38
10 2 12 67.89 99.39
-9 3 12 100.79 21.4
-9 3 12 72.29 17.8
-8 -3 12 51.09 17.4
-8 3 12 50.49 15.6
-8 3 12 41.1 14.4
-7 -3 12 165.58 85.99
-7 -3 12 136.59 23.4
-7 3 12 116.39 21.6
-7 3 12 99.99 19
-6 -3 12 128.99 22.5
-6 -3 12 53.49 65.99
-6 3 12 82.59 18.4
6 3 -12 26.7 51.79
-5 -3 12 56.19 16.8
5 3 -12 113.19 57.89
-5 3 12 68.19 16.8
-4 -3 12 231.68 22.3
-4 -3 12 87.39 71.69
-4 3 12 245.98 25.8
-4 3 12 232.08 48.4
4 3 -12 101.09 69.49
-4 3 12 156.28 45.4
-3 -3 12 39.9 60.09
-3 -3 12 60.09 13.3
-3 3 12 70.39 15.8
3 3 -12 48.6 53.49
-3 3 12 76.69 41.3
-3 3 12 67.89 38.7
-2 -3 12 55.19 12
-2 -3 12 57.99 12.3
-2 -3 12 13.1 66.19
2 3 -12 13.7 44.3
-2 3 12 108.89 52.49
-2 3 12 38.6 12.7
-2 3 12 5.6 34.4
-1 -3 12 46.6 10.8
1 -3 -12 44.7 14.2
-1 -3 12 67.59 68.79
-1 -3 12 32.9 8.8
-1 3 12 52.09 14.4
1 3 -12 -13.5 40.3
-1 3 12 4.9 40.7
0 -3 -12 64.19 14.8
0 -3 12 64.09 63.89
0 3 -12 113.89 99.29
0 3 12 196.18 68.69
0 3 12 62.59 34.4
0 3 12 121.79 21.8
-1 -3 -12 54.39 16.1
1 -3 12 58.79 98.99
1 3 12 57.19 17.5
1 3 12 105.49 59.89
-2 -3 -12 0.2 7.8
2 3 12 1 8.2
-2 3 -12 -28.4 54.69
2 3 12 8.8 42.8
3 -3 12 73.09 68.09
-3 -3 -12 0.6 9.2
3 3 12 2 56.69
3 3 12 14.2 48.1
3 3 12 19.2 10.8
-3 3 -12 -62.99 50.09
-4 -3 -12 -7.6 7
4 -3 12 74.89 75.19
4 3 12 6.4 39.9
-4 3 -12 67.89 69.79
4 3 12 6.1 9.3
5 -3 12 -88.99 48.8
-5 -3 -12 -4.5 8.9
-5 3 -12 -92.69 47.9
5 3 12 -27.4 36.9
5 3 12 -56.09 56.89
5 3 12 0.7 14.9
-6 -3 -12 10.5 11.1
6 3 12 15.4 48.9
6 3 12 3.7 59.59
6 3 12 9.7 10.8
-6 3 -12 -13.1 64.59
7 -3 12 -15.9 76.39
7 3 12 -5.9 63.29
7 3 12 24.5 13.1
-7 3 -12 -50.89 65.29
7 3 12 6.5 55.29
8 3 12 130.19 87.29
8 3 12 -6.3 97.99
-5 -4 12 -12.4 12.8
-5 -4 12 -8.3 112.69
5 4 -12 -88.09 84.19
-5 4 12 3.4 9.8
-4 4 12 56.29 16.5
4 4 -12 105.49 144.59
-4 4 12 18.5 49.6
-3 -4 12 206.58 22.9
-3 -4 12 169.38 102.09
3 4 -12 -28.5 84.79
-3 4 12 221.18 76.99
-3 4 12 184.98 26.1
2 -4 -12 108.69 22.5
-2 -4 12 4.4 94.69
-2 4 12 132.79 23.8
2 4 -12 146.79 99.09
-2 4 12 186.68 78.19
-1 -4 12 103.69 104.09
1 4 -12 83.69 93.69
-1 4 12 115.09 72.59
0 -4 -12 78.79 19.6
0 -4 12 57.79 100.69
0 4 12 40.4 70.89
0 4 12 68.89 28.7
0 4 -12 157.08 98.29
1 -4 12 225.08 125.99
-1 -4 -12 215.18 26.6
-1 4 -12 45.8 65.09
1 4 12 213.68 26
1 4 12 215.28 110.39
-2 -4 -12 83.59 26.5
2 -4 12 -86.69 92.89
-2 4 -12 185.58 97.29
2 4 12 68.49 18.4
3 -4 12 62.49 90.29
3 4 12 47.1 15.4
-3 4 -12 -64.39 119.19
11 0 -13 19.3 47.6
-10 0 13 156.68 26.9
-9 0 13 208.48 29
-9 0 13 134.79 23.2
-8 0 13 497.35 36.9
8 0 -13 486.05 70.09
-8 0 13 426.06 87.59
-7 0 13 31.8 12.7
7 0 -13 30.4 29.3
6 0 -13 597.84 83.39
-6 0 13 582.74 38.6
-5 0 13 3973.2 128.69
5 0 -13 3818.52 219.68
-4 0 13 99.59 18.2
4 0 -13 110.39 39.2
-4 0 13 79.59 16.2
-4 0 13 119.69 44.7
3 0 -13 28.5 28.1
-3 0 13 1.1 8.7
-3 0 13 16.9 28.1
-2 0 13 868.31 104.49
2 0 -13 962.2 112.79
-2 0 13 871.31 43.7
-1 0 13 592.94 90.29
1 0 -13 649.34 94.29
-1 0 13 704.13 37.6
0 0 -13 412.26 89.39
0 0 -13 317.27 24.6
0 0 13 442.26 100.69
0 0 13 358.46 26.1
1 0 13 838.32 41.5
1 0 13 615.14 148.09
-1 0 -13 878.01 42.5
-1 0 -13 849.81 112.49
2 0 13 289.57 23.3
-2 0 -13 250.77 21.5
-2 0 -13 202.78 62.69
2 0 13 269.27 72.19
3 0 13 361.06 26.3
-3 0 -13 462.75 112.79
3 0 13 442.26 125.19
-3 0 -13 374.66 26.8
4 0 13 612.04 136.39
-4 0 -13 426.76 31.1
4 0 13 436.36 29.9
5 0 13 -2.6 40.9
-5 0 -13 17.4 8.1
-5 0 -13 62.39 41
-6 0 -13 76.59 16.3
6 0 13 30 64.79
6 0 13 57.09 13.6
-6 0 -13 32.3 52.99
7 0 13 -50.19 50.49
-7 0 -13 5.1 35.7
7 0 13 20.1 9.5
-7 0 -13 -5.1 5.4
-8 0 -13 117.29 21.5
-8 0 -13 75.39 55.69
8 0 13 85.69 18.4
8 0 13 105.89 77.79
-9 0 -13 59.79 67.39
-9 0 -13 63.09 16.5
9 0 13 46.8 13.2
10 0 13 -23.8 84.09
-10 0 -13 14.3 67.19
-10 0 -13 -4.7 7.6
10 0 13 13 9.1
11 0 13 -60.39 151.58
-11 0 -13 27.1 13.6
-11 1 13 40.4 14.3
-10 1 13 25 13
-10 1 13 7.7 10.1
-9 -1 13 19.4 12.2
-9 1 13 25.4 12.2
-9 1 13 28.6 13.3
-8 -1 13 8.8 34.2
-8 -1 13 24.6 11.8
8 1 -13 7.1 51.69
-8 1 13 3.7 8.9
-8 1 13 26.6 11.2
-7 -1 13 280.67 27.3
-7 -1 13 238.18 74.29
7 1 -13 177.08 61.99
-7 1 13 265.27 27.3
-7 1 13 297.57 28.3
-7 1 13 290.77 43.9
6 -1 -13 81.49 31.3
-6 1 13 85.79 30.2
6 1 -13 9.9 40.8
-6 1 13 85.39 18.8
-6 1 13 58.59 14.1
-5 -1 13 49.7 43.3
-5 -1 13 85.09 17.6
-5 -1 13 107.29 19.2
5 -1 -13 62.89 27.9
-5 1 13 45.6 13.3
-5 1 13 63.89 35.4
-5 1 13 64.09 15
5 1 -13 60.49 39.5
-4 -1 13 329.37 26.1
-4 -1 13 187.48 67.49
-4 -1 13 288.17 24.9
4 -1 -13 258.67 58.09
-4 1 13 219.68 23.1
-4 1 13 277.57 65.69
4 1 -13 335.17 89.19
-3 -1 13 125.19 52.79
-3 -1 13 91.19 18.9
-3 -1 13 67.89 13.5
3 -1 -13 85.19 37.9
-3 1 13 131.49 21.7
3 1 -13 63.19 42.4
2 -1 -13 182.78 55.29
-2 -1 13 228.88 20.8
-2 -1 13 232.58 20.7
-2 -1 13 292.67 87.19
2 1 -13 358.36 94.69
-2 1 13 283.77 71.89
-2 1 13 253.97 23.6
-1 -1 13 1075.79 158.18
-1 -1 13 667.93 35.2
1 -1 -13 695.23 90.79
1 -1 -13 637.54 38.1
-1 1 13 686.23 39.7
1 1 -13 640.54 105.49
-1 1 13 662.63 92.59
0 -1 -13 293.67 24.4
0 -1 13 480.85 123.89
0 -1 13 274.87 21.6
0 -1 -13 282.17 78.49
0 1 13 261.27 23.8
0 1 -13 332.37 91.39
1 -1 13 405.76 26
-1 -1 -13 407.76 29.4
-1 -1 -13 294.17 83.69
1 -1 13 344.47 97.99
1 1 13 397.26 29.3
-1 1 -13 325.37 144.39
1 1 13 542.35 111.59
2 -1 13 823.52 126.49
2 -1 13 855.31 39.1
-2 -1 -13 832.52 44
-2 -1 -13 734.03 109.29
2 1 13 783.82 112.99
2 1 13 797.92 43.5
-2 1 -13 740.13 118.19
3 -1 13 226.68 83.49
3 -1 13 120.69 14.5
-3 -1 -13 126.89 20.4
-3 -1 -13 102.89 53.39
3 1 13 116.99 20.9
3 1 13 94.39 51.99
-3 1 -13 97.39 48.9
-3 1 -13 109.29 16.7
-4 -1 -13 176.18 20.3
-4 -1 -13 145.19 72.49
4 -1 13 161.38 70.69
4 -1 13 159.48 16.6
4 1 13 177.08 20.8
-4 1 -13 230.18 18.7
-4 1 -13 278.97 94.89
4 1 13 172.58 87.29
-5 -1 -13 209.98 22.4
5 -1 13 210.78 82.09
-5 -1 -13 135.79 61.59
5 -1 13 221.78 19.4
-5 1 -13 227.78 19.5
5 1 13 227.08 23.8
-5 1 -13 281.87 99.19
5 1 13 223.98 78.29
-6 -1 -13 573.14 37.7
6 -1 13 544.35 30.7
6 -1 13 703.03 171.08
-6 -1 -13 640.14 148.59
-6 1 -13 307.67 85.89
-6 1 -13 539.45 31.4
6 1 13 555.34 38.4
7 -1 13 309.47 23.5
7 -1 13 202.18 102.19
-7 -1 -13 301.17 98.49
-7 -1 -13 329.07 29.2
7 1 13 406.46 122.39
-7 1 -13 320.57 24
-7 1 -13 255.67 90.99
7 1 13 339.77 29.5
8 -1 13 215.38 123.99
-8 -1 -13 130.29 18.5
-8 -1 -13 206.98 102.39
-8 1 -13 110.59 17.9
8 1 13 108.19 22.2
8 1 13 26.1 67.09
-8 1 -13 119.69 80.29
9 -1 13 415.36 28.9
9 -1 13 917.61 201.38
-9 -1 -13 420.46 34.4
-9 -1 -13 312.67 109.49
9 1 13 443.86 36.5
-9 1 -13 427.56 29.4
-9 1 -13 336.57 128.79
10 -1 13 123.09 20.2
-10 -1 -13 117.19 67.99
10 -1 13 52.59 119.29
10 1 13 124.79 23.4
-10 1 -13 45.8 104.69
-10 1 -13 144.39 19
10 1 13 143.99 121.59
-10 2 13 199.38 26.4
-9 -2 13 65.29 16.8
-9 2 13 30.1 13.7
-8 -2 13 356.66 33.1
-8 2 13 310.57 42.8
-8 2 13 286.27 29.7
-7 -2 13 191.18 76.69
-7 -2 13 327.87 31
-7 2 13 298.27 29.2
7 2 -13 204.18 81.59
-7 2 13 322.97 29.8
-6 -2 13 53.59 66.59
6 2 -13 128.09 65.19
-6 2 13 143.09 19.9
-6 2 13 104.09 20.5
-5 -2 13 410.66 30.9
-5 -2 13 451.25 145.49
-5 2 13 416.16 48.9
5 2 -13 264.17 72.69
-5 2 13 362.06 43.4
-5 2 13 366.06 31.3
-4 -2 13 363.26 27.6
-4 -2 13 340.07 27.6
-4 -2 13 298.67 95.79
4 2 -13 362.36 95.39
-4 2 13 380.46 31.7
-4 2 13 336.07 55.69
-3 -2 13 640.54 36.5
-3 -2 13 677.93 141.79
3 2 -13 782.22 155.38
-3 2 13 630.44 40.7
-3 2 13 592.14 79.09
2 -2 -13 507.65 36.4
-2 -2 13 512.85 30.4
2 -2 -13 455.05 78.09
-2 -2 13 537.75 131.09
-2 -2 13 509.15 30.9
-2 2 13 421.56 33.3
2 2 -13 513.65 120.29
-1 -2 13 100.89 14.2
1 -2 -13 88.19 38.7
1 -2 -13 62.19 13.3
-1 -2 13 48.2 54.69
-1 2 13 75.29 15.4
1 2 -13 48 43.7
0 -2 13 229.68 18.6
0 -2 13 80.29 50.99
0 -2 -13 171.68 27.3
0 -2 -13 230.28 73.89
0 -2 13 223.48 18.9
0 2 -13 217.78 65.69
0 2 13 266.67 26
0 2 13 151.98 56.89
1 -2 13 610.64 131.89
-1 -2 -13 575.94 97.89
1 -2 13 593.64 30.4
1 -2 13 585.44 30.1
1 2 13 547.55 117.69
-1 2 -13 539.05 114.69
1 2 13 602.04 38.9
2 -2 13 613.04 29.7
2 -2 13 881.31 139.79
-2 -2 -13 585.04 101.39
2 -2 13 605.74 29.4
2 2 13 579.34 39.4
-2 2 -13 567.74 127.59
2 2 13 452.65 99.09
3 -2 13 108.09 59.59
-3 -2 -13 82.29 52.69
3 2 13 141.49 65.59
-3 2 -13 110.69 69.69
3 2 13 111.19 20.3
4 -2 13 17.2 42.8
-4 -2 -13 54.49 51.09
4 2 13 54.29 55.29
4 2 13 90.19 17.2
-4 2 -13 47.1 52.49
5 -2 13 40.5 62.09
-5 -2 -13 176.68 80.29
-5 -2 -13 26.2 11.6
5 2 13 55.99 15.3
5 2 13 -11.1 47.6
-5 2 -13 66.59 69.79
6 -2 13 21.4 72.79
-6 -2 -13 -10 42.2
-6 -2 -13 56.79 25.6
6 2 13 -41.1 49.4
6 2 13 33.4 13
-6 2 -13 -5 48.3
7 -2 13 -26.4 56.09
-7 -2 -13 14.4 9.4
7 2 13 26 17.8
7 2 13 48.9 73.39
-7 2 -13 74.99 68.59
8 -2 13 -65.09 71.79
8 2 13 50.39 87.99
-8 2 -13 -2.9 70.89
9 -2 13 0.8 101.89
-9 2 -13 -95.19 123.09
-8 -3 13 36.6 17.1
-8 3 13 32.2 12.8
-8 3 13 28.2 12.1
-7 -3 13 60.99 16.9
-7 3 13 34.3 13.9
-7 3 13 38.5 14.1
-6 -3 13 32.4 13.5
-6 -3 13 10.2 59.49
-6 3 13 28.4 12.3
6 3 -13 47.3 64.29
-5 -3 13 65.49 92.29
-5 3 13 4.7 9.9
5 3 -13 -30.1 47.3
-4 -3 13 11.7 8.2
-4 -3 13 12.7 73.29
4 3 -13 41.4 54.49
-4 3 13 22 31.3
-4 3 13 -3.7 8
-3 -3 13 46.7 12.7
-3 -3 13 77.49 70.19
-3 -3 13 61.59 21.5
3 3 -13 -40.1 38.4
-3 3 13 60.09 15.1
-3 3 13 23.1 47.6
-2 -3 13 121.09 17.8
-2 -3 13 20.4 64.39
2 -3 -13 107.79 21.3
-2 -3 13 113.49 15
-2 3 13 107.99 56.49
-2 3 13 212.78 79.49
-2 3 13 84.69 19.1
2 3 -13 100.99 67.69
-1 -3 13 108.39 14.3
1 -3 -13 154.58 21.4
-1 -3 13 127.29 15
-1 -3 13 53.09 63.59
-1 3 13 56.49 56.79
1 3 -13 34.6 55.79
-1 3 13 95.29 19.7
-1 3 13 67.69 59.69
0 -3 -13 91.89 19.7
0 3 13 60.49 54.99
0 3 -13 18.2 56.19
0 3 13 133.69 22.5
0 3 13 38.6 52.89
-1 -3 -13 135.39 25.9
1 -3 13 59.79 58.19
1 3 13 19.6 49.9
1 3 13 111.49 23.2
1 3 13 45.5 57.29
-2 -3 -13 198.18 25.6
2 -3 13 111.49 72.49
2 3 13 123.49 21.4
2 3 13 115.39 55.69
-2 3 -13 58.19 59.69
2 3 13 125.79 64.39
-3 -3 -13 132.79 23.4
3 -3 13 195.28 95.69
3 3 13 145.49 27.6
3 3 13 200.98 84.49
-3 3 -13 -35.4 93.69
3 3 13 75.89 70.09
4 -3 13 156.58 84.79
-4 -3 -13 85.89 18.3
-4 3 -13 -3.8 66.09
4 3 13 38.8 75.19
4 3 13 114.99 83.59
5 -3 13 50.19 71.99
-5 -3 -13 42 17.5
5 3 13 63.89 92.59
5 3 13 37.3 90.89
5 3 13 40.1 15.8
-5 3 -13 55.99 77.49
6 -3 13 12.7 70.69
-6 3 -13 112.79 90.09
6 3 13 21.2 74.59
6 3 13 132.09 26.1
7 -3 13 253.47 159.58
-3 -4 13 50.69 12.6
-3 -4 13 53.49 15.5
-3 4 13 56.69 18
-3 4 13 105.89 59.59
-2 -4 13 16 98.89
2 -4 -13 30.7 15.2
-2 4 13 38.7 13.9
-2 4 13 72.49 65.59
2 4 -13 98.69 83.89
1 -4 -13 59.69 18
-1 -4 13 146.89 112.29
-1 4 13 53.39 85.49
-1 4 13 94.79 20.3
1 4 -13 147.09 107.79
0 -4 13 188.08 117.69
0 4 13 164.18 26.5
0 4 -13 -11.4 86.29
1 -4 13 -99.69 88.49
1 4 13 19.6 12.5
-1 4 -13 13.8 85.19
2 -4 13 -47.4 110.09
2 4 13 29.4 12.9
-2 4 -13 -13.4 99.89
11 0 -14 218.48 70.79
-10 0 14 74.29 18.5
-9 0 14 90.39 18.6
-8 0 14 68.39 47.8
-8 0 14 100.09 22.3
-8 0 14 45.3 14
7 0 -14 20.3 31.6
-7 0 14 -1.7 6.3
-7 0 14 -12.2 32
6 0 -14 -30.5 22.1
-6 0 14 10.1 8
-5 0 14 28.7 11.6
5 0 -14 21.8 27.8
-4 0 14 131.29 18.6
4 0 -14 65.79 38.6
-4 0 14 164.08 83.59
-4 0 14 113.19 19
-3 0 14 313.67 26.6
-3 0 14 365.76 88.09
3 0 -14 292.87 80.19
-2 0 14 82.99 15.6
2 0 -14 71.49 42.7
-2 0 14 80.29 46.7
-1 0 14 16.8 29.5
1 0 -14 47.5 32.6
0 0 14 22 28.1
0 0 14 14 7.8
0 0 -14 19.2 19.5
-1 0 -14 34.2 36.3
1 0 14 58.09 41.2
-2 0 -14 25.1 33.2
2 0 14 1.3 6.5
-2 0 -14 4.4 5.8
2 0 14 -55.09 40.6
3 0 14 111.99 45.8
-3 0 -14 115.09 15.5
-3 0 -14 125.89 69.89
-4 0 -14 3 43.4
4 0 14 37.5 63.59
4 0 14 25.1 10.6
-4 0 -14 21.6 9.2
5 0 14 273.97 24.5
-5 0 -14 253.07 76.19
-5 0 -14 310.67 25.5
5 0 14 160.98 79.69
-6 0 -14 173.48 87.79
6 0 14 43.9 65.09
6 0 14 144.69 19.2
-6 0 -14 141.79 18.1
-7 0 -14 70.49 16.3
7 0 14 40.3 65.59
7 0 14 53.99 13.7
-7 0 -14 13.8 42.6
-8 0 -14 190.08 87.89
8 0 14 182.48 22.3
-8 0 -14 155.18 20.7
8 0 14 235.68 111.99
9 0 14 14 9.5
-9 0 -14 6.9 8.5
9 0 14 49.99 99.89
-9 0 -14 -56.99 62.69
-10 0 -14 10.5 8.9
10 0 14 19.9 11.8
-10 0 -14 -84.39 63.19
-10 1 14 37.4 14.4
-9 -1 14 117.99 24.4
-9 1 14 54.99 17
-9 1 14 89.09 21
-8 -1 14 144.99 32.3
-8 1 14 143.39 24.3
7 -1 -14 282.87 46.4
-7 -1 14 340.47 30
-7 -1 14 251.47 80.79
-7 -1 14 356.76 32
-7 1 14 341.67 31.6
-7 1 14 348.57 31.3
7 1 -14 303.67 76.19
-7 1 14 332.67 52.79
-6 -1 14 545.55 48.3
-6 -1 14 387.66 128.89
6 -1 -14 712.33 74.49
-6 -1 14 650.83 40.9
-6 1 14 587.54 40.1
-6 1 14 597.44 142.59
-6 1 14 534.75 38.6
6 1 -14 388.86 88.89
-5 -1 14 419.76 42.3
-5 -1 14 426.86 32.6
5 -1 -14 583.84 143.09
-5 1 14 391.66 75.79
-5 1 14 396.46 32.4
5 1 -14 494.05 109.49
-5 1 14 381.46 32
-4 -1 14 304.77 26.3
-4 -1 14 271.17 25
4 -1 -14 259.07 60.79
-4 -1 14 313.07 87.29
-4 1 14 346.77 28.8
4 1 -14 335.07 78.59
-3 -1 14 705.83 40.5
-3 -1 14 779.72 117.79
-3 -1 14 777.52 41.4
3 -1 -14 684.83 88.99
-3 1 14 762.02 43.7
3 1 -14 689.83 107.39
2 -1 -14 721.53 95.19
-2 -1 14 732.93 39.4
-2 -1 14 667.53 48.8
-2 -1 14 698.63 114.89
-2 1 14 643.14 40.6
2 1 -14 737.03 110.59
-1 -1 14 203.08 19.5
-1 -1 14 145.99 65.59
1 -1 -14 168.78 32.8
1 -1 -14 212.18 61.69
1 1 -14 148.19 55.19
-1 1 14 230.88 23.4
-1 1 14 128.39 53.49
0 -1 14 852.51 123.69
0 -1 -14 711.33 103.49
0 -1 -14 861.61 46
0 -1 14 849.41 41.7
0 1 -14 984 127.99
0 1 14 867.11 46.3
0 1 14 834.62 109.89
-1 -1 -14 521.95 114.39
1 -1 14 471.35 29.4
-1 -1 -14 444.76 31.9
1 -1 14 618.04 136.39
-1 1 -14 621.04 135.79
1 1 14 448.16 32.8
1 1 14 565.14 94.09
-2 -1 -14 773.52 44.1
2 -1 14 973.7 137.09
-2 -1 -14 861.41 121.99
2 -1 14 803.52 39.6
2 1 14 848.32 45.8
-2 1 -14 759.72 123.19
2 1 14 706.03 111.39
-3 -1 -14 394.16 94.69
-3 -1 -14 388.46 30.4
3 -1 14 413.86 26.7
3 -1 14 614.94 139.89
-3 1 -14 346.17 24.6
3 1 14 516.45 121.69
3 1 14 333.47 28.5
-3 1 -14 300.17 103.29
4 -1 14 210.18 100.99
-4 -1 -14 135.39 22.1
4 -1 14 135.59 19.9
-4 -1 -14 28.6 49.99
4 1 14 95.09 61.39
-4 1 -14 122.79 15.3
4 1 14 129.89 21.3
-4 1 -14 127.49 70.69
5 -1 14 366.96 99.69
-5 -1 -14 365.66 30.4
-5 -1 -14 581.34 139.39
5 -1 14 369.46 25.8
-5 1 -14 386.16 26.3
5 1 14 384.96 31.3
5 1 14 425.86 114.89
-5 1 -14 552.34 147.19
-6 -1 -14 134.99 60.29
6 -1 14 87.69 94.19
-6 -1 -14 198.38 22.6
6 -1 14 199.68 19.2
-6 1 -14 232.68 20.6
-6 1 -14 158.38 86.39
6 1 14 267.27 100.29
6 1 14 224.58 25.7
-7 -1 -14 351.96 30.5
-7 -1 -14 456.75 140.79
7 -1 14 417.96 124.69
7 1 14 394.66 120.79
-7 1 -14 522.25 128.99
7 1 14 329.17 30.4
-7 1 -14 317.97 25.1
8 -1 14 66.89 100.79
-8 -1 -14 127.19 64.99
-8 -1 -14 130.19 23.4
8 -1 14 128.29 16.5
8 1 14 46.5 59.99
-8 1 -14 -30.7 68.59
8 1 14 120.19 23.8
-8 1 -14 117.29 16.3
-9 -1 -14 88.69 88.29
9 -1 14 33.8 12.1
-9 -1 -14 47.9 13.6
9 -1 14 22.2 76.19
-9 1 -14 -1.8 74.19
-9 1 -14 36 11.3
9 1 14 10.7 12.9
9 1 14 31.1 73.59
10 -1 14 163.08 143.69
10 -1 14 50.99 13.7
-10 -1 -14 43.7 90.79
10 1 14 44.4 83.09
10 1 14 61.39 17.5
-10 1 -14 100.79 17.7
-9 2 14 23.5 13.2
-8 -2 14 96.19 20.2
-8 2 14 71.99 16.2
-7 -2 14 53.69 16
-7 2 14 82.69 17.9
-6 -2 14 98.09 74.19
-6 -2 14 134.79 22.1
-6 2 14 104.59 21
-6 2 14 142.59 24
6 2 -14 55.99 68.29
-5 -2 14 30.4 11.4
-5 -2 14 -99.59 49.3
-5 2 14 28.7 25.7
-5 2 14 30.6 25.3
-5 2 14 11.7 8.7
5 2 -14 53.29 58.39
-4 -2 14 32.5 11.6
-4 -2 14 33.3 12.1
-4 -2 14 96.89 63.59
-4 2 14 33.5 30.3
4 2 -14 -30.9 35
-4 2 14 33.2 12.3
-3 -2 14 48.9 12.7
-3 -2 14 17.2 9
-3 -2 14 114.49 72.29
3 -2 -14 1.4 29
3 2 -14 26.1 47.3
-3 2 14 11.6 36.4
-3 2 14 13.2 9.4
-2 -2 14 90.29 15.6
2 -2 -14 73.79 36.2
-2 -2 14 131.19 68.69
-2 -2 14 66.19 16.7
-2 2 14 80.39 17.6
2 2 -14 110.99 64.29
-1 -2 14 186.68 18.9
1 -2 -14 161.28 60.69
-1 -2 14 195.48 18.8
-1 -2 14 74.89 56.09
-1 2 14 191.78 22.8
0 -2 14 3.5 5.5
0 -2 14 11.3 6.9
0 -2 14 -71.29 39.8
0 -2 -14 -21.8 39.4
0 2 -14 28.2 48.7
0 2 14 4.9 8.3
1 -2 14 201.78 18.4
1 -2 14 209.78 18.6
1 -2 14 195.88 99.49
1 2 14 215.98 24.2
-1 2 -14 224.48 87.99
2 -2 14 8.6 6.1
2 -2 14 8.4 6
-2 -2 -14 10.5 41.5
2 -2 14 28.8 46.4
2 2 14 10.5 8.5
-2 2 -14 -1.9 41.6
3 -2 14 54.49 49.99
-3 -2 -14 115.29 56.69
3 2 14 109.09 19.7
-3 2 -14 111.29 77.79
-4 -2 -14 35.5 71.19
-4 -2 -14 56.39 15.2
4 -2 14 73.49 81.79
-4 2 -14 101.59 54.29
4 2 14 73.49 17.4
5 -2 14 29.6 66.99
-5 -2 -14 -10.5 87.79
-5 2 -14 44 55.99
5 2 14 79.79 19.9
-6 -2 -14 55.79 14.5
-6 -2 -14 39.8 49.3
6 -2 14 -78.39 60.59
6 2 14 60.89 16.8
-6 2 -14 -44.3 36.9
-7 -2 -14 36 15.1
7 -2 14 213.78 110.59
-7 2 -14 25.5 74.99
7 2 14 19.4 11.2
8 -2 14 125.29 107.89
-8 2 -14 26.9 77.19
8 2 14 92.09 81.49
8 2 14 59.39 17.5
9 2 14 83.99 90.79
-7 -3 14 103.59 22.4
-7 3 14 61.79 19.3
-7 3 14 74.79 20.3
-6 3 14 36.1 21.8
-5 -3 14 61.29 84.99
-5 -3 14 178.38 26.5
5 3 -14 158.38 92.09
-5 3 14 104.69 21.3
-4 -3 14 157.78 20.7
-4 -3 14 111.79 25.2
4 3 -14 91.99 69.59
-4 3 14 114.79 49.7
-4 3 14 94.69 21.3
-3 -3 14 194.58 21.1
-3 -3 14 241.58 23
-3 -3 14 280.57 109.49
-3 3 14 208.98 25.7
3 3 -14 216.28 95.89
-3 3 14 221.68 70.69
-2 -3 14 64.39 70.59
2 -3 -14 64.59 17.3
-2 -3 14 100.99 16.6
-2 -3 14 97.39 17.3
-2 3 14 107.29 20.9
2 3 -14 202.38 100.19
-2 3 14 121.69 69.89
-1 -3 14 225.38 20.7
-1 -3 14 274.67 21.5
-1 -3 14 74.59 72.09
1 -3 -14 230.28 32.6
-1 3 14 226.78 73.39
1 3 -14 279.87 114.59
-1 3 14 244.98 28.2
0 -3 14 455.65 137.99
0 3 -14 453.95 124.39
0 3 14 854.11 128.29
0 3 14 674.73 46.3
1 -3 14 74.79 61.69
-1 -3 -14 121.59 22.8
1 3 14 93.59 20.2
1 3 14 66.69 62.19
-1 3 -14 29.2 69.49
2 -3 14 14.3 70.09
-2 -3 -14 70.39 19.6
-2 3 -14 48.1 62.69
2 3 14 43.9 58.69
2 3 14 69.39 18.2
-3 -3 -14 324.47 32.5
3 3 14 291.17 32.2
3 3 14 406.36 130.39
-3 3 -14 184.58 86.19
-4 -3 -14 131.49 39.9
4 -3 14 57.59 86.09
4 3 14 152.88 27.8
4 3 14 17.1 116.29
-4 3 -14 98.39 112.09
5 -3 14 3.5 80.79
-5 3 -14 96.29 88.49
5 3 14 82.29 18.7
5 3 14 41 91.89
6 -3 14 -48.3 92.09
6 3 14 134.69 117.49
-6 3 -14 179.88 169.18
-10 0 15 -0.9 11.5
-9 0 15 102.89 24.4
-9 0 15 73.99 17.2
-8 0 15 30 12
-8 0 15 29.7 12.6
-7 0 15 39.6 35.4
-7 0 15 36.4 14.8
-7 0 15 30.7 15.4
-6 0 15 332.07 41.7
6 0 -15 248.68 68.39
-6 0 15 426.26 33.5
5 0 -15 170.58 57.29
-5 0 15 84.49 20.4
-5 0 15 67.49 15.8
4 0 -15 192.48 61.99
-4 0 15 110.89 19.2
3 0 -15 168.78 58.59
-3 0 15 153.48 19.5
-3 0 15 178.28 49.3
2 0 -15 363.96 82.49
-2 0 15 459.85 104.29
-2 0 15 383.36 29.7
-1 0 15 616.74 125.99
1 0 -15 541.25 94.49
-1 0 15 621.44 37.8
0 0 -15 299.77 85.09
0 0 15 313.87 26.5
0 0 15 376.86 106.89
-1 0 -15 818.62 44.1
1 0 15 859.11 44.7
1 0 15 829.52 122.09
-1 0 -15 828.32 119.19
2 0 15 528.85 34.2
2 0 15 350.96 99.39
-2 0 -15 460.25 106.19
-2 0 -15 587.14 35.8
-3 0 -15 201.08 21
3 0 15 188.48 93.69
-3 0 -15 133.09 53.09
3 0 15 220.08 21.8
4 0 15 130.09 18.3
-4 0 -15 122.59 17.4
-4 0 -15 239.18 91.29
4 0 15 120.29 82.49
-5 0 -15 476.35 33.1
-5 0 -15 448.86 123.39
5 0 15 501.45 141.39
5 0 15 400.26 30.8
-6 0 -15 196.98 21.6
6 0 15 217.58 23.4
6 0 15 142.49 88.09
-6 0 -15 217.18 90.09
7 0 15 195.88 93.69
-7 0 -15 189.38 77.89
7 0 15 194.38 22.9
-7 0 -15 233.68 24.4
-8 0 -15 515.35 36.4
-8 0 -15 401.66 134.39
8 0 15 573.74 153.48
8 0 15 500.25 36.6
9 0 15 156.38 25.8
-9 0 -15 116.19 98.39
9 0 15 44.5 109.39
-9 0 -15 124.39 34
-9 -1 15 124.39 23.7
-9 1 15 96.59 20.4
-8 -1 15 12.4 17.6
-8 -1 15 18.8 11.4
-8 1 15 37.7 18
-8 1 15 43 13
7 -1 -15 287.87 71.19
-7 -1 15 359.76 35.5
-7 -1 15 331.07 31.9
-7 1 15 331.97 31.8
-7 1 15 340.97 42.5
-7 1 15 440.56 73.89
-6 -1 15 514.65 38.5
-6 -1 15 553.84 38.8
-6 -1 15 451.55 116.29
6 -1 -15 507.65 70.39
6 1 -15 496.35 106.09
-6 1 15 457.85 71.99
-6 1 15 496.85 38.3
-6 1 15 513.55 38.4
-5 -1 15 107.19 74.89
5 -1 -15 179.18 53.39
-5 -1 15 208.18 23.2
-5 1 15 268.27 72.79
-5 1 15 149.59 21.1
-4 -1 15 161.18 25.2
4 -1 -15 119.59 50.99
-4 -1 15 120.49 30.9
-4 1 15 114.59 20.7
4 1 -15 123.79 57.89
-3 -1 15 91.39 17.1
-3 -1 15 92.39 17.1
-3 -1 15 61.09 45.7
3 1 -15 60.89 38.4
-3 1 15 94.19 18.7
-2 -1 15 236.78 23
-2 -1 15 184.08 74.19
-2 -1 15 262.97 23.9
2 -1 -15 231.68 61.79
-2 1 15 279.57 26.7
2 1 -15 408.36 106.89
-1 -1 15 87.69 57.29
1 -1 -15 56.49 43.9
-1 -1 15 46.3 12.6
-1 1 15 67.69 15.6
1 1 -15 9.1 42.5
-1 1 15 106.49 50.79
0 -1 -15 187.68 21.5
0 -1 15 180.58 61.29
0 -1 -15 125.09 48.7
0 -1 15 186.38 19.8
0 1 -15 161.38 87.89
0 1 15 150.28 20.1
0 1 15 139.79 55.49
-1 -1 -15 222.28 23
1 -1 15 210.08 20.2
-1 -1 -15 135.79 56.39
1 -1 15 178.28 98.69
1 1 15 192.98 22.8
-1 1 -15 299.07 101.59
1 1 15 162.08 63.99
-2 -1 -15 129.49 22.4
2 -1 15 96.59 16
2 -1 15 -28 52.19
-2 -1 -15 135.59 57.39
2 1 15 110.49 19.7
2 1 15 77.79 45.8
-2 1 -15 129.19 73.09
-3 -1 -15 66.49 17.3
3 -1 15 36.3 10.3
3 -1 15 93.19 61.59
-3 -1 -15 -0.1 38
-3 1 -15 43.1 12.1
-3 1 -15 62.09 48.6
3 1 15 52.69 13.9
3 1 15 -12.4 43.9
-4 -1 -15 -6.8 5.3
-4 -1 -15 17.5 35.9
4 -1 15 -14.7 73.89
4 1 15 12.5 46.2
4 1 15 8.5 7.3
-4 1 -15 -21.9 36.3
-4 1 -15 3.3 6.7
-5 -1 -15 -28.8 51.89
-5 -1 -15 -2.2 6.5
5 -1 15 0.3 6.3
5 -1 15 -29.4 49.4
5 1 15 7 7.4
-5 1 -15 -23.3 58.39
-5 1 -15 8.8 7.6
5 1 15 75.39 49.6
-6 -1 -15 50.89 13.4
6 -1 15 24.8 10.3
6 -1 15 66.89 79.99
-6 -1 -15 55.59 50.89
6 1 15 44.2 13.8
6 1 15 59.59 56.49
-6 1 -15 56.39 12.8
-6 1 -15 -89.79 52.99
-7 -1 -15 20.1 9.4
-7 -1 -15 86.39 63.39
7 -1 15 -27.2 74.69
7 -1 15 5.3 6.9
7 1 15 7.6 8.6
7 1 15 24.1 60.79
-7 1 -15 9.8 6.9
-8 -1 -15 -45.9 45.6
-8 -1 -15 -2 7.3
8 -1 15 45.6 93.39
8 -1 15 11.6 8.2
8 1 15 -79.59 66.39
-8 1 -15 7.6 8.4
-8 1 -15 -19.4 61.49
8 1 15 -5.9 7.4
-9 -1 -15 -62.89 77.09
9 -1 15 11.1 8.3
9 -1 15 61.19 128.49
9 1 15 6.2 10.6
-9 1 -15 -23.6 71.29
-9 1 -15 -0.3 6.9
9 1 15 -37.8 66.19
-9 2 15 51.09 17.6
-8 -2 15 216.48 29.7
-8 2 15 186.68 25.3
-7 -2 15 33.1 14.7
-7 2 15 65.79 18.5
-7 2 15 57.29 17.3
-6 -2 15 59.69 16
-6 -2 15 24 11.8
-6 -2 15 35.1 73.99
-6 2 15 28.1 13.2
-6 2 15 37.8 14.2
-5 -2 15 92.49 19
-5 -2 15 73.09 62.39
-5 -2 15 104.79 21
-5 2 15 98.79 20.7
-5 2 15 129.29 35.8
5 2 -15 47 55.99
-4 -2 15 100.89 17.7
4 2 -15 144.69 62.59
-4 2 15 123.09 23.8
-4 2 15 81.09 42.1
-3 -2 15 53.79 12.9
-3 -2 15 57.39 14.1
3 -2 -15 6.3 32.7
-3 -2 15 89.49 67.99
-3 2 15 57.59 15.4
-3 2 15 54.89 39.5
3 2 -15 56.19 43.7
2 -2 -15 230.88 65.09
2 -2 -15 275.67 27.3
-2 -2 15 249.08 23.4
-2 -2 15 194.28 81.49
-2 -2 15 233.88 22.3
2 2 -15 113.29 69.69
-2 2 15 226.48 25.5
-1 -2 15 376.06 26.9
1 -2 -15 444.76 35.1
1 -2 -15 216.48 70.69
-1 -2 15 330.57 42.2
-1 -2 15 328.67 94.49
-1 2 15 364.16 104.29
1 2 -15 450.05 117.39
-1 2 15 433.56 34.3
0 -2 15 303.17 101.69
0 -2 15 352.06 25.6
0 -2 -15 341.17 93.79
0 -2 15 358.86 25.6
0 2 -15 224.58 82.09
0 2 15 339.67 30.3
0 2 15 396.06 103.79
-1 -2 -15 415.86 103.79
1 -2 15 493.05 29.2
1 -2 15 481.45 29.3
-1 2 -15 567.74 129.89
1 2 15 434.86 35.4
1 2 15 404.26 99.49
2 -2 15 39 59.39
2 -2 15 73.49 13.6
2 -2 15 59.59 12.3
-2 -2 -15 26.7 32.6
-2 -2 -15 33.7 16.7
2 2 15 41.8 50.99
2 2 15 56.99 15.3
-2 2 -15 72.79 63.89
-3 -2 -15 201.08 85.59
3 -2 15 106.39 80.69
3 -2 15 184.58 17
-3 -2 -15 190.28 28.9
-3 2 -15 233.78 88.89
3 2 15 208.28 25.8
3 2 15 44.6 54.19
-4 -2 -15 303.87 31
-4 -2 -15 181.18 77.39
4 -2 15 87.19 101.39
4 2 15 262.27 28.3
-4 2 -15 316.87 99.29
4 2 15 321.37 107.59
5 -2 15 334.67 138.19
-5 -2 -15 224.18 97.39
-5 -2 -15 321.77 31.7
-5 2 -15 220.78 98.99
5 2 15 326.37 37
5 2 15 305.77 113.39
-6 -2 -15 72.39 71.39
-6 -2 -15 214.78 26.8
6 -2 15 201.08 113.09
6 2 15 117.49 78.99
-6 2 -15 154.28 86.69
6 2 15 159.08 27.2
-7 -2 -15 137.19 85.39
-7 2 -15 172.48 106.09
7 2 15 72.79 18.2
8 -2 15 26.7 129.29
8 2 15 33.6 75.09
-6 -3 15 63.49 16.3
-6 -3 15 78.99 19.9
-6 3 15 55.09 16.5
-5 -3 15 145.19 23.7
-5 -3 15 44.7 109.99
-5 -3 15 170.48 22.6
-5 3 15 135.19 24
-4 -3 15 137.89 99.99
-4 -3 15 34.3 12.9
4 3 -15 -64.79 78.69
-4 3 15 42.3 15.9
-4 3 15 -41.7 37.4
-3 -3 15 37.2 12
-3 -3 15 41.7 113.89
-3 -3 15 33.1 12.2
3 3 -15 -101.09 52.89
-3 3 15 14.4 16.4
-3 3 15 80.19 52.99
2 -3 -15 109.69 21.4
-2 -3 15 105.99 99.69
-2 -3 15 101.09 18.3
-2 -3 15 112.19 18
-2 3 15 82.39 59.79
-2 3 15 141.79 41.7
2 3 -15 68.99 79.39
-1 -3 15 27.2 9.5
-1 -3 15 5.4 7.9
1 -3 -15 6.8 8.9
-1 -3 15 23.1 75.79
-1 3 15 115.69 60.69
1 3 -15 22.7 59.59
0 -3 15 121.79 15.6
0 -3 -15 108.49 22.3
0 -3 15 192.58 92.39
0 3 15 92.49 28.3
0 3 15 -3.9 64.99
0 3 -15 15.7 72.19
-1 -3 -15 52.49 16.1
1 -3 15 109.99 86.29
1 3 15 121.59 81.29
1 3 15 76.49 21.2
-1 3 -15 91.59 67.19
-2 -3 -15 20 11.2
-2 3 -15 5.4 67.89
2 3 15 -6 10.5
2 3 15 -33.5 56.09
3 -3 15 36 83.39
3 3 15 25.4 14.5
-3 3 -15 76.09 95.09
3 3 15 -30.7 78.89
4 -3 15 56.59 92.59
-4 3 -15 -67.09 118.19
4 3 15 5.3 9.5
5 -3 15 -139.39 80.19
-5 3 -15 96.29 78.89
-9 0 16 68.99 18.2
-8 0 16 439.46 37.7
-8 0 16 399.56 37
-7 0 16 322.37 31.5
-7 0 16 304.97 30.6
-6 0 16 313.27 30.2
-6 0 16 272.97 83.69
-6 0 16 326.17 30.2
-5 0 16 32 42.8
5 0 -16 128.89 52.29
-5 0 16 88.59 18.7
-5 0 16 85.39 18.3
-4 0 16 265.67 26.6
-4 0 16 336.97 88.09
-4 0 16 291.27 27.7
4 0 -16 315.47 77.89
-3 0 16 752.12 44.3
3 0 -16 864.41 126.29
2 0 -16 141.19 49.2
-2 0 16 70.29 14.9
-1 0 16 549.54 36.8
-1 0 16 605.14 133.59
1 0 -16 719.13 141.89
0 0 16 692.63 121.29
0 0 -16 831.62 121.79
0 0 16 803.22 44.7
-1 0 -16 170.98 20.5
-1 0 -16 90.49 43.2
1 0 16 187.68 21.4
1 0 16 126.79 59.79
2 0 16 58.59 14.2
-2 0 -16 66.19 44
-2 0 -16 67.09 16.5
2 0 16 65.19 55.79
-3 0 -16 -8 39.9
3 0 16 38.1 55.49
4 0 16 102.09 19.6
-4 0 -16 131.49 21.6
4 0 16 80.49 74.89
-4 0 -16 73.69 49.9
5 0 16 161.68 21
-5 0 -16 149.19 18.9
-5 0 -16 75.99 54.59
5 0 16 31.5 87.59
6 0 16 159.88 89.69
-6 0 -16 16.6 90.49
-6 0 -16 72.19 15.7
6 0 16 78.19 17.5
-7 0 -16 -62.99 56.69
7 0 16 109.39 80.09
-7 0 -16 15.7 8.9
7 0 16 11.2 9.1
8 0 16 63.59 16.9
8 0 16 84.59 98.49
-8 0 -16 12.2 75.99
-9 0 -16 48 96.59
9 0 16 -9.1 13.9
9 0 16 32.5 105.69
-9 0 -16 8.7 9.7
-9 -1 16 3.6 10.3
-8 -1 16 24 11.5
-8 -1 16 27.9 15.1
-8 1 16 19.8 10.9
-7 -1 16 -2 8.7
-7 -1 16 -1.7 6.5
-7 1 16 12.8 9.1
-7 1 16 -0.2 14.3
-6 -1 16 37.7 14
-6 -1 16 15.2 8.9
-6 1 16 17 9.7
-6 1 16 13.7 10.2
-5 -1 16 68.69 56.19
-5 -1 16 20.9 10.3
-5 -1 16 15.7 11.5
5 -1 -16 45.4 55.79
-5 1 16 39.4 45.4
-5 1 16 48.9 14.5
-5 1 16 22 10.1
5 1 -16 44.5 45.7
-4 -1 16 24.2 10.2
-4 -1 16 -5.9 48.4
4 -1 -16 -18.3 29.4
4 1 -16 71.89 59.29
-4 1 16 83.49 46.9
-4 1 16 8.9 9.1
-3 -1 16 164.18 20.5
3 -1 -16 157.58 58.39
-3 1 16 150.08 25.6
-2 -1 16 104.59 71.09
-2 -1 16 127.99 21.5
2 -1 -16 129.59 58.49
-2 -1 16 128.89 18.2
-2 1 16 24.8 47.6
2 1 -16 130.69 48.3
-2 1 16 110.19 19.8
-1 -1 16 22.7 9.7
-1 -1 16 23.1 41.7
1 -1 -16 58.09 39.2
-1 1 16 18.3 39.5
-1 1 16 20.6 9
1 1 -16 48.7 35.9
0 -1 16 194.68 70.09
0 -1 16 183.98 19.9
0 -1 -16 152.08 20.9
0 -1 -16 56.99 80.49
0 1 16 163.28 21.8
0 1 -16 75.59 43.3
1 -1 16 47.2 53.69
-1 -1 -16 128.89 23
1 -1 16 129.79 20.6
-1 -1 -16 67.29 43.4
-1 1 -16 166.48 78.19
1 1 16 82.69 17
-2 -1 -16 11.7 35.4
-2 -1 -16 57.99 14.7
2 -1 16 40.6 12.2
2 -1 16 5.4 52.79
-2 1 -16 32.2 42.7
2 1 16 68.89 17.2
-3 -1 -16 219.18 24.2
3 -1 16 32.7 61.19
3 -1 16 184.78 20.5
-3 -1 -16 174.58 74.09
-3 1 -16 309.17 111.89
3 1 16 231.78 25.9
-4 -1 -16 316.97 97.29
4 -1 16 488.85 129.19
-4 -1 -16 376.06 32.1
4 -1 16 341.57 27.5
4 1 16 247.18 104.59
-4 1 -16 423.76 29.2
-4 1 -16 224.68 78.79
4 1 16 381.26 32.3
-5 -1 -16 100.99 19.2
-5 -1 -16 228.98 89.79
5 -1 16 106.69 18
5 1 16 97.59 20
5 1 16 92.69 77.39
-5 1 -16 93.09 16.7
-5 1 -16 -4.1 81.09
-6 -1 -16 169.28 22.2
6 -1 16 184.68 21
-6 -1 -16 285.17 102.59
6 -1 16 103.99 96.19
-6 1 -16 42.9 74.79
-6 1 -16 195.68 20.3
6 1 16 38.7 84.79
6 1 16 242.28 26.8
-7 -1 -16 141.49 23.9
7 -1 16 -19.5 78.19
7 -1 16 147.39 18.9
-7 -1 -16 65.79 67.69
-7 1 -16 125.79 82.79
7 1 16 116.59 29.3
-7 1 -16 145.09 22.6
8 -1 16 43 161.48
-8 -1 -16 -7.3 82.39
8 -1 16 63.19 14.9
-8 1 -16 118.19 104.69
8 1 16 61.29 17.7
-8 1 -16 67.39 15.5
-8 -2 16 193.58 27.3
-8 2 16 182.88 35.2
-7 -2 16 177.88 28.4
-7 -2 16 156.58 26.3
-7 2 16 196.18 25.9
-6 -2 16 120.99 29.8
-6 -2 16 116.79 20.9
-6 2 16 170.08 23.3
-6 2 16 129.89 23.1
-5 -2 16 165.48 22.7
-5 -2 16 200.18 24.6
-5 -2 16 189.78 92.29
-5 2 16 227.88 41.3
-4 -2 16 117.49 78.99
-4 -2 16 144.79 22.4
-4 -2 16 149.29 21.1
-4 2 16 115.79 21.9
4 2 -16 145.29 66.89
-3 -2 16 237.28 125.19
-3 -2 16 347.27 29.1
3 2 -16 429.36 119.79
-3 2 16 370.06 33.1
-2 -2 16 150.78 19.4
-2 -2 16 135.89 19.2
2 2 -16 40 60.19
-2 2 16 155.98 25.5
-1 -2 16 223.08 21.8
1 -2 -16 193.88 24
-1 -2 16 233.58 22.6
-1 -2 16 120.99 85.59
-1 2 16 228.38 26.1
-1 2 16 184.48 72.39
1 2 -16 283.27 89.39
0 -2 16 288.57 98.09
0 -2 -16 210.78 25.8
0 -2 16 294.77 24.9
0 -2 16 242.48 23
0 2 -16 373.36 101.99
0 2 16 245.08 84.49
0 2 16 210.88 25.4
1 -2 16 199.38 19.5
-1 -2 -16 236.78 43.8
-1 -2 -16 156.78 100.59
1 -2 16 167.58 18.7
1 -2 16 263.77 100.29
-1 2 -16 169.08 87.59
1 2 16 182.28 24.6
1 2 16 89.89 54.19
2 -2 16 87.09 83.39
-2 -2 -16 110.39 21
2 -2 16 108.49 16.7
-2 -2 -16 179.98 101.89
2 -2 16 125.79 18.6
2 2 16 36.1 57.59
2 2 16 99.29 20.8
-2 2 -16 137.79 89.59
3 -2 16 103.89 16.6
-3 -2 -16 47.3 56.89
3 -2 16 -3.4 68.49
3 -2 16 102.79 15.9
-3 -2 -16 75.59 18
3 2 16 77.59 19.6
3 2 16 46 66.69
-3 2 -16 -1.3 46.9
-4 -2 -16 -72.19 64.89
4 -2 16 21.6 8.2
-4 -2 -16 1.9 8.5
4 -2 16 59.99 73.49
4 2 16 13.5 11.8
4 2 16 1.1 69.79
-5 -2 -16 71.39 23.6
5 2 16 156.78 26.4
5 2 16 131.89 94.29
-5 2 -16 152.08 106.89
6 -2 16 31.5 100.99
6 2 16 95.19 71.09
6 2 16 132.99 23.5
-6 2 -16 387.56 140.49
7 -2 16 69.79 119.19
-7 2 -16 -136.79 91.99
7 2 16 1.6 75.69
-5 -3 16 -24.3 12.5
-5 -3 16 8.8 10.2
-5 3 16 27.6 12.3
-4 -3 16 85.39 155.38
-4 -3 16 17 10.2
-4 -3 16 1.6 11.5
-4 3 16 -43.5 47.1
-4 3 16 24.4 13.3
-3 -3 16 27.8 10.8
-3 -3 16 22.4 98.59
3 3 -16 -18.5 88.19
-3 3 16 -2.4 8.5
-3 3 16 -81.49 47.9
-2 -3 16 22.2 10.1
-2 -3 16 35.3 110.59
-2 -3 16 20.8 10.7
-2 3 16 115.39 84.29
2 3 -16 -82.29 54.69
-2 3 16 7.2 10.9
1 3 -16 69.09 75.99
-1 3 16 99.59 62.69
0 -3 16 48.8 12.1
0 -3 16 117.09 105.69
0 3 -16 70.69 73.99
0 3 16 38.7 15.7
0 3 16 14.4 63.09
1 -3 16 174.38 103.09
1 3 16 6.3 61.39
1 3 16 11.7 12.6
-1 3 -16 -71.69 77.79
2 -3 16 117.09 91.69
-2 3 -16 136.19 71.39
2 3 16 6.8 68.89
2 3 16 118.19 23
3 -3 16 68.09 102.69
-3 3 -16 181.68 100.39
4 -3 16 39.4 105.49
-4 3 -16 -14.3 90.59
-8 0 17 17.4 12.5
-7 0 17 77.29 18.4
-7 0 17 101.79 23
-6 0 17 107.19 21.7
-6 0 17 112.09 20.7
-5 0 17 10.4 9.7
-5 0 17 12.6 10.2
4 0 -17 11.3 40.5
-4 0 17 111.79 21.8
-4 0 17 37.9 46.2
-4 0 17 69.39 18.9
-3 0 17 35.7 47.8
-3 0 17 40.5 13.1
3 0 -17 18.3 45.1
-2 0 17 45.2 12.7
-2 0 17 57.29 51.59
2 0 -17 14.8 37.7
-1 0 17 13.6 9
1 0 -17 1.6 36.2
0 0 -17 3.2 41.4
0 0 17 4.1 6.4
1 0 17 -6.5 5.6
-1 0 -17 -25.9 46.6
-2 0 -17 111.69 56.59
2 0 17 19.3 9.9
-2 0 -17 5.9 6.7
2 0 17 -8.5 57.39
3 0 17 48 15.2
-3 0 -17 51.49 13.1
3 0 17 73.89 62.79
-3 0 -17 19.3 39.4
4 0 17 -59.79 57.09
4 0 17 4.5 8
-4 0 -17 -2.2 7.5
-4 0 -17 82.69 56.19
5 0 17 41.9 57.49
-5 0 -17 96.39 18.2
5 0 17 80.49 17.5
-5 0 -17 49.9 68.69
6 0 17 234.38 117.99
-6 0 -17 11.6 64.89
-6 0 -17 65.49 15.9
6 0 17 83.09 19.1
7 0 17 -21.4 79.39
-7 0 -17 94.19 73.69
7 0 17 75.39 17.8
8 0 17 -59.19 95.09
8 0 17 37.8 21.8
-8 0 -17 62.29 84.89
-8 0 -17 17 10.5
-8 -1 17 97.89 20.7
-8 1 17 86.19 26.6
-7 -1 17 122.09 21.8
-7 -1 17 63.69 16.4
-7 1 17 97.59 20.9
-6 -1 17 194.48 25.9
-6 -1 17 141.79 23.7
-6 1 17 185.48 25.2
-6 1 17 230.78 27.3
-5 -1 17 200.58 26.7
-5 -1 17 233.38 26
-5 1 17 210.38 26.6
-5 1 17 177.98 24
-4 -1 17 89.19 62.49
-4 -1 17 113.59 21.1
-4 -1 17 111.49 20.6
4 1 -17 99.29 66.19
-4 1 17 134.69 24.5
-3 -1 17 312.17 28.3
-3 -1 17 278.07 27.1
-3 -1 17 208.38 76.89
-3 1 17 170.68 65.39
3 1 -17 148.09 71.29
-3 1 17 274.37 28.7
2 -1 -17 270.47 76.19
-2 -1 17 269.87 105.39
-2 -1 17 242.48 24.8
-2 1 17 311.57 29.5
2 1 -17 373.46 104.69
-2 1 17 252.47 84.19
-1 -1 17 362.36 29.2
1 -1 -17 527.15 121.79
-1 -1 17 298.87 40.4
-1 1 17 380.46 32.5
1 1 -17 279.37 92.49
-1 1 17 423.56 103.79
0 -1 -17 312.47 80.69
0 -1 17 700.33 153.48
0 -1 -17 459.55 35.3
0 -1 17 459.95 32.9
0 1 -17 376.46 97.99
0 1 17 459.55 36
0 1 17 348.27 82.99
1 -1 17 117.09 70.29
-1 -1 -17 216.58 25.4
-1 -1 -17 255.07 93.79
1 -1 17 199.08 21.5
1 1 17 211.68 24.9
1 1 17 194.68 74.49
-1 1 -17 203.88 85.89
-2 -1 -17 498.75 121.79
-2 -1 -17 342.57 31.1
2 -1 17 383.16 116.59
2 -1 17 369.86 28.9
-2 1 -17 249.78 106.19
2 1 17 365.56 112.39
2 1 17 371.86 32.4
-3 -1 -17 188.88 77.99
3 -1 17 200.48 21.2
3 -1 17 68.49 93.89
-3 -1 -17 169.08 22.2
-3 1 -17 151.08 69.19
3 1 17 177.38 23.3
-4 -1 -17 143.09 37.7
-4 -1 -17 115.49 78.79
4 -1 17 306.17 118.89
4 -1 17 211.48 23
-4 1 -17 197.08 21.4
4 1 17 196.18 25.1
-4 1 -17 135.79 69.59
4 1 17 286.37 132.69
5 -1 17 115.29 19.4
-5 -1 -17 225.08 88.79
-5 -1 -17 116.79 22.3
5 -1 17 143.09 91.59
-5 1 -17 136.39 18.2
-5 1 -17 99.59 64.49
5 1 17 121.69 89.69
5 1 17 116.89 23.3
-6 -1 -17 90.09 19.1
6 -1 17 77.79 16.6
-6 -1 -17 106.59 86.09
6 -1 17 140.49 83.69
-6 1 -17 140.49 76.39
-6 1 -17 93.09 17.4
6 1 17 -59.09 89.99
6 1 17 77.89 19.3
7 -1 17 179.38 21.5
-7 -1 -17 82.49 73.39
7 -1 17 -49.7 111.19
-7 1 -17 141.69 104.09
-7 1 -17 173.08 21
7 1 17 154.38 119.29
7 1 17 212.78 26.1
8 -1 17 478.05 167.68
-8 -1 -17 260.57 118.79
8 1 17 111.89 120.99
-8 1 -17 97.79 92.79
-7 -2 17 96.09 21
-6 -2 17 8.3 12.8
-6 -2 17 8.4 13.7
-6 2 17 16.3 11.5
-5 -2 17 0.7 8
-5 2 17 3.9 10.5
-4 -2 17 -2.1 10.6
-4 -2 17 -88.19 56.29
-4 -2 17 -5.7 7.6
-4 2 17 -14.6 9.2
-3 -2 17 46.1 15.5
-3 -2 17 52.69 14.5
-3 -2 17 14.1 70.09
-3 2 17 35.5 15.5
3 2 -17 60.79 77.69
-2 -2 17 -47.6 95.49
-2 -2 17 10.2 8.6
2 2 -17 10.9 52.19
-2 2 17 14.6 14
1 -2 -17 10.2 8.4
-1 -2 17 20.9 11.2
-1 -2 17 21 9.3
-1 2 17 7.1 10.3
0 -2 -17 12.1 9.4
0 -2 17 19.4 9.5
0 -2 17 -1.9 78.99
0 -2 17 3.6 7.5
0 2 -17 4.5 58.49
0 2 17 13.4 13.7
1 -2 17 -11.4 52.99
1 -2 17 18.5 8.1
1 -2 17 9.7 7.5
-1 -2 -17 1.3 6.1
-1 2 -17 -37.2 36.6
2 -2 17 -10.8 8.1
2 -2 17 4.6 7.7
2 -2 17 -9 52.59
-2 -2 -17 -1.4 7.6
2 2 17 2.7 7.6
3 -2 17 44.1 12
3 -2 17 71.09 14.9
-3 -2 -17 51.69 16
3 -2 17 41.1 86.09
-3 2 -17 26.8 53.09
3 2 17 87.89 19.8
4 -2 17 5.8 6.7
4 -2 17 -25.5 82.19
4 2 17 5.5 11.9
-4 2 -17 68.49 86.29
5 -2 17 75.79 114.49
5 2 17 44.9 17.2
-5 2 -17 145.49 72.29
-6 2 -17 -31.6 83.09
-3 -3 17 204.48 23.1
-3 -3 17 176.58 25.1
-3 3 17 37.7 65.59
-2 -3 17 181.78 136.09
-2 -3 17 104.39 18.5
-2 3 17 123.49 41.1
2 3 -17 70.39 91.89
-2 3 17 281.07 93.19
-1 -3 17 89.79 17
-1 -3 17 78.99 16.9
-1 -3 17 -125.19 83.99
-1 3 17 59.79 86.29
1 3 -17 130.69 91.09
-1 3 17 113.09 35.5
0 3 -17 -126.29 83.79
1 -3 17 96.19 115.09
-1 3 -17 5.2 109.39
2 -3 17 127.19 116.59
-2 3 -17 218.98 107.49
-7 0 18 32.7 14.4
-6 0 18 58.49 14.9
-6 0 18 60.89 19.4
-5 0 18 41.1 13.3
-5 0 18 67.69 29.7
-4 0 18 201.58 26.1
-4 0 18 204.68 24.4
-3 0 18 147.59 24.8
-3 0 18 102.39 70.59
2 0 -18 72.79 51.09
-2 0 18 115.19 62.39
-2 0 18 156.58 21.6
-1 0 18 127.99 58.59
-1 0 18 214.28 24.8
1 0 -18 50.09 40.2
0 0 18 72.99 56.79
0 0 -18 42.9 51.59
-1 0 -18 170.58 71.49
1 0 18 193.68 132.69
1 0 18 168.58 22.2
-2 0 -18 232.38 23.9
-2 0 -18 335.07 96.79
2 0 18 217.28 25.1
2 0 18 275.67 118.99
-3 0 -18 188.38 90.59
3 0 18 293.97 28.1
-3 0 -18 258.77 26.2
-4 0 -18 162.28 155.58
-4 0 -18 179.08 27.6
4 0 18 141.79 24.7
5 0 18 373.06 32.2
-5 0 -18 365.86 31.9
-5 0 -18 302.47 166.18
-6 0 -18 110.49 132.29
-6 0 -18 87.09 18.3
6 0 18 117.69 21.2
-7 0 -18 43.4 13.9
-7 -1 18 163.28 27.6
-6 -1 18 13.2 12.6
-6 -1 18 39.3 14.2
-6 1 18 15.2 10.6
-5 -1 18 152.78 26.1
-5 1 18 161.58 26.5
-5 1 18 199.58 26.6
-4 -1 18 240.78 26.2
-4 -1 18 242.68 34.7
-4 1 18 158.18 29
-3 -1 18 89.39 20.3
-3 -1 18 35 65.39
-3 -1 18 46.4 14
-3 1 18 82.39 18
-2 -1 18 186.58 22.3
-2 -1 18 152.58 23.9
-2 -1 18 278.77 101.99
-2 1 18 121.29 21.9
2 1 -18 23.6 45.8
-1 -1 18 219.38 95.59
-1 -1 18 163.78 21.5
-1 -1 18 171.58 22
1 1 -18 284.17 101.79
-1 1 18 166.48 111.89
-1 1 18 164.68 22.8
0 -1 -18 90.39 30.7
0 -1 18 159.48 25
0 -1 18 98.49 65.69
0 1 -18 127.29 80.29
0 1 18 80.49 18.1
0 1 18 43.4 53.29
1 -1 18 27.2 10.7
-1 -1 -18 9.6 9.6
-1 -1 -18 -49.5 66.59
-1 1 -18 107.99 90.29
1 1 18 3.9 53.19
1 1 18 17.5 10
-2 -1 -18 21.4 11.4
-2 -1 -18 26.5 38.3
2 -1 18 16.6 10.1
2 1 18 27.7 12.3
-2 1 -18 85.19 69.49
2 1 18 50.69 63.39
3 -1 18 11 9.8
-3 -1 -18 27.4 10.4
3 -1 18 -89.09 55.59
-3 -1 -18 131.99 76.19
-3 1 -18 163.28 91.89
3 1 18 11.8 10.7
3 1 18 65.99 66.49
4 -1 18 49.2 14.3
-4 -1 -18 60.99 62.49
4 -1 18 225.68 105.09
-4 -1 -18 78.69 17.8
4 1 18 -10.8 57.79
4 1 18 42.8 20.6
-4 1 -18 129.09 74.49
5 -1 18 234.48 123.89
-5 -1 -18 -39.9 62.39
-5 -1 -18 53.49 15.9
5 -1 18 55.19 14.6
5 1 18 71.99 18.6
5 1 18 -149.79 73.49
-5 1 -18 73.29 15.2
-5 1 -18 28 76.89
6 -1 18 55.69 15.5
6 -1 18 -5.5 89.69
-6 -1 -18 27 79.89
-6 1 -18 35.8 85.09
-6 1 -18 38 13.7
6 1 18 23.5 13.6
6 1 18 -6.4 96.49
7 -1 18 169.98 125.59
-7 1 -18 79.69 74.59
7 1 18 78.99 84.79
-6 2 18 79.99 58.99
-5 -2 18 62.09 19
-5 2 18 87.29 32
-4 -2 18 169.78 24.2
-4 2 18 210.38 27.2
-3 -2 18 62.59 17.4
-3 -2 18 87.49 18
-3 2 18 92.89 21.9
-2 -2 18 132.09 84.89
-2 -2 18 87.69 17.6
-2 -2 18 98.09 19.3
-2 2 18 55.09 17.7
2 2 -18 26.4 83.79
-1 -2 18 73.59 84.59
-1 -2 18 122.59 20.7
1 2 -18 168.68 99.19
-1 2 18 96.19 19.4
0 -2 18 94.89 18.1
0 -2 18 101.49 95.09
0 -2 18 94.49 18.1
0 2 18 94.39 20
0 2 -18 0.1 49
1 -2 18 111.69 19.4
1 -2 18 78.99 17.2
-1 2 -18 238.98 120.09
1 2 18 66.09 17.4
2 -2 18 199.98 21.2
2 -2 18 203.48 21.3
2 -2 18 223.48 182.88
2 2 18 182.68 31.6
-2 2 -18 213.68 85.69
3 -2 18 209.38 21.6
3 -2 18 63.49 92.79
3 -2 18 180.58 19.9
3 2 18 199.88 27.5
-3 2 -18 263.37 118.89
4 -2 18 37.6 11.2
4 -2 18 -5.6 84.39
-4 2 -18 -47.9 68.99
5 -2 18 235.98 149.79
5 -2 18 196.98 24.9
-5 2 -18 116.99 109.69
-6 0 19 309.47 32.9
-5 0 19 93.39 19.8
-4 0 19 165.28 30.3
-4 0 19 166.88 28
-3 0 19 138.09 26.7
-3 0 19 146.89 26.8
-2 0 19 181.58 24.6
-1 0 19 346.87 32.7
0 0 19 126.09 22.4
0 0 19 86.99 72.99
1 0 19 166.18 73.49
1 0 19 179.28 23.2
-2 0 -19 178.58 108.09
2 0 19 163.28 22.9
-2 0 -19 188.28 30.1
3 0 19 233.18 26.4
-3 0 -19 75.19 56.99
3 0 19 282.97 115.89
-4 0 -19 115.09 99.09
4 0 19 93.99 96.79
-5 0 -19 0 64.59
5 0 19 -0.3 8.5
5 0 19 -102.29 93.09
-5 0 -19 8.2 9.3
6 0 19 202.08 25.1
6 0 19 94.79 119.69
-6 0 -19 34.6 86.19
-6 0 -19 243.28 27.8
-6 -1 19 2.7 9.6
-5 -1 19 -1 9
-5 -1 19 17.7 13.2
-5 1 19 11.1 11.7
-4 -1 19 6.8 14.7
-4 -1 19 6.4 10.9
-4 1 19 6.3 9.8
-3 -1 19 63.09 17.8
-3 -1 19 57.69 15.7
-3 1 19 84.09 21.4
-2 -1 19 2.7 10.4
-2 -1 19 17.7 10
-2 1 19 18.3 10.2
-1 -1 19 -36.8 72.59
-1 -1 19 24.6 12.5
-1 -1 19 29.8 13
-1 1 19 9 10.4
0 -1 19 36.4 53.49
0 -1 19 55.79 15.6
0 1 19 23.5 12.7
0 1 -19 36.3 61.29
-1 -1 -19 63.19 16.2
1 -1 19 -65.59 70.59
1 -1 19 72.09 17.4
1 1 19 72.09 17.9
-1 1 -19 54.59 57.49
-2 -1 -19 47.8 14.9
2 -1 19 45.5 14.7
2 -1 19 -77.59 70.69
-2 1 -19 -4 60.59
2 1 19 41.9 15
3 -1 19 15.7 9.3
-3 -1 -19 20.3 13.5
3 -1 19 11.8 106.89
-3 1 -19 -119.19 61.29
3 1 19 18.1 12.7
4 -1 19 189.78 135.59
4 -1 19 123.79 22.1
-4 1 -19 163.58 86.29
4 1 19 118.59 24.1
5 -1 19 64.49 15.9
5 1 19 47.2 15.6
-5 1 -19 42.6 74.29
-4 -2 19 215.08 31.9
-3 -2 19 134.49 22.4
-3 -2 19 215.88 39
-2 -2 19 61.79 16.5
-2 -2 19 82.09 17.9
-1 -2 19 137.29 22.5
-1 -2 19 106.19 20.8
-1 -2 19 68.49 111.79
-1 2 19 113.29 35.8
0 -2 19 75.99 16.8
0 -2 19 89.99 18
0 -2 19 133.19 87.29
0 2 19 81.19 32.9
0 2 -19 124.69 75.49
1 -2 19 209.08 23.1
1 -2 19 72.29 109.09
-1 2 -19 213.78 90.89
2 -2 19 117.99 23.9
2 -2 19 43.7 106.69
2 -2 19 95.79 17.8
-2 2 -19 50.79 83.79
3 -2 19 91.59 17.8
3 -2 19 45.6 116.59
3 -2 19 57.19 14.2
-3 2 -19 -165.88 82.99
-4 0 20 19.3 11.9
-3 0 20 50.79 15.9
-3 0 20 27.8 27
-2 0 20 -3.2 8.8
-1 0 20 16.7 12.2
1 0 20 12.6 16.4
-3 0 -20 10 8.9
3 0 20 7.5 11.4
-4 0 -20 16.4 12
4 0 20 1.7 10.1
-5 -1 20 117.99 23.7
-4 -1 20 78.19 18.3
-3 -1 20 213.98 28.3
-3 -1 20 176.88 24.2
-3 1 20 185.98 32
-2 -1 20 145.09 25.1
-2 -1 20 179.68 29.6
-2 1 20 83.09 20.3
-1 -1 20 136.19 24.1
-1 -1 20 146.89 26.3
-1 1 20 149.69 28.2
0 -1 20 158.38 25.4
0 1 20 206.78 32.5
1 -1 20 158.98 25.4
1 1 20 149.19 25.5
2 -1 20 -9.2 98.79
2 -1 20 132.89 23.5
2 1 20 127.99 24.6
3 -1 20 28 87.59
3 -1 20 92.59 19
-3 1 -20 119.79 118.49
3 1 20 72.99 18.9
4 -1 20 253.37 129.99
4 -1 20 180.28 23.6
-4 1 -20 116.99 130.19
-1 -2 20 -0.2 9.6
-1 -2 20 -10.2 13.7
0 -2 20 -1.6 10.4
0 -2 20 13.1 9
-2 0 21 3.5 11.1
-1 0 21 65.79 16.9
0 0 21 191.08 25.4
1 0 21 91.29 19.5
2 0 21 149.09 26.9
3 0 21 61.59 19.2
-3 -1 21 12.1 10.7
-2 -1 21 16.9 10.6
-1 -1 21 74.29 20.8
-1 -1 21 109.99 22.3
0 -1 21 38.7 16.9
0 -1 21 50.29 15.1
loop_
_twin_individual_id
_twin_individual_mass_fraction_refined
1 0.818(17)
2 0.182(17)
