#------------------------------------------------------------------------------
#$Date: 2022-05-02 11:58:01 +0300 (Mon, 02 May 2022) $
#$Revision: 274790 $
#$URL: file:///home/coder/svn-repositories/cod/cif/8/10/51/8105100.cif $
#------------------------------------------------------------------------------
#
# This file is available in the Crystallography Open Database (COD),
# http://www.crystallography.net/
#
# All data on this site have been placed in the public domain by the
# contributors.
#
data_8105100
loop_
_publ_author_name
'Tan, Yee Seng'
'Tiekink, Edward R.T.'
_publ_section_title
;
 Crystal structure of catena-[(bis(O,O&#x2032;-diethyl
 dithiophosphato-S,S&#x2032;)-\m2-1,2-bis(4-pyridylmethylene)hydrazine-N,N&#x2032;)cadmium(II)],
 {C20H30CdN4O4P2S4}n
;
_journal_issue                   2
_journal_name_full
'Zeitschrift f\"ur Kristallographie - New Crystal Structures'
_journal_page_first              335
_journal_page_last               337
_journal_paper_doi               10.1515/ncrs-2019-0653
_journal_volume                  235
_journal_year                    2020
_chemical_formula_moiety         'C20 H30 Cd N4 O4 P2 S4'
_chemical_formula_sum            'C20 H30 Cd N4 O4 P2 S4'
_chemical_formula_weight         693.06
_space_group_crystal_system      triclinic
_space_group_IT_number           2
_space_group_name_Hall           '-P 1'
_space_group_name_H-M_alt        'P -1'
_atom_sites_solution_hydrogens   geom
_atom_sites_solution_primary     direct
_atom_sites_solution_secondary   difmap
_audit_creation_method           SHELXL-2018/3
_cell_angle_alpha                63.153(2)
_cell_angle_beta                 64.193(2)
_cell_angle_gamma                62.710(2)
_cell_formula_units_Z            1
_cell_length_a                   9.3353(2)
_cell_length_b                   9.7725(2)
_cell_length_c                   10.6884(2)
_cell_measurement_reflns_used    15116
_cell_measurement_temperature    100(2)
_cell_measurement_theta_max      76.2600
_cell_measurement_theta_min      4.8150
_cell_volume                     740.43(3)
_computing_cell_refinement       'CrysAlisPro [1]'
_computing_data_collection       'CrysAlisPro [1]'
_computing_data_reduction        'CrysAlisPro [1]'
_computing_molecular_graphics    'ORTEP-3 for Windows [4]'
_computing_publication_material  'SHELXL-2018/3 [3]'
_computing_structure_refinement  'SHELXL-2018/3 [3]'
_computing_structure_solution    'SHELXS-97 [2]'
_diffrn_ambient_temperature      100(2)
_diffrn_detector_area_resol_mean 5.2558
_diffrn_measured_fraction_theta_full 1.000
_diffrn_measured_fraction_theta_max 1.000
_diffrn_measurement_device_type  'XtaLAB Synergy, Dualflex, AtlasS2'
_diffrn_measurement_method       '\w scans'
_diffrn_radiation_type           CuK\a
_diffrn_radiation_wavelength     1.54184
_diffrn_reflns_av_R_equivalents  0.0217
_diffrn_reflns_av_unetI/netI     0.0117
_diffrn_reflns_Laue_measured_fraction_full 1.000
_diffrn_reflns_Laue_measured_fraction_max 1.000
_diffrn_reflns_limit_h_max       9
_diffrn_reflns_limit_h_min       -11
_diffrn_reflns_limit_k_max       11
_diffrn_reflns_limit_k_min       -11
_diffrn_reflns_limit_l_max       10
_diffrn_reflns_limit_l_min       -12
_diffrn_reflns_number            17287
_diffrn_reflns_point_group_measured_fraction_full 1.000
_diffrn_reflns_point_group_measured_fraction_max 1.000
_diffrn_reflns_theta_full        67.028
_diffrn_reflns_theta_max         67.028
_diffrn_reflns_theta_min         4.842
_diffrn_source                   'micro-focus sealed X-ray tube'
_exptl_absorpt_coefficient_mu    9.841
_exptl_absorpt_correction_T_max  0.823
_exptl_absorpt_correction_T_min  0.301
_exptl_absorpt_correction_type   gaussian
_exptl_absorpt_process_details   'CrysAlisPro [1]'
_exptl_crystal_colour            yellow
_exptl_crystal_density_diffrn    1.554
_exptl_crystal_description       prism
_exptl_crystal_F_000             352
_exptl_crystal_size_max          0.184
_exptl_crystal_size_mid          0.110
_exptl_crystal_size_min          0.087
_refine_diff_density_max         0.293
_refine_diff_density_min         -0.481
_refine_diff_density_rms         0.066
_refine_ls_extinction_coef       .
_refine_ls_extinction_method     none
_refine_ls_goodness_of_fit_ref   1.032
_refine_ls_hydrogen_treatment    constr
_refine_ls_matrix_type           full
_refine_ls_number_parameters     162
_refine_ls_number_reflns         2640
_refine_ls_number_restraints     0
_refine_ls_restrained_S_all      1.032
_refine_ls_R_factor_all          0.0171
_refine_ls_R_factor_gt           0.0171
_refine_ls_shift/su_max          0.000
_refine_ls_shift/su_mean         0.000
_refine_ls_structure_factor_coef Fsqd
_refine_ls_weighting_details
'w=1/[\s^2^(Fo^2^)+(0.0295P)^2^+0.4035P] where P=(Fo^2^+2Fc^2^)/3'
_refine_ls_weighting_scheme      calc
_refine_ls_wR_factor_gt          0.0465
_refine_ls_wR_factor_ref         0.0465
_reflns_Friedel_coverage         0.000
_reflns_Friedel_fraction_full    .
_reflns_Friedel_fraction_max     .
_reflns_number_gt                2640
_reflns_number_total             2640
_reflns_threshold_expression     'I > 2\s(I)'
_cod_data_source_file            suppl_ncrs-2019-0653_suppl.cif
_cod_data_source_block           shelx
_cod_database_code               8105100
_shelx_shelxl_version_number     2018/3
_shelx_space_group_comment
;
The symmetry employed for this shelxl refinement is uniquely defined
by the following loop, which should always be used as a source of
symmetry information in preference to the above space-group names.
They are only intended as comments.
;
_shelx_estimated_absorpt_t_min   0.265
_shelx_estimated_absorpt_t_max   0.481
_shelx_res_file
;
TITL 29
    shelx.res
    created by SHELXL-2018/3 at 12:57:03 on 16-Jun-2019
CELL 1.54184 9.3353 9.7725 10.6884 63.153 64.193 62.710
ZERR 1       0.0002 0.0002  0.0002  0.002  0.002  0.002
LATT 1
SFAC C  H  N  O  P  S  Cd
UNIT 20  30  4  4  2  4  1
OMIT  -3.00 150.00
L.S. 18
ACTA
BOND $H
CONF
FMAP 2
PLAN -1
SIZE 0.087 0.110 0.184
TEMP -173
WGHT    0.029500    0.403500
FVAR       0.68719
CD    7    0.500000    0.500000    1.000000    10.50000    0.01910    0.01967 =
         0.01540   -0.00610   -0.00251   -0.01150
S1    6    0.437844    0.736910    0.756439    11.00000    0.01719    0.01957 =
         0.01976   -0.00722   -0.00490   -0.00285
S2    6    0.781897    0.407473    0.792989    11.00000    0.01560    0.01610 =
         0.01948   -0.00575   -0.00464   -0.00547
P1    5    0.669083    0.615248    0.660701    11.00000    0.01461    0.01819 =
         0.01579   -0.00551   -0.00378   -0.00708
O1    4    0.653372    0.590943    0.530656    11.00000    0.01534    0.03303 =
         0.01956   -0.01341   -0.00295   -0.00766
O2    4    0.795025    0.716787    0.585180    11.00000    0.01960    0.02083 =
         0.02346   -0.00049   -0.00834   -0.01081
N1    3    0.374741    0.343973    0.972174    11.00000    0.02424    0.02125 =
         0.02053   -0.00600   -0.00681   -0.01225
N2    3    0.019259    0.054021    1.012097    11.00000    0.02626    0.02182 =
         0.02499   -0.01050   -0.00703   -0.01275
C1    1    0.805180    0.506839    0.435800    11.00000    0.01772    0.04330 =
         0.02328   -0.02004    0.00092   -0.00913
AFIX  23
H1A   2    0.893396    0.438216    0.486862    11.00000   -1.20000
H1B   2    0.849115    0.586777    0.345291    11.00000   -1.20000
AFIX   0
C2    1    0.760602    0.404148    0.398662    11.00000    0.03048    0.05988 =
         0.05619   -0.04258   -0.00492   -0.01043
AFIX 137
H2A   2    0.859683    0.350611    0.331630    11.00000   -1.50000
H2B   2    0.670229    0.472448    0.351581    11.00000   -1.50000
H2C   2    0.722602    0.321908    0.488372    11.00000   -1.50000
AFIX   0
C3    1    0.749803    0.879901    0.481860    11.00000    0.03169    0.02360 =
         0.03863    0.00606   -0.01768   -0.01408
AFIX  23
H3A   2    0.652187    0.954195    0.533556    11.00000   -1.20000
H3B   2    0.718928    0.877899    0.405200    11.00000   -1.20000
AFIX   0
C4    1    0.897652    0.936565    0.414557    11.00000    0.03400    0.02494 =
         0.05442    0.00337   -0.01928   -0.01603
AFIX 137
H4A   2    0.870227    1.045995    0.344756    11.00000   -1.50000
H4B   2    0.993353    0.862601    0.363273    11.00000   -1.50000
H4C   2    0.926936    0.938490    0.491230    11.00000   -1.50000
AFIX   0
C5    1    0.216883    0.345903    1.045980    11.00000    0.02860    0.05172 =
         0.04630   -0.03663    0.00570   -0.02212
AFIX  43
H5    2    0.150836    0.412889    1.107210    11.00000   -1.20000
AFIX   0
C6    1    0.143441    0.255647    1.038513    11.00000    0.02591    0.04752 =
         0.04073   -0.03054    0.00626   -0.02240
AFIX  43
H6    2    0.030023    0.261564    1.093482    11.00000   -1.20000
AFIX   0
C7    1    0.235849    0.157621    0.951068    11.00000    0.02418    0.02085 =
         0.02205   -0.00722   -0.00688   -0.01094
C8    1    0.398613    0.156823    0.872643    11.00000    0.03265    0.06289 =
         0.06301   -0.05023    0.01278   -0.02763
AFIX  43
H8    2    0.466819    0.091970    0.809652    11.00000   -1.20000
AFIX   0
C9    1    0.462539    0.251348    0.886125    11.00000    0.02839    0.05532 =
         0.05194   -0.03811    0.00999   -0.02669
AFIX  43
H9    2    0.574927    0.249402    0.830795    11.00000   -1.20000
AFIX   0
C10   1    0.168546    0.054684    0.940852    11.00000    0.02619    0.02521 =
         0.02773   -0.01482   -0.00396   -0.01140
AFIX  43
H10   2    0.238062   -0.012362    0.879892    11.00000   -1.20000
AFIX   0
HKLF 4




REM  29
REM wR2 = 0.0465, GooF = S = 1.032, Restrained GooF = 1.032 for all data
REM R1 = 0.0171 for 2640 Fo > 4sig(Fo) and 0.0171 for all 2640 data
REM 162 parameters refined using 0 restraints

END

WGHT      0.0245      0.4074

REM Highest difference peak  0.293,  deepest hole -0.481,  1-sigma level  0.066
Q1    1   0.8341  0.9656  0.5038  11.00000  0.05    0.29
;
_shelx_hkl_file
;
   0   0   1 1108.60   17.03
   0   0  -1 1092.85   17.40
   0   0  -1 1061.37   17.09
   0   0  -1 1095.62   17.13
   0   0  -1 1064.59   16.84
   0   0  -2 3051.95   46.59
   0   0  -2 2915.55   46.33
   0   0  -2 3007.15   45.93
   0   0   2 2965.01   46.25
   0   0  -3 1203.41   19.75
   0   0  -3 1196.54   18.88
   0   0  -3 1076.89   19.31
   0   0  -3 1209.10   19.12
   0   0   3 1195.69   19.45
   0   0   3 1104.41   19.64
   0   0  -3 1067.54   19.56
   0   0  -4 1726.95   28.06
   0   0  -4 1675.07   28.97
   0   0   4 1609.57   29.58
   0   0  -4 1817.37   29.76
   0   0  -4 1853.16   28.35
   0   0   4 1790.81   29.28
   0   0  -5 1569.27   28.16
   0   0   5 1544.28   28.23
   0   0  -5 1550.69   25.47
   0   0   5 1570.36   27.56
   0   0  -5 1582.11   27.17
   0   0  -6  288.37    7.01
   0   0  -6  273.52    7.98
   0   0  -6  284.16    7.37
   0   0  -6  286.73    7.41
   0   0  -6  289.34    7.62
   0   0  -6  275.86    6.99
   0   0  -6  272.62    7.17
   0   0   6  273.99    8.13
   0   0   6  283.74    7.53
   0   0  -6  278.19    7.71
   0   0  -7   16.10    1.91
   0   0   7   18.57    2.13
   0   0   7   18.58    2.08
   0   0  -7   18.13    1.87
   0   0  -7   20.93    1.82
   0   0  -7   16.89    1.96
   0   0  -7   14.92    1.63
   0   0  -7   16.18    1.72
   0   0  -7   16.05    1.47
   0   0  -7   16.38    1.76
   0   0   7   19.13    1.87
   0   0   8  196.71    7.28
   0   0  -8  239.08    6.93
   0   0  -8  211.53    7.71
   0   0  -8  206.57    7.23
   0   0  -8  205.97    6.78
   0   0  -8  210.53    7.00
   0   0  -8  205.00    7.37
   0   0   8  204.01    6.64
   0   0   8  206.16    7.50
   0   0  -8  206.50    6.95
   0   0  -9  615.64   14.52
   0   0  -9  626.49   13.22
   0   0  -9  621.97   13.68
   0   0  -9  608.55   14.00
   0   0  -9  615.08   14.05
   0   0   9  622.13   14.39
   0   0   9  614.29   14.27
   0   0  -9  598.10   14.16
   0   0 -10   24.88    1.86
   0   0 -10   23.75    1.81
   0   0 -10   21.67    1.94
   0   0 -10   24.09    1.50
   0   0 -10   22.09    1.62
   0   1 -10   51.20    2.46
   0   1 -10   48.64    2.40
   0   1 -10   48.64    2.58
   0   1  -9  207.14    6.32
   0   1  -9  213.98    7.45
   0   1  -9  212.64    6.86
   0   1  -9  208.63    6.93
   0   1  -9  211.80    6.83
   0   1  -9  209.70    5.77
   0   1  -8  118.13    4.53
   0   1  -8  117.90    4.91
   0   1  -8  125.39    5.45
   0   1  -8  119.86    5.27
   0   1  -8  124.64    5.32
   0   1  -8  116.10    5.57
   0  -1   8  123.10    5.11
   0  -1   8  119.21    5.30
   0   1  -8  123.11    5.31
   0  -1   8  126.25    5.49
   0   1  -7  137.47    5.47
   0  -1   7  137.55    5.80
   0   1  -7  143.22    5.05
   0   1  -7  147.54    5.41
   0  -1   7  141.38    5.61
   0  -1   7  147.71    6.07
   0   1  -7  136.90    5.79
   0   1  -7  145.17    5.95
   0   1  -7  139.37    5.49
   0   1  -6  553.77   11.91
   0   1  -6  545.30   13.19
   0  -1   6  567.19   13.09
   0  -1   6  570.16   13.61
   0  -1   6  574.34   13.42
   0   1  -6  606.54   11.11
   0   1  -6  559.29   12.99
   0   1  -6  585.89   12.75
   0   1  -6  574.91   12.51
   0   1  -6  584.98   12.72
   0  -1   5  451.56   10.64
   0   1  -5  465.04    9.00
   0   1  -5  438.88   10.09
   0  -1   5  459.46   10.48
   0   1  -5  438.86   10.49
   0  -1   5  442.85   10.78
   0   1  -5  441.66   10.09
   0   1  -5  438.51   10.11
   0   1  -4  384.53    6.88
   0  -1   4  383.32    8.96
   0   1  -4  402.79    8.30
   0  -1   4  385.96    8.75
   0  -1   4  394.49    8.87
   0   1  -4  405.95    7.69
   0   1  -3  805.98   12.99
   0  -1   3  799.94   14.20
   0  -1   3  828.24   14.03
   0   1  -3  807.74   13.56
   0  -1   3  817.99   14.06
   0  -1   2 1548.72   25.83
   0   1  -2 1579.15   24.96
   0  -1   2 1478.37   25.50
   0   1  -2 1586.26   25.81
   0   1  -2 1600.45   24.91
   0   1  -2 1517.19   25.62
   0  -1   2 1615.73   24.55
   0   1  -1  119.16    2.09
   0  -1   1  116.17    2.70
   0   1  -1  109.40    2.91
   0   1  -1  120.28    2.76
   0  -1   1  118.25    2.46
   0  -1   1  117.86    2.67
   0   1   0 3452.60   52.11
   0  -1   0 3177.73   51.93
   0   1   0 3361.45   52.22
   0  -1   0 3623.64   52.21
   0   1   1  516.42    8.33
   0  -1  -1  518.73    8.55
   0   1   1  517.48    8.42
   0  -1  -1  533.48    8.78
   0   1   2  848.84   13.99
   0  -1  -2  847.85   14.34
   0  -1  -2  801.77   14.05
   0  -1  -2  845.34   14.15
   0   1   2  854.69   13.49
   0  -1  -3  360.28    6.97
   0  -1  -3  350.95    7.30
   0  -1  -3  360.72    7.35
   0   1   3  347.19    6.53
   0  -1  -3  359.92    5.86
   0   1   3  338.96    7.12
   0  -1  -4  875.15   16.49
   0   1   4  877.61   16.36
   0   1   4  916.60   15.55
   0  -1  -4  917.85   16.42
   0  -1  -4  915.54   16.49
   0  -1  -4  884.26   15.45
   0  -1  -5 1599.70   26.33
   0  -1  -5 1585.05   27.80
   0  -1  -5 1637.01   28.31
   0   1   5 1700.69   27.17
   0   1   5 1646.02   28.31
   0  -1  -6  686.68   13.48
   0  -1  -6  669.30   14.69
   0  -1  -6  683.44   13.51
   0  -1  -6  677.25   13.99
   0  -1  -6  683.53   14.31
   0  -1  -6  696.22   13.53
   0  -1  -6  669.37   14.03
   0   1   6  692.63   13.46
   0  -1  -6  673.10   13.53
   0   1   6  662.50   14.63
   0  -1  -6  678.72   12.04
   0  -1  -7    3.35    0.89
   0  -1  -7    5.59    1.02
   0  -1  -7    4.20    0.95
   0  -1  -7    3.80    1.02
   0  -1  -7    5.81    1.28
   0  -1  -7    4.10    1.05
   0  -1  -7    4.80    1.01
   0   1   7    3.53    1.21
   0   1   7    4.40    0.92
   0  -1  -7    3.26    0.92
   0  -1  -8   48.85    2.78
   0  -1  -8   42.47    3.18
   0  -1  -8   38.76    2.72
   0   1   8   44.88    2.65
   0  -1  -8   41.86    3.09
   0  -1  -8   43.08    2.85
   0  -1  -8   40.47    3.18
   0   1   8   41.74    3.18
   0   1   8   37.56    3.05
   0  -1  -8   40.10    2.73
   0  -1  -8   39.82    2.72
   0   1   9 1124.22   22.86
   0  -1  -9 1124.33   21.98
   0  -1  -9 1152.08   22.09
   0  -1  -9 1127.84   21.91
   0  -1  -9 1129.21   21.69
   0   1   9 1082.80   22.74
   0  -1  -9 1123.66   23.05
   0  -1  -9 1103.17   22.66
   0  -1 -10  193.99    5.83
   0  -1 -10  206.25    6.76
   0  -1 -10  196.88    5.81
   0  -1 -10  194.30    5.84
   0  -1 -10  199.99    5.72
   0  -1 -11    7.29    1.01
   0  -1 -11    5.16    0.86
   0   2 -10  283.64    6.28
   0   2 -10  293.37    6.32
   0   2  -9   34.07    2.60
   0   2  -9   35.01    2.44
   0   2  -9   33.57    2.34
   0   2  -9   35.72    2.45
   0   2  -9   32.41    2.04
   0   2  -8   57.95    3.57
   0   2  -8   58.56    3.31
   0  -2   8   57.16    3.47
   0   2  -8   59.56    3.56
   0   2  -8   61.21    3.85
   0   2  -8   63.24    3.61
   0   2  -8   58.13    3.58
   0   2  -8   54.72    2.76
   0  -2   8   56.83    3.39
   0   2  -7   97.24    4.02
   0   2  -7   98.77    4.76
   0   2  -7   96.61    4.90
   0  -2   7   97.12    4.80
   0  -2   7   90.14    4.44
   0   2  -7   99.32    4.52
   0   2  -7   95.84    4.78
   0  -2   7  100.43    4.79
   0   2  -7  100.94    4.79
   0  -2   6 1431.31   27.54
   0   2  -6 1382.51   26.16
   0   2  -6 1408.00   26.67
   0  -2   6 1409.57   26.75
   0   2  -6 1400.42   26.91
   0   2  -6 1424.32   27.26
   0   2  -6 1430.75   26.72
   0  -2   6 1444.49   27.27
   0  -2   5  540.43   12.69
   0   2  -5  553.13   12.33
   0  -2   5  549.95   12.96
   0   2  -5  587.51   11.99
   0  -2   5  560.67   12.53
   0   2  -5  557.00   12.40
   0   2  -5  535.97   12.04
   0   2  -5  538.67   12.04
   0  -2   4   29.19    2.00
   0  -2   4   28.07    2.05
   0  -2   4   27.60    2.08
   0   2  -4   27.75    1.96
   0  -2   3   57.47    2.68
   0   2  -3   60.64    1.48
   0   2  -3   65.00    2.13
   0  -2   3   59.59    2.47
   0   2  -3   59.43    2.70
   0  -2   3   59.11    2.72
   0   2  -3   59.25    2.68
   0  -2   3   57.80    1.55
   0  -2   2 3740.73   57.87
   0  -2   2 3863.63   58.51
   0   2  -2 3815.06   59.76
   0  -2   2 3470.01   59.01
   0   2  -2 3432.53   59.21
   0  -2   2 3940.03   59.38
   0   2  -1   63.96    2.35
   0  -2   1   67.01    2.25
   0  -2   1   68.93    1.76
   0  -2   1   66.84    2.16
   0   2   0  427.66    8.15
   0  -2   0  433.83    7.65
   0  -2   0  442.51    8.05
   0  -2   0  450.49    7.05
   0  -2  -1  884.95   14.20
   0  -2  -1  855.22   14.55
   0  -2  -1  857.21   13.65
   0   2   1  833.37   14.34
   0   2   1  889.92   14.53
   0  -2  -1  874.97   13.87
   0   2   1  858.55   13.62
   0  -2  -2  272.08    5.74
   0   2   2  267.39    5.06
   0   2   2  265.83    4.85
   0  -2  -2  268.88    5.33
   0  -2  -3 3534.91   54.97
   0  -2  -3 3392.64   54.95
   0  -2  -3 3297.72   54.97
   0   2   3 3558.87   54.62
   0  -2  -3 3509.13   53.99
   0  -2  -3 3366.15   55.32
   0  -2  -4 1140.30   20.85
   0  -2  -4 1156.12   20.86
   0   2   4 1206.95   19.29
   0  -2  -4 1186.29   19.02
   0   2   4 1180.50   20.59
   0  -2  -4 1130.86   21.08
   0  -2  -4 1182.03   20.52
   0   2   5  595.00   12.55
   0  -2  -5  622.85   11.87
   0  -2  -5  630.66   12.91
   0   2   5  604.53   11.12
   0  -2  -5  636.05   13.00
   0  -2  -5  614.09   12.89
   0  -2  -6  586.43   11.38
   0   2   6  575.58   12.98
   0  -2  -6  604.17   13.05
   0  -2  -6  572.27   12.57
   0  -2  -6  592.33   12.22
   0  -2  -6  575.64   12.20
   0  -2  -6  572.77   13.15
   0  -2  -6  586.40   12.71
   0   2   6  594.88   11.23
   0  -2  -7  401.45   10.02
   0  -2  -7  407.03    9.83
   0  -2  -7  412.04    9.96
   0   2   7  412.08   10.92
   0  -2  -7  406.60    9.85
   0  -2  -7  410.99   11.06
   0  -2  -7  415.33   10.40
   0  -2  -7  410.24   10.49
   0  -2  -8    4.91    1.12
   0  -2  -8    5.79    1.14
   0  -2  -8    4.43    1.22
   0  -2  -8    8.83    1.61
   0   2   8    5.51    1.35
   0  -2  -8    5.40    1.17
   0  -2  -8   13.36    1.61
   0  -2  -8   17.29    1.82
   0  -2  -9  646.90   14.06
   0  -2  -9  621.43   14.87
   0  -2  -9  651.23   14.36
   0   2   9  626.40   14.97
   0  -2  -9  638.12   14.00
   0  -2  -9  636.13   15.29
   0  -2  -9  621.80   14.22
   0   2   9  622.37   14.93
   0   2   9  617.09   14.88
   0  -2 -10  326.46    8.17
   0  -2 -10  348.10    8.65
   0  -2 -10  333.54    9.51
   0  -2 -10  328.13    8.20
   0  -2 -10  338.23    8.57
   0  -2 -11   22.60    1.76
   0  -2 -11   19.51    1.25
   0   3  -9    7.00    1.03
   0   3  -9    8.50    1.03
   0   3  -9    8.80    1.14
   0   3  -8  158.34    6.06
   0   3  -8  158.92    5.94
   0   3  -8  156.58    5.54
   0   3  -8  158.16    5.94
   0   3  -8  153.47    5.29
   0   3  -7   50.75    2.69
   0  -3   7   46.77    3.22
   0   3  -7   52.08    3.53
   0   3  -7   46.24    3.19
   0   3  -7   48.61    3.40
   0  -3   7   50.89    3.35
   0   3  -7   55.22    3.63
   0   3  -7   55.72    3.33
   0  -3   6  629.79   13.63
   0   3  -6  621.72   14.87
   0   3  -6  652.33   14.50
   0   3  -6  626.15   14.88
   0   3  -6  628.66   14.94
   0  -3   6  635.64   15.16
   0  -3   6  638.25   15.04
   0   3  -6  618.76   14.93
   0  -3   5 1107.08   22.12
   0   3  -5 1075.36   21.34
   0   3  -5 1126.60   21.06
   0   3  -5 1023.27   21.16
   0  -3   5 1070.57   20.65
   0  -3   5 1069.00   22.01
   0   3  -5 1076.10   21.34
   0  -3   4    5.11    0.97
   0   3  -4    4.34    1.17
   0   3  -4    6.33    1.01
   0   3  -4    3.32    0.87
   0  -3   4    3.80    1.09
   0  -3   4    3.77    0.98
   0   3  -4    8.35    1.17
   0   3  -4    9.10    1.21
   0   3  -4    4.47    1.14
   0   3  -3   65.34    3.26
   0  -3   3   66.71    2.08
   0   3  -3   72.21    3.40
   0  -3   3   69.39    3.32
   0  -3   3   68.92    3.30
   0  -3   3   70.63    2.76
   0   3  -2 1387.03   25.00
   0  -3   2 1327.21   23.97
   0  -3   2 1279.20   23.93
   0  -3   2 1376.76   22.72
   0   3  -2 1432.52   24.56
   0  -3   2 1373.65   22.71
   0  -3   1 1692.74   27.04
   0  -3   1 1535.30   27.34
   0   3  -1 1599.82   27.79
   0  -3   1 1673.58   27.23
   0   3  -1 1573.15   28.83
   0  -3   1 1623.22   25.85
   0  -3   0    7.45    0.28
   0   3   0    8.96    1.32
   0   3   0    7.69    0.85
   0  -3   0    7.71    0.89
   0  -3   0    7.44    0.70
   0   3   0    8.00    1.02
   0  -3   0    7.48    0.32
   0  -3  -1   10.12    0.66
   0  -3  -1    8.73    0.89
   0   3   1   10.22    1.11
   0  -3  -1   11.51    0.54
   0  -3  -1    9.75    0.62
   0   3   1    8.21    0.93
   0   3   2   69.19    1.77
   0  -3  -2   68.18    2.56
   0   3   2   74.80    2.66
   0  -3  -2   74.35    2.69
   0  -3  -2   71.58    2.44
   0  -3  -2   67.63    1.37
   0   3   2   67.41    2.20
   0  -3  -2   66.53    2.03
   0  -3  -3  628.32   12.22
   0   3   3  592.75   10.27
   0  -3  -3  626.93   11.44
   0  -3  -3  622.21   12.24
   0   3   3  628.20   11.95
   0   3   3  617.25   10.93
   0   3   3  625.33   11.77
   0  -3  -3  611.07   11.91
   0  -3  -3  620.24   11.46
   0  -3  -4 1184.23   21.75
   0  -3  -4 1165.52   21.91
   0   3   4 1224.09   20.93
   0   3   4 1233.96   21.83
   0  -3  -4 1189.78   22.18
   0  -3  -4 1221.06   20.46
   0  -3  -4 1244.13   21.58
   0  -3  -5  313.47    7.99
   0  -3  -5  311.72    8.28
   0  -3  -5  321.32    7.85
   0   3   5  307.48    7.56
   0  -3  -5  313.49    6.28
   0  -3  -5  323.06    8.18
   0   3   5  312.26    8.07
   0  -3  -6   25.69    1.95
   0  -3  -6   27.34    2.29
   0  -3  -6   23.59    1.79
   0   3   6   26.23    2.21
   0  -3  -6   25.52    1.72
   0  -3  -6   25.37    2.01
   0  -3  -6   26.62    1.97
   0  -3  -6   28.88    2.37
   0   3   6   25.25    2.04
   0  -3  -6   23.92    1.68
   0  -3  -7 1129.71   23.07
   0  -3  -7 1132.58   21.45
   0   3   7 1100.03   22.92
   0  -3  -7 1137.26   22.55
   0   3   7 1113.43   22.48
   0  -3  -7 1123.00   22.02
   0  -3  -7 1211.44   23.07
   0  -3  -7 1200.43   22.20
   0  -3  -7 1117.50   21.38
   0  -3  -8  161.98    5.98
   0  -3  -8  158.36    6.38
   0  -3  -8  152.15    5.51
   0  -3  -8  157.39    5.61
   0   3   8  160.02    6.47
   0  -3  -8  161.18    6.06
   0   3   8  159.51    6.26
   0  -3  -8  159.28    6.51
   0  -3  -8  158.64    6.07
   0  -3  -9  222.44    6.77
   0  -3  -9  221.45    7.19
   0  -3  -9  225.76    7.40
   0   3   9  222.36    7.65
   0   3   9  217.64    7.43
   0  -3  -9  223.33    6.78
   0  -3  -9  224.34    7.95
   0  -3  -9  225.50    7.28
   0  -3  -9  225.89    7.70
   0  -3 -10  101.11    4.81
   0  -3 -10  104.73    4.53
   0  -3 -10   95.88    4.21
   0  -3 -10  101.54    3.77
   0  -3 -10  106.54    4.28
   0  -3 -10   96.30    3.69
   0  -3 -11  128.51    3.97
   0  -3 -11  132.93    4.49
   0  -3 -11  127.37    4.07
   0   4  -8  282.06    7.68
   0   4  -8  265.14    6.59
   0   4  -8  269.31    6.87
   0   4  -8  284.72    7.68
   0   4  -8  275.84    7.50
   0   4  -7  417.10   11.20
   0   4  -7  423.39   11.22
   0   4  -7  406.63   10.34
   0   4  -7  425.11   11.07
   0  -4   6    7.73    1.43
   0   4  -6    7.66    1.51
   0   4  -6    7.11    1.41
   0  -4   6    8.96    1.55
   0   4  -6    5.96    1.42
   0   4  -6    7.69    1.39
   0   4  -6    7.81    1.41
   0   4  -5  459.14   12.05
   0  -4   5  443.94   12.08
   0   4  -5  465.07   11.37
   0   4  -5  451.84   11.96
   0  -4   5  462.46   11.98
   0   4  -5  449.73   11.75
   0  -4   4  266.13    8.35
   0   4  -4  258.43    7.86
   0  -4   4  265.49    8.23
   0   4  -4  244.22    7.46
   0   4  -4  269.12    8.22
   0   4  -4  266.16    7.98
   0   4  -4  253.87    6.86
   0   4  -3   26.79    2.45
   0   4  -3   28.74    2.03
   0   4  -3   26.46    2.42
   0  -4   3   29.46    2.38
   0  -4   3   29.03    1.49
   0  -4   3   28.86    2.35
   0  -4   2  652.99   13.55
   0  -4   2  636.66   12.28
   0   4  -2  608.05   14.42
   0  -4   2  632.39   13.61
   0   4  -2  638.20   14.08
   0  -4   1 1507.48   25.51
   0  -4   1 1489.62   25.52
   0  -4   1 1414.77   25.89
   0   4  -1 1414.83   26.30
   0   4  -1 1448.76   27.81
   0  -4   0   89.57    2.93
   0   4   0   80.93    4.17
   0   4   0   87.11    3.30
   0  -4   0   86.43    3.36
   0  -4   0   88.37    3.45
   0   4   0   88.22    3.58
   0   4   1  291.11    7.14
   0  -4  -1  291.31    7.12
   0  -4  -1  298.64    7.50
   0   4   1  311.02    7.20
   0   4   1  288.86    7.97
   0  -4  -1  304.91    5.94
   0  -4  -2   31.27    0.83
   0  -4  -2   39.41    1.74
   0   4   2   34.51    1.85
   0  -4  -2   32.41    2.12
   0  -4  -2   35.03    1.29
   0   4   2   36.90    2.32
   0   4   3  816.71   15.79
   0  -4  -3  794.16   15.53
   0   4   3  808.19   15.72
   0  -4  -3  834.29   15.88
   0   4   3  809.09   13.70
   0  -4  -3  830.62   15.54
   0   4   3  798.65   14.19
   0  -4  -3  835.47   14.59
   0  -4  -4 1299.28   23.44
   0  -4  -4 1228.98   21.90
   0   4   4 1211.35   20.95
   0   4   4 1229.48   22.53
   0  -4  -4 1263.84   22.90
   0  -4  -4 1271.87   22.03
   0   4   4 1200.07   22.69
   0  -4  -5  304.62    8.29
   0  -4  -5  299.00    8.51
   0   4   5  293.27    6.99
   0  -4  -5  295.33    7.63
   0  -4  -5  310.42    7.79
   0   4   5  306.55    8.21
   0  -4  -5  297.79    6.83
   0  -4  -5  309.38    7.66
   0  -4  -5  293.85    7.51
   0  -4  -6  270.01    8.24
   0   4   6  254.79    7.09
   0   4   6  277.65    8.23
   0  -4  -6  283.29    7.74
   0  -4  -6  256.01    6.73
   0   4   6  266.87    7.57
   0  -4  -6  268.68    7.67
   0  -4  -6  267.43    8.26
   0  -4  -6  278.39    7.63
   0  -4  -6  259.27    6.24
   0  -4  -6  267.58    7.01
   0  -4  -6  251.77    6.34
   0  -4  -6  275.59    6.89
   0  -4  -7 1328.43   25.80
   0  -4  -7 1267.15   24.80
   0  -4  -7 1278.27   24.15
   0   4   7 1276.48   24.41
   0  -4  -7 1325.98   25.96
   0  -4  -7 1279.96   23.90
   0  -4  -7 1303.90   24.87
   0   4   7 1244.63   25.55
   0   4   7 1307.42   24.43
   0  -4  -7 1292.00   23.95
   0  -4  -7 1298.80   25.31
   0   4   8  654.57   15.94
   0   4   8  645.57   14.49
   0  -4  -8  687.35   15.78
   0  -4  -8  722.47   15.75
   0  -4  -8  687.58   16.33
   0  -4  -8  685.27   15.10
   0  -4  -8  667.20   16.20
   0   4   8  663.79   15.08
   0  -4  -8  664.99   14.55
   0  -4  -8  676.08   15.72
   0  -4  -8  670.35   14.58
   0  -4  -9  196.89    6.72
   0  -4  -9  181.95    6.41
   0  -4  -9  178.45    5.76
   0  -4  -9  175.49    6.71
   0   4   9  182.23    6.28
   0  -4  -9  180.64    6.66
   0  -4  -9  173.55    5.68
   0  -4  -9  177.06    7.02
   0   4   9  170.78    6.62
   0  -4 -10    8.55    1.34
   0  -4 -10    4.20    1.00
   0  -4 -10    6.90    1.26
   0  -4 -11   68.54    2.86
   0  -4 -11   67.45    2.92
   0  -4 -11   68.26    3.01
   0   5  -7  646.38   14.13
   0   5  -7  648.72   13.02
   0   5  -7  625.69   13.39
   0   5  -7  643.09   14.15
   0   5  -6    3.53    1.02
   0   5  -6    3.25    1.14
   0   5  -6    6.20    1.27
   0   5  -6    2.98    1.23
   0   5  -5    5.37    1.41
   0   5  -5    5.41    1.19
   0   5  -5    5.39    1.35
   0   5  -5    3.72    1.05
   0  -5   5    5.19    1.26
   0  -5   5    3.65    1.05
   0  -5   4  366.06   10.36
   0   5  -4  377.67   10.79
   0   5  -4  367.65    9.98
   0  -5   4  349.48    8.75
   0   5  -4  387.04   10.90
   0  -5   4  371.62   10.35
   0   5  -4  402.26   10.70
   0   5  -3  402.13   11.14
   0  -5   3  396.43   10.76
   0   5  -3  392.93   10.02
   0   5  -3  407.89   11.21
   0  -5   3  405.71   10.73
   0   5  -2  648.47   15.95
   0  -5   2  673.75   12.68
   0  -5   2  662.58   13.38
   0  -5   2  685.67   14.99
   0   5  -2  653.08   15.46
   0   5  -2  645.40   13.50
   0  -5   2  672.02   14.60
   0  -5   1  186.37    5.35
   0  -5   1  197.15    6.03
   0  -5   1  196.38    6.33
   0   5  -1  183.92    7.48
   0  -5   1  190.55    5.82
   0   5  -1  189.11    6.66
   0  -5   0   90.79    4.05
   0  -5   0   93.63    3.57
   0   5   0   91.65    3.88
   0  -5   0   92.32    3.95
   0   5   0   90.23    4.19
   0   5   0   84.35    4.97
   0  -5   0   94.67    3.59
   0  -5   0   95.06    3.41
   0  -5   0  100.14    3.79
   0   5   1  660.41   13.92
   0  -5  -1  659.23   11.75
   0   5   1  678.79   13.83
   0  -5  -1  684.94   14.57
   0  -5  -2 1402.08   26.35
   0   5   2 1374.40   24.90
   0   5   2 1386.63   25.49
   0  -5  -3  261.90    6.73
   0  -5  -3  272.95    6.53
   0   5   3  257.11    7.29
   0  -5  -3  264.15    6.83
   0   5   3  274.58    7.97
   0  -5  -3  258.77    7.06
   0   5   3  249.42    6.08
   0  -5  -4  546.10   12.08
   0   5   4  557.13   12.63
   0  -5  -4  552.09   12.01
   0  -5  -4  569.18   12.44
   0  -5  -4  571.12   12.34
   0  -5  -4  535.79   11.35
   0   5   4  542.31   12.81
   0  -5  -4  555.37   11.95
   0  -5  -5 1240.45   24.12
   0  -5  -5 1188.33   22.10
   0  -5  -5 1253.96   21.48
   0  -5  -5 1226.90   22.28
   0  -5  -5 1249.41   23.20
   0   5   5 1289.46   21.13
   0  -5  -5 1192.98   22.11
   0  -5  -5 1197.05   21.62
   0  -5  -5 1234.67   22.92
   0  -5  -5 1257.03   23.33
   0  -5  -5 1224.01   22.67
   0  -5  -5 1261.01   24.28
   0   5   5 1220.56   23.99
   0   5   5 1273.94   24.00
   0  -5  -6   14.24    1.57
   0  -5  -6   13.74    1.47
   0  -5  -6   13.60    1.46
   0  -5  -6   16.75    1.88
   0  -5  -6   16.13    1.85
   0  -5  -6   13.56    1.49
   0  -5  -6   17.09    2.06
   0  -5  -6   16.01    1.60
   0   5   6   13.66    1.77
   0   5   6   12.70    1.27
   0   5   6   14.34    1.86
   0  -5  -6   15.16    1.37
   0   5   7  674.42   15.06
   0  -5  -7  680.15   16.19
   0  -5  -7  675.59   13.62
   0  -5  -7  643.02   14.17
   0   5   7  683.80   16.06
   0  -5  -7  658.66   14.25
   0  -5  -7  657.08   13.88
   0  -5  -7  670.69   15.48
   0  -5  -7  665.74   14.23
   0  -5  -7  680.82   15.79
   0  -5  -7  681.71   15.55
   0   5   7  675.41   13.78
   0  -5  -8  730.67   15.50
   0  -5  -8  738.91   16.58
   0  -5  -8  727.09   16.58
   0   5   8  725.87   16.87
   0  -5  -8  709.21   15.06
   0   5   8  717.88   14.55
   0  -5  -8  726.30   16.68
   0   5   8  697.56   15.58
   0  -5  -8  724.54   15.14
   0  -5  -8  718.43   16.90
   0  -5  -9  308.20    8.90
   0  -5  -9  292.67    9.01
   0   5   9  274.54    8.74
   0  -5  -9  292.70    8.21
   0  -5  -9  300.13    9.13
   0  -5 -10  116.42    4.81
   0  -5 -10  121.31    4.40
   0  -5 -10  121.65    4.96
   0  -5 -11  108.33    3.99
   0  -5 -11  104.62    3.64
   0  -5 -11  109.15    3.88
   0  -5 -11  102.89    3.31
   0   6  -6   99.34    3.85
   0   6  -6  105.03    4.48
   0   6  -6  105.47    4.48
   0   6  -6   99.40    3.75
   0   6  -5   23.84    2.38
   0   6  -5   24.34    2.44
   0   6  -5   20.51    2.09
   0   6  -5   23.16    2.06
   0   6  -4  203.82    6.66
   0   6  -4  219.77    7.16
   0   6  -4  208.28    7.66
   0  -6   4  203.60    6.79
   0  -6   4  199.66    5.90
   0  -6   4  200.48    6.40
   0   6  -4  213.01    7.76
   0  -6   3  625.06   14.53
   0   6  -3  600.23   13.77
   0   6  -3  613.15   15.12
   0  -6   3  607.63   13.83
   0   6  -3  639.57   15.17
   0   6  -3  617.00   15.10
   0   6  -3  618.96   14.98
   0  -6   2  500.35   11.01
   0   6  -2  467.07   11.29
   0  -6   2  502.53   10.80
   0   6  -2  503.34   13.73
   0  -6   2  498.36   12.40
   0  -6   2  489.29   11.68
   0   6  -2  506.16   13.28
   0   6  -1  418.94   12.82
   0   6  -1  417.07   11.58
   0  -6   1  408.53   10.12
   0  -6   1  418.90   10.93
   0   6  -1  416.83    9.50
   0  -6   1  429.95   10.64
   0  -6   1  421.99    9.79
   0   6   0   67.25    3.99
   0   6   0   70.18    5.11
   0  -6   0   76.77    3.18
   0  -6   0   73.39    4.00
   0  -6   0   72.14    3.79
   0  -6   0   75.61    3.77
   0   6   1  650.56   14.89
   0   6   1  687.30   14.97
   0  -6  -1  702.12   14.53
   0  -6  -1  647.91   15.62
   0  -6  -1  709.52   15.22
   0   6   1  619.38   17.40
   0  -6  -1  672.54   14.38
   0  -6  -1  662.76   14.34
   0   6   2 1771.72   32.42
   0  -6  -2 1848.25   33.05
   0   6   2 1711.63   31.54
   0  -6  -2 1732.27   33.64
   0  -6  -2 1750.66   31.82
   0  -6  -2 1804.11   31.63
   0  -6  -2 1862.16   32.61
   0   6   2 1798.25   35.37
   0  -6  -2 1808.08   31.59
   0  -6  -2 1799.00   31.67
   0  -6  -3  417.92   10.28
   0  -6  -3  422.72   10.89
   0  -6  -3  449.31   10.97
   0  -6  -3  422.36   10.20
   0   6   3  420.62   12.30
   0  -6  -3  416.15   11.41
   0  -6  -3  415.00    9.93
   0  -6  -3  422.27    9.96
   0   6   3  421.56   10.89
   0   6   3  411.94    9.30
   0  -6  -3  428.81   10.45
   0  -6  -4   10.74    1.59
   0  -6  -4   12.30    1.60
   0  -6  -4   12.88    1.47
   0  -6  -4   11.09    1.55
   0   6   4   13.05    1.73
   0  -6  -4   14.76    1.91
   0   6   4   14.05    2.22
   0  -6  -4   12.47    1.51
   0  -6  -4   13.53    1.43
   0  -6  -4   11.65    1.59
   0  -6  -4   13.15    1.66
   0  -6  -5  475.02   11.82
   0   6   5  457.20   12.07
   0  -6  -5  472.06   11.06
   0   6   5  450.47   12.49
   0  -6  -5  465.80   11.21
   0  -6  -5  462.14   10.89
   0  -6  -5  475.05   10.94
   0  -6  -5  477.44   11.79
   0  -6  -5  459.26   11.58
   0  -6  -5  458.67   11.67
   0  -6  -5  462.11   10.87
   0  -6  -5  470.98   11.47
   0  -6  -6  679.52   13.42
   0  -6  -6  665.43   13.69
   0  -6  -6  676.73   15.73
   0  -6  -6  680.40   15.16
   0   6   6  682.08   16.06
   0  -6  -6  667.83   14.38
   0  -6  -6  688.00   15.84
   0  -6  -6  669.39   14.38
   0  -6  -6  665.21   15.21
   0  -6  -6  665.99   15.57
   0   6   6  694.44   16.13
   0  -6  -6  664.43   15.07
   0  -6  -6  667.78   14.12
   0  -6  -6  683.18   13.91
   0  -6  -7  294.97    7.55
   0  -6  -7  280.90    9.06
   0   6   7  300.22    9.03
   0  -6  -7  280.61    8.11
   0  -6  -7  263.85    7.62
   0   6   7  284.75    9.16
   0  -6  -7  283.47    9.15
   0  -6  -7  289.00    8.67
   0  -6  -7  266.98    7.65
   0  -6  -7  283.66    9.25
   0  -6  -8  211.42    7.78
   0  -6  -8  220.27    7.72
   0  -6  -8  232.10    7.87
   0  -6  -8  221.05    7.81
   0  -6  -8  214.16    6.37
   0   6   8  212.68    7.09
   0   6   8  216.88    7.66
   0  -6  -8  215.93    6.33
   0  -6  -9    5.08    1.36
   0  -6  -9    5.67    0.98
   0  -6  -9    3.86    1.25
   0  -6  -9    4.56    1.32
   0  -6 -10   50.74    3.02
   0  -6 -10   52.42    2.93
   0  -6 -10   53.16    2.39
   0  -6 -10   54.99    3.12
   0  -6 -10   51.46    3.08
   0   7  -5   63.72    2.43
   0   7  -5   65.97    3.33
   0   7  -5   69.15    3.07
   0   7  -5   67.98    3.38
   0   7  -4  222.90    7.31
   0   7  -4  210.80    7.18
   0  -7   4  210.33    5.47
   0   7  -4  206.14    6.10
   0   7  -3  569.48   14.17
   0   7  -3  565.32   14.16
   0   7  -2  118.33    6.09
   0   7  -2  140.88    6.24
   0   7  -2  146.36    6.02
   0  -7   2  138.40    4.52
   0  -7   2  126.17    5.24
   0   7  -1  579.44   14.33
   0   7  -1  557.36   15.36
   0  -7   1  587.31   13.13
   0  -7   1  566.33   13.14
   0   7   0   59.36    4.92
   0  -7   0   64.81    3.01
   0   7   0   64.62    3.96
   0  -7   0   57.94    3.76
   0  -7   0   71.52    3.94
   0  -7  -1   99.28    5.11
   0   7   1   92.23    4.60
   0  -7  -1  100.45    5.00
   0  -7  -1   93.31    4.26
   0   7   1   93.56    6.30
   0  -7  -2 1348.48   25.52
   0  -7  -2 1314.94   26.80
   0   7   2 1298.42   29.87
   0   7   2 1289.65   26.00
   0  -7  -2 1374.92   25.61
   0  -7  -2 1374.25   26.20
   0   7   2 1328.77   25.17
   0  -7  -2 1326.60   27.31
   0  -7  -3  642.34   16.04
   0   7   3  657.44   15.38
   0  -7  -3  638.74   14.89
   0  -7  -3  654.25   15.74
   0   7   3  620.33   17.74
   0  -7  -3  658.74   15.24
   0  -7  -3  658.31   15.69
   0  -7  -3  649.07   14.43
   0   7   3  646.76   13.15
   0  -7  -3  661.83   14.50
   0   7   4    2.29    1.67
   0  -7  -4    3.26    1.20
   0   7   4    2.57    1.12
   0  -7  -4    3.72    1.14
   0  -7  -4    2.94    1.15
   0  -7  -4    2.61    0.98
   0  -7  -4    3.96    1.19
   0  -7  -4    3.44    0.87
   0  -7  -4    2.56    1.03
   0  -7  -4    4.96    1.44
   0  -7  -4    2.40    0.96
   0  -7  -5   64.52    3.95
   0  -7  -5   69.42    3.61
   0  -7  -5   72.42    3.46
   0  -7  -5   76.93    4.33
   0  -7  -5   72.49    4.29
   0   7   5   71.48    4.23
   0  -7  -5   72.76    4.12
   0  -7  -5   73.43    3.71
   0   7   5   71.84    4.92
   0  -7  -5   66.42    3.74
   0  -7  -5   65.37    3.87
   0  -7  -6  491.23   11.70
   0  -7  -6  538.60   13.55
   0  -7  -6  524.34   11.96
   0  -7  -6  511.61   13.15
   0   7   6  512.89   14.09
   0   7   6  505.84   13.21
   0  -7  -6  509.06   11.88
   0  -7  -6  523.34   13.36
   0  -7  -6  488.57   11.81
   0  -7  -6  522.05   13.34
   0  -7  -6  525.55   12.28
   0  -7  -6  507.60   11.85
   0  -7  -7  354.87   10.46
   0  -7  -7  339.83    9.73
   0  -7  -7  343.23    8.22
   0  -7  -7  350.13    8.24
   0   7   7  340.32   10.18
   0  -7  -7  343.03   10.31
   0  -7  -7  352.07    9.72
   0   7   7  335.78   10.44
   0  -7  -7  354.73   10.53
   0  -7  -8   75.31    3.62
   0  -7  -8   75.98    4.29
   0  -7  -8   75.07    4.01
   0  -7  -8   67.88    4.04
   0  -7  -8   74.03    4.22
   0  -7  -9    3.69    1.07
   0  -7  -9    4.35    1.16
   0  -7  -9    3.21    1.07
   0  -7  -9    4.58    1.19
   0  -7 -10   20.00    1.70
   0  -7 -10   20.65    1.64
   0  -7 -10   22.38    1.84
   0  -7 -10   20.91    1.79
   0   8  -4  196.30    5.22
   0   8  -4  191.22    5.59
   0   8  -4  187.44    5.54
   0   8  -3  242.70    7.29
   0   8  -3  234.07    7.17
   0  -8   3  234.39    5.94
   0   8  -2   50.63    3.28
   0  -8   2   44.82    2.22
   0   8  -2   47.78    3.20
   0  -8   1   58.05    3.04
   0  -8   1   65.74    3.21
   0   8  -1   62.62    4.59
   0  -8   0  533.31   12.78
   0   8   0  503.07   12.36
   0  -8   0  513.53   12.08
   0   8   0  521.82   14.43
   0   8   1   51.48    3.17
   0  -8  -1   49.69    2.91
   0  -8  -1   43.75    3.33
   0  -8  -1   52.50    3.66
   0   8   1   50.86    4.38
   0  -8  -2  295.25    9.45
   0   8   2  280.79    7.53
   0  -8  -2  294.48    9.56
   0  -8  -2  306.87    8.92
   0   8   2  278.49   10.95
   0  -8  -3  142.33    6.09
   0  -8  -3  142.66    6.35
   0  -8  -3  132.12    6.03
   0   8   3  135.36    5.75
   0   8   3  138.10    7.50
   0  -8  -4  123.06    5.81
   0   8   4  123.35    5.51
   0  -8  -4  118.91    4.97
   0  -8  -4  127.12    5.61
   0  -8  -4  127.84    5.80
   0   8   4  126.53    7.02
   0  -8  -4  130.08    5.83
   0  -8  -4  118.36    5.50
   0  -8  -4  126.89    5.10
   0  -8  -5   39.94    2.99
   0   8   5   41.69    4.00
   0  -8  -5   41.83    2.73
   0  -8  -5   40.57    3.21
   0  -8  -5   41.84    3.35
   0  -8  -5   41.15    3.03
   0  -8  -5   36.48    3.04
   0  -8  -5   37.45    2.86
   0  -8  -5   39.51    2.65
   0   8   5   40.74    3.13
   0   8   6  335.05   11.06
   0  -8  -6  357.33    8.67
   0  -8  -6  365.09   10.44
   0  -8  -6  351.71    8.75
   0  -8  -6  354.88    9.35
   0   8   6  329.45   12.86
   0  -8  -6  360.29   10.34
   0  -8  -6  365.85   10.60
   0  -8  -6  355.02    8.77
   0  -8  -6  352.92   10.32
   0  -8  -6  368.81    9.49
   0  -8  -7  119.93    5.30
   0  -8  -7  112.14    4.00
   0  -8  -7  115.40    5.27
   0  -8  -7  113.57    3.93
   0  -8  -7  123.00    5.34
   0  -8  -7  111.02    4.34
   0   8   7  113.43    5.14
   0  -8  -7  114.64    4.98
   0  -8  -7  113.24    4.06
   0  -8  -8  167.74    6.06
   0  -8  -8  163.11    5.35
   0  -8  -8  167.46    5.47
   0  -8  -8  155.11    5.85
   0  -8  -8  172.99    6.14
   0  -8  -9   86.07    3.79
   0  -8  -9   95.27    3.54
   0  -8  -9   88.41    3.70
   0  -8  -9   87.83    3.86
   0  -9   2    3.28    0.63
   0   9  -2    3.32    0.82
   0   9  -2    2.58    0.72
   0  -9   1    4.20    0.70
   0   9  -1    8.10    1.28
   0  -9   1    6.34    0.92
   0   9  -1    6.37    1.16
   0   9   0  868.95   18.06
   0  -9   0  867.01   17.32
   0   9   0  844.93   18.86
   0   9   0  871.20   18.05
   0  -9   0  871.38   16.95
   0  -9   0  843.41   16.84
   0  -9  -1  342.65    9.29
   0  -9  -1  346.03    9.53
   0  -9  -2   54.50    2.93
   0   9   2   48.75    5.44
   0  -9  -2   52.51    3.45
   0  -9  -3   14.63    1.95
   0  -9  -3   17.89    2.16
   0  -9  -3   17.38    1.96
   0  -9  -4   69.05    3.95
   0  -9  -4   75.58    4.17
   0  -9  -4   71.47    4.04
   0   9   5  411.90   14.42
   0  -9  -5  444.73   11.42
   0  -9  -5  425.00   10.82
   0  -9  -5  430.25   10.89
   0  -9  -6  377.03    9.35
   0  -9  -6  375.48    9.13
   0   9   6  354.25   11.24
   0  -9  -6  386.59   10.10
   0  -9  -6  375.97    9.18
   0  -9  -7   26.80    2.21
   0  -9  -7   27.98    2.27
   0  -9  -7   26.43    2.14
   0  -9  -8   18.76    1.50
   0  -9  -8   15.59    0.97
   0  -9  -8   19.42    1.68
   0  -9  -8   19.63    1.66
   0 -10  -1  105.67    3.65
   0 -10  -1  106.34    3.51
   0  10   1  109.76    3.60
   0  10   1  115.73    3.70
   0 -10  -1  114.07    3.63
   0  10   2    3.94    0.95
   0 -10  -2    3.77    0.90
   0 -10  -2    2.83    0.84
   0  10   2    3.64    1.27
   0 -10  -2    4.34    1.00
   0  10   2    3.17    0.84
   0  10   3    6.51    1.69
   0 -10  -3    5.96    1.10
   0 -10  -3    5.23    0.85
   0 -10  -3    4.50    1.00
   0 -10  -3    7.10    1.16
   0  10   4   22.76    2.56
   0 -10  -4   26.29    1.88
   0 -10  -4   22.45    1.90
   0 -10  -4   25.50    1.97
   0 -10  -4   22.92    1.87
   0 -10  -5  160.99    5.06
   0 -10  -5  168.27    5.18
   0 -10  -5  161.75    4.95
   0 -10  -5  163.44    4.98
   0  10   5  151.71    5.78
   0 -10  -6  378.34    7.99
   0 -10  -6  388.99    8.08
   0 -10  -6  401.26    8.89
   0 -10  -6  379.06    8.13
   1  -9  -7   85.97    3.12
   1  -9  -6   94.89    3.25
   1  -9  -6   93.52    3.12
   1  -9  -6   99.25    3.86
   1  -9  -5  401.72    9.28
  -1   9   5  398.76   10.56
   1  -9  -5  407.27    9.43
   1  -9  -5  413.00   10.01
  -1   9   4  129.41    6.15
   1  -9  -4  134.99    4.99
   1  -9  -4  135.25    5.10
   1  -9  -4  137.30    5.10
   1  -9  -3   29.61    2.37
   1  -9  -3   29.58    2.38
   1  -9  -3   29.16    2.24
  -1   9   3   24.99    3.04
   1  -9  -2   10.44    1.30
   1  -9  -2   10.52    1.51
  -1   9   2    9.02    2.09
   1  -9  -1   62.30    2.38
  -1   9   1   62.50    3.92
   1  -9  -1   61.97    3.20
   1  -9   0  305.45    7.79
  -1   9   0  302.16    7.78
   1  -9   0  306.63    7.48
   1  -9   0  315.65    7.58
  -1   9  -1  133.05    4.51
   1  -9   1  124.53    3.17
   1  -9   1  116.97    2.98
  -1   9  -1  138.86    4.59
   1  -9   1  121.02    3.65
   1  -8  -8  407.46    8.44
   1  -8  -8  420.46    9.44
   1  -8  -8  408.89    9.56
   1  -8  -7    8.57    1.26
   1  -8  -7   10.54    1.02
   1  -8  -7    9.37    1.38
   1  -8  -7    9.48    1.45
   1  -8  -6    5.52    1.30
   1  -8  -6    4.27    1.17
   1  -8  -6    6.81    1.40
   1  -8  -6    5.52    0.99
  -1   8   6    4.29    1.40
   1  -8  -6    4.41    0.91
   1  -8  -6    7.22    1.11
   1  -8  -6    7.14    1.13
   1  -8  -5  571.73   13.74
   1  -8  -5  563.53   12.79
   1  -8  -5  541.39   12.78
   1  -8  -5  558.36   12.73
   1  -8  -5  565.22   13.81
  -1   8   5  545.43   15.95
   1  -8  -5  571.78   13.35
   1  -8  -5  551.74   12.67
   1  -8  -4  196.41    7.17
   1  -8  -4  194.27    6.61
   1  -8  -4  193.40    6.92
  -1   8   4  173.24    9.55
   1  -8  -4  193.11    7.13
   1  -8  -4  191.73    6.59
  -1   8   3  104.68    6.09
   1  -8  -3  108.12    5.09
   1  -8  -3   95.76    4.74
  -1   8   3   90.52    7.49
  -1   8   3   88.52    6.86
  -1   8   3   98.97    4.67
   1  -8  -3  113.92    5.34
   1  -8  -2    5.45    1.39
   1  -8  -2    8.04    1.51
  -1   8   2    4.21    2.61
  -1   8   2    9.57    2.36
  -1   8   2    9.53    3.69
   1  -8  -2    7.11    1.56
  -1   8   1   72.00    6.27
   1  -8  -1   74.63    3.61
   1  -8  -1   75.46    4.22
   1  -8   0  647.18   14.62
  -1   8   0  643.62   17.68
   1  -8   1  545.97   11.91
  -1   8  -1  527.00   13.20
  -1   8  -2   19.99    2.06
  -1   8  -2   20.56    2.07
  -1   8  -3   25.13    2.05
  -1   8  -3   30.34    2.27
   1  -8   3   26.82    1.45
   1  -7  -9   39.20    2.42
   1  -7  -9   37.37    2.33
   1  -7  -9   35.64    2.10
   1  -7  -9   34.28    2.30
   1  -7  -8  101.59    4.53
   1  -7  -8   97.06    4.43
   1  -7  -8   93.61    3.92
   1  -7  -8   97.81    3.59
   1  -7  -8   91.28    4.37
   1  -7  -7  138.02    5.66
   1  -7  -7  133.56    5.66
   1  -7  -7  138.78    5.23
   1  -7  -7  128.34    4.76
   1  -7  -7  130.51    4.81
   1  -7  -7  139.56    5.91
   1  -7  -7  133.32    4.92
   1  -7  -6   34.27    2.95
  -1   7   6   38.50    3.38
   1  -7  -6   37.13    2.64
   1  -7  -6   36.99    2.38
  -1   7   6   35.46    2.96
   1  -7  -6   38.30    2.40
   1  -7  -6   35.41    2.83
   1  -7  -6   37.53    2.66
   1  -7  -6   35.56    2.92
  -1   7   6   31.30    3.16
   1  -7  -6   37.87    3.09
   1  -7  -6   33.98    2.23
   1  -7  -5  684.70   15.51
   1  -7  -5  716.43   15.90
   1  -7  -5  731.38   15.99
  -1   7   5  682.43   20.32
   1  -7  -5  745.04   14.35
   1  -7  -5  739.14   16.90
   1  -7  -5  716.78   16.68
   1  -7  -5  736.13   16.46
  -1   7   5  718.66   18.22
   1  -7  -5  755.79   17.11
   1  -7  -5  724.75   15.71
  -1   7   5  748.53   16.97
   1  -7  -4   53.31    3.40
   1  -7  -4   45.27    3.22
  -1   7   4   46.26    3.40
   1  -7  -4   51.56    3.30
   1  -7  -4   44.78    3.34
   1  -7  -4   49.58    3.26
   1  -7  -4   51.16    3.41
   1  -7  -4   43.72    3.37
  -1   7   4   52.65    4.44
   1  -7  -3  339.00    9.67
  -1   7   3  333.95   10.13
   1  -7  -3  328.22   10.08
   1  -7  -3  344.83    9.63
   1  -7  -3  340.88   10.03
  -1   7   3  328.31   11.96
   1  -7  -3  324.95   10.03
   1  -7  -3  346.54    9.74
   1  -7  -3  331.29   10.07
   1  -7  -2  130.49    5.85
   1  -7  -2  160.38    6.22
  -1   7   2  156.28    6.42
  -1   7   2  156.75    5.08
  -1   7   2  144.57    7.78
   1  -7  -2  151.97    6.46
   1  -7  -2  158.52    6.55
   1  -7  -2  158.34    6.20
  -1   7   1  235.11    7.36
   1  -7  -1  239.93    8.22
  -1   7   1  247.61   10.09
   1  -7  -1  247.65    7.68
   1  -7  -1  224.71    8.11
   1  -7   0  170.33    6.49
  -1   7   0  157.91    7.67
   1  -7   0  152.02    6.19
  -1   7   0  159.91    6.06
   1  -7   0  163.10    5.52
  -1   7  -1  740.24   20.31
  -1   7  -1  794.22   17.26
  -1   7  -1  773.44   21.12
   1  -7   1  749.40   16.36
  -1   7  -1  784.17   16.27
   1  -7   1  798.72   16.78
  -1   7  -1  809.15   19.25
   1  -7   2   22.62    1.84
  -1   7  -2   22.49    2.01
  -1   7  -2   26.02    2.77
  -1   7  -2   26.61    2.47
  -1   7  -2   30.63    2.99
  -1   7  -3    7.78    1.19
  -1   7  -3    6.22    1.48
  -1   7  -3    4.57    1.27
  -1   7  -4  429.55   11.09
  -1   7  -4  438.10   11.13
  -1   7  -5  273.16    7.24
  -1   7  -5  253.51    6.26
  -1   7  -5  268.47    7.17
   1  -6 -10  822.18   15.66
   1  -6 -10  805.59   15.18
   1  -6 -10  825.03   15.76
   1  -6 -10  814.18   15.49
   1  -6  -9   28.67    2.24
   1  -6  -9   28.76    2.38
   1  -6  -9   31.63    2.37
   1  -6  -9   29.73    2.41
   1  -6  -8   10.75    1.35
   1  -6  -8    8.76    1.62
   1  -6  -8    8.68    1.54
   1  -6  -8    9.79    1.67
   1  -6  -8    9.88    1.15
   1  -6  -8    7.46    1.41
   1  -6  -8    8.54    1.23
   1  -6  -7  755.36   16.25
   1  -6  -7  777.12   17.73
  -1   6   7  759.47   17.24
   1  -6  -7  763.56   17.34
  -1   6   7  766.29   16.34
   1  -6  -7  741.28   16.00
   1  -6  -7  777.74   16.76
   1  -6  -7  761.39   15.96
   1  -6  -7  761.70   17.37
   1  -6  -7  750.50   16.23
   1  -6  -6  374.20   10.70
   1  -6  -6  392.13   10.13
  -1   6   6  379.47   11.00
   1  -6  -6  388.15   11.01
   1  -6  -6  390.79   10.07
   1  -6  -6  391.59   10.31
   1  -6  -6  379.10    8.91
   1  -6  -6  396.90   10.33
   1  -6  -6  400.48   11.21
   1  -6  -6  381.69   10.34
  -1   6   6  383.33   11.09
  -1   6   6  350.87   11.17
   1  -6  -5 1130.51   22.85
   1  -6  -5 1110.57   23.13
   1  -6  -5 1102.03   22.02
   1  -6  -5 1115.42   21.75
   1  -6  -5 1167.41   22.58
   1  -6  -5 1132.64   21.76
   1  -6  -5 1148.48   21.70
   1  -6  -5 1154.58   23.05
  -1   6   5 1139.11   24.32
  -1   6   5 1180.95   24.02
   1  -6  -5 1154.82   23.47
   1  -6  -5 1170.15   22.62
   1  -6  -4   35.88    2.83
   1  -6  -4   40.27    2.25
   1  -6  -4   31.18    2.65
   1  -6  -4   32.79    2.51
   1  -6  -4   36.03    2.87
   1  -6  -4   36.99    2.70
   1  -6  -4   32.24    2.06
  -1   6   4   35.15    2.96
   1  -6  -4   37.55    2.89
   1  -6  -4   33.01    2.50
  -1   6   4   35.62    3.46
  -1   6   3    7.54    2.23
   1  -6  -3    7.82    1.45
   1  -6  -3    9.23    1.39
   1  -6  -3    8.72    1.37
   1  -6  -3    8.12    1.56
   1  -6  -3    8.28    1.46
  -1   6   3    7.77    1.45
   1  -6  -3    7.72    1.45
   1  -6  -3    8.73    1.33
   1  -6  -3    9.78    1.51
   1  -6  -2 1269.23   23.90
   1  -6  -2 1216.37   23.91
   1  -6  -2 1264.29   23.92
   1  -6  -2 1185.30   24.92
   1  -6  -2 1219.91   23.40
   1  -6  -2 1262.81   24.38
   1  -6  -2 1254.13   24.58
  -1   6   2 1228.24   22.77
  -1   6   2 1288.55   25.12
  -1   6   2 1191.73   27.23
  -1   6   1  810.53   17.76
   1  -6  -1  796.95   16.91
  -1   6   1  775.04   16.65
   1  -6  -1  805.25   16.97
  -1   6   1  768.07   20.24
   1  -6  -1  781.52   17.84
   1  -6  -1  799.59   17.38
   1  -6  -1  820.21   16.90
   1  -6  -1  778.28   16.83
  -1   6   0   59.81    3.69
  -1   6   0   73.68    5.32
   1  -6   0   70.80    3.50
   1  -6   0   75.50    3.95
   1  -6   0   67.60    3.98
   1  -6   1  131.71    5.54
  -1   6  -1  132.55    5.79
   1  -6   1  122.61    5.26
   1  -6   1  129.87    5.12
  -1   6  -1  124.65    6.73
  -1   6  -2  298.20   11.50
  -1   6  -2  316.54    8.92
  -1   6  -2  323.97    9.82
  -1   6  -2  309.37   11.61
   1  -6   2  345.77    8.65
  -1   6  -2  325.96   10.81
   1  -6   2  333.45    9.62
   1  -6   2  316.18    8.52
   1  -6   3   88.85    3.83
  -1   6  -3   91.78    4.39
  -1   6  -3   95.57    4.77
  -1   6  -3  103.59    5.28
   1  -6   3  103.46    4.87
  -1   6  -4  263.32    8.71
   1  -6   4  257.67    7.90
  -1   6  -4  246.87    7.77
   1  -6   4  264.41    6.75
  -1   6  -4  257.36    7.78
  -1   6  -4  265.98    8.77
  -1   6  -5  168.66    6.34
  -1   6  -5  168.59    6.37
  -1   6  -6   13.38    1.55
  -1   6  -6   17.51    1.63
  -1   6  -6   14.79    1.63
   1  -5 -10  407.08    9.17
   1  -5 -10  409.00    9.85
   1  -5 -10  418.29    9.72
   1  -5  -9  146.08    4.87
   1  -5  -9  165.02    5.79
   1  -5  -9  149.80    5.95
   1  -5  -9  158.91    5.01
   1  -5  -9  159.82    4.68
   1  -5  -8   12.21    1.56
   1  -5  -8   19.06    2.15
   1  -5  -8   13.73    1.69
   1  -5  -8   14.01    1.95
   1  -5  -8   16.59    1.80
   1  -5  -8   17.61    2.14
  -1   5   8   19.54    2.16
   1  -5  -8   17.10    1.55
  -1   5   7  531.79   13.82
   1  -5  -7  569.04   13.50
   1  -5  -7  535.98   13.97
   1  -5  -7  561.47   13.14
  -1   5   7  554.74   12.88
   1  -5  -7  565.77   14.19
   1  -5  -7  559.69   13.14
   1  -5  -7  536.26   13.62
   1  -5  -7  572.58   11.66
   1  -5  -7  551.61   12.10
   1  -5  -6  169.36    6.01
   1  -5  -6  160.42    5.56
   1  -5  -6  166.50    6.65
   1  -5  -6  166.26    6.29
   1  -5  -6  174.86    6.33
  -1   5   6  168.93    6.25
   1  -5  -6  163.86    5.91
  -1   5   6  167.26    6.62
   1  -5  -6  158.08    6.37
  -1   5   5 1065.39   21.50
   1  -5  -5 1012.80   19.14
   1  -5  -5 1051.43   20.90
   1  -5  -5 1083.55   20.56
   1  -5  -5 1050.95   19.70
   1  -5  -5 1011.77   19.82
  -1   5   5 1040.74   21.67
   1  -5  -5 1014.02   20.68
   1  -5  -5 1015.90   20.77
   1  -5  -5 1083.13   20.57
   1  -5  -5 1040.11   20.35
   1  -5  -5 1057.44   21.65
   1  -5  -4  103.31    4.06
   1  -5  -4   99.77    4.32
   1  -5  -4  102.63    4.23
   1  -5  -4   98.79    3.62
   1  -5  -4   98.26    4.27
  -1   5   4  103.82    4.76
   1  -5  -4  107.07    4.46
   1  -5  -4  100.34    4.19
  -1   5   4   98.83    4.87
   1  -5  -4  102.77    4.22
   1  -5  -4  106.08    4.29
   1  -5  -3   42.09    2.60
  -1   5   3   38.61    3.15
   1  -5  -3   37.05    2.40
  -1   5   3   36.35    2.70
  -1   5   3   37.49    1.81
   1  -5  -3   43.52    2.63
   1  -5  -3   36.76    2.35
   1  -5  -3   37.14    2.69
   1  -5  -3   35.20    2.12
   1  -5  -3   38.74    2.43
  -1   5   2  321.72    7.89
  -1   5   2  329.61   10.31
   1  -5  -2  327.97    8.14
   1  -5  -2  332.82    8.38
   1  -5  -2  331.31    8.36
  -1   5   2  329.16    9.16
   1  -5  -2  351.23    7.05
   1  -5  -2  343.42    8.50
   1  -5  -2  334.71    8.43
   1  -5  -2  320.35    9.23
   1  -5  -1 2057.49   34.94
  -1   5   1 1939.41   38.46
   1  -5  -1 2073.59   35.04
  -1   5   1 1934.01   35.86
  -1   5   1 2021.71   35.36
   1  -5  -1 1914.35   36.14
   1  -5  -1 2054.57   34.53
   1  -5  -1 2085.99   35.10
   1  -5   0   23.35    2.11
   1  -5   0   27.83    1.76
  -1   5   0   23.29    2.14
   1  -5   0   24.47    1.97
   1  -5   0   23.92    2.25
  -1   5   0   23.84    3.12
  -1   5   0   22.72    2.23
   1  -5   0   21.40    1.86
  -1   5  -1   17.41    2.12
   1  -5   1   17.56    1.59
   1  -5   1   16.42    1.84
   1  -5   1   13.16    1.55
  -1   5  -1   16.58    2.68
   1  -5   1   17.12    1.88
   1  -5   2  224.84    7.50
  -1   5  -2  234.48    8.02
   1  -5   2  225.62    6.70
  -1   5  -2  236.37    8.76
   1  -5   2  228.30    6.43
   1  -5   2  233.16    7.02
  -1   5  -3  452.37   11.44
  -1   5  -3  474.36   13.01
  -1   5  -3  467.83   12.84
  -1   5  -3  449.25   10.21
  -1   5  -3  448.82   12.34
   1  -5   3  470.07   11.61
   1  -5   3  479.31   12.28
  -1   5  -3  498.71   12.69
  -1   5  -4  519.28   13.08
  -1   5  -4  542.66   13.73
   1  -5   4  508.23   13.17
  -1   5  -4  557.91   13.38
   1  -5   4  524.02   12.93
  -1   5  -4  527.50   11.77
  -1   5  -4  537.54   13.68
   1  -5   5   46.85    3.21
  -1   5  -5   41.84    2.83
   1  -5   5   44.42    3.06
  -1   5  -5   44.80    3.39
  -1   5  -5   45.39    3.40
  -1   5  -5   44.80    3.21
  -1   5  -6    7.65    1.41
  -1   5  -6    8.02    1.23
  -1   5  -6    9.51    1.59
  -1   5  -6    9.83    1.60
  -1   5  -7  168.32    5.71
  -1   5  -7  160.86    5.54
  -1   5  -7  167.59    5.67
   1  -4 -10   85.91    3.64
   1  -4 -10   81.14    3.16
   1  -4 -10   79.68    3.27
   1  -4  -9  212.76    6.47
   1  -4  -9  205.84    6.70
   1  -4  -9  204.77    6.21
   1  -4  -9  213.36    7.14
   1  -4  -9  207.49    6.42
   1  -4  -8  107.79    4.34
   1  -4  -8   95.19    4.49
  -1   4   8   96.09    4.37
   1  -4  -8  104.78    4.68
   1  -4  -8  112.17    5.23
   1  -4  -8  110.20    4.93
  -1   4   8  108.99    5.12
   1  -4  -8  108.83    5.20
   1  -4  -8  103.01    4.84
  -1   4   7  885.55   17.72
   1  -4  -7  886.01   19.64
   1  -4  -7  910.41   19.25
   1  -4  -7  899.22   18.48
   1  -4  -7  900.50   17.55
  -1   4   7  857.33   19.38
  -1   4   7  856.88   18.10
   1  -4  -7  903.16   19.33
   1  -4  -7  884.55   18.79
   1  -4  -7  888.80   18.43
   1  -4  -6  235.47    7.05
   1  -4  -6  234.79    6.19
   1  -4  -6  240.16    7.11
   1  -4  -6  229.07    7.17
   1  -4  -6  226.67    6.14
   1  -4  -6  241.36    7.57
   1  -4  -6  226.95    7.20
  -1   4   6  225.84    6.68
   1  -4  -6  228.14    7.76
  -1   4   6  218.80    6.76
  -1   4   6  229.62    7.76
   1  -4  -6  226.40    7.15
   1  -4  -6  225.05    7.51
   1  -4  -5    5.97    1.17
   1  -4  -5    7.50    1.37
  -1   4   5    7.81    1.27
   1  -4  -5    6.14    0.97
   1  -4  -5    4.92    1.00
   1  -4  -5    7.94    1.02
   1  -4  -5    6.34    1.32
   1  -4  -5    7.02    1.16
   1  -4  -5    7.34    1.18
  -1   4   5    9.33    1.13
  -1   4   5    8.47    1.45
   1  -4  -5    7.42    1.21
   1  -4  -5    6.47    1.27
   1  -4  -4  593.00   12.49
  -1   4   4  590.80   13.04
   1  -4  -4  588.42   13.46
   1  -4  -4  611.85   13.31
   1  -4  -4  597.81   12.41
   1  -4  -4  610.69   12.91
  -1   4   4  592.29   13.36
   1  -4  -4  600.64   12.31
   1  -4  -4  608.60   13.33
  -1   4   4  601.81   11.59
   1  -4  -4  594.37   12.28
   1  -4  -4  584.43   12.56
  -1   4   3    9.28    0.83
  -1   4   3    9.63    1.41
  -1   4   3    8.99    0.78
   1  -4  -3    8.49    1.34
   1  -4  -3    9.55    1.26
   1  -4  -3    9.23    1.22
   1  -4  -3    7.20    0.93
   1  -4  -2   10.73    0.72
   1  -4  -2    9.70    1.03
   1  -4  -2    9.68    0.91
  -1   4   2    9.69    1.31
  -1   4   2   11.08    1.63
   1  -4  -2    9.58    1.28
  -1   4   2    9.96    1.05
  -1   4   1 1306.93   24.57
   1  -4  -1 1418.43   22.74
  -1   4   1 1395.49   25.07
   1  -4  -1 1397.65   23.24
  -1   4   1 1327.08   26.45
   1  -4  -1 1403.41   22.77
   1  -4   0   79.32    3.46
  -1   4   0   70.83    3.47
  -1   4   0   83.34    3.54
   1  -4   0   78.80    2.89
  -1   4  -1   22.14    2.13
   1  -4   1   25.63    1.82
   1  -4   1   22.09    1.92
  -1   4  -1   27.08    2.87
   1  -4   2   83.47    3.70
  -1   4  -2   79.91    4.12
   1  -4   2   74.39    3.23
   1  -4   2   81.94    3.86
  -1   4  -2   73.59    4.29
   1  -4   3  468.50   11.73
  -1   4  -3  484.24   12.21
  -1   4  -3  467.54   12.38
  -1   4  -3  489.88   11.17
  -1   4  -3  442.46   12.31
  -1   4  -3  458.10    9.98
   1  -4   3  476.54    9.82
   1  -4   3  464.02   11.44
  -1   4  -4  505.51   11.74
   1  -4   4  539.73   13.26
  -1   4  -4  546.98   12.53
  -1   4  -4  566.09   13.41
  -1   4  -4  504.93   12.45
   1  -4   4  509.40   12.90
  -1   4  -4  513.91   13.21
  -1   4  -5  119.11    5.37
  -1   4  -5  127.95    5.52
   1  -4   5  120.89    5.46
  -1   4  -5  124.14    5.15
  -1   4  -5  115.45    5.34
   1  -4   5  123.87    5.55
  -1   4  -5  112.81    4.74
   1  -4   6    1.52    0.88
  -1   4  -6    1.13    0.84
  -1   4  -6    1.97    0.96
  -1   4  -6    0.89    0.81
  -1   4  -6    3.28    0.98
  -1   4  -6    1.65    0.91
   1  -4   6    0.79    0.78
  -1   4  -7   17.16    1.62
  -1   4  -7   19.15    1.55
  -1   4  -7   19.24    1.75
  -1   4  -7   18.77    2.17
  -1   4  -7   21.20    2.22
  -1   4  -7   23.22    2.25
  -1   4  -8  918.66   18.57
  -1   4  -8  946.69   18.35
  -1   4  -8  938.49   18.34
   1  -3 -10   18.43    1.66
   1  -3 -10   20.44    1.57
   1  -3 -10   19.03    1.53
   1  -3 -10   19.07    1.75
   1  -3 -10   18.11    1.47
   1  -3  -9   34.71    2.71
   1  -3  -9   33.82    2.51
   1  -3  -9   36.59    2.56
   1  -3  -9   37.07    2.55
   1  -3  -9   34.01    2.44
   1  -3  -8  168.61    6.12
   1  -3  -8  159.11    5.89
  -1   3   8  154.90    6.10
  -1   3   8  159.29    6.40
   1  -3  -8  153.80    5.87
   1  -3  -8  164.01    6.33
   1  -3  -8  153.84    6.38
   1  -3  -8  153.11    6.34
   1  -3  -8  153.91    5.99
   1  -3  -7 1251.95   23.77
  -1   3   7 1234.68   24.80
   1  -3  -7 1222.38   23.63
   1  -3  -7 1221.68   24.84
  -1   3   7 1234.27   24.21
   1  -3  -7 1234.59   24.36
   1  -3  -7 1240.80   24.44
   1  -3  -7 1206.02   24.27
   1  -3  -7 1231.70   23.72
  -1   3   7 1239.90   22.55
   1  -3  -7 1177.95   22.51
   1  -3  -6  543.61   13.14
   1  -3  -6  547.83   13.16
   1  -3  -6  542.49   12.11
  -1   3   6  538.00   11.74
   1  -3  -6  556.08   12.67
   1  -3  -6  534.19   12.14
   1  -3  -6  571.65   12.45
   1  -3  -6  555.79   13.00
  -1   3   6  536.23   12.55
  -1   3   6  527.96   13.11
   1  -3  -6  559.75   12.36
   1  -3  -6  546.48   12.61
  -1   3   5   79.12    3.27
   1  -3  -5   76.52    3.71
   1  -3  -5   73.34    3.59
  -1   3   5   86.23    3.95
   1  -3  -5   82.43    3.35
   1  -3  -5   75.23    3.22
   1  -3  -5   73.01    3.38
   1  -3  -5   72.88    3.23
   1  -3  -5   78.46    3.50
  -1   3   5   72.24    3.40
   1  -3  -5   80.04    2.56
  -1   3   5   69.70    3.28
   1  -3  -5   80.14    3.91
   1  -3  -5   87.40    3.77
  -1   3   4  454.55   10.24
  -1   3   4  428.03    9.29
  -1   3   4  441.55    9.46
   1  -3  -4  452.37   10.49
   1  -3  -4  445.07   10.24
   1  -3  -4  437.95    8.86
   1  -3  -4  447.97   10.10
   1  -3  -3 3561.58   59.80
  -1   3   3 3720.53   59.65
   1  -3  -3 3647.44   60.00
   1  -3  -3 3430.94   58.95
   1  -3  -3 3868.71   59.70
  -1   3   3 3796.55   58.43
  -1   3   3 3690.88   59.15
  -1   3   2  791.57   14.99
  -1   3   2  789.18   13.60
  -1   3   2  807.28   15.08
   1  -3  -2  787.23   14.88
   1  -3  -2  810.43   15.18
  -1   3   2  753.70   13.84
   1  -3  -2  814.34   14.94
   1  -3  -2  800.45   14.24
   1  -3  -1 1068.22   17.96
   1  -3  -1 1052.88   18.22
  -1   3   1 1003.22   19.63
  -1   3   1 1061.80   18.93
   1  -3  -1 1073.32   17.75
  -1   3   1 1093.05   19.17
   1  -3  -1 1128.27   19.03
  -1   3   0  824.29   17.20
   1  -3   0  883.59   14.47
  -1   3   0  858.92   15.91
   1  -3   0  842.25   15.87
  -1   3   0  858.96   16.28
   1  -3   0  794.67   14.97
   1  -3   0  883.24   13.94
  -1   3  -1   49.57    2.73
   1  -3   1   48.09    2.23
   1  -3   1   50.16    1.66
  -1   3  -1   46.76    2.35
   1  -3   1   45.11    2.35
  -1   3  -2 2190.08   34.18
   1  -3   2 2178.39   36.51
   1  -3   2 2219.88   36.33
  -1   3  -2 2248.74   38.14
   1  -3   2 2017.58   34.51
  -1   3  -2 2087.77   36.92
   1  -3   3   11.04    1.41
  -1   3  -3   11.96    1.80
  -1   3  -3   11.22    1.90
   1  -3   3   12.36    1.48
   1  -3   3   10.56    1.07
  -1   3  -3   15.26    1.78
   1  -3   3   12.16    1.04
  -1   3  -4  385.28    9.98
  -1   3  -4  371.93    9.98
  -1   3  -4  349.00    8.59
  -1   3  -4  363.87    8.96
   1  -3   4  367.47    8.55
   1  -3   4  384.83   10.05
  -1   3  -4  382.35    9.36
   1  -3   4  379.57    9.84
  -1   3  -5  112.61    4.74
  -1   3  -5  116.17    4.83
  -1   3  -5  115.56    4.78
  -1   3  -5  113.29    4.57
   1  -3   5  110.05    5.08
   1  -3   5  114.62    4.33
  -1   3  -5  120.79    5.06
   1  -3   5  127.28    5.47
  -1   3  -5  122.88    4.94
  -1   3  -6  399.85   10.68
   1  -3   6  404.80   11.34
  -1   3  -6  425.91   10.12
  -1   3  -6  404.85   11.34
  -1   3  -6  422.01   10.37
  -1   3  -6  411.52   10.99
  -1   3  -6  413.64   11.02
   1  -3   6  411.07   11.39
   1  -3   7    3.55    1.08
  -1   3  -7    4.98    1.24
  -1   3  -7    3.92    1.01
   1  -3   7    6.38    1.30
  -1   3  -7    4.66    1.31
  -1   3  -7    5.34    1.25
  -1   3  -7    4.73    1.22
  -1   3  -8  473.13   10.41
  -1   3  -8  439.88   11.33
  -1   3  -8  491.81   12.30
  -1   3  -8  436.98   11.32
  -1   3  -8  462.29   10.19
  -1   3  -9  226.59    6.18
  -1   3  -9  228.75    6.77
  -1   3  -9  224.92    6.15
  -1   3  -9  226.81    6.36
   1  -2 -10   42.03    2.54
   1  -2 -10   43.44    2.55
   1  -2 -10   42.13    2.01
   1  -2 -10   43.11    2.40
   1  -2 -10   42.04    2.38
   1  -2  -9  114.79    4.84
   1  -2  -9  109.63    4.99
   1  -2  -9  117.71    4.41
   1  -2  -9  111.40    4.90
   1  -2  -9  115.66    4.82
   1  -2  -8   51.66    3.17
   1  -2  -8   48.53    3.19
   1  -2  -8   53.83    3.33
  -1   2   8   56.00    3.61
   1  -2  -8   48.24    2.97
   1  -2  -8   46.02    3.26
   1  -2  -8   50.69    3.48
   1  -2  -8   49.24    3.27
  -1   2   8   47.80    3.34
  -1   2   7  509.26   13.08
   1  -2  -7  557.59   12.89
   1  -2  -7  542.04   13.47
   1  -2  -7  528.41   12.85
   1  -2  -7  543.75   12.62
   1  -2  -7  515.25   11.99
  -1   2   7  542.77   13.34
   1  -2  -7  545.30   12.61
   1  -2  -7  505.37   12.52
   1  -2  -7  520.15   10.87
   1  -2  -6 1187.16   23.41
   1  -2  -6 1172.54   22.04
   1  -2  -6 1215.89   22.49
   1  -2  -6 1169.97   21.62
   1  -2  -6 1206.98   22.49
   1  -2  -6 1230.79   23.43
   1  -2  -6 1211.70   23.24
  -1   2   6 1157.38   23.23
  -1   2   6 1178.32   23.22
   1  -2  -6 1206.80   22.67
   1  -2  -6 1216.75   22.63
   1  -2  -5    6.08    1.01
   1  -2  -5    6.82    1.06
  -1   2   5    5.22    1.08
  -1   2   5    5.86    1.11
   1  -2  -5    5.62    1.10
   1  -2  -5    6.21    1.25
   1  -2  -5    8.18    1.26
  -1   2   4   18.95    1.57
   1  -2  -4   18.24    1.57
  -1   2   4   15.01    1.47
   1  -2  -4   18.75    1.57
  -1   2   4   15.69    1.64
   1  -2  -4   14.66    1.48
   1  -2  -3 4136.12   69.82
  -1   2   3 4442.94   68.93
  -1   2   3 4301.33   69.32
   1  -2  -3 4177.56   69.17
   1  -2  -3 4327.02   69.73
   1  -2  -3 4562.71   69.34
  -1   2   3 4437.92   68.56
  -1   2   2  905.13   15.88
  -1   2   2  940.41   16.38
  -1   2   2  915.63   15.72
   1  -2  -2  918.45   16.24
   1  -2  -2  897.01   16.11
  -1   2   1  273.68    5.28
  -1   2   1  274.51    5.82
   1  -2  -1  276.54    5.88
   1  -2  -1  285.80    5.71
  -1   2   1  269.61    6.05
  -1   2   0  160.81    4.36
  -1   2   0  157.55    4.59
   1  -2   0  162.20    4.09
   1  -2   0  164.30    3.81
   1  -2   0  169.57    3.58
   1  -2   1   18.96    1.21
  -1   2  -1   18.47    1.80
  -1   2  -1   16.85    1.19
  -1   2  -1   17.70    1.50
  -1   2  -2 2786.88   44.41
  -1   2  -2 2901.91   46.83
   1  -2   2 2827.74   46.15
  -1   2  -2 2977.68   47.37
   1  -2   2 2857.62   46.00
  -1   2  -3 1032.14   19.06
   1  -2   3  962.73   18.50
  -1   2  -3 1008.42   19.18
   1  -2   3 1009.80   18.73
   1  -2   3 1017.12   17.82
  -1   2  -4   12.62    1.51
   1  -2   4   14.52    1.37
   1  -2   4   12.15    1.50
   1  -2   4   11.99    1.46
  -1   2  -4   15.56    1.06
  -1   2  -5   75.79    3.41
  -1   2  -5   76.31    3.51
   1  -2   5   77.32    3.98
  -1   2  -5   73.84    3.55
   1  -2   5   76.36    3.55
  -1   2  -5   81.61    3.66
   1  -2   5   74.76    3.76
  -1   2  -5   76.36    3.47
  -1   2  -5   78.55    3.45
  -1   2  -6 1393.49   26.27
   1  -2   6 1388.33   26.40
  -1   2  -6 1388.61   26.22
  -1   2  -6 1352.40   26.36
   1  -2   6 1400.86   27.41
  -1   2  -6 1511.93   25.52
  -1   2  -6 1415.11   25.77
  -1   2  -6 1393.35   27.01
   1  -2   6 1428.33   27.24
  -1   2  -6 1389.77   26.59
   1  -2   7  302.26    9.25
  -1   2  -7  278.03    8.53
   1  -2   7  299.49    8.55
  -1   2  -7  301.08    9.08
  -1   2  -7  302.40    8.15
   1  -2   7  306.94    9.11
  -1   2  -7  289.64    8.65
   1  -2   8   60.76    3.19
   1  -2   8   62.76    3.75
  -1   2  -8   59.26    3.12
  -1   2  -8   64.05    4.06
  -1   2  -8   64.11    3.36
  -1   2  -8   73.28    3.93
  -1   2  -8   74.94    3.96
  -1   2  -8   68.21    3.85
   1  -2   8   66.73    3.78
  -1   2  -9  173.01    5.75
  -1   2  -9  178.71    5.24
  -1   2  -9  180.94    5.87
  -1   2  -9  173.28    6.13
  -1   2  -9  177.72    6.52
  -1   2 -10   20.99    1.60
   1  -1 -10    4.39    0.92
   1  -1 -10    5.93    0.96
   1  -1 -10    5.22    0.91
   1  -1 -10    6.59    1.04
   1  -1  -9  335.30    9.25
   1  -1  -9  338.30    8.10
   1  -1  -9  324.82    9.30
   1  -1  -9  340.93    9.32
   1  -1  -9  322.16    9.14
   1  -1  -8  243.48    7.18
  -1   1   8  237.30    7.99
   1  -1  -8  249.64    7.90
   1  -1  -8  245.31    7.97
  -1   1   8  245.46    8.24
   1  -1  -8  249.02    7.92
   1  -1  -8  248.28    7.87
   1  -1  -8  244.84    8.18
   1  -1  -8  246.49    7.08
   1  -1  -7   16.09    1.78
   1  -1  -7   13.18    1.62
  -1   1   7   10.98    1.76
   1  -1  -7   13.22    1.52
   1  -1  -7   11.74    1.70
   1  -1  -7   13.02    1.67
   1  -1  -7   15.19    1.75
   1  -1  -7   11.28    1.58
   1  -1  -6  680.54   14.33
   1  -1  -6  678.62   14.84
   1  -1  -6  661.95   14.94
   1  -1  -6  680.09   14.22
   1  -1  -6  661.15   14.06
   1  -1  -6  647.90   12.68
   1  -1  -6  673.80   14.21
   1  -1  -6  644.07   13.27
  -1   1   6  678.24   15.10
   1  -1  -6  664.61   14.10
   1  -1  -5  459.01   10.65
   1  -1  -5  472.27   10.62
  -1   1   5  459.47    9.56
   1  -1  -5  459.22    9.59
   1  -1  -5  470.92   10.68
  -1   1   4  240.19    5.52
   1  -1  -4  232.25    6.37
   1  -1  -4  235.53    4.08
   1  -1  -4  244.41    6.40
  -1   1   4  231.47    6.30
   1  -1  -4  236.36    6.25
  -1   1   3 1124.18   19.19
  -1   1   3 1130.57   19.86
   1  -1  -3 1145.52   19.71
   1  -1  -3 1146.80   20.22
   1  -1  -3 1143.45   17.65
  -1   1   2 2742.38   43.65
   1  -1  -2 2774.72   44.63
   1  -1  -2 2650.35   43.78
   1  -1  -2 2808.95   43.60
  -1   1   1  332.15    6.27
   1  -1  -1  338.67    6.32
  -1   1   1  348.59    6.19
   1  -1  -1  346.99    6.54
   1  -1   0 6806.92   98.64
  -1   1   0 5827.00   98.75
   1  -1   0 7167.15   98.47
  -1   1   0 5786.54   98.71
   1  -1   0 6509.98   98.65
  -1   1  -1 1728.08   31.24
   1  -1   1 1801.33   30.53
  -1   1  -1 1779.61   31.23
   1  -1   1 2043.63   30.85
   1  -1   1 2050.54   30.01
  -1   1  -2 9812.85  138.63
   1  -1   2 9999.00  140.13
   1  -1   3 6035.00   95.11
  -1   1  -3 5860.55   94.27
  -1   1  -3 6163.88   95.33
  -1   1  -3 6250.48   95.40
   1  -1   3 6147.44   94.98
   1  -1   3 5996.72   94.58
   1  -1   4  706.20   13.99
   1  -1   4  722.60   13.88
   1  -1   4  734.57   14.33
  -1   1  -4  710.56   11.57
   1  -1   5   99.07    3.97
  -1   1  -5  109.87    3.74
   1  -1   5  103.82    4.26
   1  -1   6 1388.53   26.28
  -1   1  -6 1394.38   26.12
  -1   1  -6 1463.18   24.53
  -1   1  -6 1351.10   26.32
  -1   1  -6 1425.27   25.48
  -1   1  -6 1382.74   25.85
   1  -1   6 1419.39   26.94
  -1   1  -6 1440.51   25.54
   1  -1   6 1419.43   26.50
  -1   1  -6 1375.34   25.88
  -1   1  -6 1388.99   24.88
  -1   1  -7 1149.96   23.16
   1  -1   7 1138.50   23.01
  -1   1  -7 1144.97   21.68
  -1   1  -7 1169.69   22.31
  -1   1  -7 1151.57   22.14
   1  -1   7 1178.29   22.98
  -1   1  -7 1155.21   21.01
   1  -1   7 1126.80   23.46
  -1   1  -7 1131.85   23.26
  -1   1  -7 1129.50   22.97
  -1   1  -7 1171.79   22.29
  -1   1  -8   83.85    3.74
  -1   1  -8   79.92    4.27
  -1   1  -8   72.09    4.33
   1  -1   8   74.85    4.27
  -1   1  -8   79.38    3.99
  -1   1  -8   75.01    3.89
   1  -1   8   72.39    3.90
   1  -1   8   68.87    3.94
  -1   1  -8   76.77    3.85
  -1   1  -9   42.89    3.08
  -1   1  -9   41.09    2.63
  -1   1  -9   43.54    2.81
  -1   1  -9   43.97    2.82
  -1   1  -9   39.41    3.12
  -1   1  -9   38.40    2.30
  -1   1 -10   18.16    1.47
  -1   1 -10   18.31    1.47
  -1   1 -10   21.23    1.90
  -1   1 -10   19.31    1.44
   1   0 -10    4.89    0.86
   1   0 -10    7.22    1.01
   1   0 -10    5.50    0.91
   1   0 -10    4.86    0.84
   1   0  -9  550.88   12.78
   1   0  -9  570.19   13.14
   1   0  -9  548.84   12.80
   1   0  -9  559.47   13.09
  -1   0   8 1350.57   26.84
  -1   0   8 1394.18   26.75
   1   0  -8 1366.17   26.75
   1   0  -8 1345.65   26.28
   1   0  -8 1371.14   26.64
   1   0  -8 1387.17   26.68
   1   0  -8 1352.30   26.30
   1   0  -8 1370.97   24.66
   1   0  -7    3.10    1.02
  -1   0   7    3.85    1.20
   1   0  -7    7.25    1.12
   1   0  -7    3.74    1.16
   1   0  -7    3.19    1.04
  -1   0   7    5.49    1.16
   1   0  -7    2.84    0.82
   1   0  -7    4.02    1.09
  -1   0   7    4.05    1.22
   1   0  -7    3.52    1.12
   1   0  -7    2.91    1.04
   1   0  -6   64.30    3.63
   1   0  -6   67.86    3.38
  -1   0   6   64.95    3.74
   1   0  -6   60.03    2.70
   1   0  -6   62.65    3.42
   1   0  -6   73.43    3.27
   1   0  -6   62.08    3.25
  -1   0   6   64.60    3.24
   1   0  -6   61.22    3.22
   1   0  -6   64.07    3.22
   1   0  -5  382.17    8.14
   1   0  -5  394.04    8.99
   1   0  -5  398.86    9.64
   1   0  -5  389.91    9.13
   1   0  -5  382.07    8.94
  -1   0   5  386.01    9.79
   1   0  -5  392.76    8.99
  -1   0   5  395.96    9.06
   1   0  -5  396.78    9.03
   1   0  -5  388.45    9.50
  -1   0   4 1052.59   19.06
  -1   0   4 1060.40   19.90
   1   0  -4 1032.11   19.57
   1   0  -4 1078.60   19.44
   1   0  -4 1108.29   19.26
   1   0  -4 1051.07   19.55
   1   0  -4 1092.03   17.54
  -1   0   3  837.95   15.66
   1   0  -3  858.28   15.42
   1   0  -3  904.32   16.36
  -1   0   3  853.29   15.12
   1   0  -3  864.61   14.08
   1   0  -3  851.44   15.57
  -1   0   2   56.26    1.82
   1   0  -2   51.41    2.75
  -1   0   2   55.36    1.32
   1   0  -2   51.50    1.84
   1   0  -2   56.56    2.05
  -1   0   1  279.11    4.98
  -1   0   1  265.05    4.92
   1   0  -1  264.37    4.88
   1   0  -1  262.73    5.19
   1   0  -1  258.38    6.29
  -1   0   0 1988.19   31.18
   1   0   0 2048.75   31.07
  -1   0   0 1996.52   31.22
  -1   0   0 1982.78   31.98
   1   0   1 1678.49   26.12
  -1   0  -1 1716.14   25.90
   1   0   1 1694.08   25.92
  -1   0  -1 1654.51   26.22
  -1   0  -1 1610.98   26.13
  -1   0  -2   41.41    1.26
   1   0   2   40.10    1.48
  -1   0  -3   18.41    0.64
  -1   0  -3   19.01    0.99
   1   0   3   16.53    1.11
  -1   0  -3   19.52    1.29
   1   0   3   16.38    1.07
  -1   0  -4  471.98    8.92
   1   0   4  457.85    9.63
   1   0   4  447.02    9.35
  -1   0  -5   13.67    1.45
   1   0   5   11.44    1.36
  -1   0  -5   11.66    0.96
  -1   0  -5   11.62    1.03
   1   0   5   14.68    1.34
   1   0   5   14.92    1.49
  -1   0  -6  718.62   15.19
   1   0   6  718.81   15.27
  -1   0  -6  724.16   13.86
  -1   0  -6  723.87   14.87
  -1   0  -6  738.68   14.83
  -1   0  -6  738.20   14.63
  -1   0  -6  702.25   13.76
   1   0   6  718.70   14.67
   1   0   6  701.87   15.36
  -1   0  -6  689.46   14.59
   1   0   7  576.47   13.83
   1   0   7  569.12   13.97
  -1   0  -7  587.67   12.71
  -1   0  -7  602.41   13.44
  -1   0  -7  582.95   12.69
  -1   0  -7  585.23   12.94
  -1   0  -7  581.08   11.70
  -1   0  -7  584.72   13.66
  -1   0  -7  588.70   13.79
  -1   0  -7  579.25   12.35
   1   0   7  595.02   13.22
   1   0   8  126.59    5.57
  -1   0  -8  126.39    4.91
  -1   0  -8  121.62    5.05
   1   0   8  121.94    5.00
  -1   0  -8  121.46    4.86
   1   0   8  126.79    5.67
  -1   0  -8  125.13    5.66
  -1   0  -8  134.52    4.86
  -1   0  -8  131.86    5.67
  -1   0  -9  159.64    5.68
  -1   0  -9  160.68    5.82
   1   0   9  154.28    6.19
  -1   0  -9  156.97    5.25
   1   0   9  157.50    6.19
  -1   0  -9  169.53    5.82
  -1   0  -9  165.99    6.52
  -1   0  -9  164.21    6.72
  -1   0  -9  162.82    6.21
   1   0   9  156.76    5.35
  -1   0 -10   39.71    2.32
  -1   0 -10   39.48    2.31
  -1   0 -10   45.34    2.58
  -1   0 -10   40.43    2.86
  -1   0 -11  129.78    4.10
  -1   0 -11  130.99    4.37
   1   1 -10  117.46    3.71
   1   1 -10  112.22    3.26
   1   1 -10  119.33    3.74
   1   1 -10  112.71    3.39
   1   1  -9  153.55    5.60
   1   1  -9  151.71    5.30
   1   1  -9  151.38    5.20
   1   1  -9  157.54    5.63
   1   1  -8 1442.95   27.66
   1   1  -8 1393.42   27.00
   1   1  -8 1398.14   27.27
  -1  -1   8 1465.38   27.29
  -1  -1   8 1386.48   27.11
   1   1  -8 1400.44   26.72
   1   1  -8 1451.58   27.73
  -1  -1   7   70.79    4.03
   1   1  -7   75.86    3.85
   1   1  -7   76.75    4.16
  -1  -1   7   78.36    4.31
   1   1  -7   70.69    4.12
   1   1  -7   75.88    4.13
  -1  -1   7   74.20    3.93
   1   1  -7   69.27    3.08
   1   1  -7   72.48    4.11
   1   1  -7   77.04    4.05
  -1  -1   6   29.31    2.37
   1   1  -6   30.89    2.40
   1   1  -6   32.42    2.49
   1   1  -6   29.58    1.82
   1   1  -6   30.26    2.36
   1   1  -6   29.49    2.36
  -1  -1   6   28.27    2.47
  -1  -1   6   33.24    2.74
   1   1  -6   29.25    2.45
   1   1  -6   31.11    1.87
  -1  -1   5  424.42   10.55
   1   1  -5  416.63    9.82
   1   1  -5  426.86    9.87
  -1  -1   5  433.56   10.50
   1   1  -5  404.93    9.68
  -1  -1   5  406.75    9.95
   1   1  -5  428.65   10.30
   1   1  -5  415.37    9.80
   1   1  -5  431.73    9.04
  -1  -1   4 1456.83   26.91
  -1  -1   4 1479.79   26.50
   1   1  -4 1442.45   26.28
   1   1  -4 1573.56   25.33
   1   1  -4 1534.68   26.31
   1   1  -4 1569.34   25.82
   1   1  -4 1505.34   26.61
   1   1  -3 1772.06   28.73
   1   1  -3 1906.75   30.52
  -1  -1   3 1860.18   29.60
   1   1  -3 1777.79   28.25
   1   1  -3 1622.19   28.85
  -1  -1   3 1710.02   26.72
  -1  -1   3 1846.20   29.28
  -1  -1   2  141.05    3.67
  -1  -1   2  136.31    2.57
   1   1  -2  139.94    4.09
  -1  -1   2  138.28    2.59
  -1  -1   2  133.98    3.57
   1   1  -2  146.03    3.28
   1   1  -2  136.74    3.50
  -1  -1   1  249.56    4.35
   1   1  -1  255.33    4.95
  -1  -1   1  244.93    4.31
   1   1  -1  245.21    4.79
  -1  -1   1  245.72    4.87
   1   1  -1  255.13    4.77
  -1  -1   1  256.50    4.29
   1   1  -1  236.93    4.44
  -1  -1   0  207.92    3.70
  -1  -1   0  209.42    3.69
  -1  -1   0  194.85    3.69
   1   1   0  202.93    3.54
  -1  -1   0  212.42    3.48
  -1  -1   0  199.51    3.76
   1   1   0  208.29    3.71
  -1  -1  -1 4756.34   77.86
  -1  -1  -1 5234.41   77.61
  -1  -1  -2   96.82    1.96
  -1  -1  -2   88.32    2.14
   1   1   2   90.85    1.97
  -1  -1  -2   94.82    2.30
  -1  -1  -2   97.24    1.98
  -1  -1  -3    6.40    0.39
  -1  -1  -3    8.05    0.78
  -1  -1  -3    8.36    0.44
   1   1   3    7.77    0.62
  -1  -1  -3    7.53    0.73
  -1  -1  -4 1198.80   20.90
  -1  -1  -4 1194.01   21.08
   1   1   4 1234.81   21.15
   1   1   4 1264.04   20.48
   1   1   5 1912.25   31.22
  -1  -1  -5 1851.95   32.11
   1   1   5 1896.36   32.15
  -1  -1  -5 1864.95   31.63
  -1  -1  -6 1082.83   19.79
   1   1   6 1083.00   19.54
   1   1   6 1041.14   20.64
  -1  -1  -6 1083.44   20.61
  -1  -1  -6 1088.76   20.07
  -1  -1  -7  462.18   11.62
  -1  -1  -7  471.13   11.33
  -1  -1  -7  436.43   10.05
  -1  -1  -7  457.17   10.19
  -1  -1  -7  481.49   10.97
   1   1   7  461.91   11.73
  -1  -1  -7  476.26   10.31
  -1  -1  -7  468.73   10.48
  -1  -1  -7  477.99   10.87
  -1  -1  -7  472.43    9.65
   1   1   7  468.36   10.48
  -1  -1  -8    6.04    0.92
  -1  -1  -8    3.95    1.11
  -1  -1  -8    5.00    1.09
  -1  -1  -8    3.90    1.14
  -1  -1  -8    6.51    1.14
   1   1   8    4.61    1.20
   1   1   8    4.67    1.30
  -1  -1  -8    4.24    1.05
   1   1   8    4.32    0.98
  -1  -1  -8    5.88    1.08
  -1  -1  -8    3.95    1.11
   1   1   9  472.82   12.62
  -1  -1  -9  491.36   11.47
  -1  -1  -9  509.04   13.32
  -1  -1  -9  500.29   12.98
   1   1   9  486.07   12.67
   1   1   9  496.04   10.67
  -1  -1  -9  491.51   11.26
  -1  -1  -9  495.74   11.48
  -1  -1  -9  493.14   12.20
  -1  -1  -9  501.61   12.67
  -1  -1 -10  326.01    7.96
  -1  -1 -10  324.57    7.93
  -1  -1 -10  315.28    8.58
  -1  -1 -10  306.16    7.54
  -1  -1 -10  323.28    9.46
  -1  -1 -11   61.38    3.16
  -1  -1 -11   59.46    2.98
  -1  -1 -11   59.74    2.58
   1   2  -9    5.92    0.99
   1   2  -9    7.49    1.01
   1   2  -9    6.47    1.12
   1   2  -9    7.04    1.14
   1   2  -8  325.89    9.46
   1   2  -8  335.72    9.55
   1   2  -8  321.95    9.48
   1   2  -8  314.32    8.55
   1   2  -8  321.46    9.02
  -1  -2   7   70.22    3.89
   1   2  -7   67.47    3.99
   1   2  -7   63.78    3.94
   1   2  -7   61.41    3.42
   1   2  -7   65.89    3.85
   1   2  -7   67.03    3.83
  -1  -2   7   64.01    3.73
   1   2  -7   66.77    3.96
  -1  -2   7   66.20    3.82
  -1  -2   6  204.80    7.13
  -1  -2   6  205.13    7.13
   1   2  -6  209.97    7.09
  -1  -2   6  206.88    7.11
   1   2  -6  202.72    6.98
   1   2  -6  219.39    7.09
   1   2  -6  205.38    7.10
   1   2  -6  193.36    6.83
  -1  -2   5 1004.16   20.23
  -1  -2   5 1017.99   20.23
   1   2  -5  964.12   19.44
   1   2  -5 1029.13   19.60
   1   2  -5  958.03   19.43
  -1  -2   5  998.76   20.16
   1   2  -5 1045.36   18.60
   1   2  -5 1004.00   20.02
   1   2  -5  984.66   19.46
  -1  -2   4  395.86    9.60
  -1  -2   4  408.22    9.70
   1   2  -4  407.30    7.83
  -1  -2   4  420.27    9.80
   1   2  -4  391.98    8.95
   1   2  -4  404.69    8.85
   1   2  -4  391.01    9.02
   1   2  -4  371.22    8.91
  -1  -2   3  891.75   17.15
   1   2  -3  945.06   16.65
  -1  -2   3  901.45   17.01
   1   2  -3  928.25   15.60
  -1  -2   3  909.28   17.01
   1   2  -3  900.13   17.33
   1   2  -2  297.20    6.45
  -1  -2   2  307.25    6.65
   1   2  -2  311.32    6.12
  -1  -2   2  298.64    5.39
  -1  -2   2  290.92    6.39
   1   2  -2  307.59    6.27
   1   2  -2  292.44    6.28
  -1  -2   2  295.41    6.73
   1   2  -1   68.13    2.38
  -1  -2   1   74.44    2.36
  -1  -2   1   77.53    1.94
   1   2  -1   75.41    2.36
  -1  -2   1   77.41    2.27
   1   2  -1   73.74    1.91
  -1  -2   1   72.82    2.07
  -1  -2   0   58.79    1.65
  -1  -2   0   61.51    1.77
   1   2   0   57.51    1.89
  -1  -2   0   59.77    1.71
  -1  -2   0   59.28    1.36
   1   2   0   60.24    1.87
   1   2   0   60.27    1.26
  -1  -2  -1 1867.80   29.10
   1   2   1 1919.29   29.73
  -1  -2  -1 1887.93   29.79
  -1  -2  -1 1912.16   29.48
   1   2   1 1873.57   29.38
   1   2   1 1822.27   29.66
  -1  -2  -2 2056.65   33.17
  -1  -2  -2 2084.80   32.97
   1   2   2 2148.77   32.96
   1   2   2 2170.48   32.67
  -1  -2  -2 2014.55   33.00
  -1  -2  -2 2012.87   32.91
  -1  -2  -3 1247.50   19.93
   1   2   3 1219.44   19.28
  -1  -2  -3 1249.04   20.91
   1   2   3 1261.14   19.48
   1   2   3 1279.80   20.37
   1   2   4  391.81    8.02
   1   2   4  383.74    7.03
  -1  -2  -4  388.34    8.20
  -1  -2  -4  400.06    6.89
  -1  -2  -4  390.86    8.39
   1   2   5  502.85    9.41
  -1  -2  -5  498.94   10.80
  -1  -2  -5  513.21    8.37
   1   2   5  502.64   10.61
  -1  -2  -5  534.12   10.96
  -1  -2  -6  258.25    7.42
   1   2   6  274.60    6.14
   1   2   6  280.93    7.47
  -1  -2  -6  265.42    7.25
  -1  -2  -7  226.66    6.82
  -1  -2  -7  221.87    6.66
  -1  -2  -7  229.39    6.31
   1   2   7  218.95    7.08
  -1  -2  -7  228.32    6.90
  -1  -2  -7  228.46    7.34
   1   2   7  234.37    5.80
  -1  -2  -7  216.75    5.74
  -1  -2  -7  223.90    5.78
  -1  -2  -7  226.21    5.67
  -1  -2  -7  220.31    6.08
  -1  -2  -7  229.05    6.92
   1   2   8  226.19    7.78
  -1  -2  -8  228.68    6.50
  -1  -2  -8  233.33    6.02
  -1  -2  -8  223.98    7.60
  -1  -2  -8  234.71    7.41
  -1  -2  -8  227.22    6.47
  -1  -2  -8  233.37    7.84
   1   2   8  243.02    6.12
  -1  -2  -8  227.75    6.74
  -1  -2  -8  229.87    7.67
  -1  -2  -9  168.42    6.37
  -1  -2  -9  173.00    5.61
  -1  -2  -9  170.96    5.57
  -1  -2  -9  161.81    5.59
   1   2   9  170.69    6.69
  -1  -2  -9  174.62    6.63
   1   2   9  172.69    6.72
  -1  -2  -9  164.73    6.67
  -1  -2 -10  825.62   18.37
  -1  -2 -10  847.26   17.55
  -1  -2 -10  809.52   16.08
  -1  -2 -11  139.00    5.28
  -1  -2 -11  138.45    4.65
  -1  -2 -11  139.93    5.05
   1   3  -9  141.68    3.97
   1   3  -9  148.15    4.56
   1   3  -9  146.06    4.54
   1   3  -8   32.57    2.47
   1   3  -8   31.92    2.09
   1   3  -8   32.50    2.35
   1   3  -8   34.28    2.62
   1   3  -8   33.87    2.58
   1   3  -7  166.55    6.52
  -1  -3   7  151.75    5.61
   1   3  -7  159.52    5.56
   1   3  -7  160.70    6.21
   1   3  -7  164.30    6.47
   1   3  -7  150.30    5.89
   1   3  -7  161.77    6.14
  -1  -3   7  148.26    5.92
  -1  -3   6  106.87    4.49
  -1  -3   6  119.49    5.37
   1   3  -6  111.65    5.20
  -1  -3   6  112.14    4.99
   1   3  -6  115.64    5.30
   1   3  -6  106.18    4.96
   1   3  -6  115.54    5.13
   1   3  -5 1761.83   31.96
   1   3  -5 1811.25   32.37
  -1  -3   5 1833.13   32.91
   1   3  -5 1758.60   32.58
   1   3  -5 1771.13   32.52
   1   3  -5 1832.10   31.49
  -1  -3   5 1775.49   33.10
  -1  -3   5 1686.18   31.75
   1   3  -5 1785.13   32.53
   1   3  -4  203.85    6.07
   1   3  -4  173.62    5.74
  -1  -3   4  189.83    5.91
   1   3  -4  180.05    5.68
  -1  -3   4  184.53    4.71
  -1  -3   4  195.73    6.32
   1   3  -4  181.52    5.84
  -1  -3   4  190.82    6.43
   1   3  -3    2.80    0.75
  -1  -3   3    1.09    0.66
  -1  -3   3    2.91    0.80
   1   3  -3    5.00    1.05
   1   3  -3    4.15    1.06
  -1  -3   3    5.76    1.12
  -1  -3   2  241.05    5.74
   1   3  -2  254.30    4.34
  -1  -3   2  244.57    6.27
   1   3  -2  239.24    6.28
  -1  -3   2  253.98    6.56
   1   3  -2  247.51    6.39
  -1  -3   1 2409.51   39.31
  -1  -3   1 2520.29   40.41
  -1  -3   1 2589.75   39.83
   1   3  -1 2557.35   40.78
   1   3  -1 2497.44   41.32
  -1  -3   1 2447.87   40.48
   1   3   0  303.10    7.04
  -1  -3   0  312.92    6.38
   1   3   0  307.13    6.14
   1   3   0  315.83    6.65
  -1  -3   0  320.56    6.39
  -1  -3   0  310.63    5.00
  -1  -3   0  318.11    6.20
   1   3   1 1066.63   17.54
  -1  -3  -1 1011.26   17.62
   1   3   1 1088.11   18.16
  -1  -3  -1 1119.44   18.08
   1   3   1 1036.59   17.80
  -1  -3  -1 1047.30   16.90
  -1  -3  -2  429.88    8.04
   1   3   2  416.40    8.15
   1   3   2  414.34    7.59
   1   3   2  402.30    6.83
   1   3   2  411.94    7.80
   1   3   3  618.87   11.01
   1   3   3  596.12   10.11
  -1  -3  -3  604.77   11.00
  -1  -3  -3  616.11   11.21
   1   3   4  254.68    5.75
  -1  -3  -4  278.42    5.63
  -1  -3  -4  261.42    6.65
  -1  -3  -4  266.72    6.40
   1   3   5 1277.99   20.00
   1   3   5 1277.33   22.01
  -1  -3  -5 1317.33   22.78
   1   3   6   46.65    2.62
   1   3   6   51.11    1.69
  -1  -3  -6   48.86    2.90
  -1  -3  -6   45.72    2.52
  -1  -3  -6   53.24    2.72
  -1  -3  -6   43.09    2.74
  -1  -3  -7  807.81   15.34
  -1  -3  -7  824.51   17.26
  -1  -3  -7  824.14   16.80
  -1  -3  -7  834.57   17.03
   1   3   7  835.20   17.13
  -1  -3  -7  804.61   16.07
  -1  -3  -7  813.73   17.54
  -1  -3  -8  128.27    4.89
  -1  -3  -8  138.64    4.45
  -1  -3  -8  126.51    5.34
   1   3   8  130.32    5.57
  -1  -3  -8  130.45    5.59
  -1  -3  -8  136.56    5.48
  -1  -3  -8  134.01    5.77
   1   3   9   18.96    2.19
  -1  -3  -9   21.07    2.25
  -1  -3  -9   24.36    2.53
  -1  -3  -9   18.84    2.14
   1   3   9   23.74    2.43
  -1  -3  -9   22.49    2.01
  -1  -3 -10  784.62   16.89
  -1  -3 -10  767.47   17.54
  -1  -3 -10  738.42   15.40
  -1  -3 -10  789.46   17.09
  -1  -3 -11  317.09    8.76
  -1  -3 -11  304.55    8.38
  -1  -3 -11  297.72    8.01
  -1  -3 -11  308.26    7.40
   1   4  -8    4.70    0.84
   1   4  -8    5.03    1.02
   1   4  -8    5.44    1.01
   1   4  -7   45.91    2.55
   1   4  -7   44.47    2.87
   1   4  -7   45.07    2.98
   1   4  -7   46.34    3.21
   1   4  -7   42.31    3.08
  -1  -4   6   11.01    1.67
   1   4  -6    7.58    1.39
   1   4  -6    8.69    1.56
   1   4  -6    8.85    1.45
  -1  -4   6    7.49    1.27
   1   4  -6    7.74    1.56
   1   4  -6    9.42    1.67
   1   4  -5  628.28   15.20
   1   4  -5  624.86   14.58
  -1  -4   5  644.69   14.86
  -1  -4   5  674.22   15.69
   1   4  -5  676.75   14.43
   1   4  -5  648.76   15.36
   1   4  -5  642.43   15.16
   1   4  -4  563.92   13.34
  -1  -4   4  554.31   11.73
  -1  -4   4  606.45   13.66
   1   4  -4  557.39   12.86
   1   4  -4  610.11   13.57
  -1  -4   4  595.89   14.07
   1   4  -4  563.46   13.38
  -1  -4   3   39.75    2.76
   1   4  -3   38.08    2.21
  -1  -4   3   40.88    2.67
   1   4  -3   41.46    2.53
   1   4  -3   37.04    2.43
   1   4  -3   37.92    2.72
   1   4  -3   36.94    2.42
  -1  -4   2   22.47    1.90
  -1  -4   2   18.30    1.15
  -1  -4   2   21.33    1.75
   1   4  -2   22.16    1.95
  -1  -4   2   20.28    1.26
   1   4  -2   19.08    1.84
   1   4  -1 2197.96   37.48
   1   4  -1 2122.01   36.50
  -1  -4   1 2008.39   35.84
  -1  -4   1 2102.45   35.91
  -1  -4   1 2284.67   35.47
   1   4   0 1429.96   26.14
   1   4   0 1456.77   25.02
  -1  -4   0 1361.44   23.98
  -1  -4   0 1390.80   24.48
   1   4   1  163.85    4.28
   1   4   1  161.75    5.07
  -1  -4  -1  168.10    4.49
  -1  -4  -1  165.29    3.60
   1   4   1  167.89    4.59
  -1  -4  -1  172.82    4.80
   1   4   2   44.72    2.29
   1   4   2   36.96    1.78
   1   4   2   43.19    1.93
  -1  -4  -2   39.02    2.09
   1   4   3 1068.76   17.12
  -1  -4  -3 1032.75   18.93
   1   4   3 1029.33   17.91
  -1  -4  -3 1146.77   19.00
  -1  -4  -3 1012.94   18.98
   1   4   3 1086.10   19.28
   1   4   3 1087.99   18.86
   1   4   4 1429.55   23.37
  -1  -4  -4 1429.58   25.90
   1   4   4 1521.20   25.63
  -1  -4  -4 1510.56   25.15
   1   4   4 1424.55   25.68
  -1  -4  -4 1488.30   25.84
   1   4   4 1513.58   24.17
  -1  -4  -5 2138.53   38.12
  -1  -4  -5 2121.21   37.63
   1   4   5 2195.87   36.17
  -1  -4  -5 2207.07   36.12
  -1  -4  -6    3.20    0.79
  -1  -4  -6    3.93    0.62
  -1  -4  -6    3.82    0.83
   1   4   6    4.85    0.93
  -1  -4  -6    3.24    0.81
  -1  -4  -6    2.85    0.87
  -1  -4  -6    2.09    0.68
  -1  -4  -6    2.86    0.98
   1   4   6    2.79    0.87
  -1  -4  -6    1.90    0.81
  -1  -4  -7  273.52    8.02
   1   4   7  284.31    7.87
  -1  -4  -7  295.16    8.07
   1   4   7  268.40    8.44
  -1  -4  -7  281.64    7.18
  -1  -4  -7  281.13    7.80
  -1  -4  -7  275.84    8.57
  -1  -4  -7  280.37    8.18
  -1  -4  -7  276.79    8.57
  -1  -4  -8 1414.78   27.94
   1   4   8 1411.93   28.40
  -1  -4  -8 1509.69   27.23
   1   4   8 1453.63   27.42
  -1  -4  -8 1414.23   25.83
  -1  -4  -8 1446.96   27.88
  -1  -4  -8 1455.71   27.71
  -1  -4  -8 1468.37   28.46
  -1  -4  -8 1454.43   28.21
  -1  -4  -9  179.33    6.80
  -1  -4  -9  174.79    6.06
   1   4   9  180.25    7.00
  -1  -4  -9  183.53    7.18
   1   4   9  168.57    6.35
  -1  -4  -9  185.82    6.99
  -1  -4  -9  173.31    5.15
  -1  -4  -9  177.93    6.70
  -1  -4 -10  299.66    9.33
  -1  -4 -10  277.98    8.59
  -1  -4 -10  292.13    7.83
  -1  -4 -10  295.68    8.90
  -1  -4 -11  269.58    7.59
  -1  -4 -11  265.76    7.21
  -1  -4 -11  267.97    7.55
   1   5  -7  301.25    8.23
   1   5  -7  305.57    8.28
   1   5  -7  300.79    7.65
   1   5  -6  204.40    7.24
   1   5  -6  209.65    6.55
   1   5  -6  202.60    7.23
   1   5  -6  204.93    7.00
  -1  -5   5   42.82    2.27
  -1  -5   5   44.19    2.88
   1   5  -5   44.04    2.73
   1   5  -5   44.54    2.96
   1   5  -5   44.16    3.36
   1   5  -5   42.37    3.27
  -1  -5   5   46.61    3.24
   1   5  -5   44.09    3.23
  -1  -5   4  577.29   12.88
   1   5  -4  644.49   14.57
  -1  -5   4  634.71   14.30
   1   5  -4  630.32   15.01
  -1  -5   4  611.79   14.83
   1   5  -4  620.26   14.90
   1   5  -3  232.34    6.77
  -1  -5   3  241.04    7.51
  -1  -5   3  241.32    7.78
   1   5  -3  248.75    8.01
   1   5  -3  230.76    7.47
   1   5  -3  230.07    7.44
   1   5  -3  231.79    7.20
  -1  -5   2   10.51    1.42
   1   5  -2   11.23    1.73
   1   5  -2    6.96    1.49
  -1  -5   2   10.84    1.52
   1   5  -1 1612.29   30.73
  -1  -5   1 1670.12   29.07
  -1  -5   1 1608.91   28.17
  -1  -5   1 1666.80   28.90
  -1  -5   0  817.03   15.16
   1   5   0  823.55   16.55
  -1  -5   0  833.87   16.02
  -1  -5   0  808.07   16.00
  -1  -5  -1  711.83   14.07
   1   5   1  701.66   14.31
   1   5   1  704.04   15.79
  -1  -5  -1  701.71   12.48
   1   5   1  728.80   13.89
  -1  -5  -1  728.32   14.69
   1   5   2   47.54    2.98
  -1  -5  -2   47.20    2.71
   1   5   2   47.57    2.42
   1   5   2   47.11    2.37
  -1  -5  -3  536.47   11.54
   1   5   3  511.75   10.28
   1   5   3  498.96   11.59
   1   5   3  519.78   10.94
  -1  -5  -4 1225.13   22.26
   1   5   4 1176.67   20.17
   1   5   4 1242.41   22.24
   1   5   4 1241.61   22.70
  -1  -5  -4 1177.45   22.45
   1   5   5 1402.95   22.77
   1   5   5 1323.82   25.27
  -1  -5  -5 1341.81   25.49
  -1  -5  -5 1352.40   25.63
  -1  -5  -5 1358.97   24.08
  -1  -5  -5 1379.53   24.32
  -1  -5  -5 1340.86   24.32
  -1  -5  -5 1330.55   24.45
   1   5   5 1344.58   25.18
  -1  -5  -5 1353.94   23.73
  -1  -5  -6  234.43    7.88
  -1  -5  -6  235.38    5.71
   1   5   6  231.45    7.41
  -1  -5  -6  242.17    7.05
  -1  -5  -6  240.95    6.64
   1   5   6  248.04    6.06
  -1  -5  -6  238.04    7.02
  -1  -5  -6  237.10    6.74
   1   5   6  234.02    7.38
  -1  -5  -6  234.41    6.10
  -1  -5  -6  237.06    6.60
  -1  -5  -6  234.97    7.59
  -1  -5  -7  177.28    5.67
  -1  -5  -7  171.37    5.42
  -1  -5  -7  178.29    6.75
  -1  -5  -7  173.11    6.32
   1   5   7  175.01    6.39
  -1  -5  -7  159.64    6.56
  -1  -5  -7  185.49    6.12
   1   5   7  177.25    5.44
  -1  -5  -7  179.18    6.14
  -1  -5  -7  174.74    6.31
   1   5   7  181.82    6.76
  -1  -5  -8 1826.59   33.08
   1   5   8 1748.85   34.01
  -1  -5  -8 1814.29   33.14
  -1  -5  -8 1840.82   34.36
   1   5   8 1787.64   33.12
  -1  -5  -8 1803.37   30.82
  -1  -5  -8 1796.77   31.76
  -1  -5  -8 1784.61   33.97
   1   5   8 1792.72   32.00
  -1  -5  -8 1798.57   33.84
   1   5   9  391.31   10.38
   1   5   9  396.20   11.27
  -1  -5  -9  407.42   11.32
  -1  -5  -9  411.76   11.43
  -1  -5  -9  420.41   10.63
  -1  -5  -9  402.90   10.96
  -1  -5  -9  403.59    9.26
   1   5   9  385.23    9.51
  -1  -5 -10   44.50    3.00
  -1  -5 -10   43.03    3.10
  -1  -5 -10   42.93    3.10
  -1  -5 -11   10.02    1.38
  -1  -5 -11   10.72    1.41
  -1  -5 -11   10.56    1.38
  -1  -5 -11    9.02    1.28
   1   6  -6  566.91   12.79
   1   6  -6  581.33   12.90
   1   6  -6  536.76   10.80
   1   6  -6  578.12   12.34
   1   6  -5   46.18    3.27
   1   6  -5   44.46    3.23
   1   6  -5   47.30    2.68
   1   6  -5   52.26    3.38
   1   6  -4   15.49    1.82
   1   6  -4   14.00    1.99
   1   6  -4   14.22    2.01
  -1  -6   4   15.66    1.56
   1   6  -4   17.67    1.80
  -1  -6   4   13.33    1.75
  -1  -6   4   17.30    1.76
  -1  -6   3 1066.15   22.00
   1   6  -3 1135.10   22.92
  -1  -6   3 1102.96   21.96
  -1  -6   3 1072.08   21.22
   1   6  -3 1091.08   22.75
   1   6  -3 1088.58   22.77
   1   6  -3 1103.93   20.87
   1   6  -2  365.20   10.26
   1   6  -2  366.67   10.64
   1   6  -2  371.30   10.36
   1   6  -2  375.43   10.89
  -1  -6   2  350.51    9.75
  -1  -6   1 1203.41   23.01
  -1  -6   1 1219.46   22.46
   1   6  -1 1114.31   23.78
  -1  -6   1 1200.14   22.58
  -1  -6   1 1193.48   21.82
   1   6  -1 1189.53   24.95
   1   6   0  289.77    8.73
  -1  -6   0  298.68    8.12
   1   6   0  283.07    9.98
  -1  -6   0  293.51    7.84
  -1  -6   0  290.80    7.11
  -1  -6   0  283.52    8.22
   1   6   1  241.21    9.07
   1   6   1  249.51    6.92
  -1  -6  -1  246.43    6.39
   1   6   1  242.89    7.49
  -1  -6  -1  256.79    7.31
  -1  -6  -1  244.74    7.70
  -1  -6  -1  263.20    5.95
  -1  -6  -2  827.00   18.06
   1   6   2  837.75   19.34
   1   6   2  805.43   16.89
  -1  -6  -2  856.81   15.93
  -1  -6  -2  861.64   16.75
  -1  -6  -2  877.67   16.90
  -1  -6  -2  853.49   15.90
  -1  -6  -2  856.71   16.74
  -1  -6  -2  841.49   17.30
   1   6   2  838.05   16.77
   1   6   3  802.18   16.29
   1   6   3  794.75   18.07
  -1  -6  -3  795.38   14.75
  -1  -6  -3  808.99   16.58
  -1  -6  -3  815.06   16.59
  -1  -6  -3  812.68   16.10
  -1  -6  -3  813.59   17.44
  -1  -6  -3  811.93   15.66
  -1  -6  -3  820.85   14.60
   1   6   3  767.09   15.51
  -1  -6  -3  790.20   16.06
   1   6   4  376.36    9.59
  -1  -6  -4  365.65    9.52
   1   6   4  376.11    7.95
  -1  -6  -4  390.97    9.46
   1   6   4  367.23   10.40
  -1  -6  -4  378.39    9.29
  -1  -6  -4  390.56    9.46
  -1  -6  -4  381.81    8.81
  -1  -6  -4  378.18    9.96
  -1  -6  -4  352.62    8.00
  -1  -6  -4  357.96    8.99
  -1  -6  -5  509.13   11.78
  -1  -6  -5  498.34   11.80
   1   6   5  521.75   12.88
  -1  -6  -5  489.25   11.31
  -1  -6  -5  502.83   11.62
  -1  -6  -5  498.92   11.24
  -1  -6  -5  497.20   11.81
   1   6   5  500.63   12.14
  -1  -6  -5  488.59   11.82
  -1  -6  -5  494.54   10.66
  -1  -6  -5  511.13   11.60
  -1  -6  -6  838.30   16.22
  -1  -6  -6  843.68   16.68
  -1  -6  -6  844.55   17.75
   1   6   6  831.09   18.54
  -1  -6  -6  852.44   17.56
  -1  -6  -6  842.57   18.55
  -1  -6  -6  829.97   16.84
  -1  -6  -6  846.91   16.83
  -1  -6  -6  853.10   17.19
  -1  -6  -6  858.88   17.97
  -1  -6  -6  846.13   18.05
  -1  -6  -6  843.97   17.81
   1   6   6  876.22   18.49
  -1  -6  -7   26.33    2.21
  -1  -6  -7   24.88    1.77
  -1  -6  -7   23.70    2.12
  -1  -6  -7   24.96    2.43
   1   6   7   26.56    2.58
  -1  -6  -7   25.22    2.57
  -1  -6  -7   26.92    2.64
   1   6   7   23.20    2.41
  -1  -6  -7   23.66    2.14
  -1  -6  -7   27.59    2.60
  -1  -6  -8  475.23   11.24
  -1  -6  -8  480.17   11.17
   1   6   8  480.15   12.84
  -1  -6  -8  506.66   13.30
  -1  -6  -8  489.69   12.93
  -1  -6  -8  481.69   12.83
  -1  -6  -8  478.08   12.90
   1   6   8  464.04   12.14
  -1  -6  -8  482.57   11.80
  -1  -6  -9  412.53   11.50
  -1  -6  -9  399.81   11.39
   1   6   9  410.12   11.30
  -1  -6  -9  401.62   10.44
  -1  -6  -9  404.41   11.16
  -1  -6  -9  405.95   11.43
   1   6   9  380.14   10.17
  -1  -6 -10   27.75    2.47
  -1  -6 -10   27.38    2.48
  -1  -6 -10   24.96    2.37
  -1  -6 -10   25.73    2.13
  -1  -6 -11   44.29    2.59
  -1  -6 -11   44.91    2.64
  -1  -6 -11   44.33    2.64
  -1  -6 -11   40.90    2.15
  -1  -6 -11   42.08    2.27
   1   7  -5   50.08    2.92
   1   7  -5   50.53    2.91
   1   7  -5   52.12    2.84
  -1  -7   4   36.79    2.12
   1   7  -4   45.65    3.17
   1   7  -4   42.52    3.05
   1   7  -3  259.26    8.04
  -1  -7   3  241.23    7.26
   1   7  -3  250.22    6.84
   1   7  -3  252.33    8.36
   1   7  -3  264.90    8.54
   1   7  -2  283.21    9.08
   1   7  -2  278.30    8.99
   1   7  -2  311.35    9.10
  -1  -7   2  274.19    8.00
   1   7  -2  301.20    9.32
  -1  -7   1  290.46    8.43
  -1  -7   1  294.91    8.08
   1   7  -1  297.10    9.88
   1   7  -1  295.99    9.53
  -1  -7   1  295.26    7.96
   1   7   0   44.20    4.04
   1   7   0   38.13    3.19
  -1  -7   0   44.46    2.94
  -1  -7   0   39.56    2.95
   1   7   1   83.12    5.74
  -1  -7  -1   85.45    4.67
  -1  -7  -1   92.62    3.94
  -1  -7  -1   92.54    4.54
   1   7   1   89.79    4.59
  -1  -7  -2  714.44   17.29
  -1  -7  -2  758.51   16.90
   1   7   2  699.75   15.88
   1   7   2  723.83   19.32
   1   7   2  756.35   15.71
  -1  -7  -2  751.42   15.99
  -1  -7  -2  726.46   13.78
  -1  -7  -3 1160.06   23.09
   1   7   3 1110.32   26.03
   1   7   3 1139.66   22.22
   1   7   3 1164.28   22.93
  -1  -7  -3 1215.64   25.06
  -1  -7  -3 1193.81   22.17
  -1  -7  -3 1200.74   23.86
  -1  -7  -3 1225.75   24.40
  -1  -7  -3 1151.12   20.85
  -1  -7  -3 1214.68   23.31
  -1  -7  -3 1207.78   22.23
  -1  -7  -3 1228.62   20.93
  -1  -7  -4  273.02    7.25
  -1  -7  -4  264.62    7.74
   1   7   4  251.10    9.53
  -1  -7  -4  264.08    8.61
  -1  -7  -4  264.06    8.41
  -1  -7  -4  266.52    6.95
  -1  -7  -4  269.91    8.18
  -1  -7  -4  262.36    8.13
   1   7   4  279.52    8.28
  -1  -7  -4  266.45    6.96
  -1  -7  -4  251.70    6.47
  -1  -7  -4  257.67    8.80
  -1  -7  -5   64.95    3.64
   1   7   5   64.59    4.48
  -1  -7  -5   66.81    3.48
  -1  -7  -5   67.85    3.94
   1   7   5   69.32    3.93
  -1  -7  -5   65.65    3.91
  -1  -7  -5   68.98    3.78
  -1  -7  -5   63.82    3.67
  -1  -7  -5   69.42    4.09
  -1  -7  -5   63.14    3.01
  -1  -7  -5   70.50    3.95
  -1  -7  -6  776.66   17.38
   1   7   6  803.75   18.77
  -1  -7  -6  787.23   17.07
   1   7   6  783.96   17.67
  -1  -7  -6  791.10   16.54
  -1  -7  -6  763.68   17.35
  -1  -7  -6  803.12   15.81
  -1  -7  -6  779.67   17.61
  -1  -7  -6  768.03   16.25
  -1  -7  -6  775.05   16.69
  -1  -7  -6  772.28   17.66
  -1  -7  -7  128.80    5.54
  -1  -7  -7  131.92    4.83
  -1  -7  -7  128.09    5.68
   1   7   7  125.02    5.72
  -1  -7  -7  123.77    5.69
  -1  -7  -7  138.03    6.06
  -1  -7  -7  126.12    4.45
   1   7   7  131.18    6.06
  -1  -7  -7  125.55    4.59
  -1  -7  -7  120.19    4.62
  -1  -7  -7  138.93    5.87
   1   7   8  287.54    9.18
   1   7   8  280.99    9.07
  -1  -7  -8  291.00    9.44
  -1  -7  -8  288.25    9.22
  -1  -7  -8  288.25    7.89
  -1  -7  -8  285.14    9.27
  -1  -7  -8  293.70    9.12
  -1  -7  -8  293.61    8.45
  -1  -7  -9  200.72    7.21
  -1  -7  -9  201.01    6.95
  -1  -7  -9  195.74    6.03
  -1  -7  -9  196.24    7.22
  -1  -7  -9  207.49    7.35
  -1  -7  -9  193.05    5.80
  -1  -7 -10   12.56    1.32
  -1  -7 -10   11.81    1.61
  -1  -7 -10   13.19    1.71
  -1  -7 -10   13.48    1.68
  -1  -7 -10   15.46    1.59
  -1  -7 -11  163.59    4.05
  -1  -7 -11  184.90    5.26
  -1  -7 -11  177.07    5.15
  -1  -7 -11  177.72    5.26
   1   8  -4    2.83    0.78
   1   8  -4    2.92    0.80
   1   8  -4    3.15    0.84
  -1  -8   3  164.01    5.06
   1   8  -3  180.88    6.14
   1   8  -3  176.58    6.09
  -1  -8   2  365.19    9.58
   1   8  -2  362.64   10.09
   1   8  -2  355.96   10.04
  -1  -8   1  133.91    4.81
   1   8  -1  131.51    5.70
  -1  -8   1  135.34    4.65
   1   8  -1  136.02    5.73
  -1  -8   1  141.61    4.76
   1   8  -1  125.06    5.53
  -1  -8   1  131.89    4.38
   1   8   0  488.47   13.78
  -1  -8   0  500.43   12.06
   1   8   0  466.48   12.45
  -1  -8   0  474.43   11.70
  -1  -8  -1   20.05    1.79
  -1  -8  -1   16.82    2.13
  -1  -8  -1   18.55    2.24
   1   8   1   19.52    2.19
   1   8   1   17.24    2.85
  -1  -8  -2  229.99    7.47
   1   8   2  239.77   10.24
   1   8   2  227.71    7.48
  -1  -8  -2  234.14    8.43
  -1  -8  -2  234.86    8.53
   1   8   3 1190.19   27.89
   1   8   3 1178.53   23.31
   1   8   3 1167.34   22.13
  -1  -8  -3 1236.50   25.59
  -1  -8  -3 1155.59   25.35
  -1  -8  -4  347.18   10.85
  -1  -8  -4  365.97   11.02
   1   8   4  328.28   12.16
  -1  -8  -4  353.41   10.31
  -1  -8  -4  361.41   10.90
  -1  -8  -4  348.47   10.29
  -1  -8  -4  357.20    8.32
   1   8   4  343.65    9.83
  -1  -8  -5  101.86    5.07
  -1  -8  -5   97.91    5.28
  -1  -8  -5  100.34    4.14
  -1  -8  -5   96.78    4.96
  -1  -8  -5   99.59    5.03
  -1  -8  -5   98.60    5.01
  -1  -8  -5  100.67    5.08
  -1  -8  -5  103.16    4.86
   1   8   5  101.51    6.12
   1   8   5   96.97    4.78
  -1  -8  -6  241.34    7.36
  -1  -8  -6  224.50    8.26
   1   8   6  242.83    9.26
  -1  -8  -6  241.03    7.82
  -1  -8  -6  241.74    8.11
  -1  -8  -6  232.89    8.12
  -1  -8  -6  245.70    6.24
  -1  -8  -6  241.39    7.63
  -1  -8  -6  237.72    8.32
   1   8   6  238.54    7.96
  -1  -8  -6  233.00    7.59
  -1  -8  -7  481.00   11.81
  -1  -8  -7  466.42   11.02
   1   8   7  458.31   11.76
   1   8   7  467.59   13.24
  -1  -8  -7  464.28   12.37
  -1  -8  -7  474.97   12.49
  -1  -8  -7  461.85   10.80
  -1  -8  -7  463.40   12.39
  -1  -8  -7  468.28   12.64
  -1  -8  -7  475.83   10.10
  -1  -8  -7  470.77   11.17
  -1  -8  -8  550.16   13.31
  -1  -8  -8  532.97   12.56
  -1  -8  -8  510.82   10.66
  -1  -8  -8  516.58   12.52
  -1  -8  -8  507.19   12.76
  -1  -8  -8  499.44   10.59
  -1  -8  -8  535.03   13.31
  -1  -8  -9  155.10    5.79
  -1  -8  -9  142.15    5.61
  -1  -8  -9  150.87    5.56
  -1  -8  -9  150.00    5.39
  -1  -8  -9  138.24    4.02
  -1  -8  -9  139.04    4.70
  -1  -8 -10    2.19    0.63
  -1  -8 -10    2.60    0.86
  -1  -8 -10    3.94    0.89
   1   9  -2  108.75    4.05
  -1  -9   2  103.64    3.64
   1   9  -2  106.29    4.01
  -1  -9   1   24.35    2.05
   1   9  -1   22.03    2.04
   1   9  -1   21.70    2.00
  -1  -9   0   28.11    2.12
  -1  -9   0   28.08    2.12
   1   9   0   31.43    2.55
  -1  -9   0   26.58    2.12
   1   9   0   27.79    2.42
   1   9   0   28.12    3.48
  -1  -9  -1  143.21    5.66
  -1  -9  -1  139.29    5.75
  -1  -9  -1  140.32    5.64
  -1  -9  -2   17.71    2.24
  -1  -9  -2   16.75    1.70
  -1  -9  -2   20.26    2.36
   1   9   3   10.35    2.34
  -1  -9  -3   12.70    2.01
  -1  -9  -3   16.67    1.94
  -1  -9  -3   16.66    2.23
  -1  -9  -3   15.47    2.16
  -1  -9  -4  105.19    5.31
  -1  -9  -4  100.31    5.23
   1   9   4   90.28    5.97
  -1  -9  -4  100.91    5.03
  -1  -9  -4  102.54    5.09
  -1  -9  -5   29.05    2.70
  -1  -9  -5   30.32    2.74
  -1  -9  -5   35.00    3.04
  -1  -9  -6  123.13    5.11
  -1  -9  -6  126.41    5.26
  -1  -9  -6  127.75    5.59
  -1  -9  -6  127.10    4.27
  -1  -9  -6  120.91    5.23
  -1  -9  -6  122.62    5.64
  -1  -9  -6  122.24    5.42
  -1  -9  -7  214.40    6.12
  -1  -9  -7  223.96    6.51
  -1  -9  -7  217.50    6.22
  -1  -9  -7  225.46    7.39
  -1  -9  -7  225.61    7.30
  -1  -9  -7  209.60    6.31
  -1  -9  -7  224.92    7.44
  -1  -9  -8  120.96    4.24
  -1  -9  -8  118.18    4.68
  -1  -9  -8  111.24    4.77
  -1  -9  -8  123.78    4.72
  -1  -9  -9  156.05    4.82
  -1  -9  -9  165.94    4.77
  -1  -9  -9  162.20    4.63
  -1  -9  -9  160.01    5.24
  -1 -10   0    4.87    0.91
   1  10   0    3.32    0.79
  -1 -10   0    3.46    0.58
  -1 -10   0    4.24    0.61
   1  10   0    3.00    0.72
  -1 -10  -1  617.30   12.87
  -1 -10  -1  624.66   12.82
   1  10   1  682.35   13.18
   1  10   1  597.78   14.05
  -1 -10  -1  610.89   12.71
   1  10   1  679.22   13.13
  -1 -10  -2  336.50    8.71
   1  10   2  308.02   10.97
  -1 -10  -2  334.34    8.77
  -1 -10  -2  329.73    8.78
  -1 -10  -3   28.47    1.93
  -1 -10  -3   28.98    2.46
  -1 -10  -3   28.69    2.38
  -1 -10  -3   26.32    2.32
  -1 -10  -4  199.77    6.82
  -1 -10  -4  198.48    6.74
  -1 -10  -4  201.73    6.27
  -1 -10  -4  202.53    6.80
  -1 -10  -5   90.57    4.15
  -1 -10  -5   86.97    4.07
  -1 -10  -5   90.43    4.20
  -1 -10  -5   90.93    4.14
  -1 -10  -6  474.06   10.73
  -1 -10  -6  477.73   11.19
  -1 -10  -6  466.32   10.55
   1  10   6  442.00   13.02
  -1 -10  -6  467.84   10.73
  -1 -10  -7  173.10    4.64
  -1 -10  -7  176.93    4.86
  -1 -10  -7  181.45    5.62
  -1 -10  -7  172.51    4.75
  -1 -10  -8    2.85    0.71
   2  -9  -4   16.04    1.28
   2  -9  -4   15.14    1.32
   2  -9  -4   16.75    1.47
   2  -9  -3   42.64    2.26
   2  -9  -3   42.80    2.35
   2  -9  -3   40.19    2.28
  -2   9   3   40.78    2.52
   2  -9  -2  193.39    5.07
   2  -9  -2  198.60    5.68
   2  -9  -2  186.23    5.60
  -2   9   2  196.99    5.93
  -2   9   1   59.56    2.73
   2  -9  -1   63.51    2.89
   2  -9  -1   60.06    2.73
   2  -8  -7   19.25    1.34
   2  -8  -7   18.59    1.59
   2  -8  -6  118.40    4.26
   2  -8  -6  108.40    3.71
   2  -8  -6  119.38    4.52
   2  -8  -6  111.90    3.75
   2  -8  -5  191.14    5.86
   2  -8  -5  191.26    5.61
   2  -8  -5  188.97    6.22
   2  -8  -5  197.38    5.95
  -2   8   5  186.98    6.14
   2  -8  -5  197.92    6.47
   2  -8  -5  192.79    5.38
   2  -8  -4  302.45    8.37
   2  -8  -4  301.77    8.62
  -2   8   4  299.62    9.44
   2  -8  -4  303.39    8.38
   2  -8  -4  304.24    8.28
  -2   8   3  248.35    9.25
   2  -8  -3  252.35    7.78
   2  -8  -3  251.35    7.76
   2  -8  -2   12.72    1.76
   2  -8  -2   14.01    1.70
  -2   8   2   12.71    2.46
   2  -8  -1  121.39    5.07
   2  -8  -1  114.86    4.39
  -2   8   1  115.85    5.98
  -2   8   0   59.38    3.77
   2  -8   0   61.60    2.64
   2  -8   0   62.89    3.36
  -2   8  -1  453.43   10.40
   2  -8   1  459.77   10.18
  -2   8  -2   73.66    3.56
   2  -8   2   73.32    2.36
  -2   8  -2   76.76    3.64
  -2   8  -3    5.09    0.91
  -2   8  -3    5.71    0.95
   2  -7  -8  360.29    7.49
   2  -7  -8  375.76    8.52
   2  -7  -8  389.91    9.05
   2  -7  -7  475.50   10.58
   2  -7  -7  493.86   10.59
   2  -7  -7  506.14   11.88
   2  -7  -7  486.27    9.79
   2  -7  -7  489.24   11.20
   2  -7  -7  481.58   10.62
   2  -7  -6    1.70    1.07
   2  -7  -6    2.42    0.94
   2  -7  -6    2.00    0.60
   2  -7  -6    3.32    1.03
   2  -7  -6    1.91    0.83
   2  -7  -6    1.15    0.76
   2  -7  -5  163.38    6.03
  -2   7   5  154.65    6.43
   2  -7  -5  146.85    5.89
   2  -7  -5  148.20    6.07
   2  -7  -5  147.14    5.79
   2  -7  -5  147.18    5.25
   2  -7  -5  151.42    5.62
  -2   7   4  900.07   20.72
   2  -7  -4  973.84   20.20
  -2   7   4  874.01   23.21
  -2   7   4  955.38   20.23
  -2   7   4  918.78   22.71
   2  -7  -4  956.22   19.47
  -2   7   4  887.63   21.37
   2  -7  -4  966.60   20.01
   2  -7  -4  905.22   18.80
   2  -7  -4  937.71   19.11
   2  -7  -4  987.23   20.15
   2  -7  -4  961.81   20.12
  -2   7   3  395.88   12.50
   2  -7  -3  398.63   10.99
  -2   7   3  360.17   12.80
   2  -7  -3  392.14   10.68
   2  -7  -3  406.50   11.22
   2  -7  -3  403.82   11.04
  -2   7   3  393.67   14.43
   2  -7  -3  425.30   11.32
  -2   7   3  403.84   11.24
  -2   7   3  380.11   13.61
   2  -7  -3  416.94   11.26
   2  -7  -2   94.67    4.70
  -2   7   2   87.13    5.04
   2  -7  -2   97.84    4.92
   2  -7  -2  101.17    4.93
  -2   7   2  100.12    4.96
  -2   7   2   96.65    7.34
   2  -7  -2   95.43    4.87
   2  -7  -2   94.02    4.89
  -2   7   2   86.93    6.64
  -2   7   2   98.68    5.89
   2  -7  -1   12.25    1.75
   2  -7  -1   12.69    1.73
  -2   7   1   16.62    3.79
  -2   7   1   13.06    2.46
  -2   7   1   19.07    3.49
   2  -7  -1   13.39    1.93
  -2   7   0  115.43    7.17
  -2   7   0  112.17    4.50
   2  -7   0  118.96    5.32
  -2   7   0  111.04    6.67
   2  -7   0  110.95    5.08
   2  -7   0  115.91    4.61
  -2   7   0  127.85    6.33
  -2   7  -1  867.97   20.53
   2  -7   1  900.98   16.50
   2  -7   1  854.29   18.15
  -2   7  -1  867.10   19.86
   2  -7   2  235.11    6.55
  -2   7  -2  223.53    7.11
  -2   7  -2  223.22    6.90
  -2   7  -3   32.73    2.24
  -2   7  -3   34.35    2.72
  -2   7  -3   35.27    2.78
  -2   7  -4   30.60    2.32
  -2   7  -4   25.21    1.76
  -2   7  -4   32.83    2.42
   2  -6  -9  138.19    4.39
   2  -6  -9  135.93    4.13
   2  -6  -9  136.17    4.56
   2  -6  -8    6.86    1.22
   2  -6  -8    7.81    1.26
   2  -6  -8    7.84    1.09
   2  -6  -8    7.74    1.15
   2  -6  -8    6.79    1.33
   2  -6  -8    8.01    1.09
   2  -6  -7  280.35    8.25
   2  -6  -7  270.84    8.59
   2  -6  -7  285.17    8.40
   2  -6  -7  278.26    7.58
   2  -6  -7  262.49    7.86
   2  -6  -7  266.38    7.88
   2  -6  -7  272.41    7.23
   2  -6  -6   84.61    4.63
   2  -6  -6   91.98    3.87
   2  -6  -6   91.86    4.49
   2  -6  -6   89.12    4.38
  -2   6   6   86.80    4.54
   2  -6  -6   87.62    4.17
   2  -6  -6   85.25    4.51
   2  -6  -6   87.52    4.40
   2  -6  -5  110.85    4.35
   2  -6  -5  116.87    5.15
  -2   6   5  117.42    5.46
   2  -6  -5  122.82    5.36
   2  -6  -5  117.66    4.24
   2  -6  -5  121.11    5.34
   2  -6  -5  123.01    5.57
   2  -6  -5  120.29    4.58
   2  -6  -5  118.71    5.42
  -2   6   5  125.01    5.79
  -2   6   5  104.75    5.20
  -2   6   5  108.24    5.69
   2  -6  -5  116.99    5.03
  -2   6   4  379.03   11.86
   2  -6  -4  390.96   10.63
   2  -6  -4  397.31   10.71
  -2   6   4  342.18   12.58
   2  -6  -4  371.45   10.54
   2  -6  -4  363.31    9.86
  -2   6   4  382.03   11.08
   2  -6  -4  369.01    9.89
   2  -6  -4  385.40    9.94
  -2   6   4  363.33   13.27
   2  -6  -4  371.62   10.48
  -2   6   3  164.77    9.46
   2  -6  -3  188.74    6.85
  -2   6   3  186.71    7.20
   2  -6  -3  176.59    6.46
  -2   6   3  179.63    8.06
   2  -6  -3  183.58    6.17
   2  -6  -3  186.75    6.83
   2  -6  -3  165.30    6.54
   2  -6  -3  177.35    6.64
  -2   6   3  176.46   10.24
   2  -6  -3  177.45    6.62
  -2   6   2   65.39    5.02
   2  -6  -2   66.64    3.91
   2  -6  -2   66.02    3.44
   2  -6  -2   67.72    3.94
   2  -6  -2   59.94    3.61
   2  -6  -2   70.01    4.00
  -2   6   2   64.89    4.09
   2  -6  -2   64.97    3.85
  -2   6   2   69.86    7.35
   2  -6  -2   62.12    3.93
  -2   6   1  180.89    8.20
   2  -6  -1  186.24    6.90
  -2   6   1  192.16    8.68
   2  -6  -1  180.47    6.96
  -2   6   1  181.89    6.00
   2  -6  -1  185.02    6.84
   2  -6  -1  189.56    6.95
  -2   6   1  197.91    7.41
  -2   6   1  173.91   10.82
   2  -6   0   22.80    2.36
  -2   6   0   23.89    3.34
   2  -6   0   27.66    2.60
   2  -6   0   29.43    2.63
  -2   6   0   22.92    4.70
  -2   6   0   26.69    2.34
  -2   6   0   20.89    4.27
   2  -6   0   22.47    2.10
   2  -6   0   19.97    2.21
  -2   6  -1  295.21    8.95
   2  -6   1  299.11    8.97
   2  -6   1  304.04    7.99
  -2   6  -1  284.50   10.51
  -2   6  -1  316.50   12.57
  -2   6  -1  290.16   11.76
  -2   6  -2  556.41   15.05
  -2   6  -2  563.82   14.85
   2  -6   2  525.30   13.27
   2  -6   2  506.89   12.10
  -2   6  -2  553.19   13.42
   2  -6   2  567.27   12.61
  -2   6  -2  545.98   14.80
  -2   6  -3   25.08    2.72
  -2   6  -3   23.22    2.11
  -2   6  -3   23.33    2.27
   2  -6   3   24.38    2.31
  -2   6  -3   21.81    2.20
   2  -6   3   24.57    1.81
  -2   6  -4    4.78    1.16
  -2   6  -4    2.15    1.14
  -2   6  -4    1.30    0.99
  -2   6  -5  376.81   10.03
  -2   6  -5  379.94   10.03
  -2   6  -6  244.94    6.78
  -2   6  -6  267.35    7.07
  -2   6  -6  261.91    7.05
   2  -5  -9  583.59   11.80
   2  -5  -9  586.87   11.82
   2  -5  -9  600.67   12.04
   2  -5  -8    0.91    0.74
   2  -5  -8    2.87    0.87
   2  -5  -8    3.29    1.08
   2  -5  -8    2.92    0.90
  -2   5   7   25.90    2.49
   2  -5  -7   29.87    2.55
  -2   5   7   26.22    3.33
   2  -5  -7   30.04    2.56
   2  -5  -7   28.40    2.48
   2  -5  -7   25.64    1.88
   2  -5  -7   29.47    2.60
   2  -5  -7   30.63    2.36
   2  -5  -6  575.37   13.29
   2  -5  -6  582.87   14.00
   2  -5  -6  571.27   12.87
  -2   5   6  555.17   14.15
   2  -5  -6  587.62   14.04
   2  -5  -6  578.49   13.82
   2  -5  -6  595.39   14.09
   2  -5  -5  474.52   10.47
   2  -5  -5  479.84   12.01
   2  -5  -5  459.92   11.91
  -2   5   5  444.77   12.36
  -2   5   5  470.46   12.23
   2  -5  -5  463.15   10.33
  -2   5   5  474.35   12.55
   2  -5  -5  462.86   11.89
   2  -5  -5  453.58   10.53
   2  -5  -5  472.99   11.60
  -2   5   5  435.50   11.99
   2  -5  -5  466.35   11.38
   2  -5  -5  453.48   11.13
   2  -5  -4  558.30   12.87
   2  -5  -4  570.28   13.49
  -2   5   4  579.71   14.22
   2  -5  -4  581.20   13.28
  -2   5   4  541.45   16.31
  -2   5   4  537.39   16.69
   2  -5  -4  574.75   13.48
   2  -5  -4  595.31   13.62
   2  -5  -4  568.43   13.48
  -2   5   4  586.86   14.58
   2  -5  -4  560.40   12.86
   2  -5  -4  563.62   12.58
   2  -5  -4  562.04   12.42
  -2   5   3    3.22    1.67
  -2   5   3    2.76    1.11
   2  -5  -3    2.55    0.90
   2  -5  -3    5.27    1.25
   2  -5  -3    3.27    0.96
   2  -5  -3    2.68    0.94
   2  -5  -3    3.15    1.07
   2  -5  -3    2.07    0.89
  -2   5   3    3.89    3.28
   2  -5  -3    2.80    0.73
   2  -5  -2   27.14    2.25
  -2   5   2   29.07    2.57
  -2   5   2   24.25    3.07
   2  -5  -2   27.41    2.25
   2  -5  -2   27.52    2.04
   2  -5  -2   26.09    2.14
   2  -5  -1 1012.10   19.75
  -2   5   1  977.89   18.99
   2  -5  -1  942.59   18.53
   2  -5  -1 1022.28   19.81
  -2   5   1  974.27   22.73
   2  -5  -1  960.50   19.08
  -2   5   1  977.92   20.53
  -2   5   0  142.46    5.55
   2  -5   0  146.67    5.53
  -2   5   0  154.62    6.09
   2  -5   0  156.42    5.67
  -2   5   0  158.62    7.53
   2  -5   0  150.41    4.52
  -2   5   0  150.66    6.99
   2  -5   1   12.20    1.70
  -2   5  -1   16.06    2.73
  -2   5  -1   10.99    1.44
  -2   5  -1   15.36    1.94
   2  -5   1   12.94    1.75
   2  -5   1   10.71    1.56
   2  -5   1   11.57    1.59
   2  -5   1   14.03    1.46
  -2   5  -1   12.18    4.06
  -2   5  -2  125.96    7.24
   2  -5   2  118.14    4.86
   2  -5   2  126.10    5.47
  -2   5  -2  125.16    4.61
  -2   5  -2  119.39    5.41
   2  -5   2  124.05    4.74
  -2   5  -2  122.90    7.18
   2  -5   2  123.27    4.73
  -2   5  -2  119.78    6.29
  -2   5  -3  191.91    7.16
  -2   5  -3  200.73    7.25
  -2   5  -3  184.45    6.06
   2  -5   3  182.59    5.64
  -2   5  -3  180.51    7.07
   2  -5   3  187.53    7.01
   2  -5   3  193.97    5.74
  -2   5  -3  184.39    7.64
   2  -5   3  178.83    6.21
   2  -5   4   30.72    2.52
  -2   5  -4   42.17    2.71
  -2   5  -4   34.44    2.90
  -2   5  -4   40.92    3.02
   2  -5   4   39.34    3.05
  -2   5  -5  219.64    7.73
   2  -5   5  219.03    7.36
  -2   5  -5  221.34    7.76
  -2   5  -5  216.27    6.73
   2  -5   5  201.56    6.48
  -2   5  -5  211.82    7.47
  -2   5  -5  201.16    6.34
  -2   5  -6  209.78    7.04
  -2   5  -6  188.40    6.73
  -2   5  -6  202.15    6.97
  -2   5  -7    6.76    0.92
  -2   5  -7    7.86    1.26
  -2   5  -7    6.14    0.90
  -2   5  -7    6.92    1.13
  -2   5  -7    7.64    1.18
   2  -4 -10  113.79    3.79
   2  -4 -10  112.90    3.83
   2  -4  -9  372.19    8.97
   2  -4  -9  374.87    8.53
   2  -4  -9  382.16    9.82
   2  -4  -9  371.25    8.97
   2  -4  -8   64.98    3.93
   2  -4  -8   56.00    3.41
   2  -4  -8   61.23    3.33
   2  -4  -8   68.05    3.73
   2  -4  -7    2.74    0.92
   2  -4  -7    2.44    0.94
  -2   4   7    2.05    0.91
   2  -4  -7    3.25    1.08
  -2   4   7    6.82    2.33
  -2   4   7    1.96    0.86
   2  -4  -7    2.90    1.17
   2  -4  -7    4.40    1.14
   2  -4  -7    4.60    1.31
   2  -4  -6  425.94   10.84
   2  -4  -6  420.51   11.41
   2  -4  -6  411.65   10.95
  -2   4   6  419.90   10.28
   2  -4  -6  422.38   11.14
   2  -4  -6  423.72   10.67
  -2   4   6  421.60   11.53
   2  -4  -6  413.19   10.84
   2  -4  -6  401.50    9.55
   2  -4  -6  415.66   11.48
   2  -4  -6  425.14   11.18
   2  -4  -5  475.00   10.31
  -2   4   5  498.59   10.99
  -2   4   5  498.72   12.62
   2  -4  -5  496.68   12.06
   2  -4  -5  485.76   11.97
   2  -4  -5  505.51   12.12
   2  -4  -5  472.42   10.94
   2  -4  -5  511.48   11.72
   2  -4  -5  479.61   11.70
  -2   4   5  478.55   11.54
   2  -4  -5  489.16   12.17
   2  -4  -5  490.15   12.23
  -2   4   5  494.19   11.60
  -2   4   5  479.35   11.66
   2  -4  -5  490.78   12.35
  -2   4   4  785.19   16.85
   2  -4  -4  776.43   16.28
   2  -4  -4  835.49   16.73
  -2   4   4  761.38   19.16
   2  -4  -4  802.71   16.74
   2  -4  -4  785.51   16.95
   2  -4  -4  788.20   16.00
   2  -4  -4  807.69   16.61
  -2   4   4  772.43   17.16
  -2   4   4  763.47   19.36
   2  -4  -4  816.66   17.21
   2  -4  -4  805.92   16.65
   2  -4  -4  807.93   16.14
  -2   4   4  804.77   15.28
  -2   4   3   83.65    4.09
  -2   4   3   81.27    4.23
   2  -4  -3   82.41    3.67
   2  -4  -3   83.90    3.43
   2  -4  -3   83.67    3.42
   2  -4  -3   89.57    3.84
   2  -4  -3   89.56    4.13
   2  -4  -3   89.39    3.83
   2  -4  -3   89.15    3.79
   2  -4  -2    3.24    1.02
   2  -4  -2    3.77    0.85
   2  -4  -2    3.50    0.69
   2  -4  -2    2.06    0.77
   2  -4  -2    2.56    0.52
  -2   4   2    5.71    1.59
   2  -4  -2    1.78    0.66
   2  -4  -2    3.65    0.77
   2  -4  -2    2.67    0.76
   2  -4  -2    2.71    0.73
  -2   4   2    3.36    0.97
   2  -4  -1 1241.29   22.25
  -2   4   1 1278.61   23.80
  -2   4   1 1237.31   25.55
   2  -4  -1 1268.90   21.41
   2  -4  -1 1240.93   21.12
  -2   4   1 1212.51   22.45
   2  -4  -1 1232.93   22.78
   2  -4  -1 1233.65   22.76
   2  -4  -1 1280.72   22.94
   2  -4  -1 1244.02   21.42
  -2   4   0 3735.28   61.29
   2  -4   0 3561.08   59.66
   2  -4   0 3809.20   59.98
   2  -4   0 3740.45   60.70
  -2   4   0 3453.14   63.79
   2  -4   0 3903.27   61.54
   2  -4   0 3775.15   58.68
  -2   4   0 3524.33   61.46
   2  -4   0 3724.47   60.69
   2  -4   1    4.35    1.07
   2  -4   1    7.44    1.14
  -2   4  -1    6.02    1.34
  -2   4  -1    3.57    1.42
   2  -4   1    7.06    1.12
  -2   4  -1    6.93    1.29
  -2   4  -1    2.03    1.63
   2  -4   1    3.75    0.84
  -2   4  -2  201.85    9.43
   2  -4   2  216.13    6.54
  -2   4  -2  217.56    7.29
   2  -4   2  222.41    7.10
  -2   4  -2  205.37    9.30
  -2   4  -2  208.01    7.98
  -2   4  -3  223.00    6.53
   2  -4   3  200.55    5.93
  -2   4  -3  212.93    8.11
   2  -4   3  211.68    7.24
  -2   4  -3  202.42    7.67
  -2   4  -3  223.39    7.53
   2  -4   3  208.52    6.84
  -2   4  -3  205.35    7.88
  -2   4  -4  710.65   15.62
   2  -4   4  759.30   17.13
   2  -4   4  743.95   16.55
  -2   4  -4  718.56   17.37
  -2   4  -4  774.88   16.96
  -2   4  -4  778.35   17.00
   2  -4   5  327.16    9.83
  -2   4  -5  327.57    9.27
   2  -4   5  320.06    9.53
  -2   4  -5  320.60    9.92
  -2   4  -5  325.39    9.76
  -2   4  -5  317.89    9.67
  -2   4  -5  331.24    9.23
  -2   4  -5  333.93    9.00
  -2   4  -6   54.05    3.28
   2  -4   6   56.35    3.51
   2  -4   6   59.25    3.67
  -2   4  -6   56.70    3.00
  -2   4  -6   56.35    3.81
  -2   4  -6   55.37    2.95
  -2   4  -6   57.24    3.70
  -2   4  -6   57.69    3.67
  -2   4  -7    6.49    1.30
  -2   4  -7    5.90    1.35
  -2   4  -7    7.44    1.50
  -2   4  -7    8.10    1.42
  -2   4  -8  309.29    7.81
  -2   4  -8  321.60    7.94
  -2   4  -8  300.94    7.20
  -2   4  -8  305.63    8.41
  -2   4  -8  318.20    6.81
   2  -3 -10   37.22    1.83
   2  -3 -10   38.62    2.15
   2  -3 -10   32.95    1.44
   2  -3 -10   35.20    1.79
   2  -3  -9  103.42    3.66
   2  -3  -9  113.62    4.77
   2  -3  -9  107.57    4.40
   2  -3  -9  109.82    4.42
   2  -3  -9  111.20    3.84
  -2   3   8   61.75    3.46
   2  -3  -8   64.24    3.07
   2  -3  -8   60.10    3.61
   2  -3  -8   61.60    3.85
   2  -3  -8   61.76    3.21
  -2   3   8   60.94    3.63
   2  -3  -8   60.10    3.62
   2  -3  -8   64.79    3.77
   2  -3  -8   61.10    3.50
   2  -3  -7   90.45    4.71
   2  -3  -7   93.62    4.25
  -2   3   7  101.40    4.70
  -2   3   7   98.68    4.83
   2  -3  -7   93.98    4.70
   2  -3  -7   95.34    4.75
   2  -3  -7   93.82    4.86
   2  -3  -7   88.25    3.88
   2  -3  -7   92.15    4.53
   2  -3  -6  548.96   12.99
   2  -3  -6  524.17   12.78
   2  -3  -6  532.25   12.94
  -2   3   6  517.90   13.07
  -2   3   6  504.62   12.44
   2  -3  -6  528.19   13.04
   2  -3  -6  510.99   12.99
   2  -3  -6  539.94   12.91
   2  -3  -6  506.74   12.04
   2  -3  -6  519.19   12.08
   2  -3  -5   99.86    4.35
   2  -3  -5  102.63    4.51
   2  -3  -5  107.41    4.71
  -2   3   5   98.69    4.21
   2  -3  -5  102.88    4.38
   2  -3  -5   97.12    4.08
   2  -3  -5   93.92    3.31
   2  -3  -5   99.55    4.38
   2  -3  -5   98.48    4.34
  -2   3   5  101.38    4.66
  -2   3   5  101.19    3.83
   2  -3  -5   99.85    4.58
   2  -3  -4  315.97    8.21
   2  -3  -4  304.57    8.11
   2  -3  -4  303.16    8.35
   2  -3  -4  318.16    8.64
  -2   3   4  323.00    8.74
   2  -3  -4  318.91    7.85
   2  -3  -4  311.35    8.15
  -2   3   4  308.23    9.05
   2  -3  -4  335.14    8.78
  -2   3   4  312.37    9.16
  -2   3   4  321.92    7.87
  -2   3   4  307.95    7.82
   2  -3  -4  321.58    8.40
  -2   3   3  758.07   14.70
  -2   3   3  765.76   15.48
  -2   3   3  790.88   16.07
   2  -3  -3  811.35   15.58
  -2   3   3  755.12   19.27
   2  -3  -3  778.24   15.66
  -2   3   3  749.26   19.10
   2  -3  -3  807.28   15.98
   2  -3  -3  831.06   16.22
  -2   3   2  314.36    7.99
   2  -3  -2  305.62    7.65
   2  -3  -2  319.70    7.43
   2  -3  -2  321.09    7.98
  -2   3   2  306.21    8.10
  -2   3   1  221.95    6.26
   2  -3  -1  231.08    5.57
  -2   3   1  223.10    5.74
   2  -3  -1  214.58    5.56
  -2   3   1  222.58    7.01
   2  -3  -1  237.87    6.15
   2  -3   0 2413.90   38.89
   2  -3   0 2274.11   40.00
  -2   3   0 2381.73   42.22
  -2   3   0 2319.00   40.26
   2  -3   0 2395.92   38.38
   2  -3   0 2399.41   39.08
  -2   3   0 2412.97   40.28
   2  -3   0 2521.71   39.46
  -2   3  -1   75.49    3.36
  -2   3  -1   68.44    4.16
   2  -3   1   77.10    3.06
  -2   3  -1   84.13    3.73
   2  -3   1   82.51    2.69
   2  -3   1   77.67    3.36
  -2   3  -1   74.53    4.00
  -2   3  -2   15.17    1.29
   2  -3   2   16.26    1.56
  -2   3  -2   11.45    2.52
   2  -3   2   17.96    1.70
  -2   3  -2   17.26    1.93
  -2   3  -2   14.13    2.13
  -2   3  -3  286.73    9.27
  -2   3  -3  275.65    8.71
   2  -3   3  278.77    7.86
  -2   3  -3  293.68    8.47
   2  -3   3  286.44    8.08
  -2   3  -3  297.66    8.92
   2  -3   3  282.58    6.66
   2  -3   4  554.86   10.78
  -2   3  -4  534.23   13.60
   2  -3   4  563.87   11.57
   2  -3   4  571.86   13.45
  -2   3  -4  575.13   12.18
  -2   3  -4  571.16   13.45
  -2   3  -4  531.10   11.76
  -2   3  -4  558.68   12.34
   2  -3   4  551.62   13.10
   2  -3   5  707.70   16.06
   2  -3   5  704.75   16.23
  -2   3  -5  684.41   15.00
  -2   3  -5  681.40   15.24
  -2   3  -5  750.98   15.82
  -2   3  -5  716.44   16.04
   2  -3   5  697.95   14.19
   2  -3   6  228.54    7.85
  -2   3  -6  197.75    7.61
  -2   3  -6  230.45    7.33
  -2   3  -6  196.22    7.06
  -2   3  -6  237.98    7.05
   2  -3   6  230.97    7.97
  -2   3  -6  207.38    7.19
  -2   3  -6  247.88    7.87
  -2   3  -6  220.09    6.50
  -2   3  -7   20.77    2.38
   2  -3   7   21.60    2.21
   2  -3   7   20.01    2.19
  -2   3  -7   21.33    2.18
  -2   3  -7   22.37    2.20
  -2   3  -7   22.68    2.24
  -2   3  -7   20.77    1.73
  -2   3  -8  250.65    7.31
  -2   3  -8  258.43    7.57
  -2   3  -8  254.09    6.74
  -2   3  -8  259.43    7.60
  -2   3  -9  720.88   14.01
  -2   3  -9  729.53   15.35
  -2   3  -9  739.02   13.85
  -2   3  -9  724.31   14.04
  -2   3  -9  752.70   15.09
   2  -2 -10   85.16    2.96
   2  -2 -10   90.12    3.41
   2  -2 -10   84.83    3.09
   2  -2 -10   87.47    3.12
   2  -2  -9    4.87    1.14
   2  -2  -9    5.46    1.12
   2  -2  -9    6.32    1.17
  -2   2   8    3.02    1.09
  -2   2   8    4.81    1.36
   2  -2  -8    6.40    1.24
   2  -2  -8    3.77    1.10
   2  -2  -8    3.56    0.90
   2  -2  -8    4.37    1.30
   2  -2  -8    4.78    1.23
   2  -2  -8    4.20    1.20
   2  -2  -7   94.69    3.66
  -2   2   7  101.28    4.89
   2  -2  -7   92.64    4.71
  -2   2   7   94.26    4.70
   2  -2  -7   91.26    4.00
   2  -2  -7   94.38    4.78
   2  -2  -7   90.78    4.64
   2  -2  -7   91.04    4.67
   2  -2  -7   90.75    4.45
   2  -2  -6 1376.02   26.10
  -2   2   6 1372.28   26.39
   2  -2  -6 1379.33   26.24
   2  -2  -6 1373.50   26.36
  -2   2   6 1333.63   26.23
   2  -2  -6 1421.60   26.56
   2  -2  -6 1352.10   25.59
   2  -2  -6 1349.15   25.83
   2  -2  -6 1353.52   25.88
   2  -2  -6 1321.15   24.73
  -2   2   6 1309.16   27.63
   2  -2  -6 1340.77   24.80
  -2   2   5   60.73    3.39
   2  -2  -5   59.97    3.43
   2  -2  -5   60.81    2.83
   2  -2  -5   61.77    3.38
  -2   2   5   61.70    3.42
   2  -2  -5   60.52    3.20
  -2   2   5   61.93    2.59
   2  -2  -5   63.03    3.26
   2  -2  -5   63.11    3.28
   2  -2  -5   61.52    3.52
   2  -2  -5   68.37    3.26
   2  -2  -5   58.88    3.14
  -2   2   4   37.33    2.01
  -2   2   4   35.10    1.85
   2  -2  -4   36.60    2.33
   2  -2  -4   37.86    2.51
  -2   2   4   37.36    2.43
   2  -2  -4   35.80    2.17
   2  -2  -4   36.38    2.23
   2  -2  -4   40.43    2.55
  -2   2   4   38.11    2.40
   2  -2  -4   40.50    2.71
   2  -2  -4   40.32    2.29
   2  -2  -3  164.68    5.17
  -2   2   3  171.46    5.18
  -2   2   3  163.32    5.99
  -2   2   3  165.61    4.89
  -2   2   3  168.81    4.48
   2  -2  -3  171.05    5.47
   2  -2  -3  164.14    4.94
  -2   2   3  170.51    5.85
   2  -2  -2 4093.14   63.09
  -2   2   2 3788.62   61.78
  -2   2   2 3968.40   61.82
   2  -2  -2 3577.60   62.08
  -2   2   2 3776.35   62.30
   2  -2  -2 4119.88   62.18
  -2   2   2 3919.61   66.37
  -2   2   1    8.45    1.17
   2  -2  -1    8.87    0.99
   2  -2  -1    9.65    1.16
   2  -2  -1   10.04    0.99
  -2   2   1   12.64    1.17
  -2   2   0 1102.92   20.82
   2  -2   0 1256.59   20.57
  -2   2   0 1215.13   22.16
   2  -2   0 1201.68   20.95
  -2   2   0 1154.44   21.03
   2  -2   0 1284.83   20.79
   2  -2   1 1158.21   20.62
  -2   2  -1 1161.62   22.15
  -2   2  -1 1124.96   22.26
  -2   2  -1 1168.54   20.70
   2  -2   1 1213.08   20.03
  -2   2  -1 1070.60   21.03
   2  -2   1 1193.61   20.30
   2  -2   1 1219.89   19.64
   2  -2   2  936.40   17.10
   2  -2   2  897.76   17.12
  -2   2  -2  947.12   16.44
  -2   2  -2  911.02   19.56
  -2   2  -2  959.79   18.05
  -2   2  -2  885.87   20.36
  -2   2  -2  919.93   18.40
   2  -2   3 4337.05   72.95
  -2   2  -3 4631.76   70.58
  -2   2  -3 4926.57   73.89
  -2   2  -3 4779.43   74.39
   2  -2   3 4239.71   72.96
  -2   2  -3 4371.58   73.61
  -2   2  -3 4259.53   74.34
   2  -2   4  968.34   18.07
   2  -2   4  996.40   19.24
  -2   2  -4  955.29   17.74
   2  -2   4  943.30   18.86
  -2   2  -4  991.66   19.26
  -2   2  -4  947.62   19.36
   2  -2   5 1234.97   23.13
   2  -2   5 1251.15   24.41
  -2   2  -5 1329.70   23.93
  -2   2  -5 1243.43   23.64
   2  -2   5 1247.52   24.15
  -2   2  -5 1231.71   23.10
  -2   2  -5 1223.15   23.26
  -2   2  -6  829.61   17.77
  -2   2  -6  847.83   17.33
   2  -2   6  850.41   17.37
  -2   2  -6  832.80   18.28
  -2   2  -6  822.18   17.54
   2  -2   6  852.81   18.34
   2  -2   6  814.97   18.45
  -2   2  -6  876.42   17.14
  -2   2  -6  857.06   17.34
  -2   2  -6  851.34   16.17
   2  -2   7  242.68    8.22
   2  -2   7  231.76    7.32
  -2   2  -7  282.34    9.09
  -2   2  -7  261.47    8.19
  -2   2  -7  226.72    7.77
  -2   2  -7  239.68    7.61
  -2   2  -7  251.78    7.72
  -2   2  -7  265.92    8.49
   2  -2   7  241.76    8.10
  -2   2  -8  102.17    4.55
  -2   2  -8   90.81    4.46
  -2   2  -8   96.47    4.51
  -2   2  -8  102.38    4.53
  -2   2  -8   99.30    5.12
   2  -2   8   95.18    4.70
  -2   2  -8   95.26    4.00
   2  -2   8   93.04    4.54
  -2   2  -9  582.23   12.81
  -2   2  -9  595.37   14.08
  -2   2  -9  584.68   12.56
  -2   2  -9  592.39   11.54
  -2   2  -9  572.85   12.52
  -2   2 -10  162.32    5.25
  -2   2 -10  149.01    4.02
  -2   2 -10  166.26    5.09
   2  -1 -10   75.57    2.90
   2  -1 -10   78.89    3.08
   2  -1 -10   75.80    2.92
   2  -1 -10   76.61    2.88
   2  -1  -9   52.35    3.12
   2  -1  -9   56.05    3.21
   2  -1  -9   59.34    3.34
   2  -1  -8  270.85    8.03
  -2   1   8  264.73    8.02
  -2   1   8  266.54    8.09
   2  -1  -8  269.21    8.58
   2  -1  -8  267.67    8.27
   2  -1  -8  278.15    8.71
   2  -1  -8  279.17    8.64
  -2   1   8  277.64    8.53
   2  -1  -8  274.28    7.43
  -2   1   7   93.62    4.79
   2  -1  -7   90.56    4.31
   2  -1  -7   99.17    4.79
   2  -1  -7   94.68    3.71
  -2   1   7   95.50    4.63
   2  -1  -7   85.88    4.52
   2  -1  -7   81.07    4.38
   2  -1  -7   77.14    4.25
   2  -1  -7   90.55    4.22
   2  -1  -6 2105.71   37.39
  -2   1   6 2046.84   37.40
   2  -1  -6 2269.59   38.16
  -2   1   6 2115.81   38.10
   2  -1  -6 1973.41   36.40
   2  -1  -6 2162.10   37.48
   2  -1  -6 2142.98   37.72
   2  -1  -6 2074.70   37.35
   2  -1  -6 2097.37   35.31
   2  -1  -6 2051.26   37.15
   2  -1  -6 2037.67   35.46
   2  -1  -5  423.75    9.68
   2  -1  -5  420.88   10.65
   2  -1  -5  426.69   10.61
   2  -1  -5  422.61    8.81
   2  -1  -5  428.66   10.19
  -2   1   5  433.57   11.52
  -2   1   5  426.42   10.80
   2  -1  -5  425.11   10.18
  -2   1   5  426.26   10.49
   2  -1  -5  436.17   10.24
   2  -1  -5  420.45    9.81
   2  -1  -5  429.22   10.48
  -2   1   4   26.89    1.94
   2  -1  -4   24.65    2.13
  -2   1   4   27.08    2.08
   2  -1  -4   27.31    2.08
   2  -1  -4   24.68    2.02
   2  -1  -4   26.33    1.91
   2  -1  -3   44.46    2.66
  -2   1   3   42.28    2.18
  -2   1   3   42.78    2.34
  -2   1   3   39.84    1.86
   2  -1  -3   40.48    2.09
  -2   1   3   44.08    1.66
   2  -1  -3   40.15    2.31
   2  -1  -2 3280.43   51.77
  -2   1   2 3209.97   53.28
  -2   1   2 2991.42   51.85
  -2   1   2 3344.60   51.06
   2  -1  -2 3471.78   53.82
   2  -1  -2 3168.48   52.37
  -2   1   2 3281.51   52.20
  -2   1   1 1122.19   18.04
  -2   1   1 1029.00   17.60
   2  -1  -1 1072.05   18.28
   2  -1  -1 1054.88   17.61
  -2   1   1 1054.91   20.86
   2  -1  -1 1100.17   19.29
  -2   1   0   41.96    3.50
  -2   1   0   46.03    1.79
   2  -1   0   44.54    1.84
   2  -1   0   43.69    1.75
   2  -1   0   44.00    2.14
  -2   1   0   42.10    2.08
  -2   1  -1  549.46   11.01
  -2   1  -1  525.13   11.18
   2  -1   1  535.27   10.04
  -2   1  -1  509.34   13.01
   2  -1   1  545.62    9.77
  -2   1  -1  536.07   10.03
   2  -1   2   52.66    2.17
  -2   1  -2   54.22    2.00
  -2   1  -2   55.07    2.67
   2  -1   2   51.61    2.18
  -2   1  -2   55.97    2.62
  -2   1  -2   51.53    3.15
  -2   1  -3 2274.06   37.23
  -2   1  -3 2263.28   35.25
   2  -1   3 2272.57   36.96
   2  -1   3 2237.68   36.90
  -2   1  -3 2200.17   37.52
   2  -1   4  348.01    8.26
  -2   1  -4  361.10    8.49
  -2   1  -4  348.49    7.03
   2  -1   5  639.71   13.39
   2  -1   5  629.48   13.80
  -2   1  -5  619.05   12.95
   2  -1   5  644.20   13.62
  -2   1  -5  607.29   12.75
  -2   1  -5  633.16   13.13
  -2   1  -6  190.38    6.16
   2  -1   6  195.08    6.52
  -2   1  -6  204.77    5.81
  -2   1  -6  187.99    6.24
  -2   1  -6  201.42    5.87
  -2   1  -6  195.44    5.82
   2  -1   6  200.68    6.86
  -2   1  -6  201.62    6.48
   2  -1   6  211.66    6.65
   2  -1   7  490.46   12.24
  -2   1  -7  483.02   11.26
  -2   1  -7  484.98   12.32
   2  -1   7  489.15   12.62
  -2   1  -7  484.45   12.27
  -2   1  -7  470.74   12.02
  -2   1  -7  503.21   11.42
  -2   1  -7  498.75   12.58
   2  -1   7  491.74   12.18
  -2   1  -8  115.94    4.58
  -2   1  -8  126.94    4.96
   2  -1   8  113.47    5.04
  -2   1  -8  114.33    5.10
   2  -1   8  118.91    5.43
  -2   1  -8  125.35    4.95
   2  -1   8  116.40    5.11
  -2   1  -8  114.29    5.52
  -2   1  -8  120.43    5.47
  -2   1  -8  121.14    5.28
  -2   1  -9   85.23    3.83
  -2   1  -9   86.73    4.19
  -2   1  -9   90.40    4.79
  -2   1  -9   78.86    3.32
  -2   1  -9   79.57    3.70
  -2   1 -10   80.53    3.93
  -2   1 -10   80.41    3.44
  -2   1 -10   78.52    3.97
   2   0 -10  124.18    3.72
   2   0 -10  121.43    3.69
  -2   0  10  128.92    3.89
   2   0 -10  119.36    3.68
   2   0  -9  186.13    6.13
   2   0  -9  182.90    6.11
   2   0  -9  176.87    5.33
   2   0  -9  181.95    6.03
   2   0  -8 1340.31   24.55
   2   0  -8 1347.73   25.90
  -2   0   8 1246.36   24.32
  -2   0   8 1326.19   25.45
   2   0  -8 1328.88   25.84
  -2   0   8 1279.85   24.25
   2   0  -8 1302.33   25.48
   2   0  -8 1247.93   24.63
   2   0  -7  246.53    8.25
   2   0  -7  252.80    8.21
  -2   0   7  255.10    8.00
   2   0  -7  251.73    8.33
   2   0  -7  259.36    8.24
   2   0  -7  264.15    7.70
  -2   0   7  261.54    8.56
   2   0  -7  242.07    7.14
   2   0  -6  419.26   10.82
  -2   0   6  427.57   11.43
   2   0  -6  420.06   10.18
   2   0  -6  423.48   10.91
   2   0  -6  430.65   11.02
   2   0  -6  432.48   10.83
   2   0  -6  411.75    8.93
   2   0  -6  421.60   10.87
  -2   0   5  595.13   13.84
   2   0  -5  589.00   12.38
   2   0  -5  596.17   13.45
   2   0  -5  607.98   13.10
   2   0  -5  586.85   13.26
   2   0  -5  601.57   12.20
   2   0  -5  595.96   13.06
   2   0  -5  583.11   12.93
   2   0  -5  604.18   13.09
  -2   0   4  539.47   12.14
   2   0  -4  542.03   12.04
   2   0  -4  547.23   11.60
   2   0  -4  543.12   11.85
  -2   0   4  559.10   11.61
   2   0  -4  517.00   11.76
   2   0  -3  152.99    4.46
  -2   0   3  160.07    5.79
  -2   0   3  163.42    3.37
   2   0  -3  157.69    4.84
   2   0  -3  168.75    3.58
  -2   0   3  162.94    4.99
   2   0  -3  162.72    5.71
   2   0  -2 1770.17   32.40
  -2   0   2 1760.48   29.19
   2   0  -2 1806.36   30.35
   2   0  -2 1845.07   29.67
  -2   0   1 3241.70   49.11
  -2   0   1 3077.40   49.79
  -2   0   1 3112.15   53.02
  -2   0   1 3029.13   50.34
   2   0  -1 3256.02   49.70
   2   0  -1 3138.49   50.54
  -2   0   0  183.15    4.76
  -2   0   0  179.26    5.11
  -2   0   0  181.03    3.70
  -2   0   0  186.22    3.82
   2   0   0  193.11    4.29
   2   0   0  180.12    3.49
   2   0   1 1756.22   29.93
  -2   0  -1 1763.56   29.83
   2   0   1 1814.34   28.40
  -2   0  -1 1766.77   28.77
  -2   0  -1 1871.29   28.42
  -2   0  -1 1680.29   29.04
  -2   0  -2  694.70   12.35
   2   0   2  684.94   11.74
  -2   0  -2  681.08   12.52
   2   0   2  680.59   11.87
  -2   0  -2  658.40   11.68
  -2   0  -3 1946.37   31.47
   2   0   3 1845.63   31.86
  -2   0  -3 1920.37   32.51
   2   0   4 1182.41   20.48
  -2   0  -4 1139.94   18.95
   2   0   4 1139.11   20.58
   2   0   5   11.42    1.35
   2   0   5   12.15    1.37
  -2   0  -5   11.65    1.16
   2   0   5    9.96    1.18
   2   0   6   24.96    2.09
  -2   0  -6   17.59    1.65
   2   0   6   15.88    1.77
  -2   0  -6   16.03    1.55
  -2   0  -6   22.81    1.93
  -2   0  -6   18.11    1.61
   2   0   6   17.79    1.68
   2   0   7 1824.20   34.10
  -2   0  -7 1838.91   33.47
   2   0   7 1847.11   33.22
  -2   0  -7 1818.89   33.58
  -2   0  -7 1878.83   33.55
   2   0   7 1864.51   33.91
  -2   0  -7 1903.14   33.73
  -2   0  -7 1849.96   32.05
  -2   0  -7 1853.38   32.36
  -2   0  -7 1849.25   32.08
  -2   0  -7 1887.57   33.34
   2   0   8  562.18   13.23
  -2   0  -8  551.92   12.49
  -2   0  -8  573.40   13.58
   2   0   8  552.05   13.77
   2   0   8  567.67   14.02
  -2   0  -8  562.99   12.53
  -2   0  -8  572.03   14.12
  -2   0  -8  549.77   13.58
  -2   0  -8  578.56   12.58
  -2   0  -8  555.19   13.71
  -2   0  -9  107.76    4.95
   2   0   9  107.14    4.97
   2   0   9  106.81    5.04
  -2   0  -9  115.14    5.49
  -2   0  -9  110.82    4.98
  -2   0  -9  111.84    4.37
   2   0   9  102.89    4.45
  -2   0  -9  114.71    4.44
  -2   0  -9  110.67    4.17
  -2   0 -10   13.64    1.81
  -2   0 -10   13.92    1.66
  -2   0 -10   15.31    1.90
  -2   0 -11   66.47    2.73
  -2   0 -11   66.99    2.73
  -2   0 -11   65.13    3.16
   2   1  -9   55.49    2.32
   2   1  -9   53.79    2.87
   2   1  -9   56.73    3.06
   2   1  -9   60.12    3.12
   2   1  -8  821.02   17.65
   2   1  -8  820.33   17.97
   2   1  -8  815.48   16.33
   2   1  -8  814.48   17.90
  -2  -1   7  366.69   10.31
   2   1  -7  347.64    9.88
  -2  -1   7  348.24    9.82
   2   1  -7  355.28   10.37
   2   1  -7  343.63    9.08
   2   1  -7  369.09   10.47
   2   1  -7  353.65   10.15
   2   1  -6    4.81    1.20
   2   1  -6    3.72    1.10
  -2  -1   6    2.30    0.92
  -2  -1   6    3.45    1.20
   2   1  -6    1.08    0.77
   2   1  -6    3.00    0.98
   2   1  -6    4.97    1.22
   2   1  -6    4.30    0.99
   2   1  -6    4.53    0.93
  -2  -1   5   71.86    3.57
   2   1  -5   67.61    3.51
   2   1  -5   72.63    3.55
  -2  -1   5   72.13    3.92
   2   1  -5   66.94    3.44
   2   1  -5   70.08    3.15
   2   1  -5   70.95    3.48
   2   1  -5   71.91    3.02
   2   1  -5   72.18    3.56
   2   1  -5   69.37    3.47
   2   1  -5   67.92    3.06
  -2  -1   4 1138.12   21.59
   2   1  -4 1106.36   20.72
   2   1  -4 1133.85   20.58
   2   1  -4 1128.31   20.73
   2   1  -4 1121.94   18.91
   2   1  -4 1124.36   20.57
   2   1  -4 1109.05   21.53
   2   1  -4 1131.31   20.54
   2   1  -4 1106.37   20.38
  -2  -1   3 1814.94   30.25
  -2  -1   3 1798.85   28.57
   2   1  -3 1744.74   30.14
   2   1  -3 1830.19   32.73
   2   1  -3 1860.92   30.09
   2   1  -3 1730.84   28.82
   2   1  -2  868.42   14.52
  -2  -1   2  867.04   15.23
   2   1  -2  839.99   14.79
  -2  -1   2  840.22   15.48
  -2  -1   2  823.15   13.84
  -2  -1   2  856.30   14.58
   2   1  -2  836.06   17.42
   2   1  -2  830.56   15.20
   2   1  -1  852.30   15.95
  -2  -1   1  783.27   14.56
  -2  -1   1  856.82   13.93
  -2  -1   1  852.09   13.89
   2   1  -1  800.32   14.50
   2   1  -1  859.54   13.96
  -2  -1   1  817.76   14.34
  -2  -1   0   95.72    2.41
  -2  -1   0   88.09    2.25
  -2  -1   0   93.42    1.87
   2   1   0   90.60    2.53
  -2  -1   0   91.33    2.48
   2   1   0   88.71    1.85
  -2  -1   0   90.32    2.44
   2   1   1 2048.45   31.93
  -2  -1  -1 2080.58   32.89
   2   1   2  976.09   15.69
  -2  -1  -2  957.58   15.94
  -2  -1  -2  948.80   16.05
  -2  -1  -2  987.86   15.45
  -2  -1  -3   31.77    1.24
  -2  -1  -3   31.98    1.24
  -2  -1  -3   29.24    1.27
   2   1   4 1158.88   19.27
  -2  -1  -4 1116.03   18.31
  -2  -1  -4 1135.95   19.44
  -2  -1  -5  304.70    5.30
  -2  -1  -5  314.51    7.28
   2   1   5  304.89    7.44
   2   1   5  303.90    6.87
   2   1   6   74.11    3.49
   2   1   6   73.42    3.47
  -2  -1  -6   77.01    3.43
   2   1   6   70.33    2.99
   2   1   7  741.05   16.18
  -2  -1  -7  742.40   15.49
   2   1   7  729.33   14.98
   2   1   7  721.77   16.07
  -2  -1  -7  744.35   14.84
  -2  -1  -7  741.26   13.79
  -2  -1  -7  773.81   15.70
  -2  -1  -7  737.76   15.87
  -2  -1  -7  741.77   13.82
  -2  -1  -7  752.36   15.31
  -2  -1  -7  755.77   15.62
  -2  -1  -8  115.35    4.08
   2   1   8  111.18    5.16
  -2  -1  -8  110.15    4.88
  -2  -1  -8  108.39    3.97
  -2  -1  -8  111.33    5.07
  -2  -1  -8  115.47    5.08
   2   1   8  111.36    5.21
   2   1   8  115.69    4.53
  -2  -1  -8  111.23    4.36
  -2  -1  -8  115.14    4.89
   2   1   9   44.72    3.28
   2   1   9   43.84    3.22
  -2  -1  -9   54.02    2.89
  -2  -1  -9   49.33    3.39
  -2  -1  -9   50.41    2.74
  -2  -1  -9   50.24    3.36
  -2  -1  -9   51.88    2.75
   2   1   9   50.30    2.84
  -2  -1  -9   57.58    3.78
  -2  -1  -9   56.14    3.52
  -2  -1  -9   61.41    3.88
  -2  -1 -10   27.63    2.63
  -2  -1 -10   28.17    2.42
  -2  -1 -10   26.78    2.59
  -2  -1 -11   19.45    1.94
  -2  -1 -11   18.68    1.72
  -2  -1 -11   19.95    1.72
   2   2  -9   11.11    1.29
   2   2  -9    9.37    1.18
   2   2  -9    8.86    1.06
   2   2  -8  227.16    6.04
   2   2  -8  226.18    7.42
   2   2  -8  221.03    7.34
   2   2  -8  230.06    7.21
  -2  -2   7 1210.68   23.69
  -2  -2   7 1192.67   23.11
   2   2  -7 1235.12   24.82
   2   2  -7 1167.64   23.70
   2   2  -7 1224.10   24.80
   2   2  -7 1237.41   24.52
   2   2  -7 1241.06   22.73
  -2  -2   6   69.94    3.95
   2   2  -6   69.24    3.84
   2   2  -6   69.86    4.03
  -2  -2   6   69.73    3.77
   2   2  -6   62.58    3.84
   2   2  -6   71.24    4.00
   2   2  -6   66.57    3.77
   2   2  -6   69.19    3.37
  -2  -2   5   38.75    2.81
   2   2  -5   38.56    2.69
   2   2  -5   35.64    2.62
   2   2  -5   38.10    2.71
  -2  -2   5   37.18    2.03
  -2  -2   5   42.07    2.82
   2   2  -5   37.65    2.68
   2   2  -5   40.32    2.66
  -2  -2   5   39.02    2.89
   2   2  -5   39.61    2.03
   2   2  -5   36.97    2.15
   2   2  -4  749.17   16.17
  -2  -2   4  739.56   15.77
  -2  -2   4  774.06   15.55
   2   2  -4  729.74   14.59
  -2  -2   4  753.39   15.92
   2   2  -4  758.73   14.89
   2   2  -4  761.34   15.33
   2   2  -4  772.38   14.28
   2   2  -4  735.86   15.22
   2   2  -4  725.63   15.18
   2   2  -4  760.72   15.33
   2   2  -4  772.09   14.21
  -2  -2   3 1385.31   24.41
  -2  -2   3 1367.70   23.88
   2   2  -3 1350.86   23.19
  -2  -2   3 1330.96   24.35
   2   2  -3 1312.31   23.45
   2   2  -3 1363.19   23.80
   2   2  -3 1359.71   26.27
  -2  -2   2  820.69   15.45
   2   2  -2  821.91   14.79
   2   2  -2  830.16   16.32
  -2  -2   2  804.81   15.29
  -2  -2   2  823.49   13.64
  -2  -2   2  813.00   14.83
   2   2  -2  836.34   14.80
  -2  -2   2  845.49   13.74
   2   2  -1  180.43    3.60
  -2  -2   1  179.10    4.42
  -2  -2   1  182.38    4.54
   2   2  -1  185.79    4.23
  -2  -2   1  185.71    4.06
   2   2  -1  192.49    4.46
  -2  -2   1  184.22    3.85
  -2  -2   1  185.69    3.92
   2   2   0  431.40    7.70
  -2  -2   0  473.65    8.07
   2   2   0  460.73    8.05
  -2  -2   0  427.29    7.45
  -2  -2   0  461.36    8.11
  -2  -2   0  456.66    8.05
  -2  -2  -1 4519.15   67.47
   2   2   1 4194.24   67.10
  -2  -2  -2 3842.78   58.51
  -2  -2  -2 3699.28   57.74
  -2  -2  -3  276.56    5.41
  -2  -2  -3  272.07    5.35
  -2  -2  -3  276.43    5.38
   2   2   4   42.96    1.52
  -2  -2  -4   40.90    1.44
  -2  -2  -4   44.46    1.50
  -2  -2  -5 1769.91   27.32
   2   2   5 1763.08   29.34
   2   2   5 1797.96   28.16
  -2  -2  -6  416.23    9.75
   2   2   6  398.58    9.65
   2   2   6  424.43    8.53
   2   2   7  740.73   14.04
  -2  -2  -7  693.25   15.05
   2   2   7  735.96   15.82
  -2  -2  -7  749.13   15.13
  -2  -2  -7  735.87   14.51
  -2  -2  -7  731.22   14.56
  -2  -2  -7  740.56   15.73
   2   2   8  226.41    6.12
  -2  -2  -8  229.80    7.29
  -2  -2  -8  223.33    7.26
  -2  -2  -8  226.81    7.38
   2   2   8  210.75    7.39
  -2  -2  -8  229.07    6.82
  -2  -2  -8  221.19    6.50
   2   2   8  216.02    7.51
  -2  -2  -8  229.92    7.53
   2   2   9    5.53    1.33
  -2  -2  -9    5.57    1.34
   2   2   9    3.48    1.08
  -2  -2  -9    3.72    1.21
  -2  -2  -9    3.55    1.10
  -2  -2  -9    2.31    0.81
  -2  -2  -9    5.23    1.17
  -2  -2  -9    3.15    1.11
   2   2  10  608.94   14.66
  -2  -2 -10  615.77   14.80
  -2  -2 -10  658.08   12.84
   2   2  10  627.74   14.83
  -2  -2 -10  638.17   14.47
  -2  -2 -10  637.68   15.39
  -2  -2 -11  186.61    6.20
  -2  -2 -11  178.20    6.40
  -2  -2 -11  177.38    5.97
  -2  -2 -12   70.66    2.63
  -2  -2 -12   70.13    2.82
  -2  -2 -12   73.39    3.09
   2   3  -8    8.75    1.36
   2   3  -8   10.26    1.38
   2   3  -8    7.58    1.28
  -2  -3   7  195.37    6.00
   2   3  -7  189.53    7.04
   2   3  -7  190.81    7.07
   2   3  -7  199.88    5.65
   2   3  -7  195.43    6.92
  -2  -3   6   35.09    2.82
  -2  -3   6   38.95    2.67
   2   3  -6   37.20    2.78
  -2  -3   6   39.49    2.82
   2   3  -6   35.58    2.91
   2   3  -6   39.33    3.11
   2   3  -6   38.84    2.81
   2   3  -6   36.97    2.35
   2   3  -6   42.86    3.23
  -2  -3   5   12.82    1.67
  -2  -3   5   13.15    1.80
  -2  -3   5   13.62    1.34
   2   3  -5   10.21    1.47
   2   3  -5   11.75    1.62
   2   3  -5   16.04    1.97
   2   3  -5   13.49    1.78
   2   3  -5   12.25    1.68
  -2  -3   5   12.41    1.69
   2   3  -4  252.96    6.88
  -2  -3   4  256.45    7.40
   2   3  -4  247.65    7.32
   2   3  -4  253.67    7.37
  -2  -3   4  251.92    7.41
   2   3  -4  252.23    7.37
   2   3  -4  260.92    7.45
  -2  -3   4  256.39    7.87
   2   3  -4  246.34    6.80
  -2  -3   4  243.51    6.35
  -2  -3   3  294.21    7.88
   2   3  -3  318.41    9.12
  -2  -3   3  323.75    7.98
   2   3  -3  320.55    7.81
  -2  -3   3  321.07    8.52
   2   3  -3  304.94    7.71
   2   3  -3  329.38    6.60
   2   3  -3  318.78    7.83
   2   3  -2  131.13    3.51
   2   3  -2  136.11    4.44
  -2  -3   2  127.22    3.99
   2   3  -2  126.53    4.08
  -2  -3   2  125.44    4.38
  -2  -3   2  121.12    3.96
  -2  -3   2  138.03    3.18
   2   3  -2  122.44    3.41
  -2  -3   1 1232.70   20.90
   2   3  -1 1232.67   21.60
   2   3  -1 1253.97   20.40
  -2  -3   1 1234.12   20.93
   2   3  -1 1249.70   21.01
  -2  -3   1 1196.05   21.60
  -2  -3   1 1283.87   20.66
  -2  -3   0   22.18    1.30
  -2  -3   0   27.01    1.17
   2   3   0   31.15    1.63
  -2  -3   0   18.99    1.18
   2   3   0   28.39    1.00
   2   3   0   33.92    1.63
  -2  -3   0   27.59    1.09
  -2  -3   0   30.15    1.42
  -2  -3  -1 1048.81   18.38
   2   3   1 1125.17   17.37
  -2  -3  -1 1055.18   18.36
  -2  -3  -1 1100.32   17.57
   2   3   1 1075.00   18.51
   2   3   1 1120.70   18.16
   2   3   1 1066.08   17.30
   2   3   2 3290.74   49.77
  -2  -3  -2 3349.74   50.79
   2   3   3 1301.68   21.08
  -2  -3  -3 1282.57   21.25
  -2  -3  -3 1257.70   21.45
  -2  -3  -3 1230.30   21.41
   2   3   3 1307.04   20.13
   2   3   4  308.57    5.53
  -2  -3  -4  319.85    6.83
  -2  -3  -4  331.75    6.52
  -2  -3  -4  341.05    6.53
   2   3   4  326.42    6.66
   2   3   5 1772.93   29.58
  -2  -3  -5 1778.71   29.89
   2   3   5 1787.30   27.86
   2   3   6 1103.75   20.95
   2   3   6 1137.33   19.05
  -2  -3  -6 1101.04   21.27
  -2  -3  -7 1125.16   20.35
   2   3   7 1198.08   19.72
  -2  -3  -7 1164.82   22.05
  -2  -3  -7 1142.82   22.58
  -2  -3  -7 1143.75   20.43
  -2  -3  -7 1179.22   21.41
  -2  -3  -7 1165.06   22.09
  -2  -3  -7 1207.96   21.65
   2   3   7 1144.16   22.33
   2   3   8  423.94   11.19
  -2  -3  -8  432.26   11.13
  -2  -3  -8  414.93   10.94
  -2  -3  -8  450.59   10.90
  -2  -3  -8  427.05   11.29
  -2  -3  -8  422.72   10.08
  -2  -3  -8  426.17    9.88
   2   3   9   24.02    2.43
   2   3   9   21.41    2.26
  -2  -3  -9   24.06    2.49
  -2  -3  -9   17.25    2.04
  -2  -3  -9   18.80    2.24
  -2  -3  -9   20.02    1.82
  -2  -3 -10  625.87   13.46
  -2  -3 -10  621.43   15.01
  -2  -3 -10  638.39   12.89
  -2  -3 -10  621.96   14.94
   2   3  10  577.25   14.38
   2   3  10  627.73   14.80
  -2  -3 -10  622.52   14.44
  -2  -3 -10  645.37   15.40
  -2  -3 -11  798.96   16.97
  -2  -3 -11  838.43   17.28
  -2  -3 -11  815.58   17.57
  -2  -3 -11  782.01   14.96
  -2  -3 -12  111.62    3.85
  -2  -3 -12  116.08    4.06
  -2  -3 -12  112.35    4.16
   2   4  -8   82.94    3.40
   2   4  -8   84.30    3.44
   2   4  -8   75.02    3.01
   2   4  -7    7.30    1.32
   2   4  -7    6.01    1.30
   2   4  -7    8.73    1.47
   2   4  -6  150.17    5.58
   2   4  -6  157.35    6.29
   2   4  -6  154.55    6.36
   2   4  -6  156.75    5.67
   2   4  -6  152.74    6.33
  -2  -4   5  138.05    5.89
  -2  -4   5  133.73    4.58
  -2  -4   5  139.97    5.37
   2   4  -5  144.01    6.05
   2   4  -5  139.93    5.96
   2   4  -5  147.26    5.49
   2   4  -5  133.47    5.50
   2   4  -5  137.91    5.94
  -2  -4   4 1378.14   26.22
   2   4  -4 1431.00   26.16
   2   4  -4 1387.01   25.66
   2   4  -4 1389.31   26.81
  -2  -4   4 1390.79   25.26
  -2  -4   4 1457.55   27.66
   2   4  -4 1416.22   26.95
   2   4  -3  382.93    9.49
  -2  -4   3  366.35    8.75
  -2  -4   3  370.47    8.86
   2   4  -3  385.07    9.64
  -2  -4   3  379.96    9.42
   2   4  -3  384.15    8.40
   2   4  -3  375.17    9.41
  -2  -4   3  388.10   10.25
   2   4  -3  370.65    9.99
   2   4  -2   33.49    2.14
  -2  -4   2   30.18    1.73
   2   4  -2   31.81    1.88
   2   4  -2   32.98    2.04
  -2  -4   2   32.38    1.50
  -2  -4   2   29.67    1.97
   2   4  -2   33.15    2.30
   2   4  -2   35.17    2.10
  -2  -4   2   25.22    2.13
   2   4  -1 1558.58   27.61
  -2  -4   1 1603.28   25.94
  -2  -4   1 1613.96   27.20
   2   4  -1 1622.70   27.97
  -2  -4   1 1648.19   26.69
  -2  -4   1 1521.38   27.69
  -2  -4   0 1095.47   19.28
   2   4   0 1097.22   19.85
  -2  -4   0 1143.14   19.44
   2   4   0 1073.06   20.25
  -2  -4   0 1121.16   19.08
  -2  -4  -1  824.13   14.01
   2   4   1  797.98   14.97
  -2  -4  -1  810.05   14.96
   2   4   1  823.73   15.26
  -2  -4  -1  831.66   14.28
   2   4   1  817.81   13.92
   2   4   2 1059.97   18.74
   2   4   2 1064.41   17.75
  -2  -4  -2 1066.98   18.85
   2   4   2 1069.97   18.45
   2   4   3 1206.98   21.14
   2   4   3 1193.36   20.21
  -2  -4  -3 1188.19   21.02
   2   4   3 1230.67   19.35
   2   4   3 1188.12   20.21
  -2  -4  -4  256.15    6.02
  -2  -4  -4  252.63    6.09
   2   4   4  244.58    5.82
   2   4   4  243.86    5.21
   2   4   4  254.02    5.07
  -2  -4  -5  682.85   12.61
   2   4   5  662.90   13.28
  -2  -4  -5  687.86   13.53
   2   4   5  658.84   12.54
   2   4   6 1299.52   24.35
  -2  -4  -6 1331.79   23.82
  -2  -4  -6 1300.18   24.43
  -2  -4  -6 1302.68   23.99
   2   4   6 1316.16   23.50
  -2  -4  -6 1368.44   22.42
   2   4   7  112.24    4.43
  -2  -4  -7  113.65    4.73
  -2  -4  -7  114.35    4.55
  -2  -4  -7  114.77    3.48
  -2  -4  -7  109.21    4.08
  -2  -4  -7  111.91    4.55
  -2  -4  -7  107.36    4.71
  -2  -4  -7  114.68    4.30
  -2  -4  -7  113.20    3.67
   2   4   8  970.20   21.31
  -2  -4  -8 1008.47   20.75
  -2  -4  -8  958.88   20.73
  -2  -4  -8 1019.97   19.59
  -2  -4  -8 1016.60   20.76
   2   4   8 1041.73   20.45
  -2  -4  -8  993.56   20.88
  -2  -4  -9    2.89    1.24
  -2  -4  -9    1.18    1.12
  -2  -4  -9    3.23    1.13
  -2  -4  -9    4.72    1.10
   2   4   9    6.17    1.36
   2   4   9    3.75    1.28
  -2  -4  -9    6.79    1.52
  -2  -4 -10  143.08    6.04
  -2  -4 -10  140.72    6.00
   2   4  10  135.53    6.07
   2   4  10  126.53    5.43
  -2  -4 -10  133.32    5.56
  -2  -4 -10  139.42    4.70
  -2  -4 -10  134.05    5.98
   2   4  10  131.04    5.45
  -2  -4 -10  143.37    5.51
  -2  -4 -11  539.94   11.96
  -2  -4 -11  552.18   13.12
  -2  -4 -11  575.04   13.29
  -2  -4 -11  563.89   13.49
  -2  -4 -12  154.91    4.99
  -2  -4 -12  161.52    4.98
   2   5  -7   28.21    2.12
   2   5  -7   27.89    1.97
   2   5  -7   27.84    2.11
   2   5  -6   51.27    3.34
   2   5  -6   48.23    2.59
   2   5  -6   51.15    3.28
   2   5  -6   49.44    3.29
  -2  -5   5  283.82    8.75
  -2  -5   5  269.93    7.03
   2   5  -5  273.02    8.90
   2   5  -5  278.50    7.72
   2   5  -5  271.73    8.92
   2   5  -5  274.75    8.14
   2   5  -5  283.47    9.03
  -2  -5   4  708.52   16.42
  -2  -5   4  691.02   15.09
   2   5  -4  771.52   16.97
   2   5  -4  718.16   15.72
   2   5  -4  699.13   14.87
  -2  -5   4  672.82   14.61
   2   5  -4  761.11   16.91
  -2  -5   3 1326.34   24.84
  -2  -5   3 1320.28   25.97
   2   5  -3 1349.55   25.64
   2   5  -3 1320.90   23.62
   2   5  -3 1298.61   25.39
   2   5  -3 1333.31   25.57
  -2  -5   3 1291.72   24.26
   2   5  -2   85.10    4.21
  -2  -5   2   88.58    4.24
  -2  -5   2   91.62    2.94
   2   5  -2   88.18    3.69
   2   5  -2   84.77    3.84
  -2  -5   2   84.06    3.75
   2   5  -2   92.11    3.75
   2   5  -2   84.44    3.84
   2   5  -1  710.07   14.95
  -2  -5   1  721.47   14.31
   2   5  -1  713.79   15.19
  -2  -5   1  710.15   14.73
  -2  -5   1  730.49   13.73
   2   5  -1  704.38   14.05
   2   5  -1  696.89   14.04
  -2  -5   0 3240.06   54.58
  -2  -5   0 3160.36   54.54
   2   5   0 3485.63   56.92
   2   5   0 3575.19   55.94
  -2  -5   0 3583.95   55.17
  -2  -5  -1 1329.27   21.90
   2   5   1 1291.05   24.45
  -2  -5  -1 1312.41   23.50
   2   5   1 1273.77   23.34
  -2  -5  -1 1309.58   22.68
  -2  -5  -2  406.50    9.41
   2   5   2  408.77    9.66
   2   5   2  394.22    8.85
   2   5   2  415.23    8.28
   2   5   3  310.73    7.04
   2   5   3  318.35    6.97
   2   5   3  328.51    8.05
  -2  -5  -3  318.20    7.87
   2   5   4  654.61   12.90
   2   5   4  658.26   12.07
  -2  -5  -4  694.73   13.63
   2   5   4  688.68   13.92
  -2  -5  -5 1811.64   33.57
   2   5   5 1799.38   33.80
   2   5   5 1962.72   33.36
  -2  -5  -5 2052.61   33.32
   2   5   5 1990.00   31.55
  -2  -5  -6  980.14   17.87
  -2  -5  -6  959.82   18.47
  -2  -5  -6  959.59   19.27
  -2  -5  -6  951.59   18.46
  -2  -5  -6 1000.83   18.59
  -2  -5  -6  972.07   18.88
  -2  -5  -6  998.21   19.53
   2   5   6  982.09   19.26
  -2  -5  -6  968.39   18.19
  -2  -5  -6  980.47   18.75
   2   5   6  940.89   17.38
  -2  -5  -6  969.45   17.40
  -2  -5  -7    4.01    1.03
  -2  -5  -7    5.43    1.25
  -2  -5  -7   12.28    1.41
   2   5   7    4.38    1.17
  -2  -5  -7   14.48    1.78
  -2  -5  -7    5.24    0.83
  -2  -5  -7    5.73    1.11
   2   5   7    6.24    1.04
  -2  -5  -7    5.45    1.17
  -2  -5  -7    4.77    0.99
   2   5   8  489.95   13.13
  -2  -5  -8  507.92   10.78
  -2  -5  -8  490.68   12.59
  -2  -5  -8  489.57   12.51
   2   5   8  494.33   11.52
  -2  -5  -8  503.43   12.88
  -2  -5  -8  491.17   11.47
  -2  -5  -8  484.34   11.60
  -2  -5  -8  513.11   12.84
  -2  -5  -9  505.44   13.12
  -2  -5  -9  491.04   13.14
   2   5   9  494.14   13.49
   2   5   9  489.08   11.86
  -2  -5  -9  484.78   13.04
  -2  -5  -9  502.85   12.99
  -2  -5  -9  511.09   11.82
  -2  -5  -9  510.94   13.30
  -2  -5 -10  108.28    5.17
   2   5  10  113.85    5.39
  -2  -5 -10  106.23    5.02
  -2  -5 -10  110.99    5.29
   2   5  10  104.49    4.58
  -2  -5 -10  109.64    4.88
  -2  -5 -10  112.82    4.21
  -2  -5 -10  118.08    5.48
  -2  -5 -11   48.60    2.94
  -2  -5 -11   51.05    3.23
  -2  -5 -11   47.84    3.09
  -2  -5 -12  190.31    4.92
  -2  -5 -12  202.44    5.66
  -2  -5 -12  192.50    5.17
  -2  -5 -12  194.67    5.65
   2   6  -6  330.51    8.64
   2   6  -6  341.24    8.53
   2   6  -6  325.69    8.61
   2   6  -5  161.73    6.22
  -2  -6   5  152.83    4.50
   2   6  -5  164.86    6.27
   2   6  -4  106.03    4.53
   2   6  -4  111.83    5.26
   2   6  -4  109.95    5.25
  -2  -6   4  104.90    4.21
  -2  -6   3  639.04   14.88
   2   6  -3  654.28   15.11
  -2  -6   3  611.40   13.95
   2   6  -3  631.77   15.16
   2   6  -3  642.11   15.25
  -2  -6   2   32.45    2.58
   2   6  -2   29.01    2.31
  -2  -6   2   28.20    2.23
   2   6  -2   29.46    2.48
   2   6  -2   27.44    2.62
   2   6  -2   30.01    2.53
   2   6  -1   11.50    1.77
  -2  -6   1   10.29    1.15
  -2  -6   1   12.76    1.46
   2   6  -1   11.41    1.76
  -2  -6   1   10.98    1.29
  -2  -6   1    7.93    1.05
   2   6  -1   13.17    1.55
   2   6  -1   11.27    1.46
  -2  -6   1   11.25    1.48
  -2  -6   0 1021.54   19.75
  -2  -6   0 1020.82   18.89
  -2  -6   0 1010.90   19.02
   2   6   0 1015.52   20.60
  -2  -6   0 1024.09   19.32
   2   6   0 1000.39   21.60
  -2  -6  -1  194.47    6.34
  -2  -6  -1  187.61    5.34
   2   6   1  191.57    6.31
  -2  -6  -1  196.66    5.89
   2   6   1  185.29    7.27
  -2  -6  -2   33.14    2.52
   2   6   2   31.07    2.76
   2   6   2   35.39    1.95
  -2  -6  -2   33.68    1.99
   2   6   2   32.29    2.24
  -2  -6  -2   31.04    2.20
  -2  -6  -2   29.93    1.85
  -2  -6  -3   35.58    2.56
  -2  -6  -3   33.47    1.98
  -2  -6  -3   33.15    1.93
   2   6   3   34.57    2.73
   2   6   3   34.99    2.00
   2   6   3   29.17    1.98
  -2  -6  -3   27.87    2.06
  -2  -6  -3   34.37    1.98
  -2  -6  -3   29.59    1.97
  -2  -6  -3   33.48    2.20
  -2  -6  -4  225.53    6.94
  -2  -6  -4  222.11    5.81
  -2  -6  -4  223.46    6.55
   2   6   4  214.37    6.03
   2   6   4  223.03    5.65
  -2  -6  -4  215.64    6.32
  -2  -6  -4  234.98    6.46
  -2  -6  -4  208.26    6.21
  -2  -6  -4  230.51    6.26
  -2  -6  -4  219.36    5.93
  -2  -6  -4  227.83    6.07
   2   6   4  219.16    7.17
  -2  -6  -5 1205.01   22.87
   2   6   5 1255.32   24.26
  -2  -6  -5 1271.30   22.99
  -2  -6  -5 1272.57   23.36
  -2  -6  -5 1249.16   22.77
  -2  -6  -5 1241.80   23.25
  -2  -6  -5 1251.06   23.46
  -2  -6  -5 1230.58   23.11
  -2  -6  -5 1233.23   22.60
  -2  -6  -5 1213.44   22.60
  -2  -6  -5 1244.00   22.76
   2   6   5 1245.14   23.12
  -2  -6  -6 1194.16   22.52
   2   6   6 1193.82   23.08
  -2  -6  -6 1171.61   21.66
  -2  -6  -6 1202.03   22.64
  -2  -6  -6 1192.58   22.00
  -2  -6  -6 1208.96   22.55
  -2  -6  -6 1144.87   22.39
  -2  -6  -6 1147.82   21.42
  -2  -6  -6 1203.62   23.47
  -2  -6  -6 1209.85   22.35
  -2  -6  -6 1247.81   23.55
  -2  -6  -6 1204.31   22.96
   2   6   6 1212.43   23.83
  -2  -6  -6 1159.83   22.53
   2   6   7   31.49    2.68
  -2  -6  -7   32.92    2.91
  -2  -6  -7   27.63    2.00
  -2  -6  -7   32.17    2.05
  -2  -6  -7   31.84    2.36
  -2  -6  -7   29.52    2.61
  -2  -6  -7   31.52    2.56
  -2  -6  -7   30.18    2.57
   2   6   7   30.37    2.70
  -2  -6  -7   31.56    2.53
  -2  -6  -7   31.28    2.45
   2   6   8    7.69    1.60
   2   6   8   11.58    1.83
  -2  -6  -8    6.22    1.26
  -2  -6  -8   11.37    1.67
  -2  -6  -8    7.80    1.51
  -2  -6  -8   12.77    1.80
  -2  -6  -8    8.98    1.63
  -2  -6  -8   10.83    1.74
  -2  -6  -8   10.12    1.86
   2   6   9  860.91   19.39
  -2  -6  -9  845.78   19.16
   2   6   9  781.21   17.87
  -2  -6  -9  817.65   18.37
  -2  -6  -9  814.93   18.66
  -2  -6  -9  832.74   16.22
  -2  -6  -9  825.93   18.39
  -2  -6  -9  841.21   17.29
  -2  -6  -9  815.47   18.64
  -2  -6 -10  483.22   12.26
  -2  -6 -10  494.23   12.67
  -2  -6 -10  472.49   12.49
  -2  -6 -10  464.94   10.67
  -2  -6 -10  483.68   12.41
  -2  -6 -11    7.72    1.32
  -2  -6 -11   10.52    1.53
  -2  -6 -11    9.73    1.40
  -2  -6 -11    9.06    1.36
  -2  -6 -12   79.15    2.94
  -2  -6 -12   82.93    3.27
  -2  -6 -12   79.80    3.04
  -2  -6 -12   77.98    2.85
   2   7  -5  370.76    9.14
   2   7  -5  366.26    9.08
   2   7  -5  363.27    9.06
   2   7  -4    3.68    1.14
   2   7  -4    2.53    1.02
   2   7  -4    2.05    0.88
  -2  -7   4    1.89    0.66
  -2  -7   3    8.88    1.40
   2   7  -3    7.69    1.49
   2   7  -3    7.90    1.48
   2   7  -3   10.43    1.69
   2   7  -2  732.25   16.72
  -2  -7   2  708.02   15.88
   2   7  -2  704.11   16.26
   2   7  -2  692.04   16.15
  -2  -7   1   28.90    2.15
  -2  -7   1   30.22    2.09
   2   7  -1   29.10    2.79
   2   7  -1   28.21    2.67
   2   7  -1   31.33    2.60
   2   7  -1   30.70    2.58
  -2  -7   1   33.56    2.16
  -2  -7   1   31.04    2.07
  -2  -7   0  818.42   17.11
  -2  -7   0  802.88   16.57
   2   7   0  811.11   19.06
  -2  -7   0  815.29   16.70
   2   7   0  785.69   18.03
  -2  -7  -1  198.07    6.98
   2   7   1  179.88    7.99
  -2  -7  -1  197.72    5.30
   2   7   1  183.17    6.79
  -2  -7  -1  185.48    6.41
  -2  -7  -2  162.33    4.58
  -2  -7  -2  174.92    5.70
   2   7   2  168.80    6.11
  -2  -7  -2  175.55    6.28
  -2  -7  -2  169.67    6.61
  -2  -7  -2  169.03    4.77
   2   7   2  163.15    7.54
  -2  -7  -2  171.36    5.37
  -2  -7  -3 1015.70   21.61
   2   7   3 1028.57   19.27
  -2  -7  -3  999.82   20.74
   2   7   3 1009.89   22.86
  -2  -7  -3 1019.45   19.24
   2   7   3  985.98   19.76
  -2  -7  -3 1040.34   20.22
  -2  -7  -3 1034.01   20.35
  -2  -7  -3 1029.15   19.00
  -2  -7  -4  356.80    9.03
  -2  -7  -4  388.36   10.24
   2   7   4  354.95   11.07
   2   7   4  362.43    9.09
  -2  -7  -4  379.47   10.66
  -2  -7  -4  363.21   10.01
  -2  -7  -4  374.87    9.03
   2   7   4  369.31    8.70
  -2  -7  -4  373.36   10.01
  -2  -7  -4  367.67    9.09
  -2  -7  -4  380.97    9.60
  -2  -7  -4  385.17    9.80
   2   7   5  220.57    8.20
  -2  -7  -5  229.72    7.36
  -2  -7  -5  236.32    6.75
   2   7   5  226.15    6.98
  -2  -7  -5  215.13    7.49
  -2  -7  -5  221.16    6.96
  -2  -7  -5  225.92    7.14
  -2  -7  -5  230.28    7.65
  -2  -7  -5  228.27    6.87
  -2  -7  -5  222.45    7.24
  -2  -7  -5  226.61    7.02
  -2  -7  -6  656.77   14.76
  -2  -7  -6  649.02   14.82
  -2  -7  -6  659.58   14.39
  -2  -7  -6  656.82   14.76
   2   7   6  670.53   15.01
  -2  -7  -6  654.22   14.53
   2   7   6  658.40   16.24
  -2  -7  -6  655.83   14.27
  -2  -7  -6  660.59   15.31
  -2  -7  -6  634.53   14.04
  -2  -7  -6  664.56   15.29
  -2  -7  -6  648.62   14.69
  -2  -7  -6  652.10   15.12
   2   7   7   40.66    3.11
  -2  -7  -7   46.24    3.20
  -2  -7  -7   44.83    2.77
  -2  -7  -7   47.70    3.18
  -2  -7  -7   38.18    2.97
  -2  -7  -7   43.67    3.37
  -2  -7  -7   43.83    3.21
  -2  -7  -7   44.05    2.58
  -2  -7  -7   44.66    2.69
  -2  -7  -7   43.87    3.26
  -2  -7  -7   43.08    2.94
  -2  -7  -7   42.33    2.60
   2   7   7   38.51    3.25
  -2  -7  -8   28.94    2.56
  -2  -7  -8   30.78    2.52
  -2  -7  -8   30.59    3.00
   2   7   8   30.45    2.91
  -2  -7  -8   32.84    2.92
  -2  -7  -8   30.19    2.60
  -2  -7  -8   29.28    2.56
  -2  -7  -8   34.54    2.98
   2   7   8   27.85    2.70
  -2  -7  -8   33.61    2.22
  -2  -7  -9  297.60    9.70
  -2  -7  -9  301.85    8.07
   2   7   9  291.03    9.05
  -2  -7  -9  297.19    9.46
  -2  -7  -9  303.43    8.47
  -2  -7  -9  296.42    9.39
  -2  -7  -9  293.47    8.78
   2   7   9  277.52    8.89
  -2  -7  -9  298.41    8.70
  -2  -7 -10  796.96   16.40
  -2  -7 -10  805.03   17.91
  -2  -7 -10  776.89   17.72
  -2  -7 -10  855.56   17.29
  -2  -7 -10  857.00   17.97
  -2  -7 -11   26.44    2.12
  -2  -7 -11   26.01    1.91
  -2  -7 -11   26.03    1.99
  -2  -7 -11   24.93    2.09
   2   8  -4   19.38    1.70
  -2  -8   4   16.30    0.96
   2   8  -4   18.02    1.55
   2   8  -4   16.95    1.51
  -2  -8   4   16.88    1.39
  -2  -8   3   16.99    1.55
   2   8  -3   14.63    1.70
   2   8  -3   17.23    1.83
  -2  -8   2  339.47    9.23
   2   8  -2  322.17    9.27
   2   8  -2  325.36    9.33
  -2  -8   1  444.59    9.68
   2   8  -1  427.95   11.40
   2   8  -1  447.55   12.03
  -2  -8   1  445.04    9.61
   2   8  -1  436.20   11.46
  -2  -8   0  199.90    6.46
  -2  -8   0  183.70    6.09
  -2  -8   0  188.30    5.96
   2   8   0  191.70    6.75
   2   8   0  189.06    7.15
   2   8   0  180.21    7.07
   2   8   0  177.05    6.58
  -2  -8   0  187.11    6.31
  -2  -8   0  194.80    6.41
  -2  -8  -1   30.71    2.69
   2   8   1   30.96    3.39
  -2  -8  -1   31.99    2.73
   2   8   1   30.61    2.80
  -2  -8  -1   32.69    2.82
  -2  -8  -1   33.62    2.14
  -2  -8  -1   34.96    2.85
   2   8   2  178.00    8.46
  -2  -8  -2  180.77    7.22
  -2  -8  -2  182.75    7.16
   2   8   2  182.70    6.71
  -2  -8  -2  196.09    6.36
  -2  -8  -2  192.10    7.49
  -2  -8  -3  301.84   10.08
  -2  -8  -3  296.63    7.39
  -2  -8  -3  296.83    8.92
  -2  -8  -3  295.94    9.75
  -2  -8  -3  291.82    7.76
   2   8   3  290.15   11.13
   2   8   3  283.79    8.43
  -2  -8  -3  328.87   10.09
  -2  -8  -4  265.47    9.39
   2   8   4  275.02    7.54
   2   8   4  263.63   10.34
  -2  -8  -4  270.01    9.12
  -2  -8  -4  273.98    7.48
  -2  -8  -4  269.90    9.02
  -2  -8  -4  275.89    9.24
  -2  -8  -4  273.91    7.40
  -2  -8  -5  156.49    5.79
  -2  -8  -5  153.19    6.10
  -2  -8  -5  158.53    5.71
   2   8   5  150.19    7.47
   2   8   5  159.00    5.70
  -2  -8  -5  163.14    6.62
  -2  -8  -5  141.58    6.52
  -2  -8  -5  163.79    6.57
  -2  -8  -5  165.04    6.78
  -2  -8  -5  159.37    6.41
  -2  -8  -5  155.00    5.32
  -2  -8  -6   19.09    2.11
  -2  -8  -6   20.38    2.32
  -2  -8  -6   26.09    2.14
   2   8   6   17.34    1.98
  -2  -8  -6   21.83    2.26
  -2  -8  -6   20.18    2.21
  -2  -8  -6   16.59    2.23
   2   8   6   20.25    2.69
  -2  -8  -6   23.31    2.36
  -2  -8  -6   20.22    2.38
  -2  -8  -6   21.14    2.20
  -2  -8  -6   18.82    2.14
  -2  -8  -7  146.10    6.09
   2   8   7  140.78    6.61
  -2  -8  -7  144.73    5.60
  -2  -8  -7  146.28    5.46
  -2  -8  -7  146.96    6.30
  -2  -8  -7  134.75    5.75
   2   8   7  140.39    5.57
  -2  -8  -7  147.09    5.35
  -2  -8  -7  145.28    6.03
  -2  -8  -7  144.60    5.32
  -2  -8  -7  134.23    5.05
  -2  -8  -7  140.83    6.18
  -2  -8  -8  161.20    6.61
   2   8   8  153.68    6.68
  -2  -8  -8  157.94    6.12
  -2  -8  -8  167.98    6.43
  -2  -8  -8  158.00    6.44
  -2  -8  -8  160.02    5.66
  -2  -8  -8  165.46    6.68
  -2  -8  -8  172.86    5.57
  -2  -8  -8  157.62    4.97
  -2  -8  -9  144.98    5.31
  -2  -8  -9  139.24    5.34
  -2  -8  -9  146.83    5.98
  -2  -8  -9  145.96    6.09
  -2  -8  -9  144.67    5.15
  -2  -8  -9  146.94    6.01
  -2  -8 -10  145.78    5.52
  -2  -8 -10  136.44    4.48
  -2  -8 -10  146.48    5.48
  -2  -8 -10  140.00    5.33
  -2  -8 -10  136.31    4.59
  -2  -8 -11   22.52    1.73
  -2  -8 -11   19.61    1.32
  -2  -8 -11   22.73    1.76
  -2  -8 -11   22.42    1.63
   2   9  -2  265.52    7.06
  -2  -9   2  265.44    6.86
   2   9  -2  269.95    7.08
  -2  -9   1  224.84    7.01
   2   9  -1  219.55    6.79
   2   9  -1  219.95    6.81
  -2  -9   0  141.53    4.78
   2   9   0  136.82    5.45
  -2  -9   0  150.09    4.97
   2   9   0  144.44    5.53
  -2  -9   0  144.10    4.89
  -2  -9  -1  198.51    6.92
  -2  -9  -1  217.00    7.15
  -2  -9  -1  205.38    6.97
   2   9   1  202.34    6.93
   2   9   1  205.00    6.94
  -2  -9  -2    3.70    1.35
  -2  -9  -2    3.36    1.34
  -2  -9  -2    3.66    1.01
   2   9   2    2.99    1.87
  -2  -9  -2    8.96    1.74
   2   9   2    2.36    1.10
  -2  -9  -2    4.06    1.33
   2   9   2    5.77    1.45
   2   9   2    2.93    1.20
  -2  -9  -3  286.51    9.85
   2   9   3  283.90   10.92
  -2  -9  -3  299.32   10.04
  -2  -9  -3  298.34    9.93
  -2  -9  -3  288.11    9.64
  -2  -9  -3  296.09    8.67
  -2  -9  -4 1548.78   31.67
  -2  -9  -4 1560.58   31.35
  -2  -9  -4 1606.17   27.25
  -2  -9  -4 1601.11   31.67
  -2  -9  -4 1570.06   30.61
  -2  -9  -4 1557.74   31.09
   2   9   4 1464.91   32.87
  -2  -9  -5  212.91    7.78
  -2  -9  -5  204.84    7.99
   2   9   5  208.33    9.13
  -2  -9  -5  215.50    8.01
  -2  -9  -5  208.44    5.91
  -2  -9  -5  208.35    8.07
  -2  -9  -5  209.14    7.91
  -2  -9  -5  207.07    6.16
  -2  -9  -6   25.26    2.58
  -2  -9  -6   24.04    2.49
  -2  -9  -6   29.67    2.03
  -2  -9  -6   26.63    2.21
  -2  -9  -6   25.80    2.77
  -2  -9  -6   26.13    2.50
  -2  -9  -6   27.85    2.69
   2   9   6   25.88    3.30
  -2  -9  -6   23.76    2.35
  -2  -9  -7  349.65   10.44
  -2  -9  -7  350.89    8.33
  -2  -9  -7  344.27    9.45
  -2  -9  -7  356.40    9.43
  -2  -9  -7  355.32    9.71
  -2  -9  -7  353.53    9.79
  -2  -9  -7  334.62    9.15
  -2  -9  -7  359.74   10.36
  -2  -9  -7  347.47    9.80
  -2  -9  -8  573.26   13.19
  -2  -9  -8  555.97   11.59
  -2  -9  -8  583.08   12.41
  -2  -9  -8  551.61   11.76
  -2  -9  -8  588.71   13.35
  -2  -9  -8  603.16   13.65
  -2  -9  -8  617.61   13.97
  -2  -9  -8  610.17   14.13
  -2  -9  -8  576.23   11.84
  -2  -9  -9  212.34    5.49
  -2  -9  -9  217.36    6.48
  -2  -9  -9  227.86    6.94
  -2  -9  -9  223.04    6.78
  -2  -9  -9  232.64    7.10
  -2  -9  -9  222.52    6.28
  -2  -9 -10   19.57    1.63
  -2  -9 -10   21.07    1.71
  -2  -9 -10   17.63    1.25
  -2  -9 -10   23.15    1.80
  -2 -10   0    5.67    1.05
  -2 -10  -1  241.34    6.47
  -2 -10  -1  230.29    6.33
  -2 -10  -1  231.54    6.30
  -2 -10  -2  391.04   10.16
  -2 -10  -2  400.13   10.21
  -2 -10  -2  400.77   10.26
  -2 -10  -3   76.03    4.23
  -2 -10  -3   82.14    3.43
  -2 -10  -3   89.61    4.55
  -2 -10  -3   83.72    4.38
  -2 -10  -4  513.75   13.23
  -2 -10  -4  522.21   13.19
  -2 -10  -4  509.89   13.05
  -2 -10  -4  515.45   12.19
  -2 -10  -5  267.22    8.59
  -2 -10  -5  277.27    8.61
  -2 -10  -5  266.57    8.32
  -2 -10  -5  268.86    8.49
  -2 -10  -6    2.15    1.01
  -2 -10  -6    2.92    1.16
  -2 -10  -6    2.26    1.00
  -2 -10  -6    3.53    1.11
  -2 -10  -6    1.34    0.62
  -2 -10  -7  137.39    4.96
  -2 -10  -7  143.99    5.50
  -2 -10  -7  133.15    4.15
  -2 -10  -7  142.12    4.90
  -2 -10  -7  136.22    4.69
  -2 -10  -8  113.69    3.70
  -2 -10  -8  111.39    3.66
  -2 -10  -8  119.80    4.50
  -2 -10  -9  119.65    3.57
  -2 -10  -9  134.01    4.04
  -2 -11  -3  190.57    5.48
  -2 -11  -3  186.80    5.31
  -2 -11  -3  187.42    5.37
  -2 -11  -3  193.56    5.42
  -2 -11  -4    5.81    0.73
   2  11   4    4.68    1.90
  -2 -11  -4    5.39    1.01
  -2 -11  -4    4.79    1.00
  -2 -11  -4    5.19    1.04
  -2 -11  -5  136.62    4.63
  -2 -11  -5  125.62    4.03
  -2 -11  -5  132.51    4.59
  -2 -11  -5  139.81    4.62
  -2 -11  -6   60.51    2.75
  -2 -11  -6   63.53    2.76
  -2 -11  -6   63.08    2.84
  -2 -11  -6   65.57    2.86
   3  -8  -5  111.38    3.72
   3  -8  -4  373.45    8.57
   3  -8  -4  368.52    8.04
   3  -8  -4  339.90    7.48
  -3   8   4  343.45    7.88
   3  -8  -3   18.62    1.70
  -3   8   3   16.82    1.70
   3  -8  -3   19.69    1.68
   3  -8  -2  232.62    6.71
   3  -8  -2  239.70    6.53
  -3   8   2  223.47    6.84
  -3   8   1  402.04    9.72
   3  -8  -1  391.56    8.86
   3  -8  -1  404.03    9.54
   3  -8   0   37.98    1.72
  -3   8   0   37.07    2.23
   3  -8   0   40.77    2.34
   3  -8   1   17.48    1.35
   3  -7  -7  568.41   11.34
   3  -7  -7  546.43   10.47
   3  -7  -7  545.44   10.46
   3  -7  -6   24.64    1.94
   3  -7  -6   21.35    1.71
   3  -7  -6   27.00    1.89
   3  -7  -6   26.06    1.80
   3  -7  -6   24.72    1.61
   3  -7  -5   62.73    3.22
   3  -7  -5   61.00    2.66
   3  -7  -5   65.16    3.36
   3  -7  -5   63.60    3.34
   3  -7  -5   63.16    3.35
  -3   7   5   60.16    2.69
  -3   7   4  379.64   10.06
   3  -7  -4  382.37    9.50
   3  -7  -4  396.81   10.32
   3  -7  -4  393.43   10.15
   3  -7  -4  407.36   10.39
   3  -7  -4  396.15   10.10
   3  -7  -3  287.97    8.56
  -3   7   3  280.77    9.25
   3  -7  -3  282.40    8.64
   3  -7  -3  284.38    8.29
   3  -7  -3  293.32    8.76
   3  -7  -2   69.48    3.99
   3  -7  -2   72.73    3.90
  -3   7   2   71.32    4.71
   3  -7  -2   67.75    3.95
   3  -7  -2   72.10    3.94
  -3   7   1   42.70    3.74
   3  -7  -1   44.45    2.96
   3  -7  -1   41.81    3.06
   3  -7   0   25.87    2.05
   3  -7   0   27.08    2.39
  -3   7   0   28.89    2.95
   3  -7   1   55.23    3.12
   3  -7   1   57.76    2.63
  -3   7  -1   53.10    3.37
   3  -7   2  315.73    7.76
  -3   7  -2  319.51    8.36
  -3   7  -2  318.52    7.80
  -3   7  -3    8.02    1.13
  -3   7  -3    6.21    1.19
  -3   7  -3    7.45    1.27
  -3   7  -4   27.62    1.58
  -3   7  -4   31.61    2.03
  -3   7  -4   30.22    2.01
   3  -6  -8   49.96    2.07
   3  -6  -8   51.97    2.52
   3  -6  -8   43.62    1.69
   3  -6  -8   50.20    2.09
   3  -6  -8   50.60    2.08
   3  -6  -7  490.02   11.34
   3  -6  -7  495.74   10.90
   3  -6  -7  494.07   10.90
   3  -6  -7  485.52   10.43
   3  -6  -7  469.97    9.59
   3  -6  -6  323.90    8.29
   3  -6  -6  341.93    9.19
   3  -6  -6  331.54    9.27
   3  -6  -6  333.77    7.27
   3  -6  -6  320.99    8.33
   3  -6  -6  333.90    9.11
   3  -6  -5   73.69    4.04
  -3   6   5   60.74    3.19
   3  -6  -5   60.10    3.47
   3  -6  -5   67.89    3.06
   3  -6  -5   74.63    4.07
   3  -6  -5   66.55    3.82
   3  -6  -5   73.41    3.49
  -3   6   4  191.69    6.70
   3  -6  -4  185.11    5.96
   3  -6  -4  209.76    7.16
   3  -6  -4  208.06    7.42
  -3   6   4  207.22    7.30
  -3   6   4  198.14    7.42
   3  -6  -4  203.42    7.07
   3  -6  -4  201.46    7.36
   3  -6  -4  197.03    6.19
   3  -6  -4  200.09    6.45
  -3   6   4  205.43    8.85
   3  -6  -3  864.64   18.77
  -3   6   3  881.75   22.02
   3  -6  -3  954.13   20.22
   3  -6  -3  925.64   19.74
   3  -6  -3  920.77   19.20
  -3   6   3  914.25   21.91
   3  -6  -3  959.02   20.28
  -3   6   3  986.98   20.22
   3  -6  -3  940.69   19.47
   3  -6  -3  901.25   18.04
  -3   6   3  894.37   21.19
  -3   6   3  946.60   20.19
   3  -6  -2  136.21    5.61
   3  -6  -2  139.62    6.02
  -3   6   2  142.80    6.07
  -3   6   2  148.75    6.96
  -3   6   2  146.66    6.78
  -3   6   2  145.32    7.86
   3  -6  -2  144.80    5.91
   3  -6  -2  139.77    6.04
   3  -6  -2  138.80    5.85
  -3   6   2  135.79    7.21
   3  -6  -2  137.79    5.55
  -3   6   1   32.06    2.93
   3  -6  -1   33.03    2.74
  -3   6   1   33.78    3.35
  -3   6   1   37.25    3.02
   3  -6  -1   34.85    2.87
   3  -6  -1   40.66    3.20
  -3   6   1   37.82    4.03
   3  -6  -1   36.69    3.05
  -3   6   1   41.02    4.51
   3  -6   0   11.45    1.70
  -3   6   0    9.60    1.99
   3  -6   0   14.15    1.97
  -3   6   0   12.74    2.62
   3  -6   0   14.78    2.03
  -3   6   0   10.77    2.74
   3  -6   0   14.31    1.93
   3  -6   1  111.00    5.00
  -3   6  -1  116.86    5.88
  -3   6  -1  122.15    6.46
   3  -6   1  120.77    5.26
  -3   6  -1  122.07    6.29
   3  -6   1  120.11    4.65
  -3   6  -2  710.22   15.69
  -3   6  -2  698.46   14.54
   3  -6   2  703.44   15.19
  -3   6  -2  731.26   16.99
   3  -6   2  716.10   13.74
  -3   6  -2  747.09   16.64
  -3   6  -3   46.96    3.24
   3  -6   3   46.85    2.50
  -3   6  -3   45.46    2.64
  -3   6  -3   47.62    2.58
  -3   6  -4   49.08    3.08
  -3   6  -4   48.78    3.23
  -3   6  -4   50.49    3.29
  -3   6  -5   79.20    3.67
  -3   6  -5   71.37    3.40
  -3   6  -5   80.71    3.71
   3  -5  -8   37.69    2.48
   3  -5  -8   34.31    2.09
   3  -5  -8   34.26    2.16
   3  -5  -8   32.95    2.10
   3  -5  -8   39.22    2.27
   3  -5  -7    6.89    1.34
   3  -5  -7   11.70    1.46
   3  -5  -7    6.94    1.29
   3  -5  -7    8.65    1.38
   3  -5  -6  332.74    9.74
   3  -5  -6  344.09    9.88
   3  -5  -6  341.44    9.28
   3  -5  -6  323.41    8.37
   3  -5  -6  347.02    9.92
   3  -5  -6  322.85    8.87
   3  -5  -5   49.85    2.79
   3  -5  -5   44.78    3.21
   3  -5  -5   48.70    3.44
  -3   5   5   47.38    3.30
   3  -5  -5   44.66    2.85
   3  -5  -5   48.77    3.25
   3  -5  -5   51.25    3.13
   3  -5  -5   48.82    2.53
   3  -5  -5   49.94    3.48
  -3   5   5   44.99    2.72
  -3   5   5   46.05    4.50
   3  -5  -4   99.50    4.75
   3  -5  -4   90.64    4.08
  -3   5   4  107.22    5.15
   3  -5  -4   95.94    4.52
  -3   5   4   89.67    4.82
   3  -5  -4  101.89    5.00
   3  -5  -4   99.63    4.22
  -3   5   4   99.29    5.16
   3  -5  -4   95.57    4.08
   3  -5  -4  103.49    5.04
   3  -5  -4   95.52    3.82
  -3   5   4   96.02    7.04
   3  -5  -3  482.63   11.87
   3  -5  -3  475.46   12.47
  -3   5   3  512.57   13.10
  -3   5   3  480.66   14.27
  -3   5   3  487.91   13.45
   3  -5  -3  505.30   12.76
  -3   5   3  441.72   15.88
   3  -5  -3  476.07   11.10
   3  -5  -3  489.48   12.05
  -3   5   3  507.07   14.99
  -3   5   2  275.49   11.41
  -3   5   2  267.87    8.74
   3  -5  -2  251.92    7.03
  -3   5   2  264.02    9.47
  -3   5   2  236.85   10.38
   3  -5  -2  257.80    8.28
   3  -5  -2  244.08    7.60
  -3   5   2  251.11   10.89
   3  -5  -2  268.17    8.39
  -3   5   1   45.96    4.24
   3  -5  -1   47.53    3.27
   3  -5  -1   42.49    2.80
  -3   5   1   44.16    3.95
   3  -5  -1   44.07    3.18
  -3   5   1   44.72    5.00
  -3   5   1   42.38    3.25
  -3   5   1   41.63    5.05
  -3   5   0  516.01   13.34
  -3   5   0  518.24   16.52
  -3   5   0  501.16   13.06
  -3   5   0  528.72   16.91
   3  -5   0  513.26   12.85
  -3   5   0  519.28   14.64
   3  -5   0  511.64   12.87
  -3   5  -1   14.86    2.53
  -3   5  -1   13.16    1.52
  -3   5  -1   17.31    3.52
   3  -5   1   13.69    1.85
   3  -5   1   11.56    1.76
  -3   5  -1   14.95    3.21
  -3   5  -1   13.84    1.82
  -3   5  -2 1398.65   28.39
   3  -5   2 1363.97   26.51
  -3   5  -2 1324.38   26.18
   3  -5   2 1342.61   24.47
  -3   5  -2 1416.58   28.85
  -3   5  -2 1396.72   28.41
   3  -5   3  409.31    9.73
  -3   5  -3  418.25   11.17
   3  -5   3  409.08   10.05
   3  -5   3  405.34    9.91
  -3   5  -3  440.11   11.17
   3  -5   3  419.73   11.32
  -3   5  -3  442.30   11.40
  -3   5  -3  383.51   11.75
  -3   5  -3  430.40   10.70
  -3   5  -4    7.52    1.28
   3  -5   4    7.20    1.48
  -3   5  -4    8.30    1.60
   3  -5   4    7.60    1.35
  -3   5  -5   44.54    2.74
  -3   5  -5   49.74    3.39
  -3   5  -5   49.62    3.33
  -3   5  -5   45.06    3.21
  -3   5  -6  455.27   11.51
  -3   5  -6  473.34   11.32
  -3   5  -6  481.10   11.41
  -3   5  -7  245.10    6.18
  -3   5  -7  248.69    6.33
  -3   5  -7  259.69    7.01
  -3   5  -7  249.03    6.35
   3  -4  -9  565.64   10.90
  -3   4   9  535.03   10.25
   3  -4  -9  556.21   11.02
   3  -4  -9  548.30   10.83
   3  -4  -8  312.37    7.16
   3  -4  -8  309.72    8.40
   3  -4  -8  315.52    8.47
   3  -4  -8  305.33    8.18
   3  -4  -7   38.45    2.93
   3  -4  -7   37.51    2.46
   3  -4  -7   35.93    2.84
   3  -4  -7   38.59    3.04
   3  -4  -7   35.23    2.63
  -3   4   6   39.22    2.97
   3  -4  -6   40.08    3.10
   3  -4  -6   37.08    2.66
   3  -4  -6   37.64    2.24
   3  -4  -6   40.18    2.64
   3  -4  -6   37.88    3.04
   3  -4  -6   39.93    3.18
   3  -4  -6   37.46    2.74
   3  -4  -6   37.00    2.66
   3  -4  -6   37.35    2.69
  -3   4   6   33.70    3.42
   3  -4  -5  280.96    9.32
   3  -4  -5  346.83   10.11
   3  -4  -5  342.19    8.98
   3  -4  -5  340.30    8.68
   3  -4  -5  362.37    9.27
  -3   4   5  299.23   12.11
  -3   4   5  341.42    9.96
   3  -4  -5  343.65   10.06
   3  -4  -5  329.00    9.24
   3  -4  -5  322.73    9.35
   3  -4  -5  314.90    8.91
  -3   4   4  329.67    9.54
  -3   4   4  350.81    9.43
   3  -4  -4  336.00    9.71
  -3   4   4  341.18    9.92
   3  -4  -4  337.22    9.23
   3  -4  -4  340.13    8.80
  -3   4   4  336.14    9.75
   3  -4  -4  331.29    9.50
   3  -4  -4  330.71    8.60
   3  -4  -4  334.99    9.54
   3  -4  -4  325.60    8.88
   3  -4  -4  334.50    9.69
   3  -4  -3  269.56    7.79
  -3   4   3  272.70    8.57
  -3   4   3  279.51    9.92
   3  -4  -3  270.35    8.21
   3  -4  -3  274.61    7.40
   3  -4  -3  262.03    7.84
  -3   4   3  279.36    8.79
   3  -4  -3  272.31    8.25
   3  -4  -3  277.86    7.59
   3  -4  -3  271.25    7.25
   3  -4  -3  282.48    8.38
  -3   4   3  263.62    9.85
   3  -4  -2   47.33    2.99
  -3   4   2   47.22    3.68
   3  -4  -2   47.78    2.52
  -3   4   2   51.33    3.34
  -3   4   2   51.99    5.07
  -3   4   2   51.82    4.85
   3  -4  -2   45.88    2.72
   3  -4  -2   55.19    3.22
   3  -4  -2   49.01    2.45
   3  -4  -2   48.32    3.03
   3  -4  -2   44.46    2.45
   3  -4  -1   11.64    1.36
   3  -4  -1   13.40    1.22
  -3   4   1   13.66    1.81
  -3   4   1   12.97    2.52
   3  -4  -1   12.15    1.25
   3  -4  -1   11.33    1.14
   3  -4  -1   12.08    1.57
  -3   4   1    9.36    3.40
   3  -4  -1   12.86    1.55
  -3   4   1   14.27    3.61
   3  -4  -1   15.43    1.72
  -3   4   0 1979.98   36.96
   3  -4   0 1915.47   32.53
   3  -4   0 1849.49   33.78
  -3   4   0 1933.31   34.81
   3  -4   0 1906.04   31.84
  -3   4   0 1968.50   40.35
  -3   4   0 1899.06   36.77
   3  -4   0 1882.81   33.81
  -3   4   0 1935.32   40.37
   3  -4   0 1869.87   32.86
  -3   4  -1  107.43    4.75
   3  -4   1  105.50    4.54
   3  -4   1  132.63    5.21
  -3   4  -1  111.02    4.98
   3  -4   1  108.07    4.18
  -3   4  -1  110.10    4.81
   3  -4   1  114.89    4.71
  -3   4  -1  117.07    7.17
  -3   4  -1  113.82    7.13
  -3   4  -1  117.25    6.02
   3  -4   2   83.99    4.08
  -3   4  -2   83.10    5.05
  -3   4  -2   83.29    5.45
  -3   4  -2   80.28    3.22
  -3   4  -2   81.73    5.54
   3  -4   2   96.00    4.61
  -3   4  -2  100.27    4.85
   3  -4   2   83.83    4.10
   3  -4   2   86.69    3.92
   3  -4   3  287.34    8.45
  -3   4  -3  302.05    9.99
   3  -4   3  296.39    9.10
  -3   4  -3  294.79    9.08
  -3   4  -3  302.77    9.49
  -3   4  -3  315.54    9.74
  -3   4  -4   74.22    4.55
   3  -4   4   68.59    4.05
  -3   4  -4   71.69    4.07
   3  -4   4   67.42    2.90
   3  -4   4   74.00    3.95
  -3   4  -4   68.19    3.79
  -3   4  -4   66.32    3.36
   3  -4   5   51.24    3.44
  -3   4  -5   52.17    3.26
  -3   4  -5   51.66    3.71
  -3   4  -5   51.70    3.34
   3  -4   5   50.37    3.26
  -3   4  -6  309.22    9.76
  -3   4  -6  323.98    9.35
  -3   4  -6  318.54    9.32
  -3   4  -6  305.00    8.95
  -3   4  -7  185.52    6.75
  -3   4  -7  183.35    6.10
  -3   4  -7  187.59    6.18
  -3   4  -8   40.92    2.23
  -3   4  -8   40.78    2.09
  -3   4  -8   42.58    2.63
  -3   4  -8   40.39    2.11
  -3   4  -8   39.49    2.08
   3  -3  -9  272.57    6.91
   3  -3  -9  280.83    7.36
   3  -3  -9  263.69    6.84
  -3   3   9  274.36    6.86
   3  -3  -9  268.43    6.90
   3  -3  -8  443.65   11.17
   3  -3  -8  438.76   11.13
   3  -3  -8  449.30   11.43
   3  -3  -7   10.10    1.35
  -3   3   7   12.60    1.76
   3  -3  -7   12.72    1.44
  -3   3   7   14.28    1.72
   3  -3  -7   12.15    1.70
   3  -3  -7   14.18    1.95
   3  -3  -7   11.72    1.76
   3  -3  -7   14.13    1.95
   3  -3  -7   12.60    1.58
   3  -3  -6   13.38    1.64
  -3   3   6   14.93    1.81
   3  -3  -6   12.13    1.55
   3  -3  -6   13.26    1.91
  -3   3   6   15.51    1.91
   3  -3  -6   13.93    1.98
   3  -3  -6   16.35    1.93
   3  -3  -6   15.02    2.01
  -3   3   6   16.12    2.36
   3  -3  -6   15.81    1.85
   3  -3  -6   17.52    1.96
   3  -3  -5  233.95    7.75
  -3   3   5  218.05    7.01
  -3   3   5  227.92    7.60
   3  -3  -5  218.12    6.75
   3  -3  -5  211.08    5.97
   3  -3  -5  227.24    7.29
   3  -3  -5  224.87    7.38
   3  -3  -5  227.79    7.67
   3  -3  -5  219.71    7.47
   3  -3  -5  220.63    7.20
  -3   3   5  228.00    9.85
   3  -3  -5  217.51    7.26
  -3   3   4  760.43   15.53
   3  -3  -4  777.91   16.57
  -3   3   4  767.32   15.82
  -3   3   4  762.01   16.67
   3  -3  -4  728.12   15.53
   3  -3  -4  800.51   16.41
   3  -3  -4  749.93   16.21
   3  -3  -4  755.62   16.19
   3  -3  -4  774.70   16.56
   3  -3  -4  767.06   16.48
  -3   3   4  757.09   15.63
   3  -3  -4  740.85   16.28
  -3   3   3  282.11    8.24
  -3   3   3  297.29    9.26
   3  -3  -3  274.15    7.82
   3  -3  -3  279.06    7.65
   3  -3  -3  279.96    7.52
   3  -3  -3  299.25    7.96
  -3   3   3  283.55    8.00
   3  -3  -3  274.24    7.75
   3  -3  -3  286.87    7.95
   3  -3  -3  277.99    7.94
   3  -3  -3  281.14    8.22
  -3   3   3  296.46    9.20
  -3   3   2  276.12   10.05
   3  -3  -2  263.77    7.27
   3  -3  -2  258.05    7.26
  -3   3   2  280.40    7.89
   3  -3  -2  262.16    6.97
   3  -3  -2  284.12    7.36
  -3   3   2  264.90    8.12
   3  -3  -2  260.62    7.29
   3  -3  -2  276.03    7.08
  -3   3   2  273.83   10.01
   3  -3  -2  286.27    7.85
  -3   3   1  180.07    5.95
   3  -3  -1  179.09    5.28
   3  -3  -1  165.51    5.39
  -3   3   1  181.44    6.65
   3  -3  -1  176.33    5.50
   3  -3  -1  184.28    5.65
  -3   3   1  169.01    8.29
  -3   3   1  178.91    8.60
  -3   3   0 2237.49   41.68
  -3   3   0 2305.93   40.23
   3  -3   0 2277.28   37.40
  -3   3   0 2387.51   43.88
   3  -3   0 2271.18   37.02
   3  -3   0 2244.40   37.33
  -3   3   0 2340.93   44.02
   3  -3   1 1686.86   29.83
  -3   3  -1 1760.33   32.63
   3  -3   1 1629.60   29.59
   3  -3   1 1842.23   29.36
  -3   3  -1 1715.63   30.76
  -3   3  -1 1691.44   31.50
  -3   3  -1 1740.73   35.52
   3  -3   1 1711.96   30.44
  -3   3  -1 1664.71   30.68
   3  -3   1 1693.59   29.85
   3  -3   1 1695.44   28.71
  -3   3  -1 1739.74   34.99
   3  -3   2   17.53    1.68
   3  -3   2   16.33    1.39
   3  -3   2   15.52    1.71
  -3   3  -2   16.16    1.92
  -3   3  -2   16.10    1.51
   3  -3   2   16.58    1.59
   3  -3   2   14.61    1.51
  -3   3  -2   16.15    2.84
  -3   3  -2   15.35    2.30
  -3   3  -2   11.37    2.40
  -3   3  -3  520.46   13.59
  -3   3  -3  532.78   13.26
  -3   3  -3  532.56   13.73
   3  -3   3  530.15   12.64
  -3   3  -3  515.95   12.88
   3  -3   3  549.73   11.15
   3  -3   3  530.69   12.38
  -3   3  -4  515.97   13.61
   3  -3   4  520.30   12.71
  -3   3  -4  534.28   12.42
  -3   3  -4  527.95   11.79
   3  -3   4  539.51   13.11
  -3   3  -4  538.04   13.05
  -3   3  -4  507.70   11.28
   3  -3   4  511.88   11.01
  -3   3  -4  524.44   12.00
   3  -3   5 1591.24   30.32
   3  -3   5 1605.93   30.60
  -3   3  -5 1657.36   30.23
  -3   3  -5 1560.77   30.67
  -3   3  -5 1577.69   28.96
  -3   3  -5 1614.94   30.22
   3  -3   6  493.04   12.63
   3  -3   6  494.13   12.76
  -3   3  -6  501.63   13.45
  -3   3  -6  508.88   12.43
  -3   3  -6  503.01   12.45
  -3   3  -6  489.70   11.86
  -3   3  -6  492.02   12.76
  -3   3  -7  233.78    7.74
   3  -3   7  217.27    7.40
  -3   3  -7  217.40    7.96
   3  -3   7  216.82    7.30
  -3   3  -7  227.80    7.30
  -3   3  -7  213.23    6.76
  -3   3  -7  234.26    7.39
  -3   3  -7  222.04    7.02
  -3   3  -8   31.59    2.22
  -3   3  -8   27.67    2.56
  -3   3  -8   27.27    2.15
  -3   3  -8   29.45    2.16
  -3   3  -9  453.68    9.67
  -3   3  -9  447.81   10.50
  -3   3  -9  442.82    8.99
   3  -2  -9   16.85    1.58
   3  -2  -9   15.37    1.51
   3  -2  -9   19.63    1.76
   3  -2  -8  272.35    8.41
   3  -2  -8  278.97    6.77
   3  -2  -8  281.32    8.51
   3  -2  -8  282.13    8.53
   3  -2  -7   56.01    3.76
  -3   2   7   63.58    3.58
   3  -2  -7   63.86    3.62
   3  -2  -7   61.89    3.53
   3  -2  -7   59.76    3.86
  -3   2   7   57.50    3.55
   3  -2  -7   64.67    3.91
   3  -2  -7   56.24    3.38
   3  -2  -7   54.02    2.64
  -3   2   6  509.79   12.86
   3  -2  -6  541.04   13.08
   3  -2  -6  478.62   12.92
   3  -2  -6  525.65   11.33
   3  -2  -6  492.23   12.49
  -3   2   6  516.66   12.69
   3  -2  -6  469.88   12.86
   3  -2  -6  552.67   13.52
   3  -2  -6  499.93   11.76
   3  -2  -6  523.12   12.80
   3  -2  -5  735.47   16.44
  -3   2   5  745.15   16.40
   3  -2  -5  734.18   14.80
   3  -2  -5  753.24   16.55
   3  -2  -5  741.08   16.11
   3  -2  -5  727.51   16.40
  -3   2   5  739.05   16.31
   3  -2  -5  766.63   16.44
  -3   2   5  746.54   18.12
   3  -2  -5  732.10   15.86
   3  -2  -5  760.07   16.56
  -3   2   4  678.33   14.81
  -3   2   4  699.46   13.08
   3  -2  -4  667.44   14.70
   3  -2  -4  704.74   15.22
  -3   2   4  682.49   14.90
   3  -2  -4  676.07   14.54
   3  -2  -4  675.82   13.41
   3  -2  -4  689.98   14.82
   3  -2  -4  674.00   14.49
   3  -2  -4  688.03   15.31
   3  -2  -4  670.43   14.86
  -3   2   4  744.41   19.41
   3  -2  -3  311.31    8.07
   3  -2  -3  319.52    8.66
   3  -2  -3  317.89    8.50
  -3   2   3  326.48    8.38
  -3   2   3  324.27    8.38
   3  -2  -3  320.77    8.15
   3  -2  -3  306.68    7.76
  -3   2   3  313.57    7.49
   3  -2  -3  313.28    7.92
  -3   2   3  305.74    8.05
  -3   2   3  319.01    8.33
  -3   2   2 1023.08   20.58
  -3   2   2  976.21   18.28
  -3   2   2  971.09   18.67
  -3   2   2 1007.17   18.54
   3  -2  -2  956.74   19.09
   3  -2  -2 1004.88   18.85
   3  -2  -2  947.22   18.06
  -3   2   2 1010.14   20.72
  -3   2   1   24.08    2.08
  -3   2   1   24.69    1.81
   3  -2  -1   25.63    1.85
   3  -2  -1   25.60    1.97
  -3   2   1   24.56    3.05
  -3   2   1   27.32    3.00
  -3   2   0  521.32   14.49
   3  -2   0  508.50   10.61
  -3   2   0  502.48   13.75
  -3   2   0  492.71   11.74
  -3   2   0  520.35   10.98
   3  -2   0  522.99   10.65
  -3   2   0  498.53   13.64
   3  -2   1 2149.37   32.41
  -3   2  -1 2081.60   35.14
  -3   2  -1 1943.58   34.77
  -3   2  -1 1926.48   33.33
   3  -2   1 1892.76   32.80
   3  -2   1 1936.52   33.17
  -3   2  -1 2114.75   38.09
  -3   2  -1 2178.05   37.43
  -3   2  -2   46.57    3.09
   3  -2   2   38.67    2.28
  -3   2  -2   40.27    3.22
   3  -2   2   41.35    2.38
  -3   2  -2   38.71    2.25
   3  -2   2   40.47    2.17
  -3   2  -2   42.75    2.68
   3  -2   2   42.92    1.64
  -3   2  -2   42.11    3.60
   3  -2   3    3.39    0.95
   3  -2   3    4.44    0.94
  -3   2  -3    2.64    1.26
  -3   2  -3    6.40    1.31
  -3   2  -3    2.89    0.61
  -3   2  -3    3.45    1.41
  -3   2  -4  334.57    8.09
  -3   2  -4  325.14    9.47
   3  -2   4  342.51    9.07
   3  -2   4  332.08    8.92
  -3   2  -4  343.52    8.55
  -3   2  -4  339.48    9.21
  -3   2  -4  307.14    7.65
  -3   2  -5  354.49    9.66
   3  -2   5  360.49    9.93
   3  -2   5  353.00    8.96
  -3   2  -5  344.04    8.87
  -3   2  -5  351.57    9.43
   3  -2   5  355.43    9.76
   3  -2   6  323.77    9.50
   3  -2   6  304.18    8.37
  -3   2  -6  318.50    8.55
   3  -2   6  315.71    9.47
  -3   2  -6  304.39    9.40
  -3   2  -6  323.50    8.62
  -3   2  -6  295.87    8.56
  -3   2  -6  327.78    9.45
   3  -2   7   11.54    1.52
  -3   2  -7    9.16    1.65
  -3   2  -7    5.87    1.48
  -3   2  -7    5.67    1.25
   3  -2   7   10.76    1.66
   3  -2   7    5.69    1.34
  -3   2  -7    4.45    1.04
  -3   2  -7    5.83    1.19
  -3   2  -7    7.47    1.41
   3  -2   8  110.40    4.99
   3  -2   8  135.63    5.51
  -3   2  -8  135.20    5.98
  -3   2  -8  131.91    4.96
  -3   2  -8  113.69    4.64
  -3   2  -8  124.94    5.79
  -3   2  -8  132.91    5.20
  -3   2  -8  128.04    4.91
  -3   2  -8  121.47    5.26
  -3   2  -9  266.51    7.75
  -3   2  -9  264.87    6.77
  -3   2  -9  264.49    8.29
  -3   2  -9  271.45    7.13
  -3   2  -9  271.77    6.83
  -3   2 -10  340.10    8.43
  -3   2 -10  348.10    7.70
  -3   2 -10  349.62    8.35
   3  -1  -9  197.87    5.10
   3  -1  -9  209.62    6.11
   3  -1  -9  200.95    6.03
   3  -1  -9  204.23    6.09
   3  -1  -8  234.18    7.65
   3  -1  -8  234.86    7.66
   3  -1  -8  231.67    7.56
  -3   1   7  363.40    9.66
   3  -1  -7  371.99   10.74
  -3   1   7  370.37   10.34
   3  -1  -7  371.41    9.91
   3  -1  -7  365.03   10.70
   3  -1  -7  372.94   10.59
   3  -1  -7  361.57    9.66
  -3   1   6  877.56   18.26
  -3   1   6  858.77   18.95
   3  -1  -6  864.85   18.72
   3  -1  -6  907.04   19.20
   3  -1  -6  869.35   18.36
   3  -1  -6  867.17   19.00
   3  -1  -6  851.81   18.66
   3  -1  -6  822.63   16.97
   3  -1  -6  867.24   18.26
  -3   1   5 2118.13   36.40
  -3   1   5 2097.65   36.68
   3  -1  -5 2030.65   36.91
   3  -1  -5 2022.46   37.04
   3  -1  -5 2028.72   36.39
   3  -1  -5 2059.54   35.72
   3  -1  -5 1999.64   36.86
  -3   1   5 2070.14   37.37
   3  -1  -5 2032.85   36.67
   3  -1  -5 2002.97   36.08
   3  -1  -4  199.49    6.59
   3  -1  -4  186.89    6.04
   3  -1  -4  194.93    6.12
   3  -1  -4  187.46    5.91
  -3   1   4  194.73    6.52
   3  -1  -4  192.95    6.00
   3  -1  -4  193.35    6.44
  -3   1   4  198.00    6.18
  -3   1   4  207.53    7.57
   3  -1  -4  193.49    6.59
   3  -1  -3    2.48    1.13
  -3   1   3    5.37    1.11
  -3   1   3    4.52    0.87
   3  -1  -3    4.82    1.07
   3  -1  -3    2.65    0.70
  -3   1   3    3.43    2.01
  -3   1   3    3.09    0.67
  -3   1   3    3.37    0.72
  -3   1   2 1474.59   26.39
  -3   1   2 1556.54   25.17
  -3   1   2 1535.72   26.65
   3  -1  -2 1524.27   26.77
  -3   1   2 1531.71   31.09
   3  -1  -2 1485.67   25.54
   3  -1  -2 1482.42   27.73
  -3   1   2 1484.84   26.33
  -3   1   2 1432.45   25.91
   3  -1  -1 1797.83   31.30
  -3   1   1 1820.85   29.56
  -3   1   1 1761.06   29.80
  -3   1   1 1843.16   31.82
  -3   1   1 1655.06   29.42
  -3   1   1 1814.38   31.31
   3  -1  -1 1672.66   30.11
  -3   1   1 1719.83   34.09
   3  -1  -1 1768.95   29.03
  -3   1   0  275.47    6.81
   3  -1   0  278.22    6.67
  -3   1   0  272.28    6.34
  -3   1   0  280.81    8.60
   3  -1   0  282.07    7.19
  -3   1   0  280.00    8.01
  -3   1   0  280.22    8.53
  -3   1  -1 1381.69   23.89
  -3   1  -1 1284.51   22.84
  -3   1  -1 1498.01   25.72
  -3   1  -1 1336.16   24.45
   3  -1   1 1394.87   23.03
   3  -1   1 1238.73   23.00
   3  -1   1 1281.36   22.72
  -3   1  -1 1428.59   26.50
  -3   1  -2  123.49    4.66
  -3   1  -2  123.23    3.91
   3  -1   2  121.96    3.77
  -3   1  -2  120.40    4.25
  -3   1  -2  125.65    5.12
   3  -1   2  119.35    3.05
  -3   1  -2  117.99    4.34
  -3   1  -2  125.28    3.85
  -3   1  -3  366.75    9.11
  -3   1  -3  356.52    8.60
  -3   1  -3  374.22    7.63
  -3   1  -3  375.29    9.19
   3  -1   3  372.43    8.41
  -3   1  -3  369.00    9.15
   3  -1   3  367.78    8.50
  -3   1  -4  349.63    8.09
   3  -1   4  358.30    8.77
   3  -1   4  344.53    8.57
  -3   1  -4  363.23    9.10
  -3   1  -4  347.32    7.67
  -3   1  -5  323.51    6.91
   3  -1   5  330.77    8.41
  -3   1  -5  315.61    8.20
   3  -1   5  323.65    8.70
  -3   1  -5  344.23    8.75
  -3   1  -5  305.36    7.91
   3  -1   5  317.52    8.64
   3  -1   6   87.13    4.29
   3  -1   6   86.28    4.09
   3  -1   6   83.09    4.24
  -3   1  -6   85.90    4.11
  -3   1  -6   88.12    4.15
  -3   1  -6   90.68    3.63
  -3   1  -6   91.94    3.67
  -3   1  -6   83.84    3.90
   3  -1   7  580.00   14.23
  -3   1  -7  601.56   14.42
  -3   1  -7  597.64   12.94
  -3   1  -7  588.31   13.68
   3  -1   7  565.49   13.56
  -3   1  -7  587.31   12.92
  -3   1  -7  576.78   13.87
  -3   1  -7  589.45   14.18
   3  -1   7  603.96   14.13
  -3   1  -8    5.12    1.38
   3  -1   8    4.28    1.14
  -3   1  -8    8.09    1.58
   3  -1   8    6.20    1.33
  -3   1  -8    7.58    1.57
  -3   1  -8    4.67    1.12
  -3   1  -8    8.71    1.50
  -3   1  -8    9.96    1.38
  -3   1  -8    8.38    1.26
  -3   1  -8    6.63    1.42
   3  -1   8    7.61    1.43
  -3   1  -9  161.51    6.23
  -3   1  -9  159.51    5.14
  -3   1  -9  168.32    6.62
  -3   1  -9  159.59    5.56
  -3   1  -9  160.93    5.17
  -3   1  -9  170.31    6.42
  -3   1 -10  570.67   12.54
  -3   1 -10  574.25   13.23
  -3   1 -10  562.62   11.28
  -3   1 -10  565.02   13.00
   3   0  -9   41.55    2.42
  -3   0   9   44.67    2.54
   3   0  -9   43.84    2.48
   3   0  -9   41.68    2.42
   3   0  -8   16.09    1.86
   3   0  -8   19.04    2.06
   3   0  -8   17.68    1.99
  -3   0   7   36.69    2.50
  -3   0   7   37.84    2.92
   3   0  -7   37.44    2.41
   3   0  -7   37.22    3.03
  -3   0   7   42.10    2.65
   3   0  -7   32.72    2.50
   3   0  -7   40.29    3.18
   3   0  -7   36.36    2.94
   3   0  -7   32.53    2.29
  -3   0   6   13.74    1.93
   3   0  -6   11.82    1.80
   3   0  -6   15.71    1.93
   3   0  -6   15.96    1.86
   3   0  -6   11.40    1.80
   3   0  -6   13.61    1.90
   3   0  -6   17.04    1.55
   3   0  -6   17.94    1.86
   3   0  -6   14.03    1.60
  -3   0   5 1197.89   22.90
   3   0  -5 1194.93   22.68
   3   0  -5 1180.07   23.47
   3   0  -5 1206.23   23.72
   3   0  -5 1206.15   23.08
   3   0  -5 1185.50   21.80
   3   0  -5 1203.36   23.59
   3   0  -5 1176.60   23.27
  -3   0   5 1222.65   24.23
   3   0  -5 1244.38   23.45
   3   0  -4  233.73    6.84
  -3   0   4  236.36    7.40
  -3   0   4  237.83    6.65
  -3   0   4  241.07    6.52
   3   0  -4  234.90    7.16
   3   0  -4  227.23    6.79
   3   0  -4  240.60    6.84
   3   0  -4  235.89    7.43
   3   0  -4  227.81    6.57
  -3   0   3   58.90    3.11
  -3   0   3   66.36    3.49
  -3   0   3   61.30    2.08
  -3   0   3   58.85    2.68
   3   0  -3   59.51    3.05
   3   0  -3   57.61    2.60
   3   0  -3   62.82    3.85
  -3   0   2  725.97   13.01
   3   0  -2  765.10   14.74
   3   0  -2  728.69   13.48
  -3   0   2  744.48   14.65
  -3   0   2  765.46   13.59
  -3   0   2  749.49   13.78
   3   0  -2  709.27   16.55
  -3   0   2  724.30   13.10
  -3   0   1 4096.55   66.53
  -3   0   1 4033.24   63.77
  -3   0   1 4035.75   62.33
  -3   0   1 4024.62   63.32
  -3   0   1 4097.78   64.34
   3   0  -1 3881.31   64.34
   3   0  -1 4110.45   62.94
   3   0  -1 4044.21   67.41
  -3   0   0 1321.58   23.90
  -3   0   0 1328.71   24.51
   3   0   0 1320.77   23.31
  -3   0   0 1418.22   22.21
   3   0   0 1349.65   21.82
  -3   0   0 1340.87   22.30
   3   0   0 1313.79   25.59
  -3   0  -1   36.54    1.67
  -3   0  -1   36.18    1.51
   3   0   1   35.44    1.84
  -3   0  -1   34.75    2.23
  -3   0  -1   31.78    1.97
   3   0   1   34.13    1.45
   3   0   2   44.53    2.23
   3   0   2   41.37    1.72
  -3   0  -2   44.17    2.01
  -3   0  -2   46.48    2.46
  -3   0  -2   49.11    2.25
  -3   0  -2   47.61    2.17
  -3   0  -3  689.70   12.98
  -3   0  -3  678.27   12.43
   3   0   3  677.79   12.46
   3   0   3  652.61   11.11
  -3   0  -3  676.62   12.23
  -3   0  -4 1243.99   20.98
   3   0   4 1268.81   22.35
  -3   0  -4 1260.09   21.46
  -3   0  -4 1279.56   20.97
   3   0   4 1196.48   22.04
  -3   0  -5  709.06   12.50
   3   0   5  686.74   14.26
   3   0   5  702.92   14.29
   3   0   6  364.84    9.37
   3   0   6  378.23    9.67
   3   0   6  361.84    9.50
  -3   0  -6  394.96    9.35
  -3   0  -6  366.08    9.13
  -3   0  -6  350.25    8.96
  -3   0  -6  378.13    9.30
   3   0   7  733.20   16.13
  -3   0  -7  712.51   15.97
  -3   0  -7  720.22   15.74
  -3   0  -7  713.00   15.78
  -3   0  -7  738.55   14.07
  -3   0  -7  725.58   15.67
   3   0   7  742.80   15.88
  -3   0  -7  735.08   14.07
   3   0   7  696.20   16.01
  -3   0  -8  224.43    7.32
   3   0   8  236.24    7.86
  -3   0  -8  224.72    7.82
  -3   0  -8  238.28    6.46
  -3   0  -8  231.16    7.92
   3   0   8  214.27    7.52
   3   0   8  225.65    7.38
  -3   0  -8  232.64    7.34
  -3   0  -8  229.29    6.39
  -3   0  -8  217.39    7.61
  -3   0  -8  222.45    7.83
   3   0   9   53.61    3.42
  -3   0  -9   57.29    3.30
  -3   0  -9   55.32    3.60
   3   0   9   54.03    3.49
  -3   0  -9   61.95    3.95
  -3   0  -9   54.19    3.28
  -3   0  -9   54.96    3.62
   3   0   9   60.71    3.40
  -3   0 -10   59.92    2.90
  -3   0 -10   59.37    2.91
  -3   0 -10   58.26    3.43
  -3   0 -10   61.59    3.71
  -3   0 -10   55.98    3.55
  -3   0 -11   45.14    2.43
  -3   0 -11   40.38    2.50
  -3   0 -11   43.15    2.59
   3   1  -9   50.00    2.52
  -3  -1   9   49.09    2.34
   3   1  -9   49.87    2.52
   3   1  -9   46.69    2.37
   3   1  -8   16.05    1.85
   3   1  -8   17.93    1.95
   3   1  -8   15.22    1.78
   3   1  -7  800.03   17.99
  -3  -1   7  835.62   17.64
   3   1  -7  821.11   15.56
   3   1  -7  819.72   18.14
   3   1  -7  788.75   17.68
  -3  -1   6   73.48    4.24
  -3  -1   6   62.42    3.40
   3   1  -6   63.84    3.93
  -3  -1   6   65.74    3.57
   3   1  -6   73.70    3.83
   3   1  -6   67.97    4.07
   3   1  -6   61.42    3.82
   3   1  -6   68.37    3.16
   3   1  -6   65.15    3.23
   3   1  -5  400.08   10.89
  -3  -1   5  443.18   11.65
   3   1  -5  414.21   10.12
   3   1  -5  413.08   10.75
   3   1  -5  413.01   10.98
   3   1  -5  422.00   10.56
   3   1  -5  413.88   10.83
  -3  -1   4 1370.65   26.40
   3   1  -4 1379.52   26.70
   3   1  -4 1365.14   25.56
   3   1  -4 1388.19   25.48
   3   1  -4 1389.34   25.09
   3   1  -4 1367.30   25.44
   3   1  -4 1392.21   25.40
   3   1  -3   56.88    4.08
  -3  -1   3   55.33    3.08
   3   1  -3   55.24    2.15
   3   1  -3   59.17    2.96
   3   1  -3   54.45    2.52
  -3  -1   3   57.98    2.35
   3   1  -2  552.47   14.79
   3   1  -2  606.76   12.21
   3   1  -2  587.80   11.18
  -3  -1   2  588.35   11.72
  -3  -1   2  619.43   10.80
  -3  -1   2  581.60   12.35
  -3  -1   1 1284.63   23.17
  -3  -1   1 1364.61   22.41
  -3  -1   1 1265.89   23.10
   3   1  -1 1328.24   23.19
  -3  -1   1 1321.90   21.86
   3   1  -1 1391.70   21.87
   3   1  -1 1337.69   26.35
  -3  -1   0  795.17   12.97
  -3  -1   0  766.02   14.15
  -3  -1   0  777.07   14.43
   3   1   0  761.38   14.28
   3   1   0  778.40   12.73
   3   1   0  771.58   16.32
   3   1   1  219.03    6.18
  -3  -1  -1  233.87    4.28
  -3  -1  -1  221.30    5.35
   3   1   1  235.04    5.41
  -3  -1  -1  233.66    5.46
   3   1   2   17.87    0.83
  -3  -1  -2   17.55    1.26
  -3  -1  -2   17.36    1.17
   3   1   2   17.82    1.45
  -3  -1  -3 1059.18   18.79
   3   1   3 1124.86   18.38
   3   1   3 1102.88   18.80
   3   1   4 1638.37   26.00
  -3  -1  -4 1578.33   25.33
   3   1   4 1531.41   25.76
   3   1   4 1477.80   24.33
   3   1   5 1736.41   30.05
  -3  -1  -5 1732.05   29.62
  -3  -1  -5 1720.56   28.45
  -3  -1  -6   88.18    3.52
   3   1   6   88.64    3.79
  -3  -1  -6   89.73    3.61
  -3  -1  -6   90.46    3.58
   3   1   6   88.22    3.91
   3   1   6   84.13    3.49
   3   1   7   62.19    3.14
   3   1   7   54.71    3.28
  -3  -1  -7   60.21    3.13
  -3  -1  -7   56.64    3.11
  -3  -1  -7   51.41    3.01
   3   1   7   54.41    3.34
  -3  -1  -7   61.27    3.14
  -3  -1  -7   56.07    3.06
  -3  -1  -7   58.98    3.20
   3   1   8 1691.82   32.24
   3   1   8 1699.88   32.03
  -3  -1  -8 1735.01   32.09
  -3  -1  -8 1767.24   31.86
   3   1   8 1659.18   30.90
  -3  -1  -8 1722.95   31.57
  -3  -1  -8 1705.07   31.15
  -3  -1  -8 1749.94   31.82
  -3  -1  -8 1745.95   32.07
  -3  -1  -9  205.16    7.46
   3   1   9  217.98    7.40
  -3  -1  -9  205.13    7.46
   3   1   9  201.09    6.44
  -3  -1  -9  202.34    6.95
  -3  -1  -9  207.68    6.77
  -3  -1  -9  222.11    7.52
   3   1   9  194.69    7.20
  -3  -1 -10  104.86    4.93
  -3  -1 -10   97.13    4.84
  -3  -1 -10   98.33    4.07
  -3  -1 -10  103.56    5.07
  -3  -1 -11   14.93    1.45
  -3  -1 -11   15.61    1.78
  -3  -1 -11   14.56    1.13
  -3  -1 -11   15.76    1.69
   3   2  -8   17.27    1.80
  -3  -2   8   16.06    1.56
   3   2  -8   17.45    1.80
   3   2  -8   18.91    1.82
   3   2  -7 1056.22   21.84
   3   2  -7 1086.88   22.01
  -3  -2   6  206.99    7.28
  -3  -2   6  216.95    6.48
   3   2  -6  208.21    7.58
   3   2  -6  210.13    6.88
   3   2  -6  219.25    7.77
   3   2  -6  210.80    7.51
  -3  -2   5   66.45    3.92
   3   2  -5   64.75    3.80
   3   2  -5   65.10    3.37
  -3  -2   5   66.87    3.51
   3   2  -5   64.93    3.48
   3   2  -5   67.25    3.86
   3   2  -5   64.47    3.76
   3   2  -5   70.19    3.12
  -3  -2   4   36.07    2.20
  -3  -2   4   35.29    2.74
   3   2  -4   37.35    2.45
  -3  -2   4   35.76    2.37
   3   2  -4   34.61    2.48
   3   2  -4   37.79    1.96
   3   2  -4   36.17    2.29
   3   2  -4   35.76    2.51
   3   2  -4   34.65    2.34
   3   2  -4   44.95    3.49
   3   2  -4   35.47    2.52
   3   2  -4   32.94    2.23
  -3  -2   3  263.67    7.62
   3   2  -3  244.53    6.21
   3   2  -3  274.15    7.11
  -3  -2   3  268.42    6.39
   3   2  -3  269.72    7.03
  -3  -2   3  272.51    6.84
   3   2  -3  270.60    7.07
   3   2  -3  277.44    6.83
   3   2  -3  257.58    9.34
   3   2  -3  270.47    7.07
  -3  -2   2   96.34    3.80
   3   2  -2  105.39    3.40
   3   2  -2  100.25    3.55
  -3  -2   2  103.48    2.72
   3   2  -2  103.13    3.27
   3   2  -2   97.55    5.23
  -3  -2   1  629.13   12.58
  -3  -2   1  631.87   11.49
  -3  -2   1  675.35   11.80
   3   2  -1  663.10   12.37
  -3  -2   1  663.74   11.68
   3   2  -1  658.89   14.32
   3   2  -1  639.77   11.44
  -3  -2   0   10.70    0.92
  -3  -2   0   10.57    0.98
   3   2   0   10.84    1.33
   3   2   0   10.53    0.99
  -3  -2   0   10.53    0.52
   3   2   0   10.51    0.60
  -3  -2   0   11.73    0.94
  -3  -2   0   12.97    0.96
   3   2   1  633.31   10.16
  -3  -2  -1  645.03   11.64
   3   2   1  643.97   11.62
  -3  -2  -1  623.32   11.36
  -3  -2  -2 1170.75   19.98
  -3  -2  -2 1217.18   20.27
   3   2   3 1266.92   20.27
  -3  -2  -3 1230.90   21.20
  -3  -2  -3 1261.46   19.95
  -3  -2  -3 1255.65   21.02
  -3  -2  -4  138.23    3.55
   3   2   4  134.77    3.52
  -3  -2  -4  142.16    3.60
   3   2   4  135.54    3.54
  -3  -2  -4  136.54    3.40
  -3  -2  -5 1770.61   28.32
  -3  -2  -5 1733.64   29.15
   3   2   6  273.21    7.04
  -3  -2  -6  264.29    6.92
  -3  -2  -6  265.40    5.23
   3   2   6  260.34    6.34
   3   2   6  264.91    7.27
   3   2   7   47.19    2.44
   3   2   7   47.29    2.87
  -3  -2  -7   54.87    3.00
  -3  -2  -7   51.01    2.57
  -3  -2  -7   49.25    2.62
  -3  -2  -7   48.79    2.88
  -3  -2  -7   49.01    2.75
  -3  -2  -7   48.93    2.67
  -3  -2  -7   48.90    2.72
   3   2   8 1351.78   25.81
  -3  -2  -8 1327.50   25.52
   3   2   8 1326.00   23.83
  -3  -2  -8 1331.49   24.94
  -3  -2  -8 1288.26   25.19
   3   2   8 1306.59   25.90
  -3  -2  -8 1297.84   24.72
  -3  -2  -8 1323.36   24.78
   3   2   9  429.26   11.57
   3   2   9  432.96   11.93
  -3  -2  -9  455.75   11.83
  -3  -2  -9  435.18   11.32
  -3  -2  -9  502.98   11.55
  -3  -2  -9  468.95   11.61
   3   2   9  470.38   10.06
  -3  -2  -9  459.17   12.16
   3   2  10  136.51    5.71
  -3  -2 -10  148.01    5.80
  -3  -2 -10  142.35    5.99
   3   2  10  133.90    5.54
  -3  -2 -10  149.92    6.05
  -3  -2 -10  133.95    5.19
  -3  -2 -10  148.38    5.25
  -3  -2 -10  146.44    5.74
  -3  -2 -10  138.12    6.02
  -3  -2 -11   88.27    3.98
  -3  -2 -11   88.68    4.35
  -3  -2 -11   87.53    4.20
  -3  -2 -11   83.66    3.22
  -3  -2 -12  100.93    3.43
  -3  -2 -12  104.49    3.72
  -3  -2 -12   96.10    3.81
   3   3  -8    2.32    0.77
   3   3  -8    1.74    0.70
   3   3  -8    2.24    0.75
   3   3  -7  395.04   10.53
  -3  -3   7  382.63    9.40
   3   3  -7  394.60   10.56
   3   3  -7  393.47   10.34
   3   3  -6 1009.15   21.50
  -3  -3   6  984.92   19.47
   3   3  -6  980.97   19.56
  -3  -3   6 1061.34   20.93
   3   3  -6 1024.25   21.57
   3   3  -6 1040.18   21.51
  -3  -3   5   18.78    2.02
   3   3  -5   18.58    1.87
   3   3  -5   18.30    2.17
  -3  -3   5   17.49    1.74
   3   3  -5   16.10    2.03
   3   3  -5   18.43    1.90
   3   3  -5   14.63    1.95
   3   3  -4   61.08    3.95
  -3  -3   4   55.55    2.90
  -3  -3   4   64.60    3.61
  -3  -3   4   65.90    3.28
   3   3  -4   60.99    2.91
   3   3  -4   59.68    3.46
   3   3  -4   60.15    3.45
   3   3  -4   60.76    3.04
   3   3  -4   65.08    3.31
   3   3  -4   60.35    3.45
  -3  -3   3  831.40   17.41
  -3  -3   3  858.64   16.47
   3   3  -3  892.87   16.34
  -3  -3   3  857.70   16.60
   3   3  -3  866.92   16.53
   3   3  -3  873.81   17.16
   3   3  -3  854.06   16.62
   3   3  -3  874.13   17.17
   3   3  -3  843.55   17.11
   3   3  -3  867.84   20.32
   3   3  -2 1206.98   22.10
  -3  -3   2 1259.96   22.78
   3   3  -2 1269.33   21.70
  -3  -3   2 1237.37   21.64
   3   3  -2 1232.48   24.79
  -3  -3   2 1243.51   20.52
  -3  -3   1 1760.91   27.82
  -3  -3   1 1638.06   28.98
  -3  -3   1 1801.12   28.18
  -3  -3   1 1732.19   28.01
   3   3  -1 1788.79   29.35
  -3  -3   1 1579.52   28.06
   3   3  -1 1662.87   30.25
   3   3  -1 1752.49   28.49
  -3  -3   0    6.27    0.77
   3   3   0    5.98    0.51
   3   3   0    5.85    0.69
  -3  -3   0    5.35    0.44
  -3  -3   0    6.90    0.78
  -3  -3   0    5.99    0.68
  -3  -3   0    6.73    0.76
  -3  -3  -1  115.14    3.14
   3   3   1  112.99    2.66
  -3  -3  -1  115.57    3.31
  -3  -3  -1  115.63    3.35
   3   3   1  112.82    3.02
  -3  -3  -2 4168.82   65.30
  -3  -3  -2 4174.25   65.61
  -3  -3  -2 4122.78   65.67
  -3  -3  -3 2398.23   36.36
  -3  -3  -3 2209.14   36.56
  -3  -3  -3 2108.63   35.25
   3   3   3 2318.98   35.18
  -3  -3  -3 2295.06   36.53
  -3  -3  -4  518.08    9.67
  -3  -3  -4  495.45    9.35
  -3  -3  -4  510.98    9.68
  -3  -3  -4  490.52    9.14
   3   3   5   14.81    0.94
  -3  -3  -5   12.76    1.00
  -3  -3  -5   14.30    1.03
  -3  -3  -6 2192.08   35.19
   3   3   6 2187.40   35.34
  -3  -3  -6 2176.62   36.92
  -3  -3  -6 2170.30   35.11
   3   3   6 2224.17   37.29
   3   3   7  282.76    7.98
  -3  -3  -7  289.80    7.61
  -3  -3  -7  275.73    6.71
  -3  -3  -7  288.84    7.80
  -3  -3  -7  294.27    7.02
  -3  -3  -7  290.06    7.96
  -3  -3  -7  291.18    7.67
  -3  -3  -7  274.45    6.85
  -3  -3  -7  281.65    7.60
   3   3   7  285.56    6.35
  -3  -3  -8  760.48   15.13
  -3  -3  -8  764.79   14.61
  -3  -3  -8  756.62   16.26
  -3  -3  -8  764.32   16.53
   3   3   8  750.90   16.38
  -3  -3  -8  761.72   15.87
  -3  -3  -8  772.20   16.58
   3   3   8  745.44   16.75
  -3  -3  -8  769.30   15.99
  -3  -3  -8  747.56   15.33
  -3  -3  -9  176.41    5.62
  -3  -3  -9  186.52    6.97
  -3  -3  -9  187.97    7.00
   3   3   9  176.02    6.52
  -3  -3  -9  184.26    6.46
  -3  -3  -9  185.94    6.61
  -3  -3  -9  178.47    6.26
  -3  -3  -9  188.98    6.16
   3   3   9  183.54    6.92
  -3  -3  -9  182.08    6.86
  -3  -3 -10   29.75    1.98
  -3  -3 -10   27.07    2.60
  -3  -3 -10   28.20    2.69
   3   3  10   33.18    2.68
   3   3  10   23.77    2.37
  -3  -3 -10   26.07    2.30
  -3  -3 -10   31.53    2.37
  -3  -3 -10   26.15    2.63
  -3  -3 -11  403.36   10.55
  -3  -3 -11  393.90   10.61
  -3  -3 -11  374.05   10.58
  -3  -3 -11  407.34    9.12
  -3  -3 -12  140.44    4.66
  -3  -3 -12  128.81    4.58
  -3  -3 -12  143.27    4.96
   3   4  -7   89.54    4.11
   3   4  -7   96.47    4.25
   3   4  -7   93.50    4.06
   3   4  -6  260.41    8.42
  -3  -4   6  257.61    6.95
   3   4  -6  261.31    8.43
   3   4  -6  277.21    8.51
  -3  -4   5  186.08    5.78
   3   4  -5  191.14    7.14
   3   4  -5  184.49    5.98
  -3  -4   5  200.30    6.34
   3   4  -5  188.11    6.27
   3   4  -5  189.94    7.13
   3   4  -5  191.66    7.15
  -3  -4   4   39.73    2.55
   3   4  -4   48.75    3.34
   3   4  -4   39.74    2.61
   3   4  -4   44.13    3.14
   3   4  -4   47.90    2.63
   3   4  -4   38.50    2.94
  -3  -4   4   44.37    2.85
   3   4  -4   44.37    2.82
  -3  -4   3 1028.07   20.53
  -3  -4   3  960.24   18.68
  -3  -4   3  983.16   18.63
   3   4  -3 1003.38   19.18
   3   4  -3  974.69   19.42
  -3  -4   3  948.33   18.72
   3   4  -3  947.66   18.79
   3   4  -3  986.38   19.49
  -3  -4   3  946.82   19.01
   3   4  -3  966.94   21.75
  -3  -4   2  554.13   12.75
  -3  -4   2  537.40   11.56
  -3  -4   2  549.25   11.34
  -3  -4   2  568.74   10.15
  -3  -4   2  550.39   11.71
   3   4  -2  545.40   12.09
   3   4  -2  551.21   11.84
  -3  -4   2  535.36   11.15
   3   4  -2  541.94   11.82
  -3  -4   1  774.47   15.70
   3   4  -1  787.16   13.72
  -3  -4   1  749.05   14.43
  -3  -4   1  787.02   14.28
   3   4  -1  827.21   13.77
  -3  -4   1  789.32   14.29
   3   4  -1  820.66   15.70
  -3  -4   0 1566.76   25.20
   3   4   0 1634.43   24.93
  -3  -4   0 1609.91   26.26
   3   4   0 1376.17   26.62
   3   4   0 1519.17   25.89
  -3  -4   0 1415.33   25.97
  -3  -4   0 1577.20   26.00
   3   4   1    5.27    0.79
  -3  -4  -1    4.81    0.80
   3   4   1    4.60    0.47
   3   4   1    5.90    0.91
  -3  -4  -1    5.45    0.75
  -3  -4  -1    6.04    0.84
   3   4   2 4642.74   69.96
  -3  -4  -2 4441.83   70.11
   3   4   2 4493.14   70.56
   3   4   2 4380.66   69.01
  -3  -4  -2 4534.11   70.61
  -3  -4  -3 2721.07   44.34
  -3  -4  -3 2750.37   43.93
   3   4   3 2755.17   42.53
   3   4   4 1010.92   16.17
   3   4   4 1004.54   17.17
  -3  -4  -4 1035.17   17.83
  -3  -4  -4 1041.51   17.54
  -3  -4  -4 1074.39   18.24
  -3  -4  -4  961.90   18.04
   3   4   5   21.61    1.42
  -3  -4  -5   21.66    1.49
  -3  -4  -5   22.56    1.37
  -3  -4  -5   22.78    1.46
  -3  -4  -5   21.02    1.47
   3   4   5   21.33    1.47
  -3  -4  -6 1216.71   22.68
  -3  -4  -6 1247.20   22.53
  -3  -4  -6 1202.80   22.30
  -3  -4  -6 1273.89   21.41
   3   4   6 1259.65   22.28
  -3  -4  -7 1252.71   23.34
  -3  -4  -7 1269.24   22.78
   3   4   7 1257.84   23.35
  -3  -4  -7 1241.92   21.75
  -3  -4  -7 1265.10   23.50
  -3  -4  -7 1257.04   24.09
  -3  -4  -7 1241.59   22.74
  -3  -4  -7 1232.19   23.57
  -3  -4  -7 1277.85   23.39
  -3  -4  -7 1283.68   23.23
   3   4   8  665.04   14.92
  -3  -4  -8  646.28   15.53
  -3  -4  -8  684.05   15.30
  -3  -4  -8  673.66   13.98
  -3  -4  -8  646.30   14.39
  -3  -4  -8  663.59   15.07
  -3  -4  -8  675.49   14.76
  -3  -4  -8  696.43   13.27
  -3  -4  -8  701.05   15.09
   3   4   9  155.46    6.10
  -3  -4  -9  152.44    6.18
  -3  -4  -9  152.43    6.29
  -3  -4  -9  176.39    6.91
  -3  -4  -9  159.05    6.14
  -3  -4  -9  148.49    5.57
  -3  -4  -9  159.84    5.87
  -3  -4  -9  156.58    5.13
  -3  -4 -10    5.67    1.18
   3   4  10    4.31    1.21
   3   4  10    6.16    1.38
  -3  -4 -10    4.17    1.32
  -3  -4 -10    4.47    1.34
  -3  -4 -10    3.53    1.12
   3   4  10    2.44    1.20
  -3  -4 -10    3.82    1.08
  -3  -4 -10    4.87    1.37
  -3  -4 -11  307.70    7.73
  -3  -4 -11  338.79    9.59
  -3  -4 -11  330.03    8.05
  -3  -4 -11  319.64    9.38
  -3  -4 -11  325.51    9.45
  -3  -4 -12  653.41   13.72
  -3  -4 -12  633.12   13.69
  -3  -4 -12  650.38   13.83
   3   5  -7   85.74    3.40
   3   5  -7   86.81    3.43
   3   5  -7   80.12    3.19
   3   5  -6   41.16    2.85
   3   5  -6   50.97    3.15
   3   5  -6   48.42    3.06
  -3  -5   5  166.24    5.21
   3   5  -5  176.66    6.68
   3   5  -5  165.91    6.52
   3   5  -5  182.15    6.85
   3   5  -4  284.01    8.18
  -3  -5   4  294.86    8.08
   3   5  -4  293.80    8.11
   3   5  -4  289.37    9.11
   3   5  -4  301.13    9.24
   3   5  -4  292.01    9.26
  -3  -5   3 1104.57   21.81
   3   5  -3 1184.02   22.52
   3   5  -3 1145.76   22.74
   3   5  -3 1112.69   22.61
  -3  -5   2  189.60    6.66
   3   5  -2  188.61    6.83
  -3  -5   2  175.46    5.81
  -3  -5   2  189.41    5.54
   3   5  -2  185.92    6.39
   3   5  -2  188.15    6.10
   3   5  -2  186.21    6.08
  -3  -5   1    8.47    1.29
   3   5  -1    6.10    0.93
  -3  -5   1    8.19    1.19
  -3  -5   1    5.78    0.87
  -3  -5   1    5.21    0.85
   3   5  -1    5.26    1.17
   3   5  -1    6.25    1.04
   3   5  -1    6.83    1.09
   3   5   0 1160.41   21.34
   3   5   0 1182.47   22.00
  -3  -5   0 1171.40   20.99
  -3  -5   0 1180.69   20.23
   3   5   1   66.13    3.13
  -3  -5  -1   65.54    2.95
   3   5   1   67.60    3.09
  -3  -5  -2  115.24    4.11
   3   5   2  113.19    3.98
   3   5   2  119.79    4.04
   3   5   3   79.64    2.98
   3   5   3   73.60    2.19
   3   5   3   75.28    3.08
  -3  -5  -3   75.65    3.24
   3   5   4  248.56    4.91
   3   5   4  247.28    6.63
   3   5   4  242.30    5.42
   3   5   4  253.58    5.85
  -3  -5  -4  254.72    6.64
   3   5   5   22.49    1.28
   3   5   5   23.52    1.26
  -3  -5  -5   19.99    1.57
   3   5   5   22.17    1.51
  -3  -5  -6  453.27   10.45
   3   5   6  438.00    9.13
  -3  -5  -6  429.01   10.29
  -3  -5  -6  428.77    9.88
  -3  -5  -6  431.88    9.68
  -3  -5  -6  441.74    9.56
  -3  -5  -6  431.17    9.29
  -3  -5  -6  439.41   10.19
  -3  -5  -6  426.86   10.04
  -3  -5  -6  430.66    9.69
   3   5   6  439.65   10.06
  -3  -5  -7  893.69   16.67
   3   5   7  931.31   18.87
  -3  -5  -7  899.68   18.45
  -3  -5  -7  924.80   18.73
  -3  -5  -7  882.68   16.77
  -3  -5  -7  926.53   17.82
  -3  -5  -7  937.17   17.35
  -3  -5  -7  920.41   18.10
  -3  -5  -7  912.49   18.35
  -3  -5  -7  901.35   18.01
  -3  -5  -7  903.91   17.80
   3   5   7  913.78   17.23
  -3  -5  -8  149.64    5.92
   3   5   8  141.28    5.15
  -3  -5  -8  140.09    5.24
  -3  -5  -8  151.89    4.89
  -3  -5  -8  150.42    5.83
  -3  -5  -8  147.20    5.00
  -3  -5  -8  148.58    5.79
  -3  -5  -8  147.24    5.59
   3   5   8  140.92    6.25
  -3  -5  -8  147.40    5.61
  -3  -5  -8  142.88    6.09
  -3  -5  -9  410.30   11.51
   3   5   9  427.94   10.96
   3   5   9  419.20   12.91
  -3  -5  -9  470.94   12.36
  -3  -5  -9  504.29   13.13
  -3  -5  -9  445.04   11.69
  -3  -5  -9  506.99   12.01
  -3  -5  -9  424.31   11.75
  -3  -5 -10    6.33    1.38
  -3  -5 -10    3.41    1.13
   3   5  10    2.93    1.14
  -3  -5 -10    5.63    1.47
   3   5  10    5.17    1.83
  -3  -5 -10    4.52    1.37
   3   5  10    5.54    1.33
  -3  -5 -10    5.05    1.20
  -3  -5 -10    5.53    1.37
  -3  -5 -11   83.17    3.83
  -3  -5 -11   92.21    4.56
  -3  -5 -11   83.89    4.31
  -3  -5 -11   96.90    4.64
  -3  -5 -11   85.63    3.60
  -3  -5 -12  785.10   15.90
  -3  -5 -12  786.65   16.05
   3   6  -6   17.01    1.56
   3   6  -6   17.70    1.59
   3   6  -6   16.84    1.55
   3   6  -5   47.67    3.16
   3   6  -5   43.09    2.92
   3   6  -5   46.11    3.02
  -3  -6   4  367.66    9.29
   3   6  -4  366.04   10.48
   3   6  -4  378.69   10.61
  -3  -6   3  504.32   12.20
   3   6  -3  530.19   12.75
   3   6  -3  509.56   12.92
   3   6  -3  506.69   12.92
  -3  -6   2  777.43   16.67
   3   6  -2  810.50   17.46
   3   6  -2  751.49   16.63
   3   6  -2  768.43   16.73
  -3  -6   1  554.38   12.93
   3   6  -1  579.23   13.75
   3   6  -1  575.27   12.79
  -3  -6   1  568.62   11.64
   3   6  -1  559.42   12.72
  -3  -6   0  775.36   15.39
   3   6   0  784.94   16.03
  -3  -6   0  753.06   14.59
  -3  -6   0  774.23   14.79
   3   6   0  766.41   16.49
   3   6   0  757.01   14.84
   3   6   0  753.96   14.84
  -3  -6   0  757.12   14.75
  -3  -6  -1 1134.22   21.34
  -3  -6  -1 1144.09   20.70
  -3  -6  -1 1107.93   19.93
   3   6   1 1090.86   22.12
  -3  -6  -1 1128.08   20.23
   3   6   1 1107.73   21.57
  -3  -6  -1 1121.22   20.61
  -3  -6  -1 1098.43   20.60
  -3  -6  -2  566.23   12.65
  -3  -6  -2  563.56   12.01
  -3  -6  -2  541.53   11.14
  -3  -6  -2  555.00   11.69
  -3  -6  -2  550.99   11.62
  -3  -6  -2  575.08   11.43
   3   6   2  546.31   12.95
  -3  -6  -2  563.74   11.94
   3   6   2  538.54   12.15
  -3  -6  -3  124.72    4.80
  -3  -6  -3  113.70    4.28
   3   6   3  118.82    3.25
  -3  -6  -3  111.84    4.19
   3   6   3  116.50    4.70
  -3  -6  -3  111.65    3.91
   3   6   3  112.30    4.10
  -3  -6  -3  113.87    4.22
  -3  -6  -3  118.72    4.10
  -3  -6  -3  114.01    3.96
  -3  -6  -3  119.04    4.06
  -3  -6  -4  376.32    9.43
  -3  -6  -4  375.57    8.95
  -3  -6  -4  370.44    8.91
  -3  -6  -4  366.00    8.69
   3   6   4  370.88    7.72
  -3  -6  -4  353.92    8.19
  -3  -6  -4  370.72    8.81
   3   6   4  370.65    8.21
   3   6   4  360.30    9.44
  -3  -6  -4  357.37    8.64
  -3  -6  -4  376.89    8.32
  -3  -6  -4  348.91    8.75
  -3  -6  -4  369.06    8.75
  -3  -6  -5  798.81   15.60
  -3  -6  -5  798.75   16.10
  -3  -6  -5  799.74   15.82
   3   6   5  808.94   16.80
   3   6   5  770.81   14.81
  -3  -6  -5  764.38   15.57
  -3  -6  -5  787.78   16.21
  -3  -6  -5  821.10   15.98
  -3  -6  -5  764.26   15.82
  -3  -6  -5  778.81   14.80
   3   6   5  791.73   14.22
  -3  -6  -5  766.82   15.39
  -3  -6  -5  798.71   15.88
  -3  -6  -5  791.97   15.34
  -3  -6  -6 1140.78   20.43
  -3  -6  -6 1150.54   21.67
  -3  -6  -6 1154.80   21.08
   3   6   6 1166.79   23.09
  -3  -6  -6 1098.95   19.87
  -3  -6  -6 1168.10   22.17
  -3  -6  -6 1192.56   21.98
  -3  -6  -6 1156.12   21.85
  -3  -6  -6 1141.93   21.50
   3   6   6 1155.19   21.50
  -3  -6  -6 1152.61   20.92
  -3  -6  -6 1141.11   21.97
  -3  -6  -6 1158.07   21.74
  -3  -6  -6 1134.95   22.44
  -3  -6  -6 1196.67   21.61
  -3  -6  -7  352.43    8.55
  -3  -6  -7  369.15   10.42
  -3  -6  -7  349.08    9.61
   3   6   7  359.99   10.51
  -3  -6  -7  345.87    9.49
  -3  -6  -7  372.35    8.98
  -3  -6  -7  366.64    9.37
   3   6   7  371.72    9.96
  -3  -6  -7  360.01    9.53
  -3  -6  -7  371.60    8.12
  -3  -6  -7  374.46    8.75
  -3  -6  -7  371.85    9.91
  -3  -6  -7  378.70    9.78
  -3  -6  -7  372.97   10.09
  -3  -6  -7  365.94    8.20
  -3  -6  -8   18.03    2.18
   3   6   8   13.95    2.01
   3   6   8   12.49    1.89
  -3  -6  -8   12.19    1.57
  -3  -6  -8   13.03    1.83
  -3  -6  -8   17.09    1.98
  -3  -6  -8   13.74    2.11
  -3  -6  -8   12.68    1.79
  -3  -6  -8   11.48    1.68
  -3  -6  -8   13.03    1.41
  -3  -6  -9  254.44    8.85
   3   6   9  238.83    8.50
  -3  -6  -9  250.99    8.19
   3   6   9  243.13    9.19
  -3  -6  -9  254.84    7.05
  -3  -6  -9  251.21    8.51
  -3  -6  -9  249.85    8.07
  -3  -6  -9  251.64    8.25
  -3  -6  -9  264.88    8.98
  -3  -6 -10  431.26   12.01
  -3  -6 -10  437.90   11.92
  -3  -6 -10  437.55   11.79
  -3  -6 -10  418.71   10.41
  -3  -6 -10  427.65   10.76
  -3  -6 -10  418.83   11.20
   3   6  10  399.89   11.29
  -3  -6 -11   30.77    2.60
  -3  -6 -11   32.95    2.69
  -3  -6 -11   32.89    2.51
  -3  -6 -11   32.54    2.19
  -3  -6 -11   33.03    2.38
  -3  -6 -12  271.14    6.66
  -3  -6 -12  275.73    7.31
  -3  -6 -12  278.91    7.43
   3   7  -5  224.72    6.34
   3   7  -5  224.28    6.14
   3   7  -5  217.05    6.09
  -3  -7   4  116.57    4.10
   3   7  -4  116.71    4.83
   3   7  -4  119.10    4.88
   3   7  -4  125.51    5.21
  -3  -7   3  213.69    6.87
   3   7  -3  225.47    7.46
   3   7  -3  224.85    7.47
   3   7  -3  228.67    7.98
  -3  -7   2  477.87   12.07
   3   7  -2  486.36   12.50
   3   7  -2  474.94   12.08
   3   7  -2  482.53   12.17
   3   7  -1    4.43    1.24
  -3  -7   1    2.21    1.13
   3   7  -1    6.45    1.56
   3   7  -1    5.29    1.15
   3   7  -1    6.88    1.30
   3   7   0   64.42    3.59
  -3  -7   0   59.96    3.09
  -3  -7   0   57.72    2.80
  -3  -7   0   57.58    3.05
   3   7   0   59.77    3.79
   3   7   0   62.23    3.33
   3   7   0   65.09    3.40
  -3  -7   0   53.49    3.08
  -3  -7  -1 1247.82   22.77
  -3  -7  -1 1277.46   23.79
   3   7   1 1260.73   25.80
  -3  -7  -1 1279.16   23.92
   3   7   1 1233.34   24.93
  -3  -7  -1 1281.64   24.63
  -3  -7  -1 1291.88   24.03
  -3  -7  -2  479.41   12.09
  -3  -7  -2  455.28   10.57
   3   7   2  450.29   12.86
  -3  -7  -2  477.34   11.39
  -3  -7  -2  457.27   10.80
  -3  -7  -2  476.19   10.43
   3   7   2  454.33   11.51
  -3  -7  -2  479.97   11.46
  -3  -7  -2  478.83   10.48
  -3  -7  -2  490.66   11.61
  -3  -7  -3    7.32    1.40
  -3  -7  -3    7.34    1.34
  -3  -7  -3    5.09    1.26
  -3  -7  -3    4.89    1.21
   3   7   3    3.87    1.42
  -3  -7  -3    5.07    0.88
  -3  -7  -3    6.33    1.16
  -3  -7  -3    5.68    1.14
   3   7   3    3.55    1.03
  -3  -7  -3    7.03    1.31
  -3  -7  -4    4.12    1.18
  -3  -7  -4    4.85    1.20
  -3  -7  -4    7.66    1.30
  -3  -7  -4    6.94    1.34
  -3  -7  -4   12.17    1.48
   3   7   4    8.40    1.61
  -3  -7  -4    4.86    0.86
  -3  -7  -4    7.70    1.39
   3   7   4    7.58    1.12
  -3  -7  -4    5.29    1.15
  -3  -7  -4    6.98    1.20
  -3  -7  -5   10.48    1.36
  -3  -7  -5   10.79    1.65
  -3  -7  -5   10.57    1.51
   3   7   5   10.55    1.18
  -3  -7  -5   10.75    1.53
   3   7   5    9.75    1.71
  -3  -7  -5    7.79    1.45
  -3  -7  -5   11.94    1.36
  -3  -7  -5    9.65    1.45
  -3  -7  -5    9.43    1.43
  -3  -7  -5    9.99    1.55
  -3  -7  -5    9.84    1.55
  -3  -7  -5   13.06    1.56
  -3  -7  -6  204.45    6.55
  -3  -7  -6  206.68    7.18
  -3  -7  -6  221.99    6.99
   3   7   6  213.66    7.76
   3   7   6  203.06    6.26
  -3  -7  -6  206.29    6.35
  -3  -7  -6  202.90    6.45
  -3  -7  -6  202.67    6.41
  -3  -7  -6  203.21    6.89
  -3  -7  -6  209.90    6.83
  -3  -7  -6  208.59    6.82
  -3  -7  -6  209.19    6.93
  -3  -7  -6  200.30    6.95
  -3  -7  -7  184.87    5.89
  -3  -7  -7  192.26    7.25
  -3  -7  -7  176.59    6.09
   3   7   7  164.66    6.95
  -3  -7  -7  179.98    6.62
   3   7   7  188.96    6.51
  -3  -7  -7  179.56    6.54
  -3  -7  -7  180.92    6.01
  -3  -7  -7  177.38    6.32
  -3  -7  -7  181.33    5.74
  -3  -7  -7  172.87    6.54
  -3  -7  -7  181.95    6.57
  -3  -7  -7  176.64    5.90
  -3  -7  -8  414.23   10.74
  -3  -7  -8  456.89   12.91
   3   7   8  470.25   12.17
  -3  -7  -8  460.16   12.03
  -3  -7  -8  458.51   10.71
   3   7   8  441.09   12.50
  -3  -7  -8  457.03   11.97
  -3  -7  -8  444.26   11.45
  -3  -7  -8  446.84   12.14
  -3  -7  -8  453.77   11.98
  -3  -7  -9   25.12    1.83
  -3  -7  -9   24.91    2.62
  -3  -7  -9   25.41    2.21
  -3  -7  -9   28.07    2.71
  -3  -7  -9   25.51    2.83
  -3  -7  -9   22.30    2.34
  -3  -7  -9   25.43    2.10
  -3  -7  -9   23.81    2.43
   3   7   9   24.53    2.51
  -3  -7 -10  656.13   15.85
  -3  -7 -10  635.91   13.21
  -3  -7 -10  696.21   15.81
  -3  -7 -10  683.88   15.81
  -3  -7 -10  687.18   14.80
  -3  -7 -10  661.11   15.23
  -3  -7 -11  173.31    6.00
  -3  -7 -11  166.37    5.95
  -3  -7 -11  175.02    6.15
  -3  -7 -11  170.08    5.19
  -3  -7 -11  170.29    5.55
  -3  -7 -12    6.91    0.97
  -3  -7 -12    7.39    1.02
  -3  -7 -12    6.62    1.02
  -3  -8   4  256.03    6.40
   3   8  -4  240.38    6.07
   3   8  -4  251.75    6.63
  -3  -8   3   25.15    1.88
   3   8  -3   23.65    1.96
   3   8  -3   27.29    2.34
   3   8  -3   24.80    2.02
  -3  -8   3   23.00    2.05
  -3  -8   2  176.49    6.19
   3   8  -2  183.42    6.24
   3   8  -2  172.95    6.11
  -3  -8   1  301.91    9.27
   3   8  -1  305.74    9.40
   3   8  -1  306.53    8.80
   3   8  -1  317.63    8.94
  -3  -8   0  195.20    5.82
  -3  -8   0  197.21    6.15
  -3  -8   0  198.92    5.81
  -3  -8   0  198.93    6.16
   3   8   0  184.57    7.11
  -3  -8   0  190.08    6.70
   3   8   0  191.39    6.52
   3   8   0  200.04    6.66
  -3  -8  -1  503.63   12.57
   3   8   1  524.38   13.52
  -3  -8  -1  531.41   10.94
  -3  -8  -1  532.02   12.29
  -3  -8  -1  522.62   12.73
   3   8   1  515.93   13.33
   3   8   1  523.07   12.01
   3   8   1  524.41   12.05
  -3  -8  -1  529.63   12.92
  -3  -8  -2  241.54    8.24
  -3  -8  -2  232.66    7.94
   3   8   2  210.24    8.72
  -3  -8  -2  233.96    7.83
  -3  -8  -2  239.27    6.83
  -3  -8  -2  249.66    6.84
  -3  -8  -2  238.02    6.57
  -3  -8  -2  225.60    7.82
   3   8   2  229.28    7.69
  -3  -8  -3   91.16    4.86
   3   8   3   80.36    5.34
  -3  -8  -3   83.27    4.77
  -3  -8  -3   88.57    4.72
  -3  -8  -3   83.45    4.01
  -3  -8  -3   90.32    3.54
  -3  -8  -3   86.94    3.80
  -3  -8  -3   89.29    4.22
  -3  -8  -3   92.37    4.83
   3   8   3   83.52    4.14
  -3  -8  -4  517.50   13.78
  -3  -8  -4  503.14   13.34
  -3  -8  -4  507.39   11.88
   3   8   4  501.41   14.55
  -3  -8  -4  509.88   13.30
  -3  -8  -4  489.31   12.69
  -3  -8  -4  529.97   13.44
   3   8   4  511.17   11.68
  -3  -8  -4  518.49   12.10
  -3  -8  -5  462.50   12.61
  -3  -8  -5  463.57   11.59
  -3  -8  -5  465.58   12.48
  -3  -8  -5  461.21   12.42
  -3  -8  -5  471.04   11.48
  -3  -8  -5  470.14   10.84
   3   8   5  463.12   13.57
  -3  -8  -5  457.54   12.24
  -3  -8  -5  465.18   11.90
  -3  -8  -5  470.15   12.52
  -3  -8  -6  405.47   11.02
  -3  -8  -6  400.81   10.98
  -3  -8  -6  405.38   10.40
  -3  -8  -6  389.63   10.97
   3   8   6  401.56   12.24
  -3  -8  -6  398.36   10.48
  -3  -8  -6  380.77   10.81
  -3  -8  -6  397.10   10.15
  -3  -8  -6  410.14   10.84
  -3  -8  -6  400.62   10.93
  -3  -8  -7 1522.92   28.70
  -3  -8  -7 1510.42   30.21
  -3  -8  -7 1544.95   29.25
  -3  -8  -7 1478.31   28.63
   3   8   7 1555.73   31.36
  -3  -8  -7 1595.27   29.49
  -3  -8  -7 1512.92   30.04
  -3  -8  -7 1569.24   29.18
  -3  -8  -7 1557.89   28.57
  -3  -8  -7 1569.57   29.90
  -3  -8  -7 1546.35   28.77
  -3  -8  -7 1585.75   30.01
  -3  -8  -8  128.63    4.64
  -3  -8  -8  121.62    5.96
  -3  -8  -8  128.51    5.10
   3   8   8  130.72    6.21
  -3  -8  -8  129.08    5.52
  -3  -8  -8  124.43    5.03
  -3  -8  -8  125.30    5.51
  -3  -8  -8  120.96    4.41
  -3  -8  -8  128.12    5.66
  -3  -8  -8  117.75    5.52
  -3  -8  -8  119.83    5.47
  -3  -8  -9  133.44    4.56
  -3  -8  -9  135.25    5.36
  -3  -8  -9  137.32    6.24
  -3  -8  -9  140.34    5.82
  -3  -8  -9  137.51    5.62
  -3  -8  -9  136.81    5.60
  -3  -8  -9  124.33    5.52
  -3  -8  -9  122.39    4.75
  -3  -8 -10  541.07   13.43
  -3  -8 -10  533.87   11.59
  -3  -8 -10  546.50   13.12
  -3  -8 -10  550.93   12.89
  -3  -8 -10  553.95   12.78
  -3  -8 -11  400.43    9.80
  -3  -8 -11  409.09    9.45
  -3  -8 -11  415.42    9.91
  -3  -8 -11  393.08    9.10
   3   9  -2    2.54    0.88
  -3  -9   2    3.20    0.74
  -3  -9   2    2.90    0.77
   3   9  -2    1.40    0.69
   3   9  -2    3.14    0.77
  -3  -9   1  279.10    8.16
  -3  -9   1  281.18    7.44
   3   9  -1  290.14    7.76
   3   9  -1  275.95    7.65
  -3  -9   0  539.68   12.08
  -3  -9   0  570.01   13.73
  -3  -9   0  554.54   11.57
   3   9   0  538.86   12.49
   3   9   0  537.58   12.49
  -3  -9   0  554.21   11.51
  -3  -9  -1  120.55    4.97
  -3  -9  -1  120.06    4.78
  -3  -9  -1  129.56    5.14
  -3  -9  -1  119.77    4.42
  -3  -9  -2  115.88    5.34
  -3  -9  -2  121.43    5.55
  -3  -9  -2  120.10    5.42
  -3  -9  -2  123.89    4.27
   3   9   2  116.58    5.43
  -3  -9  -2  117.85    5.47
   3   9   2  119.41    5.19
  -3  -9  -3   13.67    2.03
  -3  -9  -3   12.64    2.09
   3   9   3   12.98    2.49
  -3  -9  -3   16.08    1.85
   3   9   3   16.25    1.82
  -3  -9  -3   14.69    2.13
  -3  -9  -3   17.26    2.32
  -3  -9  -3   14.08    1.48
  -3  -9  -4 1041.89   23.12
  -3  -9  -4 1053.57   22.91
  -3  -9  -4 1056.54   23.35
  -3  -9  -4 1073.36   20.18
   3   9   4 1006.88   24.45
  -3  -9  -4 1060.19   23.13
  -3  -9  -4 1036.93   20.45
  -3  -9  -4 1047.84   21.97
  -3  -9  -5 1238.66   25.81
  -3  -9  -5 1248.36   26.32
  -3  -9  -5 1271.04   23.93
   3   9   5 1235.41   27.82
  -3  -9  -5 1263.49   26.24
  -3  -9  -5 1257.74   23.80
  -3  -9  -5 1248.63   26.01
  -3  -9  -5 1222.98   26.05
  -3  -9  -6    7.26    1.59
  -3  -9  -6    3.84    1.43
  -3  -9  -6    6.88    1.66
  -3  -9  -6    5.41    1.34
   3   9   6    2.73    1.81
  -3  -9  -6    7.15    1.52
  -3  -9  -6    7.36    1.79
  -3  -9  -6    4.53    1.41
  -3  -9  -7  359.32    9.44
  -3  -9  -7  350.08   10.05
  -3  -9  -7  350.08   10.68
  -3  -9  -7  354.99   10.17
  -3  -9  -7  345.73    9.42
  -3  -9  -7  339.25    9.61
  -3  -9  -7  346.85    9.13
  -3  -9  -7  349.14   10.29
  -3  -9  -7  361.50    9.99
   3   9   7  348.42   11.51
  -3  -9  -8  200.10    6.20
  -3  -9  -8  206.01    7.32
  -3  -9  -8  207.79    6.73
  -3  -9  -8  185.09    5.89
  -3  -9  -8  209.66    7.46
  -3  -9  -8  209.20    6.90
  -3  -9  -8  207.16    7.27
  -3  -9  -8  211.01    6.67
  -3  -9  -8  206.36    6.46
  -3  -9  -9   93.22    3.59
  -3  -9  -9  100.08    4.17
  -3  -9  -9   96.17    4.38
  -3  -9  -9  104.50    4.51
  -3  -9  -9   98.47    4.54
  -3  -9  -9   97.20    4.70
  -3  -9 -10  122.68    4.91
  -3  -9 -10  123.45    4.27
  -3  -9 -10  123.17    4.61
  -3  -9 -10  125.84    4.19
  -3  -9 -10  127.01    4.61
  -3  -9 -11  101.07    3.63
  -3  -9 -11   94.75    2.99
  -3  -9 -11  103.85    3.50
  -3  -9 -11   95.59    3.09
  -3 -10   0  208.52    6.22
  -3 -10   0  193.82    5.11
  -3 -10  -1  207.85    5.52
  -3 -10  -1  209.36    5.83
  -3 -10  -1  218.56    7.06
  -3 -10  -1  212.07    5.90
  -3 -10  -2   52.64    3.17
  -3 -10  -2   50.49    3.05
  -3 -10  -2   52.10    3.17
  -3 -10  -3   36.54    3.02
  -3 -10  -3   38.77    2.23
  -3 -10  -3   35.57    2.96
  -3 -10  -3   33.00    2.85
  -3 -10  -4  218.12    7.99
  -3 -10  -4  215.92    6.88
  -3 -10  -4  201.14    7.75
  -3 -10  -4  213.88    7.88
  -3 -10  -5 1260.28   22.74
  -3 -10  -5 1286.50   26.12
  -3 -10  -5 1317.96   25.53
  -3 -10  -5 1276.89   26.02
  -3 -10  -5 1273.40   26.20
  -3 -10  -6    5.46    1.13
  -3 -10  -6    3.24    1.38
  -3 -10  -6    3.69    0.95
  -3 -10  -6    4.83    1.40
  -3 -10  -6    2.89    1.35
  -3 -10  -6    4.41    1.34
  -3 -10  -7    2.65    0.96
  -3 -10  -7    2.31    0.83
  -3 -10  -7    2.92    1.24
  -3 -10  -7    3.15    1.17
  -3 -10  -7    3.89    1.07
  -3 -10  -7    3.09    1.01
  -3 -10  -8  303.31    7.61
  -3 -10  -8  321.80    8.24
  -3 -10  -8  326.02    8.26
  -3 -10  -8  305.59    7.28
  -3 -10  -8  315.86    7.54
  -3 -10  -8  320.19    8.96
  -3 -10  -9  501.54   10.80
  -3 -10  -9  490.78   10.90
  -3 -10  -9  470.67    9.48
  -3 -11  -2  134.81    3.54
  -3 -11  -2  146.17    4.67
  -3 -11  -2  141.45    4.00
  -3 -11  -2  135.67    3.88
  -3 -11  -3  134.17    4.60
  -3 -11  -3  137.20    4.52
  -3 -11  -3  134.96    4.75
  -3 -11  -3  134.50    4.62
  -3 -11  -4    8.18    1.31
  -3 -11  -4   10.84    1.43
  -3 -11  -4    8.58    1.22
  -3 -11  -4    6.65    0.82
  -3 -11  -4    9.03    1.35
  -3 -11  -5  371.79    8.57
  -3 -11  -5  373.17    8.66
  -3 -11  -5  359.65    9.37
  -3 -11  -5  371.93    9.55
  -3 -11  -5  375.69    9.57
  -3 -11  -6   65.06    3.28
  -3 -11  -6   61.30    3.13
  -3 -11  -6   56.02    2.95
  -3 -11  -6   66.23    3.28
  -3 -11  -7    2.38    0.81
  -3 -11  -7    1.99    0.87
  -3 -11  -7    4.07    0.83
  -3 -11  -7    2.49    0.76
   4  -7  -5   24.95    1.54
   4  -7  -5   25.39    1.66
   4  -7  -5   23.45    1.60
   4  -7  -4  131.11    4.53
   4  -7  -4  129.13    4.36
   4  -7  -4  126.65    3.77
   4  -7  -4  138.37    4.64
   4  -7  -3  158.79    5.37
  -4   7   3  144.25    4.79
   4  -7  -3  159.56    5.22
   4  -7  -3  149.47    4.83
   4  -7  -3  163.02    5.43
   4  -7  -2    1.58    0.86
   4  -7  -2    3.84    0.96
   4  -7  -2    2.06    0.83
   4  -7  -2    1.93    0.75
  -4   7   2    2.23    0.92
  -4   7   1  205.55    6.54
   4  -7  -1  217.94    6.39
   4  -7  -1  224.70    6.65
  -4   7   0  318.44    8.36
   4  -7   0  332.86    7.96
   4  -7   0  337.77    8.55
   4  -7   1    1.59    0.56
  -4   7  -1    1.22    0.69
   4  -7   1    1.97    0.73
  -4   7  -1    0.52    0.61
  -4   7  -2    4.96    0.83
   4  -7   2    5.55    0.81
   4  -6  -6  329.23    7.96
   4  -6  -6  325.83    7.95
   4  -6  -6  321.23    7.73
   4  -6  -5    5.24    0.99
   4  -6  -5    4.72    0.92
   4  -6  -5    6.22    1.16
   4  -6  -5    5.76    1.16
   4  -6  -4   16.41    1.93
  -4   6   4   19.38    1.70
   4  -6  -4   16.97    1.80
   4  -6  -4   18.10    1.60
   4  -6  -4   18.52    2.01
   4  -6  -4   15.64    1.65
   4  -6  -3  386.49   10.43
  -4   6   3  357.64    9.77
   4  -6  -3  373.15    9.87
   4  -6  -3  355.93    9.35
   4  -6  -3  400.94   10.57
   4  -6  -3  352.03    9.27
   4  -6  -2  323.70    9.55
   4  -6  -2  311.68    9.06
   4  -6  -2  309.70    8.91
   4  -6  -2  306.81    9.38
   4  -6  -1    9.63    1.65
   4  -6  -1    9.32    1.58
  -4   6   1    7.64    1.83
   4  -6  -1    8.83    1.60
   4  -6  -1   11.02    1.76
   4  -6   0  215.43    7.52
  -4   6   0  222.26    8.10
   4  -6   0  212.77    6.95
   4  -6   0  217.59    7.28
   4  -6   0  219.75    7.60
   4  -6   1    5.61    1.14
   4  -6   1    5.98    1.32
  -4   6  -1    5.75    1.50
   4  -6   2  231.50    6.06
   4  -6   2  238.42    7.00
  -4   6  -2  239.31    7.09
  -4   6  -2  236.81    6.64
   4  -6   3  249.61    6.39
  -4   6  -3  253.21    6.52
  -4   6  -3  257.85    7.81
  -4   6  -3  249.47    6.17
  -4   6  -3  249.15    6.29
  -4   6  -4   49.38    2.86
  -4   6  -4   48.78    2.83
  -4   6  -4   50.23    2.89
  -4   6  -5  116.49    3.93
  -4   6  -5  122.56    3.93
  -4   6  -5  112.62    3.82
   4  -5  -7   68.18    3.02
   4  -5  -7   62.74    2.20
   4  -5  -7   64.40    2.97
   4  -5  -7   62.68    2.94
   4  -5  -7   61.09    2.14
   4  -5  -6  604.68   11.48
   4  -5  -6  606.45   13.36
   4  -5  -6  629.43   13.85
   4  -5  -6  599.46   11.94
   4  -5  -6  616.10   13.76
   4  -5  -5   46.41    2.96
   4  -5  -5   47.53    2.75
   4  -5  -5   44.60    3.16
   4  -5  -5   39.68    2.99
   4  -5  -5   43.76    2.34
   4  -5  -4   81.74    4.45
   4  -5  -4   72.18    3.33
  -4   5   4   75.82    3.61
  -4   5   4   83.35    4.14
   4  -5  -4   66.61    3.69
   4  -5  -4   76.35    4.34
   4  -5  -4   77.24    3.22
   4  -5  -4   79.51    3.98
  -4   5   4   80.37    4.75
   4  -5  -3  123.92    4.88
  -4   5   3  129.48    5.41
  -4   5   3  135.68    5.84
   4  -5  -3  132.33    5.88
  -4   5   3  136.20    5.69
   4  -5  -3  140.90    6.04
   4  -5  -3  132.71    4.33
   4  -5  -3  131.98    5.24
  -4   5   3  142.22    6.62
  -4   5   2  918.35   20.38
   4  -5  -2  909.85   19.83
  -4   5   2  924.63   19.62
   4  -5  -2  896.78   19.77
  -4   5   2  920.68   20.69
  -4   5   2  896.16   20.87
   4  -5  -2  874.91   18.25
  -4   5   1   45.19    3.85
   4  -5  -1   35.58    2.97
  -4   5   1   34.29    2.86
  -4   5   1   41.95    3.96
  -4   5   1   37.79    3.10
   4  -5  -1   41.50    3.18
  -4   5   1   33.00    3.01
   4  -5  -1   40.32    2.62
  -4   5   0   44.10    3.84
  -4   5   0   42.49    3.01
  -4   5   0   50.85    3.65
   4  -5   0   44.35    3.31
  -4   5   0   48.17    4.28
   4  -5   0   45.30    3.33
  -4   5  -1    1.91    1.23
   4  -5   1    2.94    1.11
   4  -5   1    1.82    1.05
  -4   5  -1    0.69    1.44
  -4   5  -1    2.73    1.67
   4  -5   2  299.91    8.72
  -4   5  -2  310.43    9.55
  -4   5  -2  331.28   10.15
  -4   5  -2  341.53   10.11
  -4   5  -3  660.23   14.84
  -4   5  -3  667.95   14.67
   4  -5   3  647.39   14.03
  -4   5  -3  660.80   13.87
  -4   5  -4   29.67    1.87
  -4   5  -4   28.96    2.34
   4  -5   4   30.61    1.88
  -4   5  -4   30.18    2.74
  -4   5  -5   54.42    2.93
  -4   5  -5   59.82    3.57
  -4   5  -5   57.39    3.26
  -4   5  -5   54.15    3.21
  -4   5  -6  220.67    6.62
  -4   5  -6  223.80    6.08
  -4   5  -6  212.64    6.00
  -4   5  -6  206.00    5.55
   4  -4  -8  408.05    8.79
   4  -4  -8  415.41    8.75
   4  -4  -8  422.14    8.79
   4  -4  -7   29.54    2.25
   4  -4  -7   27.66    2.23
   4  -4  -7   25.49    1.71
   4  -4  -7   26.51    2.19
   4  -4  -6   88.90    4.26
   4  -4  -6   83.54    4.36
   4  -4  -6   84.41    4.40
   4  -4  -6   84.17    3.54
   4  -4  -5  154.91    5.91
  -4   4   5  157.07    5.83
   4  -4  -5  150.80    5.08
   4  -4  -5  143.22    4.79
  -4   4   5  152.65    6.37
   4  -4  -5  153.14    6.33
   4  -4  -5  156.79    6.40
   4  -4  -5  152.45    5.05
   4  -4  -5  144.93    5.52
   4  -4  -5  136.18    4.93
   4  -4  -4    5.04    1.20
   4  -4  -4    4.10    1.14
   4  -4  -4    5.29    1.02
  -4   4   4    3.36    1.04
   4  -4  -4    4.58    1.10
   4  -4  -4    3.73    1.07
   4  -4  -4    2.95    1.17
   4  -4  -4    6.46    1.10
   4  -4  -4    6.49    1.47
  -4   4   4    3.70    1.90
  -4   4   4    4.06    1.06
  -4   4   3   44.42    3.19
   4  -4  -3   44.37    3.28
  -4   4   3   41.86    3.09
   4  -4  -3   41.06    2.53
  -4   4   3   45.96    3.31
   4  -4  -3   45.84    3.34
   4  -4  -3   40.44    2.31
   4  -4  -3   45.05    3.13
  -4   4   3   41.71    4.09
   4  -4  -3   48.58    2.75
  -4   4   2  646.54   16.03
  -4   4   2  631.90   17.14
  -4   4   2  616.05   16.07
   4  -4  -2  642.36   13.07
   4  -4  -2  605.78   14.69
  -4   4   2  596.18   14.65
   4  -4  -2  620.67   13.58
   4  -4  -2  600.05   14.67
   4  -4  -2  612.69   14.20
  -4   4   1  177.42    6.86
   4  -4  -1  173.67    6.49
  -4   4   1  179.70    8.13
   4  -4  -1  161.48    5.50
   4  -4  -1  162.25    5.08
   4  -4  -1  176.14    6.53
   4  -4  -1  173.85    5.97
  -4   4   1  179.58    8.06
  -4   4   1  163.29    7.46
  -4   4   1  186.40    6.82
  -4   4   0   58.61    4.71
  -4   4   0   62.26    3.80
   4  -4   0   66.80    3.02
  -4   4   0   72.37    4.40
   4  -4   0   61.78    3.66
   4  -4   0   59.26    3.60
  -4   4   0   61.52    4.05
  -4   4   0   61.40    4.94
   4  -4   0   62.06    3.12
  -4   4  -1  194.49    8.36
   4  -4   1  189.94    6.82
   4  -4   1  195.81    6.04
  -4   4  -1  210.16    7.84
   4  -4   1  190.87    6.83
  -4   4  -1  204.38    6.70
  -4   4  -1  206.31    8.70
  -4   4  -2   38.67    3.56
   4  -4   2   32.65    2.69
   4  -4   2   35.50    2.49
  -4   4  -2   33.61    3.21
   4  -4   2   30.81    2.64
  -4   4  -2   38.29    2.25
  -4   4  -2   35.54    3.47
  -4   4  -3 1306.79   26.51
  -4   4  -3 1324.70   25.64
  -4   4  -3 1341.86   25.97
   4  -4   3 1280.63   25.32
   4  -4   4  242.61    7.64
  -4   4  -4  263.34    7.05
  -4   4  -4  261.62    7.42
   4  -4   4  258.17    8.17
  -4   4  -4  266.03    8.42
  -4   4  -5    4.04    1.16
   4  -4   5    4.08    1.12
  -4   4  -5    3.24    1.24
  -4   4  -6  163.92    6.48
  -4   4  -6  162.65    5.78
  -4   4  -6  154.81    5.71
  -4   4  -6  150.05    5.74
  -4   4  -7  842.90   17.71
  -4   4  -7  844.68   16.22
  -4   4  -7  838.19   16.21
  -4   4  -7  828.32   16.66
   4  -3  -8  906.66   17.01
  -4   3   8  853.45   15.74
   4  -3  -8  903.76   17.01
   4  -3  -8  841.29   15.72
   4  -3  -7   63.93    3.66
  -4   3   7   56.67    2.83
   4  -3  -7   59.67    3.56
   4  -3  -7   62.09    3.57
   4  -3  -7   56.46    2.87
   4  -3  -6    1.81    0.90
  -4   3   6    3.45    0.92
   4  -3  -6    2.81    0.89
   4  -3  -6    1.68    0.94
   4  -3  -6    2.31    1.14
   4  -3  -6    2.91    1.14
   4  -3  -6    2.11    0.89
  -4   3   5  218.70    7.83
   4  -3  -5  210.05    7.75
  -4   3   5  206.25    7.04
   4  -3  -5  208.48    6.36
   4  -3  -5  212.72    5.98
   4  -3  -5  218.37    7.04
   4  -3  -5  215.30    7.82
   4  -3  -5  218.49    7.56
   4  -3  -5  218.02    6.52
   4  -3  -5  208.99    6.91
   4  -3  -5  220.17    7.04
  -4   3   4  733.05   14.68
   4  -3  -4  729.64   15.42
  -4   3   4  743.42   16.43
   4  -3  -4  753.76   16.00
   4  -3  -4  732.58   16.95
  -4   3   4  723.73   14.47
   4  -3  -4  729.60   16.93
   4  -3  -4  757.97   16.57
   4  -3  -4  743.47   14.97
   4  -3  -4  724.62   16.30
  -4   3   4  756.89   18.64
   4  -3  -4  733.45   15.92
  -4   3   3 1015.24   20.58
  -4   3   3 1052.20   20.48
  -4   3   3 1031.28   20.81
   4  -3  -3  992.32   20.05
   4  -3  -3 1038.69   20.23
   4  -3  -3  981.94   20.87
   4  -3  -3  980.16   20.87
   4  -3  -3 1001.08   20.14
   4  -3  -3 1009.95   18.50
   4  -3  -3 1025.04   20.85
  -4   3   3 1018.45   24.16
  -4   3   2  408.26   10.72
   4  -3  -2  400.57    9.70
  -4   3   2  421.63   11.75
   4  -3  -2  406.19   10.60
  -4   3   2  441.19   12.05
   4  -3  -2  406.16   10.61
   4  -3  -2  405.81   10.00
   4  -3  -2  403.73   10.57
  -4   3   2  403.47   13.36
   4  -3  -2  433.05   10.30
   4  -3  -1  152.59    4.83
  -4   3   1  162.54    7.26
  -4   3   1  155.72    5.87
  -4   3   1  167.12    6.18
   4  -3  -1  144.41    5.44
   4  -3  -1  162.65    5.35
  -4   3   1  149.77    7.27
   4  -3  -1  152.67    5.57
   4  -3  -1  155.53    5.56
  -4   3   1  152.59    7.16
  -4   3   0  100.95    5.90
  -4   3   0   95.86    4.81
  -4   3   0   91.22    5.18
   4  -3   0   99.44    4.27
  -4   3   0   99.61    4.56
   4  -3   0   96.56    3.91
   4  -3   0   98.38    4.27
   4  -3   0   95.70    3.38
   4  -3   0  105.31    4.08
  -4   3   0   97.40    5.77
  -4   3  -1 1142.47   23.30
   4  -3   1 1091.80   21.56
   4  -3   1 1120.61   21.31
  -4   3  -1 1114.08   22.37
   4  -3   1 1137.12   20.99
  -4   3  -1 1190.38   25.25
   4  -3   1 1129.84   21.70
   4  -3   1 1128.99   20.34
  -4   3  -1 1152.96   22.77
  -4   3  -1 1168.01   25.02
   4  -3   1 1120.96   19.77
  -4   3  -2  111.33    5.78
  -4   3  -2  120.89    5.64
   4  -3   2  110.67    4.56
   4  -3   2  117.94    4.19
   4  -3   2  108.87    4.68
   4  -3   2  111.30    4.55
  -4   3  -2  109.29    4.34
  -4   3  -2  121.46    5.96
   4  -3   2  105.82    4.45
  -4   3  -3   46.83    3.52
   4  -3   3   52.89    3.25
  -4   3  -3   45.77    3.56
   4  -3   3   48.18    2.62
   4  -3   3   50.69    3.21
  -4   3  -3   51.63    2.44
  -4   3  -3   51.09    3.60
   4  -3   4  639.85   14.83
  -4   3  -4  642.28   14.25
   4  -3   4  653.96   15.05
  -4   3  -4  651.19   13.33
  -4   3  -4  625.59   14.17
   4  -3   5    4.76    1.18
   4  -3   5    5.03    1.28
  -4   3  -5    4.35    1.40
  -4   3  -5    3.60    1.01
   4  -3   6   31.68    2.66
  -4   3  -6   31.35    2.94
  -4   3  -6   31.46    2.79
  -4   3  -6   35.01    2.63
  -4   3  -6   32.25    2.34
  -4   3  -6   31.97    2.54
   4  -3   6   31.40    2.61
  -4   3  -7  339.03    9.71
  -4   3  -7  328.10   10.07
  -4   3  -7  329.89    8.71
  -4   3  -7  310.72    8.57
  -4   3  -7  329.43    8.47
  -4   3  -8   17.00    1.93
  -4   3  -8   16.22    1.39
  -4   3  -8   20.96    2.16
  -4   3  -8   17.20    1.76
  -4   3  -8   17.55    1.46
  -4   3  -9   36.07    2.01
  -4   3  -9   33.99    2.13
  -4   3  -9   35.83    1.84
   4  -2  -8  756.92   15.42
  -4   2   8  719.57   14.71
   4  -2  -8  748.50   15.37
   4  -2  -8  745.79   15.37
   4  -2  -7  947.15   20.00
   4  -2  -7  941.60   19.98
   4  -2  -7  944.98   19.74
  -4   2   6   66.97    3.78
  -4   2   6   60.84    3.28
   4  -2  -6   70.42    4.26
   4  -2  -6   74.80    3.92
   4  -2  -6   68.88    3.33
   4  -2  -6   65.96    4.12
   4  -2  -6   68.90    4.06
   4  -2  -6   67.57    3.37
   4  -2  -6   62.78    3.56
   4  -2  -5  524.99   12.56
  -4   2   5  490.88   12.36
  -4   2   5  471.41   12.06
  -4   2   5  490.28   11.94
   4  -2  -5  488.49   12.94
   4  -2  -5  492.33   11.71
   4  -2  -5  486.75   12.93
   4  -2  -5  479.48   12.49
   4  -2  -5  482.21   11.85
   4  -2  -5  478.98   12.14
  -4   2   4  786.06   17.05
   4  -2  -4  773.12   17.33
  -4   2   4  763.90   16.59
   4  -2  -4  807.87   17.19
   4  -2  -4  803.97   16.31
  -4   2   4  772.21   15.14
   4  -2  -4  768.31   17.32
   4  -2  -4  775.16   16.84
   4  -2  -4  767.90   16.94
  -4   2   4  815.58   18.72
   4  -2  -4  777.85   17.13
  -4   2   3 1766.21   30.70
  -4   2   3 1791.88   31.67
   4  -2  -3 1688.55   31.72
   4  -2  -3 1732.60   29.86
   4  -2  -3 1815.09   31.99
   4  -2  -3 1733.95   30.73
   4  -2  -3 1698.58   31.75
  -4   2   3 1727.63   30.29
   4  -2  -3 1732.86   31.03
   4  -2  -3 1784.88   32.24
  -4   2   3 1800.76   35.28
  -4   2   3 1701.19   30.70
  -4   2   2  334.10    9.37
  -4   2   2  353.84    9.05
   4  -2  -2  339.98    8.85
  -4   2   2  349.90    9.53
   4  -2  -2  341.26    9.12
   4  -2  -2  333.78    8.80
  -4   2   2  324.98    8.15
   4  -2  -2  334.71    8.24
   4  -2  -2  333.36    9.25
  -4   2   2  355.44   11.81
   4  -2  -1   82.43    3.65
  -4   2   1   84.35    3.82
  -4   2   1   87.24    4.75
  -4   2   1   94.33    3.94
   4  -2  -1   92.71    3.98
   4  -2  -1   83.07    3.66
  -4   2   1  100.56    3.80
   4  -2  -1   87.75    3.16
  -4   2   1   87.54    4.75
   4  -2  -1   89.78    4.03
  -4   2   1   88.03    5.27
   4  -2   0    4.16    1.02
  -4   2   0    5.72    1.47
   4  -2   0    4.72    1.08
  -4   2   0    4.61    0.98
   4  -2   0    5.19    0.96
   4  -2   0    4.03    0.94
  -4   2   0    3.99    1.85
  -4   2   0    5.20    1.89
  -4   2   0    4.05    1.68
  -4   2  -1 2426.20   43.72
  -4   2  -1 2442.77   43.43
  -4   2  -1 2400.76   41.51
   4  -2   1 2418.92   39.91
   4  -2   1 2317.57   40.25
   4  -2   1 2399.81   39.89
  -4   2  -1 2372.29   41.88
   4  -2   1 2444.08   39.43
  -4   2  -2 1428.65   27.46
   4  -2   2 1320.40   23.92
   4  -2   2 1295.64   24.59
   4  -2   2 1342.28   24.60
   4  -2   2 1418.62   24.63
   4  -2   2 1335.22   23.96
  -4   2  -2 1350.56   24.75
   4  -2   2 1333.09   22.67
  -4   2  -2 1315.36   25.77
  -4   2  -2 1368.04   26.75
   4  -2   3   46.44    2.57
  -4   2  -3   46.81    3.39
  -4   2  -3   47.37    3.25
   4  -2   3   47.44    2.93
   4  -2   3   54.32    2.91
   4  -2   3   50.02    2.92
   4  -2   3   49.26    2.63
  -4   2  -3   51.49    3.44
  -4   2  -3   43.58    2.22
  -4   2  -3   50.86    2.51
   4  -2   4  190.63    6.52
  -4   2  -4  186.16    6.19
   4  -2   4  184.47    6.28
  -4   2  -4  171.74    5.47
  -4   2  -4  172.38    5.90
  -4   2  -5  373.91    8.81
   4  -2   5  386.75   10.60
   4  -2   5  390.30   10.46
  -4   2  -5  383.54    8.85
   4  -2   5  374.07    9.45
  -4   2  -5  363.91    9.43
  -4   2  -5  387.99    8.84
  -4   2  -5  385.57   10.51
   4  -2   6  230.96    7.89
   4  -2   6  236.14    7.78
  -4   2  -6  223.08    8.12
   4  -2   6  239.50    7.05
  -4   2  -6  238.76    7.37
  -4   2  -6  230.20    8.13
  -4   2  -7  321.18    9.85
   4  -2   7  313.30    9.32
  -4   2  -7  323.84   10.11
   4  -2   7  307.26    9.22
  -4   2  -7  312.55    8.29
  -4   2  -7  330.98    8.67
  -4   2  -7  329.67    8.68
  -4   2  -7  308.21    8.97
  -4   2  -8    4.73    1.33
  -4   2  -8    3.66    1.13
  -4   2  -8    6.31    1.07
  -4   2  -8    5.14    0.98
  -4   2  -8    4.10    1.12
  -4   2  -8    5.00    1.27
  -4   2  -9   43.38    2.82
  -4   2  -9   40.49    2.84
  -4   2  -9   43.04    2.60
   4  -1  -8   58.17    3.16
  -4   1   8   54.85    3.02
   4  -1  -8   58.84    3.18
   4  -1  -8   55.33    3.06
   4  -1  -7  254.61    8.30
   4  -1  -7  255.98    8.32
   4  -1  -7  259.47    8.13
   4  -1  -6   15.68    1.62
  -4   1   6   21.58    2.25
  -4   1   6   23.33    1.95
   4  -1  -6   19.11    2.28
   4  -1  -6   20.10    2.08
   4  -1  -6   19.84    1.80
   4  -1  -6   20.83    2.35
   4  -1  -6   20.59    2.25
   4  -1  -6   21.06    2.08
  -4   1   5  208.22    7.45
  -4   1   5  216.51    6.80
   4  -1  -5  215.54    7.63
   4  -1  -5  206.82    7.26
   4  -1  -5  218.44    6.76
  -4   1   5  209.93    5.72
   4  -1  -5  215.09    7.65
   4  -1  -5  206.63    7.29
   4  -1  -5  205.04    6.75
   4  -1  -5  203.82    7.13
  -4   1   4   24.10    2.36
   4  -1  -4   22.76    2.32
   4  -1  -4   20.09    2.11
  -4   1   4   25.87    2.51
   4  -1  -4   25.80    2.38
  -4   1   4   24.41    2.08
   4  -1  -4   23.61    2.39
   4  -1  -4   24.60    2.00
  -4   1   4   23.36    1.77
   4  -1  -4   22.01    2.19
   4  -1  -4   21.40    2.02
   4  -1  -3  371.04   10.17
  -4   1   3  366.32    8.08
  -4   1   3  371.74    9.84
  -4   1   3  361.80    8.18
  -4   1   3  362.99    9.09
   4  -1  -3  369.69    9.50
  -4   1   3  375.78    8.31
   4  -1  -3  363.50    9.80
   4  -1  -3  371.67    8.73
  -4   1   3  350.67    8.41
   4  -1  -3  367.38    9.49
   4  -1  -3  369.72    9.05
  -4   1   3  390.77   11.11
  -4   1   2  128.33    4.61
  -4   1   2  137.80    4.64
   4  -1  -2  130.06    4.66
  -4   1   2  132.00    4.95
  -4   1   2  130.85    4.66
   4  -1  -2  141.39    5.21
   4  -1  -2  129.47    4.11
  -4   1   2  135.49    4.23
   4  -1  -2  128.51    4.64
   4  -1  -2  124.73    4.07
  -4   1   2  131.69    6.24
   4  -1  -2  130.48    5.46
  -4   1   1  573.09   11.00
  -4   1   1  584.26   11.88
  -4   1   1  563.56   12.92
  -4   1   1  562.09   12.82
   4  -1  -1  584.76   12.57
  -4   1   1  581.31   14.67
  -4   1   0   43.00    2.99
  -4   1   0   43.75    2.31
  -4   1   0   46.26    3.39
   4  -1   0   41.41    2.54
   4  -1   0   39.46    2.66
  -4   1   0   40.40    2.26
  -4   1   0   48.72    3.30
  -4   1  -1 1175.02   23.60
  -4   1  -1 1219.75   21.49
  -4   1  -1 1125.02   20.86
   4  -1   1 1145.64   21.39
  -4   1  -1 1125.27   22.40
   4  -1   1 1173.49   21.18
  -4   1  -1 1173.96   23.12
  -4   1  -2 2552.65   43.97
  -4   1  -2 2426.16   41.99
   4  -1   2 2547.55   42.56
   4  -1   2 2545.52   41.85
  -4   1  -2 2685.87   44.69
   4  -1   2 2659.08   41.07
  -4   1  -2 2334.52   42.37
  -4   1  -2 2464.28   42.82
   4  -1   3    6.50    0.59
   4  -1   3    6.21    1.12
   4  -1   3    6.10    0.99
  -4   1  -3    4.60    1.34
  -4   1  -3    5.80    0.93
  -4   1  -3    5.62    1.23
   4  -1   4    6.69    1.22
   4  -1   4    8.91    1.24
  -4   1  -4    9.01    1.37
  -4   1  -4   11.43    1.29
  -4   1  -4    9.03    1.26
  -4   1  -5  862.49   17.52
   4  -1   5  862.69   17.96
  -4   1  -5  848.09   15.98
  -4   1  -5  834.24   15.97
  -4   1  -5  880.62   16.25
   4  -1   5  868.47   17.60
   4  -1   6  228.44    7.21
   4  -1   6  230.95    7.59
   4  -1   6  221.04    7.29
  -4   1  -6  238.06    7.60
  -4   1  -6  207.29    6.88
  -4   1  -6  219.71    7.42
   4  -1   7  700.89   16.38
   4  -1   7  702.25   15.72
   4  -1   7  720.12   16.22
  -4   1  -7  714.30   16.73
  -4   1  -7  733.17   15.49
  -4   1  -7  743.95   14.87
  -4   1  -7  749.29   14.93
  -4   1  -7  718.63   16.18
   4  -1   8   14.86    1.89
   4  -1   8   16.06    1.95
  -4   1  -8   14.91    2.02
  -4   1  -8   17.10    1.61
  -4   1  -8   14.53    1.65
  -4   1  -8   16.57    2.04
  -4   1  -8   17.96    1.64
  -4   1  -8   14.85    1.93
  -4   1  -8   14.99    2.07
   4  -1   8   18.93    1.95
  -4   1  -9    8.21    1.52
  -4   1  -9    8.68    1.54
  -4   1  -9    6.71    1.29
  -4   1  -9    7.91    1.44
  -4   1 -10  364.82    9.19
  -4   1 -10  358.15    9.28
  -4   1 -10  369.49    8.55
  -4   1 -10  357.65    9.33
   4   0  -8   13.58    1.57
  -4   0   8   11.01    1.44
   4   0  -8   11.73    1.46
   4   0  -8   13.16    1.50
   4   0  -7   70.25    4.01
   4   0  -7   65.92    3.90
   4   0  -7   68.45    3.83
   4   0  -6    7.01    1.04
   4   0  -6    9.82    1.55
   4   0  -6   10.20    1.37
   4   0  -6   10.35    1.72
   4   0  -6   10.74    1.80
  -4   0   6    9.34    1.56
   4   0  -6   10.45    1.51
  -4   0   5  682.58   15.91
  -4   0   5  664.50   14.13
   4   0  -5  628.33   14.29
   4   0  -5  676.01   15.76
   4   0  -5  667.37   15.29
   4   0  -5  654.83   14.20
  -4   0   5  643.56   13.49
   4   0  -5  649.18   15.61
   4   0  -5  663.75   15.31
   4   0  -5  662.30   14.94
  -4   0   4 1074.59   22.13
  -4   0   4 1081.45   20.45
   4   0  -4 1085.38   21.79
   4   0  -4 1095.34   20.38
  -4   0   4 1057.82   20.05
   4   0  -4 1059.57   21.59
   4   0  -4 1075.75   21.10
   4   0  -4 1064.29   21.60
   4   0  -4 1080.19   21.99
  -4   0   4 1073.13   20.18
  -4   0   3  116.55    4.93
  -4   0   3  111.64    4.07
  -4   0   3  112.65    3.31
   4   0  -3  111.87    4.44
   4   0  -3  113.00    4.77
   4   0  -3  109.52    3.85
  -4   0   3  107.08    3.91
   4   0  -3  111.27    4.44
   4   0  -3  106.25    4.13
  -4   0   3  113.91    4.67
   4   0  -3  101.93    5.18
  -4   0   2   93.92    4.12
  -4   0   2   95.44    3.34
  -4   0   2   91.87    3.34
  -4   0   2  101.27    4.69
  -4   0   2   91.50    3.36
   4   0  -2   93.44    5.11
   4   0  -2   88.73    3.53
   4   0  -2   96.35    4.15
  -4   0   2   96.46    3.46
   4   0  -2   94.01    3.18
   4   0  -2   86.42    3.51
  -4   0   1 1655.73   28.75
  -4   0   1 1553.61   28.77
   4   0  -1 1731.38   32.17
  -4   0   1 1660.01   28.86
  -4   0   1 1608.97   27.94
  -4   0   1 1741.12   29.50
   4   0  -1 1733.60   29.61
   4   0  -1 1664.13   27.34
  -4   0   1 1700.97   31.10
  -4   0   0  756.95   15.40
  -4   0   0  754.85   13.00
  -4   0   0  807.27   15.91
  -4   0   0  787.18   14.06
   4   0   0  766.38   15.34
   4   0   0  741.42   17.28
  -4   0  -1  120.08    4.56
   4   0   1  125.52    5.25
  -4   0  -1  128.04    3.65
  -4   0  -1  133.75    5.01
  -4   0  -1  133.70    3.71
   4   0   1  127.37    4.38
  -4   0  -2  606.43   12.21
  -4   0  -2  656.80   13.79
  -4   0  -2  618.39   11.82
  -4   0  -2  634.92   12.85
  -4   0  -2  621.60   13.14
   4   0   2  646.79   12.90
   4   0   2  629.57   11.70
   4   0   2  605.34   12.92
  -4   0  -3  187.08    5.92
   4   0   3  200.36    5.14
  -4   0  -3  200.45    5.75
  -4   0  -3  209.44    5.53
   4   0   3  196.04    4.66
  -4   0  -4  127.26    4.18
   4   0   4  122.94    4.47
  -4   0  -4  135.88    4.46
   4   0   4  129.71    4.21
  -4   0  -4  127.98    4.21
  -4   0  -5  819.03   15.49
  -4   0  -5  833.10   15.51
  -4   0  -5  854.94   15.75
   4   0   5  870.47   17.18
   4   0   5  855.44   16.67
  -4   0  -5  854.47   16.66
  -4   0  -5  829.84   16.35
   4   0   6  365.03    9.79
   4   0   6  378.13    9.68
  -4   0  -6  392.76    9.59
  -4   0  -6  367.89    8.97
  -4   0  -6  367.60    9.46
  -4   0  -6  373.07    9.64
   4   0   7  194.79    6.87
   4   0   7  199.49    6.97
   4   0   7  210.17    7.00
  -4   0  -7  215.51    7.07
  -4   0  -7  197.75    6.31
  -4   0  -7  209.13    7.17
  -4   0  -7  207.65    6.99
   4   0   8  486.17   12.43
   4   0   8  503.88   12.47
  -4   0  -8  496.72   12.81
  -4   0  -8  492.50   11.68
  -4   0  -8  494.78   12.64
  -4   0  -8  494.90   12.72
   4   0   8  471.15   12.11
  -4   0  -8  503.51   13.01
   4   0   9   25.62    2.23
  -4   0  -9   24.87    2.52
  -4   0  -9   23.49    2.43
  -4   0  -9   23.39    2.30
  -4   0  -9   22.02    2.37
   4   0   9   23.59    2.24
   4   0   9   21.10    2.21
  -4   0 -10  299.87    8.80
  -4   0 -10  292.47    8.71
  -4   0 -10  289.10    7.99
  -4   0 -10  309.44    8.85
  -4   0 -10  301.01    8.86
  -4   0 -11  487.33   10.56
  -4   0 -11  480.18   10.50
  -4   0 -11  458.03    9.35
  -4   0 -11  468.30   10.61
   4   1  -8   13.35    1.48
  -4  -1   8   11.77    1.38
   4   1  -8   11.83    1.42
   4   1  -8   13.12    1.41
   4   1  -7   71.93    3.98
  -4  -1   7   69.24    3.96
   4   1  -7   67.78    3.90
   4   1  -7   68.72    3.78
  -4  -1   6    8.47    1.52
  -4  -1   6    5.61    1.00
   4   1  -6    7.06    1.51
   4   1  -6    4.84    1.31
   4   1  -6    6.79    1.17
   4   1  -6    7.02    1.48
  -4  -1   5  383.56    9.12
  -4  -1   5  409.19   11.29
   4   1  -5  378.71    9.81
   4   1  -5  396.45   11.03
   4   1  -5  403.97   10.52
   4   1  -5  381.19    9.57
   4   1  -5  389.47   10.98
   4   1  -5  388.27   10.69
   4   1  -5  385.26    9.95
  -4  -1   4  743.86   16.67
  -4  -1   4  719.66   14.53
   4   1  -4  716.26   15.95
   4   1  -4  743.18   16.06
   4   1  -4  735.32   14.78
   4   1  -4  696.11   15.85
   4   1  -4  718.19   15.68
   4   1  -4  713.68   16.60
  -4  -1   3  134.99    5.47
   4   1  -3  125.55    6.33
  -4  -1   3  135.91    4.31
   4   1  -3  133.89    4.89
   4   1  -3  134.74    5.16
   4   1  -3  140.00    3.97
   4   1  -3  139.50    4.36
   4   1  -3  133.06    4.90
  -4  -1   3  132.19    4.27
   4   1  -3  128.81    4.70
  -4  -1   2  948.77   19.13
  -4  -1   2  990.88   17.31
  -4  -1   2  992.25   17.22
   4   1  -2  974.46   18.96
  -4  -1   2  956.66   16.92
  -4  -1   2  978.53   16.81
   4   1  -2  945.52   17.03
  -4  -1   2  944.72   18.35
   4   1  -2  931.79   22.14
  -4  -1   1  394.42    9.31
   4   1  -1  391.73    9.21
  -4  -1   1  392.79    7.68
  -4  -1   1  388.30    8.41
  -4  -1   1  382.61    9.25
   4   1  -1  378.66    7.36
  -4  -1   1  367.39    8.27
  -4  -1   1  382.40    8.26
   4   1  -1  362.91   11.91
  -4  -1   0 1195.76   20.85
  -4  -1   0 1188.30   21.50
  -4  -1   0 1152.14   19.18
  -4  -1   0 1195.82   20.57
   4   1   0 1146.02   21.06
   4   1   0 1135.48   18.58
  -4  -1   0 1170.54   20.63
   4   1   0 1124.25   24.74
  -4  -1  -1   72.79    2.07
  -4  -1  -1   67.11    2.81
   4   1   1   69.04    3.00
  -4  -1  -1   68.02    2.99
  -4  -1  -1   70.44    3.09
  -4  -1  -1   72.70    2.93
   4   1   1   63.63    4.26
   4   1   2   15.23    2.11
  -4  -1  -2   17.30    1.44
  -4  -1  -2   16.29    1.52
  -4  -1  -2   17.37    1.45
  -4  -1  -2   16.65    1.42
  -4  -1  -3  157.97    4.45
  -4  -1  -3  157.73    4.44
  -4  -1  -3  152.50    4.61
   4   1   3  153.06    3.64
  -4  -1  -3  158.53    4.46
  -4  -1  -4  796.46   15.01
  -4  -1  -4  776.72   14.69
  -4  -1  -4  825.97   14.84
   4   1   4  825.93   14.50
   4   1   4  762.30   14.13
   4   1   5 1714.85   30.65
  -4  -1  -5 1714.45   29.41
   4   1   5 1811.50   30.29
  -4  -1  -5 1758.18   29.69
  -4  -1  -5 1797.75   29.64
  -4  -1  -5 1816.59   29.59
  -4  -1  -6  336.34    6.99
   4   1   6  323.30    8.40
  -4  -1  -6  326.96    8.53
   4   1   6  324.59    8.28
  -4  -1  -6  333.54    7.92
  -4  -1  -6  310.79    7.77
  -4  -1  -6  321.11    8.24
  -4  -1  -6  325.17    8.24
   4   1   7   30.95    2.39
   4   1   7   29.42    2.29
   4   1   7   29.13    2.49
  -4  -1  -7   29.03    2.30
  -4  -1  -7   32.20    2.32
  -4  -1  -7   26.39    2.04
  -4  -1  -7   27.44    2.32
  -4  -1  -7   28.68    2.32
   4   1   8 1014.93   21.58
  -4  -1  -8 1055.24   21.52
   4   1   8 1011.33   20.97
   4   1   8  989.58   20.42
  -4  -1  -8 1083.88   21.16
  -4  -1  -8 1063.27   21.17
  -4  -1  -8 1011.91   20.24
  -4  -1  -8 1036.32   21.26
  -4  -1  -8 1075.48   21.50
  -4  -1  -9  283.22    7.67
  -4  -1  -9  276.85    9.06
   4   1   9  274.22    8.48
  -4  -1  -9  301.42    9.06
  -4  -1  -9  273.54    7.67
  -4  -1  -9  280.81    8.70
   4   1   9  288.76    8.88
  -4  -1  -9  291.71    9.04
   4   1   9  272.03    7.94
  -4  -1 -10  129.32    4.57
  -4  -1 -10  133.87    5.75
  -4  -1 -10  127.47    5.48
  -4  -1 -10  128.01    5.14
  -4  -1 -10  129.47    5.52
  -4  -1 -10  132.59    5.71
  -4  -1 -11  240.40    7.22
  -4  -1 -11  237.16    7.00
  -4  -1 -11  232.16    6.28
  -4  -1 -11  244.76    7.28
   4   2  -8   26.67    1.88
  -4  -2   8   27.22    1.71
   4   2  -8   25.46    1.85
   4   2  -8   24.49    1.75
   4   2  -7  143.43    5.59
  -4  -2   7  140.79    5.40
  -4  -2   7  137.07    4.01
   4   2  -7  137.71    5.50
   4   2  -7  140.85    5.37
  -4  -2   6  468.59   11.55
   4   2  -6  454.39   12.26
  -4  -2   6  464.84   12.48
   4   2  -6  475.05   12.46
   4   2  -6  454.21   12.00
  -4  -2   5  143.21    5.96
   4   2  -5  134.49    5.88
   4   2  -5  141.44    5.34
   4   2  -5  148.70    5.00
   4   2  -5  140.99    6.01
   4   2  -5  150.31    6.04
   4   2  -5  134.45    4.79
   4   2  -4  303.50    9.66
  -4  -2   4  321.08    9.57
   4   2  -4  319.49    8.52
   4   2  -4  307.64    8.62
   4   2  -4  316.60    9.18
   4   2  -4  323.85    8.17
   4   2  -4  301.60    9.04
   4   2  -4  316.08    8.97
  -4  -2   3 1060.39   21.46
  -4  -2   3 1051.36   18.99
   4   2  -3 1087.31   20.61
  -4  -2   3 1066.41   19.43
   4   2  -3 1005.45   20.36
   4   2  -3 1118.42   19.21
   4   2  -3 1048.27   19.35
   4   2  -3 1027.12   20.46
   4   2  -3 1066.68   20.39
   4   2  -3 1033.26   24.14
   4   2  -2   14.44    1.39
   4   2  -2   13.61    3.22
  -4  -2   2   11.16    1.51
  -4  -2   2   13.85    1.08
  -4  -2   2   14.68    1.21
  -4  -2   2   12.79    1.32
   4   2  -2   11.97    1.39
  -4  -2   2   13.39    1.01
   4   2  -2   13.91    1.13
   4   2  -2   14.95    1.34
   4   2  -2   11.33    1.25
   4   2  -2   12.97    1.34
  -4  -2   1  884.53   17.17
  -4  -2   1  861.09   15.71
  -4  -2   1  871.91   14.83
   4   2  -1  886.66   16.80
  -4  -2   1  898.00   15.88
  -4  -2   1  906.41   16.29
   4   2  -1  868.67   15.00
  -4  -2   1  861.41   15.57
   4   2  -1  861.13   20.71
  -4  -2   0 2296.06   35.78
  -4  -2   0 2117.76   33.61
   4   2   0 2110.53   36.17
  -4  -2   0 2225.42   35.56
   4   2   0 2198.43   33.64
  -4  -2   0 2127.44   35.96
   4   2   0 2212.64   39.49
   4   2   1 1249.39   23.68
  -4  -2  -1 1286.39   21.62
  -4  -2  -1 1206.33   21.67
   4   2   1 1219.69   21.76
  -4  -2  -1 1282.91   21.48
  -4  -2  -1 1170.21   21.67
  -4  -2  -1 1213.88   21.29
  -4  -2  -2  344.40    7.86
   4   2   2  347.35    8.43
   4   2   2  362.61    7.96
  -4  -2  -2  348.95    7.58
  -4  -2  -2  346.40    7.64
  -4  -2  -2  342.33    7.56
   4   2   3  132.90    4.12
  -4  -2  -3  129.44    3.88
  -4  -2  -3  130.83    4.09
  -4  -2  -3  130.93    3.88
   4   2   3  126.73    2.72
  -4  -2  -3  131.82    3.90
  -4  -2  -4 1543.39   27.28
   4   2   4 1569.32   26.22
   4   2   4 1695.15   27.20
  -4  -2  -4 1639.41   27.13
  -4  -2  -4 1613.14   25.61
  -4  -2  -4 1628.56   27.21
   4   2   5 1560.38   26.48
  -4  -2  -5 1593.74   26.08
   4   2   5 1550.88   26.10
  -4  -2  -5 1569.14   25.67
  -4  -2  -5 1545.55   25.94
   4   2   5 1531.97   25.43
  -4  -2  -6 1635.54   26.77
   4   2   6 1567.18   28.19
  -4  -2  -6 1643.32   28.15
   4   2   6 1638.26   28.36
  -4  -2  -6 1650.97   28.88
  -4  -2  -6 1603.19   27.12
  -4  -2  -6 1602.64   28.04
  -4  -2  -6 1730.21   29.20
  -4  -2  -6 1674.31   28.45
   4   2   7  190.52    5.75
  -4  -2  -7  183.88    4.99
   4   2   7  191.45    6.61
  -4  -2  -7  187.72    5.64
  -4  -2  -7  194.50    6.35
  -4  -2  -7  192.92    5.98
  -4  -2  -7  188.77    5.02
   4   2   7  189.24    6.02
  -4  -2  -7  187.64    5.48
  -4  -2  -7  196.30    5.62
  -4  -2  -7  194.55    5.91
  -4  -2  -7  190.56    6.18
  -4  -2  -7  194.25    6.02
   4   2   8  437.77   11.61
  -4  -2  -8  427.10   10.45
   4   2   8  438.39   10.93
  -4  -2  -8  432.61   11.29
  -4  -2  -8  430.94   10.47
  -4  -2  -8  446.24   10.67
   4   2   8  416.77   10.05
  -4  -2  -8  418.00   10.40
  -4  -2  -8  415.92   10.98
  -4  -2  -8  438.28   10.95
  -4  -2  -8  455.75   11.08
   4   2   9 1373.66   27.13
  -4  -2  -9 1372.95   25.88
   4   2   9 1348.71   24.79
  -4  -2  -9 1413.70   27.34
   4   2   9 1354.07   26.26
  -4  -2  -9 1410.29   26.44
  -4  -2  -9 1306.62   25.37
  -4  -2  -9 1392.04   26.72
  -4  -2  -9 1392.71   26.68
   4   2  10  119.75    5.35
  -4  -2 -10  128.24    5.08
  -4  -2 -10  139.82    5.95
   4   2  10  131.64    5.06
  -4  -2 -10  130.89    5.45
  -4  -2 -10  127.24    5.30
  -4  -2 -10  134.38    5.58
  -4  -2 -10  134.30    5.78
  -4  -2 -11   83.80    3.64
  -4  -2 -11   94.21    4.44
  -4  -2 -11   92.27    3.85
  -4  -2 -11   89.45    4.32
  -4  -2 -12   17.77    1.56
  -4  -2 -12   15.51    1.46
  -4  -2 -12   15.84    1.00
   4   3  -7   89.80    4.03
  -4  -3   7   91.30    3.62
  -4  -3   7   89.31    3.09
   4   3  -7   87.14    3.99
   4   3  -7   87.15    3.86
   4   3  -6  710.37   16.18
  -4  -3   6  725.60   15.94
   4   3  -6  716.02   16.24
   4   3  -6  679.34   15.87
  -4  -3   5  403.80   10.55
   4   3  -5  410.63   11.29
  -4  -3   5  403.42   11.30
   4   3  -5  394.28   11.17
   4   3  -5  397.64   11.10
  -4  -3   4   31.11    2.65
   4   3  -4   34.81    3.21
   4   3  -4   32.76    2.27
   4   3  -4   31.76    2.65
   4   3  -4   36.59    2.31
  -4  -3   4   37.98    3.17
   4   3  -4   33.02    2.73
   4   3  -4   29.54    2.58
   4   3  -4   35.25    2.16
  -4  -3   3  552.10   13.15
  -4  -3   3  535.37   12.12
   4   3  -3  562.69   12.05
   4   3  -3  554.49   12.72
   4   3  -3  554.02   11.66
   4   3  -3  571.87   11.69
   4   3  -3  542.10   12.67
   4   3  -3  548.71   12.66
   4   3  -3  522.82   15.63
  -4  -3   2  936.43   18.32
   4   3  -2  985.69   18.33
   4   3  -2  919.95   18.35
   4   3  -2 1003.92   18.49
   4   3  -2  982.62   17.50
  -4  -3   2  974.58   19.55
   4   3  -2  937.85   18.42
  -4  -3   2 1036.76   16.85
   4   3  -2  962.30   18.56
  -4  -3   2  949.26   19.30
   4   3  -2  949.74   23.22
  -4  -3   1  258.54    7.00
   4   3  -1  250.02    8.95
   4   3  -1  252.03    6.41
   4   3  -1  268.32    6.85
  -4  -3   1  253.61    5.77
  -4  -3   1  252.30    5.89
   4   3  -1  251.24    5.56
  -4  -3   1  253.20    5.86
   4   3   0 2197.06   39.31
  -4  -3   0 2248.61   36.64
  -4  -3   0 2223.00   36.61
   4   3   0 2238.97   36.94
   4   3   0 2292.64   35.19
  -4  -3  -1    7.95    0.91
  -4  -3  -1    9.29    1.04
   4   3   1    9.28    1.01
  -4  -3  -1    8.51    1.00
   4   3   2 1734.59   29.91
  -4  -3  -2 1683.94   30.10
  -4  -3  -2 1849.13   29.95
  -4  -3  -2 1830.47   30.06
  -4  -3  -2 1823.10   30.02
  -4  -3  -3 1340.15   23.55
  -4  -3  -3 1304.10   23.69
  -4  -3  -3 1393.50   23.49
  -4  -3  -3 1428.16   23.65
   4   3   4 1663.53   25.98
  -4  -3  -4 1628.77   27.76
  -4  -3  -4 1614.26   25.49
  -4  -3  -4 1719.64   27.58
  -4  -3  -4 1543.92   27.50
   4   3   5  459.05    9.17
  -4  -3  -5  466.18    9.42
   4   3   5  488.79    9.12
  -4  -3  -5  479.18    9.63
  -4  -3  -5  478.36    9.64
  -4  -3  -5  454.98    8.78
   4   3   6 2075.82   33.82
   4   3   6 2059.77   34.19
  -4  -3  -6 2110.82   34.88
  -4  -3  -6 2065.80   33.39
  -4  -3  -6 2007.97   33.60
  -4  -3  -6 1989.54   33.98
  -4  -3  -6 2082.71   35.17
  -4  -3  -6 1978.25   33.67
   4   3   7   18.87    1.41
  -4  -3  -7   18.37    1.44
   4   3   7   19.84    1.96
  -4  -3  -7   29.92    2.21
  -4  -3  -7   19.73    1.95
  -4  -3  -7   19.32    1.36
  -4  -3  -7   16.21    1.48
  -4  -3  -7   23.75    1.67
   4   3   7   19.61    1.69
  -4  -3  -7   17.48    1.74
  -4  -3  -7   17.39    1.61
  -4  -3  -7   18.18    1.83
  -4  -3  -7   32.51    2.10
  -4  -3  -7   18.46    1.51
   4   3   8  156.25    6.13
  -4  -3  -8  158.67    5.91
  -4  -3  -8  156.32    5.01
   4   3   8  173.13    4.88
  -4  -3  -8  160.71    5.99
   4   3   8  163.80    5.71
  -4  -3  -8  167.31    5.34
  -4  -3  -8  157.99    5.58
  -4  -3  -8  158.78    5.95
  -4  -3  -8  173.39    5.64
  -4  -3  -8  155.74    5.66
   4   3   9  976.70   20.90
  -4  -3  -9  978.66   20.54
  -4  -3  -9  970.57   18.12
  -4  -3  -9 1014.47   21.12
   4   3   9  975.02   19.98
  -4  -3  -9  977.96   19.69
  -4  -3  -9  994.68   19.72
  -4  -3  -9  977.66   20.44
  -4  -3  -9  989.50   19.86
  -4  -3  -9  988.11   20.53
   4   3  10  348.49   10.09
  -4  -3 -10  360.41   10.13
  -4  -3 -10  364.99   10.65
   4   3  10  357.95    9.44
  -4  -3 -10  357.99    9.71
  -4  -3 -10  367.28   10.07
  -4  -3 -10  369.66    9.83
  -4  -3 -10  344.68   10.20
  -4  -3 -11   46.63    2.94
  -4  -3 -11   39.28    2.91
  -4  -3 -11   43.46    3.15
  -4  -3 -11   40.50    2.64
  -4  -3 -12   43.23    2.33
  -4  -3 -12   48.72    2.78
  -4  -3 -12   43.72    2.06
  -4  -3 -12   43.08    2.58
  -4  -4   7   40.71    1.70
   4   4  -7   42.16    2.41
  -4  -4   7   40.40    1.78
   4   4  -7   45.59    2.50
   4   4  -7   42.36    2.34
   4   4  -6  619.68   14.20
  -4  -4   6  605.85   12.76
   4   4  -6  613.47   14.16
   4   4  -6  629.36   14.11
   4   4  -5  947.49   20.27
  -4  -4   5  975.72   19.57
   4   4  -5  936.33   20.22
   4   4  -5  928.57   20.12
   4   4  -4   11.18    1.79
  -4  -4   4   13.40    1.62
  -4  -4   4    9.67    1.64
   4   4  -4   11.79    1.72
   4   4  -4   11.90    1.77
  -4  -4   3  129.93    5.18
   4   4  -3  119.18    5.15
  -4  -4   3  126.07    4.93
   4   4  -3  130.60    7.02
   4   4  -3  131.17    4.76
   4   4  -3  126.35    5.15
  -4  -4   3  125.84    5.27
   4   4  -3  134.86    4.54
   4   4  -3  122.93    5.10
  -4  -4   2 1198.22   23.14
   4   4  -2 1300.39   21.78
   4   4  -2 1237.40   23.11
   4   4  -2 1214.56   23.11
   4   4  -2 1225.85   23.23
  -4  -4   2 1208.59   23.45
   4   4  -2 1262.71   21.98
   4   4  -2 1224.89   23.15
  -4  -4   2 1207.86   22.91
   4   4  -2 1232.56   27.33
  -4  -4   1  904.07   17.68
   4   4  -1  931.60   20.40
  -4  -4   1  958.41   17.85
   4   4  -1  961.90   16.73
   4   4  -1  978.38   18.38
   4   4  -1  905.50   17.00
  -4  -4   1  910.61   17.77
   4   4  -1  947.29   16.58
   4   4  -1  914.51   17.03
  -4  -4   1  930.51   16.56
  -4  -4   1  941.89   16.75
  -4  -4   1  924.60   16.64
  -4  -4   0  986.02   17.82
   4   4   0  977.60   19.75
   4   4   0 1005.71   17.32
   4   4   0 1029.79   18.95
  -4  -4   0  955.79   17.67
  -4  -4   0  977.07   17.85
  -4  -4  -1    5.00    0.89
  -4  -4  -1    4.17    0.76
  -4  -4  -1    4.76    0.83
  -4  -4  -2   18.17    1.51
   4   4   2   20.27    1.28
  -4  -4  -2   17.92    1.39
  -4  -4  -2   18.05    1.48
  -4  -4  -3 1326.66   22.33
  -4  -4  -3 1307.70   22.57
  -4  -4  -4  614.24   12.28
  -4  -4  -4  613.46   12.05
  -4  -4  -4  621.76   12.33
  -4  -4  -5  489.74   10.32
   4   4   5  494.80    9.45
   4   4   5  494.27    9.08
  -4  -4  -5  494.49    9.29
  -4  -4  -5  528.15   10.47
  -4  -4  -5  499.14   10.14
   4   4   6  133.63    3.39
  -4  -4  -6  132.94    3.98
   4   4   6  140.15    4.61
  -4  -4  -6  132.65    4.52
  -4  -4  -6  137.83    4.47
  -4  -4  -6  128.40    4.35
  -4  -4  -6  132.11    4.03
  -4  -4  -6  137.97    4.16
  -4  -4  -6  135.69    4.71
  -4  -4  -6  144.77    4.24
  -4  -4  -6  136.06    4.14
  -4  -4  -7  500.54   10.70
  -4  -4  -7  476.36   10.22
   4   4   7  498.83   11.43
  -4  -4  -7  491.55   11.62
  -4  -4  -7  482.50   11.16
  -4  -4  -7  511.04   10.35
  -4  -4  -7  493.45   10.89
  -4  -4  -7  465.66   10.43
  -4  -4  -7  492.30   11.29
  -4  -4  -7  485.48   10.85
  -4  -4  -7  507.97   11.63
  -4  -4  -7  509.01    9.88
  -4  -4  -7  475.52   10.08
  -4  -4  -8  168.47    5.50
  -4  -4  -8  166.72    4.85
  -4  -4  -8  169.21    6.44
  -4  -4  -8  174.65    6.12
  -4  -4  -8  167.67    4.82
  -4  -4  -8  166.12    5.48
   4   4   8  158.21    5.98
  -4  -4  -8  179.70    6.26
   4   4   8  166.97    5.59
  -4  -4  -8  170.05    5.77
  -4  -4  -8  167.89    6.19
  -4  -4  -8  169.48    5.32
  -4  -4  -8  177.25    6.00
  -4  -4  -9  498.46   11.45
   4   4   9  478.28   12.50
  -4  -4  -9  504.14   13.37
  -4  -4  -9  511.90   11.47
  -4  -4  -9  501.76   12.91
   4   4   9  497.62   12.00
  -4  -4  -9  522.31   12.22
  -4  -4  -9  520.18   12.79
  -4  -4  -9  502.21   11.47
  -4  -4  -9  510.81   12.58
  -4  -4 -10   54.99    2.84
   4   4  10   58.35    3.62
  -4  -4 -10   59.05    3.90
  -4  -4 -10   57.28    3.80
   4   4  10   51.43    3.06
  -4  -4 -10   55.72    3.63
  -4  -4 -10   59.34    3.59
  -4  -4 -10   58.88    3.13
  -4  -4 -11   57.73    3.55
  -4  -4 -11   63.35    3.83
  -4  -4 -11   61.04    3.64
  -4  -4 -11   58.74    3.25
  -4  -4 -12  190.34    5.86
  -4  -4 -12  193.74    6.00
  -4  -4 -12  195.87    6.21
  -4  -4 -12  180.31    5.05
  -4  -5   6  153.82    4.02
   4   5  -6  161.32    5.40
   4   5  -6  160.55    5.39
   4   5  -6  165.75    5.43
   4   5  -5  312.48    9.04
   4   5  -5  307.91    8.99
   4   5  -5  297.00    8.90
   4   5  -4  194.32    7.08
  -4  -5   4  193.35    6.42
  -4  -5   4  209.44    6.33
   4   5  -4  202.51    7.22
   4   5  -4  202.91    7.38
   4   5  -3    6.64    1.57
  -4  -5   3    3.74    1.17
   4   5  -3    9.81    1.49
  -4  -5   3   10.70    1.51
   4   5  -3    4.07    1.17
   4   5  -3    2.91    1.09
  -4  -5   2 1367.92   25.87
   4   5  -2 1394.44   26.01
   4   5  -2 1387.85   25.83
  -4  -5   2 1370.75   25.38
   4   5  -2 1389.35   24.56
   4   5  -2 1374.95   25.79
   4   5  -2 1369.49   26.29
   4   5  -2 1352.15   29.14
   4   5  -1  231.43    8.14
   4   5  -1  222.17    6.98
  -4  -5   1  225.87    6.71
   4   5  -1  221.29    6.28
  -4  -5   1  212.87    6.10
   4   5  -1  231.83    6.40
  -4  -5   1  226.28    5.68
  -4  -5   0  811.64   14.82
  -4  -5   0  832.50   15.72
  -4  -5   0  832.61   15.89
  -4  -5   0  846.18   16.28
  -4  -5   0  814.74   14.82
   4   5   0  847.49   16.99
  -4  -5   0  815.50   15.27
  -4  -5  -1  152.33    4.82
  -4  -5  -1  147.50    4.46
   4   5   1  145.27    4.12
  -4  -5  -1  147.24    4.55
  -4  -5  -1  151.44    4.63
   4   5   1  147.88    5.15
  -4  -5  -1  158.62    4.86
  -4  -5  -1  152.37    4.72
  -4  -5  -2   45.04    2.52
  -4  -5  -2   48.45    2.47
   4   5   2   47.15    2.62
  -4  -5  -2   44.40    2.45
   4   5   2   42.61    2.12
  -4  -5  -3 1301.65   23.39
  -4  -5  -3 1262.64   23.08
   4   5   3 1294.07   21.33
   4   5   3 1280.88   23.14
   4   5   3 1287.90   22.42
  -4  -5  -3 1330.43   23.36
  -4  -5  -4 2406.58   41.83
   4   5   4 2610.05   41.67
   4   5   4 2581.86   41.41
  -4  -5  -4 2405.20   41.54
  -4  -5  -4 2484.24   41.88
  -4  -5  -5    5.21    1.04
  -4  -5  -5    4.06    0.90
  -4  -5  -5    3.95    0.83
  -4  -5  -5    4.43    0.89
  -4  -5  -5    6.14    1.03
  -4  -5  -5    4.32    0.88
  -4  -5  -5    3.94    0.83
   4   5   5    4.39    0.73
  -4  -5  -5    3.54    0.84
  -4  -5  -6  191.84    5.58
  -4  -5  -6  187.64    5.75
   4   5   6  189.83    5.22
  -4  -5  -6  191.82    6.02
  -4  -5  -6  196.97    5.49
  -4  -5  -6  179.84    5.42
   4   5   6  199.18    5.28
  -4  -5  -6  187.87    5.75
  -4  -5  -6  185.62    5.57
  -4  -5  -6  188.28    4.96
  -4  -5  -6  182.76    5.13
  -4  -5  -6  178.57    4.84
   4   5   6  197.03    4.54
  -4  -5  -6  186.92    5.17
  -4  -5  -6  191.41    5.95
  -4  -5  -7  814.49   16.23
   4   5   7  778.59   15.43
  -4  -5  -7  771.84   16.62
  -4  -5  -7  794.60   15.66
  -4  -5  -7  766.62   15.38
   4   5   7  785.99   16.34
  -4  -5  -7  773.50   15.87
  -4  -5  -7  775.36   15.91
  -4  -5  -7  747.38   14.84
  -4  -5  -7  782.06   15.57
  -4  -5  -7  770.73   16.31
  -4  -5  -7  769.02   15.24
  -4  -5  -7  762.00   14.77
  -4  -5  -8  871.08   18.14
   4   5   8  894.63   17.85
  -4  -5  -8  895.96   19.42
  -4  -5  -8  908.11   17.92
  -4  -5  -8  870.23   17.08
  -4  -5  -8  879.81   17.89
   4   5   8  854.10   19.83
  -4  -5  -8  871.44   18.34
  -4  -5  -8  867.45   16.90
  -4  -5  -8  881.27   17.99
  -4  -5  -8  903.68   17.93
  -4  -5  -8  849.21   18.52
  -4  -5  -9  345.48    9.42
   4   5   9  330.83    9.27
  -4  -5  -9  342.64   10.74
  -4  -5  -9  365.75    9.89
  -4  -5  -9  327.91    8.09
  -4  -5  -9  337.29    9.16
   4   5   9  317.17   11.63
  -4  -5  -9  365.01   10.34
   4   5   9  328.95    8.84
  -4  -5  -9  353.93    9.29
  -4  -5  -9  346.49   10.03
  -4  -5 -10    9.11    1.42
   4   5  10    4.51    1.24
  -4  -5 -10    2.44    1.27
   4   5  10    5.78    2.43
  -4  -5 -10    5.46    1.36
   4   5  10    5.57    1.20
  -4  -5 -10    3.76    1.19
  -4  -5 -10    5.18    1.30
  -4  -5 -11    7.17    1.16
  -4  -5 -11    8.62    1.66
  -4  -5 -11    5.95    1.35
  -4  -5 -11    5.81    1.24
  -4  -5 -11    9.43    1.54
  -4  -5 -12  277.25    7.48
  -4  -5 -12  273.97    7.68
  -4  -5 -12  275.50    7.80
  -4  -5 -12  268.11    6.69
   4   6  -5   54.43    2.98
   4   6  -5   54.92    3.00
   4   6  -5   49.89    2.99
  -4  -6   4  127.09    4.76
   4   6  -4  140.53    5.54
   4   6  -4  133.51    5.44
   4   6  -4  136.82    5.72
  -4  -6   3  401.91   10.51
   4   6  -3  404.33   10.21
   4   6  -3  395.36   10.77
   4   6  -3  417.95   10.99
   4   6  -3  410.38   11.37
   4   6  -2  713.39   15.86
   4   6  -2  681.83   15.51
   4   6  -2  676.49   15.48
   4   6  -2  710.08   17.56
   4   6  -1  175.36    7.02
  -4  -6   1  157.51    5.85
   4   6  -1  156.76    6.02
   4   6  -1  150.91    5.43
   4   6  -1  155.82    5.52
  -4  -6   0   16.05    1.44
  -4  -6   0   15.32    1.68
  -4  -6   0   14.05    1.67
  -4  -6   0   15.80    1.41
   4   6   0   15.13    1.86
  -4  -6   0   16.06    1.55
   4   6   0   14.45    1.39
   4   6   0   16.73    1.46
  -4  -6  -1 1029.62   19.84
  -4  -6  -1 1010.30   19.20
  -4  -6  -1 1020.38   19.24
  -4  -6  -1 1072.70   19.93
  -4  -6  -1 1039.50   19.24
   4   6   1 1025.06   20.48
  -4  -6  -1 1023.89   18.34
  -4  -6  -2  452.81   10.71
  -4  -6  -2  445.28   10.23
  -4  -6  -2  459.20   10.20
   4   6   2  463.08   10.44
  -4  -6  -2  439.24    9.70
  -4  -6  -2  427.26    9.98
  -4  -6  -2  444.06    9.03
  -4  -6  -2  432.57    9.81
   4   6   2  445.43   10.65
  -4  -6  -2  428.33    9.99
  -4  -6  -3  111.19    4.51
  -4  -6  -3  112.55    4.04
   4   6   3  103.59    4.06
  -4  -6  -3  108.11    4.01
  -4  -6  -3   97.14    3.87
  -4  -6  -3  107.16    3.92
  -4  -6  -3  101.93    3.68
  -4  -6  -3  108.90    3.77
  -4  -6  -3  105.42    4.08
   4   6   3  105.55    4.13
  -4  -6  -3  112.50    4.13
  -4  -6  -3   94.55    3.42
  -4  -6  -4 1681.97   30.99
  -4  -6  -4 1790.52   30.47
  -4  -6  -4 1723.52   30.21
  -4  -6  -4 1761.59   30.39
   4   6   4 1721.90   30.50
  -4  -6  -4 1740.38   30.26
  -4  -6  -4 1719.49   29.59
  -4  -6  -4 1704.64   30.17
  -4  -6  -4 1726.25   29.00
  -4  -6  -4 1705.17   28.86
   4   6   4 1712.82   29.85
  -4  -6  -4 1793.60   30.37
  -4  -6  -4 1723.76   29.65
  -4  -6  -4 1726.72   29.86
  -4  -6  -5    8.11    1.34
   4   6   5    6.93    1.21
  -4  -6  -5    8.43    1.17
  -4  -6  -5    8.92    1.29
  -4  -6  -5    7.92    1.24
  -4  -6  -5    8.45    1.24
  -4  -6  -5    5.93    0.92
  -4  -6  -5    8.19    1.25
  -4  -6  -5    6.56    1.11
   4   6   5    6.86    0.91
  -4  -6  -5    6.76    1.08
  -4  -6  -5    9.22    1.06
  -4  -6  -5    7.22    1.17
  -4  -6  -6    5.16    1.17
  -4  -6  -6    6.29    1.23
  -4  -6  -6    5.60    1.15
   4   6   6    6.41    1.31
  -4  -6  -6    9.03    1.20
  -4  -6  -6    6.38    1.26
  -4  -6  -6    7.45    1.29
  -4  -6  -6    4.11    0.80
  -4  -6  -6    7.74    1.32
  -4  -6  -6    3.88    0.92
  -4  -6  -6    3.65    1.00
  -4  -6  -6    4.40    0.79
  -4  -6  -6    4.22    0.96
  -4  -6  -7  109.02    4.14
  -4  -6  -7  101.66    3.81
  -4  -6  -7  107.80    4.82
  -4  -6  -7  107.82    4.16
  -4  -6  -7  103.01    4.52
  -4  -6  -7   98.30    4.30
  -4  -6  -7  107.73    4.44
  -4  -6  -7   99.85    3.71
  -4  -6  -7  107.03    4.30
  -4  -6  -7  108.74    4.23
  -4  -6  -7  104.39    4.85
  -4  -6  -7  107.89    4.76
  -4  -6  -7  107.22    4.05
  -4  -6  -8   20.30    2.10
  -4  -6  -8   23.49    2.42
  -4  -6  -8   19.96    1.84
   4   6   8   17.55    1.53
  -4  -6  -8   22.86    2.54
  -4  -6  -8   20.27    1.95
  -4  -6  -8   20.79    2.24
  -4  -6  -8   19.37    1.94
  -4  -6  -8   20.17    1.92
  -4  -6  -8   20.46    2.28
  -4  -6  -8   21.99    2.02
  -4  -6  -8   18.62    1.86
  -4  -6  -9  107.26    5.25
  -4  -6  -9  104.70    3.98
  -4  -6  -9  107.08    5.62
  -4  -6  -9  102.59    4.37
  -4  -6  -9  111.28    4.43
  -4  -6  -9  109.00    4.96
  -4  -6  -9  110.15    5.18
  -4  -6  -9  108.92    5.20
  -4  -6  -9  115.58    4.87
  -4  -6  -9  108.41    4.81
  -4  -6 -10    6.21    1.36
  -4  -6 -10    6.19    1.61
  -4  -6 -10    3.96    0.88
  -4  -6 -10    7.07    1.48
  -4  -6 -10    7.87    1.54
  -4  -6 -10    7.04    1.31
  -4  -6 -10    6.51    1.33
  -4  -6 -11    4.94    1.09
  -4  -6 -11    2.37    1.19
  -4  -6 -11    2.50    1.10
  -4  -6 -11    2.34    0.95
  -4  -6 -11    3.36    0.80
  -4  -6 -12   63.86    2.65
  -4  -6 -12   67.83    3.44
  -4  -6 -12   70.86    3.46
  -4  -6 -12   71.52    2.92
   4   7  -4   43.00    2.57
   4   7  -4   44.70    2.62
   4   7  -4   47.44    2.93
  -4  -7   3  191.87    6.30
   4   7  -3  190.80    6.43
   4   7  -3  190.10    6.95
   4   7  -3  198.87    6.55
  -4  -7   2  488.84   12.31
   4   7  -2  500.84   12.37
   4   7  -2  496.32   12.04
   4   7  -2  492.92   12.03
   4   7  -1  173.43    6.88
  -4  -7   1  171.09    6.58
   4   7  -1  176.41    6.66
   4   7  -1  175.16    6.04
   4   7  -1  170.17    5.97
  -4  -7   0  188.66    5.83
  -4  -7   0  189.97    6.83
  -4  -7   0  182.74    5.60
   4   7   0  185.51    6.87
   4   7   0  177.75    5.68
   4   7   0  182.01    5.75
  -4  -7   0  182.52    5.58
  -4  -7  -1  995.38   19.73
  -4  -7  -1  965.23   19.08
  -4  -7  -1  956.31   18.83
  -4  -7  -1  994.68   18.57
  -4  -7  -1  999.06   20.25
  -4  -7  -1  986.48   20.25
  -4  -7  -1  970.42   19.10
   4   7   1  953.64   20.27
  -4  -7  -2 1738.30   31.21
  -4  -7  -2 1716.80   30.45
   4   7   2 1702.79   31.21
  -4  -7  -2 1673.87   30.01
  -4  -7  -2 1634.40   30.15
  -4  -7  -2 1658.95   30.33
  -4  -7  -2 1675.90   28.65
  -4  -7  -2 1648.21   29.60
  -4  -7  -2 1689.71   30.35
   4   7   2 1600.67   30.62
  -4  -7  -3  174.95    6.50
  -4  -7  -3  179.10    6.19
  -4  -7  -3  176.48    5.75
   4   7   3  172.72    6.46
  -4  -7  -3  177.33    5.98
  -4  -7  -3  184.07    6.03
  -4  -7  -3  189.68    5.83
  -4  -7  -3  176.63    5.64
   4   7   3  172.40    5.93
  -4  -7  -3  173.40    6.09
  -4  -7  -4  266.43    8.45
  -4  -7  -4  287.14    8.26
  -4  -7  -4  278.08    7.82
   4   7   4  275.90    8.51
  -4  -7  -4  277.63    8.06
  -4  -7  -4  293.07    8.04
  -4  -7  -4  306.88    7.55
  -4  -7  -4  266.49    7.19
  -4  -7  -4  286.45    7.93
  -4  -7  -4  267.12    6.86
   4   7   4  277.19    7.47
  -4  -7  -4  277.31    8.07
  -4  -7  -4  281.51    7.70
  -4  -7  -5  250.51    7.86
  -4  -7  -5  241.80    7.43
  -4  -7  -5  242.94    7.53
  -4  -7  -5  233.50    7.40
   4   7   5  240.90    7.91
  -4  -7  -5  248.26    6.66
  -4  -7  -5  248.21    7.09
  -4  -7  -5  243.95    7.49
  -4  -7  -5  242.28    7.36
   4   7   5  238.02    6.31
  -4  -7  -5  244.04    7.44
  -4  -7  -5  253.19    7.41
  -4  -7  -5  250.16    6.91
  -4  -7  -6  433.34   10.55
  -4  -7  -6  421.13   11.20
  -4  -7  -6  437.66   10.99
  -4  -7  -6  431.26   10.96
   4   7   6  414.36   11.49
  -4  -7  -6  418.83   10.98
  -4  -7  -6  405.39    9.56
  -4  -7  -6  426.34   10.76
  -4  -7  -6  412.50   10.85
  -4  -7  -6  438.94    9.66
  -4  -7  -6  435.26   10.46
  -4  -7  -6  420.68   10.88
  -4  -7  -6  416.35   10.18
  -4  -7  -7 1723.48   30.45
  -4  -7  -7 1696.44   32.55
  -4  -7  -7 1743.35   31.33
  -4  -7  -7 1695.35   29.84
  -4  -7  -7 1663.83   31.60
  -4  -7  -7 1674.54   31.61
  -4  -7  -7 1757.00   30.96
  -4  -7  -7 1711.76   30.82
  -4  -7  -7 1680.02   30.26
  -4  -7  -7 1708.46   32.00
  -4  -7  -7 1690.34   30.94
   4   7   7 1720.23   33.16
  -4  -7  -7 1720.28   32.30
  -4  -7  -8  276.11    7.12
  -4  -7  -8  296.17    9.59
   4   7   8  245.91    9.24
  -4  -7  -8  301.83    9.64
  -4  -7  -8  268.70    7.27
  -4  -7  -8  247.94    8.13
  -4  -7  -8  275.23    8.36
  -4  -7  -8  271.80    7.03
  -4  -7  -8  278.77    7.19
  -4  -7  -8  280.68    8.01
  -4  -7  -8  300.51    9.26
  -4  -7  -8  280.52    8.83
  -4  -7  -8  276.28    8.26
  -4  -7  -9  460.90   13.06
  -4  -7  -9  450.71   12.85
  -4  -7  -9  445.48   10.49
   4   7   9  445.36   13.14
  -4  -7  -9  460.25   12.06
  -4  -7  -9  452.95   11.20
  -4  -7  -9  458.28   12.27
  -4  -7  -9  454.16   11.53
  -4  -7 -10  491.16   13.03
  -4  -7 -10  485.72   13.24
  -4  -7 -10  499.01   12.75
  -4  -7 -10  481.55   10.93
  -4  -7 -10  497.16   12.48
  -4  -7 -10  496.36   11.83
  -4  -7 -11  581.18   13.45
  -4  -7 -11  601.12   14.12
  -4  -7 -11  590.95   13.68
  -4  -7 -11  581.61   13.00
  -4  -7 -11  568.89   12.05
  -4  -7 -12   29.66    1.88
  -4  -7 -12   32.70    2.25
  -4  -7 -12   31.74    2.17
  -4  -7 -12   30.98    1.83
  -4  -8   3   41.20    2.67
  -4  -8   3   35.61    2.17
   4   8  -3   39.54    2.26
   4   8  -3   36.41    2.18
   4   8  -3   39.68    2.62
  -4  -8   2  200.72    6.63
  -4  -8   2  209.83    7.28
   4   8  -2  205.35    6.32
   4   8  -2  201.38    6.29
   4   8  -2  197.98    7.04
  -4  -8   1  230.65    8.15
  -4  -8   1  225.61    7.66
   4   8  -1  236.60    7.06
   4   8  -1  229.90    7.00
   4   8   0    4.74    1.29
  -4  -8   0    6.02    1.11
  -4  -8   0    6.40    1.51
  -4  -8   0    3.99    1.29
   4   8   0    3.54    1.25
  -4  -8   0    5.49    1.06
  -4  -8  -1   32.79    2.57
  -4  -8  -1   31.83    2.50
  -4  -8  -1   32.69    2.30
  -4  -8  -1   37.59    2.91
  -4  -8  -1   30.09    2.79
  -4  -8  -1   31.09    2.43
   4   8   1   30.05    2.71
  -4  -8  -2 1622.97   30.84
  -4  -8  -2 1637.86   30.60
  -4  -8  -2 1600.01   29.17
  -4  -8  -2 1620.72   29.91
  -4  -8  -2 1653.87   30.07
  -4  -8  -2 1665.98   30.56
   4   8   2 1564.00   30.56
  -4  -8  -3  131.80    5.89
  -4  -8  -3  138.71    5.88
  -4  -8  -3  129.31    5.07
   4   8   3  132.12    6.19
  -4  -8  -3  127.83    5.49
  -4  -8  -3  132.37    5.42
  -4  -8  -3  138.69    5.09
  -4  -8  -3  135.99    5.05
  -4  -8  -3  136.28    5.04
  -4  -8  -3  138.49    5.84
   4   8   3  123.39    5.22
  -4  -8  -4   45.64    3.46
  -4  -8  -4   45.40    3.40
  -4  -8  -4   47.25    3.11
  -4  -8  -4   49.23    3.41
  -4  -8  -4   43.89    3.12
   4   8   4   45.82    3.69
  -4  -8  -4   50.06    3.23
  -4  -8  -4   47.71    2.74
  -4  -8  -4   51.29    2.64
  -4  -8  -4   45.90    3.37
   4   8   4   41.40    2.74
  -4  -8  -5  277.13    9.06
  -4  -8  -5  286.29    8.98
  -4  -8  -5  282.65    8.58
   4   8   5  273.27    9.52
  -4  -8  -5  272.72    8.85
  -4  -8  -5  278.10    8.56
  -4  -8  -5  286.64    7.43
  -4  -8  -5  287.80    8.90
  -4  -8  -5  274.34    8.75
   4   8   5  279.39    7.18
  -4  -8  -6  370.40   10.43
  -4  -8  -6  370.12   10.32
  -4  -8  -6  356.26   10.41
  -4  -8  -6  362.41   10.48
   4   8   6  353.65   11.15
  -4  -8  -6  362.48   10.28
  -4  -8  -6  369.67    8.61
  -4  -8  -6  351.86   10.49
  -4  -8  -6  368.57   10.15
  -4  -8  -6  349.25   10.22
  -4  -8  -6  358.58    9.72
  -4  -8  -7 2097.17   37.24
  -4  -8  -7 2085.71   37.24
  -4  -8  -7 2073.53   38.91
  -4  -8  -7 2100.27   37.92
   4   8   7 2027.72   39.50
  -4  -8  -7 2098.58   38.29
  -4  -8  -7 2136.68   38.55
  -4  -8  -7 2070.22   36.59
  -4  -8  -7 2049.71   36.97
  -4  -8  -7 2124.26   38.39
  -4  -8  -7 2016.51   37.20
  -4  -8  -8  329.12    8.28
  -4  -8  -8  328.48    8.66
  -4  -8  -8  351.78   11.04
  -4  -8  -8  337.34    9.50
  -4  -8  -8  339.44   10.08
  -4  -8  -8  351.21    9.56
  -4  -8  -8  326.71    8.54
   4   8   8  327.80   10.84
  -4  -8  -8  336.87   10.26
  -4  -8  -8  342.60    9.72
  -4  -8  -8  344.24   10.38
  -4  -8  -9    1.85    1.34
  -4  -8  -9    2.94    1.40
   4   8   9    1.83    1.30
  -4  -8  -9    2.31    1.11
  -4  -8  -9    2.42    1.13
  -4  -8  -9    2.51    1.37
  -4  -8  -9    2.52    0.96
  -4  -8  -9    2.32    0.94
  -4  -8 -10  132.37    5.93
  -4  -8 -10  132.55    5.39
  -4  -8 -10  125.63    5.59
  -4  -8 -10  134.04    5.48
  -4  -8 -10  130.08    5.00
  -4  -8 -10  127.95    4.77
  -4  -8 -11  587.51   13.32
  -4  -8 -11  582.76   13.25
  -4  -8 -11  580.94   12.69
  -4  -8 -11  595.34   13.07
  -4  -8 -12   64.57    2.71
  -4  -8 -12   63.19    2.79
  -4  -8 -12   62.71    2.71
   4   9  -2    9.19    1.28
  -4  -9   2    8.58    1.15
  -4  -9   2    6.80    1.00
  -4  -9   1  364.51    9.35
  -4  -9   1  359.49    9.49
  -4  -9   0  126.47    5.14
  -4  -9   0  120.65    5.37
  -4  -9   0  116.95    3.75
  -4  -9  -1  157.03    5.51
  -4  -9  -1  164.34    5.11
  -4  -9  -1  158.80    5.84
  -4  -9  -1  163.07    6.64
  -4  -9  -1  158.40    5.54
  -4  -9  -2  283.07    8.60
  -4  -9  -2  305.53    9.07
  -4  -9  -2  288.42    7.52
  -4  -9  -2  302.21    8.57
  -4  -9  -2  305.01    8.36
  -4  -9  -2  300.87    9.62
  -4  -9  -2  295.49    8.58
  -4  -9  -2  295.74    8.97
   4   9   2  273.06    8.64
  -4  -9  -3  237.11    8.19
  -4  -9  -3  237.81    8.37
  -4  -9  -3  236.86    6.92
  -4  -9  -3  227.54    8.00
  -4  -9  -3  241.52    6.94
  -4  -9  -3  239.45    6.94
  -4  -9  -3  232.07    8.23
   4   9   3  217.52    7.27
  -4  -9  -3  240.96    6.92
  -4  -9  -4   33.22    3.11
  -4  -9  -4   34.99    2.63
  -4  -9  -4   33.24    3.05
  -4  -9  -4   37.32    2.91
   4   9   4   28.15    3.01
  -4  -9  -4   35.49    2.28
  -4  -9  -4   35.47    2.77
  -4  -9  -4   31.43    2.90
  -4  -9  -4   36.48    3.23
   4   9   4   36.20    2.46
  -4  -9  -5  531.02   13.78
  -4  -9  -5  530.38   14.11
  -4  -9  -5  521.99   12.76
   4   9   5  491.78   14.59
  -4  -9  -5  535.35   14.06
  -4  -9  -5  549.75   13.07
  -4  -9  -5  513.97   13.48
  -4  -9  -5  526.25   13.94
  -4  -9  -6  114.12    5.39
  -4  -9  -6  116.39    5.61
  -4  -9  -6  117.34    5.37
   4   9   6  120.61    6.40
  -4  -9  -6  120.37    5.78
  -4  -9  -6  122.24    5.38
  -4  -9  -6  119.19    5.82
  -4  -9  -6  122.60    5.68
  -4  -9  -7  354.92    9.88
  -4  -9  -7  376.32   10.47
  -4  -9  -7  381.60   10.99
  -4  -9  -7  396.25   10.99
  -4  -9  -7  376.19   10.43
  -4  -9  -7  362.52   11.01
  -4  -9  -7  368.40    9.19
  -4  -9  -7  371.80   10.27
   4   9   7  351.19   11.75
  -4  -9  -8  424.62   10.54
  -4  -9  -8  442.96   12.21
  -4  -9  -8  426.52   11.20
  -4  -9  -8  444.71   11.53
  -4  -9  -8  423.81   11.80
  -4  -9  -8  417.99   10.45
  -4  -9  -8  421.22   10.37
  -4  -9  -8  432.89   11.27
  -4  -9  -9    3.18    1.33
  -4  -9  -9    2.73    0.93
  -4  -9  -9    3.26    1.24
  -4  -9  -9    1.81    1.08
  -4  -9  -9    3.36    0.96
  -4  -9  -9    3.89    1.15
  -4  -9 -10   59.81    3.04
  -4  -9 -10   58.97    3.33
  -4  -9 -10   58.54    3.08
  -4  -9 -10   58.74    3.56
  -4  -9 -10   61.23    3.00
  -4  -9 -11  724.36   14.77
  -4  -9 -11  719.19   14.36
  -4  -9 -11  732.56   14.14
  -4 -10   0  320.90    7.15
  -4 -10   0  327.29    8.36
  -4 -10   0  315.14    7.70
  -4 -10  -1  284.01    6.84
  -4 -10  -1  293.41    7.00
  -4 -10  -1  294.53    8.54
  -4 -10  -1  288.40    7.45
  -4 -10  -1  293.96    6.98
  -4 -10  -2  144.00    5.36
  -4 -10  -2  150.77    5.08
  -4 -10  -2  150.71    4.54
  -4 -10  -2  163.06    6.24
  -4 -10  -2  156.68    4.83
  -4 -10  -2  142.20    5.33
  -4 -10  -3   44.94    3.25
  -4 -10  -3   44.60    3.13
  -4 -10  -3   48.56    3.44
  -4 -10  -3   48.92    3.39
  -4 -10  -4    8.89    1.32
  -4 -10  -4   10.53    1.80
  -4 -10  -4    9.96    1.89
  -4 -10  -4    9.69    1.62
  -4 -10  -4   10.47    1.48
  -4 -10  -4   13.50    2.07
  -4 -10  -5  699.57   16.78
  -4 -10  -5  674.12   14.26
  -4 -10  -5  675.59   16.52
  -4 -10  -5  666.24   15.45
  -4 -10  -5  672.42   16.54
  -4 -10  -6  204.78    7.60
  -4 -10  -6  216.50    6.75
  -4 -10  -6  200.73    7.55
  -4 -10  -6  189.90    7.35
  -4 -10  -6  208.92    6.63
  -4 -10  -6  195.80    6.04
  -4 -10  -6  197.13    7.38
  -4 -10  -7    9.85    1.63
  -4 -10  -7   11.02    1.72
  -4 -10  -7   10.72    1.76
  -4 -10  -7   10.61    1.61
  -4 -10  -7    9.69    1.86
  -4 -10  -7   10.43    1.68
  -4 -10  -8  146.90    5.18
  -4 -10  -8  153.00    5.74
  -4 -10  -8  153.92    5.66
  -4 -10  -8  145.49    5.95
  -4 -10  -8  150.26    5.09
  -4 -10  -8  157.06    5.38
  -4 -10  -9  124.24    4.31
  -4 -10  -9  124.61    4.92
  -4 -10  -9  130.73    4.99
  -4 -10  -9  124.97    4.44
  -4 -10 -10   78.99    3.46
  -4 -10 -10   72.24    2.92
  -4 -10 -10   74.59    3.07
  -4 -11  -2  157.12    4.18
  -4 -11  -2  163.00    4.29
  -4 -11  -3   17.88    1.63
  -4 -11  -3   17.50    1.50
  -4 -11  -3   17.72    1.71
  -4 -11  -3   16.08    1.58
  -4 -11  -4   13.81    1.65
  -4 -11  -4   11.10    1.48
  -4 -11  -4   11.49    1.45
  -4 -11  -4   14.55    1.73
  -4 -11  -5  243.08    7.59
  -4 -11  -5  234.06    7.43
  -4 -11  -5  239.89    6.38
  -4 -11  -5  247.78    6.65
  -4 -11  -5  243.18    7.52
  -4 -11  -6  676.72   14.77
  -4 -11  -6  650.29   12.56
  -4 -11  -6  672.06   14.81
  -4 -11  -6  683.84   14.25
  -4 -11  -6  689.15   14.75
  -4 -11  -7   26.46    2.08
  -4 -11  -7   27.96    2.21
  -4 -11  -7   29.38    2.31
  -4 -11  -7   27.94    2.07
  -4 -11  -7   27.46    1.76
  -4 -11  -8    3.84    0.87
  -4 -11  -8    5.15    0.95
  -4 -11  -8    6.14    1.15
  -4 -11  -8    4.35    0.77
  -4 -11  -8    3.45    0.74
   5  -6  -4   54.97    2.74
   5  -6  -4   53.51    2.43
   5  -6  -4   56.25    2.77
   5  -6  -3   95.17    3.94
   5  -6  -3   85.37    3.55
   5  -6  -3   85.09    3.19
  -5   6   3   84.98    3.04
   5  -6  -3   94.73    3.94
  -5   6   3   85.09    3.12
  -5   6   2   79.50    3.38
   5  -6  -2   79.86    3.77
  -5   6   2   78.27    3.40
   5  -6  -2   81.74    3.64
   5  -6  -2   82.90    3.53
   5  -6  -2   82.35    3.82
   5  -6  -1   13.92    1.65
   5  -6  -1   15.91    1.67
  -5   6   1   14.77    1.62
   5  -6  -1   13.81    1.58
   5  -6  -1   13.44    1.61
   5  -6   0  312.24    8.07
  -5   6   0  310.12    8.26
   5  -6   0  313.52    8.31
  -5   6  -1  263.22    7.22
   5  -6   1  279.58    7.04
   5  -6   1  284.76    7.53
  -5   6  -1  275.70    6.93
  -5   6  -1  277.09    7.34
  -5   6  -2    8.13    1.05
   5  -6   2    8.23    0.92
   5  -6   2    9.19    1.15
  -5   6  -2   10.38    1.10
  -5   6  -2    8.27    1.08
   5  -6   3    9.31    0.93
  -5   6  -3    9.81    1.24
  -5   6  -3   10.40    0.90
   5  -5  -5  304.84    7.20
   5  -5  -5  335.87    8.31
   5  -5  -5  295.87    6.77
   5  -5  -5  322.02    8.20
   5  -5  -4    6.84    1.03
   5  -5  -4    4.86    0.93
   5  -5  -4    5.89    1.23
   5  -5  -4    5.10    1.21
   5  -5  -3    8.31    1.15
  -5   5   3    7.59    1.18
   5  -5  -3    8.60    1.37
   5  -5  -3    8.44    1.18
   5  -5  -3    8.97    1.51
   5  -5  -3    9.69    1.56
  -5   5   3    5.15    1.03
   5  -5  -2  419.83   11.16
   5  -5  -2  409.96   11.11
  -5   5   2  415.21   10.67
   5  -5  -2  416.49    9.49
   5  -5  -1  124.58    5.36
   5  -5  -1  121.31    5.31
   5  -5   0    9.09    1.64
   5  -5   0   11.09    1.73
  -5   5   0   14.27    2.06
   5  -5   1  316.53    9.30
   5  -5   1  304.15    9.19
  -5   5  -1  325.74    9.54
  -5   5  -2    5.44    1.28
  -5   5  -3  255.99    7.10
  -5   5  -3  270.50    7.19
   5  -5   3  262.70    6.45
   5  -5   3  257.62    7.11
  -5   5  -3  267.87    7.80
  -5   5  -4  147.08    5.11
   5  -5   4  139.95    4.13
  -5   5  -4  150.67    5.77
  -5   5  -5   66.08    3.35
  -5   5  -5   71.24    3.04
  -5   5  -5   71.31    3.05
  -5   5  -5   63.60    2.83
   5  -4  -6  202.65    5.62
   5  -4  -6  204.24    6.22
   5  -4  -6  204.79    6.22
   5  -4  -5  498.93   11.21
   5  -4  -5  524.20   12.45
   5  -4  -5  488.12   10.19
   5  -4  -5  532.48   12.52
   5  -4  -4   28.98    2.16
   5  -4  -4   31.46    2.73
   5  -4  -4   28.58    2.14
   5  -4  -4   27.76    1.74
   5  -4  -4   32.51    2.76
   5  -4  -3    4.63    1.23
   5  -4  -3    6.10    1.13
  -5   4   3    6.10    1.29
  -5   4   3    6.85    1.43
   5  -4  -3    5.90    1.45
   5  -4  -3    5.95    1.41
  -5   4   3    3.10    1.38
  -5   4   3    5.67    1.16
  -5   4   2  597.79   13.89
   5  -4  -2  583.41   14.52
  -5   4   2  611.55   14.04
  -5   4   2  611.50   14.46
   5  -4  -2  598.21   12.84
   5  -4  -2  591.46   14.59
   5  -4  -2  602.48   13.63
  -5   4   2  606.87   14.93
  -5   4   1 1589.12   30.10
   5  -4  -1 1508.86   29.73
  -5   4   1 1573.85   29.39
   5  -4  -1 1517.01   29.75
  -5   4   1 1540.42   29.87
  -5   4   1 1568.94   30.63
   5  -4  -1 1544.72   27.47
  -5   4   0   62.74    4.06
   5  -4   0   55.36    3.60
  -5   4   0   55.79    3.49
   5  -4   0   48.04    3.40
  -5   4   0   56.51    3.53
  -5   4   0   53.14    4.05
  -5   4  -1  164.58    5.73
   5  -4   1  156.17    6.20
  -5   4  -1  163.86    6.69
  -5   4  -1  159.42    6.92
   5  -4   1  155.80    6.22
  -5   4  -1  155.78    5.56
   5  -4   2   14.37    1.89
   5  -4   2   12.72    1.41
  -5   4  -2   10.45    1.69
   5  -4   2   13.51    1.84
  -5   4  -2   12.54    1.90
  -5   4  -2   18.03    2.35
  -5   4  -3  424.87   10.46
  -5   4  -3  412.66   10.78
  -5   4  -4  670.93   14.20
  -5   4  -4  668.65   14.12
  -5   4  -4  685.51   15.76
  -5   4  -5    2.82    1.09
  -5   4  -5    2.15    0.95
  -5   4  -6    5.57    1.27
  -5   4  -6    6.78    1.20
  -5   4  -6    6.90    1.05
  -5   4  -6    5.40    0.95
  -5   4  -7  276.18    7.39
  -5   4  -7  270.33    6.99
  -5   4  -7  253.44    6.59
   5  -3  -7  248.55    6.25
   5  -3  -7  272.16    6.98
   5  -3  -7  263.04    6.91
   5  -3  -6   93.64    3.88
   5  -3  -6   91.60    4.34
   5  -3  -6   93.01    4.36
   5  -3  -5  495.95   11.76
   5  -3  -5  531.81   13.16
   5  -3  -5  524.23   13.12
   5  -3  -4  695.38   14.83
  -5   3   4  672.05   15.58
   5  -3  -4  710.63   16.42
  -5   3   4  702.91   14.50
   5  -3  -4  683.47   14.55
   5  -3  -4  722.28   16.51
   5  -3  -4  686.93   15.16
   5  -3  -4  671.32   14.46
   5  -3  -3  152.26    5.33
  -5   3   3  160.48    6.69
  -5   3   3  149.83    4.92
   5  -3  -3  157.16    6.37
  -5   3   3  146.40    5.62
   5  -3  -3  144.62    5.40
   5  -3  -3  151.74    6.29
  -5   3   3  147.01    5.18
   5  -3  -3  148.07    5.76
  -5   3   3  136.71    5.13
   5  -3  -3  142.06    5.25
   5  -3  -2  393.38    9.49
  -5   3   2  388.18   10.45
   5  -3  -2  425.74   11.39
  -5   3   2  393.19   10.49
   5  -3  -2  391.57    9.95
   5  -3  -2  432.33   11.47
   5  -3  -2  385.59   10.46
  -5   3   2  401.02   11.90
  -5   3   2  416.15   11.02
   5  -3  -2  379.27    9.62
   5  -3  -1 1319.45   23.78
  -5   3   1 1337.55   26.68
   5  -3  -1 1323.44   26.00
  -5   3   1 1326.42   25.70
   5  -3  -1 1353.86   24.88
   5  -3  -1 1315.49   25.99
   5  -3  -1 1315.52   25.24
  -5   3   1 1366.59   27.43
  -5   3   1 1347.19   27.16
   5  -3  -1 1326.01   24.05
  -5   3   0   78.52    4.98
  -5   3   0   83.16    4.89
   5  -3   0   84.86    4.30
  -5   3   0   87.49    4.33
   5  -3   0   82.96    3.68
   5  -3   0   88.85    3.88
   5  -3   0   78.11    4.12
   5  -3   0   80.62    3.69
  -5   3   0   85.33    4.68
  -5   3  -1  194.72    7.61
   5  -3   1  179.03    5.97
  -5   3  -1  196.45    6.81
   5  -3   1  176.14    6.43
  -5   3  -1  179.19    7.57
   5  -3   1  188.13    5.94
   5  -3   1  180.76    6.49
  -5   3  -1  195.37    6.58
   5  -3   1  190.19    5.36
  -5   3  -1  188.11    6.66
  -5   3  -2   44.85    3.18
   5  -3   2   41.97    2.92
  -5   3  -2   48.05    3.60
   5  -3   2   46.53    2.93
   5  -3   2   43.73    2.61
   5  -3   2   44.36    2.99
  -5   3  -2   49.50    2.93
  -5   3  -2   45.07    3.68
   5  -3   3  213.86    7.02
  -5   3  -3  213.50    7.39
  -5   3  -3  217.68    7.74
  -5   3  -4 1047.66   21.01
  -5   3  -4 1019.54   20.88
   5  -3   4 1027.05   20.90
   5  -3   4 1017.67   20.97
   5  -3   5   85.55    4.25
  -5   3  -5   87.82    3.64
   5  -3   5   85.45    4.13
  -5   3  -5   87.91    3.58
  -5   3  -5   89.66    4.78
  -5   3  -5   88.98    3.61
  -5   3  -6   68.12    4.18
  -5   3  -6   66.10    3.37
  -5   3  -6   66.30    3.03
  -5   3  -6   69.64    3.47
  -5   3  -6   64.02    3.91
  -5   3  -7  148.28    5.94
  -5   3  -7  148.62    4.63
  -5   3  -7  141.50    4.57
  -5   3  -7  146.18    4.49
  -5   3  -7  152.12    5.77
  -5   3  -8  505.87   11.67
  -5   3  -8  513.56   11.57
  -5   3  -8  505.90   11.20
  -5   3  -8  497.88   11.24
   5  -2  -7  769.73   15.69
  -5   2   7  755.87   14.44
   5  -2  -7  768.08   15.70
   5  -2  -7  780.39   15.49
   5  -2  -6   18.88    2.08
  -5   2   6   19.23    1.70
   5  -2  -6   15.23    1.91
   5  -2  -6   15.48    1.84
   5  -2  -6   14.59    1.25
   5  -2  -5   11.88    1.54
   5  -2  -5   11.62    1.56
  -5   2   5   12.36    1.47
   5  -2  -5   13.29    1.95
   5  -2  -5   11.87    1.81
   5  -2  -5   12.41    1.70
   5  -2  -5   11.67    1.53
   5  -2  -4   44.87    3.37
  -5   2   4   40.50    2.58
  -5   2   4   45.20    3.20
   5  -2  -4   39.20    2.82
  -5   2   4   35.32    2.35
   5  -2  -4   36.89    3.06
  -5   2   4   41.37    2.46
   5  -2  -4   44.01    3.01
   5  -2  -4   39.47    2.86
   5  -2  -4   40.99    2.88
  -5   2   3  210.69    6.18
  -5   2   3  221.83    6.10
   5  -2  -3  198.12    7.37
   5  -2  -3  220.49    7.23
  -5   2   3  226.79    6.04
   5  -2  -3  207.87    7.51
  -5   2   3  209.31    6.46
   5  -2  -3  224.87    6.99
   5  -2  -3  216.56    7.37
  -5   2   3  228.52    7.03
  -5   2   3  227.40    8.07
  -5   2   3  210.43    6.32
   5  -2  -3  215.30    7.12
  -5   2   2   30.68    2.38
  -5   2   2   29.40    2.39
   5  -2  -2   30.49    2.58
  -5   2   2   30.50    2.54
   5  -2  -2   34.12    2.62
   5  -2  -2   28.96    2.53
  -5   2   2   33.92    2.43
   5  -2  -2   29.73    2.21
   5  -2  -2   28.78    2.58
  -5   2   2   35.50    3.34
  -5   2   2   25.49    2.27
  -5   2   1  263.18    8.35
   5  -2  -1  255.92    7.72
  -5   2   1  257.22    7.61
   5  -2  -1  245.43    7.62
   5  -2  -1  258.21    7.75
   5  -2  -1  243.52    7.70
  -5   2   1  261.45    9.13
  -5   2   1  253.76    8.37
  -5   2   0   25.81    2.80
   5  -2   0   31.44    2.36
  -5   2   0   27.93    2.26
  -5   2   0   27.01    2.86
   5  -2   0   28.89    2.33
   5  -2   0   25.83    2.15
   5  -2   0   24.78    2.10
  -5   2   0   29.58    2.85
  -5   2  -1  438.47   12.09
   5  -2   1  391.64    9.86
  -5   2  -1  401.49   10.23
   5  -2   1  418.88   10.30
   5  -2   1  392.53    9.88
  -5   2  -1  424.50   10.09
   5  -2   1  399.09    9.31
  -5   2  -1  412.08   11.09
  -5   2  -1  390.75   11.48
  -5   2  -2  645.10   14.29
   5  -2   2  603.59   13.46
  -5   2  -2  641.98   15.48
   5  -2   2  589.76   13.85
  -5   2  -2  624.87   15.34
   5  -2   2  585.31   13.36
  -5   2  -2  652.08   14.21
  -5   2  -2  634.63   12.35
   5  -2   2  653.92   12.14
   5  -2   2  675.04   14.11
   5  -2   3  157.41    5.43
   5  -2   3  161.51    6.00
  -5   2  -3  177.38    6.68
   5  -2   3  164.89    5.74
   5  -2   3  158.25    5.57
   5  -2   3  158.46    5.45
  -5   2  -3  162.19    5.39
  -5   2  -3  162.14    5.06
  -5   2  -3  161.73    6.44
  -5   2  -4  177.28    6.25
   5  -2   4  185.34    6.69
  -5   2  -4  178.10    5.37
   5  -2   4  182.76    6.05
   5  -2   4  174.08    6.08
  -5   2  -4  173.27    6.29
  -5   2  -4  163.45    5.59
  -5   2  -4  170.62    6.28
   5  -2   5  570.58   14.04
  -5   2  -5  565.21   12.71
  -5   2  -5  590.09   12.61
   5  -2   5  606.46   13.29
   5  -2   5  580.76   13.50
  -5   2  -5  552.36   12.93
  -5   2  -5  578.30   12.73
   5  -2   6    6.95    1.35
   5  -2   6    7.08    1.38
  -5   2  -6    8.21    1.71
  -5   2  -6    8.33    1.37
  -5   2  -6    5.68    1.38
  -5   2  -7  106.41    5.29
  -5   2  -7  108.47    4.12
  -5   2  -7   98.77    3.98
  -5   2  -7  109.39    4.59
   5  -2   7   95.93    4.50
  -5   2  -7  112.84    5.34
  -5   2  -8  385.00   10.59
  -5   2  -8  383.40   10.19
  -5   2  -8  372.19    9.41
  -5   2  -8  384.75   10.46
  -5   2  -9   50.11    2.83
  -5   2  -9   46.50    2.73
  -5   2  -9   50.91    2.72
   5  -1  -7  657.50   14.14
  -5   1   7  642.84   13.46
   5  -1  -7  640.47   14.07
   5  -1  -7  654.79   13.82
   5  -1  -6  391.89   10.76
  -5   1   6  379.10    9.95
   5  -1  -6  389.16   10.75
   5  -1  -6  385.31   10.27
   5  -1  -5  107.28    5.25
   5  -1  -5  104.10    4.74
  -5   1   5  102.29    4.66
  -5   1   5  102.51    3.70
   5  -1  -5  102.90    5.18
   5  -1  -5  110.72    4.97
   5  -1  -5   98.61    4.33
   5  -1  -5   99.79    4.58
  -5   1   4  109.61    4.13
   5  -1  -4  103.89    5.11
   5  -1  -4  108.12    4.94
   5  -1  -4  103.55    4.90
  -5   1   4  104.59    4.61
  -5   1   4  108.95    4.22
   5  -1  -4   96.11    4.97
   5  -1  -4  104.92    4.77
   5  -1  -4  106.82    4.83
  -5   1   4  101.15    4.45
  -5   1   3  599.49   13.09
   5  -1  -3  593.13   14.26
  -5   1   3  607.37   12.09
   5  -1  -3  617.71   14.39
  -5   1   3  614.32   13.23
   5  -1  -3  593.83   14.27
  -5   1   3  585.58   12.98
  -5   1   3  627.89   14.62
   5  -1  -3  591.88   13.35
   5  -1  -3  607.38   14.49
  -5   1   3  587.51   12.25
  -5   1   2  673.03   14.23
  -5   1   2  680.42   14.18
  -5   1   2  668.60   14.07
   5  -1  -2  684.28   14.93
   5  -1  -2  609.95   14.88
  -5   1   2  681.99   13.72
   5  -1  -2  691.77   14.97
  -5   1   2  678.02   14.23
   5  -1  -2  670.66   13.92
  -5   1   2  660.54   16.13
   5  -1  -2  694.95   15.85
  -5   1   2  663.61   14.33
  -5   1   1  768.96   16.80
  -5   1   1  833.90   17.11
  -5   1   1  788.87   15.99
   5  -1  -1  795.20   16.32
   5  -1  -1  824.40   17.16
  -5   1   1  816.97   14.66
   5  -1  -1  798.13   16.33
  -5   1   1  793.38   16.10
   5  -1  -1  775.88   14.81
   5  -1  -1  831.14   17.70
  -5   1   1  798.92   18.39
  -5   1   1  771.52   16.98
   5  -1   0   48.25    2.67
  -5   1   0   42.10    3.10
   5  -1   0   47.27    3.05
  -5   1   0   45.61    2.59
   5  -1   0   47.17    2.67
  -5   1   0   43.11    2.59
  -5   1   0   46.06    3.44
   5  -1   0   46.93    3.07
  -5   1   0   46.04    2.23
  -5   1   0   46.04    3.28
  -5   1  -1  373.42   10.60
   5  -1   1  363.64    8.59
  -5   1  -1  374.45    8.95
  -5   1  -1  380.13    8.60
   5  -1   1  385.23    9.76
   5  -1   1  355.01    8.55
  -5   1  -1  360.15    9.08
  -5   1  -1  357.38    8.02
   5  -1   1  381.91    9.19
  -5   1  -1  373.35   10.28
  -5   1  -1  358.41   10.46
  -5   1  -2 1567.10   28.44
  -5   1  -2 1627.17   30.57
   5  -1   2 1543.91   27.41
  -5   1  -2 1635.16   27.49
   5  -1   2 1714.11   29.47
  -5   1  -2 1574.59   29.27
   5  -1   2 1553.01   27.44
  -5   1  -2 1560.34   27.34
   5  -1   2 1632.02   27.37
  -5   1  -2 1609.02   30.42
  -5   1  -3  486.58   10.88
   5  -1   3  445.60    9.66
  -5   1  -3  478.68   11.96
   5  -1   3  436.15   11.02
   5  -1   3  487.54   11.32
   5  -1   3  462.48   10.26
   5  -1   3  435.01    9.62
  -5   1  -3  446.23   10.05
  -5   1  -3  457.54   11.67
  -5   1  -4   39.28    2.77
   5  -1   4   39.77    2.82
  -5   1  -4   38.81    2.80
  -5   1  -4   39.67    2.36
   5  -1   4   46.12    3.00
   5  -1   4   39.10    2.50
  -5   1  -4   40.57    2.48
  -5   1  -4   40.32    2.82
   5  -1   5  109.47    5.02
  -5   1  -5  106.92    4.31
  -5   1  -5  110.53    4.33
  -5   1  -5  112.37    3.79
  -5   1  -5  102.55    4.39
  -5   1  -5  103.38    4.25
   5  -1   6  534.19   13.43
   5  -1   6  544.98   12.88
   5  -1   6  535.52   12.73
  -5   1  -6  566.26   13.79
  -5   1  -6  529.01   12.91
  -5   1  -6  546.80   13.70
   5  -1   7   84.61    4.43
   5  -1   7   86.68    4.20
  -5   1  -7   97.80    5.01
   5  -1   7   83.52    4.21
  -5   1  -7   98.38    5.00
  -5   1  -7   88.77    4.44
   5  -1   8  407.88   10.90
  -5   1  -8  450.98   12.15
  -5   1  -8  447.70   11.91
  -5   1  -8  449.36   11.51
  -5   1  -8  452.74   12.20
  -5   1  -9    2.64    1.09
  -5   1  -9    3.97    1.14
  -5   1  -9    3.68    1.10
  -5   1  -9    3.79    1.06
  -5   1  -9    3.76    1.07
  -5   1  -9    3.58    1.16
  -5   1 -10   97.68    3.95
  -5   1 -10   93.92    3.76
  -5   1 -10   97.97    3.71
  -5   1 -10   97.78    3.86
   5   0  -7   80.72    3.81
  -5   0   7   81.87    3.73
   5   0  -7   77.54    3.74
   5   0  -7   77.96    3.61
   5   0  -6  243.61    8.06
  -5   0   6  250.25    7.97
   5   0  -6  249.10    8.13
   5   0  -6  237.12    7.62
   5   0  -5    9.82    1.44
  -5   0   5   13.86    1.85
   5   0  -5   12.01    1.67
   5   0  -5   10.56    1.68
  -5   0   5   11.59    1.86
  -5   0   5    7.77    1.13
   5   0  -5   10.54    1.80
   5   0  -5   10.16    1.77
   5   0  -5   10.46    1.58
  -5   0   4   91.54    4.72
   5   0  -4   94.42    4.54
  -5   0   4  106.90    4.19
   5   0  -4   92.95    4.36
   5   0  -4   99.35    4.67
   5   0  -4   95.99    4.61
  -5   0   3  553.70   13.76
  -5   0   3  560.63   11.76
   5   0  -3  551.72   13.27
   5   0  -3  559.01   13.53
  -5   0   3  569.91   13.07
  -5   0   3  530.90   12.19
   5   0  -3  543.71   13.23
   5   0  -3  545.13   12.42
  -5   0   3  569.28   12.94
   5   0  -3  553.63   14.06
  -5   0   2   52.57    2.62
  -5   0   2   54.11    2.67
  -5   0   2   49.78    2.62
   5   0  -2   56.70    3.16
   5   0  -2   55.12    3.42
  -5   0   2   51.88    2.91
  -5   0   2   48.87    2.78
   5   0  -2   56.12    3.14
   5   0  -2   57.06    2.80
  -5   0   2   62.60    3.72
   5   0  -2   53.94    4.00
  -5   0   2   50.41    2.70
  -5   0   1  407.82    9.86
  -5   0   1  403.83    9.79
  -5   0   1  414.16    8.97
   5   0  -1  397.24    9.51
   5   0  -1  411.58   10.45
  -5   0   1  399.73    9.06
   5   0  -1  395.74    9.50
  -5   0   1  402.58    9.51
   5   0  -1  402.54    8.27
  -5   0   1  401.90   11.17
   5   0  -1  396.32   11.83
  -5   0   1  386.47    9.83
  -5   0   0   29.38    2.39
  -5   0   0   29.28    2.38
   5   0   0   28.95    1.87
   5   0   0   30.20    2.39
  -5   0   0   30.09    1.79
   5   0   0   27.72    1.79
  -5   0   0   29.42    2.02
  -5   0   0   28.14    2.65
   5   0   0   29.14    2.93
  -5   0   0   30.27    2.44
  -5   0  -1   83.45    4.17
  -5   0  -1   87.89    3.17
   5   0   1   84.78    3.92
  -5   0  -1   88.70    3.51
  -5   0  -1   88.63    4.35
  -5   0  -1   86.74    4.24
   5   0   1   88.10    4.53
  -5   0  -1   80.04    4.13
  -5   0  -2  808.36   17.94
  -5   0  -2  841.96   18.14
   5   0   2  920.87   17.69
  -5   0  -2  860.85   18.33
  -5   0  -2  828.93   16.40
  -5   0  -2  891.84   17.69
   5   0   2  871.86   17.18
  -5   0  -3  630.71   14.53
  -5   0  -3  672.65   14.98
  -5   0  -3  705.60   14.29
  -5   0  -3  668.13   13.30
   5   0   3  712.56   14.84
   5   0   3  670.02   12.90
   5   0   3  660.68   12.68
  -5   0  -3  665.78   13.24
  -5   0  -3  664.03   14.73
   5   0   4    4.53    1.06
  -5   0  -4    2.58    0.82
  -5   0  -4    4.94    1.08
  -5   0  -4    2.29    0.96
  -5   0  -4    3.09    0.95
   5   0   4    2.42    0.64
  -5   0  -4    3.01    1.01
  -5   0  -4    3.67    0.89
  -5   0  -5   15.01    1.59
  -5   0  -5   16.01    1.62
  -5   0  -5   16.08    1.46
   5   0   5   16.06    1.82
   5   0   5   16.12    1.59
  -5   0  -5   15.19    1.63
  -5   0  -5   16.04    1.61
   5   0   6 1098.89   22.23
  -5   0  -6 1110.26   20.01
  -5   0  -6 1087.25   19.96
  -5   0  -6 1108.91   19.59
  -5   0  -6 1090.82   19.93
   5   0   6 1097.55   21.17
  -5   0  -6 1092.96   21.65
  -5   0  -6 1073.06   21.61
  -5   0  -6 1074.54   21.95
   5   0   7  307.42    9.15
   5   0   7  314.25    8.71
  -5   0  -7  302.30    9.06
  -5   0  -7  304.85    9.16
  -5   0  -7  303.84    9.40
   5   0   7  300.38    9.11
   5   0   8  575.34   13.95
   5   0   8  590.68   14.07
   5   0   8  602.02   13.69
  -5   0  -8  612.71   14.70
  -5   0  -8  609.07   14.96
  -5   0  -8  613.10   14.89
  -5   0  -8  585.88   14.47
  -5   0  -9   13.28    1.93
  -5   0  -9   11.46    1.79
  -5   0  -9   11.84    1.70
  -5   0  -9   11.14    1.75
  -5   0  -9   13.24    1.88
  -5   0  -9   12.98    1.88
  -5   0 -10   32.71    2.57
  -5   0 -10   34.42    2.46
  -5   0 -10   32.84    2.44
  -5   0 -10   34.81    2.59
  -5   0 -11  452.21    9.85
  -5   0 -11  442.79    9.30
  -5   0 -11  440.24    9.19
  -5   0 -11  457.61    9.71
   5   1  -7    5.03    1.02
  -5  -1   7    4.15    0.98
   5   1  -7    4.42    0.97
   5   1  -7    5.20    1.03
   5   1  -6  123.18    5.36
  -5  -1   6  122.69    5.38
  -5  -1   6  123.84    4.02
   5   1  -6  116.55    5.25
   5   1  -6  123.20    5.14
  -5  -1   5  132.17    5.65
   5   1  -5  121.09    5.63
   5   1  -5  130.41    5.25
  -5  -1   5  125.74    5.80
  -5  -1   5  127.72    4.71
   5   1  -5  123.76    5.66
   5   1  -5  123.32    5.35
   5   1  -5  122.57    4.56
   5   1  -5  126.94    4.97
  -5  -1   4  547.42   13.69
   5   1  -4  496.41   13.01
   5   1  -4  527.62   12.84
  -5  -1   4  507.26   13.44
  -5  -1   4  585.78   12.63
   5   1  -4  457.75   12.72
   5   1  -4  589.65   13.27
   5   1  -4  514.00   13.07
   5   1  -4  496.62   12.62
  -5  -1   3 1401.59   26.96
   5   1  -3 1349.63   25.96
   5   1  -3 1382.12   26.33
  -5  -1   3 1357.64   26.36
  -5  -1   3 1319.78   25.13
   5   1  -3 1349.88   25.98
   5   1  -3 1326.67   25.14
  -5  -1   3 1383.81   24.49
   5   1  -3 1329.53   27.92
   5   1  -2   23.83    3.30
  -5  -1   2   23.59    2.33
  -5  -1   2   19.49    1.88
   5   1  -2   21.27    1.90
  -5  -1   2   23.01    1.61
   5   1  -2   24.78    2.28
  -5  -1   2   24.05    1.65
  -5  -1   2   22.65    1.56
  -5  -1   2   20.48    2.00
  -5  -1   2   24.72    1.95
   5   1  -2   25.21    2.05
   5   1  -2   24.07    1.81
  -5  -1   1  389.48    7.86
  -5  -1   1  372.05    8.88
   5   1  -1  380.14    8.73
  -5  -1   1  367.26    8.85
   5   1  -1  349.85   12.20
   5   1  -1  380.98    9.87
  -5  -1   1  364.58    9.79
  -5  -1   1  375.24    9.18
  -5  -1   1  383.07    9.05
   5   1  -1  390.72    8.80
  -5  -1   1  376.53    9.00
  -5  -1   0 1198.78   22.66
  -5  -1   0 1216.64   20.39
  -5  -1   0 1234.76   22.68
  -5  -1   0 1215.36   22.57
   5   1   0 1169.41   26.68
   5   1   0 1210.98   22.99
  -5  -1   0 1206.45   21.79
  -5  -1   0 1184.43   23.36
  -5  -1  -1  502.54   11.83
  -5  -1  -1  517.63   11.83
  -5  -1  -1  535.80    9.73
  -5  -1  -1  526.68   11.95
   5   1   1  540.25   11.96
  -5  -1  -1  508.51   12.07
   5   1   1  493.27   14.44
  -5  -1  -2  850.30   17.37
  -5  -1  -2  875.28   17.58
  -5  -1  -2  881.05   17.34
   5   1   2  897.00   17.33
  -5  -1  -2  845.52   17.38
   5   1   2  808.39   19.21
  -5  -1  -3  750.90   15.58
  -5  -1  -3  726.69   15.29
   5   1   3  782.13   15.56
   5   1   3  744.87   13.13
   5   1   3  698.22   15.81
  -5  -1  -3  743.73   15.17
  -5  -1  -3  726.28   15.33
  -5  -1  -4  708.74   14.09
  -5  -1  -4  716.25   14.77
  -5  -1  -4  694.38   14.52
  -5  -1  -4  704.73   13.86
  -5  -1  -4  685.46   13.99
   5   1   4  724.66   13.12
  -5  -1  -4  694.97   13.92
   5   1   4  703.38   13.36
  -5  -1  -4  738.07   14.74
  -5  -1  -5   87.49    3.67
  -5  -1  -5   78.12    3.38
  -5  -1  -5   84.40    3.53
  -5  -1  -5   83.38    3.35
  -5  -1  -5   79.27    3.58
  -5  -1  -5   81.80    3.43
   5   1   5   83.36    3.17
   5   1   5   81.02    3.76
  -5  -1  -5   78.76    3.45
  -5  -1  -5   83.12    3.49
   5   1   6 1196.96   22.97
  -5  -1  -6 1181.36   22.59
  -5  -1  -6 1154.76   21.30
  -5  -1  -6 1134.61   22.46
  -5  -1  -6 1210.30   21.36
   5   1   6 1194.40   21.84
  -5  -1  -6 1190.51   21.20
  -5  -1  -6 1181.88   22.13
  -5  -1  -6 1202.42   21.32
  -5  -1  -6 1162.43   22.52
  -5  -1  -6 1190.47   22.51
   5   1   7  319.51    9.18
   5   1   7  323.26    9.57
  -5  -1  -7  340.81    7.66
   5   1   7  322.57    8.70
  -5  -1  -7  332.26    8.89
  -5  -1  -7  328.88    9.57
  -5  -1  -7  328.42    9.39
  -5  -1  -7  330.27    9.27
   5   1   8  402.58   10.57
   5   1   8  416.19   11.25
   5   1   8  421.15   10.52
  -5  -1  -8  429.59   10.90
  -5  -1  -8  355.41   10.85
  -5  -1  -8  378.35   10.97
  -5  -1  -8  418.68   11.30
   5   1   9  214.13    7.46
  -5  -1  -9  240.32    8.30
   5   1   9  240.06    7.02
  -5  -1  -9  220.10    7.49
  -5  -1  -9  237.61    7.67
  -5  -1  -9  232.80    8.05
  -5  -1  -9  238.90    8.03
  -5  -1  -9  237.23    8.11
   5   1   9  221.02    6.97
  -5  -1 -10    1.94    1.06
  -5  -1 -10    3.22    1.00
  -5  -1 -10    3.51    1.13
  -5  -1 -10    4.39    1.26
  -5  -1 -10    2.77    1.00
  -5  -1 -11  364.48    9.22
  -5  -1 -11  343.30    8.37
  -5  -1 -11  356.94    8.66
  -5  -1 -11  355.99    8.91
   5   2  -7   29.14    2.07
  -5  -2   7   28.84    2.00
   5   2  -7   25.56    1.96
   5   2  -7   26.94    1.94
   5   2  -6   35.88    2.74
  -5  -2   6   34.93    2.76
  -5  -2   6   35.10    2.10
   5   2  -6   34.99    2.71
   5   2  -6   34.82    2.59
  -5  -2   5   83.25    4.32
   5   2  -5   82.48    4.46
   5   2  -5   82.45    3.71
  -5  -2   5   85.97    4.74
  -5  -2   5   82.62    3.86
   5   2  -5   80.69    4.43
   5   2  -5   75.85    4.12
   5   2  -5   74.05    3.26
  -5  -2   4  397.87   11.07
   5   2  -4  374.97   10.73
   5   2  -4  403.41   10.25
  -5  -2   4  398.48   11.47
   5   2  -4  390.94   10.90
   5   2  -4  366.83   10.22
   5   2  -4  383.73   10.81
   5   2  -4  377.10    9.96
  -5  -2   3 1231.21   24.38
   5   2  -3 1153.22   23.21
   5   2  -3 1211.31   23.24
  -5  -2   3 1219.70   24.39
   5   2  -3 1139.83   23.17
   5   2  -3 1204.29   22.94
   5   2  -3 1157.53   26.06
  -5  -2   2  161.38    6.16
   5   2  -2  149.39    5.32
   5   2  -2  159.99    5.77
   5   2  -2  174.94    5.20
  -5  -2   2  165.11    4.37
  -5  -2   2  162.17    6.02
   5   2  -2  155.83    5.43
   5   2  -2  155.40    5.16
   5   2  -2  146.85    8.05
  -5  -2   1  238.28    5.56
   5   2  -1  239.95    6.28
   5   2  -1  259.38    7.41
  -5  -2   1  260.55    6.53
  -5  -2   1  248.61    6.50
  -5  -2   1  241.76    7.12
   5   2  -1  243.02    6.32
  -5  -2   1  250.38    6.44
   5   2  -1  246.88    5.89
  -5  -2   1  263.67    7.05
   5   2  -1  246.28   10.76
  -5  -2   0 3049.89   50.54
  -5  -2   0 3160.18   50.02
   5   2   0 3127.31   50.73
  -5  -2   0 2977.26   49.69
  -5  -2   0 3018.41   49.67
  -5  -2   0 2847.35   49.74
   5   2   0 2902.23   56.16
  -5  -2  -1  974.36   18.58
   5   2   1  964.18   18.68
  -5  -2  -1  980.83   18.42
  -5  -2  -1  981.67   18.91
  -5  -2  -1  933.72   18.42
   5   2   1  927.74   22.44
  -5  -2  -2  762.76   15.10
   5   2   2  739.09   14.97
  -5  -2  -2  720.80   14.78
  -5  -2  -2  710.41   14.84
  -5  -2  -2  742.41   15.03
   5   2   2  726.59   17.69
  -5  -2  -3   65.75    3.19
  -5  -2  -3   64.17    3.10
  -5  -2  -3   63.93    3.12
   5   2   3   64.41    4.02
  -5  -2  -4  567.25   12.11
  -5  -2  -4  558.79   11.89
   5   2   4  572.74    9.90
  -5  -2  -4  547.99   11.96
  -5  -2  -5 1110.51   19.97
  -5  -2  -5 1077.60   19.84
  -5  -2  -5 1044.08   19.76
  -5  -2  -5 1081.32   20.13
  -5  -2  -5 1085.96   20.11
   5   2   5 1117.48   18.80
  -5  -2  -5 1061.87   19.85
  -5  -2  -5 1077.71   20.23
  -5  -2  -5 1085.66   19.97
  -5  -2  -5 1094.34   20.02
   5   2   6 1717.97   30.24
  -5  -2  -6 1715.82   29.78
  -5  -2  -6 1681.30   30.29
  -5  -2  -6 1639.24   29.15
  -5  -2  -6 1714.39   29.64
  -5  -2  -6 1681.95   30.12
  -5  -2  -6 1731.37   29.33
   5   2   6 1760.16   29.15
  -5  -2  -6 1674.97   30.70
  -5  -2  -6 1687.72   29.08
  -5  -2  -6 1703.98   30.07
  -5  -2  -6 1722.76   29.77
   5   2   7  101.46    4.25
  -5  -2  -7   95.43    3.94
  -5  -2  -7   98.67    4.60
  -5  -2  -7   99.97    4.31
  -5  -2  -7   97.71    3.81
   5   2   7  100.84    3.96
  -5  -2  -7  106.20    3.94
  -5  -2  -7   97.10    4.55
  -5  -2  -7  103.30    4.46
  -5  -2  -7   97.49    4.18
   5   2   8   60.47    3.29
   5   2   8   64.28    3.92
  -5  -2  -8   63.76    2.98
  -5  -2  -8   62.29    2.88
   5   2   8   67.81    3.45
  -5  -2  -8   63.59    3.34
  -5  -2  -8   67.40    3.42
  -5  -2  -8   61.04    3.84
  -5  -2  -8   65.80    3.82
  -5  -2  -8   68.19    3.74
   5   2   9  496.37   12.99
  -5  -2  -9  512.23   11.44
   5   2   9  496.37   11.48
  -5  -2  -9  517.73   13.41
   5   2   9  525.81   11.95
  -5  -2  -9  500.00   12.17
  -5  -2  -9  531.92   13.42
  -5  -2  -9  527.59   13.10
  -5  -2  -9  509.39   12.96
  -5  -2 -10  277.46    7.26
  -5  -2 -10  276.32    8.99
  -5  -2 -10  276.31    8.10
  -5  -2 -10  280.59    8.72
  -5  -2 -10  287.34    8.73
  -5  -2 -10  279.86    8.63
  -5  -2 -11   30.40    2.50
  -5  -2 -11   28.54    2.05
  -5  -2 -11   28.86    2.27
  -5  -2 -11   28.61    2.29
  -5  -2 -11   29.81    2.33
  -5  -2 -12  275.30    6.67
  -5  -2 -12  278.87    7.06
  -5  -2 -12  271.34    6.26
   5   3  -7   51.69    2.51
  -5  -3   7   49.32    2.17
   5   3  -7   49.95    2.48
   5   3  -7   51.41    2.43
   5   3  -6  225.07    7.09
  -5  -3   6  235.72    7.04
  -5  -3   6  227.22    6.17
   5   3  -6  228.48    7.15
   5   3  -6  224.12    6.89
  -5  -3   5  450.80    9.33
   5   3  -5  434.44   11.61
  -5  -3   5  442.99   11.92
   5   3  -5  432.74   11.60
   5   3  -5  437.35   11.35
  -5  -3   4  169.41    6.56
   5   3  -4  181.75    6.82
   5   3  -4  190.97    5.81
  -5  -3   4  181.84    7.26
   5   3  -4  176.88    6.76
   5   3  -4  183.76    6.66
   5   3  -4  175.53    6.53
   5   3  -4  193.06    5.55
  -5  -3   3  744.01   16.94
  -5  -3   3  766.97   14.81
   5   3  -3  762.02   15.80
   5   3  -3  749.75   16.56
   5   3  -3  773.79   14.82
  -5  -3   3  787.06   17.92
   5   3  -3  747.11   16.57
   5   3  -3  708.95   19.12
   5   3  -3  751.68   16.35
  -5  -3   2  825.02   18.11
  -5  -3   2  837.33   16.24
   5   3  -2  880.39   17.28
   5   3  -2  838.30   17.28
   5   3  -2  889.99   16.91
  -5  -3   2  857.04   18.50
   5   3  -2  845.50   17.33
   5   3  -2  854.05   17.13
   5   3  -2  810.22   22.45
   5   3  -1    9.67    1.14
   5   3  -1    6.35    3.07
  -5  -3   1    8.32    1.19
  -5  -3   1   12.01    1.17
  -5  -3   1   11.36    1.21
   5   3  -1   11.15    1.36
  -5  -3   1   11.92    1.16
  -5  -3   1    9.11    1.41
   5   3  -1   11.47    1.25
   5   3  -1    9.79    1.19
  -5  -3   0 1013.13   19.03
  -5  -3   0 1026.42   18.47
   5   3   0 1020.81   19.44
  -5  -3   0 1054.76   19.11
  -5  -3   0 1023.80   19.60
   5   3   0 1046.80   24.21
  -5  -3   0 1039.36   19.07
   5   3   1 1958.33   37.76
   5   3   1 1898.30   34.31
  -5  -3  -1 2086.15   34.65
  -5  -3  -1 2052.62   34.56
  -5  -3  -1 2000.09   34.32
  -5  -3  -1 2036.06   34.13
   5   3   2  488.97   12.23
   5   3   2  481.42   10.59
  -5  -3  -2  490.06   10.81
  -5  -3  -2  474.35   10.63
  -5  -3  -2  478.02   10.76
  -5  -3  -2  473.80   10.36
   5   3   3  114.76    4.65
  -5  -3  -3  113.47    4.20
   5   3   3  114.67    4.20
  -5  -3  -3  114.63    4.26
  -5  -3  -3  108.34    4.04
  -5  -3  -3  113.19    4.05
   5   3   4   18.13    1.69
  -5  -3  -4   16.58    1.58
  -5  -3  -4   14.78    1.47
  -5  -3  -4   14.54    1.41
  -5  -3  -4   15.42    1.51
  -5  -3  -5  337.32    7.90
   5   3   5  346.65    8.06
  -5  -3  -5  338.03    7.95
  -5  -3  -5  338.72    8.04
  -5  -3  -5  348.16    7.97
  -5  -3  -5  345.43    8.27
  -5  -3  -5  317.64    7.61
  -5  -3  -5  338.97    8.04
  -5  -3  -6  791.91   14.67
  -5  -3  -6  791.42   15.31
  -5  -3  -6  813.92   15.80
  -5  -3  -6  800.13   16.16
   5   3   6  796.16   15.48
  -5  -3  -6  804.85   15.89
  -5  -3  -6  838.63   16.06
  -5  -3  -6  800.93   15.72
   5   3   6  846.86   14.69
  -5  -3  -6  809.81   15.53
  -5  -3  -6  787.89   16.51
  -5  -3  -6  838.82   15.91
   5   3   7   42.03    2.43
  -5  -3  -7   47.57    2.77
  -5  -3  -7   46.54    2.56
  -5  -3  -7   52.11    3.21
  -5  -3  -7   48.35    2.70
  -5  -3  -7   50.80    2.89
  -5  -3  -7   46.39    2.88
   5   3   7   51.61    2.53
  -5  -3  -7   62.59    2.45
  -5  -3  -7   63.33    2.54
  -5  -3  -7   48.98    3.16
  -5  -3  -7   49.84    2.82
  -5  -3  -7   45.84    2.57
   5   3   8  226.82    6.35
  -5  -3  -8  226.56    6.50
   5   3   8  216.78    7.61
  -5  -3  -8  220.15    6.83
  -5  -3  -8  230.18    7.77
  -5  -3  -8  223.26    6.52
  -5  -3  -8  219.39    7.28
   5   3   8  234.18    6.61
  -5  -3  -8  234.42    7.75
  -5  -3  -8  219.58    7.06
  -5  -3  -8  223.94    6.85
   5   3   9  219.72    7.76
  -5  -3  -9  222.92    7.03
  -5  -3  -9  225.14    6.34
  -5  -3  -9  220.00    7.81
   5   3   9  229.41    6.69
  -5  -3  -9  214.99    6.59
  -5  -3  -9  234.40    7.98
  -5  -3  -9  233.08    7.55
  -5  -3  -9  228.80    7.37
   5   3  10  831.20   18.56
  -5  -3 -10  846.50   17.72
  -5  -3 -10  890.79   19.37
  -5  -3 -10  876.46   17.56
  -5  -3 -10  882.09   19.05
  -5  -3 -10  903.54   18.56
  -5  -3 -10  847.53   18.51
  -5  -3 -11   29.54    2.10
  -5  -3 -11   28.34    2.53
  -5  -3 -11   29.97    2.43
  -5  -3 -11   27.22    2.25
  -5  -3 -11   29.51    2.40
  -5  -3 -12   25.07    1.99
  -5  -3 -12   26.44    1.85
  -5  -3 -12   24.27    1.72
   5   4  -6  269.01    7.28
  -5  -4   6  264.56    6.55
  -5  -4   6  253.01    6.47
   5   4  -6  275.01    7.36
   5   4  -6  264.17    7.15
  -5  -4   5  630.54   12.88
   5   4  -5  646.05   14.54
  -5  -4   5  638.14   14.23
   5   4  -5  625.23   14.44
   5   4  -5  616.64   14.25
  -5  -4   4  307.76    7.69
   5   4  -4  307.68    9.21
  -5  -4   4  319.22    9.56
   5   4  -4  293.31    9.07
   5   4  -4  287.20    8.88
   5   4  -3   23.46    3.33
   5   4  -3   24.63    2.35
   5   4  -3   26.50    1.97
  -5  -4   3   27.45    2.72
   5   4  -3   23.67    2.31
   5   4  -3   27.12    2.42
  -5  -4   2  980.73   20.09
   5   4  -2 1030.32   18.77
   5   4  -2  986.11   19.84
   5   4  -2 1040.84   19.69
  -5  -4   2  990.57   21.08
   5   4  -2  984.49   19.85
   5   4  -2  989.26   19.85
   5   4  -2  969.99   25.21
  -5  -4   1  328.44    8.63
  -5  -4   1  326.09    7.43
   5   4  -1  336.92    7.93
   5   4  -1  327.78    7.97
   5   4  -1  331.64    8.78
  -5  -4   1  318.74    9.01
   5   4  -1  322.93    7.95
  -5  -4   1  331.69    7.51
   5   4  -1  323.40    8.24
   5   4  -1  328.60   12.39
  -5  -4   0  561.25   11.05
  -5  -4   0  568.60   12.13
  -5  -4   0  589.14   12.35
   5   4   0  602.20   11.90
   5   4   0  609.67   13.13
  -5  -4   0  568.42   12.68
  -5  -4   0  583.68   11.97
  -5  -4   0  573.07   11.93
  -5  -4   0  568.93   11.83
   5   4   0  602.40   15.89
   5   4   1 1444.73   28.06
  -5  -4  -1 1410.34   25.06
  -5  -4  -1 1416.75   25.01
  -5  -4  -1 1460.78   25.03
  -5  -4  -1 1467.46   25.62
  -5  -4  -1 1455.74   25.25
   5   4   1 1436.24   25.05
  -5  -4  -1 1449.10   25.60
  -5  -4  -1 1406.91   25.40
  -5  -4  -1 1399.82   25.33
  -5  -4  -2    8.47    1.24
  -5  -4  -2    7.42    1.10
  -5  -4  -2    6.96    1.09
  -5  -4  -3  858.26   16.67
   5   4   3  853.44   14.55
  -5  -4  -3  841.08   16.52
   5   4   3  864.10   16.29
  -5  -4  -3  866.95   16.82
  -5  -4  -4  230.18    6.33
  -5  -4  -4  218.04    6.23
  -5  -4  -4  225.06    6.41
  -5  -4  -5  295.08    7.22
  -5  -4  -5  295.83    7.25
  -5  -4  -5  285.12    7.03
  -5  -4  -5  289.45    7.29
  -5  -4  -5  294.48    7.36
  -5  -4  -5  295.92    6.96
  -5  -4  -5  273.33    7.01
  -5  -4  -5  290.82    7.47
  -5  -4  -6  764.97   14.41
  -5  -4  -6  794.13   14.43
   5   4   6  779.84   14.24
  -5  -4  -6  772.97   15.29
  -5  -4  -6  752.60   14.95
  -5  -4  -6  766.01   15.53
  -5  -4  -6  776.13   15.12
  -5  -4  -6  778.90   15.52
  -5  -4  -6  779.52   15.06
  -5  -4  -6  763.45   15.26
  -5  -4  -6  756.73   15.00
  -5  -4  -6  792.21   15.23
  -5  -4  -6  786.43   15.98
  -5  -4  -6  779.67   14.74
  -5  -4  -6  794.17   15.25
  -5  -4  -7  727.38   13.87
   5   4   7  728.44   13.52
  -5  -4  -7  697.67   13.79
  -5  -4  -7  725.74   14.66
   5   4   7  733.47   15.65
  -5  -4  -7  728.77   15.08
  -5  -4  -7  709.96   14.33
  -5  -4  -7  746.43   15.50
  -5  -4  -7  708.43   14.89
  -5  -4  -7  738.82   14.67
  -5  -4  -7  718.45   15.02
  -5  -4  -7  724.35   13.94
  -5  -4  -7  701.03   15.66
  -5  -4  -7  728.72   14.59
  -5  -4  -8   49.05    2.46
  -5  -4  -8   46.37    2.73
   5   4   8   45.71    3.16
  -5  -4  -8   47.09    3.02
  -5  -4  -8   49.83    3.38
  -5  -4  -8   46.45    2.83
  -5  -4  -8   47.59    2.72
  -5  -4  -8   44.99    3.03
  -5  -4  -8   49.10    3.36
  -5  -4  -8   43.13    2.66
  -5  -4  -8   55.00    2.99
  -5  -4  -9  115.61    4.82
  -5  -4  -9  113.88    4.07
   5   4   9  106.16    5.01
  -5  -4  -9   95.54    4.76
  -5  -4  -9  120.07    4.58
  -5  -4  -9  105.65    5.03
  -5  -4  -9  109.80    4.54
   5   4  10  844.29   18.79
  -5  -4 -10  860.47   18.83
  -5  -4 -10  879.42   16.99
  -5  -4 -10  918.65   19.64
  -5  -4 -10  889.25   19.31
  -5  -4 -10  895.20   18.07
  -5  -4 -10  883.87   18.65
  -5  -4 -11  191.57    6.45
  -5  -4 -11  192.53    6.93
  -5  -4 -11  181.57    6.36
  -5  -4 -11  202.27    6.77
  -5  -4 -11  189.41    5.97
  -5  -4 -12    3.05    0.78
  -5  -4 -12    3.48    0.92
  -5  -4 -12    4.08    0.93
  -5  -4 -12    3.80    0.85
  -5  -5   5  541.39   11.38
  -5  -5   5  528.34   10.34
   5   5  -5  521.39   11.98
   5   5  -5  518.53   11.98
   5   5  -5  533.43   12.16
  -5  -5   4  414.55    9.86
   5   5  -4  411.26   10.73
  -5  -5   4  407.05   10.28
   5   5  -4  414.10   10.78
   5   5  -4  422.40   11.03
  -5  -5   3   24.38    2.29
   5   5  -3   28.36    2.43
   5   5  -3   28.69    2.11
  -5  -5   3   25.90    2.39
   5   5  -3   27.13    2.38
   5   5  -3   27.31    2.49
  -5  -5   2  198.49    6.81
   5   5  -2  187.34    6.37
   5   5  -2  189.87    6.27
  -5  -5   2  184.93    6.65
   5   5  -2  181.10    6.31
   5   5  -2  183.23    6.53
   5   5  -2  183.76    9.20
  -5  -5   1 1103.33   21.86
   5   5  -1 1100.79   20.94
   5   5  -1 1161.87   22.07
  -5  -5   1 1112.76   21.81
   5   5  -1 1107.73   20.97
   5   5  -1 1104.45   21.43
   5   5  -1 1105.31   26.23
  -5  -5   0  683.38   14.51
   5   5   0  700.90   17.39
   5   5   0  693.88   15.03
  -5  -5   0  700.39   14.57
  -5  -5   0  705.99   13.81
  -5  -5   0  668.20   13.63
  -5  -5   0  661.05   12.97
   5   5   0  681.52   13.77
  -5  -5   0  672.63   13.65
   5   5   1  519.50   13.20
  -5  -5  -1  493.63   11.12
  -5  -5  -1  525.25   11.42
  -5  -5  -1  516.87   11.55
  -5  -5  -1  519.74   11.30
  -5  -5  -1  498.67   10.69
   5   5   1  524.42   12.19
  -5  -5  -1  516.60   11.31
  -5  -5  -1  544.16   11.59
  -5  -5  -1  515.65   10.79
  -5  -5  -1  519.85   11.40
  -5  -5  -2    4.24    0.95
  -5  -5  -2    2.97    0.87
  -5  -5  -2    2.88    0.89
  -5  -5  -2    3.31    0.88
  -5  -5  -2    3.30    0.81
  -5  -5  -2    5.32    0.95
  -5  -5  -2    3.85    0.84
  -5  -5  -2    3.89    0.80
  -5  -5  -2    3.22    0.89
  -5  -5  -2    4.08    0.84
   5   5   2    5.82    0.79
  -5  -5  -2    3.36    0.90
  -5  -5  -2    3.18    0.74
  -5  -5  -3  168.65    5.22
  -5  -5  -3  183.44    5.27
  -5  -5  -3  181.81    5.11
   5   5   3  192.35    4.51
  -5  -5  -3  180.61    5.07
  -5  -5  -3  181.54    4.96
  -5  -5  -3  182.91    5.39
  -5  -5  -3  180.08    5.33
   5   5   3  180.14    4.78
  -5  -5  -3  183.44    5.33
  -5  -5  -3  177.35    5.15
  -5  -5  -3  194.28    5.93
  -5  -5  -3  183.57    5.80
  -5  -5  -3  177.65    5.73
  -5  -5  -4 2471.53   43.63
  -5  -5  -4 2634.59   43.11
  -5  -5  -4 2661.67   42.92
  -5  -5  -4 2612.02   43.06
  -5  -5  -4 2616.82   42.69
   5   5   4 2581.85   42.24
  -5  -5  -4 2583.26   43.07
  -5  -5  -4 2595.10   42.87
  -5  -5  -4 2602.27   42.92
  -5  -5  -4 2597.63   42.76
   5   5   4 2541.50   42.52
  -5  -5  -4 2605.70   43.01
  -5  -5  -4 2564.26   42.84
  -5  -5  -4 2609.13   43.84
  -5  -5  -4 2464.66   43.54
  -5  -5  -5  496.28   11.15
  -5  -5  -5  506.99   10.65
  -5  -5  -5  474.56   10.67
  -5  -5  -5  484.01   10.67
  -5  -5  -5  486.92   10.85
  -5  -5  -5  485.88   10.68
  -5  -5  -5  491.48   10.27
  -5  -5  -5  484.71   10.58
  -5  -5  -5  482.97   10.49
  -5  -5  -5  497.90   10.59
  -5  -5  -5  484.66   10.63
  -5  -5  -5  509.52   11.26
  -5  -5  -5  482.86   10.58
  -5  -5  -5  500.70   11.11
  -5  -5  -6    6.51    1.07
  -5  -5  -6   11.83    1.41
  -5  -5  -6    8.33    1.30
  -5  -5  -6   10.13    1.25
  -5  -5  -6    6.55    1.20
  -5  -5  -6    7.93    1.20
  -5  -5  -6    8.26    1.28
  -5  -5  -6   10.29    1.16
  -5  -5  -6    6.63    1.17
  -5  -5  -6    7.84    1.29
  -5  -5  -6    7.95    1.12
  -5  -5  -6   11.33    1.39
  -5  -5  -6   10.13    1.29
  -5  -5  -6   10.29    1.40
  -5  -5  -7  243.28    6.91
  -5  -5  -7  230.80    6.76
  -5  -5  -7  236.05    7.30
  -5  -5  -7  242.80    7.22
  -5  -5  -7  242.78    6.85
  -5  -5  -7  254.97    7.36
   5   5   7  229.01    6.82
  -5  -5  -7  236.34    6.30
  -5  -5  -7  235.65    6.12
  -5  -5  -7  232.05    6.71
  -5  -5  -7  250.25    6.47
  -5  -5  -7  246.47    7.59
  -5  -5  -7  247.89    6.53
  -5  -5  -7  239.24    6.02
  -5  -5  -7  234.42    6.50
  -5  -5  -8  146.83    5.27
  -5  -5  -8  151.13    5.19
   5   5   8  153.61    5.60
  -5  -5  -8  142.96    5.91
  -5  -5  -8  149.15    5.77
  -5  -5  -8  151.47    5.15
  -5  -5  -8  154.99    5.70
  -5  -5  -8  145.39    4.58
  -5  -5  -8  145.96    5.56
  -5  -5  -8  140.97    5.95
  -5  -5  -8  154.85    4.84
  -5  -5  -9   13.27    1.64
  -5  -5  -9   19.19    1.89
   5   5   9   15.68    1.87
  -5  -5  -9   17.85    2.30
  -5  -5  -9   19.14    2.33
  -5  -5  -9   16.69    2.03
  -5  -5  -9   18.62    1.93
  -5  -5  -9   18.42    2.31
  -5  -5  -9   17.75    1.65
  -5  -5 -10   75.60    3.49
   5   5  10   78.96    4.04
  -5  -5 -10   79.21    4.61
  -5  -5 -10   81.70    3.83
  -5  -5 -10   83.81    4.55
  -5  -5 -10   81.25    4.51
  -5  -5 -10   83.71    3.57
  -5  -5 -10   79.60    4.06
  -5  -5 -11   20.03    2.20
  -5  -5 -11   20.27    2.20
  -5  -5 -11   16.66    1.80
  -5  -5 -11   20.24    2.12
  -5  -5 -12    5.03    1.06
  -5  -5 -12    4.05    0.99
  -5  -5 -12    2.81    0.88
  -5  -5 -12    4.50    0.90
  -5  -6   5  185.67    4.43
  -5  -6   5  200.10    5.25
   5   6  -5  186.30    5.18
   5   6  -5  181.44    5.14
   5   6  -5  190.32    5.48
  -5  -6   4  380.16    9.65
  -5  -6   4  368.94    9.01
   5   6  -4  354.31    9.19
   5   6  -4  360.03    9.25
   5   6  -4  368.79    9.65
   5   6  -3   12.20    1.79
  -5  -6   3   13.79    1.72
  -5  -6   3   16.70    1.54
   5   6  -3   13.26    1.61
   5   6  -3   12.67    1.62
   5   6  -2    9.64    1.62
   5   6  -2    5.23    2.16
  -5  -6   2   12.26    1.73
   5   6  -2    9.77    1.58
  -5  -6   2   10.76    1.41
   5   6  -2    9.32    1.43
   5   6  -2    8.57    1.42
  -5  -6   1  555.76   13.65
   5   6  -1  576.57   12.81
   5   6  -1  585.07   13.62
  -5  -6   1  573.95   12.88
   5   6  -1  570.39   12.77
   5   6  -1  572.92   13.49
   5   6  -1  583.21   16.72
   5   6   0   61.81    4.57
  -5  -6   0   65.85    2.90
  -5  -6   0   62.56    3.55
  -5  -6   0   61.20    2.80
   5   6   0   68.80    3.81
  -5  -6   0   69.11    3.35
  -5  -6   0   67.06    3.08
  -5  -6  -1  605.40   13.32
  -5  -6  -1  624.46   13.39
  -5  -6  -1  617.17   14.12
  -5  -6  -1  615.51   12.95
  -5  -6  -1  635.85   13.75
  -5  -6  -1  600.08   12.83
   5   6   1  653.11   14.47
  -5  -6  -1  619.19   13.03
  -5  -6  -2    8.53    1.41
  -5  -6  -2    7.14    1.30
  -5  -6  -2    6.26    1.06
  -5  -6  -2    8.24    1.40
  -5  -6  -2    5.84    1.11
  -5  -6  -2    6.31    1.14
  -5  -6  -2    7.14    1.00
   5   6   2    7.96    1.38
  -5  -6  -2    5.77    1.10
  -5  -6  -2    6.85    1.04
  -5  -6  -2    6.52    1.20
  -5  -6  -2    5.47    1.07
  -5  -6  -2    7.14    1.22
  -5  -6  -3  191.29    6.35
  -5  -6  -3  184.25    5.83
  -5  -6  -3  189.33    5.80
  -5  -6  -3  185.13    5.88
  -5  -6  -3  185.36    5.74
  -5  -6  -3  196.16    5.53
  -5  -6  -3  180.50    4.97
  -5  -6  -3  183.59    5.64
  -5  -6  -3  175.83    5.34
  -5  -6  -3  183.94    5.78
  -5  -6  -3  200.73    5.95
   5   6   3  195.02    6.35
  -5  -6  -3  187.82    5.47
  -5  -6  -3  193.92    6.25
  -5  -6  -3  198.56    6.30
  -5  -6  -4 1765.16   30.68
  -5  -6  -4 1700.35   29.76
  -5  -6  -4 1639.91   29.54
   5   6   4 1673.58   28.93
  -5  -6  -4 1619.75   29.43
  -5  -6  -4 1686.46   29.58
  -5  -6  -4 1648.12   29.42
  -5  -6  -4 1648.08   29.16
  -5  -6  -4 1704.32   28.05
  -5  -6  -4 1689.48   29.29
  -5  -6  -4 1676.72   29.62
  -5  -6  -4 1666.97   29.04
   5   6   4 1739.68   30.10
  -5  -6  -4 1646.79   30.16
  -5  -6  -4 1643.06   28.64
  -5  -6  -4 1673.27   30.27
  -5  -6  -4 1640.68   29.54
  -5  -6  -5 1849.59   34.62
  -5  -6  -5 2007.95   34.17
  -5  -6  -5 2005.59   34.30
  -5  -6  -5 1963.83   34.34
  -5  -6  -5 1964.99   34.29
   5   6   5 1951.40   34.10
  -5  -6  -5 1998.09   34.00
  -5  -6  -5 1973.15   34.24
  -5  -6  -5 1965.83   34.18
  -5  -6  -5 1964.02   33.37
  -5  -6  -5 1932.38   33.64
  -5  -6  -5 1960.32   34.01
   5   6   5 1938.62   33.75
  -5  -6  -5 1987.05   34.13
  -5  -6  -5 1945.91   34.67
  -5  -6  -5 1914.08   34.48
  -5  -6  -6   16.60    1.84
  -5  -6  -6   15.12    1.60
  -5  -6  -6   20.57    2.03
  -5  -6  -6   15.97    1.76
  -5  -6  -6   17.23    1.92
   5   6   6   17.31    1.93
  -5  -6  -6   16.67    1.70
  -5  -6  -6   18.21    1.87
  -5  -6  -6   19.35    1.55
  -5  -6  -6   13.68    1.70
  -5  -6  -6   15.49    1.64
   5   6   6   14.11    1.32
  -5  -6  -6   14.44    1.59
   5   6   6   16.73    1.30
  -5  -6  -6   16.34    1.81
  -5  -6  -7  170.00    5.36
  -5  -6  -7  181.38    6.24
  -5  -6  -7  169.74    5.86
   5   6   7  163.33    4.94
  -5  -6  -7  166.15    6.28
  -5  -6  -7  172.31    5.83
  -5  -6  -7  172.40    5.94
  -5  -6  -7  161.19    5.94
  -5  -6  -7  171.72    4.78
  -5  -6  -7  171.96    5.32
  -5  -6  -7  169.36    5.33
  -5  -6  -7  161.19    6.13
  -5  -6  -7  172.04    5.62
  -5  -6  -8  929.19   16.85
  -5  -6  -8  900.69   18.96
  -5  -6  -8  887.24   18.11
  -5  -6  -8  852.23   19.53
  -5  -6  -8  892.20   18.22
  -5  -6  -8  910.78   18.55
  -5  -6  -8  899.23   18.41
  -5  -6  -8  889.97   18.93
   5   6   8  845.20   17.10
  -5  -6  -8  911.89   19.54
  -5  -6  -8  896.48   17.01
  -5  -6  -9 1033.54   21.14
   5   6   9 1006.61   19.54
  -5  -6  -9 1007.26   22.52
  -5  -6  -9 1014.85   20.93
  -5  -6  -9 1001.94   20.01
  -5  -6  -9 1053.27   21.28
  -5  -6  -9 1053.48   21.44
  -5  -6  -9 1053.31   20.01
  -5  -6  -9 1065.56   22.23
  -5  -6  -9 1037.27   20.03
  -5  -6 -10  522.23   12.53
  -5  -6 -10  517.54   11.04
  -5  -6 -10  529.37   14.27
  -5  -6 -10  537.31   12.75
  -5  -6 -10  538.45   13.42
  -5  -6 -10  539.65   12.55
  -5  -6 -10  533.53   13.62
  -5  -6 -11  207.82    6.21
  -5  -6 -11  220.70    7.66
  -5  -6 -11  219.39    7.34
  -5  -6 -11  225.37    7.30
  -5  -6 -12   72.56    3.57
  -5  -6 -12   77.31    3.62
  -5  -6 -12   75.46    3.37
   5   7  -4    9.62    1.24
  -5  -7   4   11.70    1.33
  -5  -7   4   10.82    1.20
   5   7  -4   11.13    1.14
   5   7  -4    9.84    1.07
   5   7  -3    3.87    1.09
  -5  -7   3    6.56    1.36
  -5  -7   3    6.00    1.14
   5   7  -3    4.31    0.99
   5   7  -3    6.21    1.11
  -5  -7   2  119.80    5.72
  -5  -7   2  118.80    5.14
   5   7  -2  119.50    4.66
   5   7  -2  126.82    4.79
   5   7  -2  124.97    5.35
  -5  -7   1  241.30    8.71
  -5  -7   1  237.97    7.94
   5   7  -1  237.54    6.99
   5   7  -1  230.03    7.64
   5   7  -1  249.55    7.11
   5   7  -1  233.24    7.77
   5   7  -1  231.74    9.05
   5   7   0   42.55    3.80
  -5  -7   0   41.75    2.34
  -5  -7   0   43.76    3.43
  -5  -7   0   42.20    3.13
  -5  -7   0   43.04    2.38
   5   7   0   36.74    2.95
  -5  -7  -1   84.73    3.92
  -5  -7  -1   81.44    3.71
  -5  -7  -1   79.99    3.99
  -5  -7  -1   84.52    4.58
  -5  -7  -1   82.96    4.26
  -5  -7  -1   86.29    3.80
   5   7   1   80.96    4.33
  -5  -7  -2  585.98   13.56
  -5  -7  -2  579.60   13.06
  -5  -7  -2  593.55   13.16
  -5  -7  -2  569.54   12.49
  -5  -7  -2  564.40   11.34
  -5  -7  -2  585.86   13.79
  -5  -7  -2  596.66   13.47
  -5  -7  -2  583.96   13.03
   5   7   2  560.17   13.62
  -5  -7  -2  575.75   11.75
  -5  -7  -3  167.21    6.30
  -5  -7  -3  169.47    6.02
  -5  -7  -3  162.43    5.75
  -5  -7  -3  164.89    5.65
  -5  -7  -3  163.64    5.89
  -5  -7  -3  165.24    5.92
  -5  -7  -3  165.87    5.31
  -5  -7  -3  164.63    5.63
  -5  -7  -3  172.70    5.87
  -5  -7  -3  167.48    5.96
  -5  -7  -3  159.86    4.93
   5   7   3  171.51    6.13
  -5  -7  -4  114.54    5.16
  -5  -7  -4  116.69    4.94
  -5  -7  -4  116.78    4.80
   5   7   4  121.56    4.72
  -5  -7  -4  112.66    4.75
  -5  -7  -4  115.38    4.83
  -5  -7  -4  113.49    4.60
  -5  -7  -4  126.44    4.78
  -5  -7  -4  115.17    4.30
  -5  -7  -4  119.70    4.36
  -5  -7  -4  116.84    4.43
  -5  -7  -4  114.53    4.14
  -5  -7  -4  108.86    4.76
   5   7   4  116.14    4.64
  -5  -7  -4  111.97    4.35
  -5  -7  -5 1216.14   23.30
  -5  -7  -5 1224.21   23.39
  -5  -7  -5 1195.55   23.31
   5   7   5 1167.78   22.96
  -5  -7  -5 1183.64   23.28
  -5  -7  -5 1189.86   22.55
  -5  -7  -5 1180.63   23.15
  -5  -7  -5 1187.13   22.59
  -5  -7  -5 1215.25   22.00
  -5  -7  -5 1164.23   21.93
  -5  -7  -5 1200.83   23.21
   5   7   5 1157.98   22.00
  -5  -7  -5 1218.77   22.78
  -5  -7  -5 1224.75   23.89
  -5  -7  -6   16.67    1.97
  -5  -7  -6   17.60    1.92
  -5  -7  -6   19.89    2.21
  -5  -7  -6   16.07    1.95
  -5  -7  -6   16.81    2.10
   5   7   6   15.21    1.91
  -5  -7  -6   14.66    1.64
  -5  -7  -6   18.33    2.01
  -5  -7  -6   20.07    2.15
  -5  -7  -6   20.17    1.54
  -5  -7  -6   18.58    1.95
   5   7   6   18.25    1.45
  -5  -7  -6   16.80    1.98
  -5  -7  -7  183.87    6.26
  -5  -7  -7  177.70    6.01
  -5  -7  -7  175.56    6.40
  -5  -7  -7  174.36    6.81
   5   7   7  175.26    7.18
  -5  -7  -7  178.31    5.96
  -5  -7  -7  175.92    6.52
  -5  -7  -7  175.47    6.53
  -5  -7  -7  179.16    6.78
  -5  -7  -7  176.92    5.91
  -5  -7  -7  174.71    6.64
  -5  -7  -8  873.83   16.78
  -5  -7  -8  844.71   18.87
  -5  -7  -8  870.03   17.90
  -5  -7  -8  825.98   19.11
   5   7   8  801.05   20.16
  -5  -7  -8  783.32   17.08
  -5  -7  -8  834.10   18.00
  -5  -7  -8  785.11   18.07
  -5  -7  -8  858.57   17.48
  -5  -7  -8  826.03   16.46
  -5  -7  -8  842.40   16.70
  -5  -7  -8  844.36   18.86
  -5  -7  -9  619.09   15.24
  -5  -7  -9  630.11   14.18
  -5  -7  -9  600.36   15.74
   5   7   9  585.38   17.10
  -5  -7  -9  613.84   13.79
  -5  -7  -9  625.47   14.84
  -5  -7  -9  627.89   14.42
  -5  -7  -9  611.31   15.25
  -5  -7  -9  612.68   13.67
  -5  -7 -10  464.29   12.12
  -5  -7 -10  458.01   10.29
  -5  -7 -10  458.00   12.99
  -5  -7 -10  451.35   10.68
  -5  -7 -10  471.57   11.97
  -5  -7 -10  483.81   12.52
  -5  -7 -11   77.88    3.76
  -5  -7 -11   80.09    4.34
  -5  -7 -11   80.85    4.02
  -5  -7 -11   78.08    4.00
  -5  -7 -12    3.42    0.73
  -5  -7 -12    2.02    0.84
  -5  -7 -12    3.34    0.84
  -5  -7 -12    3.10    0.87
  -5  -8   3  182.27    5.65
  -5  -8   3  191.13    5.62
   5   8  -3  183.39    5.45
  -5  -8   2  476.20   12.10
  -5  -8   2  491.46   11.43
   5   8  -2  491.40   11.63
  -5  -8   1 1362.68   27.19
  -5  -8   1 1330.94   26.05
   5   8  -1 1336.98   25.93
   5   8   0   25.11    2.94
  -5  -8   0   22.52    2.58
  -5  -8   0   24.72    2.51
   5   8   0   29.71    2.61
   5   8   1   29.19    2.96
  -5  -8  -1   25.00    2.10
  -5  -8  -1   25.35    2.65
  -5  -8  -1   26.03    2.08
  -5  -8  -1   28.29    2.68
  -5  -8  -1   26.81    2.17
   5   8   1   21.17    2.30
  -5  -8  -2  419.29   11.13
  -5  -8  -2  429.70   11.10
  -5  -8  -2  414.56   10.74
  -5  -8  -2  441.20   10.47
  -5  -8  -2  452.85   11.94
  -5  -8  -2  441.90   11.76
  -5  -8  -2  432.43   11.66
  -5  -8  -2  436.68   11.11
   5   8   2  416.10   11.33
  -5  -8  -3 1136.34   22.89
  -5  -8  -3 1104.51   22.45
  -5  -8  -3 1067.75   21.69
  -5  -8  -3 1083.41   21.79
  -5  -8  -3 1097.41   22.21
  -5  -8  -3 1098.71   22.11
  -5  -8  -3 1092.12   20.68
  -5  -8  -3 1104.33   22.14
  -5  -8  -3 1121.66   21.99
  -5  -8  -3 1078.57   22.28
   5   8   3 1035.42   21.75
  -5  -8  -4   12.76    1.92
  -5  -8  -4   14.67    2.09
  -5  -8  -4   13.00    1.94
  -5  -8  -4   19.47    2.22
  -5  -8  -4   14.17    2.06
  -5  -8  -4   15.49    1.85
  -5  -8  -4   10.75    1.40
  -5  -8  -4   15.56    1.75
  -5  -8  -4   13.46    1.63
  -5  -8  -4   12.71    1.73
  -5  -8  -4   15.81    2.14
   5   8   4   14.36    1.70
  -5  -8  -5  189.59    7.17
  -5  -8  -5  188.17    7.04
  -5  -8  -5  191.47    6.88
   5   8   5  194.85    7.14
  -5  -8  -5  191.87    7.06
  -5  -8  -5  180.20    6.86
  -5  -8  -5  187.12    6.19
  -5  -8  -5  192.10    6.21
  -5  -8  -5  186.87    6.82
  -5  -8  -5  187.28    5.83
  -5  -8  -5  182.09    5.66
  -5  -8  -5  186.62    6.93
   5   8   5  184.18    5.88
  -5  -8  -6  260.00    8.33
  -5  -8  -6  260.54    8.22
  -5  -8  -6  228.68    8.13
  -5  -8  -6  223.22    7.99
   5   8   6  240.80    8.50
  -5  -8  -6  230.24    8.11
  -5  -8  -6  251.53    7.26
  -5  -8  -6  237.09    7.66
  -5  -8  -6  230.47    8.11
  -5  -8  -6  257.54    8.12
  -5  -8  -6  252.63    8.10
  -5  -8  -7  211.80    7.16
  -5  -8  -7  222.59    7.32
  -5  -8  -7  204.99    7.80
  -5  -8  -7  215.49    7.64
   5   8   7  219.50    8.39
  -5  -8  -7  222.03    7.98
  -5  -8  -7  217.54    6.63
  -5  -8  -7  208.71    7.44
  -5  -8  -7  218.95    7.78
  -5  -8  -7  213.02    7.09
  -5  -8  -7  213.29    7.67
  -5  -8  -8  821.52   16.73
  -5  -8  -8  830.58   17.12
  -5  -8  -8  849.71   19.41
  -5  -8  -8  813.66   18.03
   5   8   8  808.63   20.11
  -5  -8  -8  829.21   19.25
  -5  -8  -8  834.63   16.79
  -5  -8  -8  825.82   18.51
  -5  -8  -8  828.20   18.48
  -5  -8  -8  822.61   16.90
  -5  -8  -8  838.81   16.97
  -5  -8  -8  858.43   18.96
  -5  -8  -9   37.10    3.32
  -5  -8  -9   34.22    2.62
  -5  -8  -9   37.05    3.33
  -5  -8  -9   31.93    2.25
   5   8   9   33.51    3.53
  -5  -8  -9   39.09    2.98
  -5  -8  -9   32.62    2.10
  -5  -8  -9   35.50    2.60
  -5  -8  -9   36.03    3.11
  -5  -8 -10   58.45    3.84
  -5  -8 -10   52.50    2.77
  -5  -8 -10   56.48    3.85
  -5  -8 -10   54.13    3.13
  -5  -8 -10   57.62    3.32
  -5  -8 -10   66.68    3.96
  -5  -8 -11  258.86    7.67
  -5  -8 -11  258.90    8.01
  -5  -8 -11  257.61    7.31
  -5  -8 -11  272.52    7.75
  -5  -8 -12  129.01    4.01
  -5  -8 -12  131.00    4.51
  -5  -8 -12  127.91    4.05
  -5  -8 -12  135.33    4.25
  -5  -9   2   75.71    3.13
  -5  -9   2   72.85    2.88
  -5  -9   2   70.21    3.09
   5   9  -2   69.80    2.90
  -5  -9   1  415.41   10.25
  -5  -9   1  407.21    9.98
   5   9  -1  393.89    9.80
  -5  -9   1  410.53   10.44
  -5  -9   0   58.57    3.59
  -5  -9   0   53.35    3.38
  -5  -9   0   60.15    3.81
   5   9   0   56.79    3.36
  -5  -9  -1    1.85    0.80
  -5  -9  -1    2.16    1.04
  -5  -9  -1    2.17    1.07
  -5  -9  -1    4.56    1.43
  -5  -9  -1    3.37    0.91
  -5  -9  -2  121.19    4.73
  -5  -9  -2  123.21    5.12
  -5  -9  -2  122.04    4.56
  -5  -9  -2  115.32    5.20
  -5  -9  -2  128.29    5.77
  -5  -9  -2  122.01    5.47
  -5  -9  -2  119.35    5.03
   5   9   2  116.67    5.21
  -5  -9  -3 1433.04   27.91
  -5  -9  -3 1432.24   28.05
  -5  -9  -3 1447.03   26.84
  -5  -9  -3 1453.26   27.35
  -5  -9  -3 1468.02   25.46
  -5  -9  -3 1440.28   27.19
  -5  -9  -3 1442.39   28.13
  -5  -9  -3 1427.80   27.14
  -5  -9  -3 1386.06   27.84
   5   9   3 1344.73   27.00
  -5  -9  -4  105.84    5.25
  -5  -9  -4  116.36    5.09
  -5  -9  -4  115.96    5.67
  -5  -9  -4  111.52    5.38
  -5  -9  -4  116.07    5.30
  -5  -9  -4  119.62    4.87
  -5  -9  -4  118.36    4.84
  -5  -9  -4  122.07    5.29
  -5  -9  -4  114.84    4.53
  -5  -9  -4  107.01    5.40
   5   9   4  107.27    4.59
  -5  -9  -5   32.10    2.89
  -5  -9  -5   36.97    3.19
  -5  -9  -5   32.91    2.84
  -5  -9  -5   31.91    3.00
  -5  -9  -5   34.46    2.96
  -5  -9  -5   32.31    2.39
  -5  -9  -5   36.12    2.94
  -5  -9  -5   35.91    2.58
  -5  -9  -5   29.16    2.86
  -5  -9  -6  123.04    5.54
  -5  -9  -6  127.26    5.82
  -5  -9  -6  121.31    5.62
   5   9   6  112.41    5.59
  -5  -9  -6  116.62    5.70
  -5  -9  -6  119.17    5.54
  -5  -9  -6  121.23    4.53
  -5  -9  -6  118.25    5.66
  -5  -9  -6  113.75    5.49
  -5  -9  -7  172.12    6.35
  -5  -9  -7  168.53    6.53
  -5  -9  -7  182.79    7.19
  -5  -9  -7  161.67    6.72
   5   9   7  168.27    7.28
  -5  -9  -7  175.31    6.90
  -5  -9  -7  165.59    5.30
  -5  -9  -7  170.77    6.95
  -5  -9  -7  168.80    6.49
  -5  -9  -8  688.38   15.19
  -5  -9  -8  692.82   16.02
  -5  -9  -8  704.42   16.55
  -5  -9  -8  714.79   16.52
  -5  -9  -8  679.48   14.99
  -5  -9  -8  704.08   16.95
  -5  -9  -9   26.00    1.88
  -5  -9  -9   26.60    2.83
  -5  -9  -9   27.37    2.35
  -5  -9  -9   30.62    2.82
  -5  -9  -9   28.98    2.59
  -5  -9  -9   27.74    2.02
  -5  -9  -9   30.38    2.79
  -5  -9 -10   46.36    3.31
  -5  -9 -10   41.44    2.33
  -5  -9 -10   42.47    3.07
  -5  -9 -10   39.89    2.61
  -5  -9 -10   43.81    2.49
  -5  -9 -11  201.64    6.22
  -5  -9 -11  197.96    6.24
  -5 -10   0  266.29    6.57
  -5 -10   0  264.04    7.07
  -5 -10   0  259.97    6.86
   5  10   0  258.61    6.77
  -5 -10  -1  197.95    5.85
  -5 -10  -1  187.13    6.35
  -5 -10  -1  198.62    6.13
  -5 -10  -2  288.55    6.70
  -5 -10  -2  288.57    7.64
  -5 -10  -2  288.92    8.62
  -5 -10  -2  287.48    7.78
  -5 -10  -2  285.73    7.65
  -5 -10  -2  277.15    7.55
  -5 -10  -3  420.02   10.87
  -5 -10  -3  420.88   10.29
  -5 -10  -3  409.32    9.74
  -5 -10  -3  409.30   11.02
  -5 -10  -3  412.71    9.65
  -5 -10  -3  420.22   10.89
  -5 -10  -4  294.37    9.17
  -5 -10  -4  303.52    7.95
  -5 -10  -4  279.74    8.68
  -5 -10  -4  280.32    7.35
  -5 -10  -4  279.76    7.40
  -5 -10  -4  266.76    8.39
  -5 -10  -4  291.19    6.97
  -5 -10  -4  278.09    8.98
  -5 -10  -5   10.86    1.95
  -5 -10  -5   11.51    1.68
  -5 -10  -5   11.23    1.89
  -5 -10  -5   10.39    1.24
  -5 -10  -5    9.38    1.39
  -5 -10  -5   13.85    1.77
  -5 -10  -5   12.11    2.01
  -5 -10  -6  303.33    9.68
  -5 -10  -6  317.01    9.88
  -5 -10  -6  325.23    9.20
  -5 -10  -6  316.93    9.04
  -5 -10  -6  310.17    9.40
  -5 -10  -6  312.85    9.65
  -5 -10  -7   55.96    3.59
  -5 -10  -7   63.95    3.78
  -5 -10  -7   62.50    3.91
  -5 -10  -7   63.49    3.73
  -5 -10  -7   53.25    3.70
  -5 -10  -7   59.20    3.64
  -5 -10  -8  313.22    8.68
  -5 -10  -8  335.11    9.60
  -5 -10  -8  328.43    9.34
  -5 -10  -8  328.84    9.19
  -5 -10  -8  343.76    9.78
  -5 -10  -8  323.61    8.67
  -5 -10  -9  207.00    5.65
  -5 -10  -9  218.09    6.56
  -5 -10  -9  212.38    6.93
  -5 -10  -9  223.13    7.27
  -5 -10 -10   15.69    1.73
  -5 -10 -10   15.20    1.29
  -5 -10 -10   14.21    1.57
  -5 -10 -10   14.98    1.51
  -5 -11  -2  132.13    4.36
  -5 -11  -2  123.59    3.07
   5  11   2  132.82    4.12
  -5 -11  -3   96.32    3.65
  -5 -11  -3   91.32    3.04
  -5 -11  -3  102.36    4.01
  -5 -11  -3   96.21    3.63
  -5 -11  -4    5.23    1.20
  -5 -11  -4    4.52    1.06
  -5 -11  -4    4.68    0.99
  -5 -11  -4    4.80    1.12
  -5 -11  -5   47.07    3.14
  -5 -11  -5   47.73    3.08
  -5 -11  -5   44.37    2.30
  -5 -11  -5   49.06    2.56
  -5 -11  -5   47.85    3.12
  -5 -11  -5   39.80    2.17
  -5 -11  -6  499.34   12.14
  -5 -11  -6  478.40   10.44
  -5 -11  -6  498.29   12.15
  -5 -11  -6  482.22   11.08
  -5 -11  -6  489.82   11.92
  -5 -11  -7  155.04    4.97
  -5 -11  -7  160.46    5.74
  -5 -11  -7  150.32    5.47
  -5 -11  -7  144.49    5.30
  -5 -11  -7  158.16    5.52
  -5 -11  -8   10.91    1.27
  -5 -11  -8   11.74    1.36
  -5 -11  -8   13.04    1.51
  -5 -11  -8   13.84    1.42
  -5 -11  -8   12.80    1.57
  -5 -11  -8   12.76    1.33
  -5 -11  -9  145.11    4.22
  -5 -11  -9  144.75    4.69
  -5 -11  -9  145.48    4.54
  -5 -11  -9  143.44    4.31
   6  -5  -3   93.77    3.72
   6  -5  -3   91.53    3.33
   6  -5  -3   99.92    3.82
   6  -5  -2  136.79    4.83
  -6   5   2  127.56    3.99
   6  -5  -2  127.72    4.47
   6  -5  -2  127.12    4.15
   6  -5  -2  136.90    4.85
  -6   5   2  122.41    4.03
   6  -5  -1   84.15    3.79
  -6   5   1   90.76    3.63
   6  -5  -1   80.39    3.60
   6  -5  -1   76.13    3.42
   6  -5  -1   82.42    3.76
  -6   5   1   72.02    3.29
   6  -5   0   13.09    1.56
  -6   5   0   11.68    1.40
   6  -5   0   12.96    1.52
   6  -5   0   11.26    1.46
  -6   5   0   11.23    1.40
  -6   5  -1  740.66   14.84
  -6   5  -1  716.08   13.85
   6  -5   1  725.06   14.93
  -6   5  -1  715.68   14.74
  -6   5  -2  302.11    7.59
  -6   5  -2  314.18    7.68
   6  -5   2  303.35    7.37
   6  -5   2  316.54    7.88
  -6   5  -2  322.67    8.14
   6  -5   3    0.66    0.45
  -6   5  -3    1.48    0.57
   6  -5   3    1.11    0.60
  -6   5  -3    0.48    0.60
  -6   5  -3    2.50    0.61
   6  -5   4   25.33    1.18
  -6   5  -4   29.27    2.02
  -6   5  -4   28.75    1.63
  -6   5  -4   30.58    1.67
  -6   5  -4   25.11    1.60
   6  -4  -5  444.85    9.75
   6  -4  -5  449.26    9.80
   6  -4  -4  359.90    8.92
   6  -4  -4  348.60    8.82
  -6   4   3    3.67    0.77
   6  -4  -3    4.12    0.91
  -6   4   3    3.93    0.74
   6  -4  -3    5.12    0.82
   6  -4  -3    5.29    1.20
   6  -4  -3    5.23    1.14
   6  -4  -2  245.79    7.73
  -6   4   2  244.78    6.81
   6  -4  -2  251.31    7.80
  -6   4   2  245.34    6.92
  -6   4   1  677.47   14.89
   6  -4  -1  685.60   15.34
   6  -4  -1  667.17   15.25
  -6   4   1  681.52   14.99
  -6   4   0  179.62    6.63
   6  -4   0  197.29    6.77
   6  -4   0  193.13    6.73
  -6   4   0  188.04    6.78
  -6   4  -1  125.06    5.36
   6  -4   1  126.51    5.23
   6  -4   1  134.44    5.35
  -6   4  -1  129.34    5.50
  -6   4  -2  197.88    6.78
  -6   4  -2  202.97    6.05
  -6   4  -2  200.34    6.82
  -6   4  -3   25.60    2.12
  -6   4  -3   27.92    2.21
  -6   4  -4   82.30    3.34
  -6   4  -4   85.59    4.17
  -6   4  -4   81.24    3.31
  -6   4  -5  196.21    6.46
  -6   4  -5  180.61    5.16
  -6   4  -5  185.05    5.21
  -6   4  -5  193.38    6.10
  -6   4  -6   32.15    2.17
  -6   4  -6   31.10    1.95
   6  -3  -5  324.73    6.93
   6  -3  -5  342.16    8.69
   6  -3  -5  332.92    8.62
   6  -3  -4  385.35    8.36
   6  -3  -4  407.14   10.37
   6  -3  -4  392.18   10.26
   6  -3  -3   41.56    2.19
   6  -3  -3   40.98    3.03
  -6   3   3   39.81    2.12
   6  -3  -3   43.02    3.10
  -6   3   3   39.52    2.24
   6  -3  -2   87.87    4.49
  -6   3   2   78.90    3.77
   6  -3  -2   92.24    4.60
  -6   3   2   82.66    4.26
  -6   3   2   79.24    3.82
  -6   3   1  288.47    8.76
   6  -3  -1  288.64    8.88
  -6   3   1  306.27    8.57
  -6   3   1  285.58    7.59
   6  -3  -1  292.83    7.48
   6  -3  -1  294.45    8.96
   6  -3  -1  276.54    7.73
  -6   3   1  299.80    8.98
  -6   3   1  290.90    8.86
  -6   3   0  307.18    9.65
   6  -3   0  311.92    9.22
  -6   3   0  315.76    9.33
   6  -3   0  312.81    7.81
   6  -3   0  304.09    9.15
   6  -3   0  311.10    7.65
  -6   3   0  337.64    9.42
  -6   3   0  314.25    9.80
   6  -3   1    3.83    0.92
  -6   3  -1    1.59    1.25
   6  -3   1    3.10    0.96
   6  -3   1    4.44    1.20
  -6   3  -1    2.87    1.16
  -6   3  -1    2.35    0.90
  -6   3  -1    5.30    1.48
   6  -3   2    2.78    0.91
  -6   3  -2    4.84    1.40
   6  -3   2    3.53    0.96
   6  -3   2    5.64    1.19
  -6   3  -2    5.19    1.10
  -6   3  -2    6.69    1.42
  -6   3  -2    5.62    1.43
  -6   3  -3   71.49    4.02
   6  -3   3   61.84    3.33
  -6   3  -3   71.13    3.75
  -6   3  -3   60.48    3.22
  -6   3  -3   71.67    4.04
  -6   3  -4  234.24    7.27
  -6   3  -4  245.50    6.22
  -6   3  -4  232.12    7.21
  -6   3  -5  606.07   12.58
  -6   3  -5  625.53   15.09
  -6   3  -5  618.69   14.82
  -6   3  -5  614.96   12.54
  -6   3  -6   19.99    2.12
  -6   3  -6   21.25    2.14
  -6   3  -7   12.92    1.54
  -6   3  -7   12.31    1.45
  -6   3  -7   11.45    1.43
   6  -2  -6  185.65    4.44
   6  -2  -6  204.84    5.85
  -6   2   6  190.18    4.09
   6  -2  -6  202.04    5.82
   6  -2  -5   23.08    1.63
   6  -2  -5   24.42    2.19
  -6   2   5   24.39    1.50
   6  -2  -5   24.00    2.21
   6  -2  -4  458.11   10.00
   6  -2  -4  447.60   11.74
  -6   2   4  450.15    9.30
   6  -2  -4  452.11   11.80
   6  -2  -3   58.01    2.77
   6  -2  -3   58.67    3.72
   6  -2  -3   55.68    3.15
  -6   2   3   53.88    2.61
   6  -2  -3   58.09    3.72
   6  -2  -3   54.44    3.30
  -6   2   3   55.79    3.33
   6  -2  -3   57.56    3.11
   6  -2  -2    1.49    0.89
  -6   2   2    2.28    1.07
  -6   2   2    2.86    0.94
   6  -2  -2    1.36    0.84
   6  -2  -2    2.66    1.01
   6  -2  -2    2.66    1.10
  -6   2   2    2.01    0.89
  -6   2   2    4.68    1.09
   6  -2  -2    4.95    1.20
  -6   2   1  388.33   10.45
   6  -2  -1  367.45   10.29
  -6   2   1  386.20   10.16
  -6   2   1  376.55    9.13
   6  -2  -1  381.39    9.96
   6  -2  -1  369.91   10.34
   6  -2  -1  357.24    9.85
  -6   2   1  369.99   10.77
  -6   2   1  365.03   10.32
  -6   2   0  681.55   16.13
   6  -2   0  629.51   14.83
  -6   2   0  700.40   15.89
  -6   2   0  685.16   14.39
   6  -2   0  690.78   14.92
   6  -2   0  619.93   14.78
   6  -2   0  663.53   14.46
  -6   2   0  685.82   15.95
  -6   2   0  671.81   16.07
  -6   2  -1  266.14    8.98
   6  -2   1  262.47    7.87
  -6   2  -1  275.26    8.90
   6  -2   1  254.67    7.72
   6  -2   1  253.26    7.77
   6  -2   1  264.17    7.03
  -6   2  -1  254.82    8.23
  -6   2  -1  260.68    8.89
  -6   2  -2   20.33    2.59
   6  -2   2   21.27    2.08
   6  -2   2   24.79    2.12
  -6   2  -2   22.63    2.44
  -6   2  -2   19.83    2.45
   6  -2   2   22.55    2.11
   6  -2   2   22.05    2.04
  -6   2  -2   23.26    1.73
  -6   2  -2   26.08    2.30
   6  -2   3  126.72    4.95
  -6   2  -3  126.77    5.75
   6  -2   3  125.93    5.27
  -6   2  -3  130.76    5.57
   6  -2   3  134.16    5.15
   6  -2   3  135.71    5.09
  -6   2  -3  133.36    4.63
  -6   2  -3  133.59    5.01
  -6   2  -3  125.20    5.69
   6  -2   4  222.16    7.37
  -6   2  -4  218.58    7.43
  -6   2  -4  230.27    7.26
  -6   2  -4  215.91    6.63
   6  -2   4  219.28    6.71
  -6   2  -4  218.12    6.49
  -6   2  -4  217.76    7.46
   6  -2   5  739.95   16.44
  -6   2  -5  761.47   15.74
  -6   2  -5  727.45   14.82
   6  -2   5  743.58   14.91
  -6   2  -5  740.62   15.63
  -6   2  -5  728.81   15.36
  -6   2  -5  776.17   17.64
  -6   2  -6   23.67    2.50
  -6   2  -6   30.57    2.21
  -6   2  -6   25.82    2.61
  -6   2  -7  149.59    6.03
  -6   2  -7  149.84    6.03
  -6   2  -7  156.45    5.12
  -6   2  -8  382.73    9.76
  -6   2  -8  390.40    9.64
  -6   2  -8  364.35    8.40
  -6   2  -8  385.59    9.83
   6  -1  -6  605.51   13.06
  -6   1   6  603.94   12.03
   6  -1  -6  613.84   13.10
   6  -1  -6  602.41   12.38
  -6   1   5    3.85    0.88
   6  -1  -5    3.51    1.15
   6  -1  -5    3.86    1.11
   6  -1  -5    3.69    0.98
  -6   1   4    3.66    0.89
  -6   1   4    4.33    0.92
   6  -1  -4    4.46    1.24
   6  -1  -4    5.10    1.31
   6  -1  -4    5.32    1.11
   6  -1  -3  210.08    7.45
   6  -1  -3  210.86    7.02
  -6   1   3  199.73    6.11
   6  -1  -3  204.47    7.38
  -6   1   3  192.11    6.32
   6  -1  -3  199.61    6.37
   6  -1  -3  197.83    6.89
  -6   1   3  194.33    6.61
   6  -1  -3  204.54    6.94
   6  -1  -2  269.61    8.52
  -6   1   2  264.77    7.21
  -6   1   2  273.03    7.51
   6  -1  -2  286.38    8.54
  -6   1   2  277.37    7.20
   6  -1  -2  276.97    8.61
  -6   1   2  269.74    8.04
  -6   1   2  262.33    7.55
   6  -1  -2  280.46    7.46
   6  -1  -2  269.80    8.57
  -6   1   2  258.35    8.44
  -6   1   1  187.22    6.51
   6  -1  -1  172.51    6.30
  -6   1   1  186.58    6.35
   6  -1  -1  185.38    6.64
   6  -1  -1  177.24    6.35
  -6   1   1  189.56    6.49
  -6   1   1  178.08    5.54
   6  -1  -1  184.09    6.78
  -6   1   1  177.99    6.98
  -6   1   1  177.06    6.48
  -6   1   0  197.32    7.20
   6  -1   0  205.99    6.58
  -6   1   0  206.38    7.22
  -6   1   0  207.75    6.03
   6  -1   0  196.15    6.89
   6  -1   0  216.93    6.72
  -6   1   0  200.06    6.78
  -6   1   0  200.11    5.92
   6  -1   0  201.96    6.91
  -6   1   0  187.13    7.25
  -6   1   0  190.54    7.25
   6  -1   1   14.09    1.58
  -6   1  -1   16.34    1.61
  -6   1  -1   13.15    2.03
   6  -1   1   12.41    1.78
   6  -1   1   11.51    1.43
  -6   1  -1   13.09    1.43
  -6   1  -1   11.57    1.84
   6  -1   1   14.76    1.70
  -6   1  -1   11.18    1.77
  -6   1  -1   12.07    2.02
  -6   1  -2  136.72    6.14
   6  -1   2  131.04    4.79
  -6   1  -2  138.77    6.00
   6  -1   2  143.30    5.67
   6  -1   2  137.83    4.89
  -6   1  -2  136.99    4.81
   6  -1   2  136.56    4.47
  -6   1  -2  150.44    5.86
  -6   1  -2  136.16    6.10
   6  -1   3  137.13    4.75
  -6   1  -3  139.62    6.06
   6  -1   3  142.80    5.71
  -6   1  -3  146.91    6.09
   6  -1   3  146.74    5.72
   6  -1   3  129.71    4.64
  -6   1  -3  137.30    4.97
  -6   1  -3  155.34    5.64
  -6   1  -3  138.16    6.09
  -6   1  -4   27.32    2.57
  -6   1  -4   24.94    2.36
   6  -1   4   27.10    2.49
  -6   1  -4   27.22    2.26
   6  -1   4   28.10    2.47
   6  -1   4   28.04    2.03
  -6   1  -4   26.51    2.18
  -6   1  -4   29.57    2.67
   6  -1   5  138.81    5.83
  -6   1  -5  137.74    5.36
  -6   1  -5  125.36    4.95
  -6   1  -5  132.63    4.87
   6  -1   5  129.23    5.33
   6  -1   5  131.92    4.74
  -6   1  -5  129.99    5.25
  -6   1  -5  138.62    5.40
   6  -1   6  390.36   10.84
  -6   1  -6  394.22    9.41
   6  -1   6  399.01   10.43
   6  -1   6  391.91    9.41
  -6   1  -6  413.76   11.41
  -6   1  -6  379.01   10.35
  -6   1  -6  422.76   11.69
  -6   1  -6  394.98    9.44
   6  -1   7   45.49    3.14
   6  -1   7   50.03    2.84
   6  -1   7   51.78    2.89
  -6   1  -7   49.04    3.47
  -6   1  -7   50.01    3.23
  -6   1  -7   53.08    3.69
  -6   1  -8  219.53    7.48
  -6   1  -8  215.08    7.38
  -6   1  -8  226.52    7.10
  -6   1  -8  219.55    7.57
  -6   1  -9  361.11    9.29
  -6   1  -9  348.14    8.99
  -6   1  -9  347.41    8.70
  -6   1  -9  339.92    9.01
  -6   1  -9  347.60    8.64
  -6   1  -9  339.33    9.20
   6   0  -6  697.35   14.64
  -6   0   6  695.10   14.09
   6   0  -6  688.48   14.60
   6   0  -6  682.73   13.95
   6   0  -5  159.21    6.09
  -6   0   5  153.12    5.64
   6   0  -5  162.48    6.16
  -6   0   5  153.84    4.62
   6   0  -5  154.54    5.52
   6   0  -4   21.39    2.28
   6   0  -4   19.52    2.03
  -6   0   4   17.60    2.00
   6   0  -4   19.97    2.23
  -6   0   4   19.03    1.77
   6   0  -4   20.66    1.99
   6   0  -4   21.25    2.10
   6   0  -4   19.17    2.05
   6   0  -3  298.97    9.10
   6   0  -3  276.98    8.61
  -6   0   3  297.73    8.49
   6   0  -3  286.35    8.96
  -6   0   3  286.57    8.17
   6   0  -3  277.39    7.90
   6   0  -3  271.03    8.68
  -6   0   3  280.16    7.80
   6   0  -2  681.24   15.69
  -6   0   2  697.13   13.98
   6   0  -2  723.41   16.10
  -6   0   2  695.38   14.22
  -6   0   2  713.02   15.09
   6   0  -2  697.81   15.80
  -6   0   2  698.13   15.40
   6   0  -2  721.28   14.58
  -6   0   2  703.31   15.78
   6   0  -2  715.24   16.82
  -6   0   2  678.52   14.35
   6   0  -1  724.31   15.71
  -6   0   1  741.56   15.60
  -6   0   1  745.17   15.86
  -6   0   1  734.03   15.98
   6   0  -1  757.01   16.76
  -6   0   1  758.88   15.21
   6   0  -1  719.38   15.70
  -6   0   1  737.44   15.94
  -6   0   1  729.86   16.96
   6   0  -1  761.87   17.77
  -6   0   0  294.04    8.87
   6   0   0  308.70    8.14
  -6   0   0  308.41    8.90
   6   0   0  296.67    8.96
  -6   0   0  306.71    7.47
   6   0   0  303.42    8.11
  -6   0   0  308.84    8.57
  -6   0   0  286.97    9.38
   6   0   0  308.90    9.75
  -6   0   0  306.32    9.16
  -6   0  -1   20.81    2.33
   6   0   1   19.91    1.67
  -6   0  -1   23.26    2.37
   6   0   1   25.74    2.39
  -6   0  -1   20.05    1.38
   6   0   1   20.90    1.71
  -6   0  -1   23.05    2.04
  -6   0  -1   20.06    1.76
  -6   0  -1   21.45    2.39
   6   0   1   27.23    2.63
  -6   0  -1   28.43    2.70
  -6   0  -2  554.01   14.15
   6   0   2  563.75   11.26
  -6   0  -2  560.77   14.04
  -6   0  -2  560.17   11.67
   6   0   2  583.71   13.65
   6   0   2  548.21   11.20
  -6   0  -2  562.47   12.84
  -6   0  -2  574.16   12.28
  -6   0  -2  560.59   13.65
   6   0   2  572.26   12.68
  -6   0  -2  554.09   14.23
  -6   0  -3 1685.47   33.09
  -6   0  -3 1715.75   33.03
  -6   0  -3 1759.14   31.14
   6   0   3 1849.80   32.94
  -6   0  -3 1770.45   31.32
   6   0   3 1796.54   30.02
  -6   0  -3 1873.25   32.70
  -6   0  -3 1675.77   33.15
   6   0   4  424.56   11.29
  -6   0  -4  450.92   11.71
  -6   0  -4  432.01   11.39
  -6   0  -4  451.38   10.95
  -6   0  -4  445.24   10.80
   6   0   4  469.79   11.81
   6   0   4  459.50    9.63
  -6   0  -4  440.86   10.69
  -6   0  -4  423.31   11.49
   6   0   5    3.54    1.12
  -6   0  -5    2.73    0.97
   6   0   5    4.25    1.28
   6   0   5    3.83    0.89
  -6   0  -5    1.87    0.86
  -6   0  -5    2.02    0.90
  -6   0  -5    1.20    0.88
  -6   0  -5    2.72    1.01
   6   0   6  566.82   13.79
  -6   0  -6  581.35   12.32
  -6   0  -6  554.64   12.13
   6   0   6  566.55   12.00
  -6   0  -6  562.85   13.48
  -6   0  -6  566.54   13.92
  -6   0  -6  528.57   12.19
   6   0   7  380.92   10.58
   6   0   7  373.48   10.37
  -6   0  -7  397.68   10.84
  -6   0  -7  386.31   10.77
  -6   0  -7  375.92   11.03
   6   0   8  178.42    6.44
   6   0   8  180.01    6.22
  -6   0  -8  189.65    6.89
  -6   0  -8  193.34    7.28
  -6   0  -8  189.87    6.92
  -6   0  -8  187.88    7.17
  -6   0  -9  389.43   10.65
  -6   0  -9  381.60   10.20
  -6   0  -9  393.08   10.00
  -6   0  -9  402.03   10.68
  -6   0  -9  403.45   10.50
  -6   0  -9  386.06   10.66
  -6   0 -10    9.81    1.37
  -6   0 -10   10.21    1.16
  -6   0 -10    8.45    1.27
  -6   0 -10   10.38    1.33
  -6   0 -10    8.29    1.15
   6   1  -6  221.69    6.63
  -6  -1   6  227.20    6.56
   6   1  -6  219.91    6.61
   6   1  -6  219.00    6.19
   6   1  -5  207.83    7.03
  -6  -1   5  199.47    6.93
  -6  -1   5  195.23    5.69
   6   1  -5  201.01    6.93
   6   1  -5  198.59    6.41
   6   1  -4   49.75    3.42
   6   1  -4   50.84    3.17
  -6  -1   4   54.41    3.58
  -6  -1   4   49.38    2.96
   6   1  -4   52.06    3.51
   6   1  -4   49.82    3.07
   6   1  -4   44.51    2.98
   6   1  -4   49.97    3.14
   6   1  -3   52.59    3.48
   6   1  -3   51.70    3.34
  -6  -1   3   57.75    3.66
  -6  -1   3   49.91    3.18
   6   1  -3   52.16    3.47
   6   1  -3   51.92    3.06
   6   1  -3   53.01    3.75
   6   1  -2  936.77   19.23
  -6  -1   2  911.10   17.36
   6   1  -2  925.37   19.68
  -6  -1   2  930.85   19.35
   6   1  -2  953.58   19.31
  -6  -1   2  907.72   19.01
   6   1  -2  919.87   18.03
  -6  -1   2  951.78   17.27
  -6  -1   2  899.90   18.79
   6   1  -2  925.09   21.44
   6   1  -1   72.72    3.58
  -6  -1   1   75.89    3.49
   6   1  -1   73.38    4.03
  -6  -1   1   71.05    3.42
  -6  -1   1   72.51    3.65
   6   1  -1   67.39    3.46
  -6  -1   1   74.47    3.74
  -6  -1   1   80.61    4.28
   6   1  -1   78.16    5.35
  -6  -1   1   67.62    3.45
   6   1   0 1070.65   20.25
  -6  -1   0 1086.96   21.89
  -6  -1   0 1103.02   21.63
  -6  -1   0 1096.46   21.71
   6   1   0 1088.18   22.21
  -6  -1   0 1129.22   20.86
   6   1   0 1091.37   20.32
  -6  -1   0 1155.93   21.47
  -6  -1   0 1084.71   22.75
   6   1   0 1106.30   25.19
   6   1   1   11.52    2.70
  -6  -1  -1    5.80    0.87
   6   1   1    4.91    1.24
  -6  -1  -1    5.78    1.37
  -6  -1  -1    5.40    0.92
  -6  -1  -1    8.04    1.22
  -6  -1  -1    4.38    1.24
  -6  -1  -1    5.39    1.23
  -6  -1  -1   11.67    1.76
  -6  -1  -2  165.83    6.34
  -6  -1  -2  162.68    6.35
  -6  -1  -2  161.06    4.91
   6   1   2  175.41    6.25
  -6  -1  -2  156.47    4.58
  -6  -1  -2  166.47    5.44
  -6  -1  -2  171.48    5.40
  -6  -1  -2  172.30    6.37
   6   1   2  162.25    6.94
  -6  -1  -2  159.43    6.36
  -6  -1  -3 1801.06   33.89
  -6  -1  -3 1795.16   33.85
  -6  -1  -3 1886.74   32.99
  -6  -1  -3 1889.02   32.05
   6   1   3 1945.01   33.93
  -6  -1  -3 1800.09   30.56
  -6  -1  -3 1849.71   32.28
  -6  -1  -3 1784.80   32.09
  -6  -1  -3 1972.01   33.91
   6   1   3 1805.97   33.23
  -6  -1  -3 1821.28   34.03
  -6  -1  -4  823.49   15.50
  -6  -1  -4  852.75   17.95
  -6  -1  -4  836.79   17.90
  -6  -1  -4  863.11   17.40
  -6  -1  -4  843.17   16.92
   6   1   4  888.34   18.38
  -6  -1  -4  823.88   15.13
  -6  -1  -4  869.98   17.03
  -6  -1  -4  847.59   18.07
   6   1   5    4.45    1.14
  -6  -1  -5    4.04    1.14
  -6  -1  -5    5.27    1.13
  -6  -1  -5    4.85    1.21
  -6  -1  -5    5.24    1.13
  -6  -1  -5    4.36    1.04
  -6  -1  -5    3.76    1.04
  -6  -1  -5    5.57    1.20
   6   1   6  107.39    4.92
  -6  -1  -6  104.21    4.29
  -6  -1  -6   95.07    4.65
  -6  -1  -6  102.83    4.21
  -6  -1  -6  107.26    4.31
  -6  -1  -6  110.43    4.85
  -6  -1  -6  106.07    4.74
  -6  -1  -6  113.58    4.47
   6   1   7  861.68   18.70
  -6  -1  -7  869.47   17.15
  -6  -1  -7  869.95   18.05
  -6  -1  -7  851.05   19.13
  -6  -1  -7  868.45   18.97
  -6  -1  -7  900.62   19.02
   6   1   8  400.70   10.93
  -6  -1  -8  433.06   11.12
  -6  -1  -8  449.42   12.22
  -6  -1  -8  429.88   11.72
  -6  -1  -8  438.16   11.85
   6   1   8  435.45   11.55
  -6  -1  -9  275.86    8.87
  -6  -1  -9  268.47    8.10
  -6  -1  -9  272.45    7.94
  -6  -1  -9  267.37    8.81
  -6  -1  -9  273.96    8.72
  -6  -1  -9  259.06    8.54
  -6  -1 -10    2.93    1.08
  -6  -1 -10    2.74    0.87
  -6  -1 -10    2.38    1.07
  -6  -1 -10    2.21    0.97
  -6  -1 -10    1.72    0.84
  -6  -1 -11   19.82    1.74
  -6  -1 -11   18.81    1.62
  -6  -1 -11   19.29    1.67
  -6  -1 -11   19.90    1.49
   6   2  -6   78.62    3.44
  -6  -2   6   75.70    3.39
  -6  -2   6   68.38    2.27
   6   2  -6   71.42    3.30
   6   2  -6   76.21    3.16
   6   2  -5   92.81    4.40
  -6  -2   5   98.77    4.63
  -6  -2   5   92.86    3.78
   6   2  -5   95.84    4.46
   6   2  -5   91.83    4.08
   6   2  -4  316.07    9.34
   6   2  -4  319.25    8.38
  -6  -2   4  319.69    9.80
  -6  -2   4  309.68    8.71
   6   2  -4  323.73    9.44
   6   2  -4  329.06    8.91
   6   2  -4  299.71    8.31
   6   2  -4  295.49    8.07
   6   2  -3  529.96   13.04
   6   2  -3  532.42   12.67
  -6  -2   3  529.30   13.67
  -6  -2   3  518.46   12.78
   6   2  -3  526.33   13.04
   6   2  -3  515.00   12.20
   6   2  -3  519.02   13.97
   6   2  -2 1126.58   22.30
   6   2  -2 1169.32   22.84
   6   2  -2 1196.55   21.01
  -6  -2   2 1102.04   23.09
  -6  -2   2 1114.51   22.52
   6   2  -2 1129.80   22.35
   6   2  -2 1107.11   21.37
   6   2  -2 1081.10   25.81
   6   2  -1    5.41    2.94
  -6  -2   1    5.86    1.00
   6   2  -1    5.38    1.28
  -6  -2   1    5.27    1.28
  -6  -2   1    4.62    1.09
   6   2  -1    5.36    1.08
   6   2  -1    4.25    1.04
  -6  -2   1    6.06    1.01
  -6  -2   0  614.34   13.14
   6   2   0  617.50   18.86
   6   2   0  640.58   12.55
  -6  -2   0  630.83   12.38
  -6  -2   0  662.65   14.05
   6   2   0  655.67   14.68
  -6  -2   0  630.70   14.11
  -6  -2   0  660.36   14.02
  -6  -2   0  669.99   14.16
   6   2   0  641.28   12.56
  -6  -2   0  625.47   13.82
  -6  -2   0  634.34   14.67
  -6  -2  -1  951.73   18.30
  -6  -2  -1  980.08   19.57
  -6  -2  -1  938.36   17.48
   6   2   1  974.13   19.66
  -6  -2  -1  970.84   19.55
  -6  -2  -1  935.48   18.34
  -6  -2  -1  959.12   18.53
  -6  -2  -1  990.59   20.14
  -6  -2  -1  951.94   19.64
   6   2   1  915.62   24.14
  -6  -2  -2  279.53    7.51
  -6  -2  -2  280.99    7.01
  -6  -2  -2  301.58    8.61
  -6  -2  -2  286.50    7.96
  -6  -2  -2  292.84    7.13
   6   2   2  284.27    8.30
  -6  -2  -2  289.36    8.51
   6   2   2  285.13   11.17
  -6  -2  -2  285.98    7.22
  -6  -2  -2  291.32    7.46
  -6  -2  -2  272.46    8.47
  -6  -2  -3  538.35   11.74
  -6  -2  -3  532.92   11.49
  -6  -2  -3  526.17   10.29
  -6  -2  -3  554.21   13.01
  -6  -2  -3  547.99   12.22
  -6  -2  -3  550.16   11.51
   6   2   3  545.49   12.81
  -6  -2  -3  519.53   12.79
  -6  -2  -3  527.82   11.01
  -6  -2  -3  556.80   11.49
  -6  -2  -3  515.90   11.54
  -6  -2  -3  540.85   13.08
   6   2   3  511.85   14.79
  -6  -2  -4  877.44   17.10
  -6  -2  -4  869.34   17.06
  -6  -2  -4  860.27   16.13
  -6  -2  -4  869.61   17.51
  -6  -2  -4  881.10   18.28
  -6  -2  -4  881.96   17.10
   6   2   4  901.05   18.49
  -6  -2  -4  869.51   18.15
  -6  -2  -4  868.73   16.25
  -6  -2  -4  881.43   16.45
  -6  -2  -4  844.26   17.00
  -6  -2  -4  865.14   18.30
   6   2   4  821.26   18.66
  -6  -2  -5   47.52    2.76
  -6  -2  -5   39.24    2.68
  -6  -2  -5   45.75    2.65
  -6  -2  -5   43.55    2.76
  -6  -2  -5   40.76    2.67
  -6  -2  -5   48.62    2.95
  -6  -2  -5   47.07    2.44
  -6  -2  -5   41.96    2.77
  -6  -2  -5   43.01    2.76
  -6  -2  -5   44.25    2.70
  -6  -2  -5   50.28    3.01
   6   2   6   44.38    2.88
  -6  -2  -6   44.14    2.93
  -6  -2  -6   39.03    2.74
  -6  -2  -6   45.89    2.80
  -6  -2  -6   41.00    2.87
  -6  -2  -6   42.59    2.61
  -6  -2  -6   41.46    2.58
  -6  -2  -6   43.20    2.98
  -6  -2  -6   44.04    2.85
  -6  -2  -6   37.72    2.55
  -6  -2  -6   42.84    2.66
   6   2   7  380.50   10.16
  -6  -2  -7  391.87   10.56
  -6  -2  -7  386.08    9.65
  -6  -2  -7  377.04   10.40
  -6  -2  -7  397.69    8.99
  -6  -2  -7  396.56    9.37
  -6  -2  -7  373.85   10.79
  -6  -2  -7  393.24   10.54
  -6  -2  -7  393.10   10.19
  -6  -2  -7  393.35    9.02
   6   2   8   74.23    3.87
   6   2   8   72.13    4.25
  -6  -2  -8   76.04    3.47
  -6  -2  -8   76.73    3.72
  -6  -2  -8   78.10    3.49
  -6  -2  -8   76.33    4.46
  -6  -2  -8   79.11    4.36
  -6  -2  -8   75.03    4.06
   6   2   9  150.33    5.30
   6   2   9  151.22    6.16
  -6  -2  -9  158.53    6.48
  -6  -2  -9  163.82    5.71
  -6  -2  -9  168.12    5.64
  -6  -2  -9  161.95    6.73
  -6  -2  -9  177.92    6.69
  -6  -2  -9  169.97    6.47
  -6  -2 -10   14.94    1.93
  -6  -2 -10   15.35    1.53
  -6  -2 -10   11.91    1.79
  -6  -2 -10   15.85    1.96
  -6  -2 -10   10.79    1.47
  -6  -2 -11   13.36    1.63
  -6  -2 -11   12.73    1.56
  -6  -2 -11   15.36    1.61
  -6  -2 -11   14.08    1.44
   6   3  -6   98.51    3.58
  -6  -3   6  102.33    3.63
  -6  -3   6   94.44    2.75
   6   3  -6   97.40    3.57
   6   3  -6   96.40    3.41
  -6  -3   5    9.73    1.46
  -6  -3   5    8.80    1.19
   6   3  -5    8.65    1.35
   6   3  -5    8.81    1.34
   6   3  -5    7.88    1.21
   6   3  -4  263.99    8.21
  -6  -3   4  279.33    8.89
  -6  -3   4  254.56    7.89
   6   3  -4  259.52    8.17
   6   3  -4  260.25    7.77
   6   3  -3  379.00   10.34
   6   3  -3  368.65    9.40
  -6  -3   3  399.10   11.45
   6   3  -3  378.15   10.35
   6   3  -3  372.66    9.84
   6   3  -3  369.85   11.51
  -6  -3   2 1285.42   22.76
   6   3  -2 1256.80   24.33
   6   3  -2 1273.45   24.24
   6   3  -2 1325.89   23.50
  -6  -3   2 1270.31   25.99
   6   3  -2 1281.67   24.44
   6   3  -2 1242.35   23.72
   6   3  -1    6.13    1.02
   6   3  -1    6.30    3.23
  -6  -3   1    2.95    0.75
  -6  -3   1    3.07    0.78
   6   3  -1    3.65    1.03
  -6  -3   1    4.03    0.86
   6   3  -1    3.67    1.03
  -6  -3   1    3.14    1.17
   6   3  -1    2.34    0.81
   6   3  -1    4.54    1.04
  -6  -3   1    4.13    0.82
   6   3   0   20.87    4.30
  -6  -3   0   13.29    1.45
  -6  -3   0   14.93    1.27
  -6  -3   0   13.87    1.42
  -6  -3   0   16.14    1.51
   6   3   0   14.14    1.72
  -6  -3   0   31.23    2.15
  -6  -3   0   14.81    1.79
  -6  -3   0   31.25    2.18
  -6  -3  -1 2351.54   39.26
  -6  -3  -1 2300.56   38.01
  -6  -3  -1 2197.24   39.34
  -6  -3  -1 2364.94   39.09
   6   3   1 2396.33   40.63
  -6  -3  -1 2426.18   40.50
  -6  -3  -1 2272.53   39.88
  -6  -3  -1 2367.10   39.72
  -6  -3  -1 2232.66   40.10
  -6  -3  -1 2343.24   40.55
   6   3   1 2266.41   47.00
  -6  -3  -2  796.81   15.73
  -6  -3  -2  789.30   14.90
  -6  -3  -2  791.18   14.64
  -6  -3  -2  794.91   16.12
  -6  -3  -2  785.67   15.45
   6   3   2  799.47   16.63
  -6  -3  -2  811.61   16.89
  -6  -3  -2  784.55   15.83
  -6  -3  -2  810.39   15.64
  -6  -3  -2  804.77   16.83
  -6  -3  -2  822.35   17.10
   6   3   2  790.27   20.87
  -6  -3  -3  323.52    8.07
  -6  -3  -3  339.09    7.94
  -6  -3  -3  306.77    7.29
  -6  -3  -3  333.90    8.50
  -6  -3  -3  309.74    7.82
   6   3   3  326.91    8.83
  -6  -3  -3  336.75    9.09
  -6  -3  -3  326.38    8.01
  -6  -3  -3  322.69    8.94
  -6  -3  -3  325.54    7.60
  -6  -3  -3  318.26    8.04
  -6  -3  -3  330.35    9.12
   6   3   3  323.04   11.13
  -6  -3  -4   71.47    3.25
  -6  -3  -4   77.79    3.40
  -6  -3  -4   73.12    3.09
  -6  -3  -4   68.64    3.40
  -6  -3  -4   68.88    3.21
   6   3   4   73.45    3.79
  -6  -3  -4   74.23    3.81
  -6  -3  -4   70.21    3.12
  -6  -3  -4   72.24    2.75
  -6  -3  -4   72.03    3.70
  -6  -3  -4   67.58    3.16
  -6  -3  -4   63.75    3.58
   6   3   4   75.62    4.70
  -6  -3  -5  257.61    6.90
  -6  -3  -5  247.18    7.00
  -6  -3  -5  256.92    6.96
  -6  -3  -5  244.93    7.18
  -6  -3  -5  244.47    7.01
  -6  -3  -5  261.44    7.52
  -6  -3  -5  251.87    6.74
  -6  -3  -5  251.36    6.83
  -6  -3  -5  254.43    7.43
  -6  -3  -5  244.59    6.89
  -6  -3  -5  256.97    7.56
   6   3   5  241.27    8.07
  -6  -3  -6  404.46    9.34
   6   3   6  383.83    9.56
  -6  -3  -6  404.28    9.87
  -6  -3  -6  393.27    9.86
  -6  -3  -6  392.39    9.83
  -6  -3  -6  398.73    9.92
  -6  -3  -6  384.30    9.52
  -6  -3  -6  381.85    9.29
  -6  -3  -6  402.25    9.66
  -6  -3  -6  384.00   10.09
  -6  -3  -6  395.06    9.71
  -6  -3  -6  384.03    8.80
  -6  -3  -7 1039.22   18.77
  -6  -3  -7 1008.13   19.85
   6   3   7  987.81   19.59
  -6  -3  -7 1013.92   18.92
  -6  -3  -7  975.33   20.43
  -6  -3  -7 1019.14   19.92
  -6  -3  -7  991.73   20.21
  -6  -3  -7  990.28   19.97
  -6  -3  -7 1024.44   18.93
  -6  -3  -7 1027.74   21.22
  -6  -3  -7 1006.21   20.15
  -6  -3  -7  974.34   19.39
   6   3   8   11.85    1.47
  -6  -3  -8    9.84    1.67
   6   3   8   10.12    1.71
  -6  -3  -8    8.26    1.87
  -6  -3  -8    8.60    1.38
  -6  -3  -8    9.21    1.60
  -6  -3  -8    7.34    1.39
  -6  -3  -8   11.40    1.86
  -6  -3  -8    8.04    1.50
  -6  -3  -8   11.58    1.53
   6   3   9  187.32    7.05
  -6  -3  -9  187.00    5.84
  -6  -3  -9  193.01    7.07
  -6  -3  -9  182.87    7.27
  -6  -3  -9  183.08    6.85
  -6  -3  -9  193.33    6.59
  -6  -3  -9  186.03    6.25
  -6  -3 -10  398.76   11.11
  -6  -3 -10  408.97   11.35
  -6  -3 -10  407.02   10.78
  -6  -3 -10  390.07   10.09
  -6  -3 -11  120.11    4.45
  -6  -3 -11  126.51    5.17
  -6  -3 -11  122.31    5.07
  -6  -3 -11  120.69    4.78
  -6  -3 -12   44.98    2.49
  -6  -3 -12   45.19    2.41
   6   4  -5   40.95    2.46
  -6  -4   5   40.99    2.51
  -6  -4   5   40.07    2.34
   6   4  -5   42.64    2.51
   6   4  -5   42.82    2.46
  -6  -4   4  130.51    3.96
   6   4  -4  116.40    4.91
  -6  -4   4  129.81    5.52
   6   4  -4  123.82    5.05
   6   4  -4  122.22    4.87
  -6  -4   3   76.71    3.34
  -6  -4   3   81.88    3.32
   6   4  -3   73.26    3.86
  -6  -4   3   75.68    4.52
   6   4  -3   77.03    3.96
   6   4  -3   68.51    3.71
   6   4  -3   68.18    4.43
  -6  -4   2  625.29   13.42
   6   4  -2  595.61   18.11
  -6  -4   2  637.38   13.45
   6   4  -2  631.84   14.13
   6   4  -2  630.73   13.47
  -6  -4   2  629.44   15.90
   6   4  -2  623.61   14.11
   6   4  -2  641.70   14.00
  -6  -4   1  247.79    6.93
  -6  -4   1  235.44    6.88
   6   4  -1  243.35    6.88
   6   4  -1  245.84    6.91
   6   4  -1  250.65    7.35
  -6  -4   1  230.52    8.14
   6   4  -1  244.30    6.91
   6   4  -1  244.14    6.85
   6   4  -1  239.31   11.69
   6   4   0    2.84    2.86
  -6  -4   0    2.26    0.83
  -6  -4   0    3.57    0.85
  -6  -4   0    2.19    0.77
  -6  -4   0    4.68    1.13
  -6  -4   0    3.99    0.93
   6   4   0    2.87    0.89
   6   4   0    6.83    1.25
  -6  -4   0    3.66    1.20
  -6  -4   0    2.27    0.65
  -6  -4  -1  678.02   13.78
  -6  -4  -1  684.77   14.50
  -6  -4  -1  665.23   14.01
  -6  -4  -1  637.37   13.02
  -6  -4  -1  686.01   14.03
   6   4   1  695.40   14.24
  -6  -4  -1  698.78   14.51
  -6  -4  -1  667.61   14.72
  -6  -4  -1  691.30   13.83
   6   4   1  676.96   19.03
  -6  -4  -2 2148.94   36.29
  -6  -4  -2 2152.76   36.09
  -6  -4  -2 2050.96   35.17
  -6  -4  -2 2122.88   37.40
  -6  -4  -2 2123.22   36.03
  -6  -4  -2 2158.42   35.91
  -6  -4  -2 2086.64   36.13
  -6  -4  -2 2112.33   36.34
   6   4   2 2144.10   36.79
  -6  -4  -2 2219.13   37.54
  -6  -4  -2 2151.48   36.84
  -6  -4  -2 2092.02   36.93
   6   4   2 2159.89   41.35
   6   4   3   31.00    3.14
  -6  -4  -3   34.76    2.54
  -6  -4  -3   32.88    2.21
  -6  -4  -3   33.44    2.11
  -6  -4  -3   35.79    2.07
  -6  -4  -3   32.99    2.09
  -6  -4  -3   34.19    2.28
  -6  -4  -3   30.62    2.10
   6   4   3   33.75    2.36
  -6  -4  -3   38.64    2.66
  -6  -4  -3   33.27    2.21
  -6  -4  -3   32.27    1.86
  -6  -4  -3   33.43    2.45
   6   4   4  113.81    5.26
  -6  -4  -4  109.87    4.60
  -6  -4  -4  107.51    4.09
  -6  -4  -4  105.93    3.56
  -6  -4  -4  105.37    4.02
  -6  -4  -4  108.38    4.01
  -6  -4  -4  105.75    4.22
  -6  -4  -4  109.18    4.09
   6   4   4  109.03    4.47
  -6  -4  -4  109.50    4.59
  -6  -4  -4  109.24    4.13
  -6  -4  -4   96.26    3.80
  -6  -4  -4   98.36    4.27
   6   4   5  227.63    7.43
  -6  -4  -5  240.70    6.61
  -6  -4  -5  234.76    5.76
  -6  -4  -5  243.62    7.20
  -6  -4  -5  228.47    6.66
  -6  -4  -5  230.78    5.48
  -6  -4  -5  237.78    6.67
  -6  -4  -5  239.61    7.00
  -6  -4  -5  245.18    6.76
  -6  -4  -5  236.74    6.67
  -6  -4  -5  245.94    7.26
  -6  -4  -5  227.33    6.27
  -6  -4  -5  235.51    6.52
  -6  -4  -5  238.98    7.06
  -6  -4  -6  443.31   10.05
  -6  -4  -6  434.80    9.02
   6   4   6  426.35    9.74
  -6  -4  -6  433.04   10.48
  -6  -4  -6  421.90    9.18
  -6  -4  -6  431.32   10.60
  -6  -4  -6  439.63   10.49
  -6  -4  -6  434.50   10.71
  -6  -4  -6  449.60   10.52
  -6  -4  -6  433.12   10.34
  -6  -4  -6  455.36   10.56
  -6  -4  -6  453.62   10.88
  -6  -4  -6  458.73   10.29
   6   4   6  485.95   10.91
  -6  -4  -7 1997.37   35.01
   6   4   7 2113.54   35.11
  -6  -4  -7 2088.63   36.28
  -6  -4  -7 2063.81   35.14
  -6  -4  -7 2009.36   36.76
  -6  -4  -7 2065.43   36.52
  -6  -4  -7 2053.84   36.18
  -6  -4  -7 2032.61   35.53
  -6  -4  -7 2059.37   35.38
  -6  -4  -7 2072.25   35.35
  -6  -4  -7 2043.49   37.26
  -6  -4  -7 2086.81   36.01
  -6  -4  -8    7.40    1.53
   6   4   8    5.98    1.40
  -6  -4  -8    6.12    1.23
  -6  -4  -8    6.30    1.70
  -6  -4  -8    4.13    1.13
  -6  -4  -8    8.82    1.45
  -6  -4  -8    4.03    1.14
  -6  -4  -8    7.21    1.64
  -6  -4  -8    6.53    1.31
  -6  -4  -9   33.13    2.41
   6   4   9   26.92    2.57
  -6  -4  -9   25.30    2.20
  -6  -4  -9   28.92    2.97
  -6  -4  -9   27.74    2.32
  -6  -4  -9   30.54    2.60
  -6  -4  -9   29.28    2.85
  -6  -4  -9   27.75    2.39
   6   4  10  245.01    7.95
  -6  -4 -10  243.17    7.15
  -6  -4 -10  235.84    7.18
  -6  -4 -10  248.44    6.85
  -6  -4 -10  252.92    8.25
  -6  -4 -10  242.49    8.40
  -6  -4 -10  243.79    7.55
  -6  -4 -11  290.43    7.45
  -6  -4 -11  307.75    8.87
  -6  -4 -11  310.81    8.98
  -6  -4 -11  310.96    8.17
  -6  -4 -11  283.56    7.64
  -6  -4 -12    3.48    0.92
  -6  -4 -12    3.80    0.95
   6   5  -5  257.74    6.21
  -6  -5   5  257.99    6.34
   6   5  -5  251.17    6.16
   6   5  -5  253.96    6.32
  -6  -5   4  624.71   12.39
  -6  -5   4  620.91   11.71
   6   5  -4  604.33   13.12
  -6  -5   4  608.11   13.25
   6   5  -4  614.85   13.19
   6   5  -4  612.40   13.27
  -6  -5   3   91.35    3.98
  -6  -5   3   86.60    3.69
   6   5  -3   86.69    4.03
  -6  -5   3   92.71    4.62
   6   5  -3   89.86    4.12
   6   5  -3   85.08    4.06
   6   5  -2   15.93    3.10
  -6  -5   2   20.41    2.04
  -6  -5   2   19.78    1.94
   6   5  -2   18.28    1.87
   6   5  -2   15.76    1.71
  -6  -5   2   21.09    2.40
   6   5  -2   18.93    1.91
   6   5  -2   18.78    1.93
  -6  -5   1  514.23   11.91
  -6  -5   1  449.17   11.76
  -6  -5   1  501.71   11.87
   6   5  -1  452.42   10.50
   6   5  -1  458.90   11.26
  -6  -5   1  399.34   11.85
   6   5  -1  462.24   10.57
   6   5  -1  468.16   11.04
   6   5  -1  432.22   15.98
  -6  -5   0   36.79    2.20
  -6  -5   0   41.29    2.77
  -6  -5   0   40.07    2.84
  -6  -5   0   39.21    2.74
   6   5   0   37.77    2.79
  -6  -5   0   37.92    2.33
  -6  -5   0   35.89    2.85
  -6  -5   0   40.18    2.39
   6   5   0   40.59    2.36
   6   5   0   37.46    4.70
  -6  -5  -1  132.07    4.63
  -6  -5  -1  133.79    5.00
  -6  -5  -1  134.61    5.02
  -6  -5  -1  135.89    5.12
   6   5   1  133.02    4.21
   6   5   1  138.42    5.54
  -6  -5  -1  138.78    5.40
  -6  -5  -1  140.44    5.04
  -6  -5  -1  134.26    5.00
  -6  -5  -1  131.76    4.91
   6   5   1  140.78    7.51
   6   5   2  292.81   10.15
  -6  -5  -2  292.88    7.64
  -6  -5  -2  285.28    7.67
  -6  -5  -2  279.27    6.82
  -6  -5  -2  291.63    7.82
  -6  -5  -2  283.68    6.90
  -6  -5  -2  285.75    7.52
  -6  -5  -2  281.24    7.87
   6   5   2  299.57    7.20
  -6  -5  -2  291.55    8.05
  -6  -5  -2  292.98    8.19
  -6  -5  -2  297.72    8.33
  -6  -5  -2  294.49    8.11
   6   5   3   93.10    4.98
  -6  -5  -3   81.43    3.63
  -6  -5  -3   83.29    3.55
  -6  -5  -3   78.28    3.40
  -6  -5  -3   77.88    3.22
  -6  -5  -3   85.13    3.68
  -6  -5  -3   77.85    3.45
  -6  -5  -3   85.85    3.23
  -6  -5  -3   82.47    3.69
   6   5   3   85.05    3.42
  -6  -5  -3   84.00    3.73
  -6  -5  -3   88.58    4.15
  -6  -5  -3   82.97    4.00
  -6  -5  -3   79.93    3.87
  -6  -5  -4  111.02    4.31
  -6  -5  -4  112.00    4.11
  -6  -5  -4  107.97    4.18
  -6  -5  -4  110.31    3.88
  -6  -5  -4  105.53    4.08
  -6  -5  -4  109.75    4.26
  -6  -5  -4  113.93    4.42
  -6  -5  -4  110.22    4.27
   6   5   4  111.71    4.19
  -6  -5  -4  114.55    4.37
  -6  -5  -4  120.71    4.93
  -6  -5  -4  122.98    4.91
  -6  -5  -4  118.84    4.10
  -6  -5  -4  117.69    4.74
  -6  -5  -5 1138.47   21.44
  -6  -5  -5 1169.73   21.09
  -6  -5  -5 1119.75   21.56
  -6  -5  -5 1134.71   20.89
  -6  -5  -5 1098.30   21.34
  -6  -5  -5 1131.04   21.61
  -6  -5  -5 1141.30   21.85
  -6  -5  -5 1167.18   21.48
   6   5   5 1165.67   21.85
  -6  -5  -5 1138.72   21.64
  -6  -5  -5 1156.40   22.35
  -6  -5  -5 1200.68   22.44
  -6  -5  -5 1129.83   20.91
  -6  -5  -5 1155.78   20.91
  -6  -5  -5 1153.46   22.11
  -6  -5  -6   62.57    3.16
  -6  -5  -6   74.90    3.28
  -6  -5  -6   62.87    3.40
  -6  -5  -6   65.01    3.17
  -6  -5  -6   65.44    3.35
  -6  -5  -6   63.93    3.41
  -6  -5  -6   59.47    3.38
  -6  -5  -6   69.20    3.32
  -6  -5  -6   59.41    3.24
  -6  -5  -6   67.78    3.41
  -6  -5  -6   62.85    3.38
  -6  -5  -6   68.34    3.45
  -6  -5  -6   58.65    2.90
  -6  -5  -6   66.25    3.43
  -6  -5  -7 1483.94   26.93
  -6  -5  -7 1518.08   27.04
  -6  -5  -7 1510.78   27.32
  -6  -5  -7 1490.66   27.90
  -6  -5  -7 1506.04   27.54
  -6  -5  -7 1486.73   27.52
  -6  -5  -7 1478.73   28.29
  -6  -5  -7 1498.02   28.30
  -6  -5  -7 1542.44   27.52
  -6  -5  -7 1589.91   27.48
  -6  -5  -7 1528.52   28.70
  -6  -5  -7 1531.45   27.15
  -6  -5  -7 1500.11   27.36
  -6  -5  -8  269.89    6.90
  -6  -5  -8  271.65    7.31
  -6  -5  -8  266.80    7.93
   6   5   8  265.46    8.33
  -6  -5  -8  276.01    8.15
  -6  -5  -8  280.91    8.75
  -6  -5  -8  282.09    8.45
  -6  -5  -8  264.07    7.61
  -6  -5  -8  267.50    7.93
  -6  -5  -8  280.00    7.06
  -6  -5  -8  265.44    8.89
  -6  -5  -8  288.45    7.04
  -6  -5  -8  272.04    7.58
  -6  -5  -9    6.43    1.08
  -6  -5  -9    7.56    1.47
   6   5   9    7.06    1.39
  -6  -5  -9    6.86    1.42
  -6  -5  -9    8.02    1.77
  -6  -5  -9    8.94    1.54
  -6  -5  -9    7.27    1.24
  -6  -5  -9    8.13    1.46
  -6  -5  -9    6.94    1.54
  -6  -5  -9    8.25    1.30
  -6  -5 -10  359.55    8.64
   6   5  10  329.99    9.44
  -6  -5 -10  354.44    9.87
  -6  -5 -10  363.57    9.45
  -6  -5 -10  372.46   10.28
  -6  -5 -10  371.03   10.76
  -6  -5 -10  352.31    9.01
  -6  -5 -11  953.81   19.39
  -6  -5 -11  982.56   20.20
  -6  -5 -11  975.01   18.48
  -6  -5 -12  311.20    7.45
  -6  -5 -12  320.16    8.27
  -6  -5 -12  336.01    8.43
  -6  -6   4  557.68   11.08
   6   6  -4  532.39   10.89
  -6  -6   4  542.27   10.39
   6   6  -4  534.65   10.91
   6   6  -4  549.39   11.42
  -6  -6   3   32.98    2.40
  -6  -6   3   33.53    2.28
   6   6  -3   29.59    2.08
  -6  -6   3   32.68    2.18
   6   6  -3   29.11    2.09
   6   6  -3   29.58    2.27
  -6  -6   2  145.94    5.77
  -6  -6   2  141.25    5.54
   6   6  -2  141.59    5.01
  -6  -6   2  131.45    5.31
   6   6  -2  135.88    4.94
   6   6  -2  135.54    5.23
   6   6  -1   11.78    1.61
   6   6  -1   10.18    3.27
  -6  -6   1    9.60    1.70
  -6  -6   1    9.79    1.71
  -6  -6   1   10.84    1.73
   6   6  -1   10.13    1.57
  -6  -6   1    7.97    1.53
  -6  -6   0  458.14   10.16
  -6  -6   0  461.03   12.20
  -6  -6   0  484.34   12.21
  -6  -6   0  501.70   12.53
   6   6   0  471.64   11.92
  -6  -6   0  505.62   12.23
   6   6   0  474.16   11.12
   6   6   0  467.87   15.69
   6   6   1  185.21    8.60
  -6  -6  -1  179.06    5.68
  -6  -6  -1  176.58    5.87
  -6  -6  -1  185.56    6.67
  -6  -6  -1  182.36    6.35
  -6  -6  -1  188.29    6.69
   6   6   1  189.36    6.74
  -6  -6  -1  184.23    6.33
   6   6   2  174.68    7.56
  -6  -6  -2  163.35    5.59
  -6  -6  -2  161.69    5.81
  -6  -6  -2  168.31    5.02
  -6  -6  -2  172.00    6.18
  -6  -6  -2  174.38    5.78
  -6  -6  -2  178.22    6.24
   6   6   2  173.60    6.47
  -6  -6  -2  175.79    5.91
  -6  -6  -2  172.17    6.07
  -6  -6  -2  172.37    6.00
  -6  -6  -2  163.95    5.90
  -6  -6  -3   45.96    2.87
  -6  -6  -3   46.45    2.90
  -6  -6  -3   51.80    2.90
  -6  -6  -3   48.10    2.62
  -6  -6  -3   45.18    2.91
  -6  -6  -3   44.34    2.47
  -6  -6  -3   48.35    2.67
  -6  -6  -3   52.64    3.10
  -6  -6  -3   48.28    3.13
  -6  -6  -3   51.30    3.00
   6   6   3   41.50    3.08
  -6  -6  -3   48.36    2.85
  -6  -6  -3   46.89    2.70
  -6  -6  -3   43.73    3.01
  -6  -6  -3   50.46    3.21
  -6  -6  -4   35.47    2.57
  -6  -6  -4   32.72    2.36
  -6  -6  -4   35.27    2.53
  -6  -6  -4   36.45    2.44
  -6  -6  -4   33.72    2.64
  -6  -6  -4   31.35    2.28
  -6  -6  -4   34.95    2.50
  -6  -6  -4   33.09    2.35
  -6  -6  -4   34.22    1.93
  -6  -6  -4   33.12    2.40
  -6  -6  -4   30.96    2.39
   6   6   4   31.29    2.61
  -6  -6  -4   32.20    2.32
  -6  -6  -4   35.59    2.67
  -6  -6  -4   33.81    1.94
  -6  -6  -4   33.82    2.68
  -6  -6  -5 2523.54   42.75
  -6  -6  -5 2473.27   42.46
  -6  -6  -5 2516.83   42.77
  -6  -6  -5 2546.64   42.41
  -6  -6  -5 2469.48   42.75
  -6  -6  -5 2476.95   42.57
  -6  -6  -5 2310.86   43.08
  -6  -6  -5 2533.90   42.79
  -6  -6  -5 2530.36   42.27
  -6  -6  -5 2494.83   42.54
  -6  -6  -5 2509.96   42.58
  -6  -6  -5 2450.82   41.87
  -6  -6  -5 2432.35   43.18
  -6  -6  -5 2415.68   43.13
  -6  -6  -6    7.97    1.45
  -6  -6  -6    7.61    1.39
  -6  -6  -6   12.26    1.63
  -6  -6  -6    7.95    1.51
  -6  -6  -6    7.61    1.45
   6   6   6    6.98    1.26
  -6  -6  -6    9.38    1.48
  -6  -6  -6    7.41    1.44
  -6  -6  -6   10.32    1.37
  -6  -6  -6    6.26    1.41
   6   6   6    9.98    1.36
  -6  -6  -6    8.41    1.38
  -6  -6  -6    9.50    1.50
  -6  -6  -6    9.11    1.49
  -6  -6  -6    7.43    1.30
  -6  -6  -7   93.02    4.19
  -6  -6  -7   85.10    4.27
  -6  -6  -7   93.59    4.45
   6   6   7   79.05    3.62
  -6  -6  -7   87.84    4.34
  -6  -6  -7   84.57    4.16
  -6  -6  -7   87.28    4.40
  -6  -6  -7   85.65    3.78
  -6  -6  -7   89.10    3.91
  -6  -6  -7   80.11    4.26
  -6  -6  -7   92.87    3.97
  -6  -6  -7   90.65    4.03
  -6  -6  -7   88.34    4.05
  -6  -6  -8  422.70    9.77
  -6  -6  -8  427.85   10.63
  -6  -6  -8  424.23   10.87
   6   6   8  386.86    9.91
  -6  -6  -8  419.47   11.31
  -6  -6  -8  418.36   11.17
  -6  -6  -8  409.22   10.57
  -6  -6  -8  423.75   11.31
  -6  -6  -8  398.83    9.79
  -6  -6  -8  419.47   10.04
  -6  -6  -8  420.27   11.68
  -6  -6  -8  407.84    9.73
  -6  -6  -9  236.64    7.17
  -6  -6  -9  242.68    7.35
   6   6   9  222.78    6.75
  -6  -6  -9  231.84    8.09
  -6  -6  -9  226.33    7.85
  -6  -6  -9  226.75    7.72
  -6  -6  -9  227.68    7.36
  -6  -6  -9  237.06    8.45
  -6  -6 -10  360.07    9.08
  -6  -6 -10  376.42    9.14
  -6  -6 -10  363.08   10.73
  -6  -6 -10  379.87   10.12
  -6  -6 -10  383.35   10.35
  -6  -6 -10  385.42   11.10
  -6  -6 -11  343.95    9.60
  -6  -6 -11  342.01    9.38
  -6  -6 -11  359.15    9.96
  -6  -6 -12  155.46    5.05
  -6  -6 -12  152.68    5.07
  -6  -6 -12  163.42    5.37
  -6  -7   3  369.94    8.97
  -6  -7   3  371.36    8.62
   6   7  -3  353.07    8.52
  -6  -7   2   56.75    3.48
  -6  -7   2   59.31    3.40
   6   7  -2   54.47    3.06
  -6  -7   1  413.41   11.61
  -6  -7   1  411.04   11.14
  -6  -7   1  414.81   11.41
  -6  -7   1  418.23    9.80
   6   7  -1  430.26   10.57
  -6  -7   0 1135.38   23.68
  -6  -7   0 1119.00   23.00
  -6  -7   0 1152.01   23.53
   6   7   0 1132.33   21.75
   6   7   0 1102.91   22.39
  -6  -7   0 1096.87   21.43
   6   7   0 1113.89   26.85
   6   7   1 1062.63   24.63
  -6  -7  -1 1027.10   19.82
  -6  -7  -1 1020.15   22.05
  -6  -7  -1 1048.29   21.47
  -6  -7  -1 1035.99   21.95
   6   7   1 1028.16   21.39
  -6  -7  -1 1051.53   20.33
   6   7   1 1067.40   19.95
  -6  -7  -1  988.98   19.83
   6   7   2  427.62   12.95
  -6  -7  -2  414.53   10.43
  -6  -7  -2  409.18   10.72
  -6  -7  -2  413.03    9.45
  -6  -7  -2  423.34   11.43
  -6  -7  -2  429.23   10.93
  -6  -7  -2  430.94   11.43
  -6  -7  -2  395.96   10.20
   6   7   2  418.98   11.26
  -6  -7  -2  415.63   10.18
  -6  -7  -2  413.98   10.70
  -6  -7  -3  124.36    5.31
  -6  -7  -3  124.20    5.17
  -6  -7  -3  112.75    4.97
  -6  -7  -3  118.29    4.67
  -6  -7  -3  115.62    4.99
  -6  -7  -3  119.97    4.39
  -6  -7  -3  121.46    5.30
  -6  -7  -3  127.29    4.88
  -6  -7  -3  127.34    5.34
  -6  -7  -3  122.40    5.08
   6   7   3  125.01    5.38
  -6  -7  -3  130.87    4.83
  -6  -7  -4   10.05    1.73
  -6  -7  -4   14.38    1.92
  -6  -7  -4   12.43    1.91
  -6  -7  -4   11.90    1.64
  -6  -7  -4    9.29    1.68
  -6  -7  -4   12.73    1.76
  -6  -7  -4   12.25    1.50
  -6  -7  -4   13.28    1.43
  -6  -7  -4   10.47    1.53
  -6  -7  -4   10.39    1.52
   6   7   4   16.82    1.97
  -6  -7  -4   11.20    1.71
  -6  -7  -4   13.11    1.57
  -6  -7  -5 1622.36   30.11
  -6  -7  -5 1613.95   29.60
  -6  -7  -5 1581.70   29.35
  -6  -7  -5 1550.88   29.38
  -6  -7  -5 1570.00   29.36
  -6  -7  -5 1563.60   29.27
  -6  -7  -5 1591.59   29.24
  -6  -7  -5 1552.15   28.85
  -6  -7  -5 1586.25   28.67
  -6  -7  -5 1581.87   28.65
  -6  -7  -5 1572.18   29.42
   6   7   5 1544.66   29.04
  -6  -7  -5 1555.10   28.40
  -6  -7  -6  684.40   15.25
  -6  -7  -6  687.26   15.52
  -6  -7  -6  663.52   15.51
   6   7   6  682.26   14.77
  -6  -7  -6  683.75   15.57
  -6  -7  -6  688.07   15.30
  -6  -7  -6  675.16   15.43
  -6  -7  -6  670.44   15.29
  -6  -7  -6  689.12   14.35
  -6  -7  -6  694.01   14.91
  -6  -7  -6  681.25   15.14
   6   7   6  666.80   14.31
  -6  -7  -6  691.62   15.10
  -6  -7  -6  688.49   15.56
  -6  -7  -7  105.17    4.63
  -6  -7  -7  111.01    5.11
  -6  -7  -7  107.17    5.01
  -6  -7  -7  104.40    5.13
   6   7   7  106.60    5.31
  -6  -7  -7  104.48    4.81
  -6  -7  -7  111.50    5.06
  -6  -7  -7  108.18    5.09
  -6  -7  -7  114.32    4.31
  -6  -7  -7  106.78    4.59
  -6  -7  -7  105.95    5.00
  -6  -7  -7  110.02    4.79
  -6  -7  -8  311.80    8.32
  -6  -7  -8  316.29    9.42
  -6  -7  -8  305.19    9.08
  -6  -7  -8  292.53    9.54
   6   7   8  287.63   10.69
  -6  -7  -8  308.18    9.05
  -6  -7  -8  303.27    9.15
  -6  -7  -8  318.11    9.57
  -6  -7  -8  296.18    9.53
  -6  -7  -8  308.67    8.30
  -6  -7  -9  398.02    9.03
  -6  -7  -9  399.21   10.83
  -6  -7  -9  406.55   10.50
  -6  -7  -9  406.22   11.82
   6   7   9  369.47   13.91
  -6  -7  -9  396.80   10.73
  -6  -7  -9  385.17   10.40
  -6  -7  -9  415.35   11.24
  -6  -7  -9  383.99    9.97
  -6  -7  -9  403.95   11.66
  -6  -7 -10  443.47   11.08
  -6  -7 -10  428.81   10.31
  -6  -7 -10  428.79   12.31
  -6  -7 -10  446.04   11.27
  -6  -7 -10  439.37   11.44
  -6  -7 -10  439.91   10.97
  -6  -7 -10  455.50   12.28
  -6  -7 -11   88.86    3.63
  -6  -7 -11   90.89    4.58
  -6  -7 -11   86.04    3.93
  -6  -7 -11   92.81    4.46
  -6  -7 -12   12.25    1.42
  -6  -7 -12   12.11    1.27
  -6  -7 -12   12.18    1.42
  -6  -8   2   86.00    3.85
  -6  -8   2   86.56    3.73
   6   8  -2   79.29    3.27
  -6  -8   1  345.77   10.01
  -6  -8   1  349.10    9.47
  -6  -8   1  359.75    9.91
   6   8  -1  350.88    8.88
  -6  -8   0  318.04   10.04
  -6  -8   0  318.41    9.45
  -6  -8   0  330.92    9.97
   6   8   0  318.90    8.60
   6   8   1   83.32    5.54
  -6  -8  -1   71.35    3.36
  -6  -8  -1   80.59    4.67
  -6  -8  -1   74.87    4.25
  -6  -8  -1   75.07    4.48
   6   8   1   77.97    4.17
   6   8   1   76.87    3.66
   6   8   2   39.82    3.67
  -6  -8  -2   47.15    3.00
  -6  -8  -2   41.22    2.40
  -6  -8  -2   44.19    3.41
  -6  -8  -2   46.58    3.29
  -6  -8  -2   38.35    3.16
  -6  -8  -2   42.69    2.86
  -6  -8  -2   40.10    2.34
   6   8   2   44.40    3.17
  -6  -8  -2   46.49    3.02
  -6  -8  -3  559.17   13.48
  -6  -8  -3  543.67   13.36
  -6  -8  -3  541.72   13.29
  -6  -8  -3  558.08   12.62
  -6  -8  -3  555.97   11.74
  -6  -8  -3  525.88   13.64
  -6  -8  -3  554.56   13.25
  -6  -8  -3  552.14   13.64
  -6  -8  -3  545.09   11.84
  -6  -8  -3  549.93   13.35
   6   8   3  528.66   13.29
  -6  -8  -4   25.32    2.54
  -6  -8  -4   24.66    2.59
  -6  -8  -4   25.18    2.59
  -6  -8  -4   24.68    2.39
  -6  -8  -4   28.05    2.76
  -6  -8  -4   26.82    2.26
  -6  -8  -4   23.66    2.40
  -6  -8  -4   25.76    2.17
  -6  -8  -4   27.90    2.43
  -6  -8  -4   27.75    2.10
  -6  -8  -4   28.12    2.69
   6   8   4   24.42    2.33
  -6  -8  -5  597.05   14.56
  -6  -8  -5  596.07   14.52
  -6  -8  -5  591.90   14.39
  -6  -8  -5  589.51   14.34
  -6  -8  -5  587.47   14.38
  -6  -8  -5  600.24   14.14
  -6  -8  -5  622.35   14.23
  -6  -8  -5  594.11   13.31
  -6  -8  -5  612.18   12.52
  -6  -8  -5  608.73   13.51
  -6  -8  -5  558.15   12.83
  -6  -8  -5  588.18   14.40
   6   8   5  547.79   13.24
  -6  -8  -6  974.78   20.45
  -6  -8  -6  958.44   20.40
  -6  -8  -6  991.46   20.80
  -6  -8  -6  949.78   20.57
  -6  -8  -6  943.18   20.65
  -6  -8  -6  942.03   19.72
  -6  -8  -6  949.29   20.36
  -6  -8  -6  927.28   19.73
  -6  -8  -6  970.89   18.76
  -6  -8  -6  967.40   20.35
  -6  -8  -6  983.98   19.88
  -6  -8  -7    6.58    1.38
  -6  -8  -7    5.85    1.40
  -6  -8  -7    5.80    1.60
  -6  -8  -7    6.18    1.56
  -6  -8  -7    6.47    1.79
   6   8   7    5.75    1.47
  -6  -8  -7   10.05    1.61
  -6  -8  -7    5.24    1.54
  -6  -8  -7    6.92    1.06
  -6  -8  -7    6.54    1.61
  -6  -8  -7   10.80    1.66
  -6  -8  -7    5.48    1.49
  -6  -8  -8   91.78    4.24
  -6  -8  -8   96.08    5.09
  -6  -8  -8   89.67    4.65
   6   8   8   86.71    5.15
  -6  -8  -8   88.22    5.01
  -6  -8  -8   92.74    4.41
  -6  -8  -8   89.88    4.72
  -6  -8  -8   94.66    4.86
  -6  -8  -8   87.07    4.80
  -6  -8  -8   84.38    3.92
  -6  -8  -9  317.69    9.83
  -6  -8  -9  311.34    9.05
  -6  -8  -9  313.69   10.22
  -6  -8  -9  316.84    8.84
  -6  -8  -9  316.35    9.30
  -6  -8  -9  324.05    9.61
  -6  -8  -9  307.65    7.89
  -6  -8  -9  328.22   10.01
  -6  -8 -10  206.16    7.19
  -6  -8 -10  212.22    6.48
  -6  -8 -10  218.83    7.98
  -6  -8 -10  208.22    6.41
  -6  -8 -10  219.85    6.76
  -6  -8 -10  215.43    6.33
  -6  -8 -10  224.14    7.69
  -6  -8 -11   99.16    4.09
  -6  -8 -11  103.15    4.80
  -6  -8 -11  107.79    3.94
  -6  -8 -11  109.66    4.69
  -6  -8 -12   12.84    1.09
  -6  -8 -12   10.45    1.29
  -6  -8 -12   12.88    1.37
  -6  -9   1  375.48    9.05
  -6  -9   1  354.45    8.58
  -6  -9   1  362.12    8.90
   6   9  -1  348.86    7.95
  -6  -9   0  649.16   14.66
  -6  -9   0  652.05   14.23
  -6  -9   0  634.99   14.55
   6   9   0  612.93   13.05
   6   9   1    6.43    1.20
  -6  -9  -1    5.22    0.94
  -6  -9  -1    5.58    1.39
  -6  -9  -1    8.76    1.58
  -6  -9  -1    7.20    1.54
  -6  -9  -2   95.31    4.13
  -6  -9  -2   86.47    4.62
  -6  -9  -2   88.10    4.57
  -6  -9  -2   88.89    4.72
  -6  -9  -3  885.15   18.70
  -6  -9  -3  857.30   18.34
  -6  -9  -3  884.82   17.64
  -6  -9  -3  899.82   19.20
  -6  -9  -3  888.91   18.92
  -6  -9  -3  873.02   18.94
  -6  -9  -3  884.70   18.73
   6   9   3  843.66   18.33
  -6  -9  -3  871.89   18.13
  -6  -9  -4  969.55   20.48
  -6  -9  -4  984.06   20.81
  -6  -9  -4  951.86   20.09
  -6  -9  -4  987.96   20.14
  -6  -9  -4  944.93   18.68
  -6  -9  -4 1007.53   20.37
  -6  -9  -4  992.80   19.86
  -6  -9  -4  950.41   19.63
  -6  -9  -4  933.63   20.46
   6   9   4  886.72   19.19
  -6  -9  -5   51.25    3.58
  -6  -9  -5   50.71    3.66
  -6  -9  -5   50.03    3.54
  -6  -9  -5   47.82    3.49
  -6  -9  -5   49.39    3.59
  -6  -9  -5   51.36    3.30
  -6  -9  -5   46.06    3.16
  -6  -9  -5   48.44    2.82
  -6  -9  -5   45.99    2.84
  -6  -9  -5   49.72    3.64
   6   9   5   48.24    2.87
  -6  -9  -6  394.02   10.78
  -6  -9  -6  380.21   11.01
  -6  -9  -6  389.94   11.09
  -6  -9  -6  366.34   10.92
  -6  -9  -6  379.12   10.94
  -6  -9  -6  373.00   10.00
  -6  -9  -6  357.96   10.55
  -6  -9  -6  390.43    9.03
  -6  -9  -6  374.87   10.85
  -6  -9  -7   91.21    4.46
  -6  -9  -7   93.82    4.76
  -6  -9  -7   96.60    5.12
  -6  -9  -7   97.28    5.08
  -6  -9  -7   95.07    5.08
  -6  -9  -7   98.92    4.36
  -6  -9  -7   99.71    5.07
  -6  -9  -7   95.48    4.73
  -6  -9  -8  175.29    6.27
  -6  -9  -8  181.03    7.18
  -6  -9  -8  178.04    6.86
  -6  -9  -8  184.96    7.27
  -6  -9  -8  181.77    5.93
  -6  -9  -8  177.05    6.87
  -6  -9  -8  174.15    6.15
  -6  -9  -8  190.69    7.01
  -6  -9  -9  428.98    9.95
  -6  -9  -9  440.87   12.02
  -6  -9  -9  418.56   10.93
  -6  -9  -9  416.21    9.80
  -6  -9  -9  434.04   11.32
  -6  -9  -9  453.39   11.80
  -6  -9 -10   36.52    2.88
  -6  -9 -10   35.00    2.31
  -6  -9 -10   39.30    3.04
  -6  -9 -10   30.51    2.35
  -6  -9 -10   33.50    2.75
  -6  -9 -11   52.39    2.86
  -6  -9 -11   54.38    3.14
  -6  -9 -11   58.51    3.08
  -6 -10  -1   30.51    2.16
  -6 -10  -1   32.64    2.30
  -6 -10  -1   28.90    2.18
   6  10   1   29.69    1.77
  -6 -10  -2   22.18    1.70
  -6 -10  -2   21.26    1.94
  -6 -10  -2   23.42    2.11
  -6 -10  -2   23.91    2.08
   6  10   2   23.47    1.74
  -6 -10  -3  300.72    8.36
  -6 -10  -3  306.79    7.45
  -6 -10  -3  314.64    8.46
  -6 -10  -3  300.65    8.62
  -6 -10  -3  291.17    8.11
  -6 -10  -3  293.65    8.26
  -6 -10  -4  614.32   14.52
  -6 -10  -4  619.92   13.71
  -6 -10  -4  626.80   13.88
  -6 -10  -4  619.75   13.61
  -6 -10  -4  632.25   13.96
  -6 -10  -4  608.37   13.04
  -6 -10  -4  607.58   14.45
  -6 -10  -5   18.15    2.25
  -6 -10  -5   17.26    2.07
  -6 -10  -5   18.40    2.22
  -6 -10  -5   16.46    1.74
  -6 -10  -5   20.11    1.88
  -6 -10  -5   19.09    1.73
  -6 -10  -5   16.53    1.45
  -6 -10  -5   21.02    2.40
  -6 -10  -6   11.46    1.90
  -6 -10  -6   11.30    1.90
  -6 -10  -6   12.11    1.93
  -6 -10  -6   10.38    1.90
  -6 -10  -6   10.69    1.37
  -6 -10  -6    9.04    1.64
  -6 -10  -6   10.44    1.82
  -6 -10  -7   72.16    4.05
  -6 -10  -7   71.11    4.12
  -6 -10  -7   74.65    4.24
  -6 -10  -7   75.06    4.20
  -6 -10  -7   69.58    3.10
  -6 -10  -7   72.53    4.13
  -6 -10  -7   70.42    3.94
  -6 -10  -8  306.81    8.46
  -6 -10  -8  301.65    9.19
  -6 -10  -8  301.53    8.91
  -6 -10  -8  312.53    9.09
  -6 -10  -8  305.34    9.03
  -6 -10  -8  294.50    8.28
  -6 -10  -9  488.08   10.63
  -6 -10  -9  503.69   12.45
  -6 -10  -9  493.38   11.66
  -6 -10  -9  529.93   12.35
  -6 -10  -9  502.90   12.00
  -6 -10 -10   44.04    2.83
  -6 -10 -10   43.30    2.30
  -6 -10 -10   41.03    2.69
  -6 -10 -10   41.27    2.49
  -6 -11  -3   84.74    3.05
  -6 -11  -3   82.61    3.35
  -6 -11  -4  278.23    7.50
  -6 -11  -4  278.67    6.78
  -6 -11  -4  284.02    7.12
  -6 -11  -5   35.79    2.64
  -6 -11  -5   36.33    2.47
  -6 -11  -5   41.74    2.77
  -6 -11  -6   11.93    1.67
  -6 -11  -6   12.46    1.48
  -6 -11  -6   10.11    1.56
  -6 -11  -6   12.33    1.38
  -6 -11  -6   10.90    1.63
  -6 -11  -7  115.45    4.67
  -6 -11  -7  117.60    4.43
  -6 -11  -7  119.49    4.85
  -6 -11  -7  110.47    4.42
  -6 -11  -7  108.06    4.45
  -6 -11  -8   47.30    2.62
  -6 -11  -8   58.16    3.02
  -6 -11  -8   53.22    2.98
  -6 -11  -8   56.72    2.92
  -6 -11  -8   51.84    2.98
  -6 -11  -9  286.80    6.42
  -6 -11  -9  296.16    7.48
  -6 -11  -9  295.19    7.25
  -6 -11  -9  299.14    7.28
  -6 -11  -9  294.33    7.47
   7  -4  -2   46.83    2.40
   7  -4  -2   44.95    2.16
   7  -4  -2   42.25    1.83
   7  -4  -2   47.01    2.40
   7  -4  -1   54.61    2.74
  -7   4   1   52.40    2.39
   7  -4  -1   55.16    2.76
  -7   4   1   53.96    2.48
  -7   4   0    8.76    1.25
  -7   4   0    9.86    1.18
   7  -4   0    8.88    1.19
   7  -4   0    8.07    1.14
  -7   4   0    9.55    1.19
  -7   4  -1   15.32    1.48
  -7   4  -1   14.37    1.45
  -7   4  -1   13.84    1.45
  -7   4  -2  444.54    9.83
  -7   4  -2  439.30    9.30
  -7   4  -2  440.07    9.81
  -7   4  -3   37.93    2.39
  -7   4  -3   34.04    1.93
   7  -4   4   50.26    2.10
  -7   4  -4   56.89    2.86
  -7   4  -4   55.50    2.69
   7  -3  -3  206.56    6.05
   7  -3  -3  195.21    4.91
   7  -3  -3  210.85    6.10
   7  -3  -2   28.63    2.18
  -7   3   2   28.14    1.64
   7  -3  -2   27.74    2.16
  -7   3   2   25.06    1.63
   7  -3  -1  157.32    5.58
  -7   3   1  161.38    5.17
   7  -3  -1  158.67    5.60
  -7   3   1  151.98    5.13
   7  -3   0  281.97    7.98
  -7   3   0  280.56    8.00
   7  -3   0  281.94    8.00
  -7   3   0  287.59    8.17
   7  -3   1   36.81    2.52
  -7   3  -1   36.31    2.71
   7  -3   1   39.00    2.59
  -7   3  -1   37.91    2.78
  -7   3  -2  218.70    7.01
  -7   3  -2  208.13    6.67
  -7   3  -2  205.08    6.86
  -7   3  -3  179.26    6.00
  -7   3  -3  179.09    5.60
  -7   3  -3  176.58    5.97
  -7   3  -4   31.97    1.75
  -7   3  -4   28.55    2.01
  -7   3  -4   28.08    2.42
  -7   3  -4   26.11    1.93
  -7   3  -5   71.20    2.38
  -7   3  -5   75.85    3.69
  -7   3  -5   71.46    3.55
  -7   3  -6  181.49    5.70
  -7   3  -6  182.11    5.06
  -7   3  -6  187.34    5.70
   7  -2  -4  294.05    7.55
   7  -2  -4  293.34    7.56
   7  -2  -3  374.56    9.58
   7  -2  -3  370.48    9.58
   7  -2  -2   50.12    3.11
  -7   2   2   47.14    2.41
   7  -2  -2   49.79    3.11
  -7   2   2   44.07    2.42
   7  -2  -1   24.28    2.20
  -7   2   1   20.60    1.94
   7  -2  -1   19.86    2.04
  -7   2   1   21.01    2.00
   7  -2   0 1028.28   20.46
  -7   2   0 1028.98   20.96
  -7   2   0 1010.87   20.04
   7  -2   0 1029.31   20.46
  -7   2   0  994.32   20.59
  -7   2   0 1027.91   21.09
   7  -2   1   99.31    4.31
   7  -2   1   90.64    3.76
  -7   2  -1   95.56    4.87
  -7   2  -1   89.53    4.43
   7  -2   1   94.14    3.90
   7  -2   1   87.82    4.10
  -7   2  -1   97.16    4.46
  -7   2  -1   93.31    4.83
   7  -2   2   50.67    2.96
   7  -2   2   51.25    2.92
  -7   2  -2   56.68    3.70
  -7   2  -2   54.09    3.41
   7  -2   2   53.89    2.85
   7  -2   2   53.17    3.03
  -7   2  -2   56.52    3.18
  -7   2  -2   47.38    3.44
   7  -2   3   17.11    1.78
  -7   2  -3   18.56    2.15
  -7   2  -3   18.03    1.99
  -7   2  -3   16.07    1.81
  -7   2  -3   18.81    2.19
  -7   2  -4   56.30    3.37
  -7   2  -4   59.23    3.17
  -7   2  -4   54.70    2.63
  -7   2  -4   59.12    3.46
  -7   2  -5  179.42    5.08
  -7   2  -5  173.46    5.56
  -7   2  -5  165.67    4.99
  -7   2  -5  182.68    6.86
  -7   2  -5  170.22    5.54
  -7   2  -6  253.51    7.91
  -7   2  -6  262.69    7.40
  -7   2  -6  241.96    6.16
  -7   2  -6  258.52    8.06
  -7   2  -7   32.56    2.33
  -7   2  -7   32.80    2.22
  -7   2  -7   26.82    1.50
  -7   2  -7   30.45    2.34
   7  -1  -5  107.16    3.75
  -7   1   5   96.94    2.54
   7  -1  -5  106.68    3.75
   7  -1  -4   15.39    1.66
  -7   1   4   16.38    1.24
   7  -1  -4   15.71    1.68
   7  -1  -3  518.87   12.54
  -7   1   3  532.53   10.63
   7  -1  -3  528.44   12.62
   7  -1  -2   83.19    4.17
  -7   1   2   73.74    3.12
   7  -1  -2   78.19    4.06
  -7   1   2   78.18    3.11
  -7   1   2   69.95    3.21
   7  -1  -1    6.65    1.45
   7  -1  -1    8.38    1.41
  -7   1   1    8.29    1.35
   7  -1  -1   10.49    1.56
   7  -1  -1    8.73    1.45
  -7   1   1    6.88    1.07
  -7   1   1    8.02    1.30
  -7   1   1   11.34    1.67
  -7   1   1    8.32    1.37
   7  -1   0  927.31   18.86
  -7   1   0  949.55   19.30
  -7   1   0  942.94   19.80
   7  -1   0  951.58   19.31
   7  -1   0  899.43   18.77
  -7   1   0  937.91   17.79
   7  -1   0  899.09   18.65
  -7   1   0  877.20   19.51
  -7   1   0  923.13   19.84
   7  -1   1  363.77    9.53
  -7   1  -1  386.75   11.07
  -7   1  -1  373.83   10.47
   7  -1   1  389.39   10.29
   7  -1   1  371.48    9.62
  -7   1  -1  386.50    9.20
   7  -1   1  370.82    9.12
  -7   1  -1  385.60   10.67
  -7   1  -1  394.35   11.21
   7  -1   2  226.52    6.72
  -7   1  -2  224.90    8.16
  -7   1  -2  221.55    7.71
   7  -1   2  238.94    7.54
   7  -1   2  225.44    6.72
  -7   1  -2  220.89    6.56
  -7   1  -2  240.33    7.76
  -7   1  -2  231.07    8.26
   7  -1   3    8.09    1.38
  -7   1  -3    7.98    1.58
   7  -1   3    8.81    1.49
  -7   1  -3   10.64    1.83
   7  -1   3   10.95    1.30
   7  -1   3    8.65    1.20
  -7   1  -3    9.15    1.32
  -7   1  -3   10.93    1.67
  -7   1  -3   10.47    1.87
   7  -1   4  164.01    6.15
  -7   1  -4  157.67    6.00
  -7   1  -4  162.83    6.45
  -7   1  -4  158.10    6.03
   7  -1   4  157.84    5.89
  -7   1  -4  157.38    5.56
  -7   1  -4  164.34    6.53
   7  -1   5  465.45   11.89
  -7   1  -5  471.13   11.03
  -7   1  -5  481.46   11.26
  -7   1  -5  471.94   11.68
   7  -1   5  459.37   11.17
  -7   1  -5  483.58   11.42
  -7   1  -5  470.32   11.72
  -7   1  -6  805.82   16.19
  -7   1  -6  850.01   15.80
  -7   1  -6  810.74   16.15
  -7   1  -6  856.31   18.36
  -7   1  -6  788.40   16.87
  -7   1  -6  794.19   18.30
  -7   1  -7   10.57    1.55
  -7   1  -7   11.88    1.66
  -7   1  -7    9.71    1.37
  -7   1  -7   11.12    1.69
  -7   1  -8   16.77    1.70
  -7   1  -8   14.01    1.65
  -7   1  -8   11.92    1.36
  -7   1  -8   11.93    1.57
  -7   1  -9  554.80   11.36
  -7   1  -9  546.74   11.40
  -7   1  -9  535.02   10.62
  -7   1  -9  553.03   11.66
   7   0  -5  473.59   10.29
  -7   0   5  461.48    9.58
   7   0  -5  474.35   10.30
  -7   0   5  454.80    8.55
  -7   0   4    8.86    1.19
  -7   0   4    6.63    0.96
   7   0  -4    8.27    1.37
   7   0  -4    8.57    1.35
   7   0  -4    8.88    1.11
  -7   0   3    5.19    1.04
  -7   0   3    5.72    1.09
  -7   0   3    4.16    0.97
   7   0  -3    3.93    1.12
   7   0  -3    5.82    1.28
   7   0  -3    5.97    0.99
   7   0  -2  675.35   15.13
   7   0  -2  699.17   15.22
  -7   0   2  672.06   14.07
   7   0  -2  675.67   15.15
  -7   0   2  646.16   14.82
   7   0  -2  639.86   14.94
  -7   0   2  640.55   14.15
  -7   0   2  648.07   13.10
   7   0  -1   17.69    2.15
   7   0  -1   17.94    1.95
   7   0  -1   17.34    2.02
  -7   0   1   19.16    1.72
   7   0  -1   18.44    1.94
  -7   0   1   16.08    1.93
  -7   0   1   12.14    1.55
  -7   0   1   19.16    1.84
  -7   0   1   15.74    1.98
  -7   0   1   16.36    1.68
  -7   0   1   14.05    1.71
   7   0   0  579.02   13.31
  -7   0   0  615.42   14.05
  -7   0   0  605.41   14.38
   7   0   0  594.99   14.39
  -7   0   0  634.67   12.64
   7   0   0  596.12   13.41
  -7   0   0  598.92   14.43
  -7   0   0  613.70   13.44
   7   0   0  600.24   14.47
  -7   0   0  584.41   14.66
  -7   0   0  618.79   14.65
   7   0   1  126.86    4.71
  -7   0  -1  130.63    5.63
  -7   0  -1  137.73    6.01
   7   0   1  124.90    5.51
   7   0   1  132.82    4.81
  -7   0  -1  126.66    5.59
  -7   0  -1  131.60    5.00
   7   0   1  133.42    5.42
  -7   0  -1  123.50    5.73
  -7   0  -1  129.04    5.92
   7   0   2   59.00    2.85
  -7   0  -2   55.88    3.76
  -7   0  -2   61.96    4.15
  -7   0  -2   63.90    2.97
   7   0   2   68.33    3.97
   7   0   2   62.49    2.92
  -7   0  -2   64.38    3.41
   7   0   2   60.62    3.22
  -7   0  -2   66.99    4.04
  -7   0  -2   58.26    4.10
  -7   0  -3  399.91   11.37
  -7   0  -3  397.52   11.63
  -7   0  -3  412.54   11.32
  -7   0  -3  390.61    9.73
   7   0   3  427.37   11.20
  -7   0  -3  389.29   10.11
  -7   0  -3  397.24   11.70
   7   0   4  184.44    6.80
  -7   0  -4  185.42    6.83
  -7   0  -4  178.08    7.09
   7   0   4  194.24    6.93
  -7   0  -4  209.50    6.73
  -7   0  -4  188.55    7.27
   7   0   5  191.59    6.95
  -7   0  -5  194.63    6.65
  -7   0  -5  195.05    6.76
  -7   0  -5  195.28    7.02
   7   0   5  203.48    7.10
  -7   0  -5  196.46    6.82
  -7   0  -5  187.74    6.97
   7   0   6  417.04   11.08
  -7   0  -6  408.76   10.15
  -7   0  -6  395.30    9.62
   7   0   6  441.65   11.29
  -7   0  -6  412.24   10.32
  -7   0  -6  397.63   10.96
  -7   0  -6  392.54   10.86
  -7   0  -6  420.26   11.73
  -7   0  -6  414.74   10.40
   7   0   7  224.52    7.44
   7   0   7  229.06    7.09
  -7   0  -7  258.12    6.50
  -7   0  -7  252.97    7.94
  -7   0  -7  245.53    8.08
  -7   0  -7  234.90    7.78
  -7   0  -7  239.66    8.24
  -7   0  -8   15.58    1.75
  -7   0  -8   13.42    1.83
  -7   0  -8   11.42    1.65
  -7   0  -8   14.97    1.94
  -7   0  -9  263.76    7.53
  -7   0  -9  251.63    6.99
  -7   0  -9  264.37    7.64
  -7   0  -9  270.19    7.44
  -7   0  -9  263.45    7.74
  -7   0 -10  327.97    7.66
  -7   0 -10  328.65    7.78
  -7   0 -10  321.09    7.50
   7   1  -5  810.81   15.48
  -7  -1   5  829.22   15.46
   7   1  -5  798.08   15.44
  -7  -1   5  757.70   13.63
   7   1  -5  775.49   14.39
   7   1  -4  171.01    5.88
  -7  -1   4  174.14    5.89
   7   1  -4  171.29    5.89
  -7  -1   4  162.56    5.21
   7   1  -4  168.41    5.11
   7   1  -3   27.36    2.37
  -7  -1   3   29.96    2.48
   7   1  -3   30.90    2.52
  -7  -1   3   23.08    2.11
   7   1  -3   29.93    2.03
   7   1  -2  648.54   14.63
  -7  -1   2  635.99   14.03
   7   1  -2  663.33   14.97
  -7  -1   2  657.15   14.76
   7   1  -2  648.40   14.63
  -7  -1   2  628.19   14.74
   7   1  -2  648.95   15.43
   7   1  -1  573.26   13.09
  -7  -1   1  592.85   12.33
   7   1  -1  575.56   13.85
  -7  -1   1  562.70   13.13
   7   1  -1  583.98   13.15
  -7  -1   1  546.53   13.65
  -7  -1   1  573.85   12.60
  -7  -1   1  570.63   13.71
   7   1  -1  565.54   14.95
  -7  -1   1  545.44   12.65
   7   1   0  811.87   16.62
  -7  -1   0  834.38   17.47
   7   1   0  843.14   18.27
  -7  -1   0  852.32   17.90
  -7  -1   0  821.28   16.90
   7   1   0  819.97   16.67
  -7  -1   0  846.82   18.06
  -7  -1   0  783.85   18.33
   7   1   0  810.28   19.55
  -7  -1   0  815.26   17.86
  -7  -1  -1  181.46    6.75
  -7  -1  -1  181.89    5.15
   7   1   1  187.33    6.92
  -7  -1  -1  191.07    7.12
  -7  -1  -1  182.40    5.75
  -7  -1  -1  185.91    6.58
  -7  -1  -1  179.25    6.22
  -7  -1  -1  183.33    7.23
   7   1   1  185.57    7.60
  -7  -1  -1  181.18    7.07
   7   1   2    4.44    1.48
  -7  -1  -2    2.64    1.17
  -7  -1  -2    4.01    0.97
   7   1   2    3.21    1.26
  -7  -1  -2    3.57    1.35
  -7  -1  -2    2.71    0.76
  -7  -1  -2    3.94    1.10
  -7  -1  -2    1.55    0.82
  -7  -1  -2    4.17    1.28
  -7  -1  -2    4.08    1.22
  -7  -1  -2    2.36    1.33
  -7  -1  -3  571.04   14.77
  -7  -1  -3  607.64   14.62
  -7  -1  -3  565.02   12.86
  -7  -1  -3  581.55   15.21
   7   1   3  602.76   14.52
  -7  -1  -3  604.58   11.99
  -7  -1  -3  592.85   13.81
  -7  -1  -3  601.05   13.62
   7   1   3  613.14   13.31
  -7  -1  -3  571.31   15.19
  -7  -1  -4 1422.71   28.28
  -7  -1  -4 1474.11   28.25
  -7  -1  -4 1463.62   27.06
  -7  -1  -4 1423.18   28.71
   7   1   4 1504.06   28.52
  -7  -1  -4 1440.05   27.35
  -7  -1  -4 1414.89   28.77
   7   1   5   43.32    3.14
  -7  -1  -5   52.10    3.41
  -7  -1  -5   49.09    3.24
  -7  -1  -5   50.32    3.24
   7   1   5   46.53    3.41
  -7  -1  -5   49.67    3.39
  -7  -1  -5   42.67    2.99
  -7  -1  -5   45.82    3.14
  -7  -1  -5   49.14    3.46
   7   1   6   23.10    2.32
  -7  -1  -6   22.97    2.22
  -7  -1  -6   22.14    2.05
   7   1   6   23.06    2.47
  -7  -1  -6   21.82    2.14
  -7  -1  -6   22.43    2.33
  -7  -1  -6   20.95    2.26
  -7  -1  -6   25.29    2.41
  -7  -1  -6   23.42    2.21
   7   1   7  279.51    8.62
  -7  -1  -7  281.85    7.86
   7   1   7  287.69    9.08
  -7  -1  -7  288.74    8.37
  -7  -1  -7  289.34    9.16
  -7  -1  -7  273.89    7.44
  -7  -1  -7  289.53    9.08
  -7  -1  -7  279.38    8.92
  -7  -1  -7  287.52    7.63
   7   1   8   83.87    4.22
  -7  -1  -8   88.56    3.40
  -7  -1  -8   83.26    4.02
  -7  -1  -8   85.90    4.67
  -7  -1  -8   90.16    4.64
  -7  -1  -8   91.02    4.67
  -7  -1  -9  109.31    4.83
  -7  -1  -9  104.79    4.23
  -7  -1  -9  105.78    4.94
  -7  -1  -9  110.69    4.91
  -7  -1  -9  109.49    4.91
  -7  -1 -10   85.21    3.76
  -7  -1 -10   83.17    3.86
  -7  -1 -10   81.88    3.74
   7   2  -5  287.68    7.05
   7   2  -5  280.02    6.99
  -7  -2   5  273.00    6.17
   7   2  -5  275.88    6.39
   7   2  -4  305.95    8.27
  -7  -2   4  296.62    8.52
   7   2  -4  295.39    8.18
  -7  -2   4  289.75    7.72
   7   2  -4  295.40    7.42
  -7  -2   3    3.49    1.22
  -7  -2   3    2.06    0.96
   7   2  -3    3.03    0.98
   7   2  -3    4.01    1.05
   7   2  -3    2.83    0.87
   7   2  -2  224.92    7.25
   7   2  -2  231.49    7.48
  -7  -2   2  232.30    7.91
   7   2  -2  234.77    7.39
  -7  -2   2  225.94    7.62
   7   2  -2  236.13    6.38
   7   2  -2  226.51    8.35
   7   2  -1  628.88   13.85
  -7  -2   1  604.06   13.92
   7   2  -1  632.63   14.73
  -7  -2   1  645.07   14.96
   7   2  -1  630.33   13.86
  -7  -2   1  632.44   14.86
   7   2  -1  646.35   17.28
  -7  -2   1  644.15   13.20
   7   2   0  158.10    5.08
  -7  -2   0  165.99    6.24
  -7  -2   0  152.26    4.64
   7   2   0  164.54    6.31
  -7  -2   0  158.33    5.66
  -7  -2   0  150.44    5.81
   7   2   0  158.73    5.08
  -7  -2   0  154.15    6.03
  -7  -2   0  160.31    5.81
   7   2   0  154.66    8.17
  -7  -2   0  164.48    6.02
  -7  -2  -1  700.62   15.91
  -7  -2  -1  668.62   13.67
  -7  -2  -1  693.36   15.56
   7   2   1  689.09   15.80
  -7  -2  -1  678.62   14.71
  -7  -2  -1  645.28   15.50
  -7  -2  -1  669.86   15.12
   7   2   1  633.52   18.66
  -7  -2  -1  662.19   15.75
   7   2   2   29.58    3.73
  -7  -2  -2   29.29    2.68
  -7  -2  -2   31.07    2.16
  -7  -2  -2   30.06    2.75
   7   2   2   33.46    2.84
  -7  -2  -2   30.74    2.24
  -7  -2  -2   30.30    2.85
  -7  -2  -2   30.35    2.38
  -7  -2  -2   27.05    2.32
  -7  -2  -2   28.61    2.82
  -7  -2  -3  276.50    8.22
  -7  -2  -3  278.81    8.72
  -7  -2  -3  270.58    8.93
  -7  -2  -3  279.60    7.65
   7   2   3  280.26    8.73
  -7  -2  -3  271.49    9.15
  -7  -2  -3  276.02    7.36
  -7  -2  -3  277.64    7.91
  -7  -2  -3  274.27    8.06
   7   2   3  254.68    9.50
  -7  -2  -3  262.83    9.13
  -7  -2  -4 1745.25   30.03
  -7  -2  -4 1810.38   33.05
  -7  -2  -4 1736.26   31.61
  -7  -2  -4 1794.39   33.41
   7   2   4 1802.06   33.18
  -7  -2  -4 1722.27   30.60
  -7  -2  -4 1765.30   33.59
  -7  -2  -4 1758.70   31.35
  -7  -2  -4 1707.69   31.90
   7   2   4 1765.96   32.24
  -7  -2  -4 1774.31   33.81
  -7  -2  -5  309.02    8.28
  -7  -2  -5  343.44    9.74
  -7  -2  -5  326.08    9.17
  -7  -2  -5  323.23    9.56
   7   2   5  341.74   10.10
  -7  -2  -5  329.96    8.15
  -7  -2  -5  322.95    9.66
  -7  -2  -5  325.18    8.72
  -7  -2  -5  326.04    9.26
  -7  -2  -5  344.38   10.05
   7   2   6   40.56    2.96
  -7  -2  -6   40.76    2.78
  -7  -2  -6   38.86    2.97
  -7  -2  -6   38.98    3.01
   7   2   6   42.27    3.32
  -7  -2  -6   40.64    2.78
  -7  -2  -6   40.11    2.88
  -7  -2  -6   44.27    3.20
  -7  -2  -6   35.93    2.82
  -7  -2  -6   44.71    2.91
  -7  -2  -6   41.93    2.98
   7   2   7  165.04    6.23
  -7  -2  -7  164.50    6.00
  -7  -2  -7  165.53    6.58
  -7  -2  -7  162.95    5.31
  -7  -2  -7  161.10    6.62
  -7  -2  -7  167.52    6.56
  -7  -2  -7  168.09    5.63
  -7  -2  -7  174.17    6.35
   7   2   8  369.36   10.10
   7   2   8  374.10   10.71
  -7  -2  -8  392.89    9.73
  -7  -2  -8  400.63   10.74
  -7  -2  -8  400.31    9.63
  -7  -2  -8  408.27   11.56
  -7  -2  -8  401.34   11.21
  -7  -2  -8  403.54   10.81
  -7  -2  -9  491.94   10.25
  -7  -2  -9  489.31   12.30
  -7  -2  -9  458.79   10.65
  -7  -2  -9  491.78   12.87
  -7  -2  -9  503.11   12.60
  -7  -2  -9  477.11   12.10
  -7  -2 -10   53.26    3.20
  -7  -2 -10   52.95    3.38
  -7  -2 -10   50.69    3.17
  -7  -2 -11   20.31    1.68
  -7  -2 -11   21.48    1.82
  -7  -2 -11   20.09    1.70
   7   3  -5   14.49    1.22
  -7  -3   5   14.34    1.36
   7   3  -5   10.91    1.08
  -7  -3   5   12.58    1.04
   7   3  -5   12.76    1.03
   7   3  -4   23.31    1.93
  -7  -3   4   26.30    2.28
   7   3  -4   24.13    1.96
  -7  -3   4   29.09    2.10
   7   3  -4   25.47    1.79
   7   3  -3   52.63    3.10
  -7  -3   3   51.04    3.55
   7   3  -3   51.34    3.05
  -7  -3   3   44.97    3.04
   7   3  -3   53.20    2.77
   7   3  -2  245.59    7.33
   7   3  -2  235.70    7.03
  -7  -3   2  242.38    8.44
   7   3  -2  256.26    7.45
  -7  -3   2  238.56    7.94
   7   3  -2  241.17    6.65
   7   3  -2  233.46    9.00
   7   3  -1  335.42    8.66
  -7  -3   1  316.94    7.77
   7   3  -1  324.19    9.15
  -7  -3   1  336.19    7.81
   7   3  -1  342.10    8.65
  -7  -3   1  326.53   10.00
   7   3  -1  337.82    8.68
  -7  -3   1  321.78    9.60
   7   3  -1  318.98   12.20
   7   3   0    2.41    2.85
  -7  -3   0    5.88    1.22
  -7  -3   0    4.99    1.07
  -7  -3   0    4.32    0.94
   7   3   0    5.54    1.27
  -7  -3   0    4.25    1.24
  -7  -3   0    4.00    1.09
  -7  -3   0    6.37    1.15
  -7  -3  -1  306.61    8.43
  -7  -3  -1  306.44    8.81
  -7  -3  -1  304.54    7.96
   7   3   1  308.59    9.05
  -7  -3  -1  321.72    8.97
  -7  -3  -1  300.47    8.87
  -7  -3  -1  313.38    8.89
  -7  -3  -1  320.40    9.13
   7   3   1  316.86   13.43
  -7  -3  -1  301.12    9.10
  -7  -3  -2  728.84   15.87
  -7  -3  -2  749.06   15.00
  -7  -3  -2  748.63   17.18
  -7  -3  -2  762.57   14.24
  -7  -3  -2  750.75   16.67
  -7  -3  -2  765.98   15.43
   7   3   2  784.27   16.89
  -7  -3  -2  771.54   16.99
  -7  -3  -2  738.94   15.93
  -7  -3  -2  734.34   15.82
  -7  -3  -2  751.00   17.04
   7   3   2  687.57   21.17
   7   3   3   15.03    3.43
  -7  -3  -3   17.43    2.01
  -7  -3  -3   16.81    1.89
  -7  -3  -3   18.79    1.61
  -7  -3  -3   21.24    2.23
  -7  -3  -3   16.62    1.71
  -7  -3  -3   24.16    2.43
   7   3   3   14.13    1.90
  -7  -3  -3   18.09    1.80
  -7  -3  -3   20.21    1.85
  -7  -3  -3   18.81    2.21
  -7  -3  -3   17.04    1.85
  -7  -3  -3   16.96    2.14
  -7  -3  -4  774.45   16.33
  -7  -3  -4  763.66   15.95
  -7  -3  -4  749.98   15.16
  -7  -3  -4  789.79   17.03
  -7  -3  -4  768.19   16.02
   7   3   4  790.14   17.24
  -7  -3  -4  674.92   16.84
  -7  -3  -4  764.84   15.63
  -7  -3  -4  778.16   15.50
  -7  -3  -4  785.14   17.60
  -7  -3  -4  758.09   16.16
  -7  -3  -4  763.23   17.69
   7   3   4  697.71   19.06
  -7  -3  -5  521.75   12.12
  -7  -3  -5  495.91   12.08
  -7  -3  -5  500.16   11.44
  -7  -3  -5  516.97   12.76
  -7  -3  -5  501.70   12.13
   7   3   5  522.01   13.15
  -7  -3  -5  515.68   12.79
  -7  -3  -5  501.33   11.43
  -7  -3  -5  478.35   10.89
  -7  -3  -5  513.61   12.88
  -7  -3  -5  500.92   12.09
  -7  -3  -5  504.37   12.97
  -7  -3  -6    6.23    1.46
   7   3   6    7.37    1.30
  -7  -3  -6    5.17    1.30
  -7  -3  -6    3.38    1.42
  -7  -3  -6    6.39    1.43
  -7  -3  -6    3.54    1.18
  -7  -3  -6    4.47    1.28
   7   3   6    4.40    1.37
  -7  -3  -6    5.06    1.14
  -7  -3  -6    5.27    1.30
  -7  -3  -6    5.54    1.24
  -7  -3  -6    5.27    1.17
  -7  -3  -6    2.62    0.87
   7   3   7  310.15    8.87
  -7  -3  -7  321.36    8.64
  -7  -3  -7  322.99    9.33
  -7  -3  -7  326.08    9.41
  -7  -3  -7  332.64    9.43
  -7  -3  -7  325.63    9.59
  -7  -3  -7  319.78    8.65
  -7  -3  -7  321.14    8.46
  -7  -3  -7  330.58    9.93
  -7  -3  -7  318.96    9.40
  -7  -3  -7  322.09    8.68
   7   3   8  229.05    7.11
  -7  -3  -8  234.41    8.05
  -7  -3  -8  236.86    7.45
  -7  -3  -8  228.02    7.85
  -7  -3  -8  247.54    7.68
  -7  -3  -8  241.82    6.35
  -7  -3  -8  233.25    8.37
  -7  -3  -8  243.78    8.12
  -7  -3  -8  231.75    7.26
   7   3   9  466.04   12.41
  -7  -3  -9  487.07   11.20
  -7  -3  -9  483.65   12.21
  -7  -3  -9  470.44   12.99
  -7  -3  -9  497.47   12.62
  -7  -3  -9  495.68   11.83
  -7  -3 -10   63.42    3.61
  -7  -3 -10   68.77    4.02
  -7  -3 -10   64.62    3.70
  -7  -3 -11   11.87    1.46
  -7  -3 -11   13.37    1.64
  -7  -3 -11   14.53    1.56
   7   4  -4   13.27    1.34
  -7  -4   4   15.06    1.61
   7   4  -4   14.83    1.39
  -7  -4   4   14.16    1.45
   7   4  -4   14.42    1.29
   7   4  -3  217.33    6.45
   7   4  -3  205.23    6.33
  -7  -4   3  218.99    7.05
   7   4  -3  209.32    6.06
   7   4  -2  551.92   12.40
  -7  -4   2  552.33   11.41
  -7  -4   2  549.25   14.32
   7   4  -2  555.45   12.44
  -7  -4   2  560.98   13.62
   7   4  -2  568.90   12.03
   7   4  -2  521.71   14.77
  -7  -4   1  930.14   17.20
  -7  -4   1  892.27   17.64
   7   4  -1  913.83   17.54
   7   4  -1  923.63   18.09
  -7  -4   1  876.45   20.20
  -7  -4   1  862.22   19.37
   7   4  -1  870.28   23.42
  -7  -4   0   62.74    3.12
  -7  -4   0   64.39    3.04
  -7  -4   0   61.28    3.22
   7   4   0   67.94    3.47
   7   4   0   63.64    3.52
  -7  -4   0   57.08    3.86
  -7  -4   0   63.34    3.10
  -7  -4   0   64.73    3.19
  -7  -4   0   57.33    3.65
   7   4   0   60.37    6.23
   7   4   1    7.00    3.59
  -7  -4  -1    6.17    1.31
  -7  -4  -1    6.20    1.05
  -7  -4  -1    6.60    1.15
  -7  -4  -1    7.07    1.22
   7   4   1    5.33    1.20
  -7  -4  -1    5.85    1.23
  -7  -4  -1    6.12    1.43
  -7  -4  -1    8.17    1.42
  -7  -4  -1    6.09    1.19
  -7  -4  -2  929.66   18.72
  -7  -4  -2  925.81   17.52
  -7  -4  -2  945.44   19.76
  -7  -4  -2  917.81   17.91
  -7  -4  -2  948.74   19.10
  -7  -4  -2  910.85   18.52
   7   4   2  962.00   19.24
  -7  -4  -2  942.02   19.52
  -7  -4  -2  911.91   19.29
  -7  -4  -2  963.76   18.87
   7   4   2  908.91   25.46
  -7  -4  -3  154.56    6.17
  -7  -4  -3  136.26    5.28
  -7  -4  -3  141.91    5.01
  -7  -4  -3  142.83    4.87
  -7  -4  -3  151.07    5.74
  -7  -4  -3  142.66    5.22
   7   4   3  140.19    5.49
  -7  -4  -3  140.80    5.83
  -7  -4  -3  141.63    5.41
  -7  -4  -3  146.03    5.02
  -7  -4  -3  144.09    5.41
   7   4   3  141.57    8.46
   7   4   4    4.43    2.34
  -7  -4  -4    5.59    1.35
  -7  -4  -4    8.60    1.20
  -7  -4  -4    5.92    1.42
  -7  -4  -4    7.01    1.22
  -7  -4  -4    7.11    1.47
  -7  -4  -4    7.02    1.40
  -7  -4  -4    8.01    1.32
   7   4   4    5.12    1.20
  -7  -4  -4    6.50    1.18
  -7  -4  -4    6.35    1.06
  -7  -4  -4    6.64    1.23
  -7  -4  -4    5.54    1.28
  -7  -4  -5  109.43    4.64
  -7  -4  -5  105.72    4.99
  -7  -4  -5  108.01    3.59
  -7  -4  -5  100.56    4.51
  -7  -4  -5  115.53    4.56
  -7  -4  -5  101.97    4.77
  -7  -4  -5  104.00    4.56
   7   4   5  125.12    5.38
  -7  -4  -5  102.90    4.44
  -7  -4  -5  107.84    4.92
  -7  -4  -5  107.53    3.62
  -7  -4  -5  110.49    4.55
   7   4   5  116.19    6.41
  -7  -4  -6   85.68    4.05
   7   4   6   83.52    3.88
  -7  -4  -6   83.48    4.30
  -7  -4  -6   82.88    4.21
  -7  -4  -6   89.10    4.21
  -7  -4  -6   81.16    4.31
  -7  -4  -6   87.90    4.31
   7   4   6   95.29    4.78
  -7  -4  -6   85.34    4.04
  -7  -4  -6   84.54    4.13
  -7  -4  -6   88.72    4.18
  -7  -4  -6   82.16    4.02
  -7  -4  -7  673.41   14.53
   7   4   7  685.38   14.61
  -7  -4  -7  704.88   15.60
  -7  -4  -7  670.79   15.63
  -7  -4  -7  684.48   15.74
  -7  -4  -7  701.01   15.68
  -7  -4  -7  676.84   14.89
  -7  -4  -7  711.19   14.74
  -7  -4  -7  673.18   15.81
  -7  -4  -7  695.57   15.37
  -7  -4  -8  406.93    9.61
  -7  -4  -8  404.67   10.78
  -7  -4  -8  405.04   11.40
  -7  -4  -8  427.52   11.12
  -7  -4  -8  399.10   10.86
  -7  -4  -8  397.37   10.31
  -7  -4  -8  419.88   11.89
  -7  -4  -8  406.58    9.50
  -7  -4  -8  411.80   10.94
   7   4   9   68.41    4.14
  -7  -4  -9   66.98    3.65
  -7  -4  -9   61.84    3.58
  -7  -4  -9   72.46    4.47
  -7  -4  -9   65.41    3.79
  -7  -4 -10  128.14    4.63
  -7  -4 -10  124.36    5.17
  -7  -4 -10  132.41    5.88
  -7  -4 -10  132.89    5.28
  -7  -4 -11  358.59    9.24
  -7  -4 -11  367.45    9.93
  -7  -4 -11  368.94    9.11
  -7  -4 -12   88.46    3.30
  -7  -4 -12   93.32    3.66
  -7  -4 -12   91.52    3.13
   7   5  -4   82.00    2.54
  -7  -5   4   90.51    3.28
   7   5  -4   79.04    2.52
  -7  -5   4   85.08    3.30
   7   5  -4   81.89    2.79
  -7  -5   3  155.08    4.13
   7   5  -3  155.40    4.75
  -7  -5   3  145.00    5.49
   7   5  -3  153.94    4.73
  -7  -5   3  151.76    5.53
   7   5  -3  149.42    4.70
  -7  -5   2   85.68    3.51
   7   5  -2   89.39    3.62
  -7  -5   2   80.38    3.46
  -7  -5   2   85.09    4.66
   7   5  -2   84.53    3.54
   7   5  -2   82.98    3.54
  -7  -5   1  374.54    9.30
  -7  -5   1  385.47    9.64
   7   5  -1  359.49    9.16
  -7  -5   1  374.14   11.33
   7   5  -1  383.19    8.86
   7   5   0   17.00    3.83
  -7  -5   0   18.51    1.71
  -7  -5   0   17.55    1.80
  -7  -5   0   24.76    2.22
   7   5   0   19.62    2.01
  -7  -5   0   20.77    1.71
  -7  -5   0   21.96    2.49
  -7  -5  -1  167.22    5.66
  -7  -5  -1  173.30    5.87
  -7  -5  -1  160.78    5.96
   7   5   1  168.56    6.36
  -7  -5  -1  172.12    6.76
  -7  -5  -1  170.21    5.81
  -7  -5  -1  185.07    6.13
   7   5   1  171.58    9.99
  -7  -5  -2  413.26   10.41
  -7  -5  -2  411.30    9.23
  -7  -5  -2  431.20   10.44
  -7  -5  -2  426.62   10.02
  -7  -5  -2  424.51   10.77
   7   5   2  425.09    9.89
  -7  -5  -2  403.08   11.14
  -7  -5  -2  438.49   11.02
  -7  -5  -2  435.93   11.20
  -7  -5  -2  438.07   10.66
   7   5   2  409.35   15.13
  -7  -5  -3  958.23   19.70
  -7  -5  -3  993.49   19.33
  -7  -5  -3  973.63   18.94
  -7  -5  -3  963.09   19.37
  -7  -5  -3  976.97   19.64
  -7  -5  -3  986.88   19.88
   7   5   3  982.64   19.21
  -7  -5  -3 1015.33   20.90
  -7  -5  -3  980.81   20.27
  -7  -5  -3 1019.50   20.67
  -7  -5  -3 1008.78   19.22
  -7  -5  -3 1006.47   19.83
   7   5   3  995.63   24.98
   7   5   4    8.08    2.41
  -7  -5  -4    4.71    1.35
  -7  -5  -4    6.16    1.30
  -7  -5  -4    5.70    1.31
  -7  -5  -4    3.99    0.99
  -7  -5  -4    5.94    1.25
  -7  -5  -4    5.61    1.25
  -7  -5  -4    5.54    1.28
   7   5   4    6.15    1.19
  -7  -5  -4    6.15    1.41
  -7  -5  -4    4.97    1.23
  -7  -5  -4    3.75    0.85
  -7  -5  -4    4.02    0.94
  -7  -5  -4    7.75    1.47
  -7  -5  -5  196.63    6.54
  -7  -5  -5  186.06    5.75
  -7  -5  -5  194.32    6.51
  -7  -5  -5  184.72    5.26
  -7  -5  -5  199.25    6.51
  -7  -5  -5  186.68    6.67
  -7  -5  -5  193.83    6.54
   7   5   5  188.49    6.45
  -7  -5  -5  195.62    7.08
  -7  -5  -5  193.34    6.56
  -7  -5  -5  194.19    6.89
  -7  -5  -5  199.94    6.27
   7   5   5  200.50    8.32
  -7  -5  -6   33.58    2.62
  -7  -5  -6   31.69    2.21
  -7  -5  -6   36.48    2.86
  -7  -5  -6   34.23    2.15
  -7  -5  -6   34.12    2.70
  -7  -5  -6   30.92    2.66
  -7  -5  -6   36.98    2.77
   7   5   6   37.17    2.85
  -7  -5  -6   33.80    2.65
  -7  -5  -6   34.04    2.70
  -7  -5  -6   39.92    2.81
  -7  -5  -6   32.24    2.45
  -7  -5  -6   34.24    2.45
   7   5   6   37.06    3.31
  -7  -5  -7  787.63   16.22
  -7  -5  -7  758.76   15.07
  -7  -5  -7  773.37   17.03
  -7  -5  -7  764.81   15.48
  -7  -5  -7  772.52   17.25
  -7  -5  -7  753.49   17.25
  -7  -5  -7  793.47   16.90
  -7  -5  -7  755.15   16.79
  -7  -5  -7  769.31   16.16
  -7  -5  -7  800.13   17.26
  -7  -5  -7  818.37   16.82
  -7  -5  -7  794.51   16.39
  -7  -5  -8  661.57   13.91
  -7  -5  -8  662.91   15.14
  -7  -5  -8  654.27   13.93
   7   5   8  643.61   15.74
  -7  -5  -8  635.00   15.66
  -7  -5  -8  663.26   13.95
  -7  -5  -8  659.69   15.51
  -7  -5  -8  670.98   15.00
  -7  -5  -8  643.20   15.91
  -7  -5  -8  679.06   13.67
  -7  -5  -8  655.64   14.67
  -7  -5  -9    2.49    1.25
   7   5   9    4.58    1.37
  -7  -5  -9    3.52    0.89
  -7  -5  -9    2.57    1.44
  -7  -5  -9    4.16    1.25
  -7  -5  -9    3.84    1.17
  -7  -5  -9    2.31    0.92
  -7  -5  -9    3.51    1.57
  -7  -5  -9    2.03    0.91
  -7  -5 -10    3.34    0.86
  -7  -5 -10    2.36    1.06
  -7  -5 -10    2.55    0.92
  -7  -5 -10    1.67    1.06
  -7  -5 -10    1.71    0.88
  -7  -5 -11  598.33   12.04
  -7  -5 -11  572.53   12.87
  -7  -5 -11  595.84   13.89
  -7  -5 -11  578.41   12.27
  -7  -5 -12  361.47    8.35
  -7  -5 -12  396.74    9.25
  -7  -6   3  549.76   10.82
  -7  -6   3  561.47   10.56
  -7  -6   3  570.16   11.41
  -7  -6   3  573.92   12.29
   7   6  -3  546.86   10.95
  -7  -6   2   24.54    1.94
  -7  -6   2   24.00    1.89
  -7  -6   2   25.55    2.23
   7   6  -2   24.81    1.81
  -7  -6   1  377.71    9.85
  -7  -6   1  360.45    9.74
  -7  -6   1  373.93   10.58
   7   6  -1  376.02    8.82
  -7  -6   0  738.76   16.16
  -7  -6   0  730.15   16.24
   7   6   0  716.68   15.76
  -7  -6   0  714.79   16.86
   7   6   0  707.31   21.42
  -7  -6  -1  549.53   12.32
  -7  -6  -1  575.77   12.70
  -7  -6  -1  564.85   13.52
  -7  -6  -1  566.34   13.60
  -7  -6  -1  556.02   13.66
   7   6   1  569.71   13.63
  -7  -6  -1  580.00   14.23
  -7  -6  -1  560.72   12.42
   7   6   1  551.39   18.33
  -7  -6  -2 1191.41   23.08
  -7  -6  -2 1203.09   23.77
  -7  -6  -2 1201.69   23.30
  -7  -6  -2 1210.60   24.09
  -7  -6  -2 1233.64   23.80
   7   6   2 1210.64   24.48
  -7  -6  -2 1203.42   24.26
  -7  -6  -2 1232.91   23.48
  -7  -6  -2 1173.86   23.29
   7   6   2 1194.52   29.04
   7   6   3 1133.58   26.79
  -7  -6  -3 1107.50   22.27
  -7  -6  -3 1125.32   22.23
  -7  -6  -3 1098.98   21.25
  -7  -6  -3 1164.70   23.19
  -7  -6  -3 1135.55   22.62
  -7  -6  -3 1095.23   21.43
  -7  -6  -3 1145.60   21.51
  -7  -6  -3 1122.71   22.68
   7   6   3 1154.47   23.83
  -7  -6  -3 1169.55   23.00
  -7  -6  -3 1182.84   21.73
  -7  -6  -3 1213.04   23.14
  -7  -6  -3 1138.33   21.87
  -7  -6  -3 1112.93   22.62
   7   6   4  423.66   13.39
  -7  -6  -4  429.30   10.91
  -7  -6  -4  430.76   10.53
  -7  -6  -4  405.90   10.28
  -7  -6  -4  398.25    9.79
  -7  -6  -4  420.66   10.91
  -7  -6  -4  412.34   10.52
  -7  -6  -4  433.29    9.43
  -7  -6  -4  413.27   10.84
  -7  -6  -4  429.85   11.03
  -7  -6  -4  428.70   11.31
  -7  -6  -4  414.67   10.12
  -7  -6  -4  430.50   11.54
  -7  -6  -4  423.48   11.12
   7   6   5  140.52    6.80
  -7  -6  -5  139.14    5.59
  -7  -6  -5  146.29    5.36
  -7  -6  -5  139.43    5.50
  -7  -6  -5  140.70    4.99
  -7  -6  -5  140.72    5.61
  -7  -6  -5  143.53    5.66
  -7  -6  -5  130.45    5.36
  -7  -6  -5  139.56    5.60
  -7  -6  -5  144.27    5.84
  -7  -6  -5  150.85    5.14
  -7  -6  -5  142.62    5.92
  -7  -6  -5  139.55    5.71
   7   6   6  533.83   13.83
  -7  -6  -6  518.05   12.38
  -7  -6  -6  526.59   11.93
  -7  -6  -6  496.82   12.71
  -7  -6  -6  501.63   12.52
  -7  -6  -6  501.62   11.65
  -7  -6  -6  502.86   12.55
  -7  -6  -6  493.78   12.67
  -7  -6  -6  509.91   12.23
   7   6   6  511.79   11.67
  -7  -6  -6  492.94   12.43
  -7  -6  -6  534.20   12.75
  -7  -6  -6  483.40   11.70
  -7  -6  -6  520.56   11.50
  -7  -6  -6  496.31   12.43
  -7  -6  -7   82.48    4.05
  -7  -6  -7   79.49    3.84
  -7  -6  -7   68.97    4.13
  -7  -6  -7   79.81    3.88
  -7  -6  -7   71.38    4.17
  -7  -6  -7   71.54    4.24
  -7  -6  -7   86.97    4.17
   7   6   7   85.18    4.18
  -7  -6  -7   88.01    4.24
  -7  -6  -7   78.80    4.28
  -7  -6  -7  105.25    4.76
  -7  -6  -7   84.50    4.01
  -7  -6  -7   77.66    3.60
  -7  -6  -8  875.37   17.32
  -7  -6  -8  844.33   17.11
  -7  -6  -8  846.37   18.47
  -7  -6  -8  849.19   17.80
   7   6   8  809.20   17.76
  -7  -6  -8  867.99   18.99
  -7  -6  -8  848.23   18.89
  -7  -6  -8  858.10   17.71
  -7  -6  -8  862.62   19.16
  -7  -6  -8  848.72   16.93
  -7  -6  -8  861.38   17.06
  -7  -6  -8  862.19   17.27
  -7  -6  -9  120.73    4.17
  -7  -6  -9  114.38    4.26
  -7  -6  -9  117.20    5.10
   7   6   9  100.93    4.60
  -7  -6  -9  108.79    4.80
  -7  -6  -9  119.74    5.59
  -7  -6  -9  112.27    5.24
  -7  -6  -9  115.92    4.60
  -7  -6  -9  113.90    5.67
  -7  -6  -9  120.53    4.46
  -7  -6 -10   13.40    1.75
  -7  -6 -10   13.81    1.69
  -7  -6 -10   15.02    2.21
  -7  -6 -10   13.86    1.87
  -7  -6 -10   11.02    1.46
  -7  -6 -10   17.96    2.22
  -7  -6 -10   15.33    1.48
  -7  -6 -11  259.15    7.18
  -7  -6 -11  282.88    7.54
  -7  -6 -11  281.27    7.45
  -7  -6 -11  289.78    8.65
  -7  -6 -12  470.66    9.85
  -7  -6 -12  490.39   10.94
  -7  -7   2   23.29    1.81
  -7  -7   2   24.90    1.82
   7   7  -2   22.95    1.52
   7   7  -1    6.98    1.05
  -7  -7   1    9.02    1.46
  -7  -7   1    9.23    1.49
  -7  -7   1    7.00    1.16
  -7  -7   0  380.63   10.57
  -7  -7   0  393.27   10.63
  -7  -7   0  380.94   10.63
  -7  -7   0  382.74   10.18
  -7  -7  -1  597.26   12.79
  -7  -7  -1  603.70   14.77
  -7  -7  -1  605.78   14.50
  -7  -7  -1  615.50   14.83
   7   7   1  606.01   14.24
  -7  -7  -1  633.56   14.45
   7   7   1  591.11   18.62
  -7  -7  -2  371.65    9.71
  -7  -7  -2  377.03   10.73
  -7  -7  -2  374.10   10.21
  -7  -7  -2  371.43   10.68
   7   7   2  376.24   10.57
  -7  -7  -2  379.79   10.31
  -7  -7  -2  365.42    9.70
   7   7   2  396.31   13.84
   7   7   3   90.72    6.00
  -7  -7  -3   82.12    4.22
  -7  -7  -3   85.97    4.42
  -7  -7  -3   82.17    3.69
  -7  -7  -3   85.33    4.53
  -7  -7  -3   86.89    4.06
  -7  -7  -3   89.62    4.63
   7   7   3   89.30    4.71
  -7  -7  -3   89.51    4.38
  -7  -7  -3   92.41    3.84
  -7  -7  -3   78.60    4.16
  -7  -7  -4    6.96    1.52
   7   7   4    5.10    1.77
  -7  -7  -4    1.66    1.24
  -7  -7  -4    5.05    1.55
  -7  -7  -4    8.11    1.55
  -7  -7  -4    5.62    1.48
  -7  -7  -4    3.68    1.35
  -7  -7  -4    5.25    1.09
  -7  -7  -4    7.20    1.21
  -7  -7  -4    7.01    1.40
   7   7   4    6.23    1.43
  -7  -7  -4    9.27    1.50
  -7  -7  -4    4.42    1.28
  -7  -7  -4    5.58    1.23
   7   7   5  245.11    9.20
  -7  -7  -5  239.93    7.96
  -7  -7  -5  226.78    7.59
  -7  -7  -5  265.88    8.10
  -7  -7  -5  254.84    7.62
  -7  -7  -5  245.08    8.00
  -7  -7  -5  234.14    7.48
  -7  -7  -5  223.17    7.49
  -7  -7  -5  225.23    7.56
   7   7   5  244.67    8.41
  -7  -7  -5  247.68    8.01
  -7  -7  -5  242.44    8.24
  -7  -7  -5  231.64    7.90
   7   7   6 1254.51   26.31
  -7  -7  -6 1230.14   24.81
  -7  -7  -6 1280.83   25.35
  -7  -7  -6 1290.54   24.79
  -7  -7  -6 1272.68   25.14
  -7  -7  -6 1276.40   24.56
  -7  -7  -6 1313.13   25.06
  -7  -7  -6 1256.74   25.07
  -7  -7  -6 1257.62   25.03
  -7  -7  -6 1287.00   24.46
  -7  -7  -6 1235.37   24.74
   7   7   6 1228.11   25.34
  -7  -7  -6 1234.86   23.81
  -7  -7  -6 1286.95   24.92
  -7  -7  -6 1238.88   24.87
   7   7   7   70.91    4.07
  -7  -7  -7   68.57    3.90
  -7  -7  -7   74.58    4.03
  -7  -7  -7   67.36    4.11
  -7  -7  -7   71.53    3.99
  -7  -7  -7   73.19    4.13
  -7  -7  -7   74.72    4.22
  -7  -7  -7   73.52    4.27
  -7  -7  -7   73.24    3.74
  -7  -7  -7   72.17    3.97
  -7  -7  -7   67.66    3.80
  -7  -7  -8  172.78    5.90
  -7  -7  -8  152.94    5.91
  -7  -7  -8  149.14    6.18
  -7  -7  -8  152.55    6.19
  -7  -7  -8  148.10    6.21
  -7  -7  -8  160.70    6.55
  -7  -7  -8  158.93    5.53
  -7  -7  -8  149.05    6.35
  -7  -7  -8  169.66    5.71
  -7  -7  -9  414.70    9.59
  -7  -7  -9  404.08   10.36
  -7  -7  -9  416.37   10.94
  -7  -7  -9  405.49   11.14
  -7  -7  -9  398.56   11.17
  -7  -7  -9  423.88   11.46
  -7  -7  -9  412.02    9.55
  -7  -7  -9  406.32   11.64
  -7  -7 -10   72.18    3.38
  -7  -7 -10   76.44    3.73
  -7  -7 -10   72.89    4.04
  -7  -7 -10   74.65    4.13
  -7  -7 -10   79.31    4.16
  -7  -7 -10   78.36    4.47
  -7  -7 -11   92.51    3.31
  -7  -7 -11   84.04    3.92
  -7  -7 -11   94.10    4.06
  -7  -7 -11   87.52    4.29
  -7  -7 -12  238.61    6.05
  -7  -7 -12  255.23    6.87
  -7  -8   1    2.09    0.84
  -7  -8   1    2.39    0.81
  -7  -8   0  249.71    7.94
  -7  -8   0  249.60    7.67
  -7  -8   0  257.02    7.93
  -7  -8  -1  332.03    7.82
  -7  -8  -1  343.87   10.06
  -7  -8  -1  333.77    9.58
  -7  -8  -1  350.55   10.06
  -7  -8  -1  316.54    8.17
  -7  -8  -2  667.60   14.33
  -7  -8  -2  662.15   15.92
  -7  -8  -2  707.48   15.58
  -7  -8  -2  679.54   15.93
  -7  -8  -2  655.44   14.28
   7   8   2  626.40   15.02
   7   8   2  646.60   18.49
   7   8   3  136.14    7.20
  -7  -8  -3  134.86    5.50
  -7  -8  -3  129.47    5.63
  -7  -8  -3  132.54    4.67
  -7  -8  -3  136.28    5.94
  -7  -8  -3  133.50    5.37
  -7  -8  -3  130.51    5.80
  -7  -8  -3  133.32    5.13
   7   8   3  127.51    5.63
  -7  -8  -3  130.23    5.34
   7   8   4  150.36    7.30
  -7  -8  -4  153.18    6.19
  -7  -8  -4  152.55    6.21
  -7  -8  -4  143.98    5.56
  -7  -8  -4  153.67    6.35
  -7  -8  -4  155.31    5.44
  -7  -8  -4  150.73    6.15
  -7  -8  -4  159.49    5.71
   7   8   4  150.15    6.25
  -7  -8  -4  157.83    6.17
  -7  -8  -5  223.95    7.91
  -7  -8  -5  239.07    8.04
  -7  -8  -5  227.14    7.65
  -7  -8  -5  243.43    7.89
  -7  -8  -5  226.35    7.88
  -7  -8  -5  225.37    7.02
  -7  -8  -5  232.28    7.57
  -7  -8  -5  241.35    7.39
   7   8   5  222.99    7.76
  -7  -8  -5  227.83    7.82
  -7  -8  -6 1919.49   35.06
  -7  -8  -6 1944.38   35.08
  -7  -8  -6 1879.12   34.98
  -7  -8  -6 1847.86   34.68
  -7  -8  -6 1846.68   34.47
  -7  -8  -6 1886.08   34.81
  -7  -8  -6 1867.34   34.22
  -7  -8  -6 1913.66   33.86
  -7  -8  -6 1874.87   33.94
   7   8   6 1764.31   33.29
  -7  -8  -6 1849.92   33.13
  -7  -8  -6 1921.63   34.68
  -7  -8  -7  430.81   11.45
  -7  -8  -7  425.54   11.59
  -7  -8  -7  424.30   11.73
  -7  -8  -7  428.94   11.68
  -7  -8  -7  435.33   11.58
  -7  -8  -7  425.49   11.50
  -7  -8  -7  419.85   11.50
  -7  -8  -7  431.23   10.46
  -7  -8  -7  430.02   11.13
  -7  -8  -7  419.29   11.04
  -7  -8  -8   31.57    2.56
  -7  -8  -8   30.03    2.77
  -7  -8  -8   27.44    2.72
  -7  -8  -8   30.06    2.87
  -7  -8  -8   28.35    2.61
  -7  -8  -8   28.16    2.69
  -7  -8  -8   26.50    2.67
  -7  -8  -8   28.76    2.06
  -7  -8  -8   28.56    2.67
  -7  -8  -8   27.69    2.23
  -7  -8  -9  264.53    7.31
  -7  -8  -9  277.21    8.45
  -7  -8  -9  275.46    8.43
  -7  -8  -9  259.49    8.70
  -7  -8  -9  268.51    8.38
  -7  -8  -9  274.38    8.68
  -7  -8  -9  283.08    8.94
  -7  -8 -10  344.26    9.14
  -7  -8 -10  354.20    9.19
  -7  -8 -10  365.76   10.24
  -7  -8 -10  355.81    9.45
  -7  -8 -10  362.79    9.88
  -7  -8 -10  364.72   10.25
  -7  -8 -11  165.71    4.87
  -7  -8 -11  170.01    4.76
  -7  -8 -11  166.88    5.85
  -7  -8 -11  178.72    6.08
  -7  -8 -12  119.17    3.90
  -7  -8 -12  122.92    4.20
  -7  -9   0  266.95    7.57
  -7  -9   0  277.58    7.52
  -7  -9  -1  126.34    5.34
  -7  -9  -1  125.45    4.96
  -7  -9  -1  123.02    5.18
  -7  -9  -2   61.88    3.01
  -7  -9  -2   61.08    3.83
  -7  -9  -2   63.66    3.57
  -7  -9  -2   63.55    3.79
  -7  -9  -3  109.09    4.70
  -7  -9  -3  109.00    3.86
  -7  -9  -3  115.00    5.35
  -7  -9  -3  107.80    4.78
  -7  -9  -3  107.97    5.05
  -7  -9  -4  163.48    6.32
  -7  -9  -4  157.39    6.23
  -7  -9  -4  155.90    5.57
  -7  -9  -4  159.88    6.38
  -7  -9  -4  167.90    5.72
  -7  -9  -4  162.07    6.16
  -7  -9  -4  149.77    4.95
  -7  -9  -5   10.51    1.95
  -7  -9  -5    9.97    1.95
  -7  -9  -5   10.71    1.76
  -7  -9  -5   10.36    1.72
  -7  -9  -5   11.61    1.34
  -7  -9  -5    9.47    1.50
  -7  -9  -6  445.53   11.95
  -7  -9  -6  443.14   11.94
  -7  -9  -6  436.15   11.76
  -7  -9  -6  439.69   11.86
  -7  -9  -6  429.51   11.30
  -7  -9  -6  449.69   11.64
  -7  -9  -6  430.40   10.66
  -7  -9  -6  443.52   10.69
  -7  -9  -7  257.10    8.20
  -7  -9  -7  262.41    8.54
  -7  -9  -7  242.12    8.22
  -7  -9  -7  252.71    8.46
  -7  -9  -7  252.43    7.94
  -7  -9  -7  234.36    8.01
  -7  -9  -7  248.90    7.82
  -7  -9  -7  243.71    6.70
  -7  -9  -8    2.15    1.17
  -7  -9  -8    3.65    1.47
  -7  -9  -8    1.85    1.22
  -7  -9  -8    2.96    1.58
  -7  -9  -8    3.72    1.16
  -7  -9  -8    3.81    1.35
  -7  -9  -8    4.78    1.55
  -7  -9  -8    3.10    1.19
  -7  -9  -9   18.85    1.77
  -7  -9  -9   17.82    2.22
  -7  -9  -9   20.45    2.18
  -7  -9  -9   19.25    2.35
  -7  -9  -9   17.23    1.88
  -7  -9  -9   18.94    2.15
  -7  -9 -10  500.08   11.83
  -7  -9 -10  511.88   11.43
  -7  -9 -10  514.96   12.55
  -7  -9 -10  492.05   10.88
  -7  -9 -10  513.96   12.19
  -7  -9 -11  141.04    4.47
  -7  -9 -11  147.34    4.10
  -7  -9 -11  141.74    5.08
  -7  -9 -11  149.83    5.08
  -7 -10  -1  286.87    7.24
  -7 -10  -1  283.25    7.20
  -7 -10  -2    3.56    0.70
  -7 -10  -2    4.71    1.08
  -7 -10  -2    4.36    0.97
  -7 -10  -2    3.98    0.98
  -7 -10  -3   19.43    1.76
  -7 -10  -3   22.08    2.05
  -7 -10  -3   23.27    1.95
  -7 -10  -3   20.72    1.92
  -7 -10  -4  508.46   12.02
  -7 -10  -4  503.08   10.92
  -7 -10  -4  520.93   12.10
  -7 -10  -4  502.79   11.24
  -7 -10  -4  485.69   11.47
  -7 -10  -5  166.71    6.28
  -7 -10  -5  165.49    6.06
  -7 -10  -5  164.98    5.87
  -7 -10  -5  167.18    5.88
  -7 -10  -5  166.35    5.31
  -7 -10  -6   25.09    2.54
  -7 -10  -6   32.78    2.75
  -7 -10  -6   26.27    2.48
  -7 -10  -6   29.83    2.31
  -7 -10  -6   28.20    1.83
  -7 -10  -7  132.54    5.47
  -7 -10  -7  139.12    5.68
  -7 -10  -7  133.66    5.55
  -7 -10  -7  140.00    5.66
  -7 -10  -7  130.24    5.29
  -7 -10  -7  131.11    4.82
  -7 -10  -8   48.56    3.00
  -7 -10  -8   54.33    3.44
  -7 -10  -8   48.13    3.19
  -7 -10  -8   50.27    3.36
  -7 -10  -8   45.65    2.59
  -7 -10  -8   46.97    3.13
  -7 -10  -9   94.08    3.63
  -7 -10  -9   97.26    4.48
  -7 -10  -9   92.33    4.10
  -7 -10  -9   95.52    4.42
  -7 -10 -10  238.30    6.89
  -7 -10 -10  242.89    6.38
  -7 -10 -10  235.86    6.95
  -7 -11  -4  521.45   10.86
  -7 -11  -4  525.09   10.53
  -7 -11  -5  318.83    8.26
  -7 -11  -5  318.44    7.53
  -7 -11  -5  326.93    7.36
  -7 -11  -6   66.09    3.40
  -7 -11  -6   58.47    3.01
  -7 -11  -6   63.52    3.19
  -7 -11  -6   61.99    2.52
  -7 -11  -7   19.58    1.87
  -7 -11  -7   19.65    1.83
  -7 -11  -7   17.31    1.79
  -7 -11  -8  202.78    5.84
  -7 -11  -8  211.44    6.22
  -7 -11  -8  205.35    6.20
   8  -3   0   77.07    2.78
   8  -3   0   77.59    2.79
  -8   3  -1   36.80    2.23
  -8   3  -1   39.28    2.13
  -8   3  -1   39.09    2.16
  -8   3  -2   94.36    3.49
  -8   3  -2   96.41    3.48
  -8   3  -2   91.44    3.44
  -8   3  -3  359.27    7.66
  -8   3  -3  368.53    8.01
  -8   3  -3  372.24    8.88
  -8   3  -3  362.81    8.03
  -8   3  -4   48.01    2.45
  -8   3  -4   44.56    2.42
   8  -2  -2   36.96    1.99
  -8   2   2   39.25    2.21
   8  -2  -2   38.52    2.03
  -8   2   1    3.89    0.99
  -8   2   1    2.66    0.66
   8  -2  -1    4.18    0.81
  -8   2   1    2.82    0.65
   8  -2  -1    3.24    0.74
   8  -2   0  284.98    7.16
  -8   2   0  295.19    8.28
  -8   2   0  297.01    7.43
   8  -2   0  294.56    7.24
  -8   2   0  274.13    7.33
   8  -2   1  117.54    4.04
  -8   2  -1  130.06    5.13
  -8   2  -1  127.24    4.73
   8  -2   1  119.21    4.06
  -8   2  -1  120.53    4.69
  -8   2  -2  108.91    4.65
  -8   2  -2  108.32    4.45
  -8   2  -2  103.80    4.42
  -8   2  -3  151.29    5.34
  -8   2  -3  154.57    5.35
  -8   2  -3  157.39    5.43
  -8   2  -4  257.19    6.74
  -8   2  -4  258.04    6.88
  -8   2  -4  260.67    7.81
  -8   2  -4  250.38    6.86
  -8   2  -5    2.26    0.59
  -8   2  -5    2.83    0.83
  -8   2  -5    1.25    0.46
  -8   2  -5    3.29    0.98
  -8   2  -5    3.05    0.66
  -8   2  -6  148.79    4.68
  -8   2  -6  143.14    4.90
   8  -1  -3  370.56    8.06
   8  -1  -3  356.79    7.99
   8  -1  -2  311.87    7.76
  -8   1   2  322.66    8.06
   8  -1  -2  318.39    7.82
   8  -1  -1   91.09    3.70
  -8   1   1   90.98    4.27
   8  -1  -1   94.56    3.77
  -8   1   1   83.57    3.23
  -8   1   1   81.85    3.31
   8  -1   0   61.29    3.00
  -8   1   0   66.93    3.85
  -8   1   0   57.35    3.10
   8  -1   0   58.13    2.94
  -8   1   0   57.12    3.19
   8  -1   1  783.08   15.52
  -8   1  -1  831.49   17.86
  -8   1  -1  824.84   17.22
   8  -1   1  770.29   15.47
  -8   1  -1  792.13   14.98
  -8   1  -1  779.72   17.11
   8  -1   2  116.23    3.97
  -8   1  -2  127.69    5.55
  -8   1  -2  123.75    5.35
   8  -1   2  124.12    4.07
  -8   1  -2  119.12    4.09
  -8   1  -2  122.72    5.36
  -8   1  -3   53.42    3.49
  -8   1  -3   57.19    3.50
  -8   1  -3   54.36    2.72
  -8   1  -3   52.46    3.43
  -8   1  -4   17.07    1.92
  -8   1  -4   17.86    1.91
  -8   1  -4   15.92    1.49
  -8   1  -4   16.80    1.90
  -8   1  -5  139.97    5.00
  -8   1  -5  131.52    4.56
  -8   1  -5  137.43    5.75
  -8   1  -5  135.34    4.97
  -8   1  -6  292.73    6.70
  -8   1  -6  304.36    8.16
  -8   1  -6  279.54    6.80
  -8   1  -6  291.13    7.17
  -8   1  -6  279.28    7.08
  -8   1  -6  312.68    8.70
  -8   1  -6  285.45    6.80
  -8   1  -7  208.47    5.92
  -8   1  -7  199.55    5.48
  -8   1  -7  197.46    5.20
  -8   1  -7  207.45    6.40
   8   0  -3  159.67    4.83
  -8   0   3  160.17    4.09
   8   0  -3  164.41    4.89
  -8   0   3  160.06    3.96
   8   0  -2  570.75   12.21
  -8   0   2  565.60   12.16
  -8   0   2  573.88   11.13
   8   0  -2  568.75   12.21
  -8   0   2  560.65   11.41
   8   0  -1   24.49    1.93
  -8   0   1   22.24    2.19
  -8   0   1   25.04    1.58
   8   0  -1   22.04    1.85
  -8   0   1   22.57    1.70
  -8   0   1   24.48    1.83
  -8   0   1   20.34    1.70
   8   0   0   17.25    1.64
  -8   0   0   16.78    2.13
  -8   0   0   14.71    1.69
   8   0   0   14.30    1.54
  -8   0   0   17.57    1.68
  -8   0   0   12.10    1.64
   8   0   1  876.90   16.63
  -8   0  -1  865.36   19.41
  -8   0  -1  855.84   17.85
   8   0   1  869.83   18.15
  -8   0  -1  861.16   18.67
   8   0   1  858.96   16.58
  -8   0  -1  855.90   17.32
  -8   0  -1  872.80   18.94
  -8   0  -2  570.94   13.77
  -8   0  -2  579.01   14.62
   8   0   2  563.62   13.42
  -8   0  -2  558.91   14.24
  -8   0  -2  570.22   12.80
  -8   0  -2  563.70   14.42
   8   0   3   53.17    3.32
  -8   0  -3   54.07    3.48
  -8   0  -3   60.49    3.94
   8   0   3   56.15    3.44
  -8   0  -3   53.75    3.72
  -8   0  -3   49.61    3.04
  -8   0  -3   51.75    3.70
   8   0   4   58.50    3.50
  -8   0  -4   63.95    3.94
  -8   0  -4   55.44    3.43
   8   0   4   65.42    3.65
  -8   0  -4   67.55    4.04
  -8   0  -4   64.60    3.48
  -8   0  -4   60.55    3.87
  -8   0  -5   78.66    4.13
  -8   0  -5   78.38    4.09
  -8   0  -5   75.77    3.84
  -8   0  -5   74.82    4.05
  -8   0  -6  569.16   12.50
  -8   0  -6  565.07   12.99
  -8   0  -6  554.29   12.28
  -8   0  -6  537.46   12.17
  -8   0  -6  542.99   12.81
  -8   0  -6  564.07   13.76
  -8   0  -6  554.76   12.37
  -8   0  -7  436.24    9.18
  -8   0  -7  410.09   10.09
  -8   0  -7  420.56   10.18
  -8   0  -7  422.24   10.41
  -8   0  -7  433.04   11.11
  -8   0  -8   22.03    1.70
  -8   0  -8   19.46    1.55
  -8   0  -8   20.86    1.77
  -8   0  -8   19.88    1.73
  -8   0  -8   20.00    1.89
  -8   0  -9    2.16    0.62
  -8   0  -9    1.25    0.58
  -8   0  -9    2.20    0.62
  -8   0  -9    1.33    0.59
  -8  -1   3    9.06    1.12
  -8  -1   3    7.73    1.07
   8   1  -3    6.93    1.04
   8   1  -3    8.70    1.17
  -8  -1   3    8.54    1.06
   8   1  -2   61.25    3.02
  -8  -1   2   66.27    3.16
   8   1  -2   60.35    3.00
  -8  -1   2   59.26    3.27
  -8  -1   2   57.89    3.02
   8   1  -1  464.99   10.66
  -8  -1   1  466.30   11.49
  -8  -1   1  472.54   10.85
   8   1  -1  473.33   10.72
  -8  -1   1  474.69   11.88
  -8  -1   1  476.04   11.29
  -8  -1   1  462.36    9.95
   8   1   0   12.19    1.81
  -8  -1   0   12.13    1.86
   8   1   0   12.23    1.72
  -8  -1   0   14.06    1.56
  -8  -1   0   15.22    1.98
   8   1   0   12.76    1.38
   8   1   0   11.20    1.32
  -8  -1   0   13.53    1.60
  -8  -1   0   11.53    1.61
  -8  -1   0   10.96    1.47
  -8  -1   0   13.37    1.70
  -8  -1  -1  515.56   13.91
  -8  -1  -1  545.25   13.02
   8   1   1  529.46   13.12
  -8  -1  -1  548.08   11.70
  -8  -1  -1  560.25   13.57
  -8  -1  -1  526.96   13.37
  -8  -1  -1  527.75   12.70
   8   1   1  511.65   12.85
  -8  -1  -1  537.30   13.58
  -8  -1  -2  100.88    5.36
  -8  -1  -2   91.70    3.63
  -8  -1  -2   95.27    4.78
   8   1   2   96.99    4.73
  -8  -1  -2   95.54    3.66
  -8  -1  -2   98.83    5.11
  -8  -1  -2   93.67    4.46
   8   1   2   93.79    4.13
  -8  -1  -2   99.32    5.21
  -8  -1  -3   69.59    4.40
  -8  -1  -3   72.63    3.47
  -8  -1  -3   66.31    4.12
   8   1   3   68.36    4.01
  -8  -1  -3   66.38    4.38
  -8  -1  -3   67.65    3.78
  -8  -1  -3   66.06    4.41
  -8  -1  -4  224.61    8.06
  -8  -1  -4  219.49    6.89
  -8  -1  -4  215.80    7.66
   8   1   4  216.56    7.52
  -8  -1  -4  212.24    8.04
  -8  -1  -4  219.40    7.32
  -8  -1  -4  207.57    8.07
   8   1   5  142.03    5.72
  -8  -1  -5  144.82    6.11
  -8  -1  -5  142.59    5.73
   8   1   5  131.60    5.68
  -8  -1  -5  136.32    5.93
  -8  -1  -5  138.36    5.69
  -8  -1  -5  137.15    6.00
   8   1   6  133.13    5.52
  -8  -1  -6  148.61    5.82
   8   1   6  129.84    5.56
  -8  -1  -6  132.56    4.94
  -8  -1  -6  141.41    5.23
  -8  -1  -6  137.63    5.47
  -8  -1  -6  138.91    5.25
  -8  -1  -6  141.88    5.80
  -8  -1  -6  144.52    5.96
  -8  -1  -6  142.44    5.58
  -8  -1  -7  443.76   10.61
  -8  -1  -7  435.58   10.45
  -8  -1  -7  431.23   11.04
  -8  -1  -7  431.98   11.47
  -8  -1  -7  441.84   10.14
  -8  -1  -7  468.88   11.81
  -8  -1  -8   36.51    2.06
  -8  -1  -8   38.12    2.46
  -8  -1  -8   39.78    2.33
  -8  -1  -8   39.93    2.76
  -8  -1  -8   36.24    2.70
  -8  -1  -8   39.84    2.80
  -8  -1  -9    9.29    1.17
  -8  -1  -9    8.55    1.28
  -8  -1  -9   10.14    1.36
  -8  -1  -9    8.76    1.25
   8   2  -4  420.47    8.21
   8   2  -4  424.86    8.23
  -8  -2   4  427.88    8.52
  -8  -2   3    8.08    1.23
  -8  -2   3    7.03    1.06
   8   2  -3    8.33    1.08
   8   2  -3    7.61    1.03
   8   2  -2   91.52    3.68
  -8  -2   2   91.66    4.24
   8   2  -2   88.79    3.63
  -8  -2   2   87.80    4.14
   8   2  -1  254.23    6.82
  -8  -2   1  246.40    7.08
  -8  -2   1  252.04    7.76
   8   2  -1  251.09    6.78
  -8  -2   1  234.38    7.79
  -8  -2   0  255.52    8.13
   8   2   0  247.16    7.88
  -8  -2   0  244.54    6.67
  -8  -2   0  256.45    7.78
  -8  -2   0  257.66    8.29
  -8  -2   0  253.89    8.08
   8   2   0  238.68    8.78
  -8  -2   0  250.01    7.32
  -8  -2  -1  237.95    8.46
  -8  -2  -1  240.90    6.36
   8   2   1  242.52    7.89
  -8  -2  -1  245.05    7.73
  -8  -2  -1  237.67    7.34
  -8  -2  -1  242.13    8.05
  -8  -2  -1  238.45    7.91
  -8  -2  -1  248.79    8.00
   8   2   1  228.34    8.76
  -8  -2  -1  239.61    8.08
  -8  -2  -2   39.02    3.38
  -8  -2  -2   38.38    2.49
  -8  -2  -2   44.17    3.24
   8   2   2   40.29    3.08
  -8  -2  -2   41.79    2.69
  -8  -2  -2   40.18    3.26
  -8  -2  -2   38.91    2.98
  -8  -2  -2   47.00    3.22
   8   2   2   36.93    3.34
  -8  -2  -2   42.59    3.43
   8   2   3    2.12    1.28
  -8  -2  -3    2.76    1.31
  -8  -2  -3    4.19    1.07
   8   2   3    3.46    1.14
  -8  -2  -3    2.89    0.88
  -8  -2  -3    2.54    1.03
  -8  -2  -3    4.17    1.39
  -8  -2  -3    1.40    0.86
  -8  -2  -3    1.21    1.01
  -8  -2  -3    4.35    1.57
  -8  -2  -4  455.28   12.70
  -8  -2  -4  439.44   11.13
  -8  -2  -4  447.79   12.36
   8   2   4  440.79   11.99
  -8  -2  -4  446.78   10.26
  -8  -2  -4  425.48   12.60
  -8  -2  -4  444.02   11.69
  -8  -2  -4  445.56   12.95
   8   2   5  941.64   20.42
  -8  -2  -5 1037.52   21.90
  -8  -2  -5  970.53   20.46
   8   2   5 1023.50   21.47
  -8  -2  -5 1001.59   21.14
  -8  -2  -5 1018.64   18.86
  -8  -2  -5 1000.37   21.70
  -8  -2  -5  978.78   20.90
  -8  -2  -5 1009.46   21.96
   8   2   6   14.71    1.84
  -8  -2  -6   14.13    2.01
  -8  -2  -6   13.70    1.94
   8   2   6   12.38    1.88
  -8  -2  -6   15.26    1.73
  -8  -2  -6   13.66    1.87
  -8  -2  -6   12.99    1.83
  -8  -2  -6   14.32    1.80
  -8  -2  -6   10.37    1.55
  -8  -2  -6   16.39    2.02
   8   2   7  108.65    4.82
  -8  -2  -7  120.77    5.16
   8   2   7  123.44    5.55
  -8  -2  -7  107.13    4.04
  -8  -2  -7  111.08    5.02
  -8  -2  -7  113.17    5.27
  -8  -2  -7  121.11    5.14
  -8  -2  -7  115.39    4.64
  -8  -2  -8  185.03    5.97
  -8  -2  -8  183.95    5.96
  -8  -2  -8  172.31    6.55
  -8  -2  -8  180.75    6.75
  -8  -2  -8  185.36    6.45
  -8  -2  -9   86.54    3.15
  -8  -2  -9   86.41    3.74
  -8  -2  -9   89.81    4.28
  -8  -2  -9   89.43    4.27
  -8  -2  -9   86.67    3.96
  -8  -2 -10  104.33    3.73
  -8  -2 -10  113.77    4.38
  -8  -2 -10  112.22    4.26
   8   3  -3  120.58    3.73
  -8  -3   3  127.04    4.78
   8   3  -3  124.40    3.76
  -8  -3   3  122.90    4.42
  -8  -3   2    4.15    1.19
  -8  -3   2    4.12    1.11
   8   3  -2    4.54    0.90
   8   3  -2    4.84    0.90
  -8  -3   1  371.78   10.45
  -8  -3   1  368.46   10.21
  -8  -3   0  429.95   10.62
  -8  -3   0  434.99   10.23
  -8  -3   0  432.30    9.46
   8   3   0  430.04   10.85
  -8  -3   0  434.31   11.62
  -8  -3   0  439.27   11.67
   8   3   0  409.97   13.08
  -8  -3  -1  451.62   11.53
  -8  -3  -1  445.42   11.82
  -8  -3  -1  426.75   10.17
   8   3   1  451.11   11.54
  -8  -3  -1  437.94   11.09
  -8  -3  -1  448.23   11.69
  -8  -3  -1  473.13   11.99
   8   3   1  427.92   14.25
  -8  -3  -2   98.64    5.14
  -8  -3  -2   98.95    4.22
   8   3   2   95.38    4.72
  -8  -3  -2   91.91    4.69
  -8  -3  -2  104.33    4.73
  -8  -3  -2   98.08    4.71
  -8  -3  -2   96.92    4.83
  -8  -3  -2   97.42    5.02
   8   3   2   91.99    6.33
   8   3   3   16.13    3.00
  -8  -3  -3   18.07    2.35
  -8  -3  -3   11.15    1.60
   8   3   3   18.03    2.14
  -8  -3  -3   17.21    1.95
  -8  -3  -3   10.40    1.55
  -8  -3  -3   20.79    2.50
  -8  -3  -3    9.21    1.68
  -8  -3  -3   14.51    2.03
  -8  -3  -3   15.42    2.26
  -8  -3  -4   51.19    2.70
  -8  -3  -4   53.98    3.87
  -8  -3  -4   46.90    3.15
   8   3   4   58.87    3.77
  -8  -3  -4   46.61    3.52
  -8  -3  -4   57.52    3.27
  -8  -3  -4   48.68    3.07
  -8  -3  -4   57.50    4.08
  -8  -3  -4   50.80    3.43
   8   3   4   49.45    3.90
  -8  -3  -4   56.42    4.11
  -8  -3  -5 1000.02   19.65
  -8  -3  -5 1048.65   22.36
  -8  -3  -5 1015.72   21.02
   8   3   5 1017.57   21.74
  -8  -3  -5 1016.47   21.79
  -8  -3  -5 1061.91   20.26
  -8  -3  -5 1036.55   22.37
  -8  -3  -5 1016.98   21.33
  -8  -3  -5 1028.01   22.59
   8   3   6   21.53    2.18
  -8  -3  -6   24.47    2.18
  -8  -3  -6   24.64    2.56
  -8  -3  -6   27.21    2.62
   8   3   6   22.82    2.46
  -8  -3  -6   24.59    2.07
  -8  -3  -6   23.00    2.21
  -8  -3  -6   23.92    2.11
  -8  -3  -6   26.66    2.55
  -8  -3  -6   29.43    2.24
  -8  -3  -6   25.94    2.52
   8   3   7  128.02    5.27
  -8  -3  -7  138.22    5.36
  -8  -3  -7  136.35    5.38
  -8  -3  -7  136.03    5.82
  -8  -3  -7  127.65    5.74
   8   3   7  135.30    5.99
  -8  -3  -7  129.13    4.94
  -8  -3  -7  119.09    5.37
  -8  -3  -7  140.18    5.87
  -8  -3  -7  143.07    5.23
  -8  -3  -8  329.99    9.30
   8   3   8  322.82    9.91
  -8  -3  -8  328.13    8.10
  -8  -3  -8  320.11    9.80
  -8  -3  -8  326.90    9.70
  -8  -3  -8  327.62    8.77
  -8  -3  -9  212.72    6.39
  -8  -3  -9  209.85    6.39
  -8  -3  -9  204.13    7.34
  -8  -3  -9  222.75    7.37
  -8  -3  -9  220.05    6.53
  -8  -3 -10  317.81    6.80
  -8  -3 -10  300.17    7.69
  -8  -3 -10  309.69    8.76
  -8  -3 -10  330.28    8.69
  -8  -3 -11   44.00    2.49
  -8  -3 -11   44.26    2.37
  -8  -4   3  147.65    5.05
  -8  -4   3  138.24    4.61
  -8  -4   2   91.88    4.45
  -8  -4   2   85.92    4.05
  -8  -4   1  512.47   10.36
  -8  -4   1  505.22   13.11
  -8  -4   1  504.98   12.61
  -8  -4   0   77.74    3.42
   8   4   0   71.17    3.35
   8   4   0   80.11    3.64
  -8  -4   0   85.21    4.65
  -8  -4   0   83.73    4.42
  -8  -4   0   85.19    3.46
   8   4   0   81.68    5.82
   8   4   1   20.53    3.80
  -8  -4  -1   15.37    1.75
  -8  -4  -1   15.85    1.70
  -8  -4  -1   15.61    1.81
   8   4   1   16.86    1.86
  -8  -4  -1   16.52    2.15
  -8  -4  -1   19.23    1.88
  -8  -4  -1   18.28    2.11
   8   4   2   17.00    3.72
  -8  -4  -2   17.18    2.13
  -8  -4  -2   17.47    1.59
  -8  -4  -2   17.16    2.08
  -8  -4  -2   17.64    2.08
  -8  -4  -2   20.65    2.00
   8   4   2   17.79    2.02
  -8  -4  -2   16.85    2.04
  -8  -4  -2   16.25    1.92
  -8  -4  -2   21.24    2.27
  -8  -4  -2   16.23    1.90
  -8  -4  -3  168.50    6.65
  -8  -4  -3  225.87    7.97
  -8  -4  -3  231.97    6.61
  -8  -4  -3  216.90    6.09
  -8  -4  -3  208.82    7.57
   8   4   3  215.14    7.10
  -8  -4  -3  226.07    7.66
  -8  -4  -3  214.26    6.85
  -8  -4  -3  212.69    7.30
   8   4   3  201.04   10.37
   8   4   4   34.66    4.62
  -8  -4  -4   38.44    3.17
  -8  -4  -4   37.37    3.28
  -8  -4  -4   36.94    2.85
  -8  -4  -4   40.64    2.56
  -8  -4  -4   41.97    3.34
  -8  -4  -4   38.37    2.89
   8   4   4   36.33    2.89
  -8  -4  -4   37.19    3.06
  -8  -4  -4   38.07    2.87
  -8  -4  -4   42.61    2.74
  -8  -4  -4   32.74    2.75
  -8  -4  -5  795.40   17.53
  -8  -4  -5  785.82   18.41
  -8  -4  -5  758.57   17.06
  -8  -4  -5  852.15   16.73
  -8  -4  -5  796.16   18.29
  -8  -4  -5  698.86   16.83
   8   4   5  769.20   17.44
  -8  -4  -5  805.40   16.99
  -8  -4  -5  789.30   17.92
  -8  -4  -5  789.61   15.94
  -8  -4  -5  812.69   17.51
  -8  -4  -6  328.62    9.52
   8   4   6  308.11    9.06
  -8  -4  -6  343.33    9.91
  -8  -4  -6  346.76   10.22
  -8  -4  -6  342.25    9.32
  -8  -4  -6  341.50   10.40
  -8  -4  -6  323.12    9.77
   8   4   6  330.54    9.99
  -8  -4  -6  341.86    9.33
  -8  -4  -6  350.87    9.80
  -8  -4  -6  340.82    9.80
  -8  -4  -7   22.30    2.33
   8   4   7   20.70    1.95
  -8  -4  -7   25.02    2.64
  -8  -4  -7   20.57    2.29
  -8  -4  -7   26.62    2.70
  -8  -4  -7   23.97    2.45
  -8  -4  -7   21.77    2.19
   8   4   7   24.87    2.56
  -8  -4  -7   21.83    2.07
  -8  -4  -7   21.80    2.22
  -8  -4  -7   22.14    2.30
  -8  -4  -8  311.99    9.52
  -8  -4  -8  339.47    9.87
  -8  -4  -8  330.50    9.82
   8   4   8  339.31   10.23
  -8  -4  -8  346.32    8.66
  -8  -4  -8  325.12   10.01
  -8  -4  -8  343.54    9.85
  -8  -4  -9  196.56    6.60
  -8  -4  -9  199.93    7.39
  -8  -4  -9  194.82    6.91
  -8  -4 -10  318.94    7.89
  -8  -4 -10  304.84    9.07
  -8  -4 -10  303.93    8.55
  -8  -4 -11   92.96    3.99
  -8  -4 -11   88.58    3.58
  -8  -5   3   72.71    3.02
  -8  -5   3   73.42    3.01
  -8  -5   2  115.90    4.77
  -8  -5   2  107.09    4.46
  -8  -5   1  944.54   17.43
  -8  -5   1  915.47   20.04
  -8  -5   1  909.15   19.31
  -8  -5   0  323.05    7.87
  -8  -5   0  328.52    8.56
  -8  -5   0  331.39   10.27
  -8  -5   0  345.16    9.83
   8   5   1   35.62    4.84
  -8  -5  -1   36.18    2.56
  -8  -5  -1   39.27    2.60
  -8  -5  -1   40.38    2.48
  -8  -5  -1   39.72    2.78
   8   5   1   35.99    2.73
  -8  -5  -1   37.82    3.17
  -8  -5  -1   39.30    3.01
  -8  -5  -1   37.44    2.36
  -8  -5  -2  376.96   10.16
  -8  -5  -2  406.92    9.71
  -8  -5  -2  385.48    9.84
  -8  -5  -2  380.09   10.22
  -8  -5  -2  377.21   11.04
  -8  -5  -2  388.04   10.30
  -8  -5  -2  389.83   10.51
  -8  -5  -2  397.82   10.73
   8   5   2  352.26   14.96
  -8  -5  -3 2188.76   39.43
  -8  -5  -3 2194.89   37.83
  -8  -5  -3 2253.07   38.41
  -8  -5  -3 2192.37   39.40
  -8  -5  -3 2206.27   39.36
   8   5   3 2116.33   38.11
  -8  -5  -3 2145.88   40.05
  -8  -5  -3 2257.16   40.49
  -8  -5  -3 2296.51   39.95
  -8  -5  -3 2236.85   38.91
  -8  -5  -3 2198.23   39.61
   8   5   3 2142.47   47.34
  -8  -5  -4 1128.43   22.97
  -8  -5  -4 1081.43   21.81
  -8  -5  -4 1100.89   21.81
  -8  -5  -4 1172.14   23.42
  -8  -5  -4 1177.37   22.95
  -8  -5  -4 1162.83   23.90
   8   5   4 1078.00   21.98
  -8  -5  -4 1166.76   23.21
  -8  -5  -4 1132.90   23.30
  -8  -5  -4 1114.92   21.43
  -8  -5  -4 1129.37   22.69
   8   5   4 1051.70   28.30
  -8  -5  -5  152.50    6.17
  -8  -5  -5  168.73    6.25
  -8  -5  -5  159.34    5.87
  -8  -5  -5  153.15    6.46
  -8  -5  -5  177.05    6.49
   8   5   5  147.68    5.87
  -8  -5  -5  157.10    6.67
  -8  -5  -5  166.64    6.38
  -8  -5  -5  143.65    6.15
  -8  -5  -5  154.07    4.92
  -8  -5  -5  147.69    5.88
   8   5   5  156.09    8.81
  -8  -5  -6  953.06   19.87
  -8  -5  -6  952.50   17.66
  -8  -5  -6  898.45   19.71
  -8  -5  -6  925.51   19.58
  -8  -5  -6  966.48   20.73
  -8  -5  -6  947.85   20.03
   8   5   6  899.07   19.72
  -8  -5  -6  933.16   19.77
  -8  -5  -6  946.39   20.49
  -8  -5  -6  980.50   20.04
  -8  -5  -6  934.40   19.61
  -8  -5  -7   21.23    2.25
  -8  -5  -7   27.30    2.77
  -8  -5  -7   26.87    2.63
  -8  -5  -7   25.49    2.66
  -8  -5  -7   28.30    2.64
   8   5   7   20.88    2.35
  -8  -5  -7   22.88    2.36
  -8  -5  -7   23.49    2.16
  -8  -5  -7   24.54    2.32
  -8  -5  -7   24.05    2.24
  -8  -5  -7   23.77    2.27
  -8  -5  -8  681.46   14.70
  -8  -5  -8  684.69   14.62
  -8  -5  -8  686.78   15.76
  -8  -5  -8  674.04   16.09
  -8  -5  -8  688.35   16.18
  -8  -5  -8  676.91   15.75
   8   5   8  668.02   15.92
  -8  -5  -8  678.51   13.85
  -8  -5  -8  674.45   15.94
  -8  -5  -8  718.54   15.67
  -8  -5  -9  228.42    7.39
  -8  -5  -9  218.05    7.84
  -8  -5  -9  222.71    7.53
  -8  -5  -9  231.27    7.42
  -8  -5  -9  228.97    8.06
  -8  -5  -9  233.30    7.39
  -8  -5 -10   24.05    2.12
  -8  -5 -10   21.72    2.25
  -8  -5 -10   21.93    1.96
  -8  -5 -11  170.42    4.84
  -8  -5 -11  180.29    6.05
  -8  -5 -11  175.00    5.15
  -8  -6   2   35.12    1.48
  -8  -6   2   38.90    2.28
  -8  -6   2   35.77    2.29
  -8  -6   1  315.53    7.50
  -8  -6   1  322.64    7.82
  -8  -6   1  318.38    9.12
  -8  -6   1  334.96    9.01
  -8  -6   0  490.07   11.04
  -8  -6   0  486.80   11.45
  -8  -6   0  485.69   12.87
  -8  -6   0  473.79   12.17
   8   6   1   28.35    4.60
  -8  -6  -1   31.57    2.20
  -8  -6  -1   33.40    2.48
  -8  -6  -1   31.24    2.57
   8   6   1   33.36    2.54
  -8  -6  -1   34.35    3.03
  -8  -6  -1   35.78    2.81
   8   6   2   24.69    4.48
  -8  -6  -2   25.77    2.31
  -8  -6  -2   24.20    2.22
  -8  -6  -2   26.00    2.47
  -8  -6  -2   25.20    2.27
   8   6   2   23.26    2.36
  -8  -6  -2   20.43    2.40
  -8  -6  -2   25.91    2.35
  -8  -6  -2   27.98    2.26
  -8  -6  -2   26.95    2.49
  -8  -6  -3  950.91   20.00
  -8  -6  -3  948.23   18.41
  -8  -6  -3  983.27   20.63
  -8  -6  -3  948.67   19.75
  -8  -6  -3  952.51   19.11
  -8  -6  -3  940.98   20.25
   8   6   3  988.47   21.37
  -8  -6  -3  984.26   21.04
  -8  -6  -3  969.76   19.45
  -8  -6  -3  999.40   20.24
  -8  -6  -3  985.03   20.21
   8   6   3  969.44   26.53
  -8  -6  -4  790.75   17.68
  -8  -6  -4  799.03   16.78
  -8  -6  -4  808.72   17.47
  -8  -6  -4  798.26   17.43
  -8  -6  -4  813.65   17.91
  -8  -6  -4  812.90   18.24
  -8  -6  -4  822.44   18.05
  -8  -6  -4  832.47   16.41
  -8  -6  -4  814.11   17.39
  -8  -6  -4  804.05   18.42
   8   6   4  802.58   22.91
   8   6   5   38.68    4.50
  -8  -6  -5   36.31    3.00
  -8  -6  -5   38.33    2.71
  -8  -6  -5   33.55    2.77
  -8  -6  -5   39.83    3.00
  -8  -6  -5   41.68    3.18
  -8  -6  -5   35.56    2.92
  -8  -6  -5   38.87    3.06
  -8  -6  -5   35.38    2.91
  -8  -6  -5   37.66    2.71
  -8  -6  -5   36.91    3.13
  -8  -6  -6  158.00    6.24
  -8  -6  -6  158.04    5.45
  -8  -6  -6  152.81    6.19
  -8  -6  -6  149.66    4.92
  -8  -6  -6  163.16    6.37
  -8  -6  -6  163.86    6.64
  -8  -6  -6  162.41    6.31
  -8  -6  -6  157.10    6.33
  -8  -6  -6  159.81    6.19
  -8  -6  -6  164.40    5.82
  -8  -6  -6  160.88    6.55
   8   6   6  170.04    7.85
  -8  -6  -7   26.18    2.52
  -8  -6  -7   27.10    2.12
  -8  -6  -7   27.53    2.76
  -8  -6  -7   28.45    2.05
  -8  -6  -7   27.53    2.52
  -8  -6  -7   31.69    2.83
  -8  -6  -7   33.67    2.96
  -8  -6  -7   29.78    2.66
  -8  -6  -7   29.05    2.71
  -8  -6  -7   31.12    2.43
  -8  -6  -7   28.55    2.39
  -8  -6  -7   30.05    2.36
  -8  -6  -8  851.16   17.48
  -8  -6  -8  814.10   16.03
  -8  -6  -8  875.37   18.66
  -8  -6  -8  801.50   16.26
   8   6   8  790.39   18.15
  -8  -6  -8  845.39   18.74
  -8  -6  -8  858.15   18.95
  -8  -6  -8  864.50   18.25
   8   6   8  819.45   17.29
  -8  -6  -8  847.70   17.39
  -8  -6  -8  874.29   18.53
  -8  -6  -8  871.10   16.78
  -8  -6  -8  883.80   17.59
  -8  -6  -9  493.80   10.89
  -8  -6  -9  519.45   12.44
  -8  -6  -9  467.66   10.52
  -8  -6  -9  483.12   12.79
  -8  -6  -9  514.93   12.83
  -8  -6  -9  498.50   11.91
  -8  -6  -9  509.92   13.09
  -8  -6  -9  490.80   11.45
  -8  -6 -10    1.88    1.13
  -8  -6 -10    1.76    0.97
  -8  -6 -10    2.98    1.13
  -8  -6 -10    2.34    0.79
  -8  -6 -11   14.78    1.49
  -8  -6 -11   14.46    1.71
  -8  -7   1   46.92    2.31
  -8  -7   1   42.87    2.29
  -8  -7   1   44.66    2.38
  -8  -7   1   46.54    2.71
  -8  -7   0  237.17    6.88
  -8  -7   0  230.60    6.98
  -8  -7   0  227.63    7.15
  -8  -7   0  242.83    7.41
  -8  -7  -1  196.35    5.54
  -8  -7  -1  207.47    6.78
  -8  -7  -1  195.71    6.82
  -8  -7  -1  204.80    7.15
  -8  -7  -1  206.52    6.89
  -8  -7  -1  205.15    6.70
  -8  -7  -2   89.14    3.98
  -8  -7  -2   94.26    4.57
  -8  -7  -2   93.20    4.66
  -8  -7  -2   94.78    4.80
  -8  -7  -2   92.07    4.31
  -8  -7  -2   99.74    4.46
  -8  -7  -3  260.31    8.05
  -8  -7  -3  275.19    6.96
  -8  -7  -3  275.36    8.42
  -8  -7  -3  269.88    8.53
  -8  -7  -3  264.36    8.58
   8   7   3  271.24    8.92
  -8  -7  -3  261.69    8.66
  -8  -7  -3  269.95    7.69
  -8  -7  -3  276.33    8.06
  -8  -7  -3  270.16    7.90
   8   7   3  257.11   11.76
  -8  -7  -4  741.37   16.81
  -8  -7  -4  732.99   15.61
  -8  -7  -4  745.76   16.98
  -8  -7  -4  725.40   15.60
  -8  -7  -4  732.38   16.92
   8   7   4  770.44   18.18
  -8  -7  -4  745.95   17.06
  -8  -7  -4  778.13   17.28
  -8  -7  -4  777.12   16.78
  -8  -7  -4  755.07   15.70
   8   7   4  722.96   21.01
  -8  -7  -5   59.01    3.82
  -8  -7  -5   60.14    3.63
  -8  -7  -5   59.97    3.61
  -8  -7  -5   58.41    3.75
  -8  -7  -5   59.81    3.60
  -8  -7  -5   61.27    3.78
  -8  -7  -5   60.58    3.81
   8   7   5   56.19    4.35
  -8  -7  -5   65.48    4.04
  -8  -7  -5   62.45    3.76
  -8  -7  -5   59.09    3.10
   8   7   5   62.52    5.31
  -8  -7  -6  357.24   10.22
  -8  -7  -6  357.70    9.68
  -8  -7  -6  349.35   10.09
  -8  -7  -6  351.09    9.15
  -8  -7  -6  345.91   10.22
  -8  -7  -6  362.72   10.41
  -8  -7  -6  364.98   10.18
  -8  -7  -6  379.72   10.52
   8   7   6  318.68   11.51
  -8  -7  -6  350.58   10.42
  -8  -7  -6  356.46   10.07
  -8  -7  -6  348.44    8.79
   8   7   6  352.53   11.92
  -8  -7  -7  436.76   11.57
  -8  -7  -7  452.89   11.58
  -8  -7  -7  445.77   10.93
  -8  -7  -7  434.59   11.79
  -8  -7  -7  451.13   10.73
  -8  -7  -7  427.19   11.77
  -8  -7  -7  430.91   11.94
  -8  -7  -7  448.03   11.48
  -8  -7  -7  446.83   11.85
  -8  -7  -7  410.49   10.40
  -8  -7  -7  442.37   11.13
  -8  -7  -7  431.34   10.02
  -8  -7  -8  337.27    9.11
  -8  -7  -8  307.98    8.45
  -8  -7  -8  330.76    9.73
  -8  -7  -8  318.73    8.62
  -8  -7  -8  327.63    9.81
  -8  -7  -8  326.90    9.92
  -8  -7  -8  323.83    9.05
  -8  -7  -8  312.37    9.15
  -8  -7  -9  842.12   16.64
  -8  -7  -9  804.86   16.18
  -8  -7  -9  878.43   18.24
  -8  -7  -9  826.38   16.95
  -8  -7  -9  876.28   18.68
  -8  -7  -9  896.58   18.75
  -8  -7  -9  821.31   16.88
  -8  -7  -9  824.83   18.32
  -8  -7 -10   38.43    2.71
  -8  -7 -10   36.03    2.31
  -8  -7 -10   42.96    3.12
  -8  -7 -10   39.28    2.88
  -8  -7 -10   43.60    3.12
  -8  -7 -11    8.59    1.29
  -8  -7 -11   10.81    1.50
  -8  -8   0    2.59    0.85
  -8  -8   0    3.73    0.92
  -8  -8   0    2.60    0.78
  -8  -8  -1  196.41    6.48
  -8  -8  -1  199.73    6.58
  -8  -8  -1  184.66    5.68
  -8  -8  -1  192.36    6.08
  -8  -8  -2  247.22    6.79
  -8  -8  -2  254.71    8.02
  -8  -8  -2  257.06    8.05
  -8  -8  -2  247.19    7.42
  -8  -8  -2  244.40    7.07
  -8  -8  -3  135.65    5.29
  -8  -8  -3  146.93    5.96
  -8  -8  -3  147.58    5.99
  -8  -8  -3  145.09    5.60
  -8  -8  -3  137.51    4.75
  -8  -8  -4  113.51    5.07
  -8  -8  -4  108.95    4.31
  -8  -8  -4  108.18    5.18
  -8  -8  -4  107.04    5.13
  -8  -8  -4  109.93    4.90
  -8  -8  -5    7.55    1.47
   8   8   5    3.93    2.17
  -8  -8  -5    9.71    1.85
  -8  -8  -5    8.97    1.83
  -8  -8  -5    9.45    1.64
  -8  -8  -5    7.61    1.60
  -8  -8  -5    8.70    1.38
  -8  -8  -5    7.96    1.55
   8   8   5    9.87    2.03
  -8  -8  -5    9.63    1.55
  -8  -8  -6  327.40    9.78
  -8  -8  -6  333.84    9.59
  -8  -8  -6  325.14    9.52
  -8  -8  -6  320.89    9.08
  -8  -8  -6  339.51    9.88
  -8  -8  -6  327.94    9.31
  -8  -8  -6  328.60    9.40
  -8  -8  -6  335.47    9.58
  -8  -8  -6  308.70    9.11
  -8  -8  -7  318.56    9.31
  -8  -8  -7  317.97    9.13
  -8  -8  -7  310.77    9.38
  -8  -8  -7  313.48    8.88
  -8  -8  -7  313.92    9.49
  -8  -8  -7  296.67    9.23
  -8  -8  -7  315.94    8.86
  -8  -8  -7  294.56    7.94
  -8  -8  -8   20.61    2.17
  -8  -8  -8   24.00    2.38
  -8  -8  -8   21.07    2.40
  -8  -8  -8   18.32    2.08
  -8  -8  -8   25.17    2.54
  -8  -8  -8   23.58    2.43
  -8  -8  -8   20.19    1.93
  -8  -8  -8   21.02    2.11
  -8  -8  -9   25.38    2.05
  -8  -8  -9   29.49    2.32
  -8  -8  -9   25.43    2.41
  -8  -8  -9   27.91    2.37
  -8  -8  -9   27.77    2.54
  -8  -8  -9   27.19    2.55
  -8  -8  -9   25.89    1.85
  -8  -8  -9   27.02    2.42
  -8  -8 -10  239.20    6.41
  -8  -8 -10  262.42    7.38
  -8  -8 -10  250.48    7.19
  -8  -8 -10  270.98    7.81
  -8  -8 -10  274.27    7.94
  -8  -8 -10  262.41    7.86
  -8  -8 -11    4.26    0.87
  -8  -8 -11    5.06    0.92
  -8  -8 -11    4.69    1.09
  -8  -9  -1  225.22    6.46
  -8  -9  -1  218.23    6.37
  -8  -9  -2  388.62    8.33
  -8  -9  -2  405.02   10.29
  -8  -9  -2  406.54   10.22
  -8  -9  -3  222.37    6.55
  -8  -9  -3  231.31    7.53
  -8  -9  -3  231.27    7.39
  -8  -9  -3  219.87    5.97
  -8  -9  -4   88.32    4.25
  -8  -9  -4   94.71    3.62
  -8  -9  -4   96.82    4.71
  -8  -9  -4   90.89    4.43
  -8  -9  -4   88.40    3.74
  -8  -9  -5    5.73    1.57
  -8  -9  -5    4.12    1.46
  -8  -9  -5    4.39    1.23
  -8  -9  -5    5.12    1.38
  -8  -9  -5    4.54    1.25
  -8  -9  -5    4.36    1.06
  -8  -9  -6  169.26    6.40
  -8  -9  -6  170.44    6.38
  -8  -9  -6  154.33    6.02
  -8  -9  -6  169.52    6.40
  -8  -9  -6  157.25    5.26
  -8  -9  -6  162.67    5.79
  -8  -9  -7  937.46   19.36
  -8  -9  -7  928.19   19.29
  -8  -9  -7  922.48   19.29
  -8  -9  -7  895.26   18.86
  -8  -9  -7  956.14   19.48
  -8  -9  -7  868.79   18.38
  -8  -9  -7  899.45   17.92
  -8  -9  -8   51.08    3.16
  -8  -9  -8   52.23    3.31
  -8  -9  -8   55.17    3.48
  -8  -9  -8   45.51    3.10
  -8  -9  -8   50.19    3.24
  -8  -9  -8   46.44    3.17
  -8  -9  -8   50.18    2.54
  -8  -9  -9   29.02    2.12
  -8  -9  -9   27.12    2.25
  -8  -9  -9   26.33    2.36
  -8  -9  -9   33.19    2.57
  -8  -9  -9   29.06    2.35
  -8  -9  -9   31.99    2.54
  -8  -9  -9   27.43    2.24
  -8  -9 -10  224.27    6.15
  -8  -9 -10  235.86    6.60
  -8  -9 -10  218.85    6.57
  -8  -9 -10  229.02    6.44
  -8  -9 -10  219.66    6.59
  -8  -9 -11  185.10    4.72
  -8  -9 -11  174.79    4.98
  -8  -9 -11  190.03    5.40
  -8 -10  -3   26.08    1.64
  -8 -10  -3   28.35    2.14
  -8 -10  -3   25.89    2.01
  -8 -10  -4  167.37    5.38
  -8 -10  -4  172.61    5.82
  -8 -10  -4  158.46    5.38
  -8 -10  -5   46.87    2.97
  -8 -10  -5   45.62    2.49
  -8 -10  -5   50.28    3.02
  -8 -10  -5   44.29    2.59
  -8 -10  -6   62.46    3.56
  -8 -10  -6   64.75    3.56
  -8 -10  -6   62.81    3.33
  -8 -10  -6   66.59    3.45
  -8 -10  -6   63.21    2.92
  -8 -10  -7  530.58   12.40
  -8 -10  -7  520.21   12.41
  -8 -10  -7  518.92   12.24
  -8 -10  -7  543.80   12.14
  -8 -10  -8  245.62    7.02
  -8 -10  -8  244.52    7.31
  -8 -10  -8  241.27    7.26
  -8 -10  -8  236.70    7.14
  -8 -10  -8  247.48    6.85
  -8 -10  -9    1.94    0.73
  -8 -10  -9    2.64    1.02
  -8 -10  -9    2.24    1.00
  -8 -10  -9    3.43    1.08
  -8 -10  -9    2.09    0.77
  -8 -10 -10  134.37    4.26
  -8 -10 -10  141.37    4.38
  -8 -10 -10  128.41    4.44
  -8 -11  -6   66.83    3.10
  -8 -11  -6   67.55    2.71
  -8 -11  -6   66.73    2.69
  -8 -11  -7  117.55    4.23
  -8 -11  -7  113.23    4.01
  -8 -11  -7  116.11    3.55
  -9   1   0    7.17    1.10
  -9   1  -1  394.06    9.39
  -9   1  -1  370.74    8.33
  -9   1  -1  375.74    8.51
  -9   1  -2   83.10    3.75
  -9   1  -2   79.02    3.33
  -9   1  -2   83.49    3.46
  -9   1  -3   82.48    3.65
  -9   1  -3   73.31    3.22
  -9   1  -3   73.79    3.29
  -9   1  -4  346.97    8.31
  -9   1  -4  336.13    7.97
  -9   1  -4  348.62    8.73
  -9   1  -4  336.54    8.06
  -9   1  -5  114.60    3.59
  -9   1  -5  119.67    3.76
  -9   1  -5  114.39    4.24
  -9   0   1  205.58    5.42
  -9   0   0  144.84    5.07
  -9   0   0  142.46    3.84
  -9   0   0  132.92    3.86
  -9   0  -1  211.14    6.86
  -9   0  -1  216.66    6.13
  -9   0  -1  205.61    5.43
  -9   0  -1  208.95    6.18
  -9   0  -2  484.07   11.92
  -9   0  -2  470.44   11.11
  -9   0  -2  457.84    9.96
  -9   0  -2  455.06   11.16
  -9   0  -3   60.36    3.61
  -9   0  -3   58.22    3.32
  -9   0  -3   56.84    2.76
  -9   0  -3   62.57    3.47
  -9   0  -4   21.39    2.11
  -9   0  -4   19.13    1.84
  -9   0  -4   20.00    1.65
  -9   0  -4   19.52    1.91
  -9   0  -5   35.60    2.46
  -9   0  -5   33.85    2.10
  -9   0  -5   34.40    2.26
  -9   0  -5   34.06    2.14
  -9   0  -5   36.55    2.58
  -9   0  -5   36.72    2.37
  -9   0  -6   53.79    2.59
  -9   0  -6   49.94    2.48
  -9   0  -6   52.19    2.40
  -9   0  -6   53.71    2.96
  -9   0  -7  249.53    6.09
  -9   0  -7  272.58    6.95
  -9  -1   2  113.13    2.71
  -9  -1   2  111.44    3.06
  -9  -1   1  270.16    5.82
  -9  -1   1  262.59    6.46
  -9  -1   0   43.32    2.17
  -9  -1   0   50.13    2.92
  -9  -1   0   50.00    2.09
  -9  -1   0   50.82    2.63
  -9  -1  -1    4.49    1.00
  -9  -1  -1    2.82    1.10
  -9  -1  -1    3.40    0.90
  -9  -1  -1    2.48    0.88
  -9  -1  -2  498.30   13.14
  -9  -1  -2  538.16   12.66
  -9  -1  -2  518.68   11.95
  -9  -1  -2  536.00   12.86
  -9  -1  -3  245.00    8.24
  -9  -1  -3  235.82    7.77
  -9  -1  -3  235.42    7.11
  -9  -1  -3  218.26    7.68
  -9  -1  -4   10.57    1.79
  -9  -1  -4   13.86    1.82
  -9  -1  -4    9.47    1.41
  -9  -1  -4   11.89    1.70
  -9  -1  -5  105.33    4.85
  -9  -1  -5   93.07    4.41
  -9  -1  -5   98.89    4.35
  -9  -1  -5  106.31    4.64
  -9  -1  -5   93.31    4.48
  -9  -1  -6    4.35    0.94
  -9  -1  -6    7.90    1.37
  -9  -1  -6    5.95    1.20
  -9  -1  -6    5.25    1.16
  -9  -1  -7  674.26   13.14
  -9  -1  -7  720.99   14.13
  -9  -1  -7  707.05   14.74
  -9  -1  -7  717.89   14.78
  -9  -1  -8   99.70    2.79
  -9  -1  -8  107.54    3.94
  -9  -1  -8  105.01    3.84
  -9  -2   2    4.47    0.77
  -9  -2   2    3.20    0.72
  -9  -2   2    5.09    0.81
  -9  -2   1  168.82    5.08
  -9  -2   1  167.31    5.54
  -9  -2   1  170.99    5.36
  -9  -2   0  197.45    6.08
  -9  -2   0  193.17    5.09
  -9  -2   0  195.46    5.84
  -9  -2   0  201.85    6.62
  -9  -2   0  202.95    6.39
  -9  -2  -1   75.85    3.63
  -9  -2  -1   78.59    4.17
  -9  -2  -1   81.12    3.48
  -9  -2  -1   79.03    4.10
  -9  -2  -1   74.66    3.82
  -9  -2  -2  414.30   11.73
  -9  -2  -2  409.87    8.92
  -9  -2  -2  409.78    9.57
  -9  -2  -2  428.23   10.93
  -9  -2  -2  440.02   11.21
  -9  -2  -3  254.55    8.78
  -9  -2  -3  240.58    6.67
  -9  -2  -3  247.88    6.49
  -9  -2  -3  244.75    8.27
  -9  -2  -3  226.79    7.54
  -9  -2  -3  229.18    8.24
  -9  -2  -4    9.94    1.89
  -9  -2  -4    6.71    1.24
  -9  -2  -4    9.04    1.10
  -9  -2  -4    8.13    1.46
  -9  -2  -4    7.84    1.57
  -9  -2  -4    9.29    1.72
  -9  -2  -5  161.51    6.59
  -9  -2  -5  150.16    5.63
  -9  -2  -5  162.92    6.15
  -9  -2  -5  160.38    6.41
  -9  -2  -5  160.32    6.49
  -9  -2  -6   13.20    1.85
  -9  -2  -6   13.72    1.83
  -9  -2  -6   15.11    1.79
  -9  -2  -6   16.10    1.75
  -9  -2  -7   85.14    3.60
  -9  -2  -7   85.33    4.07
  -9  -2  -7   86.05    4.23
  -9  -2  -7   84.82    3.83
  -9  -2  -8  327.79    8.06
  -9  -2  -8  316.32    7.72
  -9  -2  -8  331.68    8.88
  -9  -2  -8  335.44    8.21
  -9  -2  -9   19.84    1.48
  -9  -2  -9   21.15    1.79
  -9  -2  -9   18.90    1.42
  -9  -3   2    3.11    0.74
  -9  -3   2    2.69    0.72
  -9  -3   2    2.48    0.72
  -9  -3   1   12.00    1.45
  -9  -3   1   11.99    1.47
  -9  -3   1   10.58    1.40
  -9  -3   0  395.84   10.05
  -9  -3   0  384.38   10.17
  -9  -3   0  413.64   10.47
  -9  -3  -1  398.63   10.44
  -9  -3  -1  415.08    9.96
  -9  -3  -1  418.46   10.50
  -9  -3  -1  413.96   10.92
  -9  -3  -1  406.84   10.83
  -9  -3  -2   82.12    4.27
  -9  -3  -2   89.24    4.79
  -9  -3  -2   83.01    3.52
  -9  -3  -2   87.60    4.10
  -9  -3  -2   85.80    4.39
  -9  -3  -2   84.11    4.41
  -9  -3  -3   47.00    3.46
  -9  -3  -3   44.77    3.59
  -9  -3  -3   41.19    2.67
   9   3   3   40.71    2.92
  -9  -3  -3   44.93    3.15
  -9  -3  -3   40.67    2.72
  -9  -3  -3   40.09    2.90
  -9  -3  -3   45.58    3.26
  -9  -3  -4  107.64    5.62
  -9  -3  -4  107.11    4.65
   9   3   4  109.57    4.96
  -9  -3  -4   98.40    5.07
  -9  -3  -4  105.46    4.33
  -9  -3  -4  115.30    5.25
  -9  -3  -4  112.02    5.68
  -9  -3  -5  511.32   13.73
  -9  -3  -5  514.43   12.47
   9   3   5  485.32   12.45
  -9  -3  -5  525.44   11.46
  -9  -3  -5  475.10   12.64
  -9  -3  -5  508.12   12.84
  -9  -3  -5  511.32   13.54
  -9  -3  -6  260.52    8.44
  -9  -3  -6  280.67    9.12
  -9  -3  -6  272.28    8.36
  -9  -3  -6  279.19    8.65
  -9  -3  -6  275.31    7.42
  -9  -3  -7    5.81    1.35
  -9  -3  -7    4.95    1.40
  -9  -3  -7    4.80    1.05
  -9  -3  -7    6.33    1.42
  -9  -3  -7    5.82    1.03
  -9  -3  -8  244.71    7.31
  -9  -3  -8  237.21    6.16
  -9  -3  -8  221.67    6.50
  -9  -3  -8  240.30    7.64
  -9  -3  -9   78.03    3.26
  -9  -3  -9   75.79    3.34
  -9  -3  -9   77.77    3.75
  -9  -3 -10  105.21    3.65
  -9  -3 -10  114.75    4.07
  -9  -4   2   34.97    2.08
  -9  -4   2   31.79    1.92
  -9  -4   2   33.50    2.00
  -9  -4   1   10.33    1.41
  -9  -4   1   10.02    1.30
  -9  -4   1   10.33    1.40
  -9  -4   0  295.49    8.63
  -9  -4   0  296.59    8.52
  -9  -4   0  307.64    8.74
  -9  -4  -1  483.27   10.85
  -9  -4  -1  489.82   10.57
  -9  -4  -1  494.46   12.29
  -9  -4  -1  518.06   12.43
  -9  -4  -1  486.15   11.00
  -9  -4  -1  507.27   12.56
  -9  -4  -2  393.21   10.60
  -9  -4  -2  383.78    9.56
  -9  -4  -2  407.45   10.55
  -9  -4  -2  392.70   10.68
  -9  -4  -2  394.17   10.64
  -9  -4  -2  400.65   10.99
  -9  -4  -3  248.40    8.41
  -9  -4  -3  245.00    8.54
  -9  -4  -3  247.07    7.48
   9   4   3  239.45    7.20
  -9  -4  -3  248.25    7.92
  -9  -4  -3  242.75    7.84
  -9  -4  -3  247.76    7.81
  -9  -4  -3  264.47    8.44
   9   4   3  228.69    8.83
  -9  -4  -4   93.76    5.11
  -9  -4  -4   91.65    3.55
  -9  -4  -4  102.50    5.38
  -9  -4  -4   93.78    4.49
   9   4   4   84.07    4.21
  -9  -4  -4   97.39    4.54
  -9  -4  -4   96.62    4.93
  -9  -4  -4   95.75    4.37
  -9  -4  -4   92.90    4.72
  -9  -4  -5  899.30   20.12
  -9  -4  -5  849.09   17.09
  -9  -4  -5  875.45   20.09
  -9  -4  -5  889.35   18.78
   9   4   5  861.81   18.50
  -9  -4  -5  895.22   18.34
  -9  -4  -5  882.17   19.36
  -9  -4  -5  900.85   19.27
  -9  -4  -6 2028.42   36.11
  -9  -4  -6 2107.38   38.51
  -9  -4  -6 2152.71   39.15
  -9  -4  -6 2040.45   37.75
   9   4   6 2008.05   37.19
  -9  -4  -6 2111.22   36.76
  -9  -4  -6 2127.03   37.55
  -9  -4  -6 2119.77   38.10
  -9  -4  -7   79.33    3.84
  -9  -4  -7   87.52    4.73
  -9  -4  -7   83.83    4.45
  -9  -4  -7   82.39    4.14
  -9  -4  -7   81.20    4.33
  -9  -4  -8   30.06    2.62
  -9  -4  -8   30.09    2.65
  -9  -4  -8   36.23    2.41
  -9  -4  -8   31.75    2.17
  -9  -4  -8   33.17    2.70
  -9  -4  -9  347.40    8.93
  -9  -4  -9  324.45    8.61
  -9  -4  -9  339.32    9.20
  -9  -4 -10  297.28    6.98
  -9  -4 -10  283.62    7.45
  -9  -4 -10  293.62    7.67
  -9  -5   1    9.26    1.30
  -9  -5   1    9.89    1.26
  -9  -5   1    9.40    1.29
  -9  -5   0  351.25    7.82
  -9  -5   0  366.97    9.87
  -9  -5   0  366.98    9.51
  -9  -5   0  366.22    9.68
  -9  -5  -1   88.02    3.66
  -9  -5  -1   87.41    3.37
  -9  -5  -1   80.80    4.39
  -9  -5  -1   83.27    4.15
  -9  -5  -1   89.88    4.44
  -9  -5  -2  107.40    3.71
  -9  -5  -2  101.77    4.13
  -9  -5  -2  104.00    4.41
  -9  -5  -2  110.14    5.21
  -9  -5  -2   99.74    4.66
  -9  -5  -2  108.41    5.05
  -9  -5  -2  110.18    4.57
  -9  -5  -3  317.62    9.40
  -9  -5  -3  327.25    8.11
  -9  -5  -3  332.42    9.52
  -9  -5  -3  338.91    9.33
  -9  -5  -3  342.48    9.97
  -9  -5  -3  343.12    9.23
  -9  -5  -3  336.83    9.33
  -9  -5  -3  343.35    9.94
  -9  -5  -3  330.03    9.83
  -9  -5  -4  163.95    6.46
  -9  -5  -4  157.51    5.34
  -9  -5  -4  167.77    6.72
  -9  -5  -4  162.30    6.13
   9   5   4  147.94    5.15
  -9  -5  -4  155.15    6.23
  -9  -5  -4  157.82    6.67
  -9  -5  -4  156.21    6.28
  -9  -5  -4  168.00    5.79
  -9  -5  -4  171.78    6.51
   9   5   4  142.45    7.62
  -9  -5  -5   51.34    3.61
  -9  -5  -5   45.31    3.15
  -9  -5  -5   52.89    3.05
  -9  -5  -5   48.05    3.66
  -9  -5  -5   50.74    3.42
   9   5   5   45.74    2.92
  -9  -5  -5   45.36    3.21
  -9  -5  -5   50.16    3.72
  -9  -5  -5   45.78    3.32
  -9  -5  -5   50.03    3.38
  -9  -5  -6  795.21   17.51
  -9  -5  -6  773.52   17.10
  -9  -5  -6  775.01   16.53
  -9  -5  -6  782.34   18.26
  -9  -5  -6  755.22   17.26
  -9  -5  -6  784.65   17.07
  -9  -5  -6  818.93   18.14
  -9  -5  -6  792.20   17.24
  -9  -5  -6  801.81   17.34
  -9  -5  -7   42.65    3.09
  -9  -5  -7   43.94    3.29
  -9  -5  -7   39.98    2.91
  -9  -5  -7   47.27    3.53
  -9  -5  -7   44.98    3.29
  -9  -5  -7   38.70    2.91
  -9  -5  -7   43.58    3.07
  -9  -5  -8    2.63    1.21
  -9  -5  -8    3.10    1.27
  -9  -5  -8    3.05    0.87
  -9  -5  -8    2.58    1.17
  -9  -5  -8    6.42    1.16
  -9  -5  -8    2.37    0.97
  -9  -5  -9   99.27    4.56
  -9  -5  -9   88.42    4.11
  -9  -5  -9  102.55    4.42
  -9  -5 -10  418.17    9.64
  -9  -5 -10  409.39    9.55
  -9  -5 -11  107.65    3.15
  -9  -5 -11  116.75    3.86
  -9  -5 -11  111.54    3.49
  -9  -6   1   85.19    3.36
  -9  -6   1   83.09    3.32
  -9  -6   1   86.91    3.33
  -9  -6   0  697.93   13.68
  -9  -6   0  742.34   15.69
  -9  -6   0  755.25   15.30
  -9  -6   0  747.83   15.30
  -9  -6  -1  156.05    4.63
  -9  -6  -1  155.95    5.24
  -9  -6  -1  171.52    6.42
  -9  -6  -1  161.34    5.76
  -9  -6  -1  168.83    6.00
  -9  -6  -2    6.00    1.23
  -9  -6  -2    7.43    1.15
  -9  -6  -2    7.57    1.33
  -9  -6  -2    7.61    1.61
  -9  -6  -2    5.69    1.21
  -9  -6  -2    8.03    1.21
  -9  -6  -2    4.80    1.17
  -9  -6  -3  213.31    6.99
  -9  -6  -3  219.81    6.52
  -9  -6  -3  205.34    6.25
  -9  -6  -3  223.96    7.20
  -9  -6  -3  221.38    7.71
  -9  -6  -3  217.46    6.77
  -9  -6  -3  223.22    7.38
  -9  -6  -4  632.86   15.06
  -9  -6  -4  649.70   15.51
  -9  -6  -4  651.69   13.68
  -9  -6  -4  659.08   14.35
  -9  -6  -4  623.43   14.70
  -9  -6  -4  666.10   15.16
  -9  -6  -4  665.78   15.60
  -9  -6  -4  633.25   13.73
  -9  -6  -4  657.84   15.03
  -9  -6  -5  128.65    5.62
  -9  -6  -5  125.39    5.12
  -9  -6  -5  123.36    5.10
  -9  -6  -5  117.54    5.53
  -9  -6  -5  133.49    5.61
  -9  -6  -5  124.39    5.57
  -9  -6  -5  113.79    5.25
  -9  -6  -5  127.51    5.31
  -9  -6  -5  128.05    5.80
  -9  -6  -6   89.71    4.76
  -9  -6  -6   82.76    4.49
  -9  -6  -6   83.77    4.37
  -9  -6  -6   84.17    4.27
  -9  -6  -6   83.70    4.73
  -9  -6  -6   88.53    4.61
  -9  -6  -6   83.50    4.46
  -9  -6  -6   83.10    4.33
  -9  -6  -6   85.01    4.22
  -9  -6  -7  356.68    9.94
  -9  -6  -7  354.74   10.02
  -9  -6  -7  359.76   10.05
  -9  -6  -7  341.06    9.85
  -9  -6  -7  363.17   10.71
  -9  -6  -7  361.02   10.24
  -9  -6  -7  357.01   10.09
  -9  -6  -7  359.69    9.63
  -9  -6  -8  101.56    4.46
  -9  -6  -8  102.45    4.85
  -9  -6  -8   99.84    4.80
  -9  -6  -8  109.72    5.19
  -9  -6  -8  101.27    4.72
  -9  -6  -8  101.10    4.29
  -9  -6  -8   99.11    3.93
  -9  -6  -8  106.76    4.51
  -9  -6  -9  459.14   11.30
  -9  -6  -9  463.33   11.64
  -9  -6  -9  487.27   11.89
  -9  -6  -9  465.37   11.19
  -9  -6  -9  432.07   10.75
  -9  -6  -9  461.31   10.74
  -9  -6 -10  303.15    8.25
  -9  -6 -10  311.42    7.55
  -9  -6 -11   33.00    1.90
  -9  -6 -11   30.68    1.97
  -9  -7   0  433.79    8.42
  -9  -7   0  440.90    9.16
  -9  -7   0  471.37   10.05
  -9  -7   0  459.93    9.95
  -9  -7   0  469.98    9.63
  -9  -7  -1  322.18    7.65
  -9  -7  -1  315.39    8.12
  -9  -7  -1  333.42    8.99
  -9  -7  -1  335.21    8.43
  -9  -7  -1  331.42    8.36
  -9  -7  -2   56.15    2.81
  -9  -7  -2   59.32    3.07
  -9  -7  -2   62.68    3.40
  -9  -7  -2   63.78    3.73
  -9  -7  -2   62.16    3.20
  -9  -7  -2   59.91    3.24
  -9  -7  -3   17.76    1.94
  -9  -7  -3   18.02    1.89
  -9  -7  -3   19.75    2.10
  -9  -7  -3   18.70    2.21
  -9  -7  -3   19.10    1.74
  -9  -7  -3   17.46    1.80
  -9  -7  -4  622.43   14.61
  -9  -7  -4  652.37   13.18
  -9  -7  -4  639.92   14.42
  -9  -7  -4  613.17   13.37
  -9  -7  -4  653.83   14.99
  -9  -7  -4  672.77   15.50
  -9  -7  -4  639.26   13.09
  -9  -7  -4  653.59   14.22
  -9  -7  -4  659.57   14.93
  -9  -7  -5  219.01    7.46
  -9  -7  -5  215.86    6.77
  -9  -7  -5  224.73    7.36
  -9  -7  -5  222.17    7.15
  -9  -7  -5  229.31    7.57
  -9  -7  -5  239.70    7.87
  -9  -7  -5  226.80    6.83
  -9  -7  -6    6.36    1.64
  -9  -7  -6    3.98    1.43
  -9  -7  -6    4.16    1.32
  -9  -7  -6    5.63    1.42
  -9  -7  -6    5.91    1.45
  -9  -7  -6    4.31    1.22
  -9  -7  -6    6.81    1.51
  -9  -7  -6    5.09    1.06
  -9  -7  -7   11.07    1.84
  -9  -7  -7   11.39    1.94
  -9  -7  -7   11.30    1.86
  -9  -7  -7   11.18    1.61
  -9  -7  -7   11.59    1.86
  -9  -7  -7    9.71    1.65
  -9  -7  -7   11.83    1.86
  -9  -7  -7   12.16    1.42
  -9  -7  -8  118.38    4.88
  -9  -7  -8  109.51    3.83
  -9  -7  -8  125.08    5.31
  -9  -7  -8  121.25    5.28
  -9  -7  -8  120.65    5.38
  -9  -7  -8  121.10    5.02
  -9  -7  -8  117.15    4.20
  -9  -7  -9  244.79    6.72
  -9  -7  -9  255.62    7.68
  -9  -7  -9  254.23    7.90
  -9  -7  -9  264.42    8.05
  -9  -7  -9  243.12    7.05
  -9  -7  -9  240.59    6.87
  -9  -7 -10  189.20    6.30
  -9  -7 -10  202.32    6.30
  -9  -7 -10  180.52    5.77
  -9  -7 -11   37.70    2.15
  -9  -7 -11   34.65    2.04
  -9  -8  -1  217.15    5.63
  -9  -8  -1  219.22    5.93
  -9  -8  -1  215.99    5.58
  -9  -8  -1  221.96    5.63
  -9  -8  -2   89.40    3.05
  -9  -8  -2   98.68    3.90
  -9  -8  -2   92.61    3.97
  -9  -8  -2   89.50    3.84
  -9  -8  -2   92.71    3.42
  -9  -8  -3   42.82    2.59
  -9  -8  -3   40.33    2.71
  -9  -8  -3   46.76    2.98
  -9  -8  -3   43.10    2.86
  -9  -8  -4  467.96   11.48
  -9  -8  -4  480.54    9.83
  -9  -8  -4  485.82   11.77
  -9  -8  -4  479.02   11.91
  -9  -8  -4  478.19   11.86
  -9  -8  -5  289.25    8.74
  -9  -8  -5  298.71    7.90
  -9  -8  -5  312.68    8.92
  -9  -8  -5  286.98    7.45
  -9  -8  -5  304.76    8.86
  -9  -8  -5  307.59    8.92
  -9  -8  -6   24.28    2.45
  -9  -8  -6   20.34    2.15
  -9  -8  -6   24.56    2.39
  -9  -8  -6   20.34    1.99
  -9  -8  -6   22.70    2.21
  -9  -8  -6   24.51    2.33
  -9  -8  -7   87.62    4.32
  -9  -8  -7   81.66    3.80
  -9  -8  -7   78.97    4.11
  -9  -8  -7   80.56    4.25
  -9  -8  -7   79.07    4.09
  -9  -8  -7   84.45    4.10
  -9  -8  -8  105.87    4.53
  -9  -8  -8   99.35    3.93
  -9  -8  -8  105.35    4.77
  -9  -8  -8  102.56    3.71
  -9  -8  -8  109.89    4.90
  -9  -8  -8  106.86    4.81
  -9  -8  -8  110.28    4.43
  -9  -8  -9  219.09    6.24
  -9  -8  -9  234.43    7.07
  -9  -8  -9  230.50    7.24
  -9  -8  -9  230.71    7.23
  -9  -8  -9  224.96    6.19
  -9  -8 -10  337.57    8.18
  -9  -8 -10  317.72    8.41
  -9  -8 -10  330.07    8.49
  -9  -8 -10  305.88    7.62
  -9  -9  -2  207.00    5.62
  -9  -9  -2  205.32    5.73
  -9  -9  -3  151.15    4.41
  -9  -9  -3  159.02    5.23
  -9  -9  -3  158.42    5.29
  -9  -9  -4  165.43    5.34
  -9  -9  -4  162.53    5.61
  -9  -9  -4  156.44    5.52
  -9  -9  -4  161.06    5.09
  -9  -9  -5   53.43    3.18
  -9  -9  -5   53.41    2.60
  -9  -9  -5   51.48    3.18
  -9  -9  -5   55.43    3.17
  -9  -9  -5   56.45    2.99
  -9  -9  -6    5.65    1.40
  -9  -9  -6    6.33    1.36
  -9  -9  -6    9.50    1.51
  -9  -9  -6    7.59    1.28
  -9  -9  -7  373.06    9.57
  -9  -9  -7  358.23    9.19
  -9  -9  -7  361.38    9.38
  -9  -9  -7  356.65    9.59
  -9  -9  -7  342.37    8.70
  -9  -9  -7  369.28    9.03
  -9  -9  -8  181.19    5.88
  -9  -9  -8  176.83    5.63
  -9  -9  -8  183.21    6.14
  -9  -9  -8  195.85    6.34
  -9  -9  -8  185.50    5.97
  -9  -9  -8  176.83    5.25
  -9  -9  -9   96.65    3.62
  -9  -9  -9   92.05    3.44
  -9  -9  -9   96.50    4.09
  -9  -9  -9  100.65    4.13
  -9  -9  -9  101.96    4.11
  -9  -9 -10   82.88    3.35
  -9  -9 -10   84.61    3.43
  -9 -10  -5  131.16    4.45
  -9 -10  -5  134.31    4.69
  -9 -10  -5  124.62    4.26
  -9 -10  -6    6.40    1.22
  -9 -10  -6    4.43    0.93
  -9 -10  -6    5.41    1.13
  -9 -10  -6    4.12    0.82
  -9 -10  -7  471.03   10.58
  -9 -10  -7  446.97   10.16
  -9 -10  -7  471.90   10.58
  -9 -10  -7  456.99    9.42
  -9 -10  -8  495.22   10.65
  -9 -10  -8  484.38   10.73
  -9 -10  -8  485.06   10.67
 -10  -1  -1   30.88    1.80
 -10  -1  -1   25.66    1.31
 -10  -1  -2  266.86    6.20
 -10  -1  -2  264.41    7.03
 -10  -1  -2  248.05    5.90
 -10  -1  -3  448.88    9.80
 -10  -1  -3  464.86   10.58
 -10  -1  -3  428.14    9.20
 -10  -1  -4   53.15    2.62
 -10  -1  -4   53.47    2.92
 -10  -1  -4   51.25    2.41
 -10  -1  -4   51.42    2.41
 -10  -1  -5   43.39    2.25
 -10  -1  -5   45.44    2.55
 -10  -1  -5   41.92    2.15
 -10  -1  -5   44.97    2.18
 -10  -1  -6   52.03    2.42
 -10  -1  -6   49.68    2.25
 -10  -1  -6   51.49    2.22
 -10  -2  -1   14.52    1.30
 -10  -2  -1   14.07    1.28
 -10  -2  -2   69.54    2.98
 -10  -2  -2   69.18    3.39
 -10  -2  -2   66.85    3.05
 -10  -2  -3  641.69   13.49
 -10  -2  -3  634.88   14.21
 -10  -2  -3  643.36   13.43
 -10  -2  -4  111.55    4.46
 -10  -2  -4  115.72    4.86
 -10  -2  -4  107.80    4.26
 -10  -2  -5   14.49    1.51
 -10  -2  -5   15.18    1.78
 -10  -2  -5   16.33    1.65
 -10  -2  -6   24.23    1.79
 -10  -2  -6   26.19    2.12
 -10  -2  -6   23.06    1.88
 -10  -2  -7   17.25    1.52
 -10  -2  -7   18.44    1.62
 -10  -3   0  198.04    4.87
 -10  -3   0  192.52    5.25
 -10  -3  -1   66.71    2.72
 -10  -3  -1   64.24    3.01
 -10  -3  -2  128.06    4.68
 -10  -3  -2  128.59    4.36
 -10  -3  -2  130.41    4.16
 -10  -3  -2  131.73    4.83
 -10  -3  -3  272.01    8.06
 -10  -3  -3  252.08    7.28
 -10  -3  -3  243.95    6.02
 -10  -3  -3  262.09    6.48
 -10  -3  -3  261.89    7.54
 -10  -3  -4  377.71    9.97
 -10  -3  -4  397.47   10.64
 -10  -3  -4  372.31    8.78
 -10  -3  -4  392.28    8.48
 -10  -3  -4  383.36    9.93
 -10  -3  -5   47.63    3.02
 -10  -3  -5   44.77    3.16
 -10  -3  -5   45.71    2.62
 -10  -3  -5   46.33    2.94
 -10  -3  -6  394.11   10.37
 -10  -3  -6  385.84    9.64
 -10  -3  -6  393.67    9.97
 -10  -3  -7  258.14    7.48
 -10  -3  -7  254.23    6.66
 -10  -3  -7  269.29    7.52
 -10  -3  -8  382.27    8.79
 -10  -3  -8  371.25    9.07
 -10  -4   0   64.34    2.69
 -10  -4   0   59.63    2.71
 -10  -4   0   63.40    2.79
 -10  -4  -1   99.51    3.79
 -10  -4  -1   89.57    3.76
 -10  -4  -1   97.95    3.95
 -10  -4  -2  304.38    7.49
 -10  -4  -2  297.66    6.65
 -10  -4  -2  322.28    8.11
 -10  -4  -2  315.22    8.29
 -10  -4  -2  307.20    7.49
 -10  -4  -2  309.19    8.41
 -10  -4  -3   46.62    2.97
 -10  -4  -3   46.81    2.50
 -10  -4  -3   50.64    2.85
 -10  -4  -3   50.17    2.93
 -10  -4  -3   52.16    3.13
 -10  -4  -4   87.61    4.54
 -10  -4  -4   86.25    3.75
 -10  -4  -4   89.71    4.33
 -10  -4  -4   90.73    3.82
 -10  -4  -4   90.36    4.29
 -10  -4  -5    6.20    1.43
 -10  -4  -5    4.80    1.10
 -10  -4  -5    6.16    1.08
 -10  -4  -5    7.10    1.41
 -10  -4  -5    4.50    1.24
 -10  -4  -6  540.72   13.24
 -10  -4  -6  517.67   12.17
 -10  -4  -6  516.90   12.50
 -10  -4  -6  538.79   12.65
 -10  -4  -7  172.58    6.26
 -10  -4  -7  162.08    5.72
 -10  -4  -7  169.98    5.51
 -10  -4  -7  183.56    6.16
 -10  -4  -8    3.37    0.64
 -10  -4  -8    2.96    0.96
 -10  -4  -8    3.86    1.02
 -10  -4  -9  137.64    4.37
 -10  -4  -9  132.18    4.51
 -10  -5  -1  161.42    5.23
 -10  -5  -1  156.51    5.06
 -10  -5  -1  164.98    5.31
 -10  -5  -2  516.07   10.60
 -10  -5  -2  515.92   10.46
 -10  -5  -2  530.83   12.04
 -10  -5  -2  531.19   11.74
 -10  -5  -2  545.38   12.15
 -10  -5  -3  157.94    5.32
 -10  -5  -3  147.58    5.01
 -10  -5  -3  156.03    5.08
 -10  -5  -3  154.94    5.59
 -10  -5  -3  157.69    5.31
 -10  -5  -3  157.71    5.73
 -10  -5  -4   44.95    3.07
 -10  -5  -4   46.46    2.85
 -10  -5  -4   49.61    3.04
 -10  -5  -4   48.47    3.10
 -10  -5  -4   50.41    3.18
 -10  -5  -5    4.68    1.24
 -10  -5  -5    3.39    0.82
 -10  -5  -5    3.13    1.12
 -10  -5  -5    3.54    1.07
 -10  -5  -5    3.76    1.08
 -10  -5  -5    3.43    1.03
 -10  -5  -6  304.73    7.58
 -10  -5  -6  315.09    9.50
 -10  -5  -6  316.70    8.81
 -10  -5  -6  330.26    8.57
 -10  -5  -6  317.49    9.12
 -10  -5  -6  321.25    8.95
 -10  -5  -7  877.47   18.43
 -10  -5  -7  851.16   17.57
 -10  -5  -7  845.84   17.50
 -10  -5  -7  876.90   17.36
 -10  -5  -8   15.04    1.81
 -10  -5  -8   14.41    1.41
 -10  -5  -8   15.02    1.70
 -10  -5  -8   15.15    1.63
 -10  -5  -9   26.76    2.05
 -10  -5  -9   27.06    1.96
 -10  -6  -1  389.41    8.98
 -10  -6  -1  387.04    8.50
 -10  -6  -1  400.26    8.77
 -10  -6  -2  149.15    4.56
 -10  -6  -2  155.72    5.40
 -10  -6  -2  152.24    4.88
 -10  -6  -2  157.74    5.23
 -10  -6  -3   79.35    2.68
 -10  -6  -3   80.65    3.55
 -10  -6  -3   83.58    4.02
 -10  -6  -3   76.58    3.33
 -10  -6  -3   80.31    3.41
 -10  -6  -3   81.70    3.81
 -10  -6  -4  108.58    3.75
 -10  -6  -4  106.55    4.22
 -10  -6  -4  102.63    4.37
 -10  -6  -4  117.23    4.70
 -10  -6  -4  112.54    4.84
 -10  -6  -4  107.95    3.88
 -10  -6  -4  117.05    4.73
 -10  -6  -5   12.66    1.43
 -10  -6  -5   13.79    1.74
 -10  -6  -5   13.74    1.71
 -10  -6  -5   13.88    1.75
 -10  -6  -5   11.99    1.62
 -10  -6  -5   14.84    1.72
 -10  -6  -6   52.24    2.88
 -10  -6  -6   56.37    3.43
 -10  -6  -6   57.77    3.58
 -10  -6  -6   60.33    3.44
 -10  -6  -6   56.53    3.33
 -10  -6  -6   58.91    3.27
 -10  -6  -7  514.81   11.77
 -10  -6  -7  520.16   12.95
 -10  -6  -7  537.82   12.52
 -10  -6  -7  542.97   12.31
 -10  -6  -7  533.12   12.09
 -10  -6  -8   12.79    1.53
 -10  -6  -8   23.34    2.18
 -10  -6  -8   15.61    1.74
 -10  -6  -8   25.10    1.83
 -10  -6  -8   14.24    1.53
 -10  -6  -9   18.59    1.84
 -10  -6  -9   17.32    1.50
 -10  -6 -10  108.04    3.75
 -10  -6 -10   99.24    3.13
 -10  -7  -2  105.95    3.58
 -10  -7  -2  102.90    4.07
 -10  -7  -2  100.87    3.38
 -10  -7  -2  105.76    3.63
 -10  -7  -3   24.85    1.63
 -10  -7  -3   27.51    2.00
 -10  -7  -3   24.88    2.10
 -10  -7  -3   27.56    1.95
 -10  -7  -4  314.78    7.76
 -10  -7  -4  323.18    8.54
 -10  -7  -4  326.99    8.95
 -10  -7  -4  329.87    8.22
 -10  -7  -5  422.50   10.68
 -10  -7  -5  437.26   10.70
 -10  -7  -5  425.58   10.01
 -10  -7  -5  413.17    9.86
 -10  -7  -5  453.65   10.86
 -10  -7  -5  453.08   11.08
 -10  -7  -5  442.11   10.13
 -10  -7  -6   52.11    3.13
 -10  -7  -6   49.54    3.12
 -10  -7  -6   46.59    2.82
 -10  -7  -6   46.26    2.97
 -10  -7  -6   53.70    3.18
 -10  -7  -6   51.92    3.17
 -10  -7  -6   49.16    2.69
 -10  -7  -7  165.14    5.77
 -10  -7  -7  161.40    5.58
 -10  -7  -7  160.17    5.54
 -10  -7  -7  167.81    6.05
 -10  -7  -7  168.27    5.85
 -10  -7  -7  164.63    5.09
 -10  -7  -8  105.84    4.32
 -10  -7  -8  103.05    4.53
 -10  -7  -8  105.10    4.29
 -10  -7  -8  102.76    3.62
 -10  -7  -9   37.84    2.46
 -10  -7  -9   34.49    2.41
 -10  -7  -9   34.91    2.22
 -10  -8  -3   41.04    2.03
 -10  -8  -3   44.10    2.35
 -10  -8  -3   41.11    2.36
 -10  -8  -4   69.05    3.09
 -10  -8  -4   64.44    2.93
 -10  -8  -4   65.37    3.19
 -10  -8  -4   70.12    3.36
 -10  -8  -5  698.36   14.63
 -10  -8  -5  690.78   14.28
 -10  -8  -5  709.69   14.77
 -10  -8  -5  710.48   14.94
 -10  -8  -6   69.08    3.52
 -10  -8  -6   68.68    3.02
 -10  -8  -6   69.57    3.37
 -10  -8  -6   65.98    2.94
 -10  -8  -6   71.12    3.49
 -10  -8  -6   71.25    3.55
 -10  -8  -7   13.10    1.66
 -10  -8  -7   15.22    1.65
 -10  -8  -7   13.13    1.62
 -10  -8  -7   12.86    1.51
 -10  -8  -7   15.03    1.66
 -10  -8  -8   16.09    1.61
 -10  -8  -8   16.94    1.75
 -10  -8  -8   13.82    1.60
 -10  -8  -8   17.14    1.72
 -10  -8  -8   16.69    1.59
 -10  -8  -9  210.55    6.17
 -10  -8  -9  225.16    6.36
 -10  -8  -9  208.36    5.49
 -10  -9  -5  681.66   13.49
 -10  -9  -5  685.46   13.58
 -10  -9  -5  679.18   13.66
 -10  -9  -6  161.49    5.17
 -10  -9  -6  156.50    5.05
 -10  -9  -6  159.94    5.03
 -10  -9  -7   75.72    3.35
 -10  -9  -7   74.29    3.06
 -10  -9  -7   81.06    3.47
 -10  -9  -7   72.73    3.09
 -10  -9  -8   74.36    3.11
 -10  -9  -8   75.12    3.12
 -10  -9  -8   71.16    3.20
 -10  -9  -8   69.35    2.83
 -10  -9  -8   74.10    2.82
 -11  -4  -4  445.44    9.51
 -11  -4  -4  458.34    9.80
 -11  -4  -5   76.95    3.26
 -11  -4  -5   81.06    3.28
 -11  -4  -6   29.36    1.99
 -11  -4  -6   28.30    1.86
 -11  -5  -4  181.44    4.77
 -11  -5  -4  178.49    4.52
 -11  -5  -4  195.27    4.97
 -11  -5  -4  188.50    5.40
 -11  -5  -5    7.60    1.07
 -11  -5  -5    7.65    0.97
 -11  -5  -5    8.03    0.96
 -11  -5  -5    7.77    1.03
 -11  -5  -5    7.93    1.09
 -11  -5  -6   30.31    1.91
 -11  -5  -6   28.53    2.05
 -11  -5  -6   27.67    1.80
 -11  -5  -6   31.94    2.05
 -11  -5  -7  227.11    6.38
 -11  -5  -7  246.12    6.29
 -11  -6  -5    3.41    0.76
 -11  -6  -5    2.24    0.70
 -11  -6  -5    1.65    0.67
 -11  -6  -5    4.09    0.85
 -11  -6  -6    7.45    1.13
 -11  -6  -6    5.81    0.97
 -11  -6  -6    7.62    1.03
 -11  -6  -6    7.05    1.00
 -11  -6  -7  516.33   11.18
 -11  -6  -7  499.04   10.74
 -11  -6  -7  528.55   10.63
   0   0   0    0.00    0.00


TITL exp_374_2_100_00 in P-1
REM P-1 (#2 in standard setting)
CELL 1.54184   9.335292   9.772546  10.688366  63.1527  64.1935  62.7099
ZERR    2.00   0.000186   0.000187   0.000195   0.0019   0.0019   0.0020
LATT  1
SFAC C H N O P S Cd
UNIT 20.00 30.00 4.00 4.00 2.00 4.00 1.00
TREF
HKLF 4
END
_computing_structure_solution     'SHELXT 2014/5 (Sheldrick, 2014)'
;
loop_
_space_group_symop_operation_xyz
'x, y, z'
'-x, -y, -z'
loop_
_atom_site_label
_atom_site_type_symbol
_atom_site_fract_x
_atom_site_fract_y
_atom_site_fract_z
_atom_site_U_iso_or_equiv
_atom_site_adp_type
_atom_site_occupancy
_atom_site_site_symmetry_order
_atom_site_calc_flag
_atom_site_refinement_flags_posn
_atom_site_refinement_flags_adp
_atom_site_refinement_flags_occupancy
_atom_site_disorder_assembly
_atom_site_disorder_group
Cd Cd 0.500000 0.500000 1.000000 0.01659(6) Uani 1 2 d S . P . .
S1 S 0.43784(5) 0.73691(5) 0.75644(4) 0.01992(10) Uani 1 1 d . . . . .
S2 S 0.78190(5) 0.40747(5) 0.79299(4) 0.01703(9) Uani 1 1 d . . . . .
P1 P 0.66908(5) 0.61525(5) 0.66070(4) 0.01563(10) Uani 1 1 d . . . . .
O1 O 0.65337(14) 0.59094(15) 0.53066(13) 0.0214(3) Uani 1 1 d . . . . .
O2 O 0.79503(15) 0.71679(14) 0.58518(13) 0.0214(3) Uani 1 1 d . . . . .
N1 N 0.37474(18) 0.34397(17) 0.97217(16) 0.0200(3) Uani 1 1 d . . . . .
N2 N 0.01926(19) 0.05402(17) 1.01210(16) 0.0211(3) Uani 1 1 d . . . . .
C1 C 0.8052(2) 0.5068(2) 0.4358(2) 0.0272(4) Uani 1 1 d . . . . .
H1A H 0.893396 0.438216 0.486862 0.033 Uiso 1 1 calc R U . . .
H1B H 0.849115 0.586777 0.345291 0.033 Uiso 1 1 calc R U . . .
C2 C 0.7606(3) 0.4041(3) 0.3987(3) 0.0435(6) Uani 1 1 d . . . . .
H2A H 0.859683 0.350611 0.331630 0.065 Uiso 1 1 calc R U . . .
H2B H 0.670229 0.472448 0.351581 0.065 Uiso 1 1 calc R U . . .
H2C H 0.722602 0.321908 0.488372 0.065 Uiso 1 1 calc R U . . .
C3 C 0.7498(3) 0.8799(2) 0.4819(2) 0.0328(4) Uani 1 1 d . . . . .
H3A H 0.652187 0.954195 0.533556 0.039 Uiso 1 1 calc R U . . .
H3B H 0.718928 0.877899 0.405200 0.039 Uiso 1 1 calc R U . . .
C4 C 0.8977(3) 0.9366(2) 0.4146(3) 0.0391(5) Uani 1 1 d . . . . .
H4A H 0.870227 1.045995 0.344756 0.059 Uiso 1 1 calc R U . . .
H4B H 0.993353 0.862601 0.363273 0.059 Uiso 1 1 calc R U . . .
H4C H 0.926936 0.938490 0.491230 0.059 Uiso 1 1 calc R U . . .
C5 C 0.2169(3) 0.3459(3) 1.0460(2) 0.0361(5) Uani 1 1 d . . . . .
H5 H 0.150836 0.412889 1.107210 0.043 Uiso 1 1 calc R U . . .
C6 C 0.1434(3) 0.2556(3) 1.0385(2) 0.0330(5) Uani 1 1 d . . . . .
H6 H 0.030023 0.261564 1.093482 0.040 Uiso 1 1 calc R U . . .
C7 C 0.2358(2) 0.1576(2) 0.95107(19) 0.0206(3) Uani 1 1 d . . . . .
C8 C 0.3986(3) 0.1568(3) 0.8726(3) 0.0456(6) Uani 1 1 d . . . . .
H8 H 0.466819 0.091970 0.809652 0.055 Uiso 1 1 calc R U . . .
C9 C 0.4625(3) 0.2513(3) 0.8861(3) 0.0394(5) Uani 1 1 d . . . . .
H9 H 0.574927 0.249402 0.830795 0.047 Uiso 1 1 calc R U . . .
C10 C 0.1685(2) 0.0547(2) 0.9409(2) 0.0239(4) Uani 1 1 d . . . . .
H10 H 0.238062 -0.012362 0.879892 0.029 Uiso 1 1 calc R U . . .
loop_
_atom_site_aniso_label
_atom_site_aniso_U_11
_atom_site_aniso_U_22
_atom_site_aniso_U_33
_atom_site_aniso_U_23
_atom_site_aniso_U_13
_atom_site_aniso_U_12
Cd 0.01910(10) 0.01967(10) 0.01540(9) -0.00610(6) -0.00251(6) -0.01150(7)
S1 0.01719(19) 0.0196(2) 0.0198(2) -0.00722(16) -0.00490(16) -0.00285(15)
S2 0.01560(19) 0.01610(19) 0.0195(2) -0.00575(15) -0.00464(15) -0.00547(15)
P1 0.01461(19) 0.0182(2) 0.0158(2) -0.00551(16) -0.00378(15) -0.00708(16)
O1 0.0153(6) 0.0330(7) 0.0196(6) -0.0134(5) -0.0029(5) -0.0077(5)
O2 0.0196(6) 0.0208(6) 0.0235(6) -0.0005(5) -0.0083(5) -0.0108(5)
N1 0.0242(7) 0.0213(7) 0.0205(7) -0.0060(6) -0.0068(6) -0.0123(6)
N2 0.0263(8) 0.0218(7) 0.0250(7) -0.0105(6) -0.0070(6) -0.0128(6)
C1 0.0177(8) 0.0433(11) 0.0233(9) -0.0200(8) 0.0009(7) -0.0091(8)
C2 0.0305(11) 0.0599(15) 0.0562(14) -0.0426(12) -0.0049(10) -0.0104(10)
C3 0.0317(10) 0.0236(9) 0.0386(11) 0.0061(8) -0.0177(9) -0.0141(8)
C4 0.0340(11) 0.0249(10) 0.0544(14) 0.0034(9) -0.0193(10) -0.0160(9)
C5 0.0286(10) 0.0517(13) 0.0463(12) -0.0366(11) 0.0057(9) -0.0221(9)
C6 0.0259(9) 0.0475(12) 0.0407(11) -0.0305(10) 0.0063(8) -0.0224(9)
C7 0.0242(9) 0.0209(8) 0.0221(8) -0.0072(7) -0.0069(7) -0.0109(7)
C8 0.0326(11) 0.0629(15) 0.0630(15) -0.0502(13) 0.0128(10) -0.0276(11)
C9 0.0284(10) 0.0553(14) 0.0519(13) -0.0381(12) 0.0100(9) -0.0267(10)
C10 0.0262(9) 0.0252(9) 0.0277(9) -0.0148(8) -0.0040(7) -0.0114(7)
loop_
_atom_type_symbol
_atom_type_description
_atom_type_scat_dispersion_real
_atom_type_scat_dispersion_imag
_atom_type_scat_source
C C 0.0181 0.0091 'International Tables Vol C Tables 4.2.6.8 and 6.1.1.4'
H H 0.0000 0.0000 'International Tables Vol C Tables 4.2.6.8 and 6.1.1.4'
N N 0.0311 0.0180 'International Tables Vol C Tables 4.2.6.8 and 6.1.1.4'
O O 0.0492 0.0322 'International Tables Vol C Tables 4.2.6.8 and 6.1.1.4'
P P 0.2955 0.4335 'International Tables Vol C Tables 4.2.6.8 and 6.1.1.4'
S S 0.3331 0.5567 'International Tables Vol C Tables 4.2.6.8 and 6.1.1.4'
Cd Cd 0.1185 4.6533 'International Tables Vol C Tables 4.2.6.8 and 6.1.1.4'
loop_
_geom_angle_atom_site_label_1
_geom_angle_atom_site_label_2
_geom_angle_atom_site_label_3
_geom_angle
_geom_angle_site_symmetry_1
_geom_angle_site_symmetry_3
N1 Cd N1 180.0 . 2_667
N1 Cd S1 90.27(3) . .
N1 Cd S1 89.73(3) 2_667 .
N1 Cd S1 89.73(3) . 2_667
N1 Cd S1 90.27(3) 2_667 2_667
S1 Cd S1 180.0 . 2_667
N1 Cd S2 89.70(3) . .
N1 Cd S2 90.30(3) 2_667 .
S1 Cd S2 77.898(12) . .
S1 Cd S2 102.102(12) 2_667 .
N1 Cd S2 90.30(3) . 2_667
N1 Cd S2 89.69(3) 2_667 2_667
S1 Cd S2 102.102(12) . 2_667
S1 Cd S2 77.897(12) 2_667 2_667
S2 Cd S2 180.0 . 2_667
P1 S1 Cd 83.564(18) . .
P1 S2 Cd 83.024(17) . .
O1 P1 O2 105.54(7) . .
O1 P1 S1 105.62(5) . .
O2 P1 S1 112.64(5) . .
O1 P1 S2 112.69(5) . .
O2 P1 S2 104.70(5) . .
S1 P1 S2 115.37(3) . .
C1 O1 P1 119.08(10) . .
C3 O2 P1 119.62(11) . .
C9 N1 C5 116.67(16) . .
C9 N1 Cd 121.75(12) . .
C5 N1 Cd 121.55(12) . .
C10 N2 N2 111.79(18) . 2_557
O1 C1 C2 108.35(15) . .
O1 C1 H1A 110.0 . .
C2 C1 H1A 110.0 . .
O1 C1 H1B 110.0 . .
C2 C1 H1B 110.0 . .
H1A C1 H1B 108.4 . .
C1 C2 H2A 109.5 . .
C1 C2 H2B 109.5 . .
H2A C2 H2B 109.5 . .
C1 C2 H2C 109.5 . .
H2A C2 H2C 109.5 . .
H2B C2 H2C 109.5 . .
O2 C3 C4 107.99(15) . .
O2 C3 H3A 110.1 . .
C4 C3 H3A 110.1 . .
O2 C3 H3B 110.1 . .
C4 C3 H3B 110.1 . .
H3A C3 H3B 108.4 . .
C3 C4 H4A 109.5 . .
C3 C4 H4B 109.5 . .
H4A C4 H4B 109.5 . .
C3 C4 H4C 109.5 . .
H4A C4 H4C 109.5 . .
H4B C4 H4C 109.5 . .
N1 C5 C6 123.65(18) . .
N1 C5 H5 118.2 . .
C6 C5 H5 118.2 . .
C7 C6 C5 119.48(18) . .
C7 C6 H6 120.3 . .
C5 C6 H6 120.3 . .
C6 C7 C8 117.19(17) . .
C6 C7 C10 122.67(16) . .
C8 C7 C10 120.13(16) . .
C7 C8 C9 119.67(19) . .
C7 C8 H8 120.2 . .
C9 C8 H8 120.2 . .
N1 C9 C8 123.31(18) . .
N1 C9 H9 118.3 . .
C8 C9 H9 118.3 . .
N2 C10 C7 120.95(16) . .
N2 C10 H10 119.5 . .
C7 C10 H10 119.5 . .
loop_
_geom_bond_atom_site_label_1
_geom_bond_atom_site_label_2
_geom_bond_distance
_geom_bond_site_symmetry_2
Cd N1 2.4755(13) .
Cd N1 2.4756(13) 2_667
Cd S1 2.6671(4) .
Cd S1 2.6671(4) 2_667
Cd S2 2.6821(4) .
Cd S2 2.6822(4) 2_667
S1 P1 1.9856(6) .
S2 P1 1.9934(6) .
P1 O1 1.5867(12) .
P1 O2 1.5933(12) .
O1 C1 1.465(2) .
O2 C3 1.462(2) .
N1 C9 1.324(3) .
N1 C5 1.330(2) .
N2 C10 1.266(2) .
N2 N2 1.409(3) 2_557
C1 C2 1.491(3) .
C1 H1A 0.9900 .
C1 H1B 0.9900 .
C2 H2A 0.9800 .
C2 H2B 0.9800 .
C2 H2C 0.9800 .
C3 C4 1.485(3) .
C3 H3A 0.9900 .
C3 H3B 0.9900 .
C4 H4A 0.9800 .
C4 H4B 0.9800 .
C4 H4C 0.9800 .
C5 C6 1.386(3) .
C5 H5 0.9500 .
C6 C7 1.373(3) .
C6 H6 0.9500 .
C7 C8 1.378(3) .
C7 C10 1.469(2) .
C8 C9 1.390(3) .
C8 H8 0.9500 .
C9 H9 0.9500 .
C10 H10 0.9500 .
loop_
_geom_torsion_atom_site_label_1
_geom_torsion_atom_site_label_2
_geom_torsion_atom_site_label_3
_geom_torsion_atom_site_label_4
_geom_torsion
_geom_torsion_site_symmetry_1
_geom_torsion_site_symmetry_2
_geom_torsion_site_symmetry_3
_geom_torsion_site_symmetry_4
O2 P1 O1 C1 59.32(14) . . . .
S1 P1 O1 C1 178.83(12) . . . .
S2 P1 O1 C1 -54.37(13) . . . .
O1 P1 O2 C3 62.14(15) . . . .
S1 P1 O2 C3 -52.61(15) . . . .
S2 P1 O2 C3 -178.72(13) . . . .
P1 O1 C1 C2 142.22(15) . . . .
P1 O2 C3 C4 -172.70(15) . . . .
C9 N1 C5 C6 1.0(3) . . . .
Cd N1 C5 C6 -177.33(18) . . . .
N1 C5 C6 C7 0.1(4) . . . .
C5 C6 C7 C8 -1.0(3) . . . .
C5 C6 C7 C10 178.1(2) . . . .
C6 C7 C8 C9 0.9(4) . . . .
C10 C7 C8 C9 -178.3(2) . . . .
C5 N1 C9 C8 -1.2(4) . . . .
Cd N1 C9 C8 177.2(2) . . . .
C7 C8 C9 N1 0.2(4) . . . .
N2 N2 C10 C7 -179.40(17) 2_557 . . .
C6 C7 C10 N2 1.0(3) . . . .
C8 C7 C10 N2 -180.0(2) . . . .
