#------------------------------------------------------------------------------
#$Date: 2022-05-11 10:40:56 +0300 (Wed, 11 May 2022) $
#$Revision: 275320 $
#$URL: file:///home/coder/svn-repositories/cod/cif/8/10/52/8105207.cif $
#------------------------------------------------------------------------------
#
# This file is available in the Crystallography Open Database (COD),
# http://www.crystallography.net/
#
# All data on this site have been placed in the public domain by the
# contributors.
#
data_8105207
loop_
_publ_author_name
'Wei-Wei, Yuan'
_publ_section_title
;
 Crystal structure of trans-1,2-bis(pyridinium-4-yl) ethylene
 bis(2-carboxy-4-bromobenzoate) -- water (1/4), C14H14BrNO6
;
_journal_issue                   2
_journal_name_full
'Zeitschrift f\"ur Kristallographie - New Crystal Structures'
_journal_page_first              289
_journal_page_last               291
_journal_paper_doi               10.1515/ncrs-2022-0002
_journal_volume                  237
_journal_year                    2022
_chemical_formula_moiety         'C8 H4 Br O4, 2(H2 O), C6 H6 N'
_chemical_formula_sum            'C14 H14 Br N O6'
_chemical_formula_weight         372.174
_space_group_crystal_system      triclinic
_space_group_IT_number           2
_space_group_name_Hall           '-P 1'
_space_group_name_H-M_alt        'P -1'
_symmetry_Int_Tables_number      2
_atom_sites_solution_primary     dual
_cell_angle_alpha                72.774(5)
_cell_angle_beta                 81.547(4)
_cell_angle_gamma                74.370(4)
_cell_formula_units_Z            2
_cell_length_a                   6.9693(3)
_cell_length_b                   8.6514(5)
_cell_length_c                   13.6726(8)
_cell_measurement_reflns_used    4076
_cell_measurement_temperature    290.7(3)
_cell_measurement_theta_max      25.0180
_cell_measurement_theta_min      4.0110
_cell_volume                     756.26(7)
_computing_cell_refinement       'CrysAlisPro 1.171.38.41r (Rigaku OD, 2015)'
_computing_data_collection       'CrysAlisPro 1.171.38.41r (Rigaku OD, 2015)'
_computing_data_reduction        'CrysAlisPro 1.171.38.41r (Rigaku OD, 2015)'
_computing_molecular_graphics    'Olex2 1.5 (Dolomanov et al., 2009)'
_computing_publication_material  'Olex2 1.5 (Dolomanov et al., 2009)'
_computing_structure_refinement  'olex2.refine 1.5 (Bourhis et al., 2015)'
_computing_structure_solution    'SHELXT 2014/5 (Sheldrick, 2014)'
_diffrn_ambient_environment      air
_diffrn_ambient_temperature      290.7(3)
_diffrn_detector                 'CCD plate'
_diffrn_detector_area_resol_mean 8.0584
_diffrn_detector_type            EosS2
_diffrn_measured_fraction_theta_full 0.9839
_diffrn_measured_fraction_theta_max 0.9839
_diffrn_measurement_details
;
List of Runs (angles in degrees, time in seconds):

  # Type    Start    End  Width  t~exp~   \w     \q     \k     \f   Frames
--------------------------------------------------------------------------
  1  \w     -4.00  46.00   1.00    6.22    --   12.34  38.00  30.00   50
  2  \w     -2.00  80.00   1.00    6.22    --   12.34  57.00  60.00   82
  3  \w     13.00  80.00   1.00    6.22    --   12.34  57.00 -90.00   67
  4  \w     53.00  79.00   1.00    6.22    --   12.34  57.00-150.00   26
  5  \w     -3.00  79.00   1.00    6.22    --   12.34  57.00-180.00   82
  6  \w    -27.00  58.00   1.00    6.22    --  -11.32  38.00 -60.00   85
  7  \w    -20.00  30.00   1.00    6.22    --   12.34 -38.00  60.00   50
  8  \w    -20.00  51.00   1.00    6.22    --   12.34 -99.00  60.00   71
  9  \w     25.00  51.00   1.00    6.22    --   12.34 -99.00 -60.00   26
 10  \w    -20.00  51.00   1.00    6.22    --   12.34 -99.00-150.00   71
;
_diffrn_measurement_device       'four-circle diffractometer'
_diffrn_measurement_device_type  'SuperNova, Single source at offset, EosS2'
_diffrn_measurement_method       '\w scans'
_diffrn_orient_matrix_type
'CrysAlisPro convention (1999,Acta A55,543-557)'
_diffrn_orient_matrix_UB_11      0.0111924000
_diffrn_orient_matrix_UB_12      -0.0699951000
_diffrn_orient_matrix_UB_13      -0.0190924000
_diffrn_orient_matrix_UB_21      -0.0101405000
_diffrn_orient_matrix_UB_22      0.0532846000
_diffrn_orient_matrix_UB_23      -0.0505382000
_diffrn_orient_matrix_UB_31      0.1048850000
_diffrn_orient_matrix_UB_32      -0.0087339000
_diffrn_orient_matrix_UB_33      -0.0068687000
_diffrn_radiation_monochromator  mirror
_diffrn_radiation_probe          x-ray
_diffrn_radiation_type           'Mo K\a'
_diffrn_radiation_wavelength     0.71073
_diffrn_reflns_av_R_equivalents  0.0338
_diffrn_reflns_av_unetI/netI     0.0404
_diffrn_reflns_Laue_measured_fraction_full 0.9839
_diffrn_reflns_Laue_measured_fraction_max 0.9839
_diffrn_reflns_limit_h_max       8
_diffrn_reflns_limit_h_min       -8
_diffrn_reflns_limit_k_max       10
_diffrn_reflns_limit_k_min       -10
_diffrn_reflns_limit_l_max       17
_diffrn_reflns_limit_l_min       -17
_diffrn_reflns_number            9713
_diffrn_reflns_point_group_measured_fraction_full 0.9839
_diffrn_reflns_point_group_measured_fraction_max 0.9839
_diffrn_reflns_theta_full        24.9997
_diffrn_reflns_theta_max         25.00
_diffrn_reflns_theta_min         3.32
_diffrn_source                   'micro-focus sealed X-ray tube'
_diffrn_source_type              'SuperNova (Mo) X-ray Source'
_exptl_absorpt_coefficient_mu    2.746
_exptl_absorpt_correction_T_max  1.00000
_exptl_absorpt_correction_T_min  0.40568
_exptl_absorpt_correction_type   multi-scan
_exptl_absorpt_process_details
;
CrysAlisPro 1.171.38.41r (Rigaku Oxford Diffraction, 2015)
Empirical absorption correction using spherical harmonics,
 implemented in SCALE3 ABSPACK scaling algorithm.
;
_exptl_crystal_colour            colourless
_exptl_crystal_colour_primary    colourless
_exptl_crystal_density_diffrn    1.634
_exptl_crystal_description       block
_exptl_crystal_F_000             375.870
_exptl_crystal_size_max          0.28
_exptl_crystal_size_mid          0.27
_exptl_crystal_size_min          0.25
_refine_diff_density_max         0.6234
_refine_diff_density_min         -0.7303
_refine_diff_density_rms         0.0837
_refine_ls_d_res_high            0.8409
_refine_ls_d_res_low             6.1386
_refine_ls_goodness_of_fit_ref   1.0562
_refine_ls_hydrogen_treatment    constr
_refine_ls_matrix_type           full
_refine_ls_number_constraints    26
_refine_ls_number_parameters     199
_refine_ls_number_reflns         2621
_refine_ls_number_restraints     0
_refine_ls_restrained_S_all      1.0562
_refine_ls_R_factor_all          0.0440
_refine_ls_R_factor_gt           0.0341
_refine_ls_shift/su_max          -0.0001
_refine_ls_shift/su_mean         0.0000
_refine_ls_structure_factor_coef Fsqd
_refine_ls_weighting_details
'w=1/[\s^2^(Fo^2^)+(0.0236P)^2^+0.3771P] where P=(Fo^2^+2Fc^2^)/3'
_refine_ls_weighting_scheme      calc
_refine_ls_wR_factor_gt          0.0656
_refine_ls_wR_factor_ref         0.0689
_reflns_Friedel_coverage         0.0
_reflns_limit_h_max              8
_reflns_limit_h_min              -8
_reflns_limit_k_max              10
_reflns_limit_k_min              -9
_reflns_limit_l_max              16
_reflns_limit_l_min              0
_reflns_number_gt                2234
_reflns_number_total             2621
_reflns_threshold_expression     I>=2u(I)
_iucr_refine_instructions_details
;
TITL d17120115_a.res in P-1
REM Old TITL D17120115 in P1
REM SHELXT solution in P-1
REM R1 0.151, Rweak 0.023, Alpha 0.063, Orientation as input
REM Formula found by SHELXT: C14 N3 O1 Br
CELL 0.71073 6.9693 8.6514 13.6726 72.774 81.547 74.37
ZERR 2 0.0003 0.0005 0.0008 0.005 0.004 0.004
LATT 1
SFAC C H Br N O
UNIT 28 28 2 2 12
EQIV $1 -X,-Y,2-Z
EQIV $2 1-X,-Y,2-Z
EQIV $3 +X,+Y,1+Z

L.S. 10
PLAN  20
HTAB O4 O5
HTAB O5 O2_$1
HTAB O5 O6
HTAB O6 O1_$2
HTAB O6 O2_$3
HTAB N1 O1
BOND $H
FMAP 2
list 4
ACTA 
MORE -1
CONF 
OMIT 0 50
WGHT 0.023591 0.377136
FVAR 0.548179
REM <olex2.extras>
REM <HklSrc "%.\\D17120115.hkl">
REM </olex2.extras>

Br1   3     0.10135  0.62802  0.57890  11.00000  0.05405  0.03635  0.04406 =
 0.00309 -0.00799 -0.00229 
O1    5     0.40213  0.28968  0.55589  11.00000  0.05243  0.04647  0.02236 =
 -0.00482  0.00733 -0.00772 
O2    5     0.20469  0.11163  0.61415  11.00000  0.07380  0.05831  0.03568 =
 -0.02618  0.00827 -0.02650 
O3    5     0.25160 -0.04070  1.00931  11.00000  0.09499  0.04912  0.02814 =
 -0.00646 -0.00199 -0.01022 
O4    5     0.13046  0.17449  1.07727  11.00000  0.12704  0.06161  0.02297 =
 -0.01741  0.01013 -0.02687 
AFIX 3
H4    2     0.12009  0.10466  1.12950  11.00000 -1.50000 
AFIX 0
C1    1     0.13568  0.46254  0.70646  11.00000  0.03414  0.03022  0.02879 =
 -0.00580 -0.00091 -0.00690 
C2    1     0.20693  0.29409  0.71165  11.00000  0.03260  0.03308  0.02178 =
 -0.00770  0.00068 -0.00647 
C3    1     0.21978  0.18160  0.80833  11.00000  0.04652  0.02873  0.02546 =
 -0.00810  0.00101 -0.00674 
AFIX 43
H3    2     0.26364  0.06820  0.81343  11.00000 -1.20000 
AFIX 0
C4    1     0.16902  0.23350  0.89765  11.00000  0.04807  0.04155  0.02712 =
 -0.01391  0.00457 -0.01380 
C5    1     0.09902  0.40188  0.88856  11.00000  0.06320  0.04927  0.03530 =
 -0.02571  0.00711 -0.01003 
AFIX 43
H5    2     0.06359  0.43866  0.94760  11.00000 -1.20000 
AFIX 0
C6    1     0.08062  0.51604  0.79442  11.00000  0.05178  0.03125  0.04950 =
 -0.01763  0.00080 -0.00396 
AFIX 43
H6    2     0.03131  0.62894  0.78978  11.00000 -1.20000 
AFIX 0
C7    1     0.27450  0.22780  0.61906  11.00000  0.04197  0.03514  0.02117 =
 -0.00613 -0.00533  0.00160 
C8    1     0.18889  0.10688  0.99949  11.00000  0.06076  0.05089  0.02598 =
 -0.01276  0.00252 -0.01759 

O5    5     0.11892 -0.01034  1.26636  11.00000  0.08803  0.09966  0.02453 =
 -0.01191  0.00153 -0.04601 
AFIX 3
H5a   2     0.17418 -0.00711  1.31692  11.00000 -1.50000 
H5b   2     0.01782 -0.04902  1.29344  11.00000 -1.50000 
AFIX 0

O6    5     0.28067 -0.00379  1.43460  11.00000  0.06519  0.05644  0.04056 =
 -0.02084 -0.01075  0.00471 
AFIX 3
H6a   2     0.24785  0.02084  1.49150  11.00000 -1.50000 
H6b   2     0.37760 -0.08926  1.44727  11.00000 -1.50000 
AFIX 0

N1    4     0.41306  0.40282  0.35232  11.00000  0.05768  0.06726  0.01971 =
 -0.00125  0.00046 -0.02657 
AFIX 43
H1    2     0.40282  0.37364  0.41835  11.00000 -1.20000 
AFIX 0
C9    1     0.48553  0.28571  0.30275  11.00000  0.08858  0.04788  0.03102 =
 0.00310 -0.00580 -0.02264 
AFIX 43
H9    2     0.52548  0.17458  0.33946  11.00000 -1.20000 
AFIX 0
C10   1     0.50110  0.32877  0.19828  11.00000  0.08758  0.04256  0.02949 =
 -0.00415 -0.00128 -0.01667 
AFIX 43
H10   2     0.55066  0.24677  0.16370  11.00000 -1.20000 
AFIX 0
C11   1     0.44312  0.49516  0.14297  11.00000  0.04414  0.04328  0.02476 =
 -0.00501 -0.00182 -0.01471 
C12   1     0.36861  0.61279  0.19774  11.00000  0.04795  0.04287  0.02904 =
 -0.00612 -0.00345 -0.01050 
AFIX 43
H12   2     0.32726  0.72491  0.16322  11.00000 -1.20000 
AFIX 0
C13   1     0.35593  0.56343  0.30318  11.00000  0.05122  0.05778  0.02715 =
 -0.01539  0.00259 -0.01514 
AFIX 43
H13   2     0.30745  0.64226  0.34017  11.00000 -1.20000 
AFIX 0
C14   1     0.45992  0.54846  0.03037  11.00000  0.05511  0.03821  0.02469 =
 -0.00140 -0.00344 -0.01134 
AFIX 43
H14   2     0.40936  0.66080 -0.00082  11.00000 -1.20000 
AFIX 0
HKLF 4

END
Q1 1 0.08333 0.64 0.64444 11 0.05 0.62
Q2 1 0.08333 0.64 0.55556 11 0.05 0.51
Q3 1 0.04167 0.52 0.55556 11 0.05 0.29
Q4 1 0.083333 0.72 0.688889 11 0.05 0.29
Q5 1 0 0.72 0.422222 11 0.05 0.28

  REM The information below was added by Olex2.
  REM
  REM R1 = 0.0341 for 2234 Fo > 4sig(Fo) and 0.0440 for all 2621 data
  REM 199 parameters refined using 0 restraints
  REM Highest difference peak 0.6234, deepest hole -0.7303
  REM Mean Shift 0.0000, Max Shift -0.0001.

  REM +++ Tabular Listing of Refinement Information +++
  REM R1_all = 0.0440
  REM R1_gt = 0.0341
  REM wR_ref = 0.0689
  REM GOOF = 1.0562
  REM Shift_max = -0.0001
  REM Shift_mean = 0.0000
  REM Reflections_all = 2621
  REM Reflections_gt = 2234
  REM Parameters = 199
  REM Hole = -0.7303
  REM Peak = 0.6234
  REM Flack = n/a

  
;
_cod_data_source_file            suppl_j_ncrs-2022-0002_suppl.cif
_cod_data_source_block           1
_cod_database_code               8105207
_olex2_refinement_description
;
1. Fixed Uiso
 At 1.2 times of:
  All C(H) groups, All N(H) groups
 At 1.5 times of:
  All O(H) groups, All O(H,H) groups
2.a Riding coordinates:
 O4(H4), O5(H5a,H5b), O6(H6a,H6b)
2.b Aromatic/amide H refined with riding coordinates:
 C3(H3), C5(H5), C6(H6), N1(H1), C9(H9), C10(H10), C12(H12), C13(H13), C14(H14)
;
_iucr_refine_fcf_details
;
data_D17120115
_computing_structure_refinement   'olex2.refine 1.5 (Bourhis et al., 2015)'
_shelx_refln_list_code            4
loop_
  _space_group_symop_id
  _space_group_symop_operation_xyz
  1  x,y,z
  2  -x,-y,-z

_space_group_crystal_system       triclinic
_space_group_IT_number            2
_space_group_name_H-M_alt         'P -1'
_space_group_name_Hall            '-P 1'
_symmetry_space_group_name_H-M    'P -1'
_symmetry_space_group_name_Hall   '-P 1'
_symmetry_Int_Tables_number       2
_cell_length_a                    6.9693(3)
_cell_length_b                    8.6514(5)
_cell_length_c                    13.6726(8)
_cell_angle_alpha                 72.774(5)
_cell_angle_beta                  81.547(4)
_cell_angle_gamma                 74.370(4)
_cell_volume                      756.26(7)
loop_
  _refln_index_h
  _refln_index_k
  _refln_index_l
  _refln_F_squared_calc
  _refln_F_squared_meas
  _refln_F_squared_sigma
  _refln_F_squared_weight
  _refln_observed_status
-8 -3 1 16.143 10.383 10.150 59.658 o
-7 -6 1 46.336 51.895 13.255 33.166 o
-7 -6 2 1.486 17.839 10.111 61.716 o
-7 -5 1 81.685 76.166 15.873 22.661 o
-7 -5 2 4.207 8.020 7.736 104.504 o
-7 -5 3 102.929 98.724 16.128 21.282 o
-7 -4 1 53.175 52.297 11.910 39.622 o
-7 -4 2 30.934 35.879 12.080 40.759 o
-7 -4 3 166.910 140.964 25.657 8.843 o
-7 -4 4 16.056 26.470 8.883 74.837 o
-7 -4 5 5.370 11.125 7.602 106.852 o
-7 -3 1 93.440 108.552 20.898 13.505 o
-7 -3 2 125.432 113.976 21.198 12.856 o
-7 -3 3 117.968 115.773 22.363 11.727 o
-7 -3 4 14.090 16.657 9.318 69.911 o
-7 -3 5 25.675 30.688 8.212 82.808 o
-7 -2 1 80.721 83.908 13.294 30.631 o
-7 -2 2 7.247 6.622 7.521 109.252 o
-7 -2 3 0.270 -6.888 7.987 101.364 o
-7 -2 4 8.359 15.041 10.482 56.808 o
-7 -2 5 18.950 27.860 9.928 60.431 o
-7 -1 1 5.061 9.316 5.694 185.549 o
-7 -1 2 11.097 10.441 7.188 115.921 o
-7 -1 3 182.801 176.535 30.682 6.298 o
-7 -1 4 94.193 102.671 13.565 28.660 o
-7 -1 5 70.758 64.664 11.400 40.832 o
-7 -1 6 21.635 31.381 10.749 51.671 o
-7 0 1 30.826 45.158 12.280 39.247 o
-7 0 2 24.492 28.124 11.065 48.852 o
-7 0 3 139.879 164.041 25.690 8.891 o
-7 0 4 137.928 134.142 20.067 13.931 o
-7 0 5 2.873 3.126 11.913 45.246 o
-7 0 6 4.974 20.399 11.181 50.216 o
-7 1 1 142.465 129.450 20.732 13.141 o
-7 1 2 24.023 19.254 7.386 102.265 o
-7 1 3 25.395 27.135 9.214 68.081 o
-7 1 4 4.048 1.573 5.707 191.554 o
-7 1 5 2.524 3.389 6.148 166.532 o
-7 2 1 71.701 50.682 8.902 61.072 o
-7 2 2 0.459 0.994 6.196 167.552 o
-7 2 3 0.553 4.536 6.205 165.041 o
-7 2 4 97.429 111.389 15.862 21.875 o
-6 -7 1 85.332 117.465 17.940 17.822 o
-6 -7 2 43.374 43.338 11.284 44.721 o
-6 -6 1 8.097 5.189 12.928 38.105 o
-6 -6 2 19.087 21.238 8.922 74.156 o
-6 -6 3 23.536 28.590 16.980 21.705 o
-6 -6 4 67.593 56.496 12.466 35.608 o
-6 -6 5 16.677 10.249 8.453 84.010 o
-6 -5 1 17.263 26.641 9.215 69.715 o
-6 -5 2 263.614 229.511 22.128 10.437 o
-6 -5 3 108.945 119.999 12.758 30.488 o
-6 -5 4 130.463 135.161 13.341 27.255 o
-6 -5 5 4.977 -1.634 7.281 119.251 o
-6 -5 6 5.773 13.012 11.381 48.794 o
-6 -4 1 87.085 102.566 14.516 25.866 o
-6 -4 2 72.400 74.601 13.164 31.753 o
-6 -4 3 76.210 81.360 10.280 46.751 o
-6 -4 4 7.118 5.056 4.652 268.729 o
-6 -4 5 0.979 -0.158 8.419 90.995 o
-6 -4 6 7.734 16.155 10.050 61.621 o
-6 -4 7 12.286 18.039 14.892 28.484 o
-6 -3 1 75.065 85.241 8.070 65.949 o
-6 -3 2 11.742 10.632 3.880 333.419 o
-6 -3 3 7.339 11.795 3.889 350.004 o
-6 -3 4 12.259 11.227 3.868 331.381 o
-6 -3 5 222.989 213.297 14.900 19.510 o
-6 -3 6 269.447 252.693 15.771 16.726 o
-6 -3 7 142.473 169.792 13.659 25.232 o
-6 -3 8 11.236 -0.051 7.987 97.122 o
-6 -2 1 28.427 23.840 9.551 63.604 o
-6 -2 2 11.167 7.669 4.577 261.251 o
-6 -2 3 45.123 53.663 9.236 61.830 o
-6 -2 4 38.078 46.633 7.253 93.843 o
-6 -2 5 67.738 79.437 11.992 37.266 o
-6 -2 6 152.733 141.806 11.596 31.876 o
-6 -2 7 89.760 80.141 10.991 41.066 o
-6 -2 8 5.813 9.542 5.341 207.383 o
-6 -1 1 142.464 157.899 12.396 29.227 o
-6 -1 2 261.330 263.200 15.035 17.829 o
-6 -1 3 209.210 205.165 12.175 25.822 o
-6 -1 4 5.911 10.489 3.991 344.971 o
-6 -1 5 42.519 40.275 9.230 63.509 o
-6 -1 6 3.012 2.244 3.967 385.714 o
-6 -1 7 4.755 7.684 5.086 230.733 o
-6 -1 8 7.197 14.547 5.754 175.866 o
-6 -1 9 170.858 167.824 16.261 18.786 o
-6 0 1 237.633 246.539 10.207 28.496 o
-6 0 2 307.753 300.625 12.453 20.091 o
-6 0 3 88.660 106.933 7.368 68.116 o
-6 0 4 0.783 0.451 3.776 445.942 o
-6 0 5 136.380 123.965 9.931 40.904 o
-6 0 6 63.687 59.345 7.811 74.712 o
-6 0 7 84.769 80.939 11.304 39.671 o
-6 0 8 20.067 24.793 6.428 130.135 o
-6 0 9 91.798 126.752 14.260 26.066 o
-6 1 1 298.530 293.943 14.261 17.759 o
-6 1 2 143.592 133.387 8.355 48.441 o
-6 1 3 0.308 -0.063 4.127 378.372 o
-6 1 4 13.005 10.556 12.546 39.935 o
-6 1 5 79.657 78.167 12.479 34.233 o
-6 1 6 80.230 85.945 12.651 33.228 o
-6 1 7 68.057 77.008 13.197 31.764 o
-6 1 8 13.002 19.578 8.396 84.774 o
-6 1 9 58.322 52.113 13.943 29.773 o
-6 2 1 0.507 3.943 4.608 296.106 o
-6 2 2 18.687 14.324 9.259 70.055 o
-6 2 3 128.798 139.029 11.454 33.924 o
-6 2 4 193.727 196.419 13.532 23.317 o
-6 2 5 34.263 52.921 10.890 48.025 o
-6 2 6 7.953 9.244 5.451 196.616 o
-6 2 7 0.911 10.597 12.046 44.124 o
-6 2 8 17.041 5.591 6.829 125.140 o
-6 3 1 113.704 124.390 15.114 23.090 o
-6 3 2 90.899 90.410 11.594 37.364 o
-6 3 3 124.466 160.462 13.000 28.040 o
-6 3 4 205.565 196.921 14.608 20.700 o
-6 3 5 65.997 58.120 12.281 36.576 o
-6 3 6 60.256 59.012 12.137 37.658 o
-6 3 7 31.405 39.271 11.532 44.192 o
-6 4 1 256.147 257.250 21.385 10.958 o
-6 4 2 42.188 37.406 9.194 64.235 o
-6 4 3 8.683 5.785 4.977 233.584 o
-6 4 4 2.921 7.460 5.407 209.321 o
-6 4 5 65.935 60.716 9.498 55.457 o
-5 -8 1 120.188 114.062 17.450 18.139 o
-5 -8 2 2.648 2.552 6.348 156.762 o
-5 -7 1 128.706 132.917 17.448 17.835 o
-5 -7 2 12.709 15.480 7.531 104.453 o
-5 -7 3 87.115 81.212 11.239 39.842 o
-5 -7 4 53.100 64.119 17.471 19.707 o
-5 -7 5 205.649 209.616 23.893 9.620 o
-5 -6 1 3.193 12.380 7.366 114.271 o
-5 -6 2 23.834 22.671 6.705 119.630 o
-5 -6 3 150.188 150.977 13.786 24.953 o
-5 -6 4 60.761 57.672 10.668 46.796 o
-5 -6 5 187.921 194.937 14.708 20.999 o
-5 -6 6 1.407 -0.996 4.622 297.997 o
-5 -5 1 429.289 463.511 33.011 4.745 o
-5 -5 2 541.258 533.050 24.323 6.770 o
-5 -5 3 152.467 163.909 13.437 25.574 o
-5 -5 4 37.127 39.121 7.485 91.065 o
-5 -5 5 16.181 25.175 5.054 196.241 o
-5 -5 6 264.559 252.171 18.007 14.064 o
-5 -5 7 244.989 218.149 30.050 6.327 o
-5 -5 8 21.809 20.599 12.246 40.888 o
-5 -4 1 278.227 289.678 11.613 22.672 o
-5 -4 2 675.016 665.752 18.035 7.799 o
-5 -4 3 80.255 78.738 5.543 100.600 o
-5 -4 4 80.812 79.159 6.811 80.661 o
-5 -4 5 43.993 50.668 4.992 148.671 o
-5 -4 6 114.887 118.971 8.383 53.212 o
-5 -4 7 175.036 178.897 14.864 21.240 o
-5 -4 8 96.712 102.582 10.664 41.400 o
-5 -4 9 17.919 25.900 9.745 62.865 o
-5 -3 1 128.300 126.510 8.217 51.878 o
-5 -3 2 31.564 33.516 4.247 210.367 o
-5 -3 3 2.765 8.470 3.255 523.266 o
-5 -3 4 557.255 544.395 15.356 10.532 o
-5 -3 5 149.944 159.066 7.654 50.056 o
-5 -3 6 107.431 115.708 10.176 42.623 o
-5 -3 7 2.516 2.175 4.442 313.540 o
-5 -3 8 30.679 21.956 6.105 134.354 o
-5 -3 9 0.425 8.037 5.437 210.943 o
-5 -3 10 55.913 45.613 8.390 70.567 o
-5 -2 1 156.647 171.615 8.077 45.992 o
-5 -2 2 249.867 271.865 9.799 28.161 o
-5 -2 3 589.890 555.119 25.933 6.011 o
-5 -2 4 810.254 771.945 16.519 6.978 o
-5 -2 5 271.616 275.976 12.982 20.678 o
-5 -2 6 0.784 1.371 3.661 469.867 o
-5 -2 7 5.347 4.393 5.679 189.468 o
-5 -2 8 298.646 303.907 17.367 13.915 o
-5 -2 9 88.676 92.467 10.475 43.688 o
-5 -2 10 126.002 121.361 12.507 30.535 o
-5 -1 1 400.887 393.172 10.374 18.700 o
-5 -1 2 722.398 716.697 16.009 7.923 o
-5 -1 3 286.793 295.260 13.487 19.161 o
-5 -1 4 66.071 66.488 6.928 85.836 o
-5 -1 5 6.820 10.572 3.018 530.946 o
-5 -1 6 17.061 12.943 4.197 273.509 o
-5 -1 7 85.281 82.441 8.900 56.299 o
-5 -1 8 171.384 180.832 13.367 24.756 o
-5 -1 9 218.372 259.514 16.575 16.502 o
-5 -1 10 15.716 6.932 5.310 195.458 o
-5 -1 11 1.332 -1.452 7.909 102.915 o
-5 0 1 191.956 188.883 7.853 42.038 o
-5 0 2 72.284 61.477 6.504 91.389 o
-5 0 3 122.509 118.308 8.356 52.344 o
-5 0 4 97.948 113.800 9.375 48.753 o
-5 0 5 97.408 105.444 7.241 67.591 o
-5 0 6 199.153 210.026 12.899 24.357 o
-5 0 7 134.404 139.780 11.016 35.360 o
-5 0 8 137.855 146.227 12.130 30.647 o
-5 0 9 17.206 10.849 9.028 74.124 o
-5 0 10 7.959 2.255 4.870 248.691 o
-5 0 11 63.954 49.676 9.791 53.878 o
-5 1 1 1.827 4.025 2.357 992.287 o
-5 1 2 97.300 107.161 6.814 71.923 o
-5 1 3 108.618 109.127 5.417 84.103 o
-5 1 4 634.029 629.739 15.025 9.421 o
-5 1 5 867.247 831.566 20.789 5.570 o
-5 1 6 100.600 91.641 8.452 56.997 o
-5 1 7 81.844 85.403 8.640 58.947 o
-5 1 8 5.248 10.736 4.695 261.620 o
-5 1 9 305.251 324.305 18.380 12.707 o
-5 1 10 203.411 204.011 15.411 19.186 o
-5 1 11 29.776 47.487 9.812 58.606 o
-5 2 1 35.214 43.438 4.247 195.243 o
-5 2 2 232.554 238.821 8.559 33.644 o
-5 2 3 51.496 50.702 4.029 174.881 o
-5 2 4 168.875 164.037 8.905 40.977 o
-5 2 5 118.335 130.839 8.966 47.962 o
-5 2 6 81.659 77.227 7.740 69.055 o
-5 2 7 6.777 6.312 3.915 362.603 o
-5 2 8 1.582 8.853 4.814 262.072 o
-5 2 9 87.302 91.697 10.163 45.854 o
-5 2 10 108.818 112.154 11.729 34.842 o
-5 2 11 3.820 13.499 6.704 135.897 o
-5 3 1 156.055 155.281 7.552 50.056 o
-5 3 2 540.536 555.880 13.383 11.755 o
-5 3 3 129.591 132.893 8.669 48.322 o
-5 3 4 152.231 149.802 11.874 30.696 o
-5 3 5 74.514 76.258 8.901 58.477 o
-5 3 6 263.616 232.314 20.162 12.038 o
-5 3 7 204.180 217.505 20.265 12.602 o
-5 3 8 33.905 39.011 18.918 17.397 o
-5 3 9 70.252 84.917 14.060 28.243 o
-5 3 10 0.792 11.847 10.616 56.583 o
-5 4 1 29.074 33.075 5.705 145.367 o
-5 4 2 59.239 53.788 8.082 72.878 o
-5 4 3 0.046 -4.412 4.629 301.929 o
-5 4 4 17.526 22.882 5.613 165.995 o
-5 4 5 4.622 8.694 4.751 260.518 o
-5 4 6 466.819 543.917 32.354 4.733 o
-5 4 7 141.381 137.030 29.051 7.131 o
-5 4 8 19.685 39.684 11.282 47.038 o
-5 4 9 5.911 9.641 8.702 82.501 o
-5 5 1 0.771 2.832 4.699 285.965 o
-5 5 2 7.528 6.029 4.415 291.978 o
-5 5 3 92.731 80.556 12.163 34.844 o
-5 5 4 96.192 101.065 10.954 39.901 o
-5 5 5 48.246 56.054 8.794 66.081 o
-5 5 6 56.444 47.060 10.613 48.186 o
-5 5 7 122.989 133.409 17.716 17.472 o
-5 5 8 31.462 4.792 12.512 39.143 o
-5 6 1 21.305 26.366 14.126 31.040 o
-5 6 2 92.053 103.325 14.256 26.476 o
-5 6 3 87.776 92.213 19.101 16.062 o
-5 6 4 87.080 88.501 12.919 31.700 o
-4 -9 1 26.880 37.660 12.542 38.230 o
-4 -8 1 4.614 1.759 8.386 90.255 o
-4 -8 2 2.409 6.607 7.085 125.352 o
-4 -8 3 17.088 26.289 16.606 22.825 o
-4 -8 4 35.093 44.992 19.068 17.083 o
-4 -7 1 57.706 58.546 8.265 70.318 o
-4 -7 2 530.938 525.747 25.082 6.574 o
-4 -7 3 33.649 33.878 7.396 95.118 o
-4 -7 4 182.894 197.451 20.477 12.698 o
-4 -7 5 40.412 62.428 9.181 62.498 o
-4 -7 6 95.212 111.032 20.100 14.463 o
-4 -6 1 210.810 201.183 10.855 29.406 o
-4 -6 2 383.570 377.772 13.076 16.346 o
-4 -6 3 527.490 517.123 16.144 10.592 o
-4 -6 4 42.329 48.385 9.373 61.248 o
-4 -6 5 0.142 3.075 4.547 306.816 o
-4 -6 6 27.538 26.806 6.924 110.351 o
-4 -6 7 5.303 16.264 6.724 133.081 o
-4 -6 8 189.174 225.556 26.456 8.107 o
-4 -5 1 383.721 370.644 12.466 17.098 o
-4 -5 2 12.420 17.030 3.421 379.008 o
-4 -5 3 8.762 8.380 2.184 802.443 o
-4 -5 4 19.339 16.267 3.412 345.527 o
-4 -5 5 84.269 87.661 7.769 66.987 o
-4 -5 6 23.622 22.779 5.953 145.291 o
-4 -5 7 82.926 84.136 11.559 38.320 o
-4 -5 8 69.873 79.228 9.770 51.388 o
-4 -5 9 46.998 64.426 21.830 12.996 o
-4 -4 1 130.979 135.559 6.359 64.605 o
-4 -4 2 180.293 171.503 8.796 40.012 o
-4 -4 3 474.890 484.013 15.892 11.559 o
-4 -4 4 395.731 398.911 10.387 18.753 o
-4 -4 5 818.154 796.517 18.725 6.330 o
-4 -4 6 228.917 222.213 11.966 25.157 o
-4 -4 7 259.157 246.593 16.313 16.244 o
-4 -4 8 86.202 93.410 10.025 46.803 o
-4 -4 9 15.513 6.882 6.760 128.038 o
-4 -4 10 45.724 36.361 13.943 30.604 o
-4 -3 1 1.545 1.603 1.465 2363.920 o
-4 -3 2 523.788 530.472 10.824 13.785 o
-4 -3 3 313.807 310.455 12.465 19.750 o
-4 -3 4 412.071 403.353 8.122 20.649 o
-4 -3 5 103.558 111.635 5.338 86.471 o
-4 -3 6 76.001 80.968 6.725 83.128 o
-4 -3 7 0.606 -0.108 2.692 874.937 o
-4 -3 8 14.671 9.756 3.512 373.134 o
-4 -3 9 81.272 85.185 9.465 51.980 o
-4 -3 10 49.296 69.121 9.398 58.234 o
-4 -3 11 98.181 110.685 12.165 33.638 o
-4 -2 1 344.922 341.933 8.473 24.212 o
-4 -2 2 139.829 138.322 5.566 68.613 o
-4 -2 3 263.249 243.710 8.406 31.702 o
-4 -2 4 111.434 115.015 4.809 89.071 o
-4 -2 5 216.248 220.105 6.408 43.313 o
-4 -2 6 39.225 39.746 2.951 264.920 o
-4 -2 7 331.753 322.508 10.803 21.520 o
-4 -2 8 587.433 592.773 18.433 8.570 o
-4 -2 9 4.839 7.399 4.752 261.539 o
-4 -2 10 42.073 45.454 7.837 82.197 o
-4 -2 11 75.008 83.965 10.203 47.277 o
-4 -2 12 0.705 2.920 6.123 170.160 o
-4 -1 1 592.308 572.382 9.303 12.989 o
-4 -1 2 639.616 620.995 12.355 10.528 o
-4 -1 3 5.513 9.968 2.127 899.998 o
-4 -1 4 314.905 308.883 6.109 30.850 o
-4 -1 5 399.618 414.551 8.454 20.537 o
-4 -1 6 318.579 313.730 7.450 28.026 o
-4 -1 7 778.164 772.248 15.736 7.392 o
-4 -1 8 493.144 512.185 13.922 12.422 o
-4 -1 9 238.929 252.457 15.274 18.075 o
-4 -1 10 304.716 276.209 16.812 14.628 o
-4 -1 11 7.139 6.401 10.500 57.344 o
-4 -1 12 58.597 54.632 11.831 39.614 o
-4 0 1 359.951 332.364 7.039 25.860 o
-4 0 2 1.525 1.326 0.957 4410.320 o
-4 0 3 85.601 92.843 5.231 99.774 o
-4 0 4 372.968 395.247 11.347 18.349 o
-4 0 5 8.024 6.921 2.199 834.629 o
-4 0 6 398.337 400.032 9.777 19.344 o
-4 0 7 132.431 136.082 6.356 64.249 o
-4 0 8 76.026 91.008 7.288 74.115 o
-4 0 9 45.665 57.480 7.902 78.433 o
-4 0 10 114.308 118.306 10.944 37.891 o
-4 0 11 96.600 93.897 11.480 37.417 o
-4 0 12 43.051 48.498 8.422 72.747 o
-4 1 1 218.481 226.547 7.398 39.142 o
-4 1 2 310.695 315.542 7.379 28.574 o
-4 1 3 1504.980 1477.320 20.942 2.879 o
-4 1 4 795.044 767.511 14.393 7.640 o
-4 1 5 314.967 289.724 10.255 23.702 o
-4 1 6 149.402 133.214 8.598 46.307 o
-4 1 7 61.006 54.209 3.818 167.465 o
-4 1 8 162.956 153.757 14.982 21.647 o
-4 1 9 12.495 11.663 13.394 35.158 o
-4 1 10 153.118 139.772 15.460 21.056 o
-4 1 11 161.088 178.900 17.680 16.550 o
-4 1 12 3.791 14.447 7.407 112.233 o
-4 2 1 668.720 667.080 13.012 9.664 o
-4 2 2 1134.400 1122.750 18.339 4.391 o
-4 2 3 626.688 589.877 9.511 12.160 o
-4 2 4 90.239 80.765 5.013 104.067 o
-4 2 5 0.193 0.038 4.216 363.055 o
-4 2 6 81.304 86.350 11.258 39.986 o
-4 2 7 241.110 234.947 18.196 14.286 o
-4 2 8 402.651 403.527 28.486 6.142 o
-4 2 9 145.300 169.911 17.005 17.970 o
-4 2 10 453.856 473.829 57.903 1.776 o
-4 2 11 23.393 38.281 9.779 60.621 o
-4 2 12 12.704 11.428 8.023 93.697 o
-4 3 1 833.544 812.508 12.970 7.525 o
-4 3 2 223.510 223.016 6.796 40.919 o
-4 3 3 98.929 88.787 3.662 118.698 o
-4 3 4 20.497 21.239 2.923 389.809 o
-4 3 5 358.300 371.838 10.264 20.519 o
-4 3 6 133.634 151.861 10.360 37.880 o
-4 3 7 44.068 44.166 10.732 48.705 o
-4 3 8 18.064 19.982 15.857 25.021 o
-4 3 9 22.571 22.223 8.507 79.785 o
-4 3 10 61.826 73.318 12.152 37.024 o
-4 3 11 3.417 18.470 12.146 42.934 o
-4 3 12 26.255 13.278 8.952 72.995 o
-4 4 1 72.647 65.326 5.096 117.268 o
-4 4 2 27.891 31.890 3.903 242.163 o
-4 4 3 59.114 76.021 6.307 97.293 o
-4 4 4 149.409 167.679 8.522 44.722 o
-4 4 5 477.302 492.709 16.473 11.105 o
-4 4 6 589.425 570.721 30.750 4.777 o
-4 4 7 1.773 8.037 6.004 172.527 o
-4 4 8 2.518 5.434 6.299 157.850 o
-4 4 9 24.307 22.867 8.763 75.175 o
-4 4 10 148.501 173.113 18.974 14.956 o
-4 4 11 56.455 69.833 21.913 12.811 o
-4 5 1 140.525 144.225 9.640 41.078 o
-4 5 2 705.125 697.420 26.370 5.241 o
-4 5 3 300.828 316.959 14.120 17.635 o
-4 5 4 71.242 79.720 7.573 73.268 o
-4 5 5 3.173 10.837 3.837 382.965 o
-4 5 6 139.694 151.840 12.831 28.101 o
-4 5 7 38.175 53.964 14.359 28.944 o
-4 5 8 78.821 85.903 14.022 28.032 o
-4 5 9 91.996 92.319 14.464 26.029 o
-4 5 10 63.851 73.132 13.804 29.652 o
-4 6 1 168.269 186.058 14.245 22.671 o
-4 6 2 565.263 532.552 20.498 8.088 o
-4 6 3 131.868 139.921 10.266 38.943 o
-4 6 4 30.163 31.305 5.615 148.565 o
-4 6 5 0.862 -5.575 4.872 270.228 o
-4 6 6 19.045 30.205 7.286 104.472 o
-4 6 7 2.810 2.640 10.383 59.467 o
-4 6 8 69.202 67.596 12.680 34.193 o
-4 6 9 28.199 24.858 13.344 34.301 o
-4 7 1 33.887 41.182 7.812 85.767 o
-4 7 2 145.447 135.170 12.903 27.985 o
-4 7 3 2.268 -4.116 6.330 159.264 o
-4 7 4 42.138 43.095 13.644 31.858 o
-4 7 5 87.165 90.504 13.143 30.767 o
-4 7 6 71.822 59.867 16.639 21.222 o
-3 -9 1 118.473 115.142 16.836 19.299 o
-3 -9 2 1.165 6.630 7.400 115.799 o
-3 -8 1 4.440 5.710 4.527 289.757 o
-3 -8 2 2.880 4.205 3.932 387.139 o
-3 -8 3 224.594 210.958 13.089 23.012 o
-3 -8 4 165.327 135.542 20.050 13.654 o
-3 -8 5 220.311 229.801 21.951 10.898 o
-3 -7 1 256.873 242.263 14.105 19.653 o
-3 -7 2 422.989 429.572 16.855 11.875 o
-3 -7 3 10.634 8.961 4.073 316.550 o
-3 -7 4 82.437 104.839 8.782 56.023 o
-3 -7 5 39.381 43.538 6.439 112.051 o
-3 -7 6 18.625 23.682 7.190 108.636 o
-3 -7 7 44.010 45.981 15.324 25.604 o
-3 -6 1 1046.700 1035.210 20.693 4.536 o
-3 -6 2 1197.910 1225.380 22.910 3.614 o
-3 -6 3 275.621 284.139 10.853 24.337 o
-3 -6 4 2.142 1.628 3.771 432.588 o
-3 -6 5 36.518 36.921 4.801 172.061 o
-3 -6 6 645.717 604.655 20.668 7.290 o
-3 -6 7 236.625 234.929 24.538 8.963 o
-3 -6 8 205.726 204.072 22.671 10.528 o
-3 -6 9 67.096 64.159 13.428 31.166 o
-3 -5 1 510.749 504.834 11.382 13.905 o
-3 -5 2 49.966 52.792 4.165 170.398 o
-3 -5 3 15.468 16.704 2.717 479.034 o
-3 -5 4 218.374 221.288 9.068 33.760 o
-3 -5 5 154.553 153.685 9.513 39.971 o
-3 -5 6 792.507 807.312 22.140 5.654 o
-3 -5 7 86.583 102.314 10.923 40.801 o
-3 -5 8 2.866 7.348 8.496 87.654 o
-3 -5 9 28.123 22.869 6.684 117.661 o
-3 -5 10 36.216 20.433 10.150 56.173 o
-3 -4 1 68.055 74.044 3.436 158.048 o
-3 -4 2 35.206 38.748 2.983 277.073 o
-3 -4 3 691.826 690.942 15.463 8.449 o
-3 -4 4 543.834 514.008 15.884 10.571 o
-3 -4 5 340.408 330.457 11.903 19.492 o
-3 -4 6 550.047 572.107 29.107 5.261 o
-3 -4 7 195.445 215.606 13.259 23.555 o
-3 -4 8 349.242 320.141 17.090 13.365 o
-3 -4 9 96.945 91.144 10.894 40.571 o
-3 -4 10 52.326 58.641 8.698 66.165 o
-3 -4 11 143.548 154.409 24.259 9.865 o
-3 -3 1 641.326 646.465 9.919 11.335 o
-3 -3 2 1450.400 1409.940 16.009 3.324 o
-3 -3 3 3495.830 3468.890 38.947 0.674 o
-3 -3 4 946.876 953.806 16.369 5.741 o
-3 -3 5 2.259 4.537 1.747 1542.440 o
-3 -3 6 45.531 64.581 5.691 121.089 o
-3 -3 7 144.521 147.366 8.843 44.690 o
-3 -3 8 485.377 484.733 16.833 10.836 o
-3 -3 9 481.443 492.332 17.939 10.182 o
-3 -3 10 285.567 308.455 17.784 13.635 o
-3 -3 11 35.902 41.461 7.666 87.712 o
-3 -3 12 0.066 6.423 9.418 72.304 o
-3 -2 1 1025.920 1019.240 12.160 5.794 o
-3 -2 2 1586.410 1530.940 17.199 2.870 o
-3 -2 3 68.184 67.446 3.593 157.490 o
-3 -2 4 759.771 781.428 11.691 8.592 o
-3 -2 5 597.627 617.855 10.898 11.769 o
-3 -2 6 394.960 398.327 8.863 20.532 o
-3 -2 7 706.818 687.166 15.592 8.297 o
-3 -2 8 226.237 236.609 12.239 24.354 o
-3 -2 9 2.019 5.139 3.269 546.361 o
-3 -2 10 72.398 75.713 7.480 74.679 o
-3 -2 11 34.547 26.361 5.633 146.140 o
-3 -2 12 74.999 75.311 10.139 48.208 o
-3 -2 13 45.060 55.598 10.892 46.810 o
-3 -1 1 470.842 451.922 6.617 19.089 o
-3 -1 2 11.559 7.551 1.248 1183.120 o
-3 -1 3 5.441 7.128 1.564 1368.450 o
-3 -1 4 516.168 513.434 8.453 15.652 o
-3 -1 5 1688.540 1755.470 20.050 2.419 o
-3 -1 6 613.354 616.023 12.123 10.996 o
-3 -1 7 16.024 15.442 2.319 563.518 o
-3 -1 8 42.295 51.402 3.774 199.264 o
-3 -1 9 194.213 179.330 8.658 38.929 o
-3 -1 10 72.580 55.871 6.253 96.795 o
-3 -1 11 150.738 151.440 15.854 20.166 o
-3 -1 12 59.377 68.412 9.494 55.877 o
-3 -1 13 52.397 77.522 10.445 48.276 o
-3 0 1 49.539 52.377 2.438 245.166 o
-3 0 2 669.677 677.105 9.821 10.763 o
-3 0 3 2687.880 2676.620 28.291 1.112 o
-3 0 4 2291.080 2302.130 26.306 1.442 o
-3 0 5 1106.800 1113.040 16.122 4.751 o
-3 0 6 830.101 822.036 20.404 5.834 o
-3 0 7 79.852 75.032 4.127 129.582 o
-3 0 8 94.757 90.805 5.411 93.287 o
-3 0 9 587.209 592.066 14.885 10.167 o
-3 0 10 1444.470 1408.560 62.557 1.157 o
-3 0 11 109.577 144.983 15.028 23.130 o
-3 0 12 105.144 129.938 14.875 23.866 o
-3 0 13 2.264 5.054 5.688 192.813 o
-3 1 1 1555.910 1529.300 18.935 2.846 o
-3 1 2 307.009 291.746 6.246 31.788 o
-3 1 3 280.967 247.030 6.177 35.895 o
-3 1 4 732.693 719.503 21.015 6.399 o
-3 1 5 11.171 18.142 1.888 739.150 o
-3 1 6 39.126 41.614 3.289 241.740 o
-3 1 7 154.150 141.328 6.823 55.999 o
-3 1 8 65.035 62.014 5.898 105.739 o
-3 1 9 286.725 310.133 12.006 21.326 o
-3 1 10 58.109 55.562 19.135 16.615 o
-3 1 11 57.233 88.572 12.402 35.584 o
-3 1 12 21.424 23.067 7.943 90.342 o
-3 1 13 1.005 -7.107 6.177 168.522 o
-3 1 14 32.338 41.531 16.106 23.669 o
-3 2 1 1349.620 1407.380 17.907 3.443 o
-3 2 2 807.587 785.762 11.736 8.131 o
-3 2 3 149.444 134.625 4.834 72.326 o
-3 2 4 267.980 277.473 7.063 33.526 o
-3 2 5 153.966 149.905 9.747 39.104 o
-3 2 6 1359.960 1426.140 32.460 2.454 o
-3 2 7 394.628 374.774 15.633 13.641 o
-3 2 8 861.210 832.510 53.940 1.781 o
-3 2 9 588.522 611.707 33.789 4.137 o
-3 2 10 107.382 109.467 16.955 19.336 o
-3 2 11 350.500 368.780 30.699 5.640 o
-3 2 12 113.231 115.377 14.343 25.292 o
-3 2 13 50.322 62.806 23.710 11.076 o
-3 3 1 498.096 512.943 8.628 15.982 o
-3 3 2 133.242 143.308 4.534 78.494 o
-3 3 3 1048.480 1100.570 18.820 4.662 o
-3 3 4 382.711 368.651 9.847 20.287 o
-3 3 5 808.389 816.469 19.069 6.250 o
-3 3 6 385.484 375.825 12.344 17.129 o
-3 3 7 247.333 244.521 10.007 28.532 o
-3 3 8 27.010 36.002 5.638 148.419 o
-3 3 9 0.295 2.264 6.007 177.626 o
-3 3 10 114.351 118.539 32.629 5.801 o
-3 3 11 297.400 318.094 51.131 2.328 o
-3 3 12 46.388 44.583 17.454 20.034 o
-3 3 13 38.843 65.353 16.888 21.259 o
-3 4 1 0.823 3.043 1.367 2630.460 o
-3 4 2 25.344 29.328 2.417 397.145 o
-3 4 3 397.430 408.651 10.490 18.446 o
-3 4 4 276.737 273.583 9.762 26.795 o
-3 4 5 1178.190 1217.890 31.553 2.896 o
-3 4 6 97.860 85.785 10.577 42.539 o
-3 4 7 10.303 7.426 4.360 286.632 o
-3 4 8 102.745 92.330 35.757 4.898 o
-3 4 9 5.839 3.180 12.413 41.503 o
-3 4 10 189.801 204.048 18.327 15.042 o
-3 4 11 17.579 18.491 13.960 32.073 o
-3 4 12 47.521 50.941 11.511 42.536 o
-3 5 1 448.778 449.089 10.940 16.137 o
-3 5 2 233.234 240.592 7.426 36.996 o
-3 5 3 380.739 398.646 9.739 19.983 o
-3 5 4 88.273 82.963 5.515 96.319 o
-3 5 5 4.672 6.348 6.053 167.546 o
-3 5 6 59.482 55.180 7.603 79.344 o
-3 5 7 682.277 640.349 31.684 4.302 o
-3 5 8 321.986 297.817 22.049 9.816 o
-3 5 9 120.398 121.029 15.707 21.554 o
-3 5 10 36.648 38.561 8.400 75.793 o
-3 5 11 2.898 7.786 11.747 46.328 o
-3 5 12 2.632 -7.011 20.682 15.108 o
-3 6 1 567.337 560.358 17.846 9.126 o
-3 6 2 5.652 12.447 3.819 367.606 o
-3 6 3 113.891 120.202 9.885 43.455 o
-3 6 4 58.601 61.220 7.309 83.166 o
-3 6 5 104.010 110.180 10.372 42.074 o
-3 6 6 142.545 162.454 12.987 27.274 o
-3 6 7 121.937 122.988 17.354 18.201 o
-3 6 8 457.597 410.862 42.030 3.170 o
-3 6 9 2.712 1.778 11.714 46.861 o
-3 6 10 0.336 -14.217 9.734 68.254 o
-3 6 11 26.576 -2.429 16.339 23.637 o
-3 7 1 89.461 113.783 10.921 40.109 o
-3 7 2 46.047 38.025 6.962 98.246 o
-3 7 3 21.506 29.753 5.196 177.470 o
-3 7 4 59.273 80.586 8.926 60.400 o
-3 7 5 167.947 141.382 12.227 28.949 o
-3 7 6 92.458 80.915 9.507 50.497 o
-3 7 7 49.442 44.035 13.910 30.427 o
-3 7 8 13.529 3.098 7.279 113.888 o
-3 7 9 7.001 -26.056 17.737 20.458 o
-3 8 1 17.068 18.273 17.055 21.747 o
-3 8 2 91.385 109.889 15.175 23.765 o
-3 8 3 79.210 93.808 12.681 32.945 o
-3 8 4 151.865 152.112 21.963 11.714 o
-3 8 5 8.169 13.411 9.018 76.037 o
-3 8 6 1.478 -23.228 12.646 40.382 o
-2 -9 1 13.406 15.524 8.702 79.750 o
-2 -9 2 13.305 13.656 6.973 120.328 o
-2 -9 3 29.769 36.255 12.230 39.911 o
-2 -8 1 161.216 174.974 15.976 19.434 o
-2 -8 2 72.506 100.777 13.325 30.502 o
-2 -8 3 412.961 417.287 21.055 9.311 o
-2 -8 4 467.127 481.660 20.769 8.826 o
-2 -8 5 51.777 52.778 9.703 56.135 o
-2 -7 1 745.737 742.964 29.012 4.522 o
-2 -7 2 51.070 53.036 5.931 115.228 o
-2 -7 3 45.619 42.404 6.709 102.867 o
-2 -7 4 180.997 188.003 11.710 28.772 o
-2 -7 5 2.928 7.388 3.538 456.125 o
-2 -7 6 86.446 95.570 9.284 52.031 o
-2 -7 7 142.311 144.748 11.714 31.950 o
-2 -6 1 293.616 299.357 12.392 20.639 o
-2 -6 2 67.616 68.811 5.260 115.796 o
-2 -6 3 529.885 522.973 17.125 10.002 o
-2 -6 4 46.254 51.945 5.178 139.901 o
-2 -6 5 461.844 458.591 21.070 8.796 o
-2 -6 6 112.514 138.829 12.593 30.458 o
-2 -6 7 284.140 296.170 18.926 12.615 o
-2 -6 8 27.662 31.428 7.480 96.142 o
-2 -6 9 1.582 5.341 6.472 150.665 o
-2 -5 1 31.593 28.422 3.767 246.833 o
-2 -5 2 196.074 198.019 8.030 40.399 o
-2 -5 3 555.795 567.286 13.067 11.639 o
-2 -5 4 1349.230 1342.740 23.864 3.101 o
-2 -5 5 400.919 382.130 12.262 16.773 o
-2 -5 6 69.972 72.025 5.881 101.122 o
-2 -5 7 335.397 367.124 19.154 11.476 o
-2 -5 8 98.402 104.984 11.119 38.710 o
-2 -5 9 95.508 99.977 11.632 36.543 o
-2 -5 10 438.260 415.507 23.624 7.857 o
-2 -4 1 1869.680 1904.600 21.524 2.060 o
-2 -4 2 2191.840 2170.520 25.654 1.564 o
-2 -4 3 807.282 751.390 15.741 7.261 o
-2 -4 4 374.885 361.933 10.834 19.405 o
-2 -4 5 86.143 86.790 4.967 105.434 o
-2 -4 6 7.615 6.195 4.744 256.571 o
-2 -4 7 41.957 32.953 3.622 225.899 o
-2 -4 8 192.905 190.759 12.687 25.483 o
-2 -4 9 257.228 275.959 16.101 16.294 o
-2 -4 10 264.205 256.667 16.284 16.101 o
-2 -4 11 44.993 54.372 22.462 12.352 o
-2 -4 12 12.323 30.383 14.443 30.008 o
-2 -3 1 1314.930 1337.270 15.584 3.775 o
-2 -3 2 37.839 34.293 2.664 298.717 o
-2 -3 3 1359.950 1372.610 20.901 3.257 o
-2 -3 4 399.304 470.543 9.254 18.773 o
-2 -3 5 137.338 149.925 5.234 70.417 o
-2 -3 6 714.835 697.711 14.372 8.586 o
-2 -3 7 79.740 80.424 6.032 92.333 o
-2 -3 8 321.773 319.986 15.695 15.234 o
-2 -3 9 320.130 290.893 17.331 13.741 o
-2 -3 10 7.824 6.429 4.608 269.272 o
-2 -3 11 1.188 -0.810 4.602 301.315 o
-2 -3 12 164.857 157.927 14.059 23.651 o
-2 -2 1 1527.260 1541.500 15.047 3.067 o
-2 -2 2 1768.360 1779.460 20.008 2.298 o
-2 -2 3 451.811 461.744 8.259 18.226 o
-2 -2 4 565.093 587.246 9.057 13.475 o
-2 -2 5 2091.680 2100.960 23.005 1.721 o
-2 -2 6 1557.130 1539.180 19.353 2.816 o
-2 -2 7 1673.000 1629.700 25.225 2.318 o
-2 -2 8 473.643 498.571 15.910 11.473 o
-2 -2 9 13.080 21.129 4.377 256.447 o
-2 -2 10 79.175 76.875 7.416 73.556 o
-2 -2 11 107.480 118.231 9.484 46.666 o
-2 -2 12 394.164 355.900 19.947 10.394 o
-2 -2 13 207.981 218.113 22.420 10.659 o
-2 -1 1 1862.290 1898.210 17.089 2.191 o
-2 -1 2 1558.890 1582.510 16.751 2.893 o
-2 -1 3 117.373 104.210 3.285 106.975 o
-2 -1 4 359.890 337.444 6.228 26.878 o
-2 -1 5 57.584 46.594 2.559 227.095 o
-2 -1 6 600.678 596.117 9.835 12.388 o
-2 -1 7 29.236 34.963 3.286 280.397 o
-2 -1 8 62.322 68.734 5.638 110.822 o
-2 -1 9 805.673 834.169 25.040 4.963 o
-2 -1 10 43.831 55.658 8.734 67.724 o
-2 -1 11 51.007 68.322 9.233 59.682 o
-2 -1 12 180.271 178.508 13.596 23.920 o
-2 -1 13 108.627 129.461 12.193 32.413 o
-2 -1 14 23.057 4.134 6.010 151.956 o
-2 0 1 4628.880 4737.860 31.304 0.436 o
-2 0 2 693.860 684.885 10.173 10.279 o
-2 0 3 3664.160 3695.880 33.831 0.644 o
-2 0 4 916.471 882.772 12.259 6.829 o
-2 0 5 33.377 23.386 2.384 369.511 o
-2 0 6 25.889 33.120 2.199 405.688 o
-2 0 7 17.702 17.277 1.889 624.670 o
-2 0 8 1155.050 1082.300 19.173 4.299 o
-2 0 9 1032.430 1036.150 23.740 4.181 o
-2 0 10 1349.730 1323.200 28.464 2.794 o
-2 0 11 322.418 282.607 13.121 18.928 o
-2 0 12 24.983 30.731 6.558 120.860 o
-2 0 13 76.011 78.183 9.625 51.837 o
-2 0 14 72.063 58.322 11.334 41.374 o
-2 1 1 6101.180 5993.230 41.287 0.265 o
-2 1 2 2264.470 2215.890 19.145 1.607 o
-2 1 3 99.630 93.018 3.804 114.573 o
-2 1 4 177.215 197.504 6.635 48.944 o
-2 1 5 1824.240 1921.230 20.258 2.137 o
-2 1 6 16.030 14.014 1.733 725.182 o
-2 1 7 1491.680 1467.340 23.531 2.768 o
-2 1 8 419.897 430.755 11.393 16.623 o
-2 1 9 462.212 467.660 12.744 14.155 o
-2 1 10 415.641 447.068 13.380 14.684 o
-2 1 11 8.804 12.702 3.489 403.601 o
-2 1 12 43.289 41.062 7.005 97.880 o
-2 1 13 120.203 115.096 23.344 10.833 o
-2 1 14 237.788 264.289 31.381 5.823 o
-2 2 1 1335.140 1293.310 12.708 3.968 o
-2 2 2 374.690 382.008 6.355 24.726 o
-2 2 3 561.296 588.138 9.458 13.332 o
-2 2 4 1135.770 1169.270 21.835 3.943 o
-2 2 5 1142.710 1130.090 17.936 4.396 o
-2 2 6 2002.850 2044.780 26.935 1.726 o
-2 2 7 10.893 12.854 2.427 627.275 o
-2 2 8 10.819 15.650 6.403 141.423 o
-2 2 9 103.533 91.256 7.594 64.295 o
-2 2 10 2.352 3.322 3.019 639.252 o
-2 2 11 186.430 186.230 11.680 28.634 o
-2 2 12 283.156 283.983 20.096 11.652 o
-2 2 13 20.013 17.628 14.376 30.228 o
-2 2 14 3.405 11.540 6.373 150.738 o
-2 2 15 30.574 68.186 19.168 16.825 o
-2 3 1 32.632 39.925 2.327 334.954 o
-2 3 2 293.884 316.515 7.754 28.848 o
-2 3 3 1950.210 1986.280 24.582 1.856 o
-2 3 4 1218.230 1247.660 18.689 3.919 o
-2 3 5 376.742 371.207 10.678 19.400 o
-2 3 6 46.321 47.901 4.080 182.156 o
-2 3 7 10.221 8.154 2.570 631.567 o
-2 3 8 22.863 15.164 3.680 302.033 o
-2 3 9 234.214 205.730 12.069 25.038 o
-2 3 10 17.981 16.194 4.313 255.586 o
-2 3 11 639.699 635.571 60.416 1.572 o
-2 3 12 200.796 235.034 46.406 2.866 o
-2 3 13 28.680 60.267 10.732 49.477 o
-2 3 14 20.575 52.789 10.707 50.968 o
-2 4 1 803.381 754.873 10.581 8.587 o
-2 4 2 2351.690 2267.820 25.474 1.429 o
-2 4 3 1126.110 1158.250 18.687 4.323 o
-2 4 4 1073.220 1059.710 19.049 4.618 o
-2 4 5 207.283 195.516 6.183 46.921 o
-2 4 6 459.679 462.531 17.439 10.861 o
-2 4 7 573.701 521.833 23.970 6.765 o
-2 4 8 526.365 463.274 18.764 9.452 o
-2 4 9 411.223 374.560 30.406 5.562 o
-2 4 10 19.545 29.933 5.472 166.345 o
-2 4 11 234.683 221.767 17.531 15.274 o
-2 4 12 16.502 20.952 12.163 41.785 o
-2 4 13 54.175 38.119 9.725 56.618 o
-2 4 14 94.816 94.033 13.544 28.885 o
-2 5 1 730.449 757.113 11.875 8.939 o
-2 5 2 605.463 570.687 10.216 12.338 o
-2 5 3 43.962 42.819 3.369 224.427 o
-2 5 4 13.601 11.015 2.695 532.287 o
-2 5 5 1.939 3.633 2.482 910.557 o
-2 5 6 83.289 72.441 5.313 104.717 o
-2 5 7 615.846 534.853 24.382 6.411 o
-2 5 8 4.072 12.812 6.369 149.757 o
-2 5 9 28.777 40.768 6.465 118.207 o
-2 5 10 18.069 26.439 7.497 100.630 o
-2 5 11 36.536 35.695 12.013 40.779 o
-2 5 12 1.933 7.153 9.601 69.177 o
-2 5 13 43.761 38.859 16.489 22.414 o
-2 6 1 532.762 502.975 10.394 14.152 o
-2 6 2 18.430 18.400 2.364 508.618 o
-2 6 3 416.332 404.745 9.429 19.085 o
-2 6 4 482.979 426.529 13.349 13.679 o
-2 6 5 245.747 227.411 11.093 26.376 o
-2 6 6 74.537 79.595 8.407 63.052 o
-2 6 7 660.895 585.507 27.793 5.232 o
-2 6 8 21.406 24.858 7.033 111.114 o
-2 6 9 5.731 3.966 4.935 246.057 o
-2 6 10 101.621 81.046 15.341 23.444 o
-2 6 11 158.719 152.809 15.960 19.763 o
-2 6 12 128.742 119.559 14.639 23.928 o
-2 7 1 0.387 -1.203 3.506 522.320 o
-2 7 2 98.836 99.585 8.312 57.833 o
-2 7 3 910.678 841.463 24.843 4.655 o
-2 7 4 318.481 305.155 50.998 2.333 o
-2 7 5 109.348 100.255 9.740 45.819 o
-2 7 6 16.181 15.490 9.251 70.549 o
-2 7 7 41.227 25.582 7.937 83.738 o
-2 7 8 4.076 5.350 4.931 248.729 o
-2 7 9 75.834 125.185 14.666 25.417 o
-2 7 10 33.238 71.099 27.587 8.303 o
-2 7 11 94.774 114.190 21.930 12.333 o
-2 8 1 64.337 78.983 13.502 30.663 o
-2 8 2 34.983 46.792 11.492 43.857 o
-2 8 3 369.713 367.026 22.355 9.058 o
-2 8 4 80.285 65.160 9.775 50.937 o
-2 8 5 23.668 21.493 5.710 155.765 o
-2 8 6 0.246 5.360 4.811 270.968 o
-2 8 7 3.061 2.910 5.212 228.668 o
-2 8 8 78.778 100.031 13.305 30.317 o
-2 8 9 50.909 58.422 11.139 44.394 o
-1 -9 1 33.207 33.096 8.321 78.590 o
-1 -9 2 112.285 109.343 11.859 34.156 o
-1 -9 3 85.228 73.269 12.308 34.834 o
-1 -8 1 206.799 229.506 18.819 14.054 o
-1 -8 2 410.000 421.282 25.298 7.262 o
-1 -8 3 100.786 102.110 10.753 40.577 o
-1 -8 4 1.980 9.331 5.388 210.740 o
-1 -8 5 58.109 50.491 7.392 83.710 o
-1 -7 1 668.755 688.723 29.854 4.624 o
-1 -7 2 37.644 40.715 8.789 69.853 o
-1 -7 3 197.562 193.915 13.450 23.416 o
-1 -7 4 74.294 65.428 7.246 78.707 o
-1 -7 5 112.798 111.096 9.545 46.083 o
-1 -7 6 438.732 438.730 19.494 9.918 o
-1 -7 7 242.886 243.830 17.749 14.721 o
-1 -7 8 314.152 288.695 24.373 8.502 o
-1 -6 1 62.878 61.524 6.811 89.762 o
-1 -6 2 89.147 97.466 6.986 73.411 o
-1 -6 3 1164.750 1131.290 27.028 3.396 o
-1 -6 4 61.528 58.700 5.030 128.952 o
-1 -6 5 527.467 546.413 22.748 7.377 o
-1 -6 6 399.707 419.611 20.869 9.509 o
-1 -6 7 35.313 40.273 7.831 85.138 o
-1 -6 8 2.482 13.848 6.043 166.369 o
-1 -6 9 129.941 125.913 13.360 27.405 o
-1 -5 1 51.540 69.469 5.506 120.207 o
-1 -5 2 455.924 426.966 13.436 14.080 o
-1 -5 3 1116.370 1130.500 26.672 3.530 o
-1 -5 4 687.815 705.861 17.888 7.619 o
-1 -5 5 59.517 60.645 7.243 84.005 o
-1 -5 6 34.300 29.891 3.906 229.196 o
-1 -5 7 488.673 492.435 22.209 7.975 o
-1 -5 8 224.587 261.284 18.106 14.436 o
-1 -5 9 369.377 356.155 20.675 10.126 o
-1 -5 10 190.529 205.648 24.376 9.391 o
-1 -5 11 94.846 97.987 14.980 24.361 o
-1 -4 1 1717.990 1708.110 27.271 2.138 o
-1 -4 2 3631.590 3588.980 45.096 0.606 o
-1 -4 3 1617.930 1612.160 34.207 2.002 o
-1 -4 4 353.505 356.143 10.313 20.886 o
-1 -4 5 4.749 6.068 2.326 876.899 o
-1 -4 6 112.086 110.683 10.629 39.955 o
-1 -4 7 1879.190 1777.680 37.443 1.621 o
-1 -4 8 774.764 731.838 35.341 3.484 o
-1 -4 9 64.542 60.129 7.235 82.609 o
-1 -4 10 246.615 208.473 18.578 13.956 o
-1 -4 11 0.014 9.217 8.436 89.484 o
-1 -4 12 5.213 5.500 8.669 83.877 o
-1 -3 1 156.174 128.510 5.722 64.611 o
-1 -3 2 326.394 312.815 9.525 23.993 o
-1 -3 3 167.289 161.901 5.959 57.198 o
-1 -3 4 423.066 482.720 9.725 17.455 o
-1 -3 5 612.812 628.604 11.718 11.102 o
-1 -3 6 533.689 527.065 13.326 12.093 o
-1 -3 7 2071.350 2052.830 33.571 1.512 o
-1 -3 8 8.199 10.207 3.877 351.439 o
-1 -3 9 43.785 35.923 5.769 130.099 o
-1 -3 10 28.428 26.976 5.899 141.427 o
-1 -3 11 20.081 26.479 6.131 139.960 o
-1 -3 12 245.229 253.771 21.916 10.643 o
-1 -3 13 78.291 58.203 17.571 19.117 o
-1 -2 1 347.765 352.768 7.324 25.545 o
-1 -2 2 248.134 224.385 5.905 41.075 o
-1 -2 3 286.784 308.209 5.897 33.414 o
-1 -2 4 4893.040 5091.460 49.717 0.359 o
-1 -2 5 2553.750 2619.660 27.238 1.197 o
-1 -2 6 159.689 126.670 5.054 68.917 o
-1 -2 7 2.508 9.163 3.438 475.321 o
-1 -2 8 53.085 59.691 7.640 79.992 o
-1 -2 9 505.777 513.398 23.894 7.141 o
-1 -2 10 673.222 655.517 38.635 3.249 o
-1 -2 11 502.073 519.971 47.687 2.481 o
-1 -2 12 75.180 83.393 11.993 36.649 o
-1 -2 13 0.932 6.279 5.260 225.553 o
-1 -2 14 7.364 3.661 10.216 60.658 o
-1 -1 1 1086.910 1148.660 11.051 5.295 o
-1 -1 2 3127.840 3204.490 31.124 0.841 o
-1 -1 3 5858.390 5760.110 55.955 0.267 o
-1 -1 4 833.040 823.747 11.415 7.830 o
-1 -1 5 5486.840 5741.010 72.844 0.262 o
-1 -1 6 0.447 2.648 1.307 3004.610 o
-1 -1 7 52.749 55.092 3.451 192.097 o
-1 -1 8 845.676 799.045 15.070 7.007 o
-1 -1 9 756.940 731.398 16.491 7.475 o
-1 -1 10 159.792 175.037 9.436 38.909 o
-1 -1 11 895.212 914.560 28.390 4.049 o
-1 -1 12 157.880 191.340 13.610 24.436 o
-1 -1 13 1.808 2.415 6.178 166.269 o
-1 -1 14 11.005 1.610 5.978 167.094 o
-1 0 1 2255.490 2271.770 18.981 1.595 o
-1 0 2 3063.510 2987.310 31.024 0.893 o
-1 0 3 1636.430 1536.670 18.038 2.742 o
-1 0 4 815.992 779.674 8.914 8.720 o
-1 0 5 71.853 65.788 2.677 178.710 o
-1 0 6 3385.710 3571.800 45.201 0.650 o
-1 0 7 1723.830 1728.770 20.320 2.379 o
-1 0 8 304.094 288.215 6.658 31.312 o
-1 0 9 346.597 361.224 10.150 21.268 o
-1 0 10 77.053 90.142 6.666 82.103 o
-1 0 11 149.051 134.950 8.474 46.956 o
-1 0 12 291.951 259.416 12.395 21.317 o
-1 0 13 77.801 82.209 7.600 71.012 o
-1 0 14 64.490 88.358 10.287 47.567 o
-1 0 15 11.162 26.575 9.144 71.985 o
-1 1 1 5410.020 5064.360 38.883 0.339 o
-1 1 2 331.969 315.626 6.058 29.532 o
-1 1 3 27.885 20.886 1.819 486.386 o
-1 1 4 536.063 575.294 8.441 14.507 o
-1 1 5 706.724 734.984 10.261 9.795 o
-1 1 6 153.351 122.352 4.368 76.689 o
-1 1 7 1239.160 1202.510 19.593 3.843 o
-1 1 8 690.007 686.182 13.243 9.258 o
-1 1 9 152.742 168.389 7.776 48.327 o
-1 1 10 17.000 13.911 2.213 584.990 o
-1 1 11 992.417 975.357 25.699 4.111 o
-1 1 12 104.966 101.268 7.681 62.169 o
-1 1 13 271.544 282.230 13.247 20.141 o
-1 1 14 63.171 71.383 7.189 81.983 o
-1 1 15 54.958 77.454 7.997 72.174 o
-1 2 1 31.897 26.028 1.407 470.022 o
-1 2 2 4501.000 4555.640 36.596 0.449 o
-1 2 3 1655.920 1684.090 18.472 2.576 o
-1 2 4 3463.520 3472.330 32.307 0.716 o
-1 2 5 6562.880 6625.980 55.424 0.218 o
-1 2 6 1370.860 1325.660 18.375 3.458 o
-1 2 7 69.449 60.304 3.712 156.816 o
-1 2 8 195.600 180.823 8.110 40.986 o
-1 2 9 316.204 301.889 12.236 20.155 o
-1 2 10 1630.990 1568.140 35.170 1.969 o
-1 2 11 59.018 54.715 5.226 127.219 o
-1 2 12 367.486 410.389 14.611 14.757 o
-1 2 13 3.787 1.856 5.877 181.163 o
-1 2 14 3.337 6.743 8.813 81.546 o
-1 2 15 31.913 20.299 11.897 42.430 o
-1 3 1 144.910 143.000 3.951 79.316 o
-1 3 2 432.491 446.740 8.020 19.286 o
-1 3 3 550.482 520.448 10.501 13.579 o
-1 3 4 13.482 12.867 1.751 792.059 o
-1 3 5 672.213 682.180 13.431 9.392 o
-1 3 6 114.191 142.233 4.918 81.646 o
-1 3 7 228.591 243.839 7.603 36.708 o
-1 3 8 14.052 15.293 2.563 533.022 o
-1 3 9 405.206 405.521 19.507 10.359 o
-1 3 10 1043.060 1021.660 30.653 3.358 o
-1 3 11 1.702 9.237 3.381 496.655 o
-1 3 12 173.220 141.495 11.851 29.894 o
-1 3 13 43.596 30.808 5.080 155.973 o
-1 3 14 2.452 0.451 4.875 264.839 o
-1 3 15 108.971 129.401 14.524 24.696 o
-1 4 1 765.908 674.957 12.635 8.768 o
-1 4 2 3049.480 3118.780 28.792 0.894 o
-1 4 3 444.049 431.164 10.504 16.864 o
-1 4 4 78.946 88.029 5.083 106.999 o
-1 4 5 6.349 5.947 1.907 1078.090 o
-1 4 6 871.863 890.474 19.143 5.745 o
-1 4 7 803.580 775.774 20.555 6.031 o
-1 4 8 880.767 865.345 19.586 5.675 o
-1 4 9 361.147 362.059 14.576 15.356 o
-1 4 10 68.865 85.742 8.555 62.016 o
-1 4 11 10.376 12.237 5.908 165.440 o
-1 4 12 325.075 285.226 21.908 9.932 o
-1 4 13 75.481 71.499 20.998 13.714 o
-1 4 14 64.429 80.683 11.602 39.549 o
-1 4 15 36.468 47.121 14.076 30.227 o
-1 5 1 257.977 245.292 8.258 32.408 o
-1 5 2 17.091 23.613 2.535 465.740 o
-1 5 3 24.811 28.291 2.627 379.162 o
-1 5 4 460.331 465.899 15.820 11.909 o
-1 5 5 308.875 297.613 12.810 19.555 o
-1 5 6 2047.860 1996.120 38.415 1.427 o
-1 5 7 453.433 460.593 16.411 11.623 o
-1 5 8 53.800 56.563 6.842 93.650 o
-1 5 9 34.911 21.821 5.461 154.601 o
-1 5 10 18.312 26.918 6.980 113.638 o
-1 5 11 267.900 278.634 19.852 12.042 o
-1 5 12 64.301 86.653 26.273 8.987 o
-1 5 13 279.121 291.774 51.630 2.297 o
-1 5 14 16.225 38.449 9.767 61.868 o
-1 6 1 0.056 0.819 2.359 1139.410 o
-1 6 2 34.632 34.705 3.221 268.390 o
-1 6 3 22.557 28.362 3.117 335.558 o
-1 6 4 320.670 311.020 10.549 22.545 o
-1 6 5 307.577 289.162 13.606 18.526 o
-1 6 6 33.945 39.047 6.259 121.386 o
-1 6 7 768.802 790.170 28.760 4.449 o
-1 6 8 201.329 213.259 10.197 31.593 o
-1 6 9 177.765 181.564 20.932 12.364 o
-1 6 10 133.139 137.126 18.636 15.862 o
-1 6 11 25.900 45.117 17.238 20.885 o
-1 6 12 1.254 13.566 13.627 34.476 o
-1 6 13 5.880 30.123 14.725 29.128 o
-1 6 14 3.498 -1.464 7.354 117.748 o
-1 7 1 371.068 374.924 12.218 17.642 o
-1 7 2 974.681 921.086 34.081 3.185 o
-1 7 3 42.787 49.856 6.053 118.105 o
-1 7 4 396.845 374.052 38.868 3.716 o
-1 7 5 0.774 0.595 3.823 434.752 o
-1 7 6 9.300 10.307 3.770 361.578 o
-1 7 7 94.125 109.515 8.881 53.142 o
-1 7 8 43.893 68.895 7.598 81.987 o
-1 7 9 600.770 568.618 26.615 5.755 o
-1 7 10 20.242 46.901 15.940 24.375 o
-1 7 11 38.414 68.331 18.502 17.885 o
-1 7 12 0.681 9.609 6.285 158.303 o
-1 7 13 2.232 2.928 8.719 84.114 o
-1 8 1 221.508 227.590 13.422 22.147 o
-1 8 2 152.245 168.209 10.726 34.377 o
-1 8 3 220.876 209.299 9.998 31.117 o
-1 8 4 2.271 10.090 7.853 101.893 o
-1 8 5 13.145 17.658 4.702 233.191 o
-1 8 6 169.858 161.369 17.945 16.160 o
-1 8 7 173.462 179.756 28.357 7.293 o
-1 8 8 190.697 252.845 21.774 11.184 o
-1 8 9 93.210 102.720 12.518 32.653 o
-1 8 10 0.090 14.114 21.398 14.081 o
-1 8 11 12.193 23.847 7.987 92.461 o
-1 9 1 17.517 18.303 10.449 55.765 o
-1 9 2 19.286 14.012 6.305 139.109 o
-1 9 3 9.565 19.767 7.012 119.518 o
-1 9 4 10.978 22.396 13.111 36.443 o
-1 9 5 110.275 112.933 10.483 40.784 o
-1 9 6 8.357 22.101 5.868 164.252 o
-1 9 7 2.519 12.503 11.631 47.075 o
-1 9 8 53.160 69.609 11.181 43.425 o
0 -9 1 124.652 124.693 11.981 32.491 o
0 -9 2 82.283 86.351 12.374 34.327 o
0 -8 1 361.920 374.006 23.197 8.623 o
0 -8 2 59.608 70.410 9.096 59.492 o
0 -8 3 17.519 21.218 6.490 131.065 o
0 -8 4 1.949 9.353 4.796 262.282 o
0 -8 5 91.529 81.555 15.774 22.599 o
0 -7 1 17.063 24.908 6.974 115.004 o
0 -7 2 64.118 61.505 7.772 74.844 o
0 -7 3 2.710 4.835 3.352 516.372 o
0 -7 4 305.604 323.922 15.349 15.894 o
0 -7 5 729.832 706.078 23.592 5.785 o
0 -7 6 263.427 283.139 18.405 13.453 o
0 -7 7 72.516 91.526 11.260 40.458 o
0 -6 1 148.232 158.093 10.992 33.931 o
0 -6 2 1279.570 1223.560 24.133 3.332 o
0 -6 3 361.594 351.365 10.551 20.366 o
0 -6 4 190.606 190.849 11.047 30.218 o
0 -6 5 573.630 574.028 38.447 3.447 o
0 -6 6 165.570 190.893 13.952 23.356 o
0 -6 7 3.179 14.578 5.726 182.598 o
0 -6 8 88.406 101.309 11.511 37.576 o
0 -6 9 195.001 209.795 16.456 17.567 o
0 -5 1 1481.290 1528.520 24.703 2.672 o
0 -5 2 1195.160 1164.050 19.568 4.018 o
0 -5 3 1180.850 1178.460 23.224 3.679 o
0 -5 4 7.583 5.785 3.372 461.371 o
0 -5 5 50.547 60.096 7.240 87.129 o
0 -5 6 232.009 230.298 14.194 20.319 o
0 -5 7 82.158 101.012 10.004 46.973 o
0 -5 8 523.963 491.666 22.929 7.475 o
0 -5 9 312.130 276.431 18.010 13.270 o
0 -5 10 123.977 107.174 11.779 33.854 o
0 -5 11 2.014 1.511 6.688 142.461 o
0 -4 1 1508.650 1592.120 20.833 2.781 o
0 -4 2 348.100 331.433 8.528 24.221 o
0 -4 3 58.330 77.048 4.062 149.938 o
0 -4 4 449.160 454.356 10.908 16.094 o
0 -4 5 1557.340 1558.820 60.772 1.149 o
0 -4 6 697.099 713.991 28.131 4.862 o
0 -4 7 54.188 52.550 6.135 108.839 o
0 -4 8 361.922 346.651 35.125 4.497 o
0 -4 9 207.582 204.125 17.599 15.737 o
0 -4 10 12.064 3.689 6.476 142.294 o
0 -4 11 379.667 370.465 28.336 6.321 o
0 -4 12 285.042 255.825 23.283 9.407 o
0 -3 1 2650.580 2656.370 28.892 1.125 o
0 -3 2 185.386 208.842 5.899 50.394 o
0 -3 3 1392.770 1485.990 19.227 3.181 o
0 -3 4 975.708 921.212 15.199 5.871 o
0 -3 5 1292.040 1265.210 23.506 3.315 o
0 -3 6 1071.770 1060.010 23.320 4.093 o
0 -3 7 539.656 529.982 13.849 11.678 o
0 -3 8 190.564 199.222 8.320 39.708 o
0 -3 9 3.001 14.581 4.333 302.632 o
0 -3 10 125.128 137.233 10.506 38.441 o
0 -3 11 442.358 405.039 26.295 6.767 o
0 -3 12 333.019 346.773 25.480 7.706 o
0 -3 13 270.510 268.157 23.585 9.267 o
0 -2 1 366.701 354.412 7.053 24.926 o
0 -2 2 4828.140 4835.130 42.667 0.389 o
0 -2 3 1057.590 1057.420 12.147 5.538 o
0 -2 4 7099.300 7386.620 57.133 0.186 o
0 -2 5 8.822 8.243 1.342 1270.110 o
0 -2 6 7.858 12.152 1.704 1002.540 o
0 -2 7 912.757 940.487 16.937 5.843 o
0 -2 8 106.640 117.345 7.908 58.385 o
0 -2 9 471.111 503.852 29.687 5.428 o
0 -2 10 622.725 601.244 20.450 7.515 o
0 -2 11 99.215 100.817 8.997 52.152 o
0 -2 12 21.407 24.971 5.495 165.940 o
0 -2 13 45.559 27.308 8.157 78.653 o
0 -2 14 179.182 151.780 29.018 7.018 o
0 -1 1 494.085 506.686 15.141 11.655 o
0 -1 2 26.670 30.387 1.332 508.280 o
0 -1 3 1814.940 1801.540 22.811 2.138 o
0 -1 4 197.147 212.672 4.670 53.540 o
0 -1 5 60.495 55.342 2.523 212.530 o
0 -1 6 188.471 209.466 5.127 53.372 o
0 -1 7 327.753 311.357 8.544 25.649 o
0 -1 8 1517.440 1456.540 25.711 2.617 o
0 -1 9 779.430 789.083 23.923 5.356 o
0 -1 10 180.117 182.103 10.626 32.481 o
0 -1 11 5.247 11.482 4.479 283.206 o
0 -1 12 1.104 6.987 4.800 267.450 o
0 -1 13 319.800 295.693 16.150 14.966 o
0 -1 14 283.922 258.845 20.149 11.722 o
0 0 3 626.079 671.665 9.209 11.651 o
0 0 4 328.085 361.766 5.671 28.868 o
0 0 5 3025.750 3139.840 28.899 0.897 o
0 0 6 1628.340 1575.920 16.463 2.787 o
0 0 7 3235.270 3229.550 28.475 0.825 o
0 0 8 1022.980 1058.610 19.362 4.755 o
0 0 9 203.720 220.690 6.853 43.059 o
0 0 10 695.155 685.857 15.152 8.549 o
0 0 11 41.028 54.142 5.531 132.466 o
0 0 12 42.931 49.758 6.525 106.518 o
0 0 13 207.155 193.110 11.121 29.044 o
0 0 14 325.825 328.679 17.178 13.548 o
0 0 15 14.567 46.804 7.735 92.809 o
0 1 2 2460.090 2389.850 22.263 1.372 o
0 1 3 17.114 14.159 1.217 839.571 o
0 1 4 2306.080 2262.900 26.458 1.442 o
0 1 5 473.236 420.207 8.227 18.233 o
0 1 6 62.260 41.669 2.776 213.579 o
0 1 7 87.394 91.890 3.948 120.961 o
0 1 8 560.584 563.788 9.768 13.406 o
0 1 9 230.963 226.934 7.182 38.638 o
0 1 10 510.619 495.163 12.025 13.557 o
0 1 11 2334.760 2278.490 46.659 1.072 o
0 1 12 85.332 76.742 5.706 95.969 o
0 1 13 160.427 187.228 10.867 32.700 o
0 1 14 5.627 3.421 3.916 376.419 o
0 1 15 23.761 12.080 4.839 207.907 o
0 2 0 615.179 631.126 9.787 11.897 o
0 2 1 2200.880 2280.970 26.951 1.495 o
0 2 2 5839.300 5730.530 48.542 0.278 o
0 2 3 4491.750 4429.110 40.711 0.447 o
0 2 4 1735.460 1744.490 23.514 2.239 o
0 2 5 350.881 335.295 7.998 24.814 o
0 2 6 1271.740 1379.370 28.748 2.850 o
0 2 7 21.842 26.478 2.980 359.510 o
0 2 8 1524.460 1437.020 21.996 2.824 o
0 2 9 222.017 229.220 10.250 29.728 o
0 2 10 218.887 231.741 9.082 33.299 o
0 2 11 288.902 319.474 15.274 16.350 o
0 2 12 80.252 90.503 6.305 86.060 o
0 2 13 0.745 6.806 3.568 469.679 o
0 2 14 32.696 34.413 5.757 139.789 o
0 2 15 114.039 103.185 8.874 50.893 o
0 2 16 52.469 61.672 9.061 61.779 o
0 3 0 2022.350 2008.380 23.916 1.799 o
0 3 1 4422.670 4398.980 47.670 0.438 o
0 3 2 2888.880 2814.550 29.365 0.995 o
0 3 3 1726.280 1681.800 19.922 2.422 o
0 3 4 3089.670 3181.830 40.854 0.783 o
0 3 5 235.056 271.154 8.133 33.482 o
0 3 6 628.412 651.562 14.165 9.722 o
0 3 7 3494.600 3570.350 50.411 0.601 o
0 3 8 356.254 338.294 12.296 18.410 o
0 3 9 821.125 784.534 23.140 5.373 o
0 3 10 179.621 186.992 12.917 25.486 o
0 3 11 383.131 420.991 15.854 13.270 o
0 3 12 14.297 26.821 4.352 248.028 o
0 3 13 308.086 302.766 14.123 17.627 o
0 3 14 198.440 209.183 12.897 24.403 o
0 3 15 125.996 167.639 12.125 30.726 o
0 3 16 49.806 91.514 17.770 18.922 o
0 4 0 540.705 504.872 13.198 12.230 o
0 4 1 494.063 451.264 10.988 15.059 o
0 4 2 1128.190 1179.820 19.245 4.224 o
0 4 3 123.195 125.612 6.502 66.317 o
0 4 4 844.847 884.197 16.379 6.463 o
0 4 5 1007.880 1040.130 18.629 4.946 o
0 4 6 486.209 464.991 13.606 13.113 o
0 4 7 74.248 56.583 5.215 116.458 o
0 4 8 28.959 42.739 7.101 101.601 o
0 4 9 17.833 13.460 3.839 307.283 o
0 4 10 306.246 272.907 16.323 15.186 o
0 4 11 16.661 22.806 6.041 147.961 o
0 4 12 275.649 254.636 23.036 9.630 o
0 4 13 81.099 92.587 10.509 44.183 o
0 4 14 3.010 20.067 4.971 230.857 o
0 4 15 14.535 55.652 10.126 56.963 o
0 5 0 615.275 608.815 13.887 10.220 o
0 5 1 76.768 94.596 6.139 89.043 o
0 5 2 55.879 55.388 3.630 180.192 o
0 5 3 957.464 954.833 17.258 5.542 o
0 5 4 534.640 562.688 14.035 11.419 o
0 5 5 1209.550 1282.140 29.208 2.989 o
0 5 6 1230.230 1238.130 25.899 3.266 o
0 5 7 4.291 5.870 2.538 782.556 o
0 5 8 35.144 27.306 4.132 216.239 o
0 5 9 76.021 67.878 8.623 61.642 o
0 5 10 175.389 163.606 16.622 18.114 o
0 5 11 21.447 41.766 8.319 80.605 o
0 5 12 456.965 457.643 23.176 7.837 o
0 5 13 241.272 267.139 24.696 8.760 o
0 5 14 13.873 34.053 8.359 83.113 o
0 5 15 17.242 21.562 20.133 15.688 o
0 6 0 49.613 57.217 6.801 95.986 o
0 6 1 203.576 196.007 11.768 27.332 o
0 6 2 1065.460 1036.310 24.196 4.035 o
0 6 3 1943.370 1867.580 36.528 1.577 o
0 6 4 562.301 561.977 23.374 6.928 o
0 6 5 218.707 217.955 11.902 25.828 o
0 6 6 14.472 31.601 6.397 132.738 o
0 6 7 38.197 33.434 9.717 59.395 o
0 6 8 1269.280 1238.720 28.421 2.990 o
0 6 9 167.076 187.583 11.007 31.794 o
0 6 10 225.255 228.296 14.438 20.084 o
0 6 11 118.401 119.936 12.308 31.695 o
0 6 12 21.166 14.866 5.620 166.076 o
0 6 13 0.187 0.233 7.022 131.077 o
0 6 14 50.713 58.066 10.125 52.136 o
0 7 0 155.242 172.002 14.599 22.459 o
0 7 1 159.314 166.648 16.838 18.024 o
0 7 2 681.401 635.677 19.744 7.289 o
0 7 3 205.477 207.195 10.777 29.760 o
0 7 4 28.844 39.428 7.429 95.204 o
0 7 5 90.656 87.387 8.339 60.054 o
0 7 6 6.863 7.704 4.116 329.150 o
0 7 7 36.542 44.861 7.874 83.312 o
0 7 8 261.411 265.124 17.577 14.499 o
0 7 9 33.358 37.405 7.354 95.400 o
0 7 10 27.222 26.063 6.591 119.954 o
0 7 11 0.668 9.776 5.943 176.275 o
0 7 12 7.588 3.627 6.456 146.889 o
0 7 13 23.443 19.767 10.150 57.961 o
0 7 14 12.820 16.007 10.516 55.834 o
0 8 0 326.449 323.874 21.329 10.165 o
0 8 1 249.632 247.840 18.084 14.211 o
0 8 2 186.449 162.390 10.605 32.777 o
0 8 3 39.059 33.852 5.171 155.623 o
0 8 4 560.581 582.591 27.603 5.601 o
0 8 5 424.987 420.084 26.241 6.827 o
0 8 6 366.736 369.912 17.897 12.114 o
0 8 7 235.491 248.546 18.039 14.451 o
0 8 8 3.200 14.938 14.992 28.456 o
0 8 9 2.998 11.508 5.652 189.452 o
0 8 10 40.823 51.212 9.413 60.829 o
0 8 11 42.903 61.668 15.175 25.874 o
0 8 12 150.184 148.951 21.897 11.802 o
0 9 0 72.336 72.836 11.311 40.911 o
0 9 1 2.429 -0.078 5.883 183.790 o
0 9 2 38.294 40.592 12.196 39.387 o
0 9 3 9.429 46.635 19.451 16.732 o
0 9 4 260.778 228.742 18.647 13.573 o
0 9 5 79.527 76.920 9.393 53.340 o
0 9 6 38.547 55.349 9.763 57.250 o
0 9 7 5.518 7.291 4.838 251.587 o
0 9 8 10.968 12.882 5.611 180.105 o
0 9 9 22.655 26.806 7.201 105.696 o
0 9 10 36.037 41.919 8.460 74.647 o
1 -9 0 223.769 232.749 20.687 11.940 o
1 -8 0 202.588 206.801 13.911 22.045 o
1 -8 1 144.034 161.970 12.756 27.921 o
1 -8 2 0.386 -0.012 5.699 198.719 o
1 -8 3 58.528 63.633 11.892 38.956 o
1 -8 4 74.628 88.879 14.162 27.659 o
1 -7 0 167.529 170.630 8.858 41.005 o
1 -7 1 34.360 40.878 6.458 115.118 o
1 -7 2 55.507 50.413 7.091 89.665 o
1 -7 3 525.736 523.855 27.805 5.755 o
1 -7 4 478.567 454.134 17.836 10.461 o
1 -7 5 263.066 274.573 18.739 13.170 o
1 -7 6 22.788 22.534 6.175 137.772 o
1 -7 7 0.364 10.979 7.238 120.144 o
1 -6 0 363.843 339.412 10.085 21.133 o
1 -6 1 448.282 419.993 10.748 16.673 o
1 -6 2 924.245 821.505 20.236 5.458 o
1 -6 3 60.392 54.731 5.808 112.165 o
1 -6 4 283.669 267.449 16.898 14.928 o
1 -6 5 10.530 18.278 5.049 211.987 o
1 -6 6 38.644 52.730 7.468 88.469 o
1 -6 7 376.968 386.152 25.579 7.372 o
1 -6 8 255.023 270.343 22.128 10.349 o
1 -6 9 500.769 521.262 40.932 3.220 o
1 -5 0 1126.880 1094.400 19.001 4.388 o
1 -5 1 2042.440 1985.630 25.323 1.757 o
1 -5 2 1008.580 965.260 16.751 5.369 o
1 -5 3 353.012 322.752 15.697 14.671 o
1 -5 4 292.202 286.389 13.710 18.798 o
1 -5 5 5.396 2.836 3.241 529.167 o
1 -5 6 461.651 469.885 19.549 9.556 o
1 -5 7 758.959 706.516 25.553 5.226 o
1 -5 8 370.082 347.009 18.460 11.757 o
1 -5 9 129.616 124.854 11.884 32.586 o
1 -5 10 0.653 5.118 15.990 25.235 o
1 -4 0 1867.140 1837.410 23.883 2.029 o
1 -4 1 13.748 11.588 1.818 778.627 o
1 -4 2 398.500 414.364 11.879 16.849 o
1 -4 3 194.476 195.671 9.757 34.098 o
1 -4 4 1268.280 1325.210 34.307 2.504 o
1 -4 5 1526.800 1534.820 34.846 2.093 o
1 -4 6 497.044 517.875 23.568 7.298 o
1 -4 7 520.646 494.572 16.999 10.308 o
1 -4 8 73.886 67.839 8.852 59.743 o
1 -4 9 34.087 52.240 7.794 84.302 o
1 -4 10 242.534 245.499 20.541 11.837 o
1 -4 11 203.131 226.870 26.922 7.806 o
1 -4 12 195.757 180.432 24.559 9.309 o
1 -3 0 570.267 615.705 9.314 12.990 o
1 -3 1 1.894 2.922 0.728 4704.320 o
1 -3 2 110.360 102.981 4.537 95.521 o
1 -3 3 1471.190 1445.560 20.482 2.994 o
1 -3 4 1016.930 1033.170 21.951 4.467 o
1 -3 5 551.722 562.558 19.175 8.644 o
1 -3 6 195.462 171.192 13.415 23.957 o
1 -3 7 46.244 45.526 4.948 150.489 o
1 -3 8 1241.190 1218.210 20.229 3.760 o
1 -3 9 1000.060 1009.930 21.389 4.636 o
1 -3 10 155.484 176.455 12.588 27.611 o
1 -3 11 414.842 416.747 20.141 9.830 o
1 -3 12 37.526 53.985 8.500 72.318 o
1 -3 13 0.298 5.456 7.519 112.967 o
1 -2 0 4300.540 4372.900 31.691 0.496 o
1 -2 1 5967.410 6278.240 43.436 0.262 o
1 -2 2 2656.670 2634.980 27.057 1.148 o
1 -2 3 2835.860 2951.580 28.683 0.995 o
1 -2 4 2563.210 2612.330 30.702 1.152 o
1 -2 5 8.116 3.812 1.255 1571.070 o
1 -2 6 200.438 203.771 7.381 42.278 o
1 -2 7 256.861 264.134 8.864 30.278 o
1 -2 8 2302.900 2268.050 33.137 1.325 o
1 -2 9 303.143 277.115 10.138 24.696 o
1 -2 10 65.353 85.329 9.413 54.548 o
1 -2 11 32.225 30.511 7.005 105.123 o
1 -2 12 38.323 34.379 8.647 72.328 o
1 -2 13 54.617 44.832 18.286 18.221 o
1 -2 14 30.259 38.366 9.971 57.559 o
1 -1 0 1654.540 1680.660 13.656 2.750 o
1 -1 1 1437.350 1409.210 12.691 3.528 o
1 -1 2 1304.460 1357.680 19.212 3.516 o
1 -1 3 2148.550 2054.800 24.615 1.660 o
1 -1 4 349.795 367.877 9.564 21.857 o
1 -1 5 1737.730 1859.900 37.315 1.693 o
1 -1 6 2902.020 3124.110 37.095 0.871 o
1 -1 7 1039.860 1045.770 17.339 4.988 o
1 -1 8 654.135 661.618 17.760 8.060 o
1 -1 9 224.400 238.707 8.981 32.971 o
1 -1 10 21.668 14.813 3.889 285.816 o
1 -1 11 376.175 345.394 15.159 14.633 o
1 -1 12 651.219 588.825 21.179 7.132 o
1 -1 13 276.106 277.713 32.712 5.318 o
1 -1 14 71.279 91.840 13.197 31.262 o
1 0 1 143.252 149.716 10.349 37.260 o
1 0 2 227.014 299.835 4.920 41.996 o
1 0 3 1120.100 1270.060 13.451 4.676 o
1 0 4 2680.250 2770.680 24.333 1.135 o
1 0 5 151.734 128.079 4.336 76.535 o
1 0 6 3567.630 3744.630 38.002 0.639 o
1 0 7 6.069 6.635 1.603 1306.870 o
1 0 8 79.078 88.690 4.632 115.052 o
1 0 9 562.379 577.500 19.289 8.458 o
1 0 10 433.871 464.125 13.977 13.699 o
1 0 11 7.493 11.918 6.282 150.922 o
1 0 12 479.409 502.913 19.081 9.519 o
1 0 13 158.849 171.537 11.764 30.146 o
1 0 14 16.369 21.618 7.847 94.372 o
1 0 15 1.859 16.901 9.168 74.679 o
1 1 0 643.167 678.079 8.724 11.523 o
1 1 1 57.793 49.631 2.488 225.932 o
1 1 2 869.784 909.580 10.746 7.334 o
1 1 3 4186.380 4083.920 28.137 0.541 o
1 1 4 7016.190 6878.730 48.223 0.202 o
1 1 5 6861.790 6798.560 46.366 0.210 o
1 1 6 3278.100 3395.550 32.489 0.768 o
1 1 7 131.665 157.030 5.866 65.923 o
1 1 8 498.964 508.688 11.463 14.035 o
1 1 9 670.851 622.328 17.461 8.190 o
1 1 10 1832.170 1755.650 32.459 1.822 o
1 1 11 557.780 545.590 28.834 5.345 o
1 1 12 95.745 114.733 7.111 68.236 o
1 1 13 8.281 10.322 4.423 281.514 o
1 1 14 11.575 10.523 8.990 76.030 o
1 1 15 61.964 68.574 8.920 61.027 o
1 2 0 1955.270 1927.320 21.323 1.964 o
1 2 1 498.592 490.333 9.922 15.328 o
1 2 2 4663.360 4549.540 72.049 0.344 o
1 2 3 545.120 556.089 10.021 13.627 o
1 2 4 6.171 5.734 1.206 1727.060 o
1 2 5 584.216 650.249 11.988 11.220 o
1 2 6 996.836 1080.200 14.527 5.477 o
1 2 7 64.860 56.976 3.428 173.181 o
1 2 8 788.109 783.876 13.641 7.824 o
1 2 9 361.020 382.644 13.718 16.080 o
1 2 10 68.372 79.429 6.607 87.805 o
1 2 11 1.895 3.158 3.123 608.753 o
1 2 12 511.645 439.207 16.685 10.887 o
1 2 13 48.833 55.205 11.051 45.331 o
1 2 14 145.414 165.959 11.355 32.483 o
1 2 15 35.972 52.197 6.758 104.019 o
1 2 16 40.241 61.823 8.909 65.707 o
1 3 0 2019.730 2012.790 24.648 1.781 o
1 3 1 3864.490 3724.280 37.338 0.591 o
1 3 2 835.637 826.329 15.007 6.998 o
1 3 3 346.041 375.484 9.515 21.924 o
1 3 4 235.470 255.238 10.736 27.065 o
1 3 5 87.276 74.574 4.486 117.082 o
1 3 6 2706.110 2821.270 34.226 1.012 o
1 3 7 1690.190 1613.980 24.689 2.328 o
1 3 8 549.965 500.043 12.309 12.668 o
1 3 9 156.605 159.111 8.563 44.180 o
1 3 10 47.370 53.306 6.331 107.779 o
1 3 11 764.331 730.362 41.151 2.823 o
1 3 12 62.713 57.013 6.765 91.471 o
1 3 13 412.989 390.294 17.934 11.435 o
1 3 14 60.641 87.018 17.216 19.899 o
1 3 15 24.330 51.932 17.731 19.753 o
1 3 16 19.130 29.936 6.490 126.962 o
1 4 0 481.772 490.455 11.830 14.273 o
1 4 1 1534.840 1581.080 22.725 2.654 o
1 4 2 36.667 36.880 3.087 268.171 o
1 4 3 1414.980 1473.550 21.096 3.037 o
1 4 4 3275.920 3304.690 41.488 0.722 o
1 4 5 902.770 860.795 17.921 5.906 o
1 4 6 1687.340 1657.220 22.290 2.402 o
1 4 7 667.914 712.695 20.668 6.855 o
1 4 8 13.149 16.894 3.841 318.888 o
1 4 9 15.345 22.162 4.233 261.689 o
1 4 10 319.067 314.312 13.704 17.800 o
1 4 11 1506.510 1471.680 35.521 2.109 o
1 4 12 173.097 185.220 12.528 26.833 o
1 4 13 10.400 4.576 3.721 379.002 o
1 4 14 0.149 4.993 4.555 302.234 o
1 4 15 44.711 80.716 15.111 25.734 o
1 4 16 17.985 27.436 19.738 16.270 o
1 5 0 252.122 254.487 10.508 26.813 o
1 5 1 282.131 298.924 11.230 23.058 o
1 5 2 10.916 21.037 3.993 301.821 o
1 5 3 751.761 778.039 23.521 5.570 o
1 5 4 176.569 166.811 8.132 43.670 o
1 5 5 4.815 4.470 2.392 862.248 o
1 5 6 268.989 300.249 9.909 26.203 o
1 5 7 31.599 27.844 4.510 200.404 o
1 5 8 57.017 60.002 8.336 69.417 o
1 5 9 216.305 226.208 15.690 18.189 o
1 5 10 208.812 214.861 14.886 19.865 o
1 5 11 137.396 157.219 10.068 38.708 o
1 5 12 42.205 45.512 7.904 81.066 o
1 5 13 114.527 98.461 9.977 43.925 o
1 5 14 65.474 58.158 8.736 63.269 o
1 5 15 87.145 71.638 10.761 43.019 o
1 6 0 1022.230 983.954 33.038 3.174 o
1 6 1 1310.920 1309.510 37.966 2.239 o
1 6 2 874.175 857.624 29.612 3.984 o
1 6 3 199.909 189.887 9.458 34.968 o
1 6 4 444.070 430.521 16.169 12.104 o
1 6 5 36.880 39.458 6.479 113.550 o
1 6 6 42.526 53.355 7.683 83.390 o
1 6 7 1515.450 1459.550 39.576 1.916 o
1 6 8 669.774 683.935 33.105 4.036 o
1 6 9 193.212 200.911 10.355 31.981 o
1 6 10 2.060 5.051 4.482 304.682 o
1 6 11 77.607 95.629 13.328 30.380 o
1 6 12 96.665 73.555 8.525 58.505 o
1 6 13 4.121 6.618 6.266 157.312 o
1 6 14 128.579 138.896 12.319 30.639 o
1 6 15 10.319 22.792 8.877 76.705 o
1 7 0 468.635 447.417 23.472 7.673 o
1 7 1 518.852 538.230 25.431 6.483 o
1 7 2 30.485 21.874 5.848 143.723 o
1 7 3 8.034 7.739 2.279 787.309 o
1 7 4 3.140 3.023 3.719 431.392 o
1 7 5 124.227 126.523 11.643 33.820 o
1 7 6 243.358 243.216 16.355 16.503 o
1 7 7 56.609 61.686 8.652 65.558 o
1 7 8 1367.000 1332.350 41.032 2.012 o
1 7 9 13.394 12.975 4.914 221.349 o
1 7 10 14.151 9.694 5.743 171.020 o
1 7 11 86.579 90.447 11.207 39.700 o
1 7 12 65.464 88.857 12.562 34.350 o
1 7 13 52.146 69.521 8.948 62.368 o
1 7 14 120.266 162.072 17.331 17.929 o
1 8 0 317.093 316.240 21.168 10.382 o
1 8 1 26.383 17.846 5.787 151.659 o
1 8 2 5.303 2.976 4.222 331.213 o
1 8 3 418.702 436.897 25.757 7.005 o
1 8 4 11.120 8.841 6.572 137.238 o
1 8 5 347.030 356.325 21.138 10.003 o
1 8 6 30.769 37.250 7.543 92.575 o
1 8 7 6.077 11.795 5.453 197.468 o
1 8 8 32.593 35.025 9.550 61.989 o
1 8 9 0.645 -0.787 4.495 317.812 o
1 8 10 272.334 238.918 17.773 14.309 o
1 8 11 1.740 2.275 5.124 239.853 o
1 8 12 2.709 7.861 8.436 88.854 o
1 8 13 14.123 21.826 7.866 94.733 o
1 9 0 21.933 17.302 6.603 125.627 o
1 9 1 71.445 69.299 11.082 42.504 o
1 9 2 99.326 97.311 12.812 31.304 o
1 9 3 78.511 101.442 13.129 30.971 o
1 9 4 247.932 252.562 19.588 12.632 o
1 9 5 61.468 72.086 10.799 45.110 o
1 9 6 24.623 19.027 7.138 108.194 o
1 9 7 4.633 3.560 5.775 185.066 o
1 9 8 27.614 27.853 8.455 78.586 o
1 9 9 137.504 160.870 20.948 12.807 o
1 9 10 176.713 187.649 16.496 18.067 o
1 9 11 60.394 99.457 12.456 34.829 o
1 10 2 58.438 50.267 10.152 51.449 o
1 10 3 77.447 87.563 12.836 32.546 o
1 10 4 0.976 15.881 7.487 110.975 o
1 10 5 0.399 3.977 5.628 200.518 o
1 10 6 101.369 103.845 13.714 27.848 o
1 10 7 29.209 33.255 8.262 80.593 o
2 -8 0 22.849 31.594 6.788 115.234 o
2 -8 1 22.850 31.725 11.631 44.523 o
2 -8 2 107.642 94.507 14.003 26.860 o
2 -7 0 32.600 32.254 5.142 164.789 o
2 -7 1 187.801 157.711 11.194 30.829 o
2 -7 2 379.853 370.081 24.766 7.758 o
2 -7 3 221.804 232.992 20.365 12.256 o
2 -7 4 181.878 170.922 18.443 15.228 o
2 -7 5 58.085 51.856 11.427 42.180 o
2 -6 0 410.588 400.942 10.242 18.445 o
2 -6 1 536.154 498.875 12.457 12.808 o
2 -6 2 333.458 341.470 28.215 6.566 o
2 -6 3 16.135 21.958 8.180 87.577 o
2 -6 4 139.375 136.993 11.278 34.039 o
2 -6 5 22.209 29.622 5.970 142.911 o
2 -6 6 414.862 420.879 24.905 7.404 o
2 -6 7 351.854 365.938 24.337 8.116 o
2 -6 8 261.852 253.510 26.223 7.867 o
2 -5 0 322.002 321.490 7.922 26.771 o
2 -5 1 262.299 251.587 7.250 34.539 o
2 -5 2 0.653 0.683 0.935 5760.000 o
2 -5 3 716.907 687.045 25.318 5.459 o
2 -5 4 364.479 351.607 14.047 15.967 o
2 -5 5 155.481 168.732 11.480 31.372 o
2 -5 6 637.364 616.541 20.952 7.208 o
2 -5 7 358.473 353.406 22.573 9.053 o
2 -5 8 46.303 34.076 8.040 79.360 o
2 -5 9 27.780 32.805 8.496 77.267 o
2 -5 10 133.546 126.622 19.268 15.041 o
2 -4 0 863.604 886.038 14.830 6.668 o
2 -4 1 13.260 8.679 1.586 922.512 o
2 -4 2 556.742 574.832 12.463 11.902 o
2 -4 3 948.698 971.902 18.366 5.362 o
2 -4 4 1592.340 1543.400 25.593 2.459 o
2 -4 5 186.003 168.562 10.418 33.267 o
2 -4 6 271.247 260.926 10.887 24.948 o
2 -4 7 0.769 5.220 2.460 937.402 o
2 -4 8 16.038 15.080 3.924 301.571 o
2 -4 9 141.722 159.458 12.099 30.218 o
2 -4 10 241.836 218.941 16.465 16.598 o
2 -4 11 215.527 222.957 15.893 17.917 o
2 -3 0 19.275 18.072 1.571 661.502 o
2 -3 1 171.276 161.885 5.087 61.626 o
2 -3 2 2262.650 2384.530 21.330 1.514 o
2 -3 3 1968.710 1957.100 21.709 1.926 o
2 -3 4 705.471 673.340 12.607 9.386 o
2 -3 5 93.896 82.443 4.402 111.859 o
2 -3 6 245.388 260.597 8.449 32.242 o
2 -3 7 507.347 491.898 12.629 13.230 o
2 -3 8 125.499 131.948 8.732 48.496 o
2 -3 9 599.805 635.869 23.248 6.608 o
2 -3 10 619.227 595.531 23.463 6.544 o
2 -3 11 125.518 142.381 12.393 30.443 o
2 -3 12 55.470 43.517 7.944 77.061 o
2 -2 0 2506.680 2506.960 19.775 1.339 o
2 -2 1 979.572 955.612 10.440 6.468 o
2 -2 2 1045.720 1062.240 11.894 5.614 o
2 -2 3 111.035 133.894 3.792 96.660 o
2 -2 4 1094.070 1174.170 20.422 4.206 o
2 -2 5 750.197 765.133 12.865 8.431 o
2 -2 6 721.477 708.847 18.100 7.318 o
2 -2 7 539.457 530.352 13.315 11.992 o
2 -2 8 198.536 201.337 7.751 41.110 o
2 -2 9 97.082 103.908 6.054 81.294 o
2 -2 10 18.435 29.770 9.235 68.908 o
2 -2 11 8.179 18.835 7.376 109.869 o
2 -2 12 153.209 157.912 16.714 18.437 o
2 -2 13 236.694 205.016 19.541 13.060 o
2 -1 0 5984.570 6016.730 51.638 0.260 o
2 -1 1 1766.360 1746.260 16.023 2.448 o
2 -1 2 2565.800 2588.360 27.116 1.201 o
2 -1 3 81.883 84.912 4.082 125.074 o
2 -1 4 125.575 132.247 4.458 83.884 o
2 -1 5 6705.440 6809.330 62.106 0.204 o
2 -1 6 1442.710 1404.460 22.602 2.958 o
2 -1 7 1263.170 1278.520 26.597 3.110 o
2 -1 8 26.086 24.575 4.093 241.839 o
2 -1 9 115.013 110.129 14.665 24.428 o
2 -1 10 85.106 93.117 7.866 65.203 o
2 -1 11 521.400 530.587 18.019 9.581 o
2 -1 12 315.402 303.911 22.392 9.618 o
2 -1 13 177.937 152.382 16.982 17.577 o
2 -1 14 25.231 23.421 8.977 71.751 o
2 0 0 42.085 52.588 1.918 293.835 o
2 0 1 4012.090 4004.110 35.831 0.551 o
2 0 2 2726.480 2736.630 24.306 1.122 o
2 0 3 715.360 724.277 12.841 8.953 o
2 0 4 2006.230 1951.940 20.455 1.922 o
2 0 5 36.329 57.263 3.450 221.042 o
2 0 6 83.324 78.056 3.691 134.602 o
2 0 7 10.129 15.561 2.668 553.079 o
2 0 8 59.622 63.311 5.230 123.599 o
2 0 9 820.364 812.743 28.061 4.409 o
2 0 10 407.751 393.715 15.108 13.751 o
2 0 11 163.609 162.474 11.694 30.368 o
2 0 12 83.618 111.613 10.660 42.169 o
2 0 13 119.278 135.933 10.227 40.368 o
2 0 14 33.810 25.130 8.815 71.998 o
2 0 15 92.243 93.644 14.407 26.171 o
2 1 0 4482.390 4714.920 34.062 0.448 o
2 1 1 36929.800 32698.600 228.756 0.008 o
2 1 2 936.803 915.368 13.913 6.314 o
2 1 3 647.731 616.104 11.178 10.948 o
2 1 4 36.353 37.135 2.359 321.704 o
2 1 5 189.818 196.005 5.791 51.209 o
2 1 6 551.558 596.173 10.885 12.675 o
2 1 7 393.347 384.330 8.967 20.717 o
2 1 8 1656.520 1603.030 23.933 2.410 o
2 1 9 967.805 975.575 20.771 4.898 o
2 1 10 663.773 675.756 24.735 5.822 o
2 1 11 277.303 246.313 15.209 17.416 o
2 1 12 2.764 8.898 6.474 147.980 o
2 1 13 22.279 26.291 6.545 124.355 o
2 1 14 119.492 127.094 10.758 38.066 o
2 1 15 243.338 256.421 15.641 17.390 o
2 2 0 3498.630 3446.210 26.422 0.739 o
2 2 1 7850.690 7527.430 60.459 0.162 o
2 2 2 6896.570 6693.870 60.345 0.201 o
2 2 3 24.768 15.490 1.623 584.605 o
2 2 4 2.370 2.446 1.426 2201.040 o
2 2 5 1838.880 1927.210 20.126 2.121 o
2 2 6 798.126 800.584 12.113 8.058 o
2 2 7 350.112 329.148 8.332 24.484 o
2 2 8 536.940 519.666 11.693 13.100 o
2 2 9 1502.910 1530.680 24.649 2.641 o
2 2 10 145.955 164.334 10.159 37.320 o
2 2 11 4.960 17.237 4.528 270.079 o
2 2 12 1049.380 929.559 31.708 3.314 o
2 2 13 34.543 30.816 6.148 126.969 o
2 2 14 214.127 211.161 32.845 5.465 o
2 2 15 77.780 106.837 14.726 25.472 o
2 2 16 73.760 108.923 21.916 12.528 o
2 3 0 329.000 322.265 6.286 29.134 o
2 3 1 1223.180 1268.380 18.609 3.884 o
2 3 2 41.471 41.890 3.474 225.307 o
2 3 3 625.979 624.887 9.887 11.736 o
2 3 4 958.399 948.711 14.392 6.020 o
2 3 5 1105.400 1076.350 15.871 4.854 o
2 3 6 1190.730 1199.720 17.871 4.142 o
2 3 7 83.664 107.362 5.314 95.975 o
2 3 8 117.790 114.805 5.821 75.683 o
2 3 9 630.455 608.673 15.442 9.385 o
2 3 10 189.281 178.450 9.826 34.844 o
2 3 11 169.347 162.063 11.600 30.386 o
2 3 12 320.004 340.985 18.392 12.421 o
2 3 13 179.332 187.594 11.992 28.029 o
2 3 14 3.155 5.819 6.409 151.892 o
2 3 15 27.249 13.145 7.787 93.232 o
2 3 16 126.722 108.623 18.702 16.045 o
2 4 0 94.178 105.812 4.998 96.162 o
2 4 1 101.603 98.751 4.533 100.906 o
2 4 2 1277.910 1313.720 16.568 3.837 o
2 4 3 1319.150 1335.070 19.540 3.484 o
2 4 4 1116.860 1122.740 17.943 4.493 o
2 4 5 2080.850 2152.380 30.244 1.551 o
2 4 6 1.548 4.230 1.726 1658.310 o
2 4 7 52.450 56.483 4.640 149.049 o
2 4 8 1065.580 1018.160 35.164 2.882 o
2 4 9 58.129 59.513 5.417 121.324 o
2 4 10 190.595 198.164 10.644 31.287 o
2 4 11 42.094 52.560 6.072 117.213 o
2 4 12 286.985 322.305 14.621 17.209 o
2 4 13 21.061 25.786 6.078 141.415 o
2 4 14 14.717 16.008 5.680 169.874 o
2 4 15 16.709 13.398 6.352 139.581 o
2 4 16 36.023 44.514 13.178 34.218 o
2 5 0 685.495 657.112 23.147 6.193 o
2 5 1 623.961 613.332 16.476 8.994 o
2 5 2 784.529 738.925 16.365 7.294 o
2 5 3 2020.550 2023.810 39.072 1.418 o
2 5 4 1213.960 1221.480 25.432 3.355 o
2 5 5 57.467 59.496 5.049 131.271 o
2 5 6 139.235 151.182 8.316 48.094 o
2 5 7 381.980 409.042 19.301 10.697 o
2 5 8 514.425 531.566 17.014 10.174 o
2 5 9 728.272 768.087 37.033 3.307 o
2 5 10 364.929 345.704 19.064 11.351 o
2 5 11 0.251 1.405 3.329 571.621 o
2 5 12 154.111 168.199 10.929 33.473 o
2 5 13 106.534 81.569 8.222 58.837 o
2 5 14 151.162 121.070 11.894 31.454 o
2 5 15 87.865 97.830 11.080 40.005 o
2 6 0 965.693 995.373 32.356 3.329 o
2 6 1 745.460 743.080 27.062 4.897 o
2 6 2 40.236 34.642 5.048 158.755 o
2 6 3 6.320 2.556 2.499 792.510 o
2 6 4 215.585 217.375 10.607 29.413 o
2 6 5 137.862 143.805 10.438 37.507 o
2 6 6 378.429 400.804 17.868 11.819 o
2 6 7 693.358 679.678 40.133 3.032 o
2 6 8 33.376 38.107 7.586 90.646 o
2 6 9 103.802 95.288 12.679 31.651 o
2 6 10 59.096 49.453 10.369 49.664 o
2 6 11 53.047 39.514 6.199 111.515 o
2 6 12 17.202 14.528 4.604 235.390 o
2 6 13 50.124 48.229 6.876 96.161 o
2 6 14 55.470 65.183 13.197 32.654 o
2 6 15 2.255 -0.991 5.136 240.207 o
2 7 0 280.595 308.937 18.939 12.570 o
2 7 1 75.343 90.196 10.460 45.174 o
2 7 2 45.975 53.858 8.144 75.295 o
2 7 3 39.815 38.076 7.049 99.046 o
2 7 4 682.988 657.347 35.790 3.619 o
2 7 5 328.735 335.667 17.988 12.706 o
2 7 6 364.166 375.686 19.401 10.960 o
2 7 7 320.380 301.197 19.201 11.943 o
2 7 8 281.435 287.726 16.962 14.732 o
2 7 9 228.142 208.457 12.901 23.339 o
2 7 10 37.833 27.453 9.820 58.814 o
2 7 11 224.816 225.280 14.579 19.881 o
2 7 12 238.114 241.228 15.370 18.066 o
2 7 13 26.610 36.051 7.536 94.475 o
2 7 14 26.276 38.661 7.063 104.609 o
2 8 0 14.725 12.822 5.339 190.762 o
2 8 1 57.061 64.871 9.832 53.421 o
2 8 2 115.300 123.628 12.886 29.643 o
2 8 3 783.615 763.210 33.128 3.749 o
2 8 4 489.380 482.862 23.826 7.326 o
2 8 5 22.902 21.277 5.841 151.108 o
2 8 6 35.622 35.988 7.078 100.668 o
2 8 7 27.740 29.219 6.661 116.708 o
2 8 8 3.441 3.814 6.506 148.190 o
2 8 9 149.623 148.493 11.372 32.689 o
2 8 10 38.441 39.187 8.336 76.224 o
2 8 11 25.755 34.042 12.644 37.832 o
2 8 12 10.182 18.143 6.739 128.552 o
2 8 13 0.117 11.000 5.396 211.975 o
2 9 0 31.547 39.579 9.457 62.842 o
2 9 1 40.357 51.696 9.400 61.014 o
2 9 2 56.754 61.406 10.005 52.207 o
2 9 3 147.532 155.030 15.386 21.162 o
2 9 4 269.134 250.969 18.579 13.403 o
2 9 5 29.996 27.234 6.760 113.299 o
2 9 6 25.831 25.215 14.792 28.285 o
2 9 7 55.769 64.192 9.534 56.331 o
2 9 8 98.511 95.083 11.355 37.867 o
2 9 9 11.807 21.954 10.416 56.603 o
2 9 10 21.624 25.035 15.507 25.957 o
2 9 11 0.608 1.697 8.053 99.240 o
2 10 2 25.811 28.841 8.918 71.874 o
2 10 3 2.084 3.618 5.328 220.416 o
2 10 4 0.327 -9.784 11.281 50.826 o
2 10 5 135.745 152.545 24.426 9.791 o
2 10 6 83.626 79.567 18.902 16.509 o
2 10 7 51.464 69.251 18.270 18.117 o
3 -8 0 14.222 11.497 6.765 127.201 o
3 -7 0 178.218 184.087 17.014 17.237 o
3 -7 1 229.743 209.252 15.583 18.255 o
3 -7 2 254.799 268.482 30.915 5.933 o
3 -7 3 59.658 50.361 11.195 43.606 o
3 -7 4 4.783 13.744 12.213 42.549 o
3 -6 0 392.296 395.711 14.965 14.117 o
3 -6 1 350.495 358.675 30.932 5.583 o
3 -6 2 17.439 27.310 8.641 78.248 o
3 -6 3 20.159 53.013 11.168 47.246 o
3 -6 4 113.652 109.401 19.468 15.111 o
3 -6 5 275.947 271.152 23.442 9.315 o
3 -6 6 292.746 275.723 24.616 8.516 o
3 -5 0 461.818 472.375 12.385 14.403 o
3 -5 1 18.344 22.874 4.297 247.305 o
3 -5 2 38.639 51.069 8.995 65.999 o
3 -5 3 616.695 641.243 31.435 4.491 o
3 -5 4 172.889 178.898 14.111 22.943 o
3 -5 5 569.495 580.779 25.522 6.162 o
3 -5 6 181.949 179.319 18.311 15.343 o
3 -5 7 70.690 67.215 14.393 27.419 o
3 -5 8 41.815 54.355 10.749 48.281 o
3 -4 0 121.783 108.698 5.463 79.122 o
3 -4 1 504.402 489.275 10.796 14.589 o
3 -4 2 959.539 945.371 31.351 3.498 o
3 -4 3 668.599 711.072 18.882 7.410 o
3 -4 4 350.426 360.294 13.885 16.352 o
3 -4 5 100.867 104.068 7.975 60.024 o
3 -4 6 2.741 2.327 3.588 466.951 o
3 -4 7 169.865 189.324 12.065 28.217 o
3 -4 8 445.875 463.102 19.968 9.483 o
3 -4 9 322.838 330.663 17.599 13.171 o
3 -4 10 203.764 219.814 15.236 19.301 o
3 -3 0 289.306 291.938 6.382 32.849 o
3 -3 1 1571.130 1548.980 24.588 2.533 o
3 -3 2 755.049 770.184 15.304 7.683 o
3 -3 3 1706.570 1754.580 42.750 1.568 o
3 -3 4 326.542 313.087 14.351 16.805 o
3 -3 5 68.998 75.569 6.451 90.796 o
3 -3 6 608.532 600.654 16.786 9.057 o
3 -3 7 485.697 452.293 15.389 11.961 o
3 -3 8 917.576 956.148 28.116 3.987 o
3 -3 9 50.465 73.091 8.362 69.098 o
3 -3 10 47.929 41.307 7.535 86.087 o
3 -3 11 20.566 19.218 10.616 53.705 o
3 -3 12 67.220 44.093 13.145 32.822 o
3 -2 0 1012.520 1025.740 12.716 5.775 o
3 -2 1 9.827 6.219 1.158 1396.170 o
3 -2 2 14.018 11.561 1.882 751.238 o
3 -2 3 0.989 3.311 1.206 3050.680 o
3 -2 4 498.650 505.175 10.599 14.683 o
3 -2 5 479.449 499.280 18.374 9.921 o
3 -2 6 463.795 424.528 18.748 10.200 o
3 -2 7 515.856 517.406 11.448 13.650 o
3 -2 8 569.900 548.446 16.184 9.951 o
3 -2 9 116.489 150.319 15.748 21.202 o
3 -2 10 258.913 276.742 21.534 10.740 o
3 -2 11 45.679 48.142 31.647 6.344 o
3 -2 12 266.468 219.948 20.651 11.638 o
3 -1 0 595.593 589.040 9.546 12.669 o
3 -1 1 172.392 155.673 5.318 60.673 o
3 -1 2 1070.550 1144.210 16.076 4.834 o
3 -1 3 782.370 762.726 13.075 8.106 o
3 -1 4 1437.340 1397.070 22.162 3.001 o
3 -1 5 2235.480 2219.830 30.134 1.433 o
3 -1 6 151.079 136.502 6.920 56.319 o
3 -1 7 47.180 48.823 4.679 157.242 o
3 -1 8 98.030 94.957 7.182 69.297 o
3 -1 9 1287.930 1255.560 32.172 2.670 o
3 -1 10 541.860 543.847 37.288 3.680 o
3 -1 11 151.936 143.772 16.280 19.397 o
3 -1 12 39.631 53.104 11.144 45.607 o
3 -1 13 14.186 26.758 9.450 67.125 o
3 0 0 2230.220 2290.530 20.873 1.578 o
3 0 1 134.358 163.706 4.428 75.673 o
3 0 2 996.874 1005.810 14.880 5.605 o
3 0 3 1292.390 1292.700 17.221 3.777 o
3 0 4 2139.490 2154.030 24.787 1.625 o
3 0 5 1406.620 1434.950 19.695 3.176 o
3 0 6 53.924 59.767 3.973 167.715 o
3 0 7 297.059 343.802 11.988 20.482 o
3 0 8 174.567 174.609 8.946 39.750 o
3 0 9 552.033 564.537 16.852 9.720 o
3 0 10 470.617 440.250 27.904 6.047 o
3 0 11 266.175 250.774 20.070 12.004 o
3 0 12 20.189 42.358 10.315 55.217 o
3 0 13 40.285 43.133 11.428 44.001 o
3 0 14 53.506 62.353 14.293 28.470 o
3 1 0 1158.230 1134.660 12.039 4.921 o
3 1 1 2020.250 1972.690 21.936 1.864 o
3 1 2 368.363 348.148 8.601 22.861 o
3 1 3 248.519 218.239 7.300 37.019 o
3 1 4 1.885 3.821 1.609 1825.080 o
3 1 5 488.237 494.865 10.051 15.416 o
3 1 6 386.210 384.855 9.410 20.428 o
3 1 7 3087.040 3102.400 39.925 0.801 o
3 1 8 635.905 642.036 24.538 6.053 o
3 1 9 67.848 72.070 6.281 94.843 o
3 1 10 102.634 87.031 9.304 50.334 o
3 1 11 299.226 284.633 17.912 13.483 o
3 1 12 5.738 4.236 5.446 204.486 o
3 1 13 332.487 308.152 21.641 9.970 o
3 1 14 180.913 182.376 20.009 13.288 o
3 1 15 37.367 50.221 12.303 38.516 o
3 2 0 284.016 280.349 6.125 34.304 o
3 2 1 21.927 23.826 1.942 515.222 o
3 2 2 74.255 66.711 3.661 149.413 o
3 2 3 60.327 64.867 4.053 154.566 o
3 2 4 350.531 364.891 9.082 22.573 o
3 2 5 968.900 1015.250 17.462 5.325 o
3 2 6 893.668 878.920 15.666 6.344 o
3 2 7 1011.180 1030.120 17.810 5.068 o
3 2 8 1.556 3.141 1.804 1600.690 o
3 2 9 11.905 13.243 3.430 392.035 o
3 2 10 45.634 42.216 6.907 98.682 o
3 2 11 569.597 528.816 27.555 5.673 o
3 2 12 288.445 291.511 20.637 11.127 o
3 2 13 71.150 70.031 9.830 51.323 o
3 2 14 5.075 13.535 8.017 96.189 o
3 2 15 1.012 6.718 7.729 106.387 o
3 3 0 580.357 601.482 9.602 12.797 o
3 3 1 15.698 19.398 1.725 679.780 o
3 3 2 137.596 161.325 7.369 53.511 o
3 3 3 1998.600 2017.250 28.069 1.712 o
3 3 4 2083.800 2083.800 22.859 1.738 o
3 3 5 1900.050 1831.070 29.164 1.839 o
3 3 6 804.261 831.115 15.725 7.020 o
3 3 7 70.887 73.849 5.003 117.658 o
3 3 8 50.468 58.534 4.996 138.964 o
3 3 9 382.422 399.172 15.045 14.179 o
3 3 10 626.530 574.030 21.245 7.293 o
3 3 11 456.445 451.772 19.004 9.991 o
3 3 12 206.722 237.827 14.256 20.789 o
3 3 13 3.010 4.288 5.568 200.370 o
3 3 14 0.271 -7.267 5.628 203.908 o
3 3 15 30.926 20.431 15.541 25.657 o
3 4 0 38.815 34.227 2.657 295.585 o
3 4 1 660.095 670.760 12.292 10.012 o
3 4 2 1271.390 1253.190 23.812 3.345 o
3 4 3 348.662 326.834 10.040 21.985 o
3 4 4 186.275 214.891 12.248 26.396 o
3 4 5 5.708 1.833 1.203 2071.980 o
3 4 6 9.798 11.093 2.201 738.707 o
3 4 7 716.296 753.705 16.712 7.617 o
3 4 8 476.326 487.180 12.803 13.681 o
3 4 9 75.361 72.127 5.868 98.785 o
3 4 10 64.594 65.690 6.784 88.827 o
3 4 11 84.427 106.556 10.485 43.365 o
3 4 12 229.452 201.636 12.194 25.019 o
3 4 13 14.528 8.681 5.109 209.233 o
3 4 14 136.164 142.041 17.337 17.816 o
3 4 15 42.540 54.988 10.809 47.713 o
3 5 0 290.431 268.111 8.154 29.721 o
3 5 1 171.445 175.865 7.438 47.183 o
3 5 2 1261.180 1240.290 13.871 4.200 o
3 5 3 617.919 617.720 23.779 6.403 o
3 5 4 5.323 3.190 1.192 2040.830 o
3 5 5 354.081 382.480 11.316 19.109 o
3 5 6 154.518 144.113 5.107 67.601 o
3 5 7 676.404 687.334 24.002 5.938 o
3 5 8 781.964 809.967 32.715 3.769 o
3 5 9 164.276 153.003 9.443 39.455 o
3 5 10 167.090 170.099 9.641 37.617 o
3 5 11 4.974 -0.611 3.580 459.824 o
3 5 12 704.966 662.239 22.157 6.364 o
3 5 13 217.100 214.292 12.975 23.462 o
3 5 14 1.892 16.629 6.182 158.617 o
3 5 15 0.654 9.032 5.942 176.761 o
3 6 0 179.193 188.571 8.323 41.349 o
3 6 1 367.944 367.964 11.296 18.941 o
3 6 2 68.557 75.704 4.458 130.936 o
3 6 3 19.333 20.905 2.909 400.243 o
3 6 4 541.292 552.003 13.857 11.502 o
3 6 5 374.220 373.020 11.444 18.507 o
3 6 6 108.126 115.558 7.652 60.453 o
3 6 7 343.648 344.589 18.668 11.896 o
3 6 8 7.746 12.233 6.152 156.397 o
3 6 9 1.578 8.935 3.572 453.065 o
3 6 10 10.649 8.509 5.718 177.364 o
3 6 11 26.538 25.418 5.703 151.321 o
3 6 12 101.194 89.752 8.487 56.759 o
3 6 13 154.429 166.535 11.835 30.273 o
3 6 14 10.228 20.659 6.273 145.046 o
3 6 15 3.652 8.488 10.048 62.860 o
3 7 0 66.111 60.212 5.515 113.756 o
3 7 1 17.836 25.076 7.431 102.589 o
3 7 2 124.070 123.974 5.928 71.535 o
3 7 3 115.656 119.688 7.454 60.319 o
3 7 4 50.068 49.841 5.619 124.922 o
3 7 5 368.713 363.008 17.173 12.738 o
3 7 6 34.959 34.045 5.042 165.295 o
3 7 7 86.092 90.429 7.827 65.684 o
3 7 8 270.477 283.315 14.069 18.838 o
3 7 9 334.034 289.007 16.788 14.108 o
3 7 10 160.141 156.669 10.361 35.686 o
3 7 11 6.548 10.646 4.211 311.843 o
3 7 12 48.135 46.126 7.421 87.196 o
3 7 13 54.688 39.774 6.514 103.466 o
3 7 14 14.668 15.895 8.246 87.683 o
3 8 0 157.781 174.869 13.034 26.266 o
3 8 1 239.821 234.913 14.932 18.795 o
3 8 2 448.146 431.083 51.880 2.181 o
3 8 3 100.375 114.345 9.765 45.867 o
3 8 4 1.451 0.825 4.182 360.355 o
3 8 5 17.178 24.868 5.778 157.664 o
3 8 6 14.006 13.099 5.033 211.520 o
3 8 7 32.304 33.774 6.534 116.276 o
3 8 8 4.826 7.599 3.871 376.853 o
3 8 9 528.752 570.694 30.571 4.967 o
3 8 10 61.639 78.230 14.238 28.074 o
3 8 11 3.709 -6.236 7.742 106.329 o
3 8 12 0.042 5.455 8.769 83.421 o
3 8 13 1.391 -0.499 12.013 44.740 o
3 9 0 94.946 116.746 11.881 34.887 o
3 9 1 218.318 241.389 16.580 16.657 o
3 9 2 108.285 115.827 11.664 35.049 o
3 9 3 59.160 87.026 14.872 25.932 o
3 9 4 58.635 62.616 13.415 31.636 o
3 9 5 1.878 2.618 6.853 135.500 o
3 9 6 161.423 151.745 18.968 14.934 o
3 9 7 101.837 115.144 32.662 5.814 o
3 9 8 91.402 118.016 24.975 9.702 o
3 9 9 8.222 37.296 11.431 47.039 o
3 9 10 29.545 50.706 12.069 40.403 o
3 9 11 104.135 60.499 16.473 20.906 o
3 10 2 3.741 16.755 18.602 18.539 o
3 10 3 10.570 17.581 9.775 64.398 o
3 10 4 6.541 13.285 16.572 23.282 o
3 10 5 60.031 94.760 16.827 20.679 o
4 -7 0 115.406 131.844 16.394 20.072 o
4 -7 1 137.075 151.292 17.601 17.284 o
4 -6 0 12.639 15.931 5.412 187.217 o
4 -6 1 0.813 6.405 5.226 228.536 o
4 -6 2 72.760 74.327 10.209 47.998 o
4 -6 3 178.966 160.913 21.364 12.024 o
4 -6 4 178.456 177.969 19.894 13.464 o
4 -6 5 215.684 239.200 35.208 4.788 o
4 -5 0 9.829 8.151 3.599 392.430 o
4 -5 1 73.105 72.614 8.900 59.017 o
4 -5 2 272.390 284.286 17.548 14.236 o
4 -5 3 335.092 311.856 23.954 8.551 o
4 -5 4 70.186 75.775 12.149 36.430 o
4 -5 5 276.869 286.160 17.070 14.690 o
4 -5 6 47.891 52.561 10.429 50.264 o
4 -5 7 55.060 63.890 11.116 43.938 o
4 -4 0 342.432 356.001 10.892 20.452 o
4 -4 1 369.373 372.996 13.549 16.191 o
4 -4 2 477.441 491.655 18.782 9.748 o
4 -4 3 251.396 271.898 14.495 18.782 o
4 -4 4 28.106 27.159 6.792 113.462 o
4 -4 5 22.360 38.870 8.153 83.603 o
4 -4 6 3.109 11.714 6.314 153.591 o
4 -4 7 195.623 219.345 18.656 14.452 o
4 -4 8 272.618 302.071 25.607 8.024 o
4 -4 9 211.391 216.463 20.185 12.615 o
4 -3 0 504.389 493.592 9.786 15.258 o
4 -3 1 715.808 738.827 13.732 8.599 o
4 -3 2 76.465 90.268 5.831 94.859 o
4 -3 3 86.433 96.476 6.417 81.389 o
4 -3 4 458.810 476.328 11.123 15.443 o
4 -3 5 1170.470 1143.150 26.246 3.447 o
4 -3 6 395.582 382.847 15.351 13.816 o
4 -3 7 247.914 254.700 13.497 20.789 o
4 -3 8 9.117 11.227 6.441 143.042 o
4 -3 9 22.601 12.544 11.980 42.868 o
4 -3 10 48.115 49.520 11.589 42.045 o
4 -2 0 121.543 120.271 5.604 75.930 o
4 -2 1 136.907 137.410 4.063 82.281 o
4 -2 2 94.209 102.258 6.144 81.400 o
4 -2 3 296.465 308.070 12.840 19.713 o
4 -2 4 574.839 573.243 14.251 10.729 o
4 -2 5 507.275 517.359 13.334 12.556 o
4 -2 6 413.931 409.141 12.302 16.122 o
4 -2 7 71.628 63.800 10.394 47.343 o
4 -2 8 1.513 7.600 6.822 135.177 o
4 -2 9 14.584 16.571 16.888 22.235 o
4 -2 10 84.640 104.754 14.260 26.697 o
4 -2 11 301.814 306.557 24.757 8.313 o
4 -1 0 25.636 21.424 2.332 434.322 o
4 -1 1 815.545 796.220 12.422 7.857 o
4 -1 2 1025.760 991.785 22.361 4.448 o
4 -1 3 1660.850 1681.940 24.395 2.335 o
4 -1 4 587.325 586.282 13.472 10.885 o
4 -1 5 7.061 3.598 3.422 463.702 o
4 -1 6 75.267 73.341 8.189 65.838 o
4 -1 7 242.897 242.737 14.952 18.601 o
4 -1 8 445.866 411.903 17.585 11.194 o
4 -1 9 197.472 201.585 19.069 14.052 o
4 -1 10 157.884 173.122 21.930 11.617 o
4 -1 11 71.006 107.112 28.985 7.395 o
4 -1 12 19.830 20.231 8.730 77.093 o
4 0 0 1028.020 1046.720 15.881 5.230 o
4 0 1 791.949 807.672 11.925 8.126 o
4 0 2 150.428 131.708 4.648 73.926 o
4 0 3 530.046 518.489 13.079 12.361 o
4 0 4 0.380 1.559 1.338 3109.590 o
4 0 5 1.175 1.700 2.159 1251.220 o
4 0 6 1361.330 1356.870 27.817 2.795 o
4 0 7 464.363 463.211 18.829 9.968 o
4 0 8 556.496 546.855 19.924 8.341 o
4 0 9 61.675 52.774 11.497 41.424 o
4 0 10 137.605 135.910 16.625 19.121 o
4 0 11 0.679 -0.290 5.922 183.665 o
4 0 12 138.113 119.197 17.471 17.752 o
4 0 13 183.912 186.668 21.028 12.192 o
4 1 0 4693.930 4784.100 37.001 0.416 o
4 1 1 2360.660 2362.500 31.007 1.306 o
4 1 2 41.303 39.250 2.911 261.921 o
4 1 3 10.633 9.209 2.026 809.623 o
4 1 4 77.503 82.758 4.670 117.260 o
4 1 5 892.163 867.734 16.992 6.123 o
4 1 6 278.376 268.557 10.783 24.691 o
4 1 7 573.442 575.448 15.350 10.183 o
4 1 8 312.130 321.400 12.374 19.776 o
4 1 9 89.593 80.343 6.670 79.630 o
4 1 10 98.065 103.616 9.072 51.558 o
4 1 11 53.247 52.760 13.102 33.491 o
4 1 12 30.461 31.817 7.355 97.654 o
4 1 13 58.834 60.352 10.238 50.111 o
4 1 14 166.375 147.958 23.294 10.484 o
4 2 0 431.089 454.721 9.404 17.919 o
4 2 1 1788.380 1832.160 30.997 1.876 o
4 2 2 5498.120 5429.120 77.465 0.262 o
4 2 3 791.146 805.850 15.629 7.214 o
4 2 4 478.486 449.177 12.960 13.860 o
4 2 5 140.271 133.882 6.269 63.442 o
4 2 6 220.812 206.481 8.022 37.676 o
4 2 7 22.233 25.192 2.683 398.208 o
4 2 8 6.272 9.931 2.495 712.819 o
4 2 9 289.757 271.274 12.472 21.064 o
4 2 10 337.321 330.370 14.233 16.538 o
4 2 11 619.733 642.719 39.459 3.216 o
4 2 12 5.685 9.782 6.620 139.179 o
4 2 13 15.085 11.709 7.615 102.154 o
4 2 14 6.464 7.987 5.763 180.466 o
4 3 0 0.674 0.642 1.144 4152.470 o
4 3 1 60.230 55.186 4.852 136.165 o
4 3 2 1119.220 1104.370 17.094 4.612 o
4 3 3 2347.520 2349.610 30.863 1.319 o
4 3 4 405.706 403.094 9.418 19.461 o
4 3 5 140.727 140.129 6.127 63.751 o
4 3 6 302.614 312.145 11.029 22.397 o
4 3 7 239.762 242.014 12.143 23.941 o
4 3 8 133.027 138.084 7.031 58.663 o
4 3 9 227.124 231.226 11.927 25.139 o
4 3 10 520.517 524.177 23.631 7.139 o
4 3 11 118.797 132.799 11.252 35.630 o
4 3 12 18.547 26.795 6.721 121.087 o
4 3 13 422.264 378.433 32.363 5.004 o
4 3 14 4.151 16.618 11.213 50.208 o
4 4 0 926.146 942.631 25.817 4.312 o
4 4 1 737.798 726.200 19.220 6.842 o
4 4 2 1358.610 1306.860 24.823 3.048 o
4 4 3 225.999 226.544 8.937 33.424 o
4 4 4 18.660 15.345 4.031 280.953 o
4 4 5 16.117 18.723 2.309 544.002 o
4 4 6 166.028 177.801 7.466 47.623 o
4 4 7 582.246 594.015 17.998 8.792 o
4 4 8 44.246 53.082 5.711 125.313 o
4 4 9 301.442 302.948 13.975 17.984 o
4 4 10 8.376 3.309 3.658 406.415 o
4 4 11 30.205 22.254 6.713 115.843 o
4 4 12 27.437 37.108 8.196 81.663 o
4 4 13 43.917 35.285 7.668 86.051 o
4 4 14 133.934 146.032 14.386 24.010 o
4 4 15 66.857 87.422 15.712 23.308 o
4 5 0 836.581 827.121 21.272 5.612 o
4 5 1 49.289 51.794 5.817 119.551 o
4 5 2 111.121 111.204 7.315 63.266 o
4 5 3 37.708 51.565 5.499 137.146 o
4 5 4 219.703 228.035 11.563 26.403 o
4 5 5 482.312 484.647 19.262 9.475 o
4 5 6 1030.670 1022.900 24.731 4.077 o
4 5 7 149.208 153.441 7.278 52.883 o
4 5 8 3.932 12.516 3.669 403.335 o
4 5 9 292.099 296.349 14.448 17.617 o
4 5 10 127.724 118.290 10.231 40.379 o
4 5 11 177.905 203.509 18.029 15.608 o
4 5 12 46.439 38.313 8.294 74.956 o
4 5 13 112.373 112.370 12.553 31.269 o
4 5 14 2.555 12.597 6.575 142.337 o
4 5 15 12.508 2.939 7.620 105.025 o
4 6 0 28.454 26.457 6.675 116.703 o
4 6 1 73.657 72.432 6.733 85.228 o
4 6 2 94.517 96.739 18.469 16.940 o
4 6 3 83.178 80.619 8.215 63.263 o
4 6 4 381.880 382.887 16.393 13.098 o
4 6 5 263.161 255.458 13.857 19.727 o
4 6 6 125.084 138.706 10.607 37.908 o
4 6 7 0.099 2.293 6.556 149.512 o
4 6 8 1.586 0.538 2.720 822.672 o
4 6 9 10.552 17.581 3.708 346.039 o
4 6 10 83.242 69.097 15.047 24.946 o
4 6 11 95.019 77.675 20.499 14.123 o
4 6 12 2.904 0.502 6.324 158.697 o
4 6 13 217.355 226.022 22.770 10.298 o
4 6 14 6.372 14.730 21.880 13.422 o
4 7 0 1.239 3.074 5.402 216.583 o
4 7 1 268.235 285.508 23.213 9.463 o
4 7 2 465.677 512.334 30.881 5.121 o
4 7 3 339.762 335.793 16.596 13.865 o
4 7 4 275.915 267.735 15.038 17.459 o
4 7 5 47.799 57.073 7.523 83.803 o
4 7 6 5.584 -6.564 6.273 158.779 o
4 7 7 86.222 82.891 12.918 31.883 o
4 7 8 668.448 775.722 64.442 1.379 o
4 7 9 90.656 88.408 13.191 30.470 o
4 7 10 9.704 4.543 6.070 162.276 o
4 7 11 3.031 -2.349 7.988 100.235 o
4 7 12 8.906 9.341 8.802 79.973 o
4 7 13 4.887 5.961 7.088 123.911 o
4 8 0 171.412 203.062 21.344 11.928 o
4 8 1 73.636 97.982 15.272 24.170 o
4 8 2 31.415 38.771 11.059 47.689 o
4 8 3 28.927 32.952 13.760 32.158 o
4 8 4 0.998 0.253 6.620 146.738 o
4 8 5 130.627 130.689 17.191 18.269 o
4 8 6 21.769 16.718 11.464 46.489 o
4 8 7 12.524 11.819 6.711 130.077 o
4 8 8 30.321 47.005 11.703 42.807 o
4 8 9 136.176 158.287 18.363 16.069 o
4 8 10 37.939 39.306 11.142 46.418 o
4 8 11 0.570 0.707 7.242 122.879 o
4 8 12 26.986 22.030 17.271 21.001 o
4 9 0 95.972 118.235 18.393 16.888 o
4 9 1 88.411 72.987 14.399 26.681 o
4 9 2 15.912 12.263 7.979 93.364 o
4 9 3 7.680 0.118 7.632 107.501 o
4 9 4 156.882 155.372 19.858 13.863 o
4 9 5 269.132 253.840 24.911 8.529 o
4 9 6 88.956 80.268 14.589 25.950 o
4 9 7 14.917 17.044 9.124 72.497 o
4 9 8 1.952 8.363 10.283 60.328 o
4 9 9 14.813 11.312 10.249 58.679 o
5 -6 0 0.468 -3.943 7.130 127.030 o
5 -6 1 7.366 -7.933 9.318 72.982 o
5 -5 0 225.489 222.654 18.716 13.978 o
5 -5 1 269.947 254.021 27.489 7.236 o
5 -5 2 314.493 322.670 23.102 9.125 o
5 -5 3 62.790 69.888 7.883 72.662 o
5 -5 4 62.839 64.440 9.268 57.775 o
5 -5 5 7.309 19.581 7.745 100.563 o
5 -4 0 131.960 152.983 8.195 49.669 o
5 -4 1 289.609 292.488 12.488 20.711 o
5 -4 2 132.605 152.814 10.227 38.539 o
5 -4 3 37.931 40.068 9.247 64.144 o
5 -4 4 52.072 52.283 7.984 76.218 o
5 -4 5 7.934 8.858 4.925 236.237 o
5 -4 6 132.410 152.034 15.890 20.506 o
5 -4 7 157.758 160.210 16.993 17.852 o
5 -3 0 234.356 238.457 9.852 29.844 o
5 -3 1 67.154 78.386 6.144 96.199 o
5 -3 2 12.467 12.859 4.047 305.002 o
5 -3 3 206.593 204.124 11.636 27.359 o
5 -3 4 418.770 455.088 20.518 9.424 o
5 -3 5 431.074 523.665 27.593 6.139 o
5 -3 6 17.782 29.721 20.982 14.425 o
5 -3 7 64.688 84.545 12.706 33.858 o
5 -3 8 0.006 2.620 6.865 136.390 o
5 -3 9 66.196 60.275 12.145 37.194 o
5 -2 0 115.160 100.417 6.500 71.451 o
5 -2 1 49.052 46.323 2.930 230.904 o
5 -2 2 261.638 262.621 10.486 26.210 o
5 -2 3 228.150 232.742 10.150 29.554 o
5 -2 4 579.901 583.726 20.190 7.944 o
5 -2 5 297.686 303.272 21.200 10.570 o
5 -2 6 8.190 2.707 5.391 205.594 o
5 -2 7 94.591 102.493 24.992 9.711 o
5 -2 8 160.016 152.408 17.156 17.612 o
5 -2 9 527.750 576.098 36.190 3.854 o
5 -2 10 116.839 127.555 42.579 3.468 o
5 -1 0 351.426 340.559 9.836 21.923 o
5 -1 1 708.731 679.857 14.062 8.825 o
5 -1 2 319.613 299.654 10.428 23.012 o
5 -1 3 216.394 209.787 8.450 36.419 o
5 -1 4 194.989 194.896 9.602 34.636 o
5 -1 5 2.592 -2.023 3.515 497.581 o
5 -1 6 31.780 17.657 4.646 200.981 o
5 -1 7 73.209 62.132 12.579 34.587 o
5 -1 8 171.812 156.323 22.030 11.484 o
5 -1 9 420.738 407.939 28.508 6.070 o
5 -1 10 2.657 8.500 9.484 70.585 o
5 -1 11 9.622 20.864 9.366 69.702 o
5 0 0 417.820 411.271 10.802 17.513 o
5 0 1 461.430 455.444 11.643 15.183 o
5 0 2 106.014 114.407 4.755 92.150 o
5 0 3 10.488 11.352 1.875 846.903 o
5 0 4 20.880 19.308 4.609 222.026 o
5 0 5 242.430 234.375 11.182 26.159 o
5 0 6 972.446 978.551 23.994 4.398 o
5 0 7 330.431 327.918 13.676 17.409 o
5 0 8 73.076 48.029 14.326 27.901 o
5 0 9 53.492 46.077 10.456 49.779 o
5 0 10 102.310 76.426 13.266 29.936 o
5 0 11 189.684 174.556 42.945 3.349 o
5 0 12 119.723 155.251 19.724 14.438 o
5 1 0 184.454 168.395 6.351 51.480 o
5 1 1 348.445 347.256 9.340 22.638 o
5 1 2 6.203 5.231 2.209 909.646 o
5 1 3 258.530 265.852 8.488 31.062 o
5 1 4 384.565 360.539 13.459 16.098 o
5 1 5 571.121 573.667 18.034 8.952 o
5 1 6 430.448 427.460 11.701 16.120 o
5 1 7 82.035 89.749 6.955 76.817 o
5 1 8 111.050 118.728 10.817 38.750 o
5 1 9 59.529 67.742 7.990 72.328 o
5 1 10 244.559 254.807 19.532 12.710 o
5 1 11 143.297 131.959 14.482 23.693 o
5 1 12 136.275 108.393 16.632 19.409 o
5 2 0 12.290 10.845 1.707 869.231 o
5 2 1 85.525 80.098 4.243 121.029 o
5 2 2 467.901 455.095 13.331 13.707 o
5 2 3 224.175 219.744 9.094 33.313 o
5 2 4 352.793 343.674 12.820 17.765 o
5 2 5 266.300 253.979 11.355 24.326 o
5 2 6 152.714 142.747 8.528 45.743 o
5 2 7 58.083 51.973 4.172 160.650 o
5 2 8 301.850 295.881 13.594 18.603 o
5 2 9 218.824 211.231 13.757 21.802 o
5 2 10 154.292 158.847 12.222 29.203 o
5 2 11 32.151 37.716 7.122 100.826 o
5 2 12 1.091 13.187 7.496 111.323 o
5 2 13 67.582 56.599 10.084 50.542 o
5 3 0 355.598 356.317 15.273 14.780 o
5 3 1 348.369 346.170 13.970 16.447 o
5 3 2 184.585 197.232 8.664 38.965 o
5 3 3 327.370 315.061 9.215 24.425 o
5 3 4 10.237 10.611 2.566 613.451 o
5 3 5 44.934 44.860 4.065 187.142 o
5 3 6 387.805 402.794 11.999 17.124 o
5 3 7 363.776 369.361 13.225 16.717 o
5 3 8 561.583 568.930 16.817 9.624 o
5 3 9 83.805 88.815 10.756 42.583 o
5 3 10 7.210 7.604 4.955 236.629 o
5 3 11 3.186 7.113 8.026 97.886 o
5 3 12 215.363 202.594 16.217 17.617 o
5 3 13 152.751 143.656 13.086 26.948 o
5 3 14 40.694 59.800 19.667 15.951 o
5 4 0 93.733 89.712 5.196 97.194 o
5 4 1 130.397 134.157 10.445 38.438 o
5 4 2 4.429 5.869 1.452 1629.550 o
5 4 3 60.558 56.435 12.862 34.120 o
5 4 4 85.854 80.187 18.819 16.608 o
5 4 5 124.764 123.470 8.391 51.407 o
5 4 6 219.200 198.497 8.082 37.967 o
5 4 7 175.985 190.267 8.595 40.398 o
5 4 8 73.431 83.931 7.255 76.204 o
5 4 9 109.584 103.438 11.635 35.493 o
5 4 10 0.908 -6.910 6.020 177.494 o
5 4 11 71.612 63.391 10.264 48.312 o
5 4 12 113.389 112.188 12.655 30.840 o
5 4 13 102.608 120.788 13.326 28.750 o
5 4 14 22.777 39.655 11.497 45.151 o
5 5 0 171.336 161.139 11.712 29.937 o
5 5 1 162.809 153.375 11.105 32.733 o
5 5 2 14.698 13.286 7.173 113.680 o
5 5 3 394.757 376.655 13.622 15.550 o
5 5 4 482.159 476.381 17.253 10.661 o
5 5 5 152.563 158.507 16.547 18.741 o
5 5 6 222.342 212.395 12.341 24.741 o
5 5 7 161.087 143.633 11.626 31.248 o
5 5 8 41.285 43.208 6.099 119.895 o
5 5 9 113.483 130.504 26.972 8.295 o
5 5 10 33.045 35.476 7.183 99.575 o
5 5 11 69.816 62.162 18.001 18.392 o
5 5 12 117.735 120.348 13.883 26.387 o
5 5 13 19.220 13.217 8.054 90.490 o
5 5 14 0.923 14.210 15.740 25.911 o
5 6 0 116.205 140.968 17.034 18.722 o
5 6 1 30.088 33.964 9.399 64.258 o
5 6 2 4.298 8.648 6.283 155.375 o
5 6 3 106.021 121.237 15.730 21.851 o
5 6 4 173.582 180.291 18.478 15.231 o
5 6 5 6.746 13.807 7.341 112.819 o
5 6 6 27.936 34.913 6.323 124.701 o
5 6 7 1.970 2.093 7.404 116.445 o
5 6 8 33.141 46.476 10.285 53.605 o
5 6 9 136.828 133.225 15.728 20.963 o
5 6 10 72.150 82.638 13.075 31.934 o
5 6 11 116.906 106.705 12.053 33.150 o
5 6 12 44.218 37.721 16.240 23.068 o
5 6 13 124.038 105.907 14.656 24.238 o
5 7 0 231.131 251.135 26.239 7.994 o
5 7 1 135.157 142.890 17.983 16.773 o
5 7 2 264.679 262.416 23.560 9.335 o
5 7 3 23.633 23.147 8.631 77.376 o
5 7 4 25.712 24.015 8.675 76.061 o
5 7 5 31.613 25.938 9.744 60.691 o
5 7 6 100.674 112.141 15.420 22.851 o
5 7 7 68.191 74.138 17.388 19.523 o
5 7 8 185.230 193.719 24.076 9.656 o
5 7 9 12.542 16.034 9.534 67.301 o
5 7 10 1.533 18.849 8.498 86.307 o
5 7 11 0.621 8.229 6.197 163.460 o
5 7 12 0.445 -3.471 20.699 15.103 o
5 8 0 179.178 196.663 32.546 5.638 o
5 8 1 67.711 82.292 14.854 25.794 o
5 8 2 5.973 2.377 7.420 113.824 o
5 8 3 12.644 24.365 9.932 61.619 o
5 8 4 7.408 19.439 9.564 67.534 o
5 8 5 2.031 -5.913 11.148 51.867 o
5 8 6 106.335 75.842 13.792 27.942 o
5 8 7 34.335 33.111 10.561 51.791 o
5 8 8 173.005 172.929 20.238 13.170 o
5 8 9 1.770 5.165 7.869 102.714 o
5 8 10 26.106 24.880 14.426 29.668 o
5 8 11 22.184 44.526 15.041 27.206 o
5 9 1 0.090 -6.389 12.712 40.048 o
5 9 2 8.794 10.017 12.446 40.857 o
5 9 3 109.855 115.395 18.206 17.010 o
5 9 4 54.633 47.690 13.038 33.844 o
5 9 5 1.875 -0.528 8.101 97.923 o
5 9 6 15.928 20.569 9.934 61.387 o
5 9 7 1.410 5.624 8.302 92.478 o
6 -4 0 114.980 137.128 28.802 7.322 o
6 -4 1 11.387 26.627 8.570 81.106 o
6 -4 2 1.878 -4.476 5.936 181.248 o
6 -4 3 71.196 80.622 14.448 26.984 o
6 -4 4 147.017 180.876 14.201 23.509 o
6 -3 0 16.213 46.803 7.751 91.903 o
6 -3 1 19.610 22.621 6.384 132.727 o
6 -3 2 82.430 78.490 7.954 66.371 o
6 -3 3 166.624 195.956 12.428 27.161 o
6 -3 4 172.175 190.895 12.851 25.875 o
6 -3 5 2.582 3.548 8.679 84.683 o
6 -3 6 0.501 10.282 10.017 63.606 o
6 -2 0 62.971 63.748 5.811 108.157 o
6 -2 1 96.673 103.747 8.168 59.095 o
6 -2 2 325.886 347.404 15.442 15.201 o
6 -2 3 274.020 266.669 14.145 18.841 o
6 -2 4 78.048 84.508 8.504 60.975 o
6 -2 5 0.339 4.106 7.807 105.143 o
6 -2 6 149.662 139.898 22.795 11.031 o
6 -2 7 122.295 125.158 21.997 12.013 o
6 -2 8 114.803 140.511 17.684 17.602 o
6 -1 0 346.402 323.123 11.578 19.880 o
6 -1 1 75.463 83.272 7.306 75.074 o
6 -1 2 41.079 40.757 5.612 135.169 o
6 -1 3 33.792 35.905 5.577 144.565 o
6 -1 4 78.873 63.082 9.653 52.219 o
6 -1 5 205.367 192.758 16.437 17.561 o
6 -1 6 189.705 194.955 19.033 14.230 o
6 -1 7 199.241 202.514 20.343 12.648 o
6 -1 8 67.933 81.365 14.385 27.291 o
6 -1 9 0.922 10.844 8.901 80.069 o
6 -1 10 9.229 -2.196 12.180 42.954 o
6 0 0 299.102 283.997 11.950 21.445 o
6 0 1 155.202 148.354 8.897 43.195 o
6 0 2 0.230 -2.904 2.251 1262.650 o
6 0 3 14.468 32.356 4.524 227.837 o
6 0 4 212.425 198.464 15.073 19.639 o
6 0 5 274.809 295.246 13.928 18.797 o
6 0 6 122.098 155.690 11.554 33.421 o
6 0 7 27.760 43.330 7.052 103.137 o
6 0 8 5.811 1.809 13.294 36.272 o
6 0 9 25.851 21.761 8.086 86.346 o
6 0 10 7.617 9.563 12.779 38.886 o
6 1 0 0.040 -0.897 2.370 1150.130 o
6 1 1 184.968 175.169 8.557 40.422 o
6 1 2 262.574 260.572 10.575 26.018 o
6 1 3 142.999 139.169 10.552 36.781 o
6 1 4 361.826 336.972 14.140 16.068 o
6 1 5 109.985 113.354 7.555 61.149 o
6 1 6 40.004 36.662 5.482 142.068 o
6 1 7 138.203 140.724 11.181 34.388 o
6 1 8 109.410 120.842 11.956 33.574 o
6 1 9 198.627 205.927 15.336 19.407 o
6 1 10 48.141 37.981 11.444 43.450 o
6 1 11 79.060 75.672 15.344 24.131 o
6 2 0 4.079 5.987 2.480 815.100 o
6 2 1 633.511 619.719 13.138 10.275 o
6 2 2 611.808 581.742 12.520 11.059 o
6 2 3 13.522 16.255 3.698 336.537 o
6 2 4 7.031 7.856 2.885 582.565 o
6 2 5 0.020 -3.317 2.622 940.645 o
6 2 6 79.819 78.824 7.351 73.941 o
6 2 7 60.802 66.752 6.619 92.890 o
6 2 8 153.524 157.409 12.498 28.396 o
6 2 9 174.799 178.340 13.527 24.278 o
6 2 10 81.844 93.641 13.007 31.477 o
6 2 11 7.593 12.844 5.960 165.540 o
6 2 12 6.207 9.207 8.799 80.743 o
6 3 0 227.521 269.350 17.133 15.520 o
6 3 1 464.316 457.101 21.640 8.502 o
6 3 2 1387.020 1232.800 24.795 3.066 o
6 3 3 155.588 233.609 24.739 9.262 o
6 3 4 88.792 91.016 9.307 51.840 o
6 3 5 110.485 112.774 10.065 43.106 o
6 3 6 97.123 99.444 9.330 50.056 o
6 3 7 140.338 131.233 9.928 40.243 o
6 3 8 17.924 18.297 6.715 124.269 o
6 3 9 38.405 40.551 8.361 75.685 o
6 3 10 0.620 1.800 5.490 212.055 o
6 3 11 9.805 11.013 6.580 137.116 o
6 3 12 118.260 115.997 15.079 23.168 o
6 4 0 6.561 11.030 5.002 230.419 o
6 4 1 3.271 14.417 6.756 133.982 o
6 4 2 29.619 23.359 7.878 88.821 o
6 4 3 49.996 68.525 11.641 40.850 o
6 4 4 379.747 340.909 24.146 8.129 o
6 4 5 181.146 197.253 13.477 23.853 o
6 4 6 154.310 156.854 12.066 29.760 o
6 4 7 1.639 2.569 3.520 492.988 o
6 4 8 3.644 7.686 4.335 312.857 o
6 4 9 1.846 6.039 4.779 268.904 o
6 4 10 44.950 27.872 9.149 65.136 o
6 4 11 164.350 186.079 17.149 17.251 o
6 4 12 131.657 145.557 15.236 22.026 o
6 5 0 0.808 -4.132 5.294 229.254 o
6 5 1 88.689 75.427 13.337 30.301 o
6 5 2 141.906 137.474 17.097 18.168 o
6 5 3 401.389 395.418 27.822 6.386 o
6 5 4 116.584 123.460 15.800 21.408 o
6 5 5 34.343 37.646 10.251 54.327 o
6 5 6 0.101 -2.133 9.035 79.267 o
6 5 7 33.720 36.507 11.970 41.223 o
6 5 8 172.182 160.066 12.445 27.656 o
6 5 9 15.249 17.006 8.958 74.957 o
6 5 10 30.557 36.078 6.417 119.902 o
6 5 11 0.671 -5.451 7.009 131.291 o
6 5 12 1.288 5.947 7.261 120.317 o
6 6 0 38.062 45.446 20.932 14.246 o
6 6 1 179.527 185.055 28.519 7.191 o
6 6 2 35.972 30.933 9.166 66.313 o
6 6 3 163.407 193.815 20.999 12.372 o
6 6 4 68.515 62.267 12.849 33.605 o
6 6 5 17.202 26.816 9.779 62.498 o
6 6 6 5.324 28.919 15.757 25.547 o
6 6 7 132.525 145.223 17.575 17.453 o
6 6 8 100.376 108.628 15.773 22.046 o
6 6 9 82.098 86.362 13.767 28.778 o
6 6 10 5.571 14.853 7.969 96.880 o
6 6 11 2.200 -1.975 8.764 83.662 o
6 6 12 3.127 -0.499 10.549 57.754 o
6 7 0 79.797 95.751 16.060 22.012 o
6 7 1 61.623 41.661 12.053 38.597 o
6 7 2 0.502 6.254 8.091 97.513 o
6 7 3 6.784 -2.184 6.284 157.055 o
6 7 4 12.852 18.660 8.648 80.424 o
6 7 5 100.800 116.369 16.957 19.392 o
6 7 6 66.855 77.391 14.101 28.370 o
6 7 7 72.364 69.938 19.817 15.318 o
6 7 8 0.891 3.407 6.521 149.916 o
6 7 9 6.189 8.454 7.241 117.520 o
6 7 10 6.552 -3.095 7.241 119.674 o
6 7 11 24.001 40.299 13.577 33.035 o
6 8 0 47.013 26.622 14.276 29.437 o
6 8 1 14.394 7.943 8.121 91.603 o
6 8 2 10.825 18.459 9.538 67.338 o
6 8 3 28.529 44.019 13.198 34.514 o
6 8 4 40.620 43.667 12.570 37.056 o
6 8 5 47.574 56.593 17.521 19.765 o
6 8 6 34.702 24.794 17.737 19.794 o
6 8 7 51.718 40.415 11.625 41.891 o
6 8 8 11.250 3.128 9.983 62.883 o
6 8 9 86.665 83.261 19.567 15.440 o
7 -2 0 27.276 30.132 10.616 52.291 o
7 -2 1 79.976 95.755 13.224 30.666 o
7 -2 2 94.592 97.083 13.779 28.030 o
7 -2 3 33.085 42.962 13.910 31.126 o
7 -2 4 0.158 0.356 6.145 171.046 o
7 -1 0 84.705 75.461 9.936 48.584 o
7 -1 1 1.135 12.851 5.822 180.755 o
7 -1 2 1.717 -5.122 5.249 231.291 o
7 -1 3 6.285 -4.506 4.591 285.593 o
7 -1 4 26.077 22.644 5.856 146.980 o
7 -1 5 123.684 112.883 11.465 35.031 o
7 -1 6 144.182 141.015 14.567 23.317 o
7 -1 7 56.020 43.635 28.519 7.757 o
7 0 0 11.796 14.256 15.824 25.359 o
7 0 1 27.857 35.507 12.512 38.403 o
7 0 2 136.788 147.815 11.908 31.457 o
7 0 3 113.331 119.419 10.032 42.706 o
7 0 4 74.823 80.659 8.833 58.706 o
7 0 5 109.044 112.213 12.694 30.908 o
7 0 6 6.966 -0.849 5.540 199.441 o
7 0 7 0.917 2.934 9.466 71.753 o
7 0 8 10.841 3.104 9.305 72.134 o
7 1 0 22.384 15.364 7.870 92.843 o
7 1 1 52.244 44.427 8.314 72.552 o
7 1 2 121.435 122.118 15.076 23.000 o
7 1 3 126.663 138.591 11.564 33.625 o
7 1 4 25.862 25.922 8.112 85.238 o
7 1 5 27.577 21.705 8.351 81.143 o
7 1 6 0.371 7.410 6.149 166.651 o
7 1 7 111.009 104.961 12.920 30.156 o
7 1 8 51.331 74.309 15.256 25.192 o
7 1 9 15.469 45.528 13.053 35.886 o
7 2 0 100.169 114.586 12.000 34.116 o
7 2 1 129.706 136.320 12.665 29.442 o
7 2 2 8.671 3.490 3.896 363.170 o
7 2 3 42.747 45.881 7.736 83.597 o
7 2 4 0.311 1.136 6.258 164.333 o
7 2 5 18.364 20.547 6.666 124.851 o
7 2 6 89.548 112.645 12.936 30.928 o
7 2 7 172.554 178.387 13.103 25.437 o
7 2 8 152.870 160.449 12.650 27.890 o
7 2 9 1.600 1.620 4.410 322.704 o
7 2 10 1.511 4.559 12.213 43.118 o
7 3 0 76.506 76.472 12.777 33.132 o
7 3 1 27.074 19.157 7.753 92.915 o
7 3 2 12.261 14.035 8.123 91.257 o
7 3 3 126.356 112.357 14.909 23.415 o
7 3 4 72.341 79.653 11.652 38.737 o
7 3 5 65.916 57.912 10.869 44.880 o
7 3 6 34.807 37.947 6.291 120.272 o
7 3 7 38.015 34.751 8.345 76.756 o
7 3 8 22.567 6.320 5.468 177.174 o
7 3 9 36.549 23.424 5.867 137.340 o
7 3 10 40.355 41.329 11.557 43.199 o
7 4 0 13.615 12.765 7.750 99.293 o
7 4 1 0.835 -3.960 11.048 52.935 o
7 4 2 8.773 2.857 5.704 184.237 o
7 4 3 15.329 18.187 7.282 109.128 o
7 4 4 158.665 144.370 17.143 17.728 o
7 4 5 89.545 133.126 16.589 20.197 o
7 4 6 51.795 69.687 9.200 59.774 o
7 4 7 0.154 -0.255 4.293 350.495 o
7 4 8 1.344 1.648 5.720 194.545 o
7 4 9 66.021 63.253 10.682 45.898 o
7 4 10 52.069 45.932 8.854 65.605 o
7 5 0 64.448 69.454 13.839 29.570 o
7 5 1 43.034 45.424 11.898 40.664 o
7 5 2 93.265 94.680 19.883 14.859 o
7 5 3 2.377 8.224 10.948 53.268 o
7 5 4 12.536 12.471 7.388 108.994 o
7 5 5 10.329 22.715 13.444 34.739 o
7 5 6 19.926 13.654 8.336 84.720 o
7 5 7 46.117 43.166 14.802 27.281 o
7 5 8 36.748 40.892 10.281 53.539 o
7 5 9 14.359 16.125 7.669 100.239 o
7 5 10 23.591 10.416 10.316 56.842 o
7 6 0 57.482 36.538 10.620 48.573 o
7 6 1 24.591 29.404 10.898 50.160 o
7 6 2 69.532 59.712 14.659 26.711 o
7 6 3 16.813 27.397 9.462 66.426 o
7 6 4 9.228 21.587 9.240 71.505 o
7 6 5 32.372 51.494 11.863 41.443 o
7 6 6 24.430 28.515 10.502 53.764 o
7 6 7 44.008 38.897 11.258 45.041 o
7 6 8 97.983 82.176 13.966 27.567 o
7 6 9 2.762 18.436 9.717 66.406 o
7 7 1 2.052 -4.034 7.329 119.342 o
7 7 2 0.061 4.807 7.973 100.836 o
7 7 3 0.355 10.968 8.248 93.124 o
7 7 4 13.566 25.288 11.005 50.620 o
7 7 5 78.447 69.104 14.543 26.629 o
7 7 6 16.664 22.243 13.245 35.447 o
7 7 7 0.274 21.065 10.848 53.742 o
7 7 8 1.866 -0.333 9.584 70.108 o
8 1 3 1.417 21.006 9.655 67.249 o
8 1 4 0.010 8.065 7.202 122.384 o
8 2 1 48.579 30.183 13.311 33.330 o
8 2 2 0.250 -19.401 14.576 30.457 o
8 2 3 1.020 22.496 13.677 34.032 o
8 2 4 0.771 -0.548 6.670 144.850 o
8 2 5 43.710 33.717 10.067 55.093 o
8 3 0 0.731 11.215 9.185 75.296 o
8 3 1 9.751 -10.682 11.181 50.766 o
8 3 3 178.037 158.036 31.847 5.910 o
8 3 4 6.452 7.568 17.754 20.367 o
8 3 5 6.266 9.091 17.288 21.460 o
8 3 6 3.500 6.222 6.631 141.813 o
8 4 0 0.279 7.337 8.169 95.560 o
8 4 1 4.389 -3.660 14.259 31.659 o
8 4 2 39.644 49.701 11.735 41.769 o
8 4 3 347.371 299.159 59.118 1.758 o
8 4 4 2.570 13.344 13.311 36.053 o
8 5 2 5.478 16.058 8.931 77.793 o
8 5 3 39.391 40.656 15.358 25.710 o
8 5 4 3.997 -0.200 7.920 101.550 o
8 5 5 21.174 25.624 11.414 46.526 o
;
_olex2_submission_special_instructions 'No special instructions were received'
_oxdiff_exptl_absorpt_empirical_details
;
Empirical correction (ABSPACK) includes:
- Absorption correction using spherical harmonics
- Frame scaling
;
_oxdiff_exptl_absorpt_empirical_full_max 1.718
_oxdiff_exptl_absorpt_empirical_full_min 0.463
loop_
_space_group_symop_id
_space_group_symop_operation_xyz
1 x,y,z
2 -x,-y,-z
loop_
_atom_site_label
_atom_site_type_symbol
_atom_site_fract_x
_atom_site_fract_y
_atom_site_fract_z
_atom_site_U_iso_or_equiv
_atom_site_adp_type
_atom_site_occupancy
_atom_site_refinement_flags_posn
Br1 Br 0.10135(5) 0.62802(4) 0.57890(2) 0.04918(13) Uani 1.000000 .
O1 O 0.4021(3) 0.2897(2) 0.55589(13) 0.0433(5) Uani 1.000000 .
O2 O 0.2047(3) 0.1116(3) 0.61415(15) 0.0521(6) Uani 1.000000 .
O3 O 0.2516(4) -0.0407(3) 1.00931(15) 0.0600(6) Uani 1.000000 .
O4 O 0.1305(4) 0.1745(3) 1.07727(15) 0.0700(7) Uani 1.000000 .
C1 C 0.1357(4) 0.4625(3) 0.70646(19) 0.0318(6) Uani 1.000000 .
C2 C 0.2069(4) 0.2941(3) 0.71165(18) 0.0296(6) Uani 1.000000 .
C3 C 0.2198(4) 0.1816(3) 0.80833(19) 0.0342(6) Uani 1.000000 .
C4 C 0.1690(4) 0.2335(4) 0.8977(2) 0.0380(7) Uani 1.000000 .
C5 C 0.0990(5) 0.4019(4) 0.8886(2) 0.0479(8) Uani 1.000000 .
C6 C 0.0806(4) 0.5160(4) 0.7944(2) 0.0443(7) Uani 1.000000 .
C7 C 0.2745(4) 0.2278(4) 0.61906(19) 0.0349(7) Uani 1.000000 .
C8 C 0.1889(5) 0.1069(4) 0.9995(2) 0.0451(8) Uani 1.000000 .
O5 O 0.1189(4) -0.0103(3) 1.26636(15) 0.0677(7) Uani 1.000000 .
O6 O 0.2807(3) -0.0038(3) 1.43460(15) 0.0555(6) Uani 1.000000 .
N1 N 0.4131(4) 0.4028(3) 0.35232(17) 0.0486(7) Uani 1.000000 .
C9 C 0.4855(5) 0.2857(4) 0.3028(2) 0.0575(9) Uani 1.000000 .
C10 C 0.5011(5) 0.3288(4) 0.1983(2) 0.0545(9) Uani 1.000000 .
C11 C 0.4431(4) 0.4952(4) 0.1430(2) 0.0375(7) Uani 1.000000 .
C12 C 0.3686(4) 0.6128(4) 0.1977(2) 0.0408(7) Uani 1.000000 .
C13 C 0.3559(4) 0.5634(4) 0.3032(2) 0.0447(7) Uani 1.000000 .
C14 C 0.4599(4) 0.5485(4) 0.03037(19) 0.0408(7) Uani 1.000000 .
H3 H 0.2636(4) 0.0682(3) 0.81343(19) 0.0411(8) Uiso 1.000000 R
H5 H 0.0636(5) 0.4387(4) 0.9476(2) 0.0575(9) Uiso 1.000000 R
H6 H 0.0313(4) 0.6289(4) 0.7898(2) 0.0532(9) Uiso 1.000000 R
H13 H 0.3074(4) 0.6423(4) 0.3402(2) 0.0536(9) Uiso 1.000000 R
H9 H 0.5255(5) 0.1746(4) 0.3395(2) 0.0690(11) Uiso 1.000000 R
H10 H 0.5507(5) 0.2468(4) 0.1637(2) 0.0655(10) Uiso 1.000000 R
H12 H 0.3273(4) 0.7249(4) 0.1632(2) 0.0489(9) Uiso 1.000000 R
H14 H 0.4094(4) 0.6608(4) -0.00082(19) 0.0490(8) Uiso 1.000000 R
H4 H 0.1201(4) 0.1047(3) 1.12950(15) 0.1050(11) Uiso 1.000000 R
H5a H 0.1742(4) -0.0071(3) 1.31692(15) 0.1015(10) Uiso 1.000000 R
H5b H 0.0178(4) -0.0490(3) 1.29344(15) 0.1015(10) Uiso 1.000000 R
H6a H 0.2478(3) 0.0208(3) 1.49150(15) 0.0832(9) Uiso 1.000000 R
H6b H 0.3776(3) -0.0893(3) 1.44727(15) 0.0832(9) Uiso 1.000000 R
H1 H 0.4028(4) 0.3736(3) 0.41835(17) 0.0583(8) Uiso 1.000000 R
loop_
_atom_site_aniso_label
_atom_site_aniso_U_11
_atom_site_aniso_U_22
_atom_site_aniso_U_33
_atom_site_aniso_U_12
_atom_site_aniso_U_13
_atom_site_aniso_U_23
Br1 0.0540(2) 0.03635(19) 0.0441(2) -0.00229(14) -0.00799(14) 0.00309(14)
O1 0.0524(12) 0.0465(12) 0.0224(10) -0.0077(10) 0.0073(9) -0.0048(9)
O2 0.0738(15) 0.0583(14) 0.0357(12) -0.0265(12) 0.0083(10) -0.0262(11)
O3 0.0950(18) 0.0491(14) 0.0281(11) -0.0102(13) -0.0020(11) -0.0065(10)
O4 0.127(2) 0.0616(15) 0.0230(11) -0.0269(14) 0.0101(12) -0.0174(11)
C1 0.0341(15) 0.0302(15) 0.0288(14) -0.0069(12) -0.0009(12) -0.0058(12)
C2 0.0326(14) 0.0331(15) 0.0218(13) -0.0065(12) 0.0007(11) -0.0077(11)
C3 0.0465(16) 0.0287(15) 0.0255(14) -0.0067(12) 0.0010(12) -0.0081(12)
C4 0.0481(17) 0.0415(17) 0.0271(15) -0.0138(14) 0.0046(13) -0.0139(13)
C5 0.063(2) 0.0493(19) 0.0353(17) -0.0100(16) 0.0071(15) -0.0257(15)
C6 0.0518(18) 0.0312(16) 0.0495(19) -0.0040(14) 0.0008(15) -0.0176(15)
C7 0.0420(17) 0.0351(16) 0.0212(14) 0.0016(13) -0.0053(13) -0.0061(12)
C8 0.061(2) 0.051(2) 0.0260(16) -0.0176(16) 0.0025(14) -0.0128(15)
O5 0.0880(17) 0.0997(19) 0.0245(11) -0.0460(15) 0.0015(11) -0.0119(12)
O6 0.0652(14) 0.0564(14) 0.0406(12) 0.0047(11) -0.0108(10) -0.0208(11)
N1 0.0577(16) 0.0673(19) 0.0197(12) -0.0266(14) 0.0005(11) -0.0012(13)
C9 0.089(3) 0.048(2) 0.0310(17) -0.0226(18) -0.0058(17) 0.0031(16)
C10 0.088(2) 0.0426(19) 0.0295(16) -0.0167(17) -0.0013(16) -0.0041(14)
C11 0.0441(17) 0.0433(17) 0.0248(14) -0.0147(14) -0.0018(12) -0.0050(13)
C12 0.0479(17) 0.0429(17) 0.0290(15) -0.0105(14) -0.0034(13) -0.0061(14)
C13 0.0512(18) 0.058(2) 0.0272(16) -0.0151(16) 0.0026(13) -0.0154(15)
C14 0.0551(19) 0.0382(17) 0.0247(15) -0.0113(14) -0.0034(13) -0.0014(12)
loop_
_atom_type_symbol
_atom_type_scat_dispersion_real
_atom_type_scat_dispersion_imag
_atom_type_scat_Cromer_Mann_a1
_atom_type_scat_Cromer_Mann_a2
_atom_type_scat_Cromer_Mann_a3
_atom_type_scat_Cromer_Mann_a4
_atom_type_scat_Cromer_Mann_b1
_atom_type_scat_Cromer_Mann_b2
_atom_type_scat_Cromer_Mann_b3
_atom_type_scat_Cromer_Mann_b4
_atom_type_scat_Cromer_Mann_c
_atom_type_scat_source
_atom_type_scat_dispersion_source
Br -0.28346 2.55990 17.17890 5.23580 5.63770 3.98510 2.17230 16.57960 0.26090
41.43280 2.95570 'International Tables Volume C Table 6.1.1.4 (pp. 500-502)'
'Henke, Gullikson and Davis, At. Data and Nucl. Data Tables, 1993, 54, 2'
C 0.00347 0.00161 2.31000 1.02000 1.58860 0.86500 20.84390 10.20750 0.56870
51.65120 0.21560 'International Tables Volume C Table 6.1.1.4 (pp. 500-502)'
'Henke, Gullikson and Davis, At. Data and Nucl. Data Tables, 1993, 54, 2'
H 0.00000 0.00000 0.49300 0.32291 0.14019 0.04081 10.51090 26.12570 3.14236
57.79970 0.00304 'International Tables Volume C Table 6.1.1.4 (pp. 500-502)'
'Henke, Gullikson and Davis, At. Data and Nucl. Data Tables, 1993, 54, 2'
N 0.00653 0.00323 12.21260 3.13220 2.01250 1.16630 0.00570 9.89330 28.99750
0.58260 -11.52900 'International Tables Volume C Table 6.1.1.4 (pp. 500-502)'
'Henke, Gullikson and Davis, At. Data and Nucl. Data Tables, 1993, 54, 2'
O 0.01158 0.00611 3.04850 2.28680 1.54630 0.86700 13.27710 5.70110 0.32390
32.90890 0.25080 'International Tables Volume C Table 6.1.1.4 (pp. 500-502)'
'Henke, Gullikson and Davis, At. Data and Nucl. Data Tables, 1993, 54, 2'
loop_
_diffrn_refln_index_h
_diffrn_refln_index_k
_diffrn_refln_index_l
_diffrn_refln_intensity_net
_diffrn_refln_intensity_u
-8 -6 -7 -0.07 2.44
-8 -6 -6 10.37 3.96
-8 -6 -5 4.74 4.18
-8 -6 -4 13.6 4.67
-8 -6 -3 0.62 3.11
-8 -6 -2 0.82 2.79
-8 -6 -1 3.79 3.65
-8 -5 -5 7.7 3.43
-8 -5 -4 -0.06 2.38
-8 -5 -3 8.68 4.07
-8 -5 -2 4.79 3.44
-8 -5 -1 0.25 3.15
-8 -5 0 8.11 4.11
-8 -5 1 1.71 3.03
-8 -4 -9 4.39 2.77
-8 -4 -7 -0.36 4.6
-8 -4 -3 77.5 8.99
-8 -4 -2 13.03 4.12
-8 -4 -1 -5.77 3.88
-8 -4 0 3.22 3.21
-8 -4 1 3.88 3.71
-8 -4 2 -1.34 2.95
-8 -4 3 3.31 3.69
-8 -3 -7 -3.36 4.26
-8 -3 -6 2.67 4.29
-8 -3 -5 -3.33 4.79
-8 -3 -4 -2.59 4.39
-8 -3 -1 -3.21 3.36
-8 -3 0 3.37 2.76
-8 -3 1 3.12 3.05
-8 -3 2 2.95 3.17
-8 -3 3 5.88 3.41
-8 -3 4 4.37 3.82
-8 -2 -7 18.62 5.94
-8 -2 -6 28.01 7.38
-8 -2 -5 9.35 4.21
-8 -2 -4 -1.74 3.43
-8 -2 -3 6.76 4.11
-8 -2 -2 -5.83 4.38
-8 -2 -1 9.07 4
-8 -2 2 3 2.8
-8 -2 3 6.73 2.9
-8 -2 4 1.51 2.68
-8 -2 5 -3.32 3.45
-8 -1 -7 25.73 7
-8 -1 -6 23.38 6.42
-8 -1 -5 11.71 4.83
-8 -1 -4 2.8 3.16
-8 -1 -3 8.93 4.46
-8 0 -7 -1.64 4.17
-8 0 -6 -3.33 4.29
-8 0 -5 -8.9 5.06
-8 1 -1 -3.93 3.54
-8 1 0 1 2.47
-8 1 1 1.29 2.62
-8 1 2 16 4.42
-8 1 3 13.06 4.55
-8 1 4 4.96 3.65
-7 -7 -11 2.65 3.08
-7 -7 -10 5.02 3.17
-7 -7 -9 5.53 3.3
-7 -7 -8 -0.1 2.88
-7 -7 -7 6.33 3.26
-7 -7 -6 10.73 4.3
-7 -7 -5 22.91 5.99
-7 -7 -4 7.06 4.09
-7 -7 -3 1.62 2.91
-7 -7 -2 2.19 3.6
-7 -7 -1 -0.92 2.71
-7 -6 -11 6.94 3.59
-7 -6 -10 8.49 3.62
-7 -6 -9 5.54 2.92
-7 -6 -8 22.54 4.75
-7 -6 -7 9.79 3.88
-7 -6 -6 7.63 3.59
-7 -6 -5 14.45 4.44
-7 -6 -4 6.26 3.43
-7 -6 -3 7.54 3.51
-7 -6 -2 22.03 5.83
-7 -6 -1 6.32 3.63
-7 -6 0 9.31 4.14
-7 -6 1 18.15 6.13
-7 -6 2 6.16 4.61
-7 -5 -11 -7.84 4.56
-7 -5 -10 3.13 3.1
-7 -5 -9 6.03 2.78
-7 -5 -8 11.7 3.51
-7 -5 -7 21.62 4.45
-7 -5 -6 4.19 2.93
-7 -5 -5 3.98 3.11
-7 -5 -4 2.08 2.58
-7 -5 -3 5.8 3.43
-7 -5 -2 33.31 6.45
-7 -5 -1 11.88 4.64
-7 -5 0 19.53 5.55
-7 -5 1 18.13 5.45
-7 -5 2 3.21 3.11
-7 -5 3 27.19 6.93
-7 -4 -12 8.65 3.85
-7 -4 -11 16.93 4.52
-7 -4 -10 11.3 4.02
-7 -4 -9 17.29 6.78
-7 -4 -8 -2.28 4.65
-7 -4 -7 -1 1.85
-7 -4 -6 20.49 4.25
-7 -4 -5 43.18 6.01
-7 -4 -4 42.71 6.31
-7 -4 -3 4.62 2.59
-7 -4 -2 2.01 2.46
-7 -4 -1 -4.56 3.7
-7 -4 0 2.11 2.74
-7 -4 1 13.83 4.72
-7 -4 2 7.76 3.8
-7 -4 3 42.36 7.71
-7 -4 4 7.67 4.29
-7 -4 5 1.46 3.14
-7 -3 -12 8.73 3.79
-7 -3 -11 16.52 4.29
-7 -3 -10 15.71 6.13
-7 -3 -10 5.17 2.65
-7 -3 -9 7.7 2.74
-7 -3 -9 8.46 4.97
-7 -3 -8 -1.77 4.59
-7 -3 -8 1.16 2.43
-7 -3 -7 10.23 5.05
-7 -3 -6 9.99 2.92
-7 -3 -6 8.68 3.77
-7 -3 -5 12.87 3.08
-7 -3 -4 19.96 3.95
-7 -3 -3 33.55 5.43
-7 -3 -2 3.5 2.89
-7 -3 -1 5.1 2.94
-7 -3 0 22.28 5.02
-7 -3 1 32.62 6.28
-7 -3 2 34.25 6.37
-7 -3 3 34.79 6.72
-7 -3 4 2.56 2.38
-7 -3 5 10.14 4.1
-7 -3 6 14.8 5.12
-7 -2 -9 2.35 3.15
-7 -2 -9 -0.41 2.01
-7 -2 -8 42.98 8.45
-7 -2 -8 43.22 6.03
-7 -2 -7 49.45 6.36
-7 -2 -7 65.22 9.91
-7 -2 -6 33.66 7.38
-7 -2 -5 5.33 3.47
-7 -2 -4 -4.46 4.56
-7 -2 -3 12.09 3.29
-7 -2 -2 1.36 1.59
-7 -2 -2 0.71 1.73
-7 -2 -1 42.06 6.14
-7 -2 -1 40.25 4.85
-7 -2 0 36.32 4.64
-7 -2 0 31.07 5.73
-7 -2 1 28.07 4.25
-7 -2 1 20.08 4.82
-7 -2 2 1.99 2.26
-7 -2 3 -2.07 2.4
-7 -2 4 4.52 3.15
-7 -2 5 7.74 3.69
-7 -1 -9 17 5.96
-7 -1 -8 31.99 7.22
-7 -1 -7 32.58 6.95
-7 -1 -6 1.23 3.16
-7 -1 -5 4.92 3.6
-7 -1 -4 9.91 4.36
-7 -1 -3 45.23 5.14
-7 -1 -3 44.47 7.35
-7 -1 -2 35.8 6.6
-7 -1 -1 15.46 3.54
-7 -1 -1 7.16 3.27
-7 -1 -1 15.65 3.42
-7 -1 0 6.95 2.83
-7 -1 0 6.43 2.3
-7 -1 0 -1.27 3.65
-7 -1 1 3.3 2.56
-7 -1 1 2.35 2.3
-7 -1 2 5.53 2.47
-7 -1 2 1.21 1.99
-7 -1 3 60.94 6.68
-7 -1 3 42.5 6.45
-7 -1 4 31.87 5.06
-7 -1 5 19.68 4.19
-7 -1 6 9.43 3.23
-7 -1 7 -0.16 2.27
-7 0 -9 6.18 3.6
-7 0 -8 -2.06 3.97
-7 0 -7 -5.7 4.69
-7 0 -6 -2.11 2.46
-7 0 -5 36.43 6.59
-7 0 -4 23.46 4.65
-7 0 -4 30.51 6.22
-7 0 -3 32.99 5.1
-7 0 -3 38.53 6.33
-7 0 -2 44.2 6.63
-7 0 -2 44.9 5.35
-7 0 -1 10.67 3.76
-7 0 0 0.72 2.02
-7 0 0 10.23 3.39
-7 0 1 13.57 3.69
-7 0 2 5.37 2.67
-7 0 2 12.02 3.52
-7 0 3 54.58 6.79
-7 0 4 35.97 5.58
-7 0 5 -1.53 2.09
-7 0 6 6.13 3.36
-7 0 7 1.35 2.51
-7 0 8 25.85 5.65
-7 1 -8 3.25 3.17
-7 1 -7 7.38 3.44
-7 1 -6 42.6 6.67
-7 1 -5 28.91 5.29
-7 1 -5 28.64 5.98
-7 1 -4 6.85 2.99
-7 1 -4 8.77 3.29
-7 1 -3 -0.46 2.43
-7 1 -3 -3.6 2.78
-7 1 -2 1.3 2.33
-7 1 -2 -3.72 2.72
-7 1 -1 3.32 2
-7 1 0 21.6 3.85
-7 1 0 24.13 4.73
-7 1 1 38.9 6.23
-7 1 2 5.22 3.09
-7 1 3 8.76 3.59
-7 1 4 -0.01 2.05
-7 1 5 1.46 2.27
-7 1 6 11.83 4.11
-7 1 7 4.65 3.12
-7 2 -7 12.44 4.15
-7 2 -6 29.3 5.35
-7 2 -6 35.26 6.69
-7 2 -5 9.84 4.05
-7 2 -5 11.7 3.56
-7 2 -4 -1.63 2.78
-7 2 -4 1.65 2.47
-7 2 -3 12.91 4.18
-7 2 -2 29.11 5.6
-7 2 -1 27.45 5.1
-7 2 0 6.66 2.77
-7 2 1 16.36 3.66
-7 2 1 13.68 3.92
-7 2 2 0.5 2.36
-7 2 3 1.5 2.33
-7 2 4 29.47 5.99
-7 2 5 30.27 6.04
-7 2 6 13.79 4.55
-7 3 -4 10.95 4.54
-7 3 -3 27.87 6.05
-7 3 -2 32.79 6.17
-7 3 -1 14.39 4.26
-7 3 0 4.22 2.8
-7 3 1 1.55 2.54
-7 3 1 1.84 2.18
-7 3 2 -0.63 2.75
-7 3 2 0.93 1.94
-7 3 3 -1.5 2.89
-7 4 -1 0.78 3.21
-7 4 0 15.66 4.79
-7 4 1 7.2 3.3
-7 4 2 15.99 4.51
-6 -8 -10 5.16 3.27
-6 -8 -9 25.02 5.88
-6 -8 -8 0.94 3
-6 -8 -7 11.41 4.48
-6 -8 -6 3.56 3.46
-6 -8 -5 21.64 5.89
-6 -8 -4 12.64 5.03
-6 -8 -3 10.37 4.89
-6 -8 -2 7.83 4.65
-6 -8 -1 1.56 3.15
-6 -7 -12 7.65 3.54
-6 -7 -11 12.11 4.08
-6 -7 -10 -0.53 2.41
-6 -7 -9 2.15 2.56
-6 -7 -8 1.73 2.32
-6 -7 -7 25.34 5.41
-6 -7 -6 24.82 5.36
-6 -7 -5 31.44 6.31
-6 -7 -4 4.33 3.11
-6 -7 -3 0.51 2.47
-6 -7 -2 0.43 3.04
-6 -7 -1 14.21 5.22
-6 -7 0 28.48 6.83
-6 -7 1 38.39 8.09
-6 -7 2 15.1 5.97
-6 -6 -11 1.74 2.18
-6 -6 -11 -7.55 4.52
-6 -6 -10 4.9 2.88
-6 -6 -9 23.42 4.9
-6 -6 -8 29.85 5.55
-6 -6 -7 43.21 6.4
-6 -6 -6 13.69 4.45
-6 -6 -5 9.95 3.9
-6 -6 -4 19.64 5.1
-6 -6 -3 58.41 8.38
-6 -6 -2 7.66 3.34
-6 -6 -1 63.54 8.97
-6 -6 0 20.81 6.01
-6 -6 1 -2.13 3.58
-6 -6 2 6.43 4.06
-6 -6 3 14.08 5.81
-6 -6 4 15.37 5.88
-6 -5 -12 1.24 2.48
-6 -5 -11 -3.97 3.15
-6 -5 -11 -3.76 4.53
-6 -5 -10 12.17 3.21
-6 -5 -10 4.17 2.7
-6 -5 -9 1.97 2.21
-6 -5 -8 45.36 6.03
-6 -5 -7 9.28 3.01
-6 -5 -6 -3.15 2.68
-6 -5 -5 12.53 3.93
-6 -5 -4 38.93 6.22
-6 -5 -3 122.46 10.93
-6 -5 -2 43.68 6.98
-6 -5 -1 22.07 5.43
-6 -5 0 -0.88 2.26
-6 -5 1 9.29 4.12
-6 -5 2 67.54 9.61
-6 -5 3 29.54 6.71
-6 -5 4 41.28 8.12
-6 -5 5 0.93 3.13
-6 -4 -13 30.34 5.8
-6 -4 -12 37.73 6.34
-6 -4 -12 49.2 9.35
-6 -4 -11 62.74 10.71
-6 -4 -11 52.01 7.31
-6 -4 -10 3.12 4.2
-6 -4 -10 9.12 3.48
-6 -4 -9 4.67 2.28
-6 -4 -9 -3.49 4.69
-6 -4 -8 2.4 1.9
-6 -4 -7 1.08 1.59
-6 -4 -6 50.55 6
-6 -4 -5 61.17 6.92
-6 -4 -4 100.25 8.99
-6 -4 -3 23.16 4.85
-6 -4 -2 8.04 3.23
-6 -4 -1 4.36 3.25
-6 -4 0 2.02 1.98
-6 -4 0 4.88 3.13
-6 -4 1 32.03 6.24
-6 -4 2 21.43 5.54
-6 -4 3 23.19 6.02
-6 -4 4 3.67 3.03
-6 -4 5 -3.08 3.53
-6 -4 6 2.36 2.73
-6 -4 7 11.36 5.78
-6 -3 -13 5.53 3.33
-6 -3 -12 36.27 5.62
-6 -3 -11 4 2.93
-6 -3 -11 2.82 3.54
-6 -3 -10 -0.95 2.16
-6 -3 -10 1.11 3.58
-6 -3 -9 9.53 4.45
-6 -3 -9 12.99 3.82
-6 -3 -8 7.96 2.35
-6 -3 -8 -0.2 4.47
-6 -3 -7 34.56 7.37
-6 -3 -7 38.14 4.54
-6 -3 -6 27.96 4.01
-6 -3 -5 35.25 4.73
-6 -3 -4 28.35 4.47
-6 -3 -3 82.37 7.99
-6 -3 -3 69.13 4.82
-6 -3 -2 380.4 18.27
-6 -3 -2 372.48 10.07
-6 -3 -2 362.2 18.15
-6 -3 -1 143.92 11.44
-6 -3 -1 125.89 9.82
-6 -3 0 63.67 6.51
-6 -3 0 88.22 5.45
-6 -3 0 78.27 8.71
-6 -3 1 28.66 5.56
-6 -3 1 25.64 3.11
-6 -3 2 3.42 1.42
-6 -3 2 2.39 2.59
-6 -3 3 5.74 3.37
-6 -3 3 2.72 1.56
-6 -3 4 2.22 2.68
-6 -3 4 3.97 1.6
-6 -3 5 69.96 6.33
-6 -3 5 52.35 8.47
-6 -3 6 77.2 7.01
-6 -3 7 50.68 6.08
-6 -2 -11 5.69 4.12
-6 -2 -11 6.05 2.94
-6 -2 -10 33.63 7.32
-6 -2 -10 32.47 5.1
-6 -2 -9 54.35 9.09
-6 -2 -9 56.39 6.43
-6 -2 -8 50.41 6.09
-6 -2 -8 46.07 7.92
-6 -2 -7 25.56 6.18
-6 -2 -7 22.96 3.2
-6 -2 -7 14.47 3.56
-6 -2 -6 25.72 3.44
-6 -2 -6 16.24 4.94
-6 -2 -5 -0.73 1.31
-6 -2 -5 -4.6 4.34
-6 -2 -5 0.36 1.41
-6 -2 -4 1.91 1.85
-6 -2 -4 1.67 1.2
-6 -2 -3 4.34 2.23
-6 -2 -3 5.02 1.68
-6 -2 -2 180.12 9.27
-6 -2 -2 182.16 11.42
-6 -2 -2 167.57 7.57
-6 -2 -2 164.8 11.35
-6 -2 -2 185.21 8.68
-6 -2 -1 198.34 9.73
-6 -2 -1 187.99 8.71
-6 -2 -1 174.98 11.77
-6 -2 -1 179.22 6.83
-6 -2 -1 191.7 11.51
-6 -2 0 0.5 1.37
-6 -2 0 1.3 1.03
-6 -2 0 2.78 0.8
-6 -2 0 1.19 1.29
-6 -2 0 -0.42 2.29
-6 -2 1 9.46 2.32
-6 -2 1 3.72 2.56
-6 -2 2 3.34 1.82
-6 -2 2 1.11 2.1
-6 -2 3 13.54 2.96
-6 -2 3 11.5 3.92
-6 -2 4 14.76 3.3
-6 -2 5 30.38 4.66
-6 -2 6 45.74 5.68
-6 -2 7 30.02 4.9
-6 -2 8 2.45 2.35
-6 -2 9 40.38 6.18
-6 -2 10 3.24 2.9
-6 -1 -11 19.34 5.46
-6 -1 -10 9.23 4.19
-6 -1 -9 62.97 6.21
-6 -1 -9 57.91 8.86
-6 -1 -8 33.25 4.63
-6 -1 -8 45.41 8.02
-6 -1 -7 43.08 5.09
-6 -1 -7 41.81 7.33
-6 -1 -6 9.68 2.78
-6 -1 -6 10.66 3.96
-6 -1 -5 32.6 3.24
-6 -1 -5 30.76 6.25
-6 -1 -4 97.17 10.52
-6 -1 -4 100.63 6.24
-6 -1 -3 38.4 6.75
-6 -1 -3 43.15 4.57
-6 -1 -2 79.74 7.15
-6 -1 -2 86.58 7.07
-6 -1 -2 73.34 5.78
-6 -1 -2 72.75 8.81
-6 -1 -1 53.79 6
-6 -1 -1 58.94 5.69
-6 -1 -1 46.71 4.17
-6 -1 -1 54.08 5.34
-6 -1 0 -1.53 1.77
-6 -1 0 -0.51 1.42
-6 -1 0 0.55 0.93
-6 -1 1 42.24 5.06
-6 -1 1 49.69 3.6
-6 -1 2 84.23 7.02
-6 -1 2 73.99 7.69
-6 -1 3 66.25 6.34
-6 -1 4 5.55 2.28
-6 -1 5 13.31 3.3
-6 -1 6 -0.05 1.76
-6 -1 7 4.5 2.73
-6 -1 8 4.66 2.93
-6 -1 9 47.06 6.63
-6 -1 10 15.35 4.3
-6 0 -10 -0.2 3.35
-6 0 -9 4.81 2.64
-6 0 -8 -3.48 4.22
-6 0 -7 15.24 2.86
-6 0 -7 10.91 4.13
-6 0 -6 53.15 7.42
-6 0 -6 46.11 4.54
-6 0 -5 93.12 9.48
-6 0 -5 87.94 6.29
-6 0 -4 59.65 7.74
-6 0 -3 9.66 1.83
-6 0 -3 12.08 3.61
-6 0 -2 0.3 1.06
-6 0 -2 -3.6 2.18
-6 0 -2 -0.1 1.29
-6 0 -1 47.52 5.12
-6 0 -1 43.97 4.63
-6 0 -1 47.21 6.24
-6 0 0 89.25 8.31
-6 0 0 83.85 6.05
-6 0 0 87.1 7.32
-6 0 0 82.14 7.65
-6 0 1 73.56 7.29
-6 0 1 71.12 7.03
-6 0 1 79.66 5.6
-6 0 1 66.83 6.58
-6 0 2 87.5 7.88
-6 0 2 85.83 7.72
-6 0 2 96.24 5.96
-6 0 3 38.21 5.25
-6 0 3 32.12 4.64
-6 0 4 -2.47 2.12
-6 0 5 39.68 5.35
-6 0 6 16.3 4.02
-6 0 7 30.06 5.28
-6 0 8 7.26 3.4
-6 0 9 34.99 6.06
-6 0 10 13.61 4.27
-6 1 -9 2.66 3.27
-6 1 -8 21.5 5.08
-6 1 -7 59.47 7.53
-6 1 -6 55.99 7
-6 1 -5 49.49 6.27
-6 1 -4 16.85 3.9
-6 1 -3 7.93 2.69
-6 1 -3 13.13 3.55
-6 1 -2 11.48 3.07
-6 1 -2 9.5 2.92
-6 1 -1 25.97 4.1
-6 1 -1 23.03 3.84
-6 1 0 82.93 6.69
-6 1 0 99.63 7.43
-6 1 0 105.31 7.78
-6 1 1 76.29 7.89
-6 1 1 86.27 6.71
-6 1 1 92.43 6.92
-6 1 2 42.45 4.59
-6 1 2 40.6 5.76
-6 1 2 40.33 4.27
-6 1 3 -1.03 1.24
-6 1 3 -0.62 1.85
-6 1 4 0.84 1.8
-6 1 5 20.45 4.42
-6 1 6 25.34 4.73
-6 1 7 24.04 5.01
-6 1 8 4.74 3.09
-6 1 9 15.66 4.19
-6 2 -9 17.16 4.5
-6 2 -8 45.28 6.6
-6 2 -7 33.14 5.59
-6 2 -6 37.79 5.63
-6 2 -5 -0.69 1.96
-6 2 -4 27.88 4.47
-6 2 -4 25.98 5.41
-6 2 -3 87.63 7.45
-6 2 -3 73.81 8.3
-6 2 -2 103.02 9.33
-6 2 -2 108.97 7.94
-6 2 -1 30.71 4.02
-6 2 -1 31.71 4.91
-6 2 0 17.6 2.92
-6 2 0 17.71 3.82
-6 2 1 0.32 1.73
-6 2 2 1.4 2.28
-6 2 2 3.07 1.95
-6 2 3 39.23 6.13
-6 2 3 42.52 5.1
-6 2 4 57.48 5.78
-6 2 4 62.52 7.7
-6 2 5 15.34 4.17
-6 2 6 2.38 1.82
-6 2 7 7 3.61
-6 2 8 1.37 2.31
-6 2 9 5.63 3.13
-6 3 -8 0.97 2.6
-6 3 -7 10.07 3.78
-6 3 -6 5.45 2.76
-6 3 -5 9.34 3.25
-6 3 -5 -3.26 3.02
-6 3 -4 58.44 6.13
-6 3 -4 49.66 7.65
-6 3 -3 57.81 7.86
-6 3 -3 66.27 6.17
-6 3 -2 22.27 4.99
-6 3 -2 23.77 3.66
-6 3 -1 4.9 2.93
-6 3 0 16.87 4.16
-6 3 1 34.44 5.23
-6 3 2 27.66 4.64
-6 3 2 19.05 5.01
-6 3 3 49.65 5.98
-6 3 3 44.04 6.88
-6 3 4 59.96 8.22
-6 3 4 61.32 6.59
-6 3 5 17.32 4.97
-6 3 6 20 5.01
-6 3 7 13.91 4.58
-6 4 -6 52.84 6.33
-6 4 -5 10.49 3.18
-6 4 -4 62.06 8.87
-6 4 -4 53.42 5.72
-6 4 -3 24.49 5.55
-6 4 -2 -2.85 2.42
-6 4 -1 7.91 3.51
-6 4 0 33.28 5.8
-6 4 1 71.84 8.11
-6 4 2 11.56 3.71
-6 4 3 0.61 2.6
-6 4 3 2.77 2.42
-6 4 4 2.78 2.37
-6 4 4 5.14 3.57
-6 4 5 18.85 4.31
-6 4 5 20.12 5.28
-6 5 0 38.63 6.76
-6 5 1 47.01 7.13
-6 5 2 0.68 2.25
-6 5 3 4.14 2.93
-6 5 4 18.59 4.44
-6 5 5 21.08 4.99
-5 -9 -7 2.56 3.24
-5 -9 -6 7.86 4.04
-5 -9 -5 -1.36 3.26
-5 -9 -4 15.88 5.67
-5 -9 -3 36.25 7.49
-5 -8 -11 13.38 4.52
-5 -8 -10 11.6 3.9
-5 -8 -9 3.14 3.08
-5 -8 -8 51.52 7.6
-5 -8 -7 11.8 4.08
-5 -8 -6 22.76 5.27
-5 -8 -5 -5.41 4.17
-5 -8 -4 7.98 4.11
-5 -8 -3 6.35 3.91
-5 -8 -2 1.79 3.56
-5 -8 -1 25.65 6.42
-5 -8 0 69.41 10.38
-5 -8 1 35.72 7.96
-5 -8 2 1.21 3.04
-5 -8 5 13.56 4.15
-5 -7 -12 -7.27 4.46
-5 -7 -11 -0.76 2.99
-5 -7 -11 5.83 3.08
-5 -7 -10 5.4 3.07
-5 -7 -9 7.88 3.58
-5 -7 -8 53.12 7.18
-5 -7 -7 26.19 5.34
-5 -7 -6 30.72 5.67
-5 -7 -5 5.55 3.51
-5 -7 -4 7.6 3.47
-5 -7 -3 4.94 3.15
-5 -7 -2 77.27 9.61
-5 -7 -1 41.32 7.4
-5 -7 0 83.41 10.55
-5 -7 1 36.08 7.39
-5 -7 2 6.96 4.15
-5 -7 3 22.15 6.89
-5 -7 4 13.21 5.45
-5 -7 5 62.99 7.18
-5 -7 6 11.9 3.55
-5 -6 -13 21.28 7.09
-5 -6 -13 32.84 6.24
-5 -6 -12 17.89 4.81
-5 -6 -12 1.51 4.06
-5 -6 -11 30.53 6.05
-5 -6 -11 33.14 5.45
-5 -6 -10 24.55 4.77
-5 -6 -9 40.77 5.89
-5 -6 -8 13.8 3.79
-5 -6 -7 -0.98 2.39
-5 -6 -6 8.47 3
-5 -6 -6 13.11 2.69
-5 -6 -5 5.86 3.14
-5 -6 -4 51.39 7.09
-5 -6 -3 39.26 6.54
-5 -6 -2 2.92 2.68
-5 -6 -1 8.76 3.46
-5 -6 0 45.38 7.62
-5 -6 1 3.92 3.41
-5 -6 2 6.51 4
-5 -6 3 50.92 8.71
-5 -6 4 25.34 6.56
-5 -6 5 57.98 6.18
-5 -6 5 56.56 9.78
-5 -6 6 0.13 1.82
-5 -6 6 -1.44 3.39
-5 -5 -13 7.22 3.65
-5 -5 -13 -1.13 3.93
-5 -5 -12 33.06 7.9
-5 -5 -12 36.76 6.17
-5 -5 -11 18.16 6.04
-5 -5 -11 10.76 3.5
-5 -5 -10 9.36 3.53
-5 -5 -10 13.15 3.38
-5 -5 -9 33.96 5.01
-5 -5 -8 15.48 3.58
-5 -5 -7 51.23 6.21
-5 -5 -6 62.94 6.87
-5 -5 -5 47.22 6.21
-5 -5 -4 141.4 6.5
-5 -5 -4 139.82 10.8
-5 -5 -3 106.43 9.75
-5 -5 -3 115.84 4.91
-5 -5 -2 4.23 2.86
-5 -5 -1 44.26 4.4
-5 -5 -1 44.01 6.7
-5 -5 0 47.11 4.72
-5 -5 0 45.17 7.21
-5 -5 1 149.61 13.13
-5 -5 2 160.34 13.98
-5 -5 3 47.72 8.12
-5 -5 4 9.19 4.42
-5 -5 5 8.27 2.44
-5 -5 5 10.85 4.95
-5 -5 6 69.6 10.43
-5 -5 6 83.15 6.92
-5 -5 7 54.42 9.8
-5 -4 -14 15.21 4.43
-5 -4 -13 38.58 7.96
-5 -4 -13 34.23 5.74
-5 -4 -12 29.46 6.89
-5 -4 -12 34.97 5.66
-5 -4 -11 15.6 5.47
-5 -4 -11 18.99 4.63
-5 -4 -10 -2.02 4.2
-5 -4 -10 -1.06 2.51
-5 -4 -9 28.18 4.92
-5 -4 -9 36.03 4.74
-5 -4 -8 26.3 2.92
-5 -4 -8 23.97 3.92
-5 -4 -7 57.09 5.91
-5 -4 -7 57.83 3.75
-5 -4 -6 54.71 5.96
-5 -4 -6 60.28 3.28
-5 -4 -5 36.29 5.06
-5 -4 -5 35.33 1.93
-5 -4 -4 19.61 4.01
-5 -4 -3 13.69 3.62
-5 -4 -2 2.47 2.28
-5 -4 -2 1.55 0.45
-5 -4 -1 47.44 6.59
-5 -4 -1 37.96 4.26
-5 -4 0 24.92 3.5
-5 -4 0 27.18 1.83
-5 -4 1 94.76 9.91
-5 -4 1 85.39 4.08
-5 -4 2 203.51 7.67
-5 -4 2 213.1 15.32
-5 -4 3 14.02 4.42
-5 -4 3 27.1 2.94
-5 -4 4 24.41 6.01
-5 -4 4 25.3 3.18
-5 -4 5 9.54 4.11
-5 -4 5 15.65 2.82
-5 -4 5 16.36 2.85
-5 -4 6 28.05 6.74
-5 -4 6 37.45 4.24
-5 -4 6 37.09 4.5
-5 -4 7 53.72 5.71
-5 -4 8 26.89 4.6
-5 -3 -13 41.19 6.35
-5 -3 -13 43.46 8.3
-5 -3 -12 62.75 7.2
-5 -3 -12 65.3 9.89
-5 -3 -11 4.41 3.78
-5 -3 -11 4.47 2.82
-5 -3 -10 0.56 1.98
-5 -3 -10 4.82 3.19
-5 -3 -9 30.95 4.99
-5 -3 -9 24.26 6.5
-5 -3 -8 165.66 9.09
-5 -3 -8 153.74 10.95
-5 -3 -8 168.6 15.41
-5 -3 -8 179.7 8.62
-5 -3 -7 118.04 6.32
-5 -3 -7 97.56 7.05
-5 -3 -6 107.51 7.49
-5 -3 -6 128.37 6.12
-5 -3 -5 17.74 3.23
-5 -3 -5 12.36 1.84
-5 -3 -4 2.5 1.31
-5 -3 -4 2.77 1.72
-5 -3 -3 91.37 7.62
-5 -3 -3 82.97 8.4
-5 -3 -3 87.97 6.3
-5 -3 -3 99.22 4.73
-5 -3 -2 51.45 6.17
-5 -3 -2 64.86 3.6
-5 -3 -2 57.76 4.97
-5 -3 -2 48.88 6.2
-5 -3 -1 103.31 6.8
-5 -3 -1 94.89 8.24
-5 -3 -1 109.7 9.27
-5 -3 0 101.61 9.27
-5 -3 0 98.18 6.72
-5 -3 0 115.39 5.23
-5 -3 1 27.06 3.81
-5 -3 1 41.24 3.29
-5 -3 1 36.03 5.73
-5 -3 2 13.64 3.89
-5 -3 2 9.98 1.89
-5 -3 3 3.65 3.27
-5 -3 3 1.85 1.3
-5 -3 4 166.78 8.54
-5 -3 5 43.63 4.63
-5 -3 5 49.47 3.9
-5 -3 5 50.36 5.98
-5 -3 6 38.39 4.66
-5 -3 7 -0.11 1.67
-5 -3 8 6.7 2.62
-5 -3 9 3.82 2.76
-5 -3 10 13.94 3.79
-5 -3 11 12.09 4.07
-5 -2 -13 12.87 4.08
-5 -2 -12 9.09 4.77
-5 -2 -11 12.9 5.01
-5 -2 -11 13.74 3.67
-5 -2 -10 50.26 8.1
-5 -2 -10 49.34 5.82
-5 -2 -9 69.01 6.76
-5 -2 -9 59.74 8.69
-5 -2 -8 91.22 7.78
-5 -2 -8 88.71 10.54
-5 -2 -7 12.79 2.78
-5 -2 -7 15.55 2.57
-5 -2 -7 19.72 5.54
-5 -2 -7 16.63 2.82
-5 -2 -6 45.08 7.33
-5 -2 -6 44.76 4.22
-5 -2 -5 78.75 5.78
-5 -2 -4 92.46 5.97
-5 -2 -4 106.83 7.08
-5 -2 -4 112.64 9.96
-5 -2 -3 65.29 4.81
-5 -2 -3 68.03 6.01
-5 -2 -3 73.71 7.6
-5 -2 -2 140.35 7.12
-5 -2 -2 132.85 10.01
-5 -2 -2 132.29 9.01
-5 -2 -1 27.94 3.14
-5 -2 -1 23.37 2.14
-5 -2 -1 19.77 3.66
-5 -2 -1 20.57 3.9
-5 -2 -1 24.55 2.87
-5 -2 0 3.93 1.41
-5 -2 0 3.13 0.66
-5 -2 0 2.6 2.17
-5 -2 0 2.86 1.22
-5 -2 1 50.85 4.29
-5 -2 1 49.61 4.83
-5 -2 1 40.98 5.82
-5 -2 1 56.15 4.54
-5 -2 2 75.33 7.95
-5 -2 2 90.18 5.94
-5 -2 2 77.24 5.6
-5 -2 3 190.91 9.2
-5 -2 3 144.89 7.44
-5 -2 4 227.52 6.87
-5 -2 4 247.39 11.27
-5 -2 5 81.1 3.96
-5 -2 5 80.17 8.15
-5 -2 5 93.82 6.93
-5 -2 6 0.28 1.52
-5 -2 7 5.17 2.46
-5 -2 8 96.72 8.24
-5 -2 9 29 4.93
-5 -2 10 35.82 5.87
-5 -2 11 24.97 5.2
-5 -1 -12 34.53 6.47
-5 -1 -11 32.57 6.21
-5 -1 -10 81.31 9.9
-5 -1 -9 21.33 3.72
-5 -1 -9 18.92 5
-5 -1 -8 29.17 6.12
-5 -1 -8 33.39 4.25
-5 -1 -7 25.64 5.41
-5 -1 -7 30.11 4.22
-5 -1 -6 132.1 6.07
-5 -1 -6 126.13 8.28
-5 -1 -6 135.15 11.76
-5 -1 -5 166.85 7.36
-5 -1 -5 185.42 13.64
-5 -1 -4 99.34 5.86
-5 -1 -4 124.36 11.21
-5 -1 -4 106.51 9.03
-5 -1 -3 80.37 4.77
-5 -1 -3 76.78 5.52
-5 -1 -3 80.45 7.36
-5 -1 -3 85.07 9.12
-5 -1 -2 0.8 1.14
-5 -1 -2 2.73 1.01
-5 -1 -1 104.95 7.69
-5 -1 -1 106.1 7.48
-5 -1 -1 104.29 5.2
-5 -1 -1 104.01 5.78
-5 -1 0 49.74 3.64
-5 -1 0 48.71 5.58
-5 -1 0 58.59 4.96
-5 -1 0 45.72 4.57
-5 -1 0 50.06 3.57
-5 -1 1 115.07 8.89
-5 -1 1 119.31 7.5
-5 -1 1 116.74 5.12
-5 -1 1 124.78 6.49
-5 -1 2 219.46 7.61
-5 -1 2 216.32 10.44
-5 -1 3 89.54 6.7
-5 -1 4 23.13 3.69
-5 -1 5 5.43 2.24
-5 -1 6 5.24 2.11
-5 -1 7 25.72 4.37
-5 -1 8 57.14 6.53
-5 -1 9 76.78 7.77
-5 -1 10 1.95 2.49
-5 -1 11 -3.27 2.55
-5 0 -12 44.8 7.22
-5 0 -11 61.62 8.43
-5 0 -10 20.79 4.84
-5 0 -9 16.04 4.15
-5 0 -8 11.93 3.02
-5 0 -7 84.71 7.12
-5 0 -7 102.94 9.83
-5 0 -7 106.32 6.79
-5 0 -6 275.91 13.37
-5 0 -6 296.18 11.6
-5 0 -6 311.77 16.89
-5 0 -5 67.45 5.21
-5 0 -5 77.54 8.13
-5 0 -5 69.71 6.41
-5 0 -4 3.98 0.92
-5 0 -4 6.19 3.12
-5 0 -3 1.81 0.98
-5 0 -3 5.39 2.79
-5 0 -3 4.22 1.93
-5 0 -3 3.96 0.89
-5 0 -2 35.88 3.55
-5 0 -2 38.38 4.39
-5 0 -2 35.93 5.3
-5 0 -2 31.93 2
-5 0 -1 135.02 7.96
-5 0 -1 149.19 10.25
-5 0 -1 136.34 7.74
-5 0 -1 139.23 7.71
-5 0 0 121.42 6.86
-5 0 0 123.8 9.21
-5 0 0 124.23 6.38
-5 0 0 121.69 8.07
-5 0 1 58.14 5.65
-5 0 1 53.46 4.23
-5 0 1 55.71 3.46
-5 0 2 21.79 2.68
-5 0 2 20.92 3.55
-5 0 3 36.49 4.71
-5 0 4 37.21 4.68
-5 0 5 28.45 4.31
-5 0 6 60.88 6.45
-5 0 7 43.01 5.62
-5 0 8 39.18 5.69
-5 0 9 3.52 2.78
-5 0 10 1.03 2.25
-5 0 11 14.75 4.01
-5 1 -11 6.18 3.51
-5 1 -10 0.79 2.21
-5 1 -9 120.1 10.61
-5 1 -8 51.7 6.84
-5 1 -7 21.2 4.24
-5 1 -6 6 2.08
-5 1 -6 3.92 2.39
-5 1 -5 -1.3 2.26
-5 1 -5 0.45 1.32
-5 1 -4 64.31 3.91
-5 1 -4 58.61 5.51
-5 1 -4 58.59 2.72
-5 1 -4 51.44 6.04
-5 1 -3 62.07 6.5
-5 1 -3 64.93 5.97
-5 1 -3 61.19 3.84
-5 1 -2 82.32 4.01
-5 1 -2 99.13 7.7
-5 1 -2 98.82 6.75
-5 1 -2 99.18 7.75
-5 1 -1 198.72 10.69
-5 1 -1 219.79 11.17
-5 1 -1 199.01 8.59
-5 1 -1 196.24 8.89
-5 1 0 100.16 5.52
-5 1 0 105.45 7.27
-5 1 0 106.15 7.19
-5 1 1 1.31 1.32
-5 1 1 0.62 1.39
-5 1 2 29.92 4.39
-5 1 2 31.82 3.71
-5 1 2 32.48 3.49
-5 1 3 36.41 4
-5 1 3 33.46 3.22
-5 1 3 28.25 4.46
-5 1 4 190.99 7.11
-5 1 4 188.52 11.56
-5 1 5 261.66 13.84
-5 1 6 31.4 4.82
-5 1 7 26.38 4.54
-5 1 8 2.32 1.98
-5 1 9 92.81 8.79
-5 1 10 65.05 7.67
-5 1 11 13.46 4.15
-5 2 -10 46.44 6.77
-5 2 -9 180.41 12.76
-5 2 -8 47.85 6.4
-5 2 -7 35.12 5.25
-5 2 -6 0.36 1.95
-5 2 -5 91.92 7.87
-5 2 -4 173.73 8.63
-5 2 -4 172.62 10.44
-5 2 -3 68.81 7.38
-5 2 -3 67.1 6.13
-5 2 -3 73.74 5.61
-5 2 -2 78.04 6.34
-5 2 -2 76.49 5.74
-5 2 -2 71.6 7.22
-5 2 -1 12.92 1.58
-5 2 -1 18.68 3.74
-5 2 -1 14.07 1.39
-5 2 -1 13.36 2.61
-5 2 0 28.16 3.33
-5 2 0 34.26 4.74
-5 2 1 12.47 2.14
-5 2 1 11.32 2.69
-5 2 2 71.14 6.24
-5 2 2 73.88 4.19
-5 2 2 75.82 7.66
-5 2 3 16.97 1.59
-5 2 3 15.03 2.87
-5 2 3 18.81 3.97
-5 2 4 55.69 5.35
-5 2 4 56.48 6.69
-5 2 5 37.86 5.69
-5 2 6 23.75 4.65
-5 2 7 1.55 2.21
-5 2 8 2.5 2.63
-5 2 9 27.02 5.19
-5 2 10 28.59 5.33
-5 2 11 3.62 2.69
-5 3 -9 17.2 4.24
-5 3 -8 1.47 2.37
-5 3 -7 26.89 4.77
-5 3 -6 5.16 2.53
-5 3 -5 162.34 10.17
-5 3 -4 125.43 10.91
-5 3 -4 139.65 8.96
-5 3 -3 67.58 5.81
-5 3 -3 59.65 7.44
-5 3 -2 5.39 2.18
-5 3 -2 1.46 2.04
-5 3 -1 21.72 4.38
-5 3 -1 26.06 3.29
-5 3 0 70.38 4.72
-5 3 0 65.87 7.1
-5 3 1 48.06 3.51
-5 3 1 46.39 5.62
-5 3 2 172.56 10.66
-5 3 2 169.1 5.94
-5 3 3 41.19 6.12
-5 3 3 38.67 5
-5 3 4 47.32 5.69
-5 3 4 46.77 6.57
-5 3 5 23.34 4.92
-5 3 5 22.24 3.91
-5 3 6 65.87 7.8
-5 3 7 66.25 7.97
-5 3 8 8.09 3.03
-5 3 9 23.32 5.04
-5 3 10 3.56 3.19
-5 4 -8 47.55 6.33
-5 4 -7 48.58 6.11
-5 4 -6 46.22 5.6
-5 4 -5 1.14 2.57
-5 4 -5 3.53 2.1
-5 4 -4 15.07 4.34
-5 4 -4 14.99 3.33
-5 4 -3 6.74 3.41
-5 4 -3 18.34 3.3
-5 4 -2 43.2 4.49
-5 4 -2 48.84 7.05
-5 4 -1 95.96 9.36
-5 4 -1 87.46 5.86
-5 4 0 49.17 6.55
-5 4 0 45.86 3.86
-5 4 1 10.61 3.38
-5 4 2 13.23 3.63
-5 4 3 0.04 2.11
-5 4 3 -4.79 3.28
-5 4 4 4.45 2.32
-5 4 4 7.6 3.42
-5 4 5 3.39 2.82
-5 4 5 1.5 2
-5 4 6 161.53 13.18
-5 4 7 33.43 6.24
-5 4 8 11.76 4.44
-5 4 9 5.4 3.35
-5 5 -6 33.5 5.14
-5 5 -5 5.92 2.67
-5 5 -4 13.51 4.42
-5 5 -4 20.31 3.72
-5 5 -3 15.8 4.69
-5 5 -3 21.95 3.63
-5 5 -2 90.04 10.15
-5 5 -1 77.11 8.89
-5 5 0 70.88 8.62
-5 5 1 2.26 2.72
-5 5 2 1.82 2.08
-5 5 3 27.72 5.19
-5 5 4 29.33 6.06
-5 5 4 31.12 5.36
-5 5 5 16.57 4.03
-5 5 5 18.18 4.97
-5 5 6 11.69 3.87
-5 5 7 41.88 7.36
-5 6 0 -1.75 3.03
-5 6 1 4.48 3.07
-5 6 2 33.24 6.23
-5 6 3 27.71 5.74
-5 6 4 24.93 5.31
-5 6 5 11.95 4.08
-5 6 6 3.3 2.4
-4 -9 -9 6.45 3.65
-4 -9 -8 0.54 2.65
-4 -9 -7 4.6 3.44
-4 -9 -6 22.92 5.36
-4 -9 -5 73.61 9.48
-4 -9 -4 43.6 7.42
-4 -9 -3 1.98 3.07
-4 -9 -2 5.86 3.73
-4 -9 -1 20.7 5.88
-4 -9 0 34.54 7.69
-4 -9 1 11.78 5.31
-4 -8 -11 4.61 3.1
-4 -8 -11 -0.79 3.16
-4 -8 -10 12.92 4.33
-4 -8 -9 50.77 7.2
-4 -8 -8 11.65 4.12
-4 -8 -7 3.03 2.53
-4 -8 -6 2.75 2.64
-4 -8 -5 40.03 6.79
-4 -8 -4 0.02 2.87
-4 -8 -3 14.41 4.78
-4 -8 -2 12.04 4.69
-4 -8 -1 26.37 6.16
-4 -8 0 62.52 9.38
-4 -8 1 3.36 3.5
-4 -8 2 2.32 3.6
-4 -8 3 7.9 4.99
-4 -8 4 13.52 5.73
-4 -8 5 39.51 6.59
-4 -7 -14 -1.61 3.89
-4 -7 -13 0.41 2.02
-4 -7 -12 0.99 2.37
-4 -7 -11 3.76 2.92
-4 -7 -11 -5.37 4.23
-4 -7 -10 2.22 2.23
-4 -7 -9 25.1 4.89
-4 -7 -8 218.01 14
-4 -7 -7 23.68 4.8
-4 -7 -6 -3.33 2.87
-4 -7 -5 19.88 3.37
-4 -7 -5 13.44 3.86
-4 -7 -4 84.79 9.1
-4 -7 -4 77.68 6.03
-4 -7 -3 101.43 10.09
-4 -7 -3 100.77 6.68
-4 -7 -2 156.2 12.82
-4 -7 -1 84.84 9.69
-4 -7 0 0.81 2.38
-4 -7 1 21.75 5.66
-4 -7 2 161.89 14.91
-4 -7 3 13.6 5.32
-4 -7 4 53.48 9.28
-4 -7 5 18.38 6.17
-4 -7 5 22.58 4.61
-4 -7 6 37.23 5.9
-4 -7 6 25.15 7.07
-4 -7 7 3.7 2.78
-4 -7 8 4.11 3.17
-4 -6 -15 0.67 2.98
-4 -6 -14 -0.78 3.5
-4 -6 -13 72.55 8.62
-4 -6 -13 51.7 9.31
-4 -6 -12 -1.19 2.37
-4 -6 -11 18.72 4.26
-4 -6 -10 28.22 4.98
-4 -6 -10 17.94 4.3
-4 -6 -9 5.21 2.42
-4 -6 -8 0.97 1.88
-4 -6 -7 2.13 1.88
-4 -6 -6 37.43 5.56
-4 -6 -6 42.77 4.58
-4 -6 -5 79.64 5.76
-4 -6 -5 73.5 7.86
-4 -6 -4 118.46 10.04
-4 -6 -4 112.2 6.49
-4 -6 -3 29.36 5.39
-4 -6 -3 21.57 2.75
-4 -6 -2 34.6 5.9
-4 -6 -1 17.54 4.49
-4 -6 -1 22.64 2.54
-4 -6 0 2.17 2.12
-4 -6 1 65.15 8.78
-4 -6 2 106.94 11.6
-4 -6 3 161.47 14.69
-4 -6 4 7.97 3.73
-4 -6 5 0.32 1.95
-4 -6 5 2.08 3.07
-4 -6 6 9.7 3.12
-4 -6 6 6.16 4.17
-4 -6 7 6.69 3.33
-4 -6 7 4.98 4.1
-4 -6 8 67.78 7.95
-4 -5 -15 0.78 3.18
-4 -5 -14 6.06 3.32
-4 -5 -14 0.85 2.98
-4 -5 -13 37.7 5.89
-4 -5 -13 25.96 6.61
-4 -5 -12 12.29 4.91
-4 -5 -12 12.83 3.7
-4 -5 -11 61.39 7.52
-4 -5 -11 49.22 8.54
-4 -5 -10 31.83 5.44
-4 -5 -10 35.98 4.3
-4 -5 -9 85.58 6.03
-4 -5 -9 95.24 7.85
-4 -5 -8 6.42 2.66
-4 -5 -8 2.68 1.32
-4 -5 -7 46.6 5.69
-4 -5 -7 51.5 3.81
-4 -5 -6 301.1 14.78
-4 -5 -5 132.62 9.82
-4 -5 -5 153.78 7.71
-4 -5 -4 74.61 7.29
-4 -5 -4 66.3 4.49
-4 -5 -3 14.24 3.64
-4 -5 -3 15.36 2.05
-4 -5 -2 34.22 2.72
-4 -5 -2 30.78 5
-4 -5 -1 14.02 3.76
-4 -5 -1 15.57 2.24
-4 -5 0 270.64 16.45
-4 -5 0 233.24 9.63
-4 -5 1 112.19 10.8
-4 -5 2 4.89 2.78
-4 -5 3 2.43 2.47
-4 -5 4 2.37 2.93
-4 -5 5 26.31 3.92
-4 -5 5 24.31 6.16
-4 -5 6 6.85 2.5
-4 -5 6 3.16 3.54
-4 -5 7 16.01 5.19
-4 -5 7 26.12 4.43
-4 -5 8 27.48 4.63
-4 -5 8 22.54 6.55
-4 -5 9 19.36 6.56
-4 -4 -15 25.58 6.57
-4 -4 -14 41.93 6.48
-4 -4 -14 39.87 7.58
-4 -4 -13 10.31 3.42
-4 -4 -13 9.03 4.06
-4 -4 -12 13.42 4.08
-4 -4 -12 10.53 4.51
-4 -4 -11 9.39 3.26
-4 -4 -11 4.31 3.54
-4 -4 -10 -0.92 3.9
-4 -4 -10 3 1.68
-4 -4 -10 0.05 2.02
-4 -4 -9 87.82 6.97
-4 -4 -9 93.72 6.1
-4 -4 -8 19.04 3.41
-4 -4 -8 15.03 2.27
-4 -4 -7 176.81 7.16
-4 -4 -7 180 10.11
-4 -4 -6 52.96 5.59
-4 -4 -6 54.29 3.31
-4 -4 -5 4.66 2.1
-4 -4 -5 6.07 0.9
-4 -4 -4 4.96 2.06
-4 -4 -3 71.86 3.89
-4 -4 -3 62.17 5.44
-4 -4 -3 63.78 6.5
-4 -4 -2 393.35 14.82
-4 -4 -2 389.61 9.6
-4 -4 -1 219.2 13.39
-4 -4 -1 237.76 12.33
-4 -4 -1 209.49 8.93
-4 -4 0 267.5 10.72
-4 -4 0 301.37 16.12
-4 -4 0 297.48 13.78
-4 -4 1 42.35 6.2
-4 -4 1 37.92 3.92
-4 -4 2 53.26 7.33
-4 -4 3 149.56 12.55
-4 -4 4 124.9 11.82
-4 -4 5 232.51 16.78
-4 -4 5 247.75 10.76
-4 -4 6 66.97 5.83
-4 -4 7 78.03 6.8
-4 -4 8 28.69 4.52
-4 -3 -14 10.77 4.48
-4 -3 -13 93.1 10.94
-4 -3 -12 7.74 4.56
-4 -3 -12 9.38 3.44
-4 -3 -11 42.59 5.79
-4 -3 -11 40.59 7.44
-4 -3 -10 154.25 10.3
-4 -3 -10 153.22 13.93
-4 -3 -9 70.44 5.56
-4 -3 -9 66.9 6.85
-4 -3 -9 70.66 9.32
-4 -3 -8 40.46 4.4
-4 -3 -8 40.61 3.9
-4 -3 -8 36.91 5.05
-4 -3 -8 36.88 6.88
-4 -3 -7 69.82 5.64
-4 -3 -7 79.53 4.89
-4 -3 -6 86.92 6.54
-4 -3 -6 97.92 4.93
-4 -3 -5 42.71 2.83
-4 -3 -5 41.57 4.56
-4 -3 -4 124.14 10.13
-4 -3 -4 128.18 4.38
-4 -3 -4 113.72 7.75
-4 -3 -3 684.06 19.54
-4 -3 -3 733.96 22.46
-4 -3 -3 689.15 13.58
-4 -3 -3 682.95 24.95
-4 -3 -2 307.56 11.95
-4 -3 -2 341.32 7.28
-4 -3 -2 330.27 14.92
-4 -3 -2 329.62 15.63
-4 -3 -1 23.18 3.03
-4 -3 -1 19.06 3.72
-4 -3 -1 19.5 2.71
-4 -3 -1 14.48 1.16
-4 -3 -1 16.93 3.6
-4 -3 0 0.81 1.6
-4 -3 0 0.25 0.86
-4 -3 0 -0.32 1.37
-4 -3 0 0.05 0.44
-4 -3 0 0.96 1.16
-4 -3 1 0.92 1.14
-4 -3 1 1.44 0.78
-4 -3 1 0.4 1.06
-4 -3 1 -0.5 1.58
-4 -3 1 -0.9 1.96
-4 -3 2 154.77 6.36
-4 -3 2 155.24 9.5
-4 -3 2 154.19 11.47
-4 -3 2 158.28 8.52
-4 -3 3 105.16 7.46
-4 -3 3 95.3 5.32
-4 -3 4 118.75 6.53
-4 -3 4 118.33 7.7
-4 -3 5 32.06 3.81
-4 -3 5 38.21 3.6
-4 -3 5 35.36 3.81
-4 -3 6 26.91 3.3
-4 -3 6 20.51 3.24
-4 -3 7 -0.27 1.18
-4 -3 7 0.19 1.48
-4 -3 8 2.2 1.54
-4 -3 8 4.34 2.23
-4 -3 9 22.36 4.08
-4 -3 10 21.39 4.36
-4 -3 11 33.73 5.76
-4 -2 -14 2.1 2.65
-4 -2 -13 -0.35 3.71
-4 -2 -12 7.94 4.23
-4 -2 -11 212.19 12.14
-4 -2 -11 206.52 15.4
-4 -2 -10 92.31 10.12
-4 -2 -10 103.4 8.04
-4 -2 -9 72.28 9.06
-4 -2 -9 88.95 7.26
-4 -2 -8 6.2 3.38
-4 -2 -8 1.91 1.31
-4 -2 -8 2.63 1.71
-4 -2 -7 3.6 1.35
-4 -2 -7 8.52 3.09
-4 -2 -7 7.55 1.86
-4 -2 -7 9.69 2.03
-4 -2 -6 70.79 8.51
-4 -2 -6 58.86 4.45
-4 -2 -6 64.79 4.84
-4 -2 -5 41.31 3.46
-4 -2 -5 40.61 3.89
-4 -2 -5 30.73 5.31
-4 -2 -4 130.47 7.39
-4 -2 -4 131.7 10.23
-4 -2 -3 236.94 12.8
-4 -2 -3 222.75 13.31
-4 -2 -3 258.55 11.08
-4 -2 -3 247.67 13.72
-4 -2 -2 1714.43 43.57
-4 -2 -2 1643.15 41.14
-4 -2 -2 1668.27 38.71
-4 -2 -2 1571.76 34.11
-4 -2 -2 1719.7 42.14
-4 -2 -1 533.26 15.39
-4 -2 -1 532.37 19.09
-4 -2 -1 580.93 14.12
-4 -2 -1 586.2 20.83
-4 -2 -1 536.85 19.4
-4 -2 -1 539.78 21.15
-4 -2 0 135.27 9.35
-4 -2 0 138.65 9.83
-4 -2 0 133.83 9.24
-4 -2 0 131.68 8.22
-4 -2 0 128.51 7.5
-4 -2 0 138.36 6.74
-4 -2 0 144.41 6.05
-4 -2 1 106.8 6.02
-4 -2 1 118.13 5.57
-4 -2 1 85.81 6
-4 -2 1 96.35 6.6
-4 -2 1 102.36 8.37
-4 -2 1 102.18 8.35
-4 -2 2 46.67 4.57
-4 -2 2 38.73 5.02
-4 -2 2 39.11 3.86
-4 -2 2 46.97 3.77
-4 -2 3 80.51 5.26
-4 -2 3 75.01 6.79
-4 -2 4 35.93 4.66
-4 -2 4 36.42 3.73
-4 -2 5 68.46 5.44
-4 -2 5 68.34 6.03
-4 -2 5 65.7 3.99
-4 -2 6 10.1 1.96
-4 -2 6 13.55 2.78
-4 -2 6 11.37 2.64
-4 -2 6 12.25 1.99
-4 -2 7 93.85 6.04
-4 -2 7 96.37 6.46
-4 -2 7 100.4 7.37
-4 -2 8 182.01 9.43
-4 -2 8 175.93 10.59
-4 -2 9 2 1.97
-4 -2 10 9.59 3.05
-4 -2 11 27.65 5.02
-4 -2 12 2.43 2.24
-4 -1 -14 39.62 6.75
-4 -1 -13 18.66 4.64
-4 -1 -12 7.15 2.82
-4 -1 -11 11.72 3.98
-4 -1 -10 27.57 4.9
-4 -1 -9 28.39 4.05
-4 -1 -9 22.3 4.99
-4 -1 -8 101.8 7.1
-4 -1 -8 99.79 9.68
-4 -1 -7 174.81 9.3
-4 -1 -7 169.03 9.25
-4 -1 -6 83.07 6.24
-4 -1 -6 90.79 8.93
-4 -1 -5 256.75 8.86
-4 -1 -5 255.26 14.33
-4 -1 -5 270.34 15.53
-4 -1 -4 29.09 4.07
-4 -1 -4 21.01 4.16
-4 -1 -4 24.85 2.68
-4 -1 -4 24.35 4.16
-4 -1 -3 2.8 1.72
-4 -1 -3 4.98 1.45
-4 -1 -3 2.15 1.75
-4 -1 -3 3.05 1.9
-4 -1 -2 14.11 2.94
-4 -1 -2 10.37 2.08
-4 -1 -2 13.35 2.8
-4 -1 -2 12.22 1.74
-4 -1 -2 10.17 3.1
-4 -1 -1 698.32 25.46
-4 -1 -1 708.08 20.98
-4 -1 -1 716.3 22.86
-4 -1 -1 742.43 16.98
-4 -1 -1 701.18 21.36
-4 -1 0 1430.1 39.31
-4 -1 0 1462.57 29.07
-4 -1 0 1455.99 28.38
-4 -1 0 1481.99 33.22
-4 -1 0 1417.56 33.72
-4 -1 0 1408.57 35.84
-4 -1 0 1375.71 34.94
-4 -1 0 1410.98 31.21
-4 -1 1 171.56 5.62
-4 -1 1 164.43 8.93
-4 -1 1 177.91 7.87
-4 -1 1 171.78 11.41
-4 -1 1 172.24 10.02
-4 -1 1 169.27 7.96
-4 -1 2 179.45 11.6
-4 -1 2 193.49 7.47
-4 -1 2 196.33 8.67
-4 -1 2 177.69 9.56
-4 -1 3 2.14 1.27
-4 -1 3 3.08 0.92
-4 -1 4 96.56 8.21
-4 -1 4 91.39 3.07
-4 -1 4 88.14 3.73
-4 -1 4 93.91 6.4
-4 -1 5 119.94 7.57
-4 -1 5 119.3 4.03
-4 -1 5 133.8 9.64
-4 -1 6 91.38 4.04
-4 -1 6 97.78 7.26
-4 -1 6 90.42 4.83
-4 -1 6 98.23 8.11
-4 -1 7 231.61 8.69
-4 -1 7 213.87 7.75
-4 -1 7 248.22 12.24
-4 -1 7 258.06 13.11
-4 -1 8 156.93 7.64
-4 -1 8 157.65 10.02
-4 -1 9 68.76 7.01
-4 -1 10 80.53 7.86
-4 -1 11 3.68 2.81
-4 -1 12 18.58 4.62
-4 0 -13 56.01 7.83
-4 0 -12 39.27 6.36
-4 0 -11 0.75 2.38
-4 0 -10 40.45 6.26
-4 0 -9 13.11 3.65
-4 0 -8 176.26 12.39
-4 0 -7 132.4 10.54
-4 0 -7 149.64 7.9
-4 0 -6 402.26 18.55
-4 0 -6 372.63 14.61
-4 0 -6 430.7 13.67
-4 0 -5 2.97 2.43
-4 0 -5 -0.42 1.09
-4 0 -5 0.1 0.99
-4 0 -4 0.44 1
-4 0 -4 0.06 0.94
-4 0 -4 -0.11 1.43
-4 0 -4 0.32 1.64
-4 0 -4 1.01 0.59
-4 0 -3 165.27 10.58
-4 0 -3 138.59 8.54
-4 0 -3 162.43 9.41
-4 0 -3 155.56 5.76
-4 0 -2 39.65 4.26
-4 0 -2 40.58 2.39
-4 0 -2 42.09 3.36
-4 0 -2 36.97 4.28
-4 0 -2 39.3 4.87
-4 0 -1 255.21 10.25
-4 0 -1 247.13 14.58
-4 0 -1 239.83 6.44
-4 0 -1 244.72 9.9
-4 0 -1 235.86 12.27
-4 0 -1 248.68 11.54
-4 0 0 328.73 10.66
-4 0 0 318.31 13.35
-4 0 0 314.44 16.4
-4 0 0 307.28 10.75
-4 0 1 101.05 7.15
-4 0 1 101.74 5.41
-4 0 1 96.3 6.56
-4 0 1 103.79 4.56
-4 0 1 99.48 7.12
-4 0 1 103.07 9.08
-4 0 2 0.48 0.78
-4 0 2 0.55 0.37
-4 0 2 0.44 1.23
-4 0 2 -0.79 1.75
-4 0 3 25.98 4.59
-4 0 3 28.28 3.7
-4 0 4 116.05 9.5
-4 0 4 120.89 7.69
-4 0 5 1.17 1.67
-4 0 5 4.28 1.88
-4 0 6 121.33 4.79
-4 0 6 117.1 8.19
-4 0 6 121.27 9.64
-4 0 7 39.05 2.99
-4 0 7 47.2 5.97
-4 0 7 43.45 5.29
-4 0 8 37.93 5.61
-4 0 8 29 4.57
-4 0 9 19.26 3.97
-4 0 10 32.19 5.09
-4 0 11 23.66 4.84
-4 0 12 18.08 4.43
-4 1 -12 8.11 3.38
-4 1 -11 37.86 6.1
-4 1 -10 56.77 7.32
-4 1 -9 60.11 7.13
-4 1 -8 134.45 10.29
-4 1 -8 118.55 7.05
-4 1 -7 71.21 5.35
-4 1 -7 81.39 7.75
-4 1 -6 23.86 3.16
-4 1 -6 16.78 3.5
-4 1 -5 2.29 1.37
-4 1 -5 -0.76 2.13
-4 1 -4 164.94 8.56
-4 1 -4 172.58 9.98
-4 1 -4 187.28 6.8
-4 1 -4 165.29 10.22
-4 1 -3 500.13 12.63
-4 1 -3 500.82 16.32
-4 1 -3 509.4 18.26
-4 1 -3 527.58 17.5
-4 1 -2 316.27 12.07
-4 1 -2 277.37 7.22
-4 1 -2 296.5 11.92
-4 1 -2 317.91 13.26
-4 1 -1 235.78 8.41
-4 1 -1 236.11 10.92
-4 1 -1 240.04 9.49
-4 1 -1 241.65 10.86
-4 1 -1 246.65 10.72
-4 1 0 8.99 2.13
-4 1 0 4.84 1.79
-4 1 0 7.94 2.1
-4 1 0 5.21 1.29
-4 1 1 69.13 5.15
-4 1 1 74.53 5.67
-4 1 1 71.94 5.04
-4 1 2 100.89 5.51
-4 1 2 92.84 7.25
-4 1 2 87.67 5.74
-4 1 3 428.92 16.66
-4 1 3 457.98 14.16
-4 1 3 449.26 12.39
-4 1 4 241.52 11.84
-4 1 4 220.26 7.3
-4 1 5 89.46 7.3
-4 1 5 80.91 3.63
-4 1 5 85.26 2.6
-4 1 6 38.59 1.8
-4 1 6 47.74 5.32
-4 1 7 15.53 1.38
-4 1 7 18.12 3.58
-4 1 8 49.07 5.91
-4 1 9 1.07 1.96
-4 1 10 44.88 6.17
-4 1 11 49.69 6.54
-4 1 12 2.75 2.77
-4 2 -11 94.74 9.21
-4 2 -10 33.22 5.41
-4 2 -9 10.52 3.75
-4 2 -8 4.25 2.58
-4 2 -7 19.4 3.97
-4 2 -6 120.82 6.17
-4 2 -6 124.49 6.03
-4 2 -6 119.47 8.85
-4 2 -5 152.53 6.23
-4 2 -5 155.52 9.79
-4 2 -5 158.57 7.06
-4 2 -4 183.37 10.19
-4 2 -4 165.53 7.48
-4 2 -4 170.36 5.66
-4 2 -3 88.26 5.4
-4 2 -3 96.99 6.97
-4 2 -2 29.06 3.08
-4 2 -2 34.22 3.87
-4 2 -2 29.37 3.59
-4 2 -1 40.58 3.92
-4 2 -1 41.3 2.16
-4 2 -1 39.67 2.49
-4 2 -1 39.62 3.58
-4 2 -1 40.73 4.89
-4 2 0 31.93 4.2
-4 2 0 32.3 3.42
-4 2 0 37.17 3.43
-4 2 1 205.38 7.63
-4 2 1 195.63 8.91
-4 2 1 198.82 10.18
-4 2 2 339.78 9.22
-4 2 2 346.7 13.6
-4 2 3 185.2 11.17
-4 2 3 179.84 4.85
-4 2 3 184.54 9.31
-4 2 4 21.03 3.84
-4 2 4 28.25 3.64
-4 2 5 0.46 1.9
-4 2 6 25.19 4.43
-4 2 7 69.88 7.03
-4 2 8 114.52 9.2
-4 2 9 50.83 6.48
-4 2 10 128.91 10.37
-4 2 11 13.82 3.92
-4 2 12 2.86 2.79
-4 3 -10 14.83 4.2
-4 3 -9 1.45 2.21
-4 3 -8 2.05 2.26
-4 3 -7 73.34 5.46
-4 3 -7 79.89 7.34
-4 3 -6 118.67 8.43
-4 3 -6 110.68 6.16
-4 3 -5 349.62 14.56
-4 3 -5 338.85 10.56
-4 3 -4 146.84 5.27
-4 3 -4 144.13 8.69
-4 3 -4 137.15 5.45
-4 3 -3 32.57 3.97
-4 3 -3 27.41 2.41
-4 3 -2 27.99 2.62
-4 3 -2 26.02 4.61
-4 3 -2 26.21 3.28
-4 3 -1 224.63 9.05
-4 3 -1 200.99 12.12
-4 3 -1 229.19 8.31
-4 3 0 155.08 10.05
-4 3 0 149.12 5.9
-4 3 0 144.4 6.54
-4 3 0 153.3 6.87
-4 3 1 249.42 8.01
-4 3 1 239.99 8.79
-4 3 1 263.35 12.8
-4 3 1 247.37 9.34
-4 3 2 63.55 4.62
-4 3 2 71.19 6.4
-4 3 2 67.72 3.28
-4 3 3 25.93 3.9
-4 3 3 26.28 2.26
-4 3 3 26.41 4.57
-4 3 4 4.13 2.12
-4 3 4 6.54 1.4
-4 3 4 5.92 2.22
-4 3 5 108.96 7.82
-4 3 5 106.64 9.31
-4 3 5 114.54 6.23
-4 3 6 43.86 4.21
-4 3 6 48.39 6.23
-4 3 7 10.62 3.19
-4 3 8 3.15 1.92
-4 3 9 7.45 3.27
-4 3 10 23.16 4.81
-4 3 11 2.91 3.02
-4 3 12 3.99 2.69
-4 4 -9 64.26 7.24
-4 4 -8 95.42 8.41
-4 4 -7 66.95 6.77
-4 4 -6 2.61 2.17
-4 4 -5 12.23 2.9
-4 4 -4 8.14 2.4
-4 4 -3 83.64 6.08
-4 4 -3 83.34 8.79
-4 4 -2 143.54 7.72
-4 4 -2 148.42 11.31
-4 4 -1 116.05 9.66
-4 4 -1 110.2 6.23
-4 4 0 105.33 5.67
-4 4 0 108.61 9.19
-4 4 1 18.48 2.58
-4 4 1 19.98 3.95
-4 4 2 10.99 3.12
-4 4 2 9.74 2.11
-4 4 3 18.59 3.69
-4 4 3 25.55 3.52
-4 4 4 51.1 5.96
-4 4 4 54.84 7.19
-4 4 4 47.05 4.97
-4 4 5 139.05 11.26
-4 4 5 140.52 9.8
-4 4 6 174.37 12.83
-4 4 7 2.56 2.29
-4 4 8 1.57 2.44
-4 4 9 7.52 3.61
-4 4 10 47.89 7.04
-4 4 11 15.86 4.46
-4 5 -7 20.24 4.13
-4 5 -6 15.58 3.63
-4 5 -5 85.27 9.82
-4 5 -5 83.18 7.07
-4 5 -4 29.49 5.77
-4 5 -4 22.99 3.76
-4 5 -3 94.92 10
-4 5 -2 82.57 9.09
-4 5 -1 18.54 4.22
-4 5 0 -0.19 1.96
-4 5 1 44.39 6.34
-4 5 2 196.01 12.77
-4 5 3 99.42 8.82
-4 5 4 19.11 4.52
-4 5 4 20.41 4.39
-4 5 5 1.52 2.28
-4 5 5 2.45 1.97
-4 5 6 44.85 6.07
-4 5 6 50.86 7.29
-4 5 7 20.28 5.18
-4 5 8 28.23 6.12
-4 5 9 25.26 5.41
-4 5 10 18.62 5.13
-4 6 -4 56.01 8.51
-4 6 -3 54.34 8.18
-4 6 -2 27.02 6.02
-4 6 -1 4.86 3.44
-4 6 0 3.42 2.57
-4 6 1 60.55 7.7
-4 6 2 152.32 12.12
-4 6 3 35.82 5.8
-4 6 4 9.47 3.63
-4 6 4 10.92 3.5
-4 6 5 -1.86 2.75
-4 6 5 -1.82 2.67
-4 6 6 9.26 3.94
-4 6 6 8.8 3.35
-4 6 7 3.57 2.67
-4 6 8 16.61 4.9
-4 7 1 10.81 3.7
-4 7 2 44.16 7.19
-4 7 3 -0.37 2.9
-4 7 4 12.95 4.1
-4 7 5 26.01 5.46
-3 -10 -5 27.08 6.07
-3 -10 -4 1.16 2.69
-3 -10 -3 5.22 3.8
-3 -10 -2 1.44 3
-3 -9 -11 18.18 4.95
-3 -9 -10 12.77 4.3
-3 -9 -9 8.67 3.93
-3 -9 -8 29.93 5.8
-3 -9 -7 27.04 5.85
-3 -9 -6 43.02 7
-3 -9 -5 -0.49 2.4
-3 -9 -4 17.67 5.01
-3 -9 -3 25.62 5.71
-3 -9 -2 36.54 6.91
-3 -9 -1 72.52 9.75
-3 -9 0 27.64 6.52
-3 -9 1 34.27 7.18
-3 -9 2 4.25 3.78
-3 -9 3 -0.39 3.31
-3 -8 -15 9.05 4.6
-3 -8 -14 -5.58 4.81
-3 -8 -12 4.23 3.52
-3 -8 -11 -3.25 3.55
-3 -8 -10 14.39 4.16
-3 -8 -10 29.55 5.5
-3 -8 -9 182.06 13.05
-3 -8 -8 0.71 1.98
-3 -8 -7 12.66 4.06
-3 -8 -6 2.67 2.48
-3 -8 -5 9.41 3.53
-3 -8 -4 -1.94 2.37
-3 -8 -3 37.88 6.5
-3 -8 -2 115.64 11.2
-3 -8 -1 65.76 8.84
-3 -8 0 47.92 7.78
-3 -8 1 1.12 2.72
-3 -8 2 3.94 3.26
-3 -8 3 60.9 9.64
-3 -8 4 47.62 8.81
-3 -8 5 73.63 8.63
-3 -8 5 61.34 10.23
-3 -7 -16 9.24 4.34
-3 -7 -15 29.47 6.96
-3 -7 -14 6.92 4.42
-3 -7 -13 12.45 3.93
-3 -7 -13 6.72 4.17
-3 -7 -12 12.69 3.98
-3 -7 -11 2.59 2.07
-3 -7 -10 50.82 7.44
-3 -7 -10 42.85 6.12
-3 -7 -9 92.24 8.7
-3 -7 -8 83.42 8.21
-3 -7 -7 24.92 4.84
-3 -7 -6 7.85 3.07
-3 -7 -5 103.32 9.56
-3 -7 -4 12.89 3.68
-3 -7 -3 35.26 5.88
-3 -7 -3 33.7 4.23
-3 -7 -2 36.92 1.94
-3 -7 -2 38.65 6.21
-3 -7 -1 10.95 3.79
-3 -7 0 15.64 4.55
-3 -7 1 78.27 9.58
-3 -7 2 118.32 12.06
-3 -7 3 0.67 2.47
-3 -7 4 30.59 6.62
-3 -7 5 16.99 5.63
-3 -7 5 12.88 3.97
-3 -7 6 5.92 3.24
-3 -7 6 6.36 4.11
-3 -7 7 8.48 4.86
-3 -7 7 17.69 4.56
-3 -7 8 54.49 7.9
-3 -6 -16 4.29 2.98
-3 -6 -15 1.45 2.89
-3 -6 -14 4.12 3.75
-3 -6 -14 13.07 4.26
-3 -6 -13 59.31 7.49
-3 -6 -13 37.8 7.53
-3 -6 -12 33.27 6.88
-3 -6 -12 29.1 5.25
-3 -6 -11 9.34 3.42
-3 -6 -10 -1.58 3.23
-3 -6 -10 2.09 1.73
-3 -6 -9 2.76 2.16
-3 -6 -8 6.25 2.78
-3 -6 -7 111.04 8.94
-3 -6 -6 39.08 5.46
-3 -6 -5 112.53 7.17
-3 -6 -5 116.1 9.38
-3 -6 -4 177.49 11.79
-3 -6 -4 163.06 8.55
-3 -6 -3 7.86 1.87
-3 -6 -3 4.95 2.68
-3 -6 -2 25.29 4.72
-3 -6 -2 22.73 3.05
-3 -6 -2 22.51 1.66
-3 -6 -1 104.48 9.7
-3 -6 0 62.92 7.97
-3 -6 1 281.58 17.28
-3 -6 2 357.34 20.23
-3 -6 3 78.18 9.85
-3 -6 4 3.47 3.23
-3 -6 5 10.22 4.25
-3 -6 5 17.06 4.03
-3 -6 6 190.64 12.16
-3 -6 6 161.65 15.3
-3 -6 7 78.83 8.18
-3 -6 7 50.12 9.17
-3 -6 8 53.24 9.22
-3 -6 8 73.45 8.4
-3 -6 9 16.88 6.24
-3 -6 9 20.83 5.29
-3 -6 10 -2.3 3.64
-3 -5 -16 8.67 4.14
-3 -5 -15 6.77 4.3
-3 -5 -14 12.56 4.28
-3 -5 -14 4 3.69
-3 -5 -13 62.54 8.95
-3 -5 -13 65.49 7.53
-3 -5 -12 200.18 12.9
-3 -5 -12 189.3 15.63
-3 -5 -11 0.49 2.15
-3 -5 -11 -2.04 3.62
-3 -5 -10 54.95 6.74
-3 -5 -10 51.41 5.27
-3 -5 -9 38.21 5.55
-3 -5 -9 49.2 5.55
-3 -5 -8 230.76 12.21
-3 -5 -8 251.58 10.85
-3 -5 -7 221.11 9.31
-3 -5 -7 203.44 11.37
-3 -5 -6 51.08 4.74
-3 -5 -6 44.38 5.28
-3 -5 -5 121.72 6.92
-3 -5 -5 101.84 8.18
-3 -5 -4 0.9 1.72
-3 -5 -4 1.5 0.99
-3 -5 -3 172.41 11.09
-3 -5 -3 194.88 8.06
-3 -5 -2 389.76 11.99
-3 -5 -2 383.6 9.47
-3 -5 -2 373.22 17.23
-3 -5 -1 53.94 6.47
-3 -5 0 77.6 8.11
-3 -5 0 73.75 7.09
-3 -5 1 152.21 10.09
-3 -5 1 147.3 11.68
-3 -5 2 18.12 4.44
-3 -5 3 6.41 2.84
-3 -5 4 61.74 8.29
-3 -5 5 47.1 5.26
-3 -5 5 45.8 7.59
-3 -5 6 244.33 17.73
-3 -5 6 253.69 13
-3 -5 7 26.72 6.51
-3 -5 7 30.36 5
-3 -5 8 4.8 3
-3 -5 8 5.97 4.25
-3 -5 9 10.33 3.52
-3 -5 9 5.48 3.96
-3 -5 10 6.14 3.05
-3 -5 11 7.32 3.57
-3 -4 -16 5.11 2.9
-3 -4 -15 19.44 5.02
-3 -4 -14 40.66 7.27
-3 -4 -13 2.34 2.19
-3 -4 -13 2.39 2.81
-3 -4 -12 71.06 7.38
-3 -4 -12 61.39 8.52
-3 -4 -11 28.65 6.11
-3 -4 -11 38.89 5.42
-3 -4 -10 19.76 5
-3 -4 -10 17.81 3.7
-3 -4 -9 26.69 4.42
-3 -4 -9 22 3.06
-3 -4 -8 142.65 7.31
-3 -4 -8 148.93 8.79
-3 -4 -8 146.43 9.97
-3 -4 -7 230.39 8.87
-3 -4 -7 221.91 11
-3 -4 -6 3.07 1.18
-3 -4 -6 2.11 1.65
-3 -4 -5 -0.28 2.07
-3 -4 -5 0.99 0.49
-3 -4 -5 -0.68 1.83
-3 -4 -4 70.23 6.19
-3 -4 -3 98.9 4.92
-3 -4 -3 95.56 6.58
-3 -4 -3 96.52 7.5
-3 -4 -2 361.86 13.72
-3 -4 -2 387.94 16.12
-3 -4 -2 375.66 10.2
-3 -4 -1 198.76 11.73
-3 -4 -1 196.9 9.66
-3 -4 -1 198.38 6.64
-3 -4 -1 214.36 7.39
-3 -4 0 9.15 2.45
-3 -4 0 7.26 2.48
-3 -4 0 11.84 2.46
-3 -4 1 24.53 3.3
-3 -4 1 17.35 3.98
-3 -4 1 20.52 3.45
-3 -4 2 8.36 3.26
-3 -4 2 13.5 2.93
-3 -4 3 205.31 11.05
-3 -4 3 186.06 13.22
-3 -4 4 162.38 12.72
-3 -4 5 100.48 6.86
-3 -4 6 163.77 9.44
-3 -4 7 67.36 6.38
-3 -4 8 103.85 8.58
-3 -4 9 33.72 5.41
-3 -4 10 13.52 3.88
-3 -4 11 46.4 7.29
-3 -3 -16 9.57 4.38
-3 -3 -15 3.17 2.48
-3 -3 -14 -4.2 3.92
-3 -3 -13 5.4 3.5
-3 -3 -12 71.43 8.73
-3 -3 -12 70.66 7.19
-3 -3 -11 143.07 9.96
-3 -3 -11 142.76 12.25
-3 -3 -10 178.83 10.77
-3 -3 -10 165.03 13.16
-3 -3 -9 119.76 7.32
-3 -3 -9 123.68 8.73
-3 -3 -9 115.97 11.11
-3 -3 -8 18.65 3.54
-3 -3 -8 17.02 2.46
-3 -3 -8 13.03 3.94
-3 -3 -7 21.22 3.07
-3 -3 -7 27.23 4.24
-3 -3 -7 19.05 2.4
-3 -3 -6 247.77 10.66
-3 -3 -6 247.87 8.38
-3 -3 -6 249.45 12.65
-3 -3 -6 236.01 14.8
-3 -3 -5 530.58 16.93
-3 -3 -5 557.64 22.82
-3 -3 -5 545.18 12.82
-3 -3 -5 534.97 19.37
-3 -3 -4 605.54 18.97
-3 -3 -4 634.57 12.95
-3 -3 -4 638.58 21.01
-3 -3 -4 606.54 23.29
-3 -3 -3 594.98 20.01
-3 -3 -3 601 18.87
-3 -3 -2 48.43 4.15
-3 -3 -2 49.32 5.02
-3 -3 -2 47.13 4.99
-3 -3 -1 6.06 1.89
-3 -3 -1 5.34 1.63
-3 -3 -1 6.17 0.78
-3 -3 -1 6.76 2.36
-3 -3 -1 6.04 1.24
-3 -3 0 189.83 10.45
-3 -3 0 179.65 8.34
-3 -3 0 182.1 9.38
-3 -3 0 178.25 7.34
-3 -3 0 187.82 10.97
-3 -3 1 192.95 10.43
-3 -3 1 195.58 9.35
-3 -3 1 197.6 6.13
-3 -3 1 215.77 12.21
-3 -3 1 194.78 8.88
-3 -3 2 460.67 11.72
-3 -3 2 419.66 16.35
-3 -3 2 433.95 14.55
-3 -3 2 437.64 14.52
-3 -3 2 431.55 18.94
-3 -3 3 1032.22 23.48
-3 -3 3 1037.49 28.54
-3 -3 4 283.24 10.27
-3 -3 4 270.27 12.33
-3 -3 5 1.96 1.29
-3 -3 5 1.19 1.07
-3 -3 6 18.99 3.04
-3 -3 6 20.68 3.15
-3 -3 7 46.37 4.88
-3 -3 7 49.47 5.03
-3 -3 8 141.67 9.19
-3 -3 8 141.39 9.43
-3 -3 9 154.97 10.56
-3 -3 9 151.6 10.06
-3 -3 10 96.19 8.99
-3 -3 11 16.11 4.17
-3 -2 -15 2.09 2.86
-3 -2 -14 3.66 2.84
-3 -2 -13 17.55 4.46
-3 -2 -12 75.85 8.77
-3 -2 -11 174.06 13.14
-3 -2 -10 16.42 4.34
-3 -2 -10 15.2 3.29
-3 -2 -9 3.92 2.63
-3 -2 -9 5.77 2.17
-3 -2 -8 1.19 1.36
-3 -2 -8 0.27 1.01
-3 -2 -8 1.55 1.52
-3 -2 -8 2.44 2.45
-3 -2 -7 308.58 13.07
-3 -2 -7 297.67 14.52
-3 -2 -7 310.46 11
-3 -2 -7 303.81 16.92
-3 -2 -6 277.65 15.54
-3 -2 -6 248.81 12.96
-3 -2 -6 246.51 9.56
-3 -2 -6 267.48 9.28
-3 -2 -5 303.94 14.15
-3 -2 -5 329.4 16.31
-3 -2 -5 279.64 10.56
-3 -2 -5 322.86 9.6
-3 -2 -4 110.78 8.84
-3 -2 -4 109.44 6.19
-3 -2 -4 114.02 8.24
-3 -2 -4 106.24 4.58
-3 -2 -3 19 3.28
-3 -2 -3 16.66 3.31
-3 -2 -3 18.21 2.59
-3 -2 -2 19.56 2.88
-3 -2 -2 19.23 2.3
-3 -2 -2 22.29 3.54
-3 -2 -2 21.23 3.39
-3 -2 -1 8.1 2.07
-3 -2 -1 6.3 1.85
-3 -2 -1 6.7 2
-3 -2 -1 7.56 1.49
-3 -2 -1 8.58 1.63
-3 -2 -1 7.06 0.97
-3 -2 0 88.73 3.56
-3 -2 0 86.83 4.94
-3 -2 0 87.24 5.11
-3 -2 0 78.98 6.48
-3 -2 0 83.95 6.42
-3 -2 0 78.49 6.27
-3 -2 1 303.62 12.39
-3 -2 1 300.98 8.48
-3 -2 1 315.66 10.47
-3 -2 1 306.44 12.81
-3 -2 1 300.83 10.68
-3 -2 1 321.84 13.99
-3 -2 2 446.66 16.13
-3 -2 2 465.33 12.13
-3 -2 2 457.53 15.6
-3 -2 2 474.93 14.02
-3 -2 3 17.35 2.16
-3 -2 3 19.4 3.1
-3 -2 3 19.89 2.82
-3 -2 4 226.15 9
-3 -2 4 241.76 9.79
-3 -2 4 214.64 10.47
-3 -2 4 239.62 8.04
-3 -2 5 190.58 7.64
-3 -2 5 174.34 7.77
-3 -2 5 192.41 7.76
-3 -2 5 182.78 8.51
-3 -2 6 123.82 7.32
-3 -2 6 121.32 5.72
-3 -2 6 118.08 6.55
-3 -2 6 126.17 6.35
-3 -2 7 211.21 9.14
-3 -2 7 206.24 9.83
-3 -2 7 206.06 10.21
-3 -2 8 62.14 5.86
-3 -2 8 69.56 6.12
-3 -2 9 1.44 1.77
-3 -2 9 2.57 1.9
-3 -2 10 22.45 4.22
-3 -2 10 24.59 4.29
-3 -2 11 3.65 2.48
-3 -2 11 8.45 3.12
-3 -2 12 25.22 5.01
-3 -2 13 15.81 4.37
-3 -1 -15 15.75 4.57
-3 -1 -14 54.41 7.5
-3 -1 -13 85.68 9.11
-3 -1 -12 -1.85 2.99
-3 -1 -11 86.01 8.81
-3 -1 -10 19.04 4.22
-3 -1 -9 23.13 4.73
-3 -1 -9 17.27 3.63
-3 -1 -8 203.08 12.12
-3 -1 -8 175.78 12.18
-3 -1 -8 207.89 10.02
-3 -1 -7 909.43 24.4
-3 -1 -7 950.2 29.28
-3 -1 -7 959.58 30.66
-3 -1 -7 981.32 24.61
-3 -1 -6 118.71 6.66
-3 -1 -6 116.6 9.28
-3 -1 -6 106.01 8.93
-3 -1 -6 108.99 6.69
-3 -1 -6 124.02 9.24
-3 -1 -5 155.83 10.7
-3 -1 -5 153.51 10.16
-3 -1 -5 142.66 7.71
-3 -1 -5 149.23 6.05
-3 -1 -5 138.07 9.75
-3 -1 -4 0.74 1.32
-3 -1 -4 2.49 1.05
-3 -1 -4 0.49 1.16
-3 -1 -4 -0.53 1.82
-3 -1 -3 64.9 5.88
-3 -1 -3 66.09 4.1
-3 -1 -3 67.58 6.46
-3 -1 -2 105.95 5.76
-3 -1 -2 114.48 7.38
-3 -1 -2 106.42 6.98
-3 -1 -2 104.83 7.95
-3 -1 -1 599.17 18.48
-3 -1 -1 615.58 18.27
-3 -1 -1 592.7 20.36
-3 -1 -1 609.51 14.2
-3 -1 -1 589.91 17.22
-3 -1 0 360.28 13.32
-3 -1 0 346.16 9.6
-3 -1 0 332.14 11.39
-3 -1 0 325.07 9.94
-3 -1 0 335.15 14.32
-3 -1 0 346.1 12.02
-3 -1 0 343.73 12.95
-3 -1 0 343.91 8.45
-3 -1 1 129.93 6.88
-3 -1 1 134.54 5.62
-3 -1 1 136.98 7.82
-3 -1 1 132.22 5.84
-3 -1 1 136.96 8.52
-3 -1 1 135.82 4.01
-3 -1 1 139.58 6.54
-3 -1 2 1.2 0.91
-3 -1 2 2.91 1.54
-3 -1 2 1.38 1.02
-3 -1 2 4.27 1.65
-3 -1 3 4.05 1.76
-3 -1 3 3.3 1.16
-3 -1 3 0.21 0.94
-3 -1 4 145.43 8.09
-3 -1 4 157.4 8.81
-3 -1 4 151.02 7.49
-3 -1 4 154.3 5.1
-3 -1 5 529.79 13.25
-3 -1 5 547.15 17.48
-3 -1 5 546.77 13.47
-3 -1 5 507.22 16.15
-3 -1 6 182.02 7.64
-3 -1 6 194.98 7.34
-3 -1 6 174.27 9.11
-3 -1 7 3.54 1.49
-3 -1 7 5.69 1.8
-3 -1 7 6.61 1.7
-3 -1 7 1.77 1.35
-3 -1 8 16.67 2.14
-3 -1 8 11.08 2.71
-3 -1 8 12.39 2.61
-3 -1 8 18.74 2.81
-3 -1 9 47.4 5.5
-3 -1 9 58.22 5.18
-3 -1 9 51.8 5.49
-3 -1 10 15.47 3.42
-3 -1 10 15.07 3.28
-3 -1 11 36.69 5.28
-3 -1 12 19.72 4.48
-3 -1 13 24.97 5.17
-3 0 -14 22.16 5.23
-3 0 -13 13.58 4.29
-3 0 -12 13.1 4.18
-3 0 -11 69.09 7.9
-3 0 -10 124.51 10.15
-3 0 -9 149.37 10.67
-3 0 -9 169.16 11.51
-3 0 -8 51.27 6.17
-3 0 -8 49.07 6.26
-3 0 -7 105.67 8.64
-3 0 -7 103.66 8.91
-3 0 -6 16.53 3.68
-3 0 -6 16.08 3.61
-3 0 -6 17.39 2.63
-3 0 -6 19.48 3.61
-3 0 -5 423.44 12.88
-3 0 -5 431.94 17.17
-3 0 -5 420.03 18.41
-3 0 -5 458.98 17.76
-3 0 -4 639.57 16.7
-3 0 -4 651.22 21.69
-3 0 -4 654.44 20.93
-3 0 -4 642.46 23.14
-3 0 -3 379.89 15.25
-3 0 -3 375.25 13.05
-3 0 -3 405.15 14.65
-3 0 -3 384.96 9.2
-3 0 -3 381.74 16.84
-3 0 -2 305.6 11.68
-3 0 -2 292.16 8.47
-3 0 -2 303.26 14.33
-3 0 -2 316.68 13.41
-3 0 -2 302.66 11.53
-3 0 -1 52.51 4.04
-3 0 -1 51.28 4.88
-3 0 -1 51 4.41
-3 0 -1 47.83 3.49
-3 0 -1 49.1 5.44
-3 0 -1 48.74 2.34
-3 0 0 685.94 19.27
-3 0 0 687.11 16.61
-3 0 0 686.76 13.88
-3 0 0 725.54 16.92
-3 0 0 705.15 22.68
-3 0 1 13.74 2.07
-3 0 1 16.47 3.1
-3 0 1 16.17 2.52
-3 0 1 14.71 1.76
-3 0 1 18.42 2.72
-3 0 1 15.99 1.57
-3 0 2 196.81 10.81
-3 0 2 208.24 6.89
-3 0 2 206.29 8.72
-3 0 2 194.66 9.1
-3 0 2 207.37 9.21
-3 0 3 789.81 23.92
-3 0 3 737.56 21.06
-3 0 3 808.74 20.92
-3 0 3 812.45 21.37
-3 0 4 682.84 19.26
-3 0 4 688.44 19.37
-3 0 4 693.89 21.88
-3 0 5 344.39 8.62
-3 0 5 326.06 12.56
-3 0 5 328.16 13.99
-3 0 6 228.86 7.2
-3 0 6 234.06 11.02
-3 0 6 243.47 11.75
-3 0 6 261.88 7.8
-3 0 7 21.36 2.35
-3 0 7 22.09 3.56
-3 0 7 27.26 3.89
-3 0 7 21.57 2.47
-3 0 8 22.79 2.98
-3 0 8 26.79 2.98
-3 0 8 31.09 4.04
-3 0 8 27.86 4.17
-3 0 9 188.43 9.79
-3 0 9 177.31 10.69
-3 0 9 175.6 9.3
-3 0 9 167.1 8.6
-3 0 10 405.56 17.57
-3 0 10 409.31 16.16
-3 0 11 41.31 5.71
-3 0 12 35.44 5.46
-3 0 13 2.86 2.12
-3 1 -13 9.57 3.7
-3 1 -12 15.91 4.31
-3 1 -11 44.45 6.16
-3 1 -10 171.63 11.67
-3 1 -9 392.68 17.7
-3 1 -8 28.95 5.06
-3 1 -8 26.61 4.51
-3 1 -7 14.58 3.07
-3 1 -7 11.06 3.16
-3 1 -6 35.04 4.57
-3 1 -6 41.79 5.75
-3 1 -5 649.99 17.3
-3 1 -5 705.84 21.99
-3 1 -5 647.68 21.57
-3 1 -5 668.36 24.64
-3 1 -4 410.27 12.73
-3 1 -4 420.49 15.51
-3 1 -4 441.77 16.09
-3 1 -4 385.16 17.76
-3 1 -3 199.89 12.2
-3 1 -3 230.85 10.36
-3 1 -3 235.48 10.79
-3 1 -3 232.34 8.95
-3 1 -3 232.91 6.94
-3 1 -2 351.22 8.82
-3 1 -2 343.5 11.96
-3 1 -2 341.28 12.87
-3 1 -2 310.83 15.13
-3 1 -2 350.5 11.44
-3 1 -1 45.3 3.79
-3 1 -1 50.63 3.78
-3 1 -1 47.59 4.15
-3 1 -1 41.28 5.12
-3 1 0 185.83 8.15
-3 1 0 173.85 7.73
-3 1 0 182.64 7.86
-3 1 0 175.86 6.54
-3 1 0 165.35 10.16
-3 1 1 458.1 13.83
-3 1 1 462.96 13.64
-3 1 1 466.93 12.79
-3 1 2 83.58 6.02
-3 1 2 92.93 4.39
-3 1 2 89.46 5.13
-3 1 2 75.16 6.58
-3 1 2 80.06 5.84
-3 1 2 76.77 5.11
-3 1 3 73.06 5.05
-3 1 3 71.69 5.67
-3 1 3 71.45 3.47
-3 1 3 76.85 4.66
-3 1 3 74.09 5.76
-3 1 4 226.29 9.23
-3 1 4 209.96 4.63
-3 1 4 218.04 10.3
-3 1 4 190.7 9.72
-3 1 5 5.65 0.68
-3 1 5 3.78 1.52
-3 1 6 12.46 1.28
-3 1 6 13.7 2.86
-3 1 7 45.38 5.06
-3 1 7 40.23 2.88
-3 1 8 18.59 2.29
-3 1 8 17.01 3.5
-3 1 9 83.56 7.47
-3 1 9 98.66 6
-3 1 9 89.94 7.14
-3 1 10 11.77 3.3
-3 1 11 26.36 4.87
-3 1 12 7.58 3
-3 1 13 -2.01 2.21
-3 2 -12 63.54 7.44
-3 2 -11 22.8 4.67
-3 2 -10 81.03 7.88
-3 2 -9 45.51 5.94
-3 2 -8 174.05 10.77
-3 2 -7 173.83 10.3
-3 2 -7 156.65 5.92
-3 2 -6 139.69 8.87
-3 2 -6 142.94 5.51
-3 2 -5 152.01 8.98
-3 2 -5 145.2 5.53
-3 2 -4 147.14 5.66
-3 2 -4 146.91 8.64
-3 2 -4 150.26 5.93
-3 2 -4 166.76 8.89
-3 2 -3 1.54 1.8
-3 2 -3 0.58 0.52
-3 2 -3 1.42 1.41
-3 2 -3 1.51 1.23
-3 2 -3 1.11 0.81
-3 2 -2 6.1 2.38
-3 2 -2 1.6 0.86
-3 2 -2 2.89 0.58
-3 2 -2 4.94 1.57
-3 2 -2 5 1.51
-3 2 -1 1.6 0.44
-3 2 -1 2.09 0.8
-3 2 -1 -0.36 1.47
-3 2 -1 3.92 1.36
-3 2 0 308.02 12.43
-3 2 0 295.8 9.76
-3 2 0 309.13 9.78
-3 2 0 314.72 8.19
-3 2 1 424.67 10.75
-3 2 1 422.32 12.31
-3 2 1 412.59 14.39
-3 2 2 233.98 6.11
-3 2 2 241.3 10.18
-3 2 2 230.82 8.65
-3 2 3 38.26 3.83
-3 2 3 41.67 3.54
-3 2 3 36.28 4.24
-3 2 3 43.34 4.8
-3 2 4 84.27 6.83
-3 2 4 90.59 5.37
-3 2 4 80.24 5.64
-3 2 5 42.17 4.9
-3 2 6 439.98 16.94
-3 2 7 115.41 7.25
-3 2 7 112.04 8.24
-3 2 8 260.99 13.21
-3 2 9 180.04 11.33
-3 2 10 28.48 4.93
-3 2 11 103.41 8.98
-3 2 12 34.89 5.54
-3 2 13 12.66 3.89
-3 3 -13 37.27 6.11
-3 3 -12 13.25 3.95
-3 3 -11 13.06 3.91
-3 3 -11 5.33 2.7
-3 3 -10 15.75 3.89
-3 3 -10 11.42 3.56
-3 3 -9 18.8 3.44
-3 3 -9 24.9 4.54
-3 3 -8 288.02 12.76
-3 3 -8 293.59 14.06
-3 3 -7 148.39 8.29
-3 3 -7 153.31 9.52
-3 3 -6 182.28 8.67
-3 3 -6 180.02 10
-3 3 -5 23.84 2.8
-3 3 -5 21.46 3.31
-3 3 -4 96.95 5.1
-3 3 -4 96.49 6.58
-3 3 -3 512.5 15.91
-3 3 -3 523.05 13.12
-3 3 -2 234.6 6.59
-3 3 -2 228.14 9.09
-3 3 -1 457.93 17.52
-3 3 -1 471.52 13.3
-3 3 -1 482.22 11.28
-3 3 -1 429.24 10.51
-3 3 0 84.25 6.74
-3 3 0 90.8 4.46
-3 3 0 87.58 4.53
-3 3 0 86.44 4.24
-3 3 1 159.1 6.24
-3 3 1 154.54 6.57
-3 3 1 159.73 5.74
-3 3 1 145.46 8.91
-3 3 2 43.01 4.68
-3 3 2 44.31 3.64
-3 3 3 326.68 11.62
-3 3 3 333.91 13.52
-3 3 4 110.84 7.41
-3 3 4 110.86 5.66
-3 3 4 97.73 7.99
-3 3 5 244.33 11.32
-3 3 5 238.68 9.49
-3 3 5 246.85 12.97
-3 3 6 113.15 6.73
-3 3 6 111.95 8.71
-3 3 7 77.61 5.94
-3 3 7 73.01 7.14
-3 3 8 9.64 2.98
-3 3 9 -0.86 1.92
-3 3 10 26.81 4.97
-3 3 11 82.85 8.3
-3 3 12 9.05 3.53
-3 3 13 15.42 4.27
-3 4 -10 71.19 7.33
-3 4 -10 65.83 7.28
-3 4 -9 97.73 7.95
-3 4 -9 104.05 8.7
-3 4 -8 145.14 9.9
-3 4 -8 132.81 8.93
-3 4 -7 55.89 5.34
-3 4 -7 58.26 6.12
-3 4 -6 1.69 2
-3 4 -6 1.07 1.42
-3 4 -5 32.89 3.59
-3 4 -5 31.07 4.03
-3 4 -4 103.69 6
-3 4 -4 108.88 7.03
-3 4 -3 207.35 8.18
-3 4 -3 215.65 9.67
-3 4 -2 312.93 11.27
-3 4 -2 266.02 14.7
-3 4 -1 148.71 10.3
-3 4 -1 155.18 7.11
-3 4 -1 148.78 6.09
-3 4 0 30.97 3
-3 4 0 34.32 4.87
-3 4 1 0.77 0.9
-3 4 1 1.3 1.48
-3 4 2 6.13 2.02
-3 4 2 9.93 2
-3 4 3 111.12 8.26
-3 4 3 128.52 7.51
-3 4 4 81.9 7.85
-3 4 4 82.33 6.99
-3 4 4 83.03 6.29
-3 4 5 376.22 15.64
-3 4 5 359.27 17.18
-3 4 6 26.56 4.68
-3 4 7 3.31 2.32
-3 4 8 37.43 5.76
-3 4 9 3.76 2.5
-3 4 10 60.15 7.23
-3 4 11 9.26 3.09
-3 4 12 15.22 4.37
-3 5 -8 15.27 3.76
-3 5 -7 23.22 4.32
-3 5 -6 63.92 6.26
-3 5 -6 48.37 5.08
-3 5 -5 175.53 9.17
-3 5 -4 56.24 4.86
-3 5 -4 42.93 6.67
-3 5 -3 187.65 13.26
-3 5 -2 16.15 3.9
-3 5 -1 6.61 2.88
-3 5 0 144.43 10.59
-3 5 0 140.46 7.59
-3 5 1 144.36 10.4
-3 5 1 139.68 7.95
-3 5 2 74.28 6.07
-3 5 2 76.48 7.41
-3 5 3 122.35 8.18
-3 5 3 127.75 9.5
-3 5 4 22.74 3.7
-3 5 4 28.08 4.58
-3 5 5 -0.73 2.75
-3 5 5 5.93 2.75
-3 5 6 16.45 4.23
-3 5 6 17.79 3.8
-3 5 7 196.66 13.46
-3 5 8 87.27 9.08
-3 5 9 40.82 6.42
-3 5 10 13.6 3.81
-3 5 11 5.41 3.24
-3 5 12 2.11 2.87
-3 6 -6 81.58 10.04
-3 6 -5 75.99 9.42
-3 6 -4 27.09 5.81
-3 6 -3 15.1 4.55
-3 6 -2 7.65 3.59
-3 6 -1 98.15 9.67
-3 6 0 120.65 10.47
-3 6 1 175.23 12.41
-3 6 2 1.52 2.35
-3 6 3 27.59 5.01
-3 6 4 19.27 4.27
-3 6 5 35.24 6.03
-3 6 5 35.31 5.44
-3 6 6 57.16 7.02
-3 6 6 48.38 7.16
-3 6 7 42.22 6.64
-3 6 8 135.85 11.86
-3 6 9 3.4 2.89
-3 6 10 -2.47 2.52
-3 7 -3 16.56 4.85
-3 7 -2 71.43 9.02
-3 7 -1 71.28 8.75
-3 7 0 60.04 8
-3 7 1 28.72 5.53
-3 7 2 16.14 4.34
-3 7 3 9.36 3.65
-3 7 4 24.51 5.23
-3 7 5 37.22 6.7
-3 7 5 43.02 6.38
-3 7 6 29.46 6.08
-3 7 6 25.29 5.01
-3 7 7 17.79 5.03
-3 7 8 2.76 2.95
-2 -10 -10 -3.72 3.83
-2 -10 -9 0.23 3.23
-2 -10 -7 20.81 5.49
-2 -10 -6 23.91 5.68
-2 -10 -5 45.84 7.34
-2 -10 -4 -2.94 3.39
-2 -10 -3 2.82 2.9
-2 -10 -2 11.88 4.52
-2 -10 -1 31.05 6.6
-2 -10 0 29.68 6.41
-2 -10 1 15.29 5.24
-2 -9 -12 -0.83 2.55
-2 -9 -11 0.51 2.42
-2 -9 -10 2.73 2.75
-2 -9 -9 10.71 4.08
-2 -9 -8 25.38 5.35
-2 -9 -7 21.6 5.11
-2 -9 -6 13.4 4.22
-2 -9 -5 7.93 3.36
-2 -9 -4 81.4 9.35
-2 -9 -3 48.56 7.22
-2 -9 -2 16.03 4.35
-2 -9 -1 14.79 4.12
-2 -9 0 9.28 4.31
-2 -9 1 2.05 2.79
-2 -9 2 4.83 3.54
-2 -9 3 6.86 4.09
-2 -9 4 27.26 6.37
-2 -9 5 31.32 7.33
-2 -8 -13 2.95 2.79
-2 -8 -12 5.18 3.01
-2 -8 -11 4.05 2.34
-2 -8 -10 8.98 2.98
-2 -8 -9 48.78 6.72
-2 -8 -9 43.44 6.46
-2 -8 -8 3.93 3.09
-2 -8 -7 8.21 3.5
-2 -8 -6 13.01 3.79
-2 -8 -5 6.47 3.04
-2 -8 -4 144.04 11.75
-2 -8 -3 217.53 14.49
-2 -8 -2 35.22 6.05
-2 -8 -1 18.83 4.68
-2 -8 0 2.53 2.31
-2 -8 1 48.86 7.55
-2 -8 2 30.29 6.55
-2 -8 3 129.74 12.68
-2 -8 4 165.32 12.54
-2 -8 4 138.07 13.52
-2 -8 5 12.17 4.66
-2 -8 5 23.72 5.46
-2 -8 6 5.97 3.74
-2 -8 7 47.69 8.72
-2 -7 -15 0.08 2.34
-2 -7 -14 19.69 5.18
-2 -7 -14 9.07 3.44
-2 -7 -13 14.57 4.23
-2 -7 -13 3.75 2.99
-2 -7 -12 72.95 8.05
-2 -7 -11 68.22 7.87
-2 -7 -10 3.95 2.27
-2 -7 -9 63.64 7.35
-2 -7 -9 65.96 7.79
-2 -7 -8 81.37 7.97
-2 -7 -7 97.67 8.55
-2 -7 -6 105.5 9.12
-2 -7 -5 103.63 9.2
-2 -7 -4 183.75 12.41
-2 -7 -3 9.44 3.34
-2 -7 -2 15.56 4.1
-2 -7 -1 25.66 4.93
-2 -7 0 87.03 9.05
-2 -7 1 233.03 15.39
-2 -7 1 205.98 11.7
-2 -7 2 12.56 2.88
-2 -7 2 17.54 4.44
-2 -7 3 8.71 3.44
-2 -7 4 61.79 9.1
-2 -7 4 51.07 6.43
-2 -7 5 2.04 3.39
-2 -7 5 5.4 3.09
-2 -7 6 32.52 7.21
-2 -7 6 31.05 5.74
-2 -7 7 42.37 8.34
-2 -7 7 51.47 7.75
-2 -7 8 60.52 10.06
-2 -7 8 60.84 8.72
-2 -7 9 20.74 6.39
-2 -6 -16 9.05 4.32
-2 -6 -15 1.46 2.74
-2 -6 -14 32.54 5.97
-2 -6 -14 18.21 4.8
-2 -6 -13 13.02 3.74
-2 -6 -13 14.1 4.53
-2 -6 -12 5.38 2.71
-2 -6 -12 0.56 2.7
-2 -6 -11 10.43 3.01
-2 -6 -10 9.07 2.82
-2 -6 -9 21.27 4.37
-2 -6 -8 19.4 3.93
-2 -6 -7 219.17 12.25
-2 -6 -6 113.82 8.75
-2 -6 -5 40.8 5.16
-2 -6 -4 61.33 6.59
-2 -6 -4 68.35 5.69
-2 -6 -3 2.3 1.96
-2 -6 -3 0.39 1.17
-2 -6 -2 10.49 2.45
-2 -6 -2 10.25 3.23
-2 -6 -1 220.53 13.45
-2 -6 0 292.38 15.94
-2 -6 1 86.97 7.02
-2 -6 1 90.45 9.04
-2 -6 2 27.22 5.49
-2 -6 2 19.88 3.39
-2 -6 3 157.26 9.19
-2 -6 3 164.94 13.16
-2 -6 4 17.42 4.82
-2 -6 4 9.3 2.31
-2 -6 5 149.29 10.49
-2 -6 5 163.46 14.09
-2 -6 6 40.94 7.54
-2 -6 6 39.74 5.97
-2 -6 7 85.29 10.65
-2 -6 7 100.25 9.59
-2 -6 8 6.51 3.54
-2 -6 8 11.66 4
-2 -6 9 4.11 3.45
-2 -6 9 -1.42 3.19
-2 -6 10 22.35 6.45
-2 -6 10 15.03 4.82
-2 -5 -17 1.39 2.71
-2 -5 -16 34.56 6.35
-2 -5 -15 29.99 5.91
-2 -5 -14 37.7 6.58
-2 -5 -13 29.48 5.29
-2 -5 -13 21.81 5.12
-2 -5 -12 46.85 7.22
-2 -5 -12 57.05 6.96
-2 -5 -11 1 2.18
-2 -5 -11 0.16 2.43
-2 -5 -10 91.72 8.13
-2 -5 -9 237.5 11.83
-2 -5 -9 201.98 12.08
-2 -5 -8 171.22 9.44
-2 -5 -8 152.55 10.35
-2 -5 -8 152.51 9.44
-2 -5 -7 116.88 8.1
-2 -5 -6 48.63 4.63
-2 -5 -6 46.98 5.31
-2 -5 -5 17.78 2.76
-2 -5 -5 16.64 3.16
-2 -5 -4 347.76 15.16
-2 -5 -4 380.09 13.09
-2 -5 -3 592.58 20.83
-2 -5 -3 561.99 18.76
-2 -5 -3 611.73 17.32
-2 -5 -2 214.32 10.57
-2 -5 -2 229.22 9.53
-2 -5 -2 214.87 11.97
-2 -5 -1 190.79 9.87
-2 -5 -1 170.74 10.88
-2 -5 0 200.71 12.25
-2 -5 1 7.58 2.66
-2 -5 1 6.42 2.08
-2 -5 2 57.85 5.35
-2 -5 2 60.34 7.36
-2 -5 3 179.51 13
-2 -5 3 156.85 8.9
-2 -5 4 394.02 14.59
-2 -5 4 399.49 20.55
-2 -5 5 108.39 6.91
-2 -5 5 124.27 8.69
-2 -5 5 104.82 10.71
-2 -5 6 19.21 2.79
-2 -5 6 20.6 4.96
-2 -5 7 118.56 9.53
-2 -5 7 102.42 11.3
-2 -5 8 36.27 5.83
-2 -5 8 28.06 6.4
-2 -5 9 32.46 6.05
-2 -5 9 27.49 6.68
-2 -5 10 125.31 11.79
-2 -5 10 119.15 13.35
-2 -5 11 58.65 8.77
-2 -5 12 47.19 8.42
-2 -4 -17 16.02 4.71
-2 -4 -16 17.17 4.43
-2 -4 -15 2.56 2.73
-2 -4 -14 5.03 3.4
-2 -4 -13 9.54 3.8
-2 -4 -12 102.66 8.84
-2 -4 -12 93.64 9.55
-2 -4 -11 13.75 3.78
-2 -4 -11 17.5 3.78
-2 -4 -10 57.72 6.11
-2 -4 -10 57.29 7.57
-2 -4 -9 13.4 3.14
-2 -4 -9 19.57 3.13
-2 -4 -8 285.33 13.91
-2 -4 -8 312.89 12.15
-2 -4 -7 18.95 2.76
-2 -4 -7 15.4 2.83
-2 -4 -6 1.51 1.88
-2 -4 -6 1.15 0.87
-2 -4 -6 1.69 1.69
-2 -4 -5 617.67 19.6
-2 -4 -5 658.64 17.94
-2 -4 -4 343.15 11.36
-2 -4 -4 328.99 13.42
-2 -4 -3 395.53 11.87
-2 -4 -3 388.27 15.01
-2 -4 -2 391.77 7.95
-2 -4 -2 398.47 13.8
-2 -4 -2 407.64 11.77
-2 -4 -2 370.62 15.09
-2 -4 -1 25.02 3.89
-2 -4 -1 32.51 3.56
-2 -4 -1 29.54 2.74
-2 -4 0 25.7 4.12
-2 -4 0 32.81 3.65
-2 -4 1 598.61 21.55
-2 -4 1 556.7 18.15
-2 -4 1 564.85 17.46
-2 -4 2 619.05 19.17
-2 -4 2 649.67 23.9
-2 -4 2 667.4 19.46
-2 -4 3 229.97 13.91
-2 -4 3 213.46 10.1
-2 -4 4 116.83 10.15
-2 -4 4 105.42 6.75
-2 -4 5 24.73 5.24
-2 -4 5 26.95 3.34
-2 -4 5 23.71 3.63
-2 -4 6 -1.91 1.38
-2 -4 6 5.62 2.45
-2 -4 7 14.36 3.44
-2 -4 7 11.38 2.19
-2 -4 8 55.14 6.5
-2 -4 9 84.03 8.63
-2 -4 10 74.22 8.64
-2 -4 11 23.41 5.52
-2 -4 12 9.13 4.34
-2 -4 13 22.87 6.28
-2 -3 -17 21.05 4.99
-2 -3 -17 24.19 4.44
-2 -3 -16 37.14 4.94
-2 -3 -16 25.9 5.05
-2 -3 -15 3.95 2.34
-2 -3 -14 -2.33 2.74
-2 -3 -13 59.42 7.18
-2 -3 -12 110.8 10.02
-2 -3 -11 44.07 6.33
-2 -3 -10 49.95 6.71
-2 -3 -10 60.65 5.97
-2 -3 -9 178.67 9.24
-2 -3 -9 190.77 10.44
-2 -3 -9 185.09 12.71
-2 -3 -8 31.65 4.22
-2 -3 -8 38.29 3.9
-2 -3 -8 27.35 4.99
-2 -3 -7 32.86 3.26
-2 -3 -7 28.61 3.87
-2 -3 -7 33.02 5.47
-2 -3 -6 359.14 10.99
-2 -3 -6 358.87 17.86
-2 -3 -6 357.21 12.7
-2 -3 -5 325.61 12.05
-2 -3 -5 325.85 9.54
-2 -3 -5 325.64 16.17
-2 -3 -4 289.45 8.07
-2 -3 -4 277.21 11.05
-2 -3 -3 184.4 8.82
-2 -3 -2 11.54 2.35
-2 -3 -2 12.71 1.49
-2 -3 -1 385.47 12.34
-2 -3 -1 376.4 9.56
-2 -3 -1 400.88 14.59
-2 -3 0 93.84 5.52
-2 -3 0 97.76 7.17
-2 -3 1 401.65 14.08
-2 -3 1 402.05 12.83
-2 -3 1 404.59 16.12
-2 -3 2 9.24 1.97
-2 -3 2 10.27 2.64
-2 -3 2 13.66 2.27
-2 -3 3 414.47 14.07
-2 -3 3 400.27 13.71
-2 -3 4 141.52 7.48
-2 -3 4 142.52 6.81
-2 -3 4 133.37 7.03
-2 -3 5 43.72 4.13
-2 -3 5 52.5 4.18
-2 -3 5 50.43 4.59
-2 -3 6 219.65 10.47
-2 -3 6 212.34 9.3
-2 -3 7 23.47 3.7
-2 -3 7 24.9 3.06
-2 -3 8 98.8 8.14
-2 -3 9 76.32 7.75
-2 -3 10 1.98 2.17
-2 -3 11 -1.45 2.32
-2 -3 12 46.84 7.63
-2 -3 13 63.04 9.35
-2 -2 -16 40.85 5.14
-2 -2 -16 24.92 5.04
-2 -2 -15 37.01 4.76
-2 -2 -15 28.95 5.52
-2 -2 -14 69.94 7.91
-2 -2 -13 7.9 2.94
-2 -2 -12 265.73 15.13
-2 -2 -11 1.45 2.3
-2 -2 -10 41.69 5.88
-2 -2 -9 441.66 19.39
-2 -2 -9 482.52 16.99
-2 -2 -8 158.84 10.84
-2 -2 -8 152.55 8.01
-2 -2 -8 155.79 8.73
-2 -2 -7 96.24 5.66
-2 -2 -7 104.8 6.75
-2 -2 -7 87.27 8.59
-2 -2 -7 88.34 7.98
-2 -2 -6 225.46 10.55
-2 -2 -6 242.22 8.75
-2 -2 -6 242.45 10.67
-2 -2 -6 244.87 13.72
-2 -2 -6 235.72 13.34
-2 -2 -5 599.64 14.31
-2 -2 -5 601.2 21.7
-2 -2 -5 577.84 17.99
-2 -2 -5 558.06 15.56
-2 -2 -4 -0.31 0.5
-2 -2 -4 2.2 1.33
-2 -2 -4 0.08 0.89
-2 -2 -4 0.84 0.68
-2 -2 -3 4.85 1.65
-2 -2 -3 4.72 1.75
-2 -2 -3 5.04 0.71
-2 -2 -3 4.56 1.29
-2 -2 -2 2045.56 41.13
-2 -2 -2 2030.55 42.35
-2 -2 -1 2231.57 45.24
-2 -2 -1 2278.12 42.82
-2 -2 -1 2251.79 45.87
-2 -2 -1 2253.94 40.57
-2 -2 0 1041.13 18.49
-2 -2 0 1039.22 22.63
-2 -2 0 1004.21 24.08
-2 -2 0 1037.67 26.12
-2 -2 0 1040.42 25.19
-2 -2 1 458.53 14.52
-2 -2 1 461.17 12.81
-2 -2 1 468.88 13.44
-2 -2 1 473.84 16.35
-2 -2 1 463.51 10.31
-2 -2 2 512.93 15.62
-2 -2 2 523.96 14.41
-2 -2 2 520.9 12.49
-2 -2 2 545.55 14.15
-2 -2 3 141.33 5.92
-2 -2 3 144.05 7.35
-2 -2 3 142.4 5.8
-2 -2 4 181.11 7.2
-2 -2 4 180.43 6.99
-2 -2 4 167.17 7.96
-2 -2 4 184.54 7.54
-2 -2 5 611.74 17.46
-2 -2 5 661.34 16.55
-2 -2 5 627.62 17.67
-2 -2 5 641.83 17.29
-2 -2 6 446.6 14.2
-2 -2 6 478.12 14.24
-2 -2 6 466.24 15.19
-2 -2 6 461.44 15.11
-2 -2 7 487.97 14.91
-2 -2 7 482.91 17.09
-2 -2 7 494.38 16.78
-2 -2 8 158.04 9.73
-2 -2 8 149.69 8.96
-2 -2 9 6.96 2.76
-2 -2 9 6.38 2.52
-2 -2 10 21.25 4.02
-2 -2 10 26.16 5.03
-2 -2 11 37.7 5.42
-2 -2 11 29.84 5.58
-2 -2 12 95.39 10.23
-2 -2 13 51.5 8.07
-2 -1 -16 8.94 3.83
-2 -1 -15 82.68 6.62
-2 -1 -15 68.82 8.09
-2 -1 -14 33.36 5.53
-2 -1 -14 41.27 4.58
-2 -1 -13 8.44 3.28
-2 -1 -12 0.84 1.97
-2 -1 -11 71.82 7.4
-2 -1 -10 198.3 12.3
-2 -1 -9 285.39 14.54
-2 -1 -9 287.48 12.45
-2 -1 -8 473.6 16.84
-2 -1 -8 480.42 19.13
-2 -1 -8 507.66 16.26
-2 -1 -7 110.54 7.36
-2 -1 -7 117.9 6.8
-2 -1 -7 103.51 8.67
-2 -1 -7 125.59 8.85
-2 -1 -7 115.48 6.55
-2 -1 -6 187.77 7.88
-2 -1 -6 177.64 8.2
-2 -1 -6 178.28 10.93
-2 -1 -6 171.08 9.2
-2 -1 -6 165.16 10.28
-2 -1 -5 60.84 3.94
-2 -1 -5 61.55 4.57
-2 -1 -5 50 5.56
-2 -1 -5 57.64 5.09
-2 -1 -5 59.5 5.9
-2 -1 -4 9.01 1.52
-2 -1 -4 10.79 2.53
-2 -1 -4 10.21 2.48
-2 -1 -4 13.37 2.52
-2 -1 -4 12.14 1.53
-2 -1 -3 191.14 9.52
-2 -1 -3 198.23 9.3
-2 -1 -3 175.54 6.43
-2 -1 -2 288.67 11.17
-2 -1 -2 270.02 11.1
-2 -1 -2 274.61 8.67
-2 -1 -1 9965.57 164.5
-2 -1 -1 9729.5 170.57
-2 -1 -1 9781.05 169.75
-2 -1 -1 9999 167.38
-2 -1 0 1415.54 25.98
-2 -1 0 1413.37 26.94
-2 -1 0 1423.22 31.52
-2 -1 0 1449.58 30.77
-2 -1 0 1356.82 27.88
-2 -1 0 1397.19 30.41
-2 -1 1 540.55 15.59
-2 -1 1 569.24 13.3
-2 -1 1 574.92 12.73
-2 -1 1 581.83 16.21
-2 -1 2 459.35 13.87
-2 -1 2 473.61 11.85
-2 -1 2 481.84 13.98
-2 -1 3 31.79 2.05
-2 -1 3 32.75 2.76
-2 -1 3 31.83 3.17
-2 -1 3 27.81 2.8
-2 -1 4 101.54 5.38
-2 -1 4 101.74 5.78
-2 -1 4 104.49 4.43
-2 -1 4 100.7 4.47
-2 -1 4 99.13 5.1
-2 -1 5 12.01 1.82
-2 -1 5 15.26 1.83
-2 -1 5 11.09 1.93
-2 -1 5 17.05 1.89
-2 -1 5 12.9 2.04
-2 -1 6 187.55 7.47
-2 -1 6 181.38 8.27
-2 -1 6 169.8 8.29
-2 -1 6 178.56 7.85
-2 -1 6 172.5 5.72
-2 -1 7 8.95 2.05
-2 -1 7 9.01 2.19
-2 -1 7 11.84 2.2
-2 -1 7 11.82 2.04
-2 -1 8 17.93 3.13
-2 -1 8 22.04 3.64
-2 -1 8 21.05 3.06
-2 -1 9 251.2 12.26
-2 -1 9 243.87 13.06
-2 -1 10 14.12 3.27
-2 -1 10 13.89 3.5
-2 -1 11 25.67 4.43
-2 -1 11 16.44 4
-2 -1 12 50.2 6.42
-2 -1 12 52.38 7.35
-2 -1 13 41.32 6.93
-2 -1 13 41.95 6.14
-2 -1 14 0.68 2.46
-2 0 -15 29.76 5.44
-2 0 -14 7.06 3.21
-2 0 -13 43.09 4.18
-2 0 -13 38.35 5.76
-2 0 -12 37.08 3.55
-2 0 -12 24.1 4.59
-2 0 -11 52.21 6.29
-2 0 -11 48.54 5.02
-2 0 -10 119.58 9.09
-2 0 -10 106.96 7.49
-2 0 -9 236.68 12.65
-2 0 -9 229.53 11.35
-2 0 -8 11.5 3
-2 0 -8 23.06 3.54
-2 0 -7 9.1 2.45
-2 0 -7 1.32 1.8
-2 0 -7 5.63 1.81
-2 0 -7 4.19 2.12
-2 0 -6 22.22 2.78
-2 0 -6 20.37 3.54
-2 0 -6 23.07 3.41
-2 0 -6 30.09 4
-2 0 -5 13.74 2.98
-2 0 -5 17.01 3.14
-2 0 -5 19.56 3.44
-2 0 -5 17.74 2.34
-2 0 -4 579.74 18.38
-2 0 -4 584.38 14.63
-2 0 -4 600.47 18.67
-2 0 -4 582.99 18.96
-2 0 -3 221.31 7.44
-2 0 -3 231.67 10.32
-2 0 -3 233.09 9.81
-2 0 -3 210.39 10.35
-2 0 -2 815.01 20.4
-2 0 -2 807.63 15.72
-2 0 -2 830 21.86
-2 0 -2 798.6 22.38
-2 0 -2 810.75 19.06
-2 0 -1 1203.52 25.72
-2 0 -1 1188.41 25.45
-2 0 -1 1167.56 28.82
-2 0 -1 1218.71 23.42
-2 0 0 15.26 2.01
-2 0 0 14.47 1.07
-2 0 0 15.23 1.58
-2 0 0 17.78 1.74
-2 0 0 17.7 2.05
-2 0 0 14.06 2.4
-2 0 1 1435.55 29.33
-2 0 1 1399.47 25.41
-2 0 1 1399.04 28.57
-2 0 1 1454.39 26.52
-2 0 1 1429.56 31.9
-2 0 1 1373.5 29.44
-2 0 2 207.76 7.97
-2 0 2 209.41 7.63
-2 0 2 200.11 8.84
-2 0 3 1106.88 24.44
-2 0 3 1121.34 26.1
-2 0 3 1084.79 24.4
-2 0 4 260.45 9.4
-2 0 4 256.1 7.3
-2 0 4 250.23 9.41
-2 0 4 271.48 6.81
-2 0 4 266.44 10.09
-2 0 5 6.79 1.52
-2 0 5 4.46 1.32
-2 0 5 4.63 1.08
-2 0 5 8.15 1.24
-2 0 5 7.65 1.84
-2 0 6 13.12 2.44
-2 0 6 11.71 2.04
-2 0 6 9.92 1.81
-2 0 6 10.25 1.63
-2 0 6 8.91 1.81
-2 0 7 2.2 0.95
-2 0 7 6.58 1.57
-2 0 7 4.9 1.62
-2 0 7 8.02 1.83
-2 0 7 4.94 1.83
-2 0 8 325.9 13.6
-2 0 8 313.75 12.13
-2 0 8 333.43 13.8
-2 0 9 313.23 14.53
-2 0 9 303.27 13
-2 0 9 295.68 13.58
-2 0 9 343.35 10.37
-2 0 10 381.64 17.24
-2 0 10 405.16 16.16
-2 0 10 383.45 16.39
-2 0 11 81.24 7.55
-2 0 11 77.59 7.98
-2 0 12 8.27 3.25
-2 0 12 9.11 3.36
-2 0 13 20.59 4.42
-2 0 13 25.36 5.37
-2 0 14 17.71 4.66
-2 1 -14 6.02 3.22
-2 1 -13 43.14 6.09
-2 1 -12 88.52 8.13
-2 1 -11 164.36 7.08
-2 1 -11 154.36 10.5
-2 1 -10 31 2.77
-2 1 -10 28.9 4.68
-2 1 -10 18.55 3.33
-2 1 -9 36.11 4.88
-2 1 -9 36.36 4.55
-2 1 -8 8.49 2.38
-2 1 -8 8.73 2.62
-2 1 -7 401.9 15.55
-2 1 -7 373.59 15.93
-2 1 -6 414.61 16.98
-2 1 -6 421.41 16.49
-2 1 -6 447.82 16.04
-2 1 -5 2044.26 45.55
-2 1 -5 2071.31 44.56
-2 1 -5 2069 46.91
-2 1 -4 39.47 4.28
-2 1 -4 41.99 4.2
-2 1 -4 36.2 4.6
-2 1 -3 22.94 2.04
-2 1 -3 28.13 3.23
-2 1 -3 29.8 3.37
-2 1 -3 21.89 3.36
-2 1 -2 783.91 17.22
-2 1 -2 784.13 19.72
-2 1 -2 787.88 19.32
-2 1 -2 752.92 22.21
-2 1 -1 518.23 12.85
-2 1 -1 524.01 13.35
-2 1 -1 528.37 10.34
-2 1 -1 530.54 14.2
-2 1 -1 498.44 16.81
-2 1 0 1821.23 33.11
-2 1 0 1769.81 34.23
-2 1 0 1773.87 34.25
-2 1 1 1832.14 34.78
-2 1 1 1802.59 32.97
-2 1 1 1769.09 36.57
-2 1 1 1791.44 35.29
-2 1 2 647.29 17.72
-2 1 2 672.39 13.01
-2 1 2 685.39 16.12
-2 1 2 658.35 16.01
-2 1 2 625.89 17.26
-2 1 3 29.55 2.62
-2 1 3 25.85 3
-2 1 3 28.57 2.61
-2 1 3 26.49 2.91
-2 1 4 57.49 3.84
-2 1 4 60.33 4.67
-2 1 5 582.5 17.14
-2 1 5 575.58 15.05
-2 1 5 572.37 12.44
-2 1 6 5 1.49
-2 1 6 4.63 1.11
-2 1 6 3.3 1.55
-2 1 7 436.98 12.9
-2 1 7 440.27 15.72
-2 1 8 123.21 8.05
-2 1 8 122.06 7.69
-2 1 8 128.74 6.98
-2 1 9 141.6 9.16
-2 1 9 148.55 9.34
-2 1 9 143.21 8.24
-2 1 10 135.76 9.35
-2 1 10 125.14 9.35
-2 1 10 130.51 8.74
-2 1 11 2.18 2.25
-2 1 11 5.35 2.47
-2 1 11 1.24 1.78
-2 1 12 10.63 3.31
-2 1 12 11.29 3.54
-2 1 13 28.22 5.11
-2 1 14 70.96 8.12
-2 2 -13 60.05 6.97
-2 2 -12 46.54 6.11
-2 2 -11 6.47 2.79
-2 2 -10 6.9 2.68
-2 2 -9 30.83 2.33
-2 2 -9 34.69 4.86
-2 2 -9 29.38 4.56
-2 2 -8 61.9 2.97
-2 2 -8 61.1 5.97
-2 2 -8 56.32 6.25
-2 2 -7 170.3 9.51
-2 2 -7 159.23 4.54
-2 2 -7 155.73 10.32
-2 2 -6 211.49 4.8
-2 2 -6 220.2 10.44
-2 2 -6 188.98 11.29
-2 2 -5 228.51 11.1
-2 2 -5 211.07 11.84
-2 2 -5 234.02 5.77
-2 2 -4 341.35 7.41
-2 2 -4 389.93 12.93
-2 2 -4 360.78 10.65
-2 2 -4 313.56 14.08
-2 2 -4 364 13.38
-2 2 -3 40.52 1.92
-2 2 -3 41.2 3.89
-2 2 -3 41.52 2.8
-2 2 -3 41.08 3.75
-2 2 -2 321.69 8.19
-2 2 -2 306.43 10.8
-2 2 -2 322.86 10.4
-2 2 -2 317.02 7.56
-2 2 -1 286.27 7.47
-2 2 -1 285.95 8.96
-2 2 -1 291.82 6.89
-2 2 -1 274.4 6.79
-2 2 0 759.43 16.42
-2 2 0 767 15.78
-2 2 0 776.44 16.09
-2 2 0 750.23 20.18
-2 2 1 382.72 10.04
-2 2 1 405.2 9.06
-2 2 1 393.01 10.19
-2 2 1 390.01 12.78
-2 2 2 113.14 4.84
-2 2 2 117.84 4.16
-2 2 2 117.81 6.24
-2 2 2 114.72 6.44
-2 2 3 180.46 6.19
-2 2 3 188.71 6.66
-2 2 3 174.98 8.84
-2 2 3 160.1 7.53
-2 2 3 174.6 8.21
-2 2 4 332.98 13.03
-2 2 4 331.19 12.24
-2 2 4 371.21 10.67
-2 2 5 356.05 11.36
-2 2 5 342.03 13.31
-2 2 6 633.19 17.53
-2 2 6 602.5 19.14
-2 2 7 4.95 1.72
-2 2 7 3.99 2.03
-2 2 8 8.95 2.57
-2 2 9 29.14 4.33
-2 2 10 2.19 1.75
-2 2 11 56.01 6.47
-2 2 12 82.5 8.13
-2 2 13 9.45 3.23
-2 2 14 1.91 2.18
-2 3 -13 36.42 6.38
-2 3 -12 13.7 3.88
-2 3 -12 11.57 3.53
-2 3 -11 43.69 5.86
-2 3 -11 45.09 6.05
-2 3 -10 180.83 11.26
-2 3 -10 170.5 10.82
-2 3 -9 193.3 11.12
-2 3 -9 186.93 10.97
-2 3 -8 40.63 4.79
-2 3 -8 40.55 4.78
-2 3 -8 32.75 5.06
-2 3 -7 152.03 9.02
-2 3 -7 145.46 10.43
-2 3 -7 149.53 8.55
-2 3 -6 79.38 5.78
-2 3 -6 83.08 6.19
-2 3 -6 77.38 7.31
-2 3 -5 23.37 3.05
-2 3 -5 26.32 3.49
-2 3 -5 15.99 3.15
-2 3 -4 199.53 8.95
-2 3 -4 207.48 8.38
-2 3 -3 591.24 16.49
-2 3 -3 591.29 15.25
-2 3 -2 711.81 16.64
-2 3 -2 717.04 17.89
-2 3 -1 47.64 3.09
-2 3 -1 46.92 4.79
-2 3 -1 51.88 3.51
-2 3 0 5.63 1.79
-2 3 0 6.34 1.24
-2 3 0 4.4 1.09
-2 3 1 13.77 2.55
-2 3 1 11.43 1.81
-2 3 2 91.92 6.28
-2 3 2 100.36 5.43
-2 3 3 597.21 18
-2 3 3 588.62 16.38
-2 3 4 384.87 15.02
-2 3 4 378.42 13.52
-2 3 4 384.72 12.83
-2 3 4 348.71 13.37
-2 3 5 114.33 6.4
-2 3 5 116.73 7.91
-2 3 5 106.16 6.99
-2 3 6 18.79 3.49
-2 3 6 14.7 2.54
-2 3 6 10.6 2.4
-2 3 7 2.31 1.25
-2 3 7 2.93 2.06
-2 3 8 6.45 2.22
-2 3 9 56.92 6.2
-2 3 10 4.5 2.49
-2 3 11 174.07 11.59
-2 3 12 57.78 6.96
-2 3 13 21.17 4.58
-2 3 14 14.32 4.18
-2 4 -12 24.21 5.24
-2 4 -11 59.39 7.3
-2 4 -11 70.68 7.63
-2 4 -10 56.73 6.69
-2 4 -10 75.51 7.54
-2 4 -9 42.28 5.41
-2 4 -9 51.34 5.98
-2 4 -8 4.08 2.4
-2 4 -8 7.07 2.71
-2 4 -7 0.73 1.45
-2 4 -7 2.46 1.91
-2 4 -6 76.69 6.15
-2 4 -6 80.83 6.54
-2 4 -5 43.17 4.31
-2 4 -5 57.14 5.11
-2 4 -4 457.7 14.8
-2 4 -4 454 15.31
-2 4 -3 287.26 10.64
-2 4 -3 299.76 11.19
-2 4 -2 172.64 10.6
-2 4 -2 176.76 7.71
-2 4 -1 3.18 1.11
-2 4 -1 1.97 1.51
-2 4 0 277.29 12.88
-2 4 0 254.52 10.02
-2 4 1 233.67 9.64
-2 4 1 223.59 11.31
-2 4 2 695.99 21.72
-2 4 2 689.15 19.42
-2 4 3 362.28 14.38
-2 4 3 342.64 12.95
-2 4 4 334.35 13.75
-2 4 4 312.51 14.76
-2 4 4 332.33 13.09
-2 4 5 63.97 5.81
-2 4 5 63.27 6.35
-2 4 5 58.24 5.38
-2 4 5 58.46 5.43
-2 4 6 133.92 9.44
-2 4 6 141.12 8.74
-2 4 7 156.93 10.34
-2 4 8 134.73 9.66
-2 4 9 103.29 8.66
-2 4 10 7.47 2.79
-2 4 11 61.71 7
-2 4 12 10.33 3.46
-2 4 13 9.91 4.06
-2 4 14 24.17 5.22
-2 5 -12 65.21 8.61
-2 5 -11 60.02 7.65
-2 5 -10 38.05 5.79
-2 5 -9 11.22 3.51
-2 5 -8 10.62 2.94
-2 5 -7 107.4 8.49
-2 5 -6 190.65 10.74
-2 5 -5 51.45 5.24
-2 5 -4 110.77 7.32
-2 5 -3 218.67 10.04
-2 5 -3 184.71 12.37
-2 5 -2 -0.07 1.77
-2 5 -1 72.78 7.31
-2 5 -1 70.03 5.55
-2 5 0 91.4 7.9
-2 5 0 94.3 6.6
-2 5 1 234.9 11.01
-2 5 1 229.57 12.52
-2 5 2 165.26 10.38
-2 5 2 177.89 9.61
-2 5 3 12.02 3
-2 5 3 13.44 2.83
-2 5 4 2.57 1.45
-2 5 4 2.34 1.83
-2 5 5 0.16 2.21
-2 5 5 3.34 2.35
-2 5 6 21.1 4.19
-2 5 7 179.84 11.88
-2 5 8 3.85 2.63
-2 5 9 10.87 3.26
-2 5 10 9.66 3.1
-2 5 11 7.37 2.93
-2 5 12 -0.19 2.23
-2 5 13 16.98 4.58
-2 6 -8 76.18 7.88
-2 6 -7 107.48 9.01
-2 6 -6 122.44 9.24
-2 6 -5 6.76 3.13
-2 6 -5 11.13 2.85
-2 6 -4 38.8 4.8
-2 6 -4 48.11 7.01
-2 6 -3 2.81 2.3
-2 6 -2 90.1 8.94
-2 6 -1 160.26 11.57
-2 6 -1 144.86 9.18
-2 6 0 120.09 8.45
-2 6 0 116.48 9.61
-2 6 1 168.01 11.46
-2 6 1 153.64 9.86
-2 6 2 1.58 1.52
-2 6 2 7.54 2.89
-2 6 3 132.69 9.91
-2 6 3 118.44 9
-2 6 4 145.24 10.38
-2 6 5 69.35 7.84
-2 6 5 77.74 7.48
-2 6 6 23.26 4.65
-2 6 6 24.81 4.43
-2 6 7 178.89 12.74
-2 6 8 5.76 2.85
-2 6 9 0.35 1.85
-2 6 10 19.55 4.54
-2 6 11 44.52 6.68
-2 6 12 36.04 6.04
-2 7 -5 17.55 4.97
-2 7 -4 52.99 7.73
-2 7 -3 70.71 8.61
-2 7 -2 108.21 10.54
-2 7 -1 46.11 6.92
-2 7 0 8.08 3.45
-2 7 1 0.56 2.07
-2 7 2 33.06 5.45
-2 7 3 246.15 14.68
-2 7 4 110.15 9.8
-2 7 5 25.92 5.38
-2 7 5 34.16 5.56
-2 7 6 3.01 2.26
-2 7 6 12.24 3.93
-2 7 7 10.5 3.52
-2 7 8 1.54 1.92
-2 7 9 37.57 6.47
-2 7 10 11.88 4.14
-2 7 11 27.58 5.65
-2 8 -2 25.9 5.64
-2 8 -1 13.61 4.5
-2 8 0 12.22 4.21
-2 8 1 18.62 4.57
-2 8 2 7.83 3.13
-2 8 3 111.49 10.59
-2 8 4 18.31 4.56
-2 8 5 6.43 3.59
-2 8 5 6.47 3.31
-2 8 6 3.46 2.95
-2 8 6 0.39 2.51
-2 8 7 0.57 2.56
-2 8 8 34.2 6.4
-2 8 9 18.36 5.05
-1 -10 -11 7.34 3.54
-1 -10 -10 2.58 2.69
-1 -10 -9 7.57 3.7
-1 -10 -8 -2.05 3.02
-1 -10 -7 12.44 4.1
-1 -10 -6 31.99 6
-1 -10 -5 2.62 3.13
-1 -10 -4 7.4 3.86
-1 -10 -3 23.52 5.48
-1 -10 -2 14.54 4.15
-1 -10 -1 60.59 8.31
-1 -10 0 14.79 4.98
-1 -10 1 5.22 3.39
-1 -10 2 0.89 2.81
-1 -9 -12 14.92 4.24
-1 -9 -11 32.67 5.8
-1 -9 -10 53.81 7.16
-1 -9 -9 55.02 7.25
-1 -9 -8 5.09 2.25
-1 -9 -8 14.91 4.28
-1 -9 -7 0.7 2.42
-1 -9 -6 8.25 3.66
-1 -9 -5 21.07 4.64
-1 -9 -4 75.11 8.58
-1 -9 -3 29.41 5.73
-1 -9 -2 26.56 5.31
-1 -9 -1 21.88 5.16
-1 -9 0 5.56 3.24
-1 -9 1 7.68 3.4
-1 -9 2 29.91 6.1
-1 -9 2 33.64 6.48
-1 -9 3 22.65 5.51
-1 -9 4 46.98 7.59
-1 -9 5 16.57 5.01
-1 -8 -13 7.12 3.52
-1 -8 -12 5.22 2.79
-1 -8 -11 1.86 2.51
-1 -8 -10 72.82 7.95
-1 -8 -9 -0.15 2.09
-1 -8 -8 5.59 2.56
-1 -8 -8 16.95 4.06
-1 -8 -7 3.55 2.66
-1 -8 -6 10.59 3.43
-1 -8 -5 103.06 9.32
-1 -8 -4 0.92 2.04
-1 -8 -3 122.84 10.35
-1 -8 -2 1.63 2.04
-1 -8 -1 4.72 2.49
-1 -8 0 92.77 9.4
-1 -8 1 62.75 7.8
-1 -8 2 134.62 11.8
-1 -8 3 31.08 5.63
-1 -8 3 30.02 5.87
-1 -8 4 9.68 4.09
-1 -8 4 1.7 2.75
-1 -8 5 17.99 5.05
-1 -8 5 17.59 4.86
-1 -8 6 29.13 6.25
-1 -8 7 65.04 9.52
-1 -7 -13 21.92 4.76
-1 -7 -13 15.13 4.37
-1 -7 -12 30.45 5.37
-1 -7 -11 25.99 4.85
-1 -7 -10 3.12 2.53
-1 -7 -9 3.65 2.04
-1 -7 -8 394.02 18.23
-1 -7 -7 18.98 3.94
-1 -7 -6 70.31 7.27
-1 -7 -5 35.72 5.11
-1 -7 -4 0.48 1.47
-1 -7 -3 1.93 1.83
-1 -7 -3 2.18 0.8
-1 -7 -2 5.19 2.4
-1 -7 -1 161.75 11.51
-1 -7 0 133.04 10.57
-1 -7 1 209.96 13.58
-1 -7 2 8.62 3.4
-1 -7 3 50.18 7.11
-1 -7 4 20.86 4.88
-1 -7 4 23.06 4.65
-1 -7 5 31.89 5.97
-1 -7 5 40.21 6.4
-1 -7 6 140.22 13.22
-1 -7 6 137.35 12.02
-1 -7 7 81.1 9.8
-1 -7 7 75.13 10.03
-1 -7 8 94.06 11.5
-1 -7 9 3.62 3.8
-1 -6 -14 38.89 5.99
-1 -6 -13 1.4 2.27
-1 -6 -12 23.94 4.68
-1 -6 -12 21.33 4.66
-1 -6 -11 24.42 4.4
-1 -6 -10 2.22 2.36
-1 -6 -9 59.04 6.47
-1 -6 -8 178.64 11.28
-1 -6 -7 440.16 17.54
-1 -6 -6 14.02 3.46
-1 -6 -5 11.18 2.81
-1 -6 -4 132.56 9.28
-1 -6 -3 62.35 6.29
-1 -6 -3 57.64 2.83
-1 -6 -2 249.22 13.25
-1 -6 -1 398.98 17.34
-1 -6 0 291.02 14.92
-1 -6 1 19.08 3.92
-1 -6 2 26.85 4.71
-1 -6 2 25.96 3.35
-1 -6 3 345.86 12.28
-1 -6 3 324.4 17.5
-1 -6 4 17.04 4.58
-1 -6 4 15.98 2.36
-1 -6 4 24.92 4.42
-1 -6 5 172.82 11.75
-1 -6 5 155.39 12.79
-1 -6 6 126.8 10.64
-1 -6 6 128.16 12.05
-1 -6 7 10.8 4.06
-1 -6 7 13.48 4.27
-1 -6 8 1.5 2.62
-1 -6 8 7.25 3.9
-1 -6 9 32.41 6.9
-1 -6 9 40.43 7.2
-1 -6 10 23.55 6.17
-1 -6 11 19.93 6.25
-1 -5 -15 20.54 4.5
-1 -5 -14 18.74 4.65
-1 -5 -13 29.31 5.5
-1 -5 -12 11.32 3.39
-1 -5 -11 49.02 6
-1 -5 -11 43.13 6.16
-1 -5 -10 64.01 6.53
-1 -5 -9 73.23 6.85
-1 -5 -8 20.79 3.8
-1 -5 -7 8.96 2.37
-1 -5 -7 9.34 2.79
-1 -5 -6 86.02 6.87
-1 -5 -5 1.17 1.14
-1 -5 -5 3.54 1.73
-1 -5 -4 52.77 4.85
-1 -5 -4 46.66 4.89
-1 -5 -3 251.4 10.76
-1 -5 -3 216.7 10.35
-1 -5 -3 219.32 11.3
-1 -5 -2 4 1.71
-1 -5 -2 8.61 2.03
-1 -5 -2 9.08 2.43
-1 -5 -1 92.36 6.39
-1 -5 -1 86.92 7.13
-1 -5 0 72.13 5.73
-1 -5 0 78.62 6.95
-1 -5 1 20.76 3.09
-1 -5 1 23.26 4.03
-1 -5 2 125.39 6.89
-1 -5 2 127.96 9.66
-1 -5 3 336.21 11.65
-1 -5 3 332.82 16.69
-1 -5 4 211.79 8.49
-1 -5 4 222.69 11.61
-1 -5 4 217.11 13.79
-1 -5 5 14.54 4.05
-1 -5 5 15.72 2.06
-1 -5 5 21.67 3.93
-1 -5 6 6.92 3.18
-1 -5 6 11.41 3.49
-1 -5 6 8.69 1.54
-1 -5 7 135.77 10.96
-1 -5 7 155.13 13.01
-1 -5 8 86.96 9.09
-1 -5 8 82.58 9.9
-1 -5 9 108.13 10.89
-1 -5 9 101.35 11.46
-1 -5 10 52.3 8.45
-1 -5 10 53.84 8.22
-1 -5 11 25.98 5.69
-1 -5 11 33.89 7.36
-1 -5 12 5.93 4.38
-1 -4 -16 21.77 4.55
-1 -4 -16 2.72 2.27
-1 -4 -15 15.67 3.77
-1 -4 -15 32.84 4.95
-1 -4 -14 0.31 2.39
-1 -4 -13 2.84 2.14
-1 -4 -12 50.39 6.35
-1 -4 -11 434.03 19.27
-1 -4 -10 95.68 7.63
-1 -4 -10 87.16 8.23
-1 -4 -9 7.55 2.66
-1 -4 -9 5 2
-1 -4 -8 5.05 2.05
-1 -4 -8 5.74 2.1
-1 -4 -7 224.78 10.39
-1 -4 -7 208.49 13.74
-1 -4 -7 194.98 10.5
-1 -4 -6 482.71 17.22
-1 -4 -6 496.3 16.06
-1 -4 -6 523.51 16.75
-1 -4 -6 494.48 15.96
-1 -4 -5 257.28 10.43
-1 -4 -5 252.13 10.97
-1 -4 -4 992.72 24.12
-1 -4 -4 983.32 25.65
-1 -4 -3 449.18 13.76
-1 -4 -3 433.85 15.24
-1 -4 -2 12.46 2.47
-1 -4 -2 12.68 2.11
-1 -4 -2 8.22 1.77
-1 -4 -1 486.47 14.95
-1 -4 -1 473.84 14.47
-1 -4 -1 459.33 16.36
-1 -4 0 146.2 7.53
-1 -4 0 149.03 8.8
-1 -4 1 515.52 15.76
-1 -4 1 506.29 18.45
-1 -4 2 1061.57 24.91
-1 -4 2 1074.62 26.45
-1 -4 2 1106.91 30.79
-1 -4 3 458.28 13.75
-1 -4 3 504.82 16.16
-1 -4 3 488 14.67
-1 -4 3 458.93 19.01
-1 -4 4 109.51 7.35
-1 -4 4 106.65 5.57
-1 -4 4 97.67 8.69
-1 -4 5 0.4 0.9
-1 -4 5 3.61 2.33
-1 -4 5 2.79 1.82
-1 -4 6 42.92 5.32
-1 -4 6 30 2.68
-1 -4 7 527.18 13.44
-1 -4 7 586.84 22.1
-1 -4 8 231.19 14.16
-1 -4 9 18.03 4.42
-1 -4 10 66.33 8.52
-1 -4 11 5.83 3.35
-1 -4 12 4.54 3.63
-1 -4 13 13.56 5.31
-1 -3 -17 15.19 4.01
-1 -3 -17 20.54 4.56
-1 -3 -16 13.02 3.67
-1 -3 -16 9.25 3.13
-1 -3 -15 24.84 4.37
-1 -3 -15 10.2 3.4
-1 -3 -14 35.02 4.53
-1 -3 -14 19.43 4.03
-1 -3 -13 111.26 9.2
-1 -3 -12 13.06 3.12
-1 -3 -11 205.1 12.35
-1 -3 -10 17.69 3.83
-1 -3 -9 48.04 5.73
-1 -3 -9 45.81 4.98
-1 -3 -8 152.75 8.41
-1 -3 -8 145.56 8.57
-1 -3 -8 165.42 11.81
-1 -3 -8 146.79 10
-1 -3 -7 453.96 15.94
-1 -3 -7 497.65 15.58
-1 -3 -7 486.97 21.09
-1 -3 -6 861.5 21.34
-1 -3 -6 860.36 28.21
-1 -3 -6 818.04 22.93
-1 -3 -5 21.42 2.51
-1 -3 -5 19.9 2.69
-1 -3 -4 72 4.55
-1 -3 -4 80.68 4.5
-1 -3 -4 85.98 5.45
-1 -3 -3 118.64 5.5
-1 -3 -3 104.38 6.17
-1 -3 -2 251.02 9.92
-1 -3 -2 249.55 8.27
-1 -3 -1 1144.38 23.82
-1 -3 -1 1109.06 24.93
-1 -3 -1 1118.38 26.8
-1 -3 0 599.55 15.83
-1 -3 0 582.65 17.78
-1 -3 1 37.86 3.31
-1 -3 1 34.16 4.01
-1 -3 2 88.97 5
-1 -3 2 95.33 5.53
-1 -3 2 94.61 7.01
-1 -3 3 47.74 3.59
-1 -3 3 49.63 3.7
-1 -3 3 53.05 5.61
-1 -3 4 155.95 7.96
-1 -3 4 147.31 6.98
-1 -3 4 140.06 6.26
-1 -3 5 178.9 6.99
-1 -3 5 191.39 8.58
-1 -3 5 198.71 9.65
-1 -3 6 178.31 9.93
-1 -3 6 156.71 6.35
-1 -3 7 656.06 22.08
-1 -3 7 593.52 14.69
-1 -3 8 5.23 2.38
-1 -3 9 6.79 2.72
-1 -3 10 7.47 3.41
-1 -3 11 9.32 3.66
-1 -3 12 83.72 10.55
-1 -3 13 17.49 5.28
-1 -3 14 3.29 3.91
-1 -2 -17 5.97 3.04
-1 -2 -17 4.77 2.68
-1 -2 -16 13.55 3.6
-1 -2 -16 23.93 4.74
-1 -2 -15 16.71 3.57
-1 -2 -15 17.71 4.09
-1 -2 -14 57.63 5.68
-1 -2 -14 43.46 5.9
-1 -2 -13 10.21 2.94
-1 -2 -13 27.97 3.89
-1 -2 -12 131.33 9.5
-1 -2 -11 0.4 2.16
-1 -2 -10 19.34 3.58
-1 -2 -9 111.76 8.27
-1 -2 -8 241.39 10.64
-1 -2 -8 241.69 13.9
-1 -2 -8 228.39 11.78
-1 -2 -7 16.4 3.19
-1 -2 -7 20.16 3.14
-1 -2 -7 18.72 3.69
-1 -2 -7 17.75 2.52
-1 -2 -6 331.92 11.8
-1 -2 -6 320.03 10.81
-1 -2 -6 323.32 14.88
-1 -2 -6 327.31 13.99
-1 -2 -5 198.33 7.38
-1 -2 -5 185.43 8.35
-1 -2 -5 199.65 11.06
-1 -2 -4 1.43 1.34
-1 -2 -4 2 0.99
-1 -2 -4 1.26 0.67
-1 -2 -3 167.72 5.43
-1 -2 -3 162.81 6.72
-1 -2 -2 1389.03 28.83
-1 -2 -1 135.24 5.5
-1 -2 -1 145.19 4.69
-1 -2 -1 149.21 6.58
-1 -2 0 575.85 13.99
-1 -2 0 587.64 16.08
-1 -2 1 98.99 5.01
-1 -2 1 107.21 4.91
-1 -2 1 103.81 6.18
-1 -2 2 61.4 3.8
-1 -2 2 70.49 4.14
-1 -2 3 96.86 4.81
-1 -2 3 90.83 4.44
-1 -2 3 92.18 4.91
-1 -2 4 1492.76 30.61
-1 -2 4 1585.14 32.82
-1 -2 4 1585.09 31.39
-1 -2 5 770.16 17.84
-1 -2 5 813.93 21.15
-1 -2 5 783.78 19.57
-1 -2 6 36.48 2.85
-1 -2 6 39.68 3.88
-1 -2 6 43.26 4.52
-1 -2 7 1 1.46
-1 -2 7 4.66 1.33
-1 -2 8 17.45 3.39
-1 -2 9 153.9 10.95
-1 -2 10 183.41 13.02
-1 -2 11 139.18 12.07
-1 -2 12 24.44 5.82
-1 -2 13 3.84 3.68
-1 -2 14 1.1 3.07
-1 -2 15 5.27 3.95
-1 -1 -16 -0.99 2.36
-1 -1 -16 0.99 2.21
-1 -1 -15 18.94 4.24
-1 -1 -15 20.65 3.96
-1 -1 -14 8.49 3.31
-1 -1 -14 3.01 2.38
-1 -1 -13 3.65 1.92
-1 -1 -13 1.59 2.09
-1 -1 -12 41.12 4.14
-1 -1 -12 28.12 4.5
-1 -1 -11 146.29 9.69
-1 -1 -10 525.05 19.1
-1 -1 -9 183.32 10.34
-1 -1 -8 162.5 8.56
-1 -1 -8 154.79 10.48
-1 -1 -8 148.45 9.08
-1 -1 -7 45.77 4.08
-1 -1 -7 39.67 5.01
-1 -1 -7 47.7 4.89
-1 -1 -6 1026.61 23.59
-1 -1 -6 990.56 28.24
-1 -1 -6 984.43 26.24
-1 -1 -5 2033.92 39.59
-1 -1 -5 2071.48 40.36
-1 -1 -5 2073.12 40.49
-1 -1 -5 2018.59 45.4
-1 -1 -5 2060.17 43.97
-1 -1 -4 2092.55 38.26
-1 -1 -4 2068.95 44.06
-1 -1 -4 1984.56 43.08
-1 -1 -4 2055.89 39.53
-1 -1 -4 2004.32 39.77
-1 -1 -3 1210.92 23.39
-1 -1 -3 1300.96 25.94
-1 -1 -3 1209.88 25.74
-1 -1 -3 1215.62 28.47
-1 -1 -3 1243.93 24.09
-1 -1 -2 279.92 6.26
-1 -1 -2 285.64 10.11
-1 -1 -2 261.29 8.53
-1 -1 -2 270.88 7.65
-1 -1 -1 16.95 1.78
-1 -1 -1 15.52 1.6
-1 -1 0 205.22 5.87
-1 -1 0 206.53 6.53
-1 -1 0 208.69 7.15
-1 -1 1 345.79 9.41
-1 -1 1 342.15 7.65
-1 -1 1 345.57 8.69
-1 -1 1 327.71 8.51
-1 -1 2 942.26 20.25
-1 -1 2 951.71 19.21
-1 -1 2 991.48 18.41
-1 -1 3 1659.73 32.6
-1 -1 3 1740.19 32.3
-1 -1 3 1709.42 31.56
-1 -1 3 1715.01 32.75
-1 -1 4 235.43 7.7
-1 -1 4 238.41 8.5
-1 -1 4 248.96 8.53
-1 -1 4 260.27 7.89
-1 -1 5 1754.22 35.67
-1 -1 5 1678.61 33
-1 -1 5 1781.65 36.43
-1 -1 5 1714.99 34.48
-1 -1 6 1.95 0.99
-1 -1 6 0.8 1.2
-1 -1 6 0.29 0.95
-1 -1 6 -1.03 1.43
-1 -1 7 16.22 2.78
-1 -1 7 18.21 3.29
-1 -1 7 14.99 2.62
-1 -1 8 244.68 11.3
-1 -1 8 247.22 11.68
-1 -1 8 234.99 12.55
-1 -1 9 210.46 12.64
-1 -1 9 210.45 10.99
-1 -1 10 52.07 5.86
-1 -1 10 50.93 6.56
-1 -1 11 264.03 13.89
-1 -1 11 267.09 16.38
-1 -1 12 47.65 7.62
-1 -1 12 60.32 6.89
-1 -1 13 -1.21 2.8
-1 -1 14 1.72 2.96
-1 -1 15 59.81 9.77
-1 0 -16 29.7 5.21
-1 0 -15 3.21 2.51
-1 0 -14 3.1 1.83
-1 0 -14 10.17 3.14
-1 0 -13 55.87 5.3
-1 0 -13 47.44 5.76
-1 0 -12 157.36 8.31
-1 0 -12 147.82 9.87
-1 0 -11 5.09 1.66
-1 0 -11 5.42 2.56
-1 0 -10 141.84 6.8
-1 0 -10 132.77 8.83
-1 0 -9 170.17 9.64
-1 0 -8 29.61 4.35
-1 0 -8 24.75 2.75
-1 0 -8 29.14 3.83
-1 0 -7 -0.57 1.37
-1 0 -7 3.22 1.41
-1 0 -7 2.49 1.03
-1 0 -7 2.08 1.5
-1 0 -6 1128.19 29.74
-1 0 -6 1164.19 25.74
-1 0 -5 41.04 3.4
-1 0 -5 37.14 3.94
-1 0 -5 41.84 3.96
-1 0 -5 36.4 3.2
-1 0 -4 831.9 18.79
-1 0 -4 852.14 20.16
-1 0 -4 808.6 20.85
-1 0 -4 791.9 21.39
-1 0 -3 388.28 9.83
-1 0 -3 389.37 12.27
-1 0 -3 386.44 12.02
-1 0 -3 381.21 11.62
-1 0 -2 88.42 3.47
-1 0 -2 87.56 4.7
-1 0 -2 93.35 4.85
-1 0 -2 87.43 4.72
-1 0 -1 44.99 3.11
-1 0 1 680.99 14.58
-1 0 1 677.87 14.27
-1 0 1 699.74 12.95
-1 0 1 677.18 15.31
-1 0 2 889.39 18.45
-1 0 2 920.35 18.62
-1 0 3 448.41 11.79
-1 0 3 453.83 9.81
-1 0 3 484.46 11.07
-1 0 3 460.89 11.19
-1 0 4 221.52 7.07
-1 0 4 228.78 8.23
-1 0 4 232.2 8.03
-1 0 4 242.12 7.03
-1 0 5 18.47 1.92
-1 0 5 22.66 2.6
-1 0 5 24.78 2.87
-1 0 5 21.02 2.14
-1 0 6 1070.62 25.46
-1 0 6 1047.77 26.66
-1 0 6 1089.52 24.76
-1 0 7 527.96 18.13
-1 0 7 531.74 16.44
-1 0 7 523.71 16.4
-1 0 8 89.36 7.32
-1 0 8 86.51 6.49
-1 0 8 80.66 3.15
-1 0 8 87.73 6.39
-1 0 9 102.84 7.37
-1 0 9 111.73 8.98
-1 0 9 110.33 8.09
-1 0 10 26.25 4.11
-1 0 10 25 4.54
-1 0 11 35.16 4.94
-1 0 11 43.03 6.46
-1 0 12 80.76 7.8
-1 0 12 75.19 9.01
-1 0 13 24.85 4.61
-1 0 13 25.72 5.62
-1 0 14 23.15 4.67
-1 0 14 32.51 6.75
-1 0 15 10.95 4.5
-1 1 -15 6.82 3.25
-1 1 -14 26.74 4.7
-1 1 -13 89.62 7.82
-1 1 -12 176.33 10.81
-1 1 -12 182.71 9.35
-1 1 -11 109.35 6.59
-1 1 -11 96.78 7.72
-1 1 -10 3.14 1.14
-1 1 -10 5.08 1.93
-1 1 -9 72.74 4.43
-1 1 -9 70.46 4.72
-1 1 -9 73.95 6.25
-1 1 -8 208.8 7.25
-1 1 -8 189.83 9.8
-1 1 -8 198.62 8.42
-1 1 -7 302.62 12.47
-1 1 -7 342.5 8.81
-1 1 -7 294.85 13.44
-1 1 -7 303.36 12.2
-1 1 -7 297.44 11.19
-1 1 -6 976.44 24.32
-1 1 -6 962.99 18.27
-1 1 -6 895.25 25.32
-1 1 -6 950.46 23.66
-1 1 -5 551.51 16.34
-1 1 -5 526.13 17
-1 1 -5 527.27 15.94
-1 1 -5 581.31 16.14
-1 1 -4 114.94 6.46
-1 1 -4 109.88 5.95
-1 1 -4 103.6 6.03
-1 1 -3 620.12 16.27
-1 1 -3 612.74 15.59
-1 1 -3 602.23 16.3
-1 1 -2 406.71 11.29
-1 1 -2 410.71 11.03
-1 1 -1 431.39 8.62
-1 1 -1 412.63 10.48
-1 1 -1 422.99 10.37
-1 1 -1 427.7 8.6
-1 1 0 509.95 10.46
-1 1 0 504.44 12.37
-1 1 0 519.43 10.74
-1 1 0 507.54 9.89
-1 1 1 1516.11 27.27
-1 1 1 1515.82 28.74
-1 1 1 1490.9 28.8
-1 1 2 94.74 4.67
-1 1 2 87.86 3.99
-1 1 2 92.52 3.59
-1 1 2 92.34 4.3
-1 1 3 6.2 1.34
-1 1 4 178.15 5.87
-1 1 4 170.64 7.27
-1 1 5 222.43 8.87
-1 1 5 223.15 9.08
-1 1 5 222.42 7.8
-1 1 6 36.61 4.03
-1 1 6 33.35 3.54
-1 1 6 37.03 3.42
-1 1 7 369.86 13.25
-1 1 7 347.19 12.72
-1 1 7 345.65 14.16
-1 1 8 210.48 10.15
-1 1 8 199.49 11.26
-1 1 8 209.16 10.31
-1 1 9 49.53 5.14
-1 1 9 44.85 5.64
-1 1 9 42.95 5.12
-1 1 10 3.47 1.72
-1 1 10 6.29 2.73
-1 1 10 4.14 2.02
-1 1 10 5 1.44
-1 1 11 272.37 16.16
-1 1 11 275.37 13.9
-1 1 11 297.33 9.9
-1 1 12 33.88 5.06
-1 1 12 26.05 5.36
-1 1 13 81.34 8.17
-1 1 13 80.38 9.84
-1 1 14 23.1 4.71
-1 1 14 25.52 6.03
-1 1 15 17.5 4.7
-1 1 15 23.74 6.36
-1 2 -14 9.56 3.47
-1 2 -13 17.72 3.93
-1 2 -12 11.81 3.27
-1 2 -11 11.6 2.35
-1 2 -11 9.46 2.85
-1 2 -10 28.78 3.22
-1 2 -10 23.26 3.91
-1 2 -9 76.25 6.37
-1 2 -9 82.4 5.55
-1 2 -9 85.76 5.04
-1 2 -8 659.11 20.49
-1 2 -8 672.06 19.83
-1 2 -8 699.43 16.44
-1 2 -7 79.42 3.88
-1 2 -7 83.95 5.99
-1 2 -7 78 5.89
-1 2 -6 64.06 2.99
-1 2 -6 54.89 5.2
-1 2 -6 57.92 4.77
-1 2 -6 59.92 5.14
-1 2 -6 68.71 5.55
-1 2 -5 0.95 0.42
-1 2 -5 2.6 1.53
-1 2 -5 0.43 0.97
-1 2 -5 1.3 1.06
-1 2 -4 781.75 18.82
-1 2 -4 769.96 19.37
-1 2 -4 774.71 20.64
-1 2 -3 888.88 19.83
-1 2 -3 882.37 21.63
-1 2 -3 923.11 20.58
-1 2 -2 799.22 17.1
-1 2 -2 774.11 17.73
-1 2 -1 1925.32 34.55
-1 2 -1 1904.98 35.07
-1 2 -1 1855.75 34.91
-1 2 0 1268.18 28.01
-1 2 0 1349.4 24.55
-1 2 0 1291.68 25.3
-1 2 1 6.92 1.49
-1 2 1 8.78 1.27
-1 2 2 1376.32 28.6
-1 2 2 1353.83 27.87
-1 2 2 1394.16 27.4
-1 2 3 524.08 13
-1 2 3 502.52 13.73
-1 2 3 508.65 14.83
-1 2 3 487.07 13.35
-1 2 4 1018.2 24.61
-1 2 4 1046.15 22.98
-1 2 5 2054.82 40.67
-1 2 5 2007 41.88
-1 2 6 402.58 13.3
-1 2 6 374.43 13.43
-1 2 7 18.94 2.87
-1 2 7 16.76 2.82
-1 2 8 52.35 5.13
-1 2 9 86.78 7.01
-1 2 10 463.48 17.77
-1 2 11 14.04 3.29
-1 2 12 127.54 7.56
-1 2 12 109.58 9.03
-1 2 13 0.79 1.97
-1 2 14 8.43 3.5
-1 2 15 9.68 3.48
-1 3 -13 0.52 2.58
-1 3 -12 16.49 4.31
-1 3 -12 14.76 3.68
-1 3 -11 124.6 9.16
-1 3 -11 125.92 10.18
-1 3 -10 50 6.13
-1 3 -10 55.22 5.9
-1 3 -9 309.17 9.54
-1 3 -9 295.78 14.31
-1 3 -9 297.54 13.62
-1 3 -8 365.32 9.61
-1 3 -8 371.52 15.53
-1 3 -8 359.7 14.49
-1 3 -8 367.3 14.68
-1 3 -7 14.19 2.85
-1 3 -7 15.78 3
-1 3 -7 12.93 2.79
-1 3 -6 46.55 4.65
-1 3 -6 49.72 5.03
-1 3 -5 175.62 8.45
-1 3 -5 170.15 8.25
-1 3 -4 288.85 10.68
-1 3 -4 314.7 11.05
-1 3 -3 437.74 13.12
-1 3 -3 456.4 13.25
-1 3 -2 31.94 2.91
-1 3 -2 32.62 2.92
-1 3 -1 0.67 0.72
-1 3 -1 1.27 0.76
-1 3 -1 0.58 1.1
-1 3 0 168.14 8.32
-1 3 0 183.36 7.41
-1 3 1 42.28 3.38
-1 3 1 40.15 3.77
-1 3 2 133.12 6.98
-1 3 2 134.52 6.5
-1 3 3 147.97 7.44
-1 3 3 164.1 7.45
-1 3 3 158.55 6.96
-1 3 4 3.77 1.38
-1 3 4 3.62 1.3
-1 3 4 4.45 1.43
-1 3 4 2.79 1.11
-1 3 5 202.41 9.72
-1 3 5 204.58 8.65
-1 3 5 206.44 9.27
-1 3 6 43.8 4.43
-1 3 6 44.12 4.58
-1 3 6 45.17 4.45
-1 3 7 72.66 6.08
-1 3 7 69.11 5.83
-1 3 8 4.54 1.74
-1 3 9 113.08 8.13
-1 3 10 310.46 14.61
-1 3 11 0.51 1.72
-1 3 12 50.71 6.19
-1 3 13 7.34 2.53
-1 3 14 -0.28 1.93
-1 3 15 34.48 5.89
-1 4 -12 54.22 7.38
-1 4 -11 62.2 7.45
-1 4 -10 70.1 7.69
-1 4 -9 18.61 4.05
-1 4 -8 18.52 3.57
-1 4 -7 148.68 9.41
-1 4 -7 144.96 9.67
-1 4 -6 162.1 9.39
-1 4 -5 473.6 16.34
-1 4 -4 390.57 14.01
-1 4 -3 56.01 4.65
-1 4 -2 135.34 7
-1 4 -1 2.89 1.18
-1 4 -1 1.63 0.83
-1 4 -1 1.7 1.28
-1 4 0 533.57 17.94
-1 4 0 552.99 16.82
-1 4 1 209.71 9.46
-1 4 1 213.07 10.25
-1 4 2 961.63 24.49
-1 4 2 931.53 25.01
-1 4 3 122.94 7.33
-1 4 3 131.38 7.7
-1 4 4 24.81 3.7
-1 4 4 30.46 3.8
-1 4 4 26.29 3.54
-1 4 5 1.39 1.58
-1 4 5 1.8 0.98
-1 4 5 1.68 1.48
-1 4 6 264.65 10.88
-1 4 6 254.42 12.18
-1 4 6 281.43 12.49
-1 4 7 225.12 11.53
-1 4 7 230.69 10.37
-1 4 8 257.69 12.67
-1 4 9 105.53 8.26
-1 4 10 21.66 3.98
-1 4 11 5.11 2.88
-1 4 12 82.93 8.15
-1 4 13 14.53 4.11
-1 4 14 21.9 4.67
-1 5 -11 9.07 3.54
-1 5 -10 5.76 3.44
-1 5 -9 31.86 5.28
-1 5 -8 99.14 8.59
-1 5 -7 209.99 12.23
-1 5 -6 138.06 9.44
-1 5 -5 1.6 1.6
-1 5 -4 86.57 6.65
-1 5 -3 110.09 7.21
-1 5 -3 85.43 7.9
-1 5 -2 296.74 12.07
-1 5 -2 272.67 13.88
-1 5 -1 600.7 21.3
-1 5 -1 611.95 20.01
-1 5 0 322.2 14.44
-1 5 0 337.47 14
-1 5 1 74.66 6.33
-1 5 1 71.91 6.38
-1 5 2 7.86 2.39
-1 5 2 4.74 1.98
-1 5 3 8.81 2.22
-1 5 3 8.9 2.57
-1 5 4 133.97 8.53
-1 5 4 144.95 9.21
-1 5 5 91.69 7.19
-1 5 5 92.52 7.59
-1 5 6 580.62 21.27
-1 5 6 621.74 18.61
-1 5 7 132.23 9.34
-1 5 7 135.89 8.1
-1 5 8 17.06 3.59
-1 5 8 12.69 2.73
-1 5 9 6.74 2.68
-1 5 10 6.66 2.56
-1 5 11 76.36 7.81
-1 5 12 17.78 4.07
-1 5 13 71.38 8
-1 5 14 8.7 3.47
-1 6 -10 6.7 3.56
-1 6 -9 156.64 12.3
-1 6 -8 82.49 8.66
-1 6 -7 127.23 10.24
-1 6 -6 19.63 4.1
-1 6 -5 4.25 2.31
-1 6 -4 85.72 7.31
-1 6 -4 63.95 7.52
-1 6 -3 16.08 3.18
-1 6 -3 13.12 3.64
-1 6 -2 260.81 14.63
-1 6 -1 125.85 9.66
-1 6 -1 129.74 9.33
-1 6 0 112.18 8.76
-1 6 0 105.22 8.72
-1 6 1 0.31 1.3
-1 6 1 0.34 1.74
-1 6 2 15.18 3.23
-1 6 2 7.9 2.47
-1 6 3 7.15 2.62
-1 6 4 95.81 7.81
-1 6 5 91.79 8.13
-1 6 5 81.61 7.35
-1 6 6 9.75 2.68
-1 6 7 233.23 13.5
-1 6 8 57.54 6.7
-1 6 8 60.37 5.69
-1 6 9 47.34 6.19
-1 6 10 34.98 5.58
-1 6 11 7.9 3.1
-1 6 12 1.52 1.67
-1 6 13 5.06 2.85
-1 6 14 -0.44 2.21
-1 7 -9 25.08 5.64
-1 7 -8 26.48 5.46
-1 7 -7 3.69 2.83
-1 7 -7 2.83 3.4
-1 7 -6 9.59 4.07
-1 7 -6 3.96 2.48
-1 7 -5 88.41 8.34
-1 7 -5 69.68 8.58
-1 7 -4 144.51 10.33
-1 7 -4 139.72 11.99
-1 7 -3 142.27 11.73
-1 7 -2 15.01 3.98
-1 7 -1 15.88 4.2
-1 7 0 57.06 6.95
-1 7 1 107.5 9.29
-1 7 2 294.25 15.53
-1 7 3 16.22 3.77
-1 7 4 126.62 9.79
-1 7 5 3.28 2.54
-1 7 5 -3.49 2.49
-1 7 6 2.12 2.11
-1 7 6 5.38 2.69
-1 7 7 33.49 5.52
-1 7 8 15.91 4.14
-1 7 9 170.05 12.28
-1 7 10 8.75 3.42
-1 7 11 14 4.17
-1 7 12 2.47 2.31
-1 7 13 0.88 2.62
-1 8 -5 57.37 7.18
-1 8 -4 23.69 5.58
-1 8 -3 16.84 4.72
-1 8 -2 1.06 2.64
-1 8 -1 50.88 7.36
-1 8 0 67.5 8.11
-1 8 1 70.41 8.3
-1 8 2 42 6.17
-1 8 3 60.73 7.49
-1 8 4 1.41 2.57
-1 8 5 5.99 3.15
-1 8 5 2.6 2.75
-1 8 6 38.21 6.18
-1 8 6 58.45 7.31
-1 8 7 30.53 5.75
-1 8 8 58.97 7.62
-1 8 9 26.57 5.46
-1 8 10 -0.06 1.98
-1 8 11 5.33 3.16
-1 9 0 71.72 8.94
-1 9 1 5.5 3.14
-1 9 2 4.08 3.13
-1 9 3 6.23 3.39
-1 9 4 6.73 3.94
-1 9 5 33.97 6.32
-1 9 5 29.39 5.73
-1 9 6 5.45 2.94
-1 9 6 4.01 2.81
-1 9 7 0.52 2.51
-1 9 8 17.23 4.34
-1 9 9 5.05 3.37
0 -10 -5 4.94 3.2
0 -10 -4 19.41 4.66
0 -10 -3 39.12 6.2
0 -10 -2 53.3 7.16
0 -10 -1 10.33 3.93
0 -9 -11 8.99 3.44
0 -9 -10 14.91 3.97
0 -9 -9 6.98 2.9
0 -9 -8 4.74 2.41
0 -9 -7 2.8 1.81
0 -9 -6 10.52 3.17
0 -9 -6 20.88 4.41
0 -9 -5 23.07 4.79
0 -9 -4 69.25 7.76
0 -9 -3 19.42 4.49
0 -9 -2 15.68 4.01
0 -9 -1 -0.89 2.49
0 -9 0 19.65 4.43
0 -9 1 38.09 5.94
0 -9 1 39.11 6.78
0 -9 2 24.6 4.98
0 -8 -11 22.65 4.72
0 -8 -10 17.67 4.17
0 -8 -9 3.55 2.15
0 -8 -8 1.43 1.84
0 -8 -7 73.85 7.34
0 -8 -6 105.24 8.77
0 -8 -6 117.13 9.54
0 -8 -5 123.29 9.64
0 -8 -4 169.61 11.41
0 -8 -3 10.99 2.15
0 -8 -3 10.68 3.56
0 -8 -2 48.11 4.52
0 -8 -2 49.2 6.34
0 -8 -1 71.12 7.47
0 -8 0 99.25 9
0 -8 1 118.68 9.97
0 -8 2 25.55 5.38
0 -8 2 19.14 4.41
0 -8 3 5.19 3.29
0 -8 3 9.04 4.21
0 -8 4 6.22 3.95
0 -8 4 3.99 3.02
0 -7 -11 2.72 2.78
0 -7 -10 9.84 3.01
0 -7 -9 13.01 3.5
0 -7 -8 82.55 7.45
0 -7 -7 11.46 3.16
0 -7 -6 -0.04 2.16
0 -7 -6 3.07 2.4
0 -7 -5 28.38 4.5
0 -7 -4 10.08 2.96
0 -7 -3 58.47 6.32
0 -7 -3 66.44 4.7
0 -7 -2 191.02 8.58
0 -7 -2 193.26 11.61
0 -7 -1 45.23 5.6
0 -7 0 51.46 6.15
0 -7 1 7.5 3.01
0 -7 2 13.5 3.6
0 -7 2 20.06 4.34
0 -7 3 1.34 1.86
0 -7 3 1.78 2.36
0 -7 4 103.15 9.9
0 -7 4 102.6 9.44
0 -7 5 229.33 15.34
0 -7 5 202.24 13.83
0 -7 6 105.48 11
0 -7 6 81.55 9.08
0 -7 7 24.14 5.59
0 -7 7 30.07 6.38
0 -6 -14 19.44 4.38
0 -6 -12 3.65 2.07
0 -6 -11 32.64 4.99
0 -6 -10 75.21 7.12
0 -6 -9 56.25 6
0 -6 -8 385.39 15.9
0 -6 -7 7.1 2.34
0 -6 -6 9.68 2.67
0 -6 -5 65.83 6.17
0 -6 -4 165.57 9.83
0 -6 -3 558.85 19.67
0 -6 -3 578.35 15.19
0 -6 -2 321.82 14.3
0 -6 -2 309.72 10.63
0 -6 -1 58.28 5.85
0 -6 0 15.72 3.29
0 -6 1 54.08 5.97
0 -6 2 369.56 16.62
0 -6 2 373.31 11.58
0 -6 3 106.51 4.71
0 -6 3 116.77 9.18
0 -6 3 102.31 8.78
0 -6 4 53.95 6.64
0 -6 4 61.1 6.96
0 -6 5 197.66 13.11
0 -6 5 158.1 11.95
0 -6 6 53.15 7.22
0 -6 6 60.13 7.78
0 -6 7 4.82 3.01
0 -6 7 4.18 3.21
0 -6 8 35.56 6.47
0 -6 8 28.15 6.34
0 -6 9 65.32 8.9
0 -6 9 72.45 9.9
0 -5 -15 13.87 4.36
0 -5 -14 14.3 3.98
0 -5 -13 95.03 7.72
0 -5 -13 69.75 6.74
0 -5 -12 135.03 9.32
0 -5 -11 10.05 2.91
0 -5 -10 44.17 5.39
0 -5 -9 22.12 3.69
0 -5 -8 10.65 2.65
0 -5 -7 2.93 1.65
0 -5 -6 357 14.3
0 -5 -5 384.49 14.56
0 -5 -4 163.03 9.39
0 -5 -4 168.6 9.16
0 -5 -3 293.39 12.93
0 -5 -3 291.36 9.08
0 -5 -3 281.9 12.26
0 -5 -2 14.92 2.5
0 -5 -2 18.14 3.2
0 -5 -2 16.75 1.99
0 -5 -2 15.26 2.87
0 -5 -1 31.33 3.53
0 -5 -1 24.31 3.45
0 -5 0 178.8 8.76
0 -5 0 186.54 8.1
0 -5 0 177.24 9.8
0 -5 1 466.15 15.49
0 -5 1 460.97 17.24
0 -5 2 354.33 13.35
0 -5 2 337.87 14.87
0 -5 2 352.3 10.49
0 -5 3 347.55 9.39
0 -5 3 363.55 15.12
0 -5 4 0.23 1.4
0 -5 4 1.65 0.49
0 -5 5 14.12 3.59
0 -5 5 19.29 4.01
0 -5 6 71.84 7.98
0 -5 6 74.09 7.97
0 -5 7 25.88 5.18
0 -5 7 29.21 5.41
0 -5 8 162.57 13.25
0 -5 8 138.03 12.09
0 -5 9 76.37 9.43
0 -5 9 78.66 9.84
0 -5 10 34.13 6.91
0 -5 10 35.06 6.33
0 -5 11 0.06 3.22
0 -5 11 5.11 4.43
0 -4 -15 19.16 4.45
0 -4 -14 5.52 2.06
0 -4 -14 12.15 3.68
0 -4 -13 22.26 3.8
0 -4 -13 37.37 5.09
0 -4 -12 90.03 7
0 -4 -12 65.62 6.31
0 -4 -11 6.14 2.41
0 -4 -10 78.92 6.75
0 -4 -9 5.48 2.81
0 -4 -9 5.27 2.25
0 -4 -8 8.36 3.04
0 -4 -8 16.31 3
0 -4 -7 19.12 3.14
0 -4 -7 15.53 2.99
0 -4 -7 14.23 3.46
0 -4 -6 134.72 7.73
0 -4 -6 144.06 8.33
0 -4 -5 298.66 12.01
0 -4 -5 321.22 12.56
0 -4 -4 283.41 11.39
0 -4 -4 256.26 10.63
0 -4 -3 39.7 4.01
0 -4 -3 35.46 3.78
0 -4 -2 333.08 11.58
0 -4 -2 361.17 13.12
0 -4 -2 345.58 12.58
0 -4 -2 367.48 9.74
0 -4 -1 133.64 6.7
0 -4 -1 135.34 7.58
0 -4 -1 134.09 7.38
0 -4 0 150.29 7.19
0 -4 0 151.86 8.14
0 -4 1 498.42 14.59
0 -4 1 473.36 13.53
0 -4 1 461.41 15.97
0 -4 2 98.81 5.99
0 -4 2 103.8 5.8
0 -4 2 95.99 6.95
0 -4 2 97.6 4.54
0 -4 3 22.89 1.84
0 -4 3 19.01 3.37
0 -4 3 27.99 3.67
0 -4 3 23.54 2.96
0 -4 4 133.88 4.13
0 -4 4 152.05 9.14
0 -4 4 132.81 9.33
0 -4 5 507.34 18.8
0 -4 5 447.67 18.86
0 -4 6 195.4 12.66
0 -4 6 229.26 13.01
0 -4 7 16.06 3.88
0 -4 8 116.35 10.56
0 -4 9 60.55 8.2
0 -4 10 0.56 3.41
0 -4 11 121.31 12.75
0 -4 12 80.3 11.18
0 -3 -16 27.5 5.34
0 -3 -15 53.22 6.55
0 -3 -15 53.36 5.97
0 -3 -14 70.15 7.03
0 -3 -14 58.92 6.05
0 -3 -13 105.12 7.9
0 -3 -13 83.38 7.11
0 -3 -12 12.53 3.2
0 -3 -12 6.37 2.24
0 -3 -11 115.6 7.95
0 -3 -11 141.1 8.02
0 -3 -10 56.97 5.35
0 -3 -9 237.25 14.1
0 -3 -9 230.82 11.03
0 -3 -8 109.85 7.68
0 -3 -8 98.14 8.51
0 -3 -8 95.87 6.74
0 -3 -7 1091.93 28.22
0 -3 -7 1049.41 31.87
0 -3 -7 1002.57 27.28
0 -3 -7 1133.92 27.04
0 -3 -6 197.21 8.94
0 -3 -6 197.66 9.49
0 -3 -6 195.2 11.27
0 -3 -5 82.44 5.35
0 -3 -5 78.48 5.32
0 -3 -5 78.89 5.52
0 -3 -4 910.82 22.54
0 -3 -4 957 22.8
0 -3 -3 515.26 14.64
0 -3 -3 494.21 14.37
0 -3 -2 862.34 20.65
0 -3 -2 825.68 20.35
0 -3 -2 840.24 17.05
0 -3 -1 1289.85 27.4
0 -3 -1 1369.26 29.14
0 -3 -1 1319.81 28.67
0 -3 0 604.99 15.24
0 -3 0 599.83 16.45
0 -3 1 803.99 18.85
0 -3 1 800.14 17.96
0 -3 1 791.43 20.76
0 -3 2 60.76 3.02
0 -3 2 63.89 4.24
0 -3 2 66.22 4.09
0 -3 2 60.91 4.98
0 -3 3 433.35 9.79
0 -3 3 469.82 14.8
0 -3 3 440.66 13.14
0 -3 3 449.45 15.79
0 -3 4 275.45 6.54
0 -3 4 285.2 11.92
0 -3 4 279.64 10.69
0 -3 5 392.3 14.2
0 -3 5 389.19 15.25
0 -3 6 324.01 14.84
0 -3 7 170.04 11.2
0 -3 8 58.43 7.04
0 -3 9 1.87 2.22
0 -3 10 36.03 6.33
0 -3 11 126.06 12.57
0 -3 12 112.03 12.45
0 -3 13 77.16 10.85
0 -2 -17 0.54 3.43
0 -2 -16 15.77 4.04
0 -2 -16 22.67 4.11
0 -2 -15 31.88 4.71
0 -2 -15 32.32 5.05
0 -2 -14 9.51 3.26
0 -2 -14 11.25 3.19
0 -2 -13 3.29 2.24
0 -2 -13 2.28 2.07
0 -2 -12 29.53 4.2
0 -2 -12 31.84 4.25
0 -2 -11 113.67 7.21
0 -2 -11 89.76 6.9
0 -2 -10 78.35 5.59
0 -2 -10 60.05 6.82
0 -2 -10 65.48 5.6
0 -2 -9 72.28 7.08
0 -2 -9 61.87 5.27
0 -2 -8 425.3 15.53
0 -2 -8 458.01 18.52
0 -2 -8 429.56 14.82
0 -2 -7 7.52 1.85
0 -2 -7 4.59 1.99
0 -2 -7 7.66 2.02
0 -2 -6 424.69 13.84
0 -2 -6 420.48 16.08
0 -2 -6 400.57 13.51
0 -2 -5 106.16 5.56
0 -2 -5 96.42 5.62
0 -2 -5 96.57 6.94
0 -2 -5 95.08 5.84
0 -2 -4 512.94 13.71
0 -2 -4 520.69 14.35
0 -2 -3 1300.13 27.22
0 -2 -3 1359.35 27.24
0 -2 -3 1324.28 27.4
0 -2 -2 1719.57 33.13
0 -2 -2 1723.05 33.12
0 -2 -1 698.61 15.95
0 -2 -1 700.52 16.08
0 -2 0 186.91 6.12
0 -2 0 189.42 6.87
0 -2 1 109.27 4.59
0 -2 1 107.54 4.23
0 -2 1 106.39 5.31
0 -2 2 1464.98 26.16
0 -2 2 1496.24 29.97
0 -2 2 1450.24 28.5
0 -2 2 1455.31 31.41
0 -2 3 315.62 7.04
0 -2 3 322.53 10.75
0 -2 3 308.63 9.78
0 -2 4 2192.34 38.06
0 -2 4 2264.55 45.48
0 -2 4 2236.67 43.86
0 -2 5 2.08 1.4
0 -2 5 2.44 1.04
0 -2 6 2.73 1.76
0 -2 6 4.74 1.67
0 -2 7 267.86 13.62
0 -2 8 34.09 5.12
0 -2 9 138.02 11
0 -2 10 175.8 13.3
0 -2 11 32.06 6.22
0 -2 12 5.22 2.97
0 -2 13 6.14 3.78
0 -2 14 45.61 8.72
0 -2 15 7.17 5.39
0 -1 -17 41.27 5.65
0 -1 -16 28.29 5.08
0 -1 -16 35.54 5.14
0 -1 -15 -0.55 3.04
0 -1 -15 6.56 2.61
0 -1 -14 1.34 2.13
0 -1 -14 1.62 2.15
0 -1 -13 63.11 6.36
0 -1 -13 51.55 5.47
0 -1 -12 24.35 3.75
0 -1 -12 19.97 3.68
0 -1 -11 703.29 20.59
0 -1 -11 681.16 20.98
0 -1 -10 154.85 7.92
0 -1 -10 147.01 8.41
0 -1 -9 73.79 5.06
0 -1 -9 68.27 6.6
0 -1 -9 70.71 5.48
0 -1 -8 182.58 7.46
0 -1 -8 163.3 9.09
0 -1 -8 165.22 10
0 -1 -8 171.98 8.48
0 -1 -7 30.63 4.11
0 -1 -7 26.86 3.07
0 -1 -7 21.63 3.05
0 -1 -6 11.89 2.56
0 -1 -6 9.98 1.75
0 -1 -6 14.29 2.25
0 -1 -5 127.18 6.22
0 -1 -5 129.67 7.38
0 -1 -5 128.28 6.2
0 -1 -4 684.97 16.21
0 -1 -4 642.9 18.13
0 -1 -4 681.44 16.3
0 -1 -3 3.62 0.84
0 -1 -3 5.21 1.31
0 -1 -3 3.82 0.9
0 -1 -3 4.49 0.89
0 -1 -2 706.62 14.87
0 -1 -2 737.2 15.07
0 -1 1 152.26 4.55
0 -1 2 8.21 0.68
0 -1 2 10.86 1.4
0 -1 2 9.8 1.17
0 -1 3 529.02 10.36
0 -1 3 541.74 14.07
0 -1 3 539.12 13.3
0 -1 4 61.07 4.5
0 -1 4 65.17 4.22
0 -1 5 14 2.52
0 -1 5 16.38 2.44
0 -1 6 60.98 5.62
0 -1 6 65.64 5.34
0 -1 7 91.08 7.48
0 -1 7 88.1 6.81
0 -1 8 441.81 18.65
0 -1 9 238.08 14.22
0 -1 10 53.03 7.13
0 -1 11 2.21 2.94
0 -1 12 0.24 2.47
0 -1 13 88.62 11.06
0 -1 14 72.59 10.59
0 -1 15 159.59 16.07
0 0 -16 21.37 4.47
0 0 -15 13.99 3.9
0 0 -15 13.31 3.4
0 0 -14 104.03 8.51
0 0 -14 96.66 7.86
0 0 -13 60.18 6.25
0 0 -13 59.92 5.91
0 0 -12 9.37 2.67
0 0 -12 15.51 3.07
0 0 -11 16.74 2.84
0 0 -11 18.59 3.26
0 0 -10 213.69 9.82
0 0 -10 205.49 10.04
0 0 -9 68.49 4.93
0 0 -9 69.91 6.56
0 0 -9 67.02 5.41
0 0 -8 325.67 10.8
0 0 -8 305.68 13.6
0 0 -8 307.62 11.7
0 0 -7 981.64 21.69
0 0 -7 976.15 24.98
0 0 -7 969.56 26.14
0 0 -7 935.56 23.28
0 0 -6 486.88 12.3
0 0 -6 491.72 14.9
0 0 -6 479.55 15.8
0 0 -6 466.47 13.85
0 0 -5 969.61 22.46
0 0 -5 958.21 23.73
0 0 -5 913.16 21.62
0 0 -4 112.04 3.98
0 0 -4 108.8 5.13
0 0 -4 99.69 5.52
0 0 -4 105.5 4.94
0 0 -3 203.35 6.46
0 0 -3 192.52 7.04
0 0 -3 194.22 6.29
0 0 3 207.13 6.57
0 0 3 211.87 7.63
0 0 3 202.85 6.93
0 0 4 113.19 5.16
0 0 4 107.67 5.99
0 0 4 118.38 5.69
0 0 4 104.55 3.7
0 0 5 923.93 21.72
0 0 5 958.61 24.37
0 0 5 968.74 23.18
0 0 5 925.65 18.72
0 0 6 449.74 14.08
0 0 6 472.7 16.77
0 0 6 461.56 15.45
0 0 6 473.96 11.37
0 0 7 952.56 24.63
0 0 7 964.36 28.27
0 0 7 972.04 26.72
0 0 7 997.64 20.76
0 0 8 317.19 12.63
0 0 8 292.36 15.06
0 0 8 299.42 14.02
0 0 8 342.02 9.72
0 0 9 66.28 6.03
0 0 9 60.91 7.28
0 0 9 58.08 6.39
0 0 9 67.31 3.88
0 0 10 193.25 13.55
0 0 10 212.61 7.16
0 0 10 188.13 10.79
0 0 11 11.81 3.28
0 0 11 16.1 4.43
0 0 12 17.3 3.88
0 0 12 20.05 5.24
0 0 13 54.77 6.84
0 0 13 54.42 8.47
0 0 14 92.67 11.52
0 0 15 15.79 5.52
0 0 16 13.13 5.76
0 1 -15 141.57 10.32
0 1 -14 80.07 7.38
0 1 -13 90.85 7.9
0 1 -13 87.14 7.4
0 1 -12 5.45 2.8
0 1 -12 1.19 2.05
0 1 -11 6.4 2.43
0 1 -11 1.93 1.92
0 1 -10 54.68 4.93
0 1 -10 55.62 5.18
0 1 -9 250.67 10.26
0 1 -9 221.13 10.29
0 1 -8 453.85 13.82
0 1 -8 424.94 16.21
0 1 -8 426.54 14.38
0 1 -7 98.5 5.31
0 1 -7 93.41 6.42
0 1 -7 94.23 6.65
0 1 -7 92.15 5.78
0 1 -6 63.21 3.8
0 1 -6 67.34 5.02
0 1 -6 64.75 5.08
0 1 -6 68.65 4.56
0 1 -6 58.8 2.51
0 1 -5 18.79 1.85
0 1 -5 15.58 1.32
0 1 -5 15.87 2.4
0 1 -5 17.1 2.4
0 1 -5 17.94 2.23
0 1 -4 57.37 3.88
0 1 -4 65.08 3.14
0 1 -4 59.55 4.11
0 1 -4 71.57 3.97
0 1 -4 64.14 2.96
0 1 -3 564.29 13.63
0 1 -3 573.68 11.6
0 1 -3 513.22 13.53
0 1 -3 522.18 12.73
0 1 -2 8.82 0.84
0 1 -2 8.93 1.23
0 1 -2 10.06 1.15
0 1 2 697.43 14.72
0 1 2 719.11 15.21
0 1 2 730.01 14.94
0 1 3 4.1 0.94
0 1 3 5.19 1.28
0 1 3 4.02 0.9
0 1 4 660.27 16.09
0 1 4 714.93 16.7
0 1 4 688.51 18.7
0 1 5 123.25 5.93
0 1 5 127.24 6.24
0 1 5 129.45 7.49
0 1 5 119.37 6.83
0 1 6 11.92 2.33
0 1 6 12.19 2.15
0 1 6 17.1 3.05
0 1 6 11.93 1.99
0 1 7 27.11 3.34
0 1 7 30.51 2.86
0 1 7 26.9 3.19
0 1 7 30.27 4.24
0 1 7 26.79 3.73
0 1 8 162.32 8.96
0 1 8 166.49 8.67
0 1 8 160.69 10.77
0 1 8 161.13 10.21
0 1 8 174.32 7.43
0 1 9 63.02 5.66
0 1 9 62.34 7.08
0 1 9 65.83 6.87
0 1 9 67.75 4.61
0 1 10 142.22 9.01
0 1 10 153.2 11.83
0 1 10 154.72 11.4
0 1 10 144.66 7.19
0 1 11 646.39 22.6
0 1 11 637.55 27.04
0 1 11 717.33 19.1
0 1 12 24.82 4.33
0 1 12 18.66 5.19
0 1 12 24.26 3.09
0 1 13 51.76 6.57
0 1 13 60.05 8.96
0 1 14 1.37 2.47
0 1 14 -0.58 2.87
0 1 15 5.34 3.22
0 1 15 2.83 2.87
0 1 16 26.51 7.17
0 1 17 22.35 7.39
0 2 -13 9.92 3.22
0 2 -12 9.95 2.79
0 2 -12 6.73 2.83
0 2 -11 33.88 4.36
0 2 -11 24.89 4.14
0 2 -10 188.39 9.75
0 2 -10 174.88 9.85
0 2 -9 166.1 8.42
0 2 -9 141.64 8.5
0 2 -8 32.9 3.47
0 2 -8 38.93 4.23
0 2 -7 279.57 10.01
0 2 -7 292.26 11.32
0 2 -7 284.4 8.05
0 2 -6 3.48 1.06
0 2 -6 4.35 1.73
0 2 -6 3.45 1.57
0 2 -6 4.29 1.55
0 2 -6 3.08 0.96
0 2 -5 3.18 1
0 2 -5 3 1.32
0 2 -5 3.26 1.36
0 2 -5 1.61 0.62
0 2 -4 2235.58 39.9
0 2 -4 2162.47 42.89
0 2 -4 2234.53 43.55
0 2 -3 326.72 8.17
0 2 -3 303.64 9.99
0 2 -3 325.97 9.64
0 2 -2 1398.41 28.13
0 2 -1 105.84 5.29
0 2 -1 102.93 4.56
0 2 0 191.12 6.23
0 2 0 186.24 6.73
0 2 0 195.18 7.09
0 2 1 673.36 15.87
0 2 1 669.66 15.36
0 2 2 1671.62 32.69
0 2 2 1715.97 30.57
0 2 2 1781.47 33.88
0 2 3 1317.85 27.15
0 2 3 1352.23 27.78
0 2 4 536.17 14.12
0 2 4 527.2 14.38
0 2 5 104.49 5.57
0 2 5 103.05 6.11
0 2 6 387.72 12.92
0 2 6 444.01 14.72
0 2 7 8.15 2.02
0 2 7 10.69 2.17
0 2 8 437 14.99
0 2 8 435.13 16.32
0 2 8 404.03 18.05
0 2 9 66.38 5.69
0 2 9 61.17 7.27
0 2 9 79.06 5.7
0 2 10 63.49 7.7
0 2 10 66.66 6.04
0 2 10 74.67 5.78
0 2 11 92.15 7.49
0 2 11 80.86 9.19
0 2 11 93.01 6.79
0 2 12 23.68 4.24
0 2 12 25.17 5.85
0 2 12 24.17 3.5
0 2 13 1.69 1.9
0 2 13 0.84 2.5
0 2 14 11.77 3.45
0 2 14 8.05 4.16
0 2 15 26.62 5.17
0 2 15 33.31 7.27
0 2 16 13.88 4.84
0 3 -13 82.95 9.36
0 3 -12 98.81 9.71
0 3 -11 118.7 10.16
0 3 -10 44.29 4.65
0 3 -10 39.89 5.86
0 3 -9 5.36 1.95
0 3 -9 6.17 2.84
0 3 -8 58.67 4.54
0 3 -8 59.49 6.1
0 3 -8 61.31 3.94
0 3 -7 159.02 7.19
0 3 -7 162.71 9.62
0 3 -7 152.6 7.14
0 3 -6 316.75 10.09
0 3 -6 317.22 12.91
0 3 -5 364.6 13.4
0 3 -5 376.67 13.85
0 3 -4 270.57 10.68
0 3 -3 454.86 13.93
0 3 -2 62.79 4.35
0 3 -1 800.09 19.08
0 3 -1 793.13 20.92
0 3 0 588.45 16.34
0 3 0 598.79 15.34
0 3 0 627.04 17.24
0 3 1 1347.66 29.4
0 3 1 1285.91 28.22
0 3 2 837.31 20.2
0 3 2 866.81 21.36
0 3 3 494.43 14.19
0 3 3 486.23 14.3
0 3 3 527.06 15.44
0 3 3 512.87 11.81
0 3 4 935.41 23.05
0 3 4 978.93 24.24
0 3 4 989.21 20.45
0 3 5 81.17 5.3
0 3 5 86.77 5.9
0 3 6 190.84 8.86
0 3 6 198.27 9.55
0 3 7 1058.04 26.73
0 3 7 1087.41 27.91
0 3 8 102.48 6.99
0 3 9 240 11.6
0 3 10 55.3 5.64
0 3 11 121.14 8.82
0 3 11 124.37 8.48
0 3 12 7.16 2.72
0 3 12 6.17 2.56
0 3 13 88.94 8.31
0 3 13 85.36 7.45
0 3 14 59.31 7.25
0 3 15 42.53 6.46
0 4 -12 74.5 8.97
0 4 -11 104.28 9.93
0 4 -10 1.49 2.37
0 4 -9 61.89 6.92
0 4 -8 95.24 8.18
0 4 -7 15.55 3.38
0 4 -7 15.81 2.67
0 4 -6 216.56 11.24
0 4 -5 450.62 16.43
0 4 -4 135.72 8.02
0 4 -3 22.07 3.17
0 4 -2 101.84 6.27
0 4 -1 496.25 15.03
0 4 -1 471.71 15.89
0 4 -1 461.07 16.49
0 4 0 155.65 8.06
0 4 0 148.97 8.53
0 4 1 137.94 8.04
0 4 1 137.69 7.41
0 4 2 369.15 12.67
0 4 2 341.55 13.37
0 4 3 39.31 3.78
0 4 3 36.15 4.09
0 4 4 259.78 10.64
0 4 4 270.73 10.89
0 4 4 257.82 11.58
0 4 5 299.54 12.02
0 4 5 332.14 13.53
0 4 5 313.38 9.91
0 4 6 140.25 7.98
0 4 6 140.37 8.78
0 4 7 17.89 3.01
0 4 8 11.74 2.64
0 4 9 2.43 1.53
0 4 10 85.21 7.14
0 4 11 7.67 2.76
0 4 12 71.56 7.19
0 4 13 22.29 4.3
0 4 13 29.06 4.94
0 4 14 5.5 2.63
0 4 14 2.84 2.31
0 4 15 13.74 4.17
0 5 -11 -2.48 3.16
0 5 -10 28.15 5.43
0 5 -9 91.21 8.92
0 5 -8 144.04 10.83
0 5 -7 34.4 5.05
0 5 -6 63.39 6.52
0 5 -5 20.04 3.74
0 5 -4 4.44 2.11
0 5 -3 360.44 14.41
0 5 -2 362.24 14.11
0 5 -2 336.18 14.62
0 5 -1 438.14 16.7
0 5 -1 457.79 15.81
0 5 -1 473.46 18.17
0 5 0 184.03 9.91
0 5 0 187.91 10.81
0 5 1 28.4 4.11
0 5 1 28.99 3.77
0 5 2 18.67 3.37
0 5 2 16.77 2.88
0 5 3 284.04 12.1
0 5 3 279.26 13.38
0 5 4 173.28 9.18
0 5 4 164.74 9.16
0 5 4 176.56 10.44
0 5 5 377.78 14.71
0 5 5 395.38 16.57
0 5 6 377.01 14.95
0 5 6 378.69 11.83
0 5 7 1.37 1.4
0 5 7 1.3 1.09
0 5 8 6.89 1.8
0 5 8 7.6 2.25
0 5 9 18.38 3.64
0 5 10 54.16 5.97
0 5 11 15.05 3.56
0 5 12 140.55 10.48
0 5 13 74.07 7.9
0 5 14 5.4 2.91
0 5 14 11.99 4.02
0 5 15 1.77 2.62
0 6 -10 47.47 7.51
0 6 -9 53.99 7.44
0 6 -8 27.59 5.36
0 6 -7 4.15 2.77
0 6 -6 58.61 6.87
0 6 -5 163.04 10.89
0 6 -4 61.85 6.47
0 6 -4 51.38 6.52
0 6 -3 105.39 8.09
0 6 -3 94.23 8.37
0 6 -2 347.77 16.14
0 6 -2 373.18 15.62
0 6 -1 44.03 5.41
0 6 -1 43.83 5.83
0 6 0 19.12 3.91
0 6 0 17 3.5
0 6 1 54.92 6.37
0 6 1 62.83 6.19
0 6 2 303.95 13.9
0 6 3 534.14 19.12
0 6 4 172.19 10.04
0 6 5 68.18 6.32
0 6 5 62.42 6.1
0 6 6 9.29 2.77
0 6 7 12.94 3.13
0 6 8 358.45 16.03
0 6 8 371.86 13.06
0 6 9 57.35 6.38
0 6 9 55.82 5.06
0 6 10 72.43 7.24
0 6 10 60.63 5.66
0 6 11 39.47 5.51
0 6 12 5.62 2.92
0 6 13 0.07 2.11
0 6 14 15.05 4.23
0 6 15 -0.86 2.52
0 7 -8 24.34 5.35
0 7 -7 28.31 5.7
0 7 -6 80.99 8.76
0 7 -6 74.79 8.79
0 7 -5 211.9 13.56
0 7 -5 206.45 14.17
0 7 -4 92.64 8.64
0 7 -4 91.66 9.06
0 7 -3 1.16 1.77
0 7 -3 1.65 2.25
0 7 -2 21.55 4.34
0 7 -1 7.47 2.92
0 7 0 51.92 6.26
0 7 1 55.35 6.46
0 7 2 188.73 11.62
0 7 3 57.38 6.32
0 7 4 13.58 3.4
0 7 5 21.75 4.03
0 7 5 28.49 4.55
0 7 6 3.82 1.94
0 7 7 15.4 3.57
0 7 8 76.53 7.49
0 7 9 9.66 2.85
0 7 10 5.92 2.63
0 7 11 3.12 2.33
0 7 12 1.09 1.94
0 7 13 5.94 3.05
0 7 14 4.81 3.16
0 8 -7 29.97 6.07
0 8 -6 60.76 7.92
0 8 -6 45.21 7.54
0 8 -5 19.28 5.02
0 8 -5 28.76 5.53
0 8 -4 3.39 2.81
0 8 -4 -0.62 2.35
0 8 -3 5.57 2.96
0 8 -2 19.09 4.57
0 8 -1 105.63 9.75
0 8 0 95.26 9.13
0 8 1 77.92 7.92
0 8 2 49.72 6.37
0 8 3 7.88 2.9
0 8 4 180.81 12.08
0 8 5 142.48 10.58
0 8 5 111.97 9.76
0 8 6 111.51 9.72
0 8 7 75.67 8.04
0 8 8 10.44 3.58
0 8 9 3.34 2.77
0 8 10 12.68 3.85
0 8 11 13.53 4.02
0 8 12 44.76 6.58
0 8 13 23.56 5.23
0 9 -3 56.27 8.01
0 9 -2 27.47 5.59
0 9 -1 35.31 6.08
0 9 0 24.46 5.3
0 9 1 0.85 2.51
0 9 2 8.35 3.4
0 9 3 7.73 3.62
0 9 4 68.17 8.1
0 9 5 20.51 4.74
0 9 5 25.64 5.17
0 9 6 18.72 4.61
0 9 7 1.37 2.44
0 9 8 3.02 2.36
0 9 9 9.26 3.25
0 9 10 10.26 3.31
0 9 11 5.39 3.41
0 9 12 11.35 4.02
0 10 5 3.68 2.75
0 10 6 -0.31 2.2
0 10 7 9.54 3.69
0 10 8 9.21 3.72
0 10 9 4.87 3.24
0 10 10 11.61 4.05
1 -10 -8 6.78 3.31
1 -9 -10 10.85 3.91
1 -9 -9 10.29 3.47
1 -9 -8 23.95 4.64
1 -9 -7 7.51 2.91
1 -9 -6 10.3 3.06
1 -9 -5 36.39 4.7
1 -9 -3 5.71 2.69
1 -9 -2 4.31 2.38
1 -9 0 68.19 8.65
1 -8 -11 9.31 3.69
1 -8 -10 12.8 4.1
1 -8 -9 33.91 5.19
1 -8 -8 85.14 7.28
1 -8 -8 77.57 6.94
1 -8 -7 65.71 6.19
1 -8 -7 54.99 5.72
1 -8 -6 56.49 5.48
1 -8 -6 39.37 4.79
1 -8 -5 3.31 1.68
1 -8 -5 9.71 2.7
1 -8 -4 8.18 2.32
1 -8 -4 -0.21 1.64
1 -8 -3 63.59 5
1 -8 -3 60.17 6.36
1 -8 -3 65.4 5.95
1 -8 -2 51.33 4.28
1 -8 -2 59.78 6.3
1 -8 -2 46.78 5.14
1 -8 -1 66.88 6.66
1 -8 -1 68.52 6.4
1 -8 0 64.11 7.62
1 -8 0 56.69 6.35
1 -8 1 43.9 6.7
1 -8 1 50.55 6.05
1 -8 2 -0.91 2.25
1 -8 3 21.52 5.47
1 -8 4 30.02 6.58
1 -7 -12 3.48 3.28
1 -7 -11 25.12 4.68
1 -7 -10 18.33 4.07
1 -7 -9 171.47 10.54
1 -7 -8 24.77 4.23
1 -7 -8 19.94 3.59
1 -7 -7 34.32 4.41
1 -7 -7 31.12 4.22
1 -7 -6 2.5 1.55
1 -7 -5 -0.3 1.29
1 -7 -5 0.89 1.14
1 -7 -4 103.26 7.09
1 -7 -3 15.93 3.25
1 -7 -3 13.44 2.7
1 -7 -2 251.22 9.49
1 -7 -2 286.63 13.37
1 -7 -2 294.87 12.48
1 -7 -1 107.95 5.55
1 -7 -1 119.39 8.36
1 -7 -1 118.77 7.95
1 -7 0 49.31 3.35
1 -7 0 52.37 5.65
1 -7 1 10.12 2.68
1 -7 1 12.06 3.79
1 -7 2 12.75 2.98
1 -7 2 19.31 4.74
1 -7 3 155.05 10.25
1 -7 3 175.35 12.81
1 -7 4 140.94 12.02
1 -7 4 123.58 9.3
1 -7 5 87.67 9.87
1 -7 6 8.47 3.85
1 -6 -13 13.91 4.01
1 -6 -12 9.71 3.68
1 -6 -11 18.26 3.96
1 -6 -10 46.18 5.73
1 -6 -9 59.92 6
1 -6 -8 72.23 6.2
1 -6 -8 64.09 6.05
1 -6 -7 240.29 11.25
1 -6 -6 13.16 2.64
1 -6 -5 87.41 6.18
1 -6 -4 87.55 6.48
1 -6 -4 91.83 6.34
1 -6 -4 97.16 5.39
1 -6 -3 4.78 1.62
1 -6 -3 10 2.01
1 -6 -3 8.36 2.35
1 -6 -3 11.03 2.33
1 -6 -2 9.7 2.2
1 -6 -2 10.28 2.09
1 -6 -2 12.59 2.7
1 -6 -2 7.76 1.93
1 -6 -1 -0.78 1.26
1 -6 -1 1.32 1.51
1 -6 0 94.78 4.5
1 -6 0 109.9 6.97
1 -6 0 100.22 7.15
1 -6 1 123.76 4.61
1 -6 1 120.05 8
1 -6 1 139.89 9.54
1 -6 2 240.92 6.04
1 -6 2 266.72 12.46
1 -6 2 244.48 7.01
1 -6 3 16.14 3.19
1 -6 3 20.31 4.24
1 -6 4 91.71 8.85
1 -6 4 78.3 7.01
1 -6 5 6.22 2.5
1 -6 5 6.33 3.39
1 -6 6 12.29 3.23
1 -6 6 15.5 4.81
1 -6 7 122.33 12.28
1 -6 7 100.91 9.04
1 -6 8 79.37 10.38
1 -5 -14 14.57 4.22
1 -5 -13 102.41 9.11
1 -5 -12 33.57 5.34
1 -5 -11 97.32 8.1
1 -5 -11 79.38 5.62
1 -5 -10 13.52 3.66
1 -5 -10 6.05 1.8
1 -5 -9 10.88 3.16
1 -5 -9 4.1 1.5
1 -5 -8 21.35 3.58
1 -5 -7 145.37 8.33
1 -5 -6 591.98 17.81
1 -5 -5 86.05 5.7
1 -5 -4 141.01 7.31
1 -5 -3 7.81 1.84
1 -5 -3 8.08 1.52
1 -5 -3 11.94 2.44
1 -5 -3 6.3 1.68
1 -5 -2 7.74 1.76
1 -5 -2 5.98 1.49
1 -5 -2 8.33 2.08
1 -5 -2 7.78 1.86
1 -5 -1 72.41 5.11
1 -5 -1 75.84 4.9
1 -5 -1 73 5.51
1 -5 0 320.62 11.69
1 -5 0 344.58 12.02
1 -5 0 317.99 12.37
1 -5 1 592.11 12.66
1 -5 1 601.67 17.34
1 -5 1 584.3 18.25
1 -5 2 304.1 11.57
1 -5 2 301.25 13.57
1 -5 2 281.35 6.5
1 -5 2 299.59 12.31
1 -5 3 98.14 7.98
1 -5 3 90.12 6.72
1 -5 4 89.88 8.29
1 -5 4 82.73 6.78
1 -5 5 0.28 1.57
1 -5 5 0.65 1.97
1 -5 6 151.54 11.9
1 -5 6 136.97 9.67
1 -5 7 214.97 15.33
1 -5 7 212.95 12.89
1 -5 8 111.32 11.58
1 -5 8 105.15 9.33
1 -5 9 41.83 6.43
1 -5 9 40.36 7.38
1 -5 10 -3.85 4.39
1 -4 -15 14.16 4.23
1 -4 -14 26.67 5.24
1 -4 -13 27.15 5.07
1 -4 -12 102.9 8.61
1 -4 -12 77.75 5.51
1 -4 -11 7.7 3
1 -4 -11 1.6 1.13
1 -4 -10 35.31 4.78
1 -4 -10 23.91 4.61
1 -4 -10 23.46 2.77
1 -4 -9 104.07 9.18
1 -4 -9 112.58 6.25
1 -4 -8 271.28 11.63
1 -4 -8 254.77 14.26
1 -4 -8 255.42 9.84
1 -4 -7 241.4 10.32
1 -4 -6 269.39 10.77
1 -4 -5 1.82 1.18
1 -4 -5 2.22 1.53
1 -4 -4 23.62 2.71
1 -4 -4 28.44 3.77
1 -4 -3 133.63 8.23
1 -4 -3 122.38 6.09
1 -4 -3 137.96 6.57
1 -4 -2 889.47 21.54
1 -4 -2 966.8 26.06
1 -4 -2 941.1 20.06
1 -4 -2 940.03 22.62
1 -4 -2 939.46 22.22
1 -4 -1 192.06 7.76
1 -4 -1 203.72 7.44
1 -4 -1 200.74 8.45
1 -4 0 554.07 15.03
1 -4 0 565.98 15.18
1 -4 0 547.79 15.8
1 -4 1 2.48 1.24
1 -4 1 4.53 0.77
1 -4 1 3.3 1.19
1 -4 1 6.39 1.6
1 -4 2 115.62 3.19
1 -4 2 128.22 6.51
1 -4 2 127.19 7.85
1 -4 2 139.57 7.57
1 -4 2 131.26 7.05
1 -4 3 63.77 5.93
1 -4 3 58.06 4.9
1 -4 4 423.03 17.16
1 -4 4 386.95 14.63
1 -4 5 439.11 16.78
1 -4 5 471.15 19.35
1 -4 6 164.81 11.82
1 -4 6 141.24 9.45
1 -4 7 162.48 12.41
1 -4 7 142.15 10.08
1 -4 8 25.75 4.77
1 -4 8 16.33 4.44
1 -4 9 15.93 4.08
1 -4 9 10.95 4.04
1 -4 10 79.63 10.35
1 -4 11 78.38 10.93
1 -3 -15 43.17 6.5
1 -3 -14 0.62 2.25
1 -3 -13 7.69 3.15
1 -3 -13 11.21 2.41
1 -3 -12 36.62 5.11
1 -3 -12 41.5 4.06
1 -3 -11 3.74 2.7
1 -3 -11 4.44 2.57
1 -3 -11 3.31 1.71
1 -3 -10 317.48 11.2
1 -3 -10 281.85 15
1 -3 -9 134.73 8.27
1 -3 -9 118.64 6.08
1 -3 -8 6.98 2.4
1 -3 -8 5.43 2.23
1 -3 -8 3.39 1.01
1 -3 -7 77.92 5.55
1 -3 -7 71.17 5.89
1 -3 -7 73.37 6.72
1 -3 -7 73.82 4.4
1 -3 -6 46.42 4.07
1 -3 -6 41.11 4.72
1 -3 -6 39.1 4.22
1 -3 -6 41.68 4.74
1 -3 -6 40.8 3.12
1 -3 -5 199.72 8.09
1 -3 -5 213.59 9.75
1 -3 -4 5.31 1.27
1 -3 -4 2.84 1.32
1 -3 -3 155.3 6.02
1 -3 -3 155.35 7.88
1 -3 -2 131.3 5.23
1 -3 -2 135.68 7.36
1 -3 -2 135.02 4.64
1 -3 -2 136.43 6.14
1 -3 -1 44.13 2.63
1 -3 -1 44.27 2.96
1 -3 -1 45.24 2.79
1 -3 -1 38.96 3.89
1 -3 -1 41.43 3.19
1 -3 0 190.1 5.41
1 -3 0 180.54 6.52
1 -3 0 193.76 6.93
1 -3 0 184.31 6.99
1 -3 1 0.22 0.29
1 -3 1 1.68 0.73
1 -3 1 1.1 1.16
1 -3 1 1.18 0.99
1 -3 1 1.64 1.06
1 -3 2 29.89 3.39
1 -3 2 29.96 3.26
1 -3 2 29.66 2.87
1 -3 3 425.9 15.06
1 -3 3 436.47 14.52
1 -3 3 411.49 13.2
1 -3 4 328.5 13.8
1 -3 4 325.33 13.09
1 -3 4 303.25 11.89
1 -3 5 182 10.86
1 -3 5 149.75 8.62
1 -3 6 61.93 6.83
1 -3 7 9.98 3.34
1 -3 8 369.52 19.3
1 -3 9 305 18.43
1 -3 10 53.72 8.29
1 -3 11 125.38 13.21
1 -3 12 19.01 6.25
1 -3 13 3.67 4.68
1 -2 -16 9.13 3.81
1 -2 -15 2.53 3.47
1 -2 -14 -2.08 3.16
1 -2 -14 1.3 1.37
1 -2 -13 -4.47 3.13
1 -2 -13 2.79 1.5
1 -2 -12 133.4 9.56
1 -2 -12 120.94 7.14
1 -2 -11 21.52 3.92
1 -2 -11 13.93 3.18
1 -2 -11 16.22 2.59
1 -2 -10 488.1 14.69
1 -2 -10 451.01 18.45
1 -2 -9 95.73 5.41
1 -2 -9 85.01 7.17
1 -2 -8 61.97 5.2
1 -2 -8 54.2 3.86
1 -2 -8 47.21 5.08
1 -2 -7 18.24 3.2
1 -2 -7 18.59 2.92
1 -2 -7 20.52 3.26
1 -2 -7 16.96 2.01
1 -2 -6 428.01 13.12
1 -2 -6 400.45 14.81
1 -2 -6 392.73 10.39
1 -2 -6 389.8 14.03
1 -2 -5 1972.09 39.1
1 -2 -5 1942.25 40.36
1 -2 -5 2037.15 42.64
1 -2 -5 2018.73 41.8
1 -2 -5 1926.67 35.6
1 -2 -4 1019.63 22.67
1 -2 -4 1067.49 25.71
1 -2 -4 1085.52 24.39
1 -2 -4 1031.08 20.17
1 -2 -3 499.21 12.7
1 -2 -3 514.37 14.32
1 -2 -2 1296.44 26.35
1 -2 -2 1339.03 25.37
1 -2 -2 1392.08 23.93
1 -2 -2 1424.32 27.79
1 -2 -2 1373.14 29.03
1 -2 -1 7.68 1.11
1 -2 -1 7.87 0.81
1 -2 -1 8.01 0.95
1 -2 -1 6.49 1.42
1 -2 -1 7.93 1.31
1 -2 0 1320.07 24.04
1 -2 0 1331.45 24.46
1 -2 0 1328.93 25.74
1 -2 0 1294.02 24.85
1 -2 1 1823.38 32.3
1 -2 1 1890.61 34.01
1 -2 1 1919.67 36.8
1 -2 1 1843.4 36.1
1 -2 1 1931.46 34.11
1 -2 2 797.52 19.9
1 -2 2 815.29 19.55
1 -2 2 777.29 17.19
1 -2 3 859.23 22.61
1 -2 3 887.34 22.31
1 -2 3 873.61 20.19
1 -2 4 793.75 22.73
1 -2 4 812.03 22.49
1 -2 5 2.67 1.75
1 -2 5 0.13 1.33
1 -2 6 52.75 5.95
1 -2 7 73.35 7.49
1 -2 8 686.72 26.17
1 -2 9 90.29 9.42
1 -2 10 19.16 4.94
1 -2 11 2.96 3.42
1 -2 12 8 4.28
1 -2 13 6.73 4.15
1 -2 14 14.9 5.94
1 -1 -16 8.74 4.01
1 -1 -15 21.88 4.68
1 -1 -15 26.95 4.17
1 -1 -14 14.67 3.62
1 -1 -14 23.42 3.91
1 -1 -13 85.45 8.08
1 -1 -13 88.37 6.67
1 -1 -12 33.05 4.86
1 -1 -12 28.33 3.74
1 -1 -11 322.58 14.53
1 -1 -11 288.04 11.5
1 -1 -10 0.87 1.5
1 -1 -10 4.86 1.87
1 -1 -10 5.56 1.74
1 -1 -9 62.47 5.5
1 -1 -9 52.17 4.18
1 -1 -9 47.16 4.98
1 -1 -8 210.73 9.83
1 -1 -8 207.82 8.02
1 -1 -8 196.7 9.88
1 -1 -7 390.74 13.11
1 -1 -7 375.17 14.32
1 -1 -7 350.25 10.49
1 -1 -7 353.08 13.04
1 -1 -6 37.89 3.63
1 -1 -6 35.2 3.83
1 -1 -6 38.51 2.74
1 -1 -6 36.84 3.62
1 -1 -5 229.12 8.56
1 -1 -5 217.69 9.34
1 -1 -5 215.78 6.34
1 -1 -5 218.59 8.48
1 -1 -4 173.1 6.78
1 -1 -4 164.73 7.55
1 -1 -4 170.96 4.65
1 -1 -4 177.45 6.75
1 -1 -3 6.53 1.23
1 -1 -3 5.17 1.32
1 -1 -3 5.55 1.07
1 -1 -3 7.45 1.21
1 -1 -2 103.8 4.32
1 -1 -2 98.39 4.35
1 -1 -1 1530.1 28.43
1 -1 -1 1508.89 29.35
1 -1 -1 1568.58 29.29
1 -1 0 512.75 10.77
1 -1 0 481.81 10.97
1 -1 0 494.86 11.26
1 -1 1 436.31 9.04
1 -1 1 418.83 10.95
1 -1 1 399.03 11.03
1 -1 2 418.62 12.09
1 -1 2 395.3 11.87
1 -1 3 630.11 17.41
1 -1 3 624.22 17.35
1 -1 4 111.68 6.98
1 -1 4 113.58 6.93
1 -1 5 576.28 19.24
1 -1 5 597.76 19.12
1 -1 6 939.04 23.1
1 -1 6 897.86 27.19
1 -1 6 905.89 26.76
1 -1 7 313.94 12.27
1 -1 7 299.58 15.12
1 -1 7 322.55 15.11
1 -1 8 181.01 12.29
1 -1 9 68.11 7.94
1 -1 10 7.47 3.66
1 -1 11 100.7 10.92
1 -1 12 162.33 14.6
1 -1 13 69.96 10.22
1 -1 14 29.52 7.39
1 -1 15 12.54 5.95
1 0 -16 24.63 5.61
1 0 -15 5.7 3.47
1 0 -14 25.88 5.21
1 0 -13 26.54 4.82
1 0 -13 22.76 3.78
1 0 -12 84.12 7.84
1 0 -12 73.1 6.08
1 0 -11 41.75 5.02
1 0 -11 42.1 4.49
1 0 -10 26.08 3.97
1 0 -10 29.48 3.58
1 0 -9 107.34 6.33
1 0 -9 105.18 7.31
1 0 -9 115.05 7.51
1 0 -8 94.81 6.53
1 0 -8 92.62 5.48
1 0 -8 88.74 6.28
1 0 -7 545.94 16.53
1 0 -7 521.86 17.39
1 0 -7 491.63 13.77
1 0 -7 504.81 15.58
1 0 -6 1129.89 25.69
1 0 -6 1121.81 26.73
1 0 -6 1018.18 22.58
1 0 -6 1045.08 24.44
1 0 -5 18.85 2.37
1 0 -5 19.52 1.96
1 0 -5 16.54 2.02
1 0 -5 17.59 2.42
1 0 -4 234.15 8.42
1 0 -4 236.62 8.69
1 0 -4 236.74 6.58
1 0 -4 239.78 7.37
1 0 -3 486.81 12.3
1 0 -3 450.22 12.12
1 0 -3 450.29 10.06
1 0 -2 891.83 18.87
1 0 -2 888.38 18.65
1 0 -1 686.06 14.31
1 0 -1 671.43 12.9
1 0 2 82.67 4.72
1 0 2 85.46 5.06
1 0 2 93.99 2.95
1 0 2 95.26 4.83
1 0 3 377.57 10.2
1 0 3 367.62 12.44
1 0 3 386.22 12.81
1 0 3 374.5 11.38
1 0 4 833.66 19.32
1 0 4 824.85 22.82
1 0 4 831.65 22.59
1 0 4 874.7 20.56
1 0 5 40.18 3.46
1 0 5 36.13 4.32
1 0 5 33.9 4.14
1 0 5 38.68 3.51
1 0 6 1071.58 26.22
1 0 6 1136.29 31.04
1 0 6 1128.61 30.67
1 0 6 1121.97 26.06
1 0 7 2.68 1.33
1 0 7 1.76 2.21
1 0 7 3.15 1.36
1 0 7 0.94 1.32
1 0 8 25.07 4.42
1 0 8 27.1 3.76
1 0 8 23.48 4.44
1 0 8 27.3 3.33
1 0 9 167.46 12.52
1 0 9 179.14 8.9
1 0 10 139.36 12.09
1 0 10 141.42 8.06
1 0 11 -1.08 2.83
1 0 12 139.51 13.28
1 0 13 47.53 8.37
1 0 14 9.43 4.95
1 0 15 8.72 4.89
1 0 16 35.4 8.46
1 1 -14 -0.46 2.26
1 1 -13 2.44 2.48
1 1 -12 60.93 6.82
1 1 -11 290.83 14.39
1 1 -10 58.59 5.95
1 1 -10 49.29 4.78
1 1 -9 230.35 11.38
1 1 -9 223.99 10.04
1 1 -9 220.01 10.82
1 1 -8 245.88 11.15
1 1 -8 239.63 9.9
1 1 -8 228.34 10.54
1 1 -7 16.49 2.82
1 1 -7 17.61 2.66
1 1 -7 16.88 2.47
1 1 -7 15.55 2.76
1 1 -6 2.6 1.53
1 1 -6 1.26 1.07
1 1 -6 0.37 1.01
1 1 -6 0.21 1.06
1 1 -5 1791.23 35.97
1 1 -5 1639.82 34.04
1 1 -4 253.04 9.1
1 1 -4 248.6 8.98
1 1 -3 1782.86 35.28
1 1 -3 1786.7 34.51
1 1 -2 959.59 20.9
1 1 -2 938.95 19.57
1 1 -2 935.12 20.02
1 1 -2 1007.66 19.04
1 1 -1 358.19 9.85
1 1 -1 350.38 8.89
1 1 -1 350.14 9.02
1 1 0 200.17 5.79
1 1 0 199.98 6.49
1 1 0 203.08 7.09
1 1 1 12.46 1.51
1 1 1 14.83 1.04
1 1 2 247.9 9.47
1 1 2 279.51 8.9
1 1 2 273.15 7.99
1 1 2 276.5 6.26
1 1 3 1214.21 23.24
1 1 3 1242.36 28.73
1 1 3 1201.36 24.44
1 1 3 1207.67 26.08
1 1 4 2079.13 44.47
1 1 4 2164.81 41.25
1 1 4 2072.18 38.94
1 1 5 2029.72 39.64
1 1 5 1986.44 41.73
1 1 5 2012.02 45.23
1 1 5 2087.85 41.26
1 1 6 1049.48 24.18
1 1 6 1031.76 26.04
1 1 6 1021.56 29
1 1 6 1023.9 24.89
1 1 7 45.55 4.11
1 1 7 51.95 4.94
1 1 7 49.36 5.81
1 1 7 49.54 4.46
1 1 8 146.8 9.06
1 1 8 150.5 10.86
1 1 8 154.65 8.45
1 1 8 150.07 8.24
1 1 9 186.15 13.05
1 1 9 186.77 9.41
1 1 9 191.16 10.1
1 1 10 495.88 23.24
1 1 10 541.5 17.94
1 1 10 533.78 18.86
1 1 11 159.46 13.31
1 1 11 190.47 10.2
1 1 11 152.59 10.1
1 1 12 29.23 4.76
1 1 12 32.13 6.74
1 1 12 35.25 4.54
1 1 13 4.81 3.9
1 1 14 -2.82 3.87
1 1 15 24.16 7.11
1 1 16 -3.87 4.48
1 2 -13 0.46 2.08
1 2 -13 2.39 3.24
1 2 -12 25.43 4.59
1 2 -11 167.84 10.92
1 2 -10 206.63 11.65
1 2 -9 154.56 9.51
1 2 -8 18.33 3.12
1 2 -7 2.03 1.53
1 2 -6 36.6 3.78
1 2 -6 40.98 4.14
1 2 -6 32.89 3.87
1 2 -5 793.01 20.62
1 2 -5 785.1 20.61
1 2 -5 783.07 21.17
1 2 -4 1530.37 32.27
1 2 -4 1504.28 31.67
1 2 -4 1556.13 32.81
1 2 -4 1473.53 27.47
1 2 -3 87.2 5.02
1 2 -3 96.6 4.9
1 2 -3 92.38 5.3
1 2 -3 91.9 3.89
1 2 -2 72.43 3.68
1 2 -2 66.2 4.19
1 2 -2 65.07 4.11
1 2 -1 107.23 5.13
1 2 -1 109.5 4.05
1 2 0 573.28 14.16
1 2 0 583.33 16.17
1 2 0 578.64 12.34
1 2 1 158.11 4.89
1 2 1 144.42 6.76
1 2 2 1328.01 24.26
1 2 2 1397.98 28.87
1 2 3 166.57 5.27
1 2 3 171.96 7.41
1 2 4 1.33 0.65
1 2 4 2.4 1.35
1 2 4 2.5 1.06
1 2 5 189.31 7.16
1 2 5 189.33 8.33
1 2 5 214.42 9.22
1 2 6 309.18 10.5
1 2 6 312.68 14.75
1 2 6 335.53 11.94
1 2 6 337.09 12.47
1 2 7 14.83 2.37
1 2 7 17.26 3.88
1 2 7 18.01 2.95
1 2 7 14.95 2.56
1 2 8 236.15 10.2
1 2 8 254.49 11.46
1 2 8 222.72 11.93
1 2 8 209.27 13.5
1 2 8 237.48 10.81
1 2 9 120.6 7.48
1 2 9 114.19 10.39
1 2 9 111.85 7.65
1 2 10 24.11 3.69
1 2 10 26.9 5.31
1 2 10 25.9 3.87
1 2 11 -0.58 1.47
1 2 11 1.32 2.39
1 2 11 3.09 1.88
1 2 12 134.59 9.65
1 2 12 129.59 12.92
1 2 12 131.37 9.14
1 2 13 10.91 3.33
1 2 13 9.39 4.63
1 2 13 14.02 3.33
1 2 14 43.19 6.17
1 2 14 52.66 9.23
1 2 15 10.63 3.7
1 2 15 16.84 5.66
1 2 16 17.6 6.61
1 2 17 10.64 5.76
1 3 -12 70.61 8.43
1 3 -11 5.13 2.62
1 3 -11 10.55 3.67
1 3 -10 7.08 2.69
1 3 -10 9.93 3.26
1 3 -9 12.8 2.99
1 3 -9 12.14 3.25
1 3 -8 3.54 1.98
1 3 -8 0.99 1.81
1 3 -7 621.48 19.3
1 3 -7 619.63 21.06
1 3 -6 161.24 8.39
1 3 -6 165.4 9.27
1 3 -6 149.81 5.09
1 3 -5 188.01 8.81
1 3 -5 197.47 9.17
1 3 -5 184.59 9.5
1 3 -4 144.11 7.24
1 3 -4 142.18 7.74
1 3 -4 142.79 7.16
1 3 -3 47.13 4.18
1 3 -3 47.64 3.72
1 3 -2 98.41 5.87
1 3 -1 43.91 3.63
1 3 -1 37.25 3.03
1 3 0 611.22 14.97
1 3 0 615.18 16.35
1 3 0 611.91 18.66
1 3 1 1114.59 23.27
1 3 1 1104.01 27.39
1 3 2 246.36 8.14
1 3 2 246.5 10.37
1 3 3 111 4.91
1 3 3 116.37 6.82
1 3 4 77.79 4.12
1 3 4 63.49 5.17
1 3 5 24.49 2.52
1 3 5 23.41 3.23
1 3 6 841.46 20.68
1 3 6 860.5 23.83
1 3 7 485.68 14.92
1 3 7 500.36 17.22
1 3 8 150.1 7.93
1 3 8 145.48 9.03
1 3 9 45.78 4.61
1 3 9 52.28 5.49
1 3 10 14.31 2.94
1 3 10 16.55 3.29
1 3 11 207.77 11.35
1 3 11 245.86 13.03
1 3 12 18.9 3.79
1 3 12 19.45 3.79
1 3 13 117.64 9.33
1 3 13 122.73 9.48
1 3 14 19.79 4.21
1 3 15 7.64 3.3
1 3 16 5 2.9
1 4 -12 -0.67 2.92
1 4 -11 0.76 2.2
1 4 -10 59.56 7.39
1 4 -9 19.78 3.4
1 4 -9 15.55 3.68
1 4 -8 209.95 12.69
1 4 -7 526.91 19.92
1 4 -7 523.19 13.19
1 4 -6 32.63 4.47
1 4 -5 2.32 1.75
1 4 -4 100.27 7.14
1 4 -4 116.09 6.98
1 4 -3 511.64 16.94
1 4 -2 1079.68 27.22
1 4 -1 525.55 16.37
1 4 -1 504.66 15.44
1 4 0 147.02 7.67
1 4 0 153.13 9.32
1 4 0 144.15 7.06
1 4 1 474.36 13.98
1 4 1 479.56 17.3
1 4 2 9.34 2.27
1 4 2 12.13 1.96
1 4 3 436.3 13.49
1 4 3 433.29 12.68
1 4 3 468.34 16.71
1 4 4 986.38 23.01
1 4 4 1013.91 27.67
1 4 5 256.11 9.65
1 4 5 272.79 12.66
1 4 6 491.11 14.81
1 4 6 499.87 18.29
1 4 7 221.72 9.62
1 4 8 4.51 1.87
1 4 9 7.53 2.1
1 4 10 87.95 6.93
1 4 10 107.96 8.7
1 4 11 431.21 17.11
1 4 11 463.16 19.36
1 4 12 55.03 6.11
1 4 12 62.04 7.26
1 4 13 0.15 1.84
1 4 13 1.34 1.87
1 4 14 2.29 2.44
1 4 14 1.9 2.29
1 4 15 22.16 4.77
1 4 16 2.13 2.65
1 5 -10 75.42 8.79
1 5 -9 110.13 10.07
1 5 -8 67.94 7.64
1 5 -7 153.71 11.03
1 5 -6 9.61 2.85
1 5 -5 23.67 4.09
1 5 -4 198.19 11.14
1 5 -3 350.2 14.73
1 5 -2 138.23 8.57
1 5 -2 122.94 7.92
1 5 -1 19.8 3.17
1 5 -1 20.36 3.17
1 5 0 83.05 7.54
1 5 0 74.97 5.63
1 5 1 87.5 6.03
1 5 1 93.05 7.87
1 5 2 7.83 2.57
1 5 2 3.2 1.39
1 5 3 231.1 10.24
1 5 3 252.6 13.21
1 5 4 56.3 6.06
1 5 4 46.83 4.23
1 5 5 -0.84 1.46
1 5 5 1.77 1.13
1 5 6 94.52 6.18
1 5 6 89.72 3.91
1 5 7 7.12 2.05
1 5 8 15.78 2.99
1 5 9 63.8 5.7
1 5 10 65.05 6.14
1 5 11 45.87 5.48
1 5 11 51.15 6.77
1 5 12 11.36 3.12
1 5 12 19.08 4.53
1 5 13 25.23 4.51
1 5 13 35.15 5.87
1 5 14 14.8 4.1
1 5 14 19.15 5.04
1 5 15 22.49 4.65
1 5 16 14.56 4.39
1 6 -9 39.77 6.78
1 6 -8 4.9 3.3
1 6 -7 12.03 3.92
1 6 -6 123.92 10.15
1 6 -5 162.34 11.15
1 6 -4 15.56 3.39
1 6 -4 16.62 3.72
1 6 -3 358.57 15.95
1 6 -3 323.76 15
1 6 -2 34.28 4.79
1 6 -2 31.36 4.51
1 6 -1 19.3 3.44
1 6 -1 17.14 3.35
1 6 0 299.28 13.3
1 6 1 389.23 15.15
1 6 2 264.3 12.01
1 6 3 50.87 5.02
1 6 4 131.79 8.3
1 6 4 124.66 7.85
1 6 5 12.42 2.7
1 6 6 17.34 3.1
1 6 7 437.26 16.18
1 6 8 214.81 10.93
1 6 8 211.56 7.79
1 6 9 61.51 5.93
1 6 9 60.34 4.43
1 6 10 1.03 1.64
1 6 11 32.43 4.69
1 6 12 21.13 4.06
1 6 13 7.03 3.59
1 6 13 -0.37 2.06
1 6 14 40.88 6.05
1 6 14 46.62 7.5
1 6 15 8.71 3.58
1 6 15 4.77 4
1 7 -8 80.96 9.5
1 7 -7 64.95 8.22
1 7 -6 123.61 11.02
1 7 -6 128.46 11
1 7 -5 29.94 5.14
1 7 -5 31.92 5.66
1 7 -4 15.1 3.71
1 7 -4 19.99 4.47
1 7 -3 63.96 7.05
1 7 -3 58.84 6.85
1 7 -2 17.25 3.8
1 7 -2 9.66 2.98
1 7 -1 204.58 11.95
1 7 0 135.56 9.47
1 7 1 161.73 10.22
1 7 2 8.01 2.58
1 7 3 3.09 1.92
1 7 4 1.41 1.72
1 7 5 39.84 4.8
1 7 6 75.27 6.67
1 7 7 18.18 3.46
1 7 8 405.58 16.74
1 7 9 4.16 2.14
1 7 10 2.72 2.36
1 7 11 28.2 4.68
1 7 12 22.9 4.69
1 7 13 24.39 4.89
1 7 14 49.01 6.71
1 7 14 48.23 8.26
1 7 15 18.7 4.5
1 7 15 21.22 5.82
1 8 -7 62.31 8.54
1 8 -6 25.38 5.32
1 8 -6 28.06 5.89
1 8 -5 12.59 4.2
1 8 -5 12.82 3.94
1 8 -4 0.64 2.55
1 8 -4 1.73 2.49
1 8 -3 30.86 5.33
1 8 -2 120.22 9.94
1 8 -1 74.06 7.67
1 8 0 96.86 8.64
1 8 1 5.99 2.43
1 8 2 0.31 1.62
1 8 3 138.32 10.02
1 8 4 4.87 2.6
1 8 5 110.33 8.68
1 8 6 11.62 3.02
1 8 7 3.54 2.08
1 8 8 9.71 3.1
1 8 9 -0.31 1.77
1 8 10 70.93 7.21
1 8 11 -0.23 1.95
1 8 12 0.15 2.16
1 8 13 6.05 3.19
1 8 14 -0.64 1.94
1 8 14 1.82 3.31
1 9 -5 29.8 5.92
1 9 -4 52.69 7.55
1 9 -3 21.47 4.99
1 9 -2 34.65 5.97
1 9 -1 12.18 3.69
1 9 0 4.92 2.51
1 9 1 20 4.36
1 9 2 31.73 5.59
1 9 3 31.39 5.44
1 9 4 76.58 8.09
1 9 5 22.2 4.54
1 9 6 3.96 2.54
1 9 7 1.45 2.49
1 9 8 7.41 3.03
1 9 9 42.43 5.99
1 9 10 58.57 6.87
1 9 11 27.53 4.9
1 9 12 13.19 3.85
1 9 13 4.44 3.17
1 10 -1 1.19 2.26
1 10 0 18.42 4.85
1 10 1 59.57 7.8
1 10 2 15.72 4.5
1 10 3 28.57 5.43
1 10 4 2.9 2.75
1 10 5 0.28 2.01
1 10 6 30.47 5.67
1 10 7 8.11 3.12
1 10 8 3.02 2.76
1 10 9 14.56 4.03
2 -9 -9 9.89 3.43
2 -9 -8 7.82 3.34
2 -9 -7 13.06 3.78
2 -9 -3 6.51 3.41
2 -9 -2 26.5 5.67
2 -9 -1 73.65 8.97
2 -8 -10 11.52 4.13
2 -8 -9 16.87 4.47
2 -8 -8 26.66 5.12
2 -8 -7 1.11 1.98
2 -8 -6 1.3 2.21
2 -8 -5 6.47 2.42
2 -8 -4 20.39 3.84
2 -8 -3 109.47 8.69
2 -8 -2 21.12 4.38
2 -8 -2 12.7 3.1
2 -8 -1 32.17 5.65
2 -8 -1 20.07 4.32
2 -8 0 9.65 3.67
2 -8 0 7.41 3.02
2 -8 1 6.62 3.19
2 -8 2 31.02 6.32
2 -7 -11 40.76 6.72
2 -7 -10 28.46 5.42
2 -7 -9 37.66 6.02
2 -7 -8 1.69 2.33
2 -7 -7 5.73 2.45
2 -7 -6 2.09 2.01
2 -7 -5 29.66 4.48
2 -7 -4 79.5 6.77
2 -7 -3 256.25 11.74
2 -7 -3 253.75 12.86
2 -7 -2 27.03 3.51
2 -7 -2 31.9 4.69
2 -7 -1 -1.27 1.43
2 -7 -1 2.69 2.44
2 -7 -1 -2.78 2.28
2 -7 0 11.71 3.73
2 -7 0 10.47 2.62
2 -7 0 8.25 2.92
2 -7 1 49.68 6.68
2 -7 1 46.77 4.71
2 -7 2 114.04 10.51
2 -7 3 69.29 8.7
2 -7 4 49.52 7.95
2 -7 5 13.37 4.75
2 -6 -12 35.8 6.42
2 -6 -11 47.32 6.89
2 -6 -10 28.77 5.28
2 -6 -9 2.32 2.48
2 -6 -8 9.36 3.15
2 -6 -7 173.66 11.06
2 -6 -6 23.62 4.1
2 -6 -5 57.02 5.95
2 -6 -5 69.7 4.86
2 -6 -4 127.42 8.26
2 -6 -4 122.23 7.39
2 -6 -4 124.83 7.09
2 -6 -3 106.67 7.12
2 -6 -3 121.68 5.66
2 -6 -3 120.04 7.07
2 -6 -3 132 7.72
2 -6 -3 122.66 8.36
2 -6 -2 3.79 1.65
2 -6 -2 6.44 1.28
2 -6 -2 6.32 1.78
2 -6 -2 7.22 2.3
2 -6 -2 6.62 2.33
2 -6 -1 148.05 7.28
2 -6 -1 141.05 5.91
2 -6 -1 156.47 7.86
2 -6 -1 158.1 10.01
2 -6 -1 150.8 9.56
2 -6 0 112.91 5.85
2 -6 0 125.59 7.02
2 -6 0 133.69 9.47
2 -6 0 119.65 7.06
2 -6 1 153.22 6.15
2 -6 1 156.24 10.82
2 -6 1 139.14 7.66
2 -6 2 121.94 9.83
2 -6 2 98.48 6.29
2 -6 3 13.01 3.93
2 -6 3 6.37 1.78
2 -6 4 37.99 6.55
2 -6 5 7.76 3.42
2 -6 6 133.53 12.76
2 -6 7 114.47 12.52
2 -5 -13 7.07 3.22
2 -5 -12 5.58 3.27
2 -5 -11 14.59 4.05
2 -5 -10 6.06 3.28
2 -5 -9 10.89 3.07
2 -5 -9 15.27 3.93
2 -5 -8 3.85 2.79
2 -5 -7 165.97 10.64
2 -5 -7 147.03 4.59
2 -5 -7 173.43 5.89
2 -5 -6 17.62 3.53
2 -5 -6 22.91 1.98
2 -5 -5 -0.24 1.46
2 -5 -5 1.48 1.03
2 -5 -4 3.38 1.76
2 -5 -4 4.78 1.53
2 -5 -3 12.48 2.48
2 -5 -3 10.84 1.94
2 -5 -3 15.18 2.48
2 -5 -3 13.41 2.59
2 -5 -2 172.77 8.26
2 -5 -2 168.99 5.85
2 -5 -2 166.01 7.51
2 -5 -2 182.65 8.8
2 -5 -2 169.53 9.33
2 -5 -1 212.79 8.76
2 -5 -1 227.41 10.99
2 -5 -1 228.28 6.81
2 -5 -1 225.9 8.8
2 -5 -1 240.15 11.1
2 -5 0 97.01 5.2
2 -5 0 89.73 5.33
2 -5 0 94.47 7.21
2 -5 0 101.15 7.45
2 -5 0 106.18 5.97
2 -5 1 76.86 4.16
2 -5 1 76.16 4.97
2 -5 1 75.46 6.79
2 -5 1 78.64 5.03
2 -5 2 0.23 0.3
2 -5 2 1.23 2.2
2 -5 2 -0.18 0.98
2 -5 3 219.09 12.94
2 -5 3 200.34 8.55
2 -5 4 109.86 9.64
2 -5 4 99.83 6.12
2 -5 5 60.28 7.7
2 -5 5 46.39 4.24
2 -5 6 182.74 14.22
2 -5 6 182.15 9.28
2 -5 7 104.01 11.28
2 -5 8 9.58 4.24
2 -5 9 8.32 3.72
2 -4 -14 32.31 6.01
2 -4 -13 13.01 4.21
2 -4 -12 3.02 2.81
2 -4 -11 72.15 8
2 -4 -10 12.87 3.8
2 -4 -10 7.61 2.41
2 -4 -9 132.66 10.02
2 -4 -9 103.16 8.38
2 -4 -8 145.1 10.14
2 -4 -8 138.01 9.53
2 -4 -7 156.7 10.04
2 -4 -6 141.15 9.09
2 -4 -5 52.43 5.24
2 -4 -5 58.32 2.77
2 -4 -4 299.11 12.32
2 -4 -4 316.26 9.04
2 -4 -3 340.81 12.6
2 -4 -3 345.59 10.61
2 -4 -3 352.64 13.21
2 -4 -2 667.06 18.3
2 -4 -2 667.76 16.35
2 -4 -2 696.9 18.07
2 -4 -2 678.36 19.98
2 -4 -1 217.73 8.51
2 -4 -1 225.39 5.61
2 -4 -1 218.3 7.67
2 -4 -1 244.28 10.19
2 -4 -1 234.74 10.46
2 -4 0 255.99 8.78
2 -4 0 267.05 8.61
2 -4 0 263.77 11.26
2 -4 0 289.73 11.94
2 -4 1 3.52 0.94
2 -4 1 2.31 1.68
2 -4 1 2.64 1.02
2 -4 1 1.23 1.19
2 -4 2 157.23 5.17
2 -4 2 188.84 10.4
2 -4 2 175.13 10.29
2 -4 2 184.86 6.88
2 -4 3 289.87 14.31
2 -4 3 291.08 9.48
2 -4 4 497.05 20.04
2 -4 4 460.11 13.38
2 -4 5 57.01 7.07
2 -4 5 49.29 4.07
2 -4 6 78.44 5.75
2 -4 6 77.28 8.65
2 -4 7 1.2 1.18
2 -4 7 3.51 2.18
2 -4 7 0.37 2.57
2 -4 8 5.3 2.13
2 -4 8 1.98 2.3
2 -4 9 52.47 8.6
2 -4 10 63.58 9.95
2 -4 11 73.87 11.25
2 -3 -14 17.68 5.04
2 -3 -13 14.72 4.02
2 -3 -12 85.67 9.17
2 -3 -11 210.38 13.64
2 -3 -10 4.29 2.3
2 -3 -10 5.67 2.02
2 -3 -9 66.85 7.02
2 -3 -9 62.06 5.8
2 -3 -8 2.71 1.68
2 -3 -8 5.04 1.96
2 -3 -7 2.14 1.66
2 -3 -7 2.55 1.51
2 -3 -6 16.11 3.13
2 -3 -6 12.68 2.56
2 -3 -5 101.34 7.11
2 -3 -5 119.06 7.79
2 -3 -4 386.53 14.62
2 -3 -4 366.45 13.54
2 -3 -3 583.44 17.19
2 -3 -3 606.45 19.17
2 -3 -3 605.51 13.6
2 -3 -2 88.65 5.37
2 -3 -2 95.72 6.77
2 -3 -2 95.9 4.89
2 -3 -2 97.06 6.13
2 -3 -1 12.99 1.96
2 -3 -1 11.77 1.34
2 -3 -1 13.38 2.1
2 -3 -1 9.44 1.68
2 -3 -1 12.31 2.31
2 -3 0 5.21 1.28
2 -3 0 4.91 0.88
2 -3 0 7.13 1.83
2 -3 0 5.47 1.44
2 -3 1 45.13 3.06
2 -3 1 50.98 4.58
2 -3 1 51.4 4.77
2 -3 2 693.71 15.13
2 -3 2 713.36 14.7
2 -3 2 734.49 21.55
2 -3 2 741.85 22.34
2 -3 2 724.28 14.99
2 -3 3 595.76 14.19
2 -3 3 603.07 20.28
2 -3 3 589.1 20.71
2 -3 3 569.68 13.14
2 -3 4 200.06 7.87
2 -3 4 197.67 11.62
2 -3 4 203.86 7.18
2 -3 5 28.17 3.15
2 -3 5 26.08 4.47
2 -3 5 25.67 2.77
2 -3 6 83.34 5.92
2 -3 6 70.27 7.94
2 -3 6 72.76 5.27
2 -3 7 138.18 8.27
2 -3 7 150.89 8.8
2 -3 7 152.91 12.18
2 -3 8 46 7.29
2 -3 9 194.81 15.63
2 -3 10 192.55 16.47
2 -3 11 35.64 7.99
2 -3 12 14.71 5.89
2 -2 -15 20.49 5.76
2 -2 -14 5.74 3.18
2 -2 -13 0.81 3.49
2 -2 -12 88.59 9.02
2 -2 -11 56.17 6.75
2 -2 -11 55.8 5.32
2 -2 -10 0.09 2.34
2 -2 -10 0.65 1.19
2 -2 -9 28.36 4.49
2 -2 -9 25.68 3.35
2 -2 -8 1.85 2.34
2 -2 -8 3.64 1.52
2 -2 -7 3.53 1.78
2 -2 -7 3.02 1.22
2 -2 -7 4.19 1.79
2 -2 -6 613.3 19.68
2 -2 -6 592.76 16.16
2 -2 -6 632.19 18.67
2 -2 -5 339.87 13.18
2 -2 -5 324.06 10.61
2 -2 -5 336.83 12.51
2 -2 -4 351.61 12.83
2 -2 -4 358.33 12.71
2 -2 -3 177.46 8.31
2 -2 -3 171.47 8.06
2 -2 -2 117.53 6.07
2 -2 -2 111.08 6.48
2 -2 -2 113.92 4.62
2 -2 -2 109.21 6.19
2 -2 -1 370.55 11.44
2 -2 -1 374.06 10.66
2 -2 -1 395.35 11.23
2 -2 -1 388.29 12.55
2 -2 0 711.87 17.68
2 -2 0 754.33 13.7
2 -2 0 732.13 18.19
2 -2 0 760.44 19.15
2 -2 1 293.67 9.08
2 -2 1 285.01 10.62
2 -2 1 304.08 11.56
2 -2 2 318.14 7.96
2 -2 2 320.89 12.45
2 -2 2 332.01 13.11
2 -2 3 34.37 2.6
2 -2 3 44.81 4.75
2 -2 3 43.37 4.88
2 -2 4 364.36 10.9
2 -2 4 357.43 15.2
2 -2 4 369.24 15.77
2 -2 4 336.09 9.12
2 -2 5 229.19 9.22
2 -2 5 218.14 12.46
2 -2 5 244.91 13.3
2 -2 6 221.51 9.92
2 -2 6 226.16 13.67
2 -2 7 145.66 8.61
2 -2 7 170.96 12.45
2 -2 8 55.5 7.6
2 -2 9 30.94 6.03
2 -2 10 12.45 4.59
2 -2 11 4.6 3.65
2 -2 12 49.25 8.82
2 -2 13 65.12 10.9
2 -1 -15 57.8 8.63
2 -1 -14 89.82 10.13
2 -1 -13 42.25 6.86
2 -1 -12 15.43 4.28
2 -1 -11 7.92 3.4
2 -1 -11 4.45 1.82
2 -1 -10 154.37 10.74
2 -1 -10 130.21 7.62
2 -1 -9 142.1 9.83
2 -1 -9 131.51 7.12
2 -1 -8 148.54 9.51
2 -1 -8 128.62 6.61
2 -1 -7 464.07 17.18
2 -1 -7 432.19 12.35
2 -1 -6 0.34 1.85
2 -1 -6 4.53 1.81
2 -1 -6 5.77 1.64
2 -1 -6 4.39 0.98
2 -1 -5 587.19 18.83
2 -1 -5 571.67 12.76
2 -1 -5 584.71 16.35
2 -1 -4 57.98 4.84
2 -1 -4 60.94 5.06
2 -1 -4 60.57 4.22
2 -1 -3 30.34 3.23
2 -1 -3 26.47 2.6
2 -1 -2 685.39 17.77
2 -1 -2 675.58 16.65
2 -1 -2 665.45 13.03
2 -1 -1 1741.03 36.25
2 -1 -1 1785.05 33.02
2 -1 -1 1804.53 35.83
2 -1 -1 1877.43 36.71
2 -1 0 1806.6 35.85
2 -1 0 1871.24 36.35
2 -1 1 530.96 13.77
2 -1 1 518.14 14.86
2 -1 1 541.29 16.19
2 -1 2 776.63 20.83
2 -1 2 771.61 21.79
2 -1 3 27.12 3.63
2 -1 3 25.33 3.63
2 -1 4 39.35 3.35
2 -1 4 39.78 4.8
2 -1 4 44.92 5.18
2 -1 4 39.06 2.09
2 -1 5 1983.95 41.51
2 -1 5 2021.3 48.07
2 -1 5 2100.67 48.92
2 -1 6 420.52 14.51
2 -1 6 394.34 18.06
2 -1 6 424.81 18.8
2 -1 7 384.53 14.68
2 -1 7 370.99 18.45
2 -1 8 7.45 2.34
2 -1 8 4.47 2.53
2 -1 9 20.68 4.99
2 -1 10 30.99 6.27
2 -1 11 147.43 14.02
2 -1 12 96.9 11.99
2 -1 13 51.07 9.35
2 -1 14 8.6 4.94
2 0 -15 33.42 6.85
2 0 -14 17.31 4.99
2 0 -13 25.17 5.45
2 0 -12 10.46 3.67
2 0 -11 99.45 9.04
2 0 -11 83.15 6.5
2 0 -10 436.14 18.91
2 0 -10 388.3 14.22
2 0 -9 317.24 15.13
2 0 -9 279.16 11.07
2 0 -8 335.22 14.84
2 0 -8 322.85 11.09
2 0 -7 3.86 2.16
2 0 -7 5.84 1.46
2 0 -6 8.94 2.23
2 0 -6 7.68 2.29
2 0 -6 8.83 1.41
2 0 -5 9.59 2.15
2 0 -5 9.8 2.57
2 0 -4 280.2 11.27
2 0 -4 277.1 10.72
2 0 -3 1138.89 26.72
2 0 -3 1095.56 25.61
2 0 -3 1118.21 22.77
2 0 -2 200.85 8.65
2 0 -2 206.37 6.45
2 0 -2 206.98 6.47
2 0 -1 1404.38 30.95
2 0 -1 1466.05 26.47
2 0 -1 1435.76 27.37
2 0 0 17.69 2.25
2 0 0 14.66 1.78
2 0 0 17.23 2.07
2 0 1 1199.63 26.9
2 0 1 1236.99 29.35
2 0 2 867.29 22.91
2 0 2 835.47 16.79
2 0 3 215.1 10.28
2 0 3 202.86 6.09
2 0 3 226.09 10.37
2 0 4 547.02 19.48
2 0 4 602.45 20.88
2 0 4 586.22 18.71
2 0 4 597.44 13.61
2 0 5 15.59 3.3
2 0 5 18.38 2.19
2 0 5 11.75 3.54
2 0 5 19.47 3.81
2 0 6 17.51 2.88
2 0 6 22.69 4.18
2 0 6 25.64 2.6
2 0 6 25.24 3.69
2 0 6 22.52 4.22
2 0 7 3.97 1.54
2 0 7 4.34 2.32
2 0 7 8.84 2.64
2 0 7 2.13 1.38
2 0 8 19.8 3.52
2 0 8 18.32 4.31
2 0 8 20.06 3.55
2 0 9 236.87 16.04
2 0 9 273.04 13.35
2 0 10 122.33 11.91
2 0 10 129.27 9.31
2 0 11 43.15 7.9
2 0 12 34.15 7.38
2 0 13 36.99 7.35
2 0 14 8.27 4.69
2 0 15 24.78 7.15
2 1 -15 5.38 3.81
2 1 -14 1.85 2.66
2 1 -13 32.75 6.07
2 1 -12 59 7.64
2 1 -11 17.99 4.26
2 1 -10 22.42 4.38
2 1 -9 257.34 13.94
2 1 -8 21.93 3.95
2 1 -7 9.84 2.75
2 1 -6 194.29 10.36
2 1 -6 178.15 9.41
2 1 -5 14.17 2.84
2 1 -5 13.47 2.37
2 1 -4 97.52 6.61
2 1 -4 103.52 5.94
2 1 -4 100.32 5.74
2 1 -3 32.08 3.53
2 1 -3 30.88 2.89
2 1 -3 31.42 2.89
2 1 -3 31.4 3.01
2 1 -2 484.01 14.93
2 1 -2 459.9 12.58
2 1 -2 475.61 12.49
2 1 -2 499.09 14.41
2 1 -1 582.8 16.53
2 1 -1 561.22 13.71
2 1 -1 582.74 13.43
2 1 -1 565.66 16.55
2 1 0 1420.14 27.61
2 1 0 1473.35 32.56
2 1 1 9580.56 170.75
2 1 1 9868.68 167.6
2 1 2 267.72 11.07
2 1 2 278.74 11.38
2 1 2 271.8 9.17
2 1 3 186.86 9.74
2 1 3 182.23 9.23
2 1 3 185.4 7.15
2 1 4 11.45 1.74
2 1 4 10.17 2.56
2 1 4 11.79 2.42
2 1 5 57.98 6.03
2 1 5 56.02 5.3
2 1 5 61.26 4.26
2 1 6 188.85 11.71
2 1 6 185.78 8.14
2 1 6 171.02 9.78
2 1 7 114.39 9.64
2 1 7 110.35 7.94
2 1 7 121.09 6.8
2 1 8 479.43 21.68
2 1 8 452.65 15.44
2 1 8 497.24 18.35
2 1 9 283.24 17.17
2 1 9 299.3 12.62
2 1 9 306.07 14.41
2 1 10 191.93 14.63
2 1 10 214.18 12.11
2 1 11 74.32 9.6
2 1 11 75.87 7.3
2 1 12 8.26 4.17
2 1 12 1.84 2.04
2 1 13 8.61 3.17
2 1 13 6.39 3.89
2 1 14 36.8 8.08
2 1 15 73.34 11.81
2 2 -13 78.61 9.08
2 2 -13 64.07 8.35
2 2 -12 107.35 10.22
2 2 -12 116.9 10.72
2 2 -11 35.42 5.8
2 2 -11 38.2 6.06
2 2 -10 25.23 4.54
2 2 -10 19.83 4.41
2 2 -9 5.87 2.59
2 2 -9 6.22 2.67
2 2 -8 151.7 10.18
2 2 -8 139.31 9.5
2 2 -7 480.96 18.62
2 2 -7 502.23 18.12
2 2 -6 456.19 17.11
2 2 -6 480.59 16.42
2 2 -6 445.49 16.14
2 2 -5 627.01 20.09
2 2 -5 644.18 18.72
2 2 -5 593.79 18.52
2 2 -4 163.47 8.98
2 2 -4 177.9 8.05
2 2 -4 181.27 8.51
2 2 -4 170.04 7.03
2 2 -3 140.75 7.9
2 2 -3 132.81 6.21
2 2 -3 134.48 6.98
2 2 -3 134.85 6.58
2 2 -2 564.2 16.94
2 2 -2 539.79 13.4
2 2 -2 520.65 15.02
2 2 -2 556.16 15.59
2 2 -1 455.76 10.66
2 2 -1 454.55 13.1
2 2 -1 478.21 14.49
2 2 0 1019.38 22.9
2 2 0 1053.17 19.04
2 2 0 1035.26 25.37
2 2 1 2234.92 46.74
2 2 1 2321.5 46.88
2 2 2 1964.11 42.53
2 2 2 2048.47 41.73
2 2 2 1975.33 36.15
2 2 3 2.83 1.42
2 2 3 4.55 1.53
2 2 4 3.04 1.34
2 2 4 0.56 1.16
2 2 5 563.22 21.03
2 2 5 584.19 19.23
2 2 5 588.83 17.43
2 2 5 563.07 14.35
2 2 6 242.55 13.8
2 2 6 244.34 10.56
2 2 6 259.89 12.35
2 2 6 233.5 8.79
2 2 7 101.97 9.23
2 2 7 100.55 6.84
2 2 7 102.56 7.77
2 2 7 102.3 6.04
2 2 8 145.93 11.74
2 2 8 168.41 9.34
2 2 8 156.13 10.09
2 2 8 153.14 8.1
2 2 9 435.31 22.06
2 2 9 476.64 17.47
2 2 9 445.55 18.38
2 2 9 459.32 16.2
2 2 10 49.4 7.63
2 2 10 51.81 6.04
2 2 10 52.65 5.44
2 2 11 5.18 2.38
2 2 11 5.25 3.54
2 2 11 10.17 3.25
2 2 12 284.64 20.22
2 2 12 289.29 15.43
2 2 13 8.86 3.98
2 2 13 10.65 2.96
2 2 14 50.2 9.58
2 2 15 21.39 6.76
2 2 16 20.72 7.37
2 3 -12 50.3 7.17
2 3 -12 44.83 7.18
2 3 -11 -0.1 2.52
2 3 -11 0.85 2.36
2 3 -10 0.94 2.49
2 3 -10 2.91 2.6
2 3 -9 92.01 8.39
2 3 -9 93.82 8.62
2 3 -8 96.62 8.26
2 3 -8 92.9 8.11
2 3 -7 27.93 4.39
2 3 -7 19.87 3.71
2 3 -6 219.89 11.48
2 3 -6 192.37 10.77
2 3 -6 206.66 6.44
2 3 -5 43.57 4.85
2 3 -5 42.21 4.21
2 3 -5 44.01 4.78
2 3 -5 39.87 3.19
2 3 -4 153.81 7.45
2 3 -4 140.55 8.15
2 3 -4 136.93 6.65
2 3 -4 140.97 8.46
2 3 -3 427.87 12.61
2 3 -3 389.43 14.19
2 3 -3 422.64 13.13
2 3 -2 8.37 1.98
2 3 -2 11.41 1.63
2 3 -2 7.57 1.73
2 3 -1 406.36 10.03
2 3 -1 404.57 10.17
2 3 -1 404.77 13.42
2 3 -1 382.88 13.52
2 3 0 98.5 3.45
2 3 0 93.35 5.72
2 3 0 98.54 3.81
2 3 0 94.7 6.34
2 3 0 95.37 7.13
2 3 1 367.75 13.86
2 3 1 379.5 14.8
2 3 2 13.52 2.63
2 3 2 12.4 2.66
2 3 3 187.48 4.91
2 3 3 183.14 9.88
2 3 3 187.6 9.73
2 3 3 190.45 5.12
2 3 4 279.81 7.56
2 3 4 298.4 12.47
2 3 4 284.39 12.92
2 3 5 320.79 9.26
2 3 5 328.9 14.3
2 3 5 315.1 13.23
2 3 6 342.47 10.77
2 3 6 375.27 14.82
2 3 6 387.94 16.04
2 3 7 31.81 3.1
2 3 7 32.51 4.38
2 3 7 35.86 4.9
2 3 8 33.86 3.55
2 3 8 33.64 4.91
2 3 8 38.24 4.77
2 3 9 178.66 9.17
2 3 9 184.09 11.57
2 3 10 51.23 5.08
2 3 10 51.25 6.24
2 3 11 46.91 5.35
2 3 11 55.19 6.68
2 3 12 89.59 11.2
2 3 12 112.21 9.8
2 3 12 95.13 7.83
2 3 13 43.35 8.15
2 3 13 62.24 7.44
2 3 13 55.18 6.39
2 3 14 2.35 2.4
2 3 14 5.24 2.82
2 4 -11 9.91 3.55
2 4 -10 81.49 8.27
2 4 -10 74.89 8.53
2 4 -9 86.71 8.17
2 4 -9 77.36 8.36
2 4 -8 56.21 6.78
2 4 -8 60.31 6.54
2 4 -7 9.34 2.75
2 4 -7 8.86 1.06
2 4 -6 4.02 2.12
2 4 -6 2.05 1.04
2 4 -5 26.67 4.16
2 4 -5 23.44 3.47
2 4 -5 28.59 3.07
2 4 -4 112.72 6.72
2 4 -4 101 7.57
2 4 -4 109.7 6.58
2 4 -3 236.7 9.27
2 4 -3 220.91 11.04
2 4 -3 225.64 10.06
2 4 -2 685.49 16.86
2 4 -2 665.02 20.44
2 4 -2 618.89 16.98
2 4 -2 654.13 19.56
2 4 -1 582.18 14.99
2 4 -1 571.43 18.17
2 4 -1 565.3 18.21
2 4 -1 570.38 14.23
2 4 0 36.4 4.93
2 4 0 34 3.84
2 4 0 29.69 2.64
2 4 0 33.74 4.19
2 4 1 29.93 4.34
2 4 1 30.04 2.63
2 4 1 29.11 3.98
2 4 2 401.54 15.85
2 4 2 395.84 16.49
2 4 3 401.73 9.93
2 4 3 416.26 16.36
2 4 3 409.71 16.69
2 4 4 333.49 9.03
2 4 4 348.55 15.11
2 4 4 336.65 14.99
2 4 5 645.17 15.35
2 4 5 680.84 22.51
2 4 5 632.55 21.94
2 4 6 1.5 1.7
2 4 6 0.96 0.84
2 4 7 14.99 2.26
2 4 7 20.1 4
2 4 8 294.04 11.17
2 4 8 339.69 16.17
2 4 9 18.56 2.96
2 4 9 19.02 4.09
2 4 10 56.1 5.23
2 4 10 69.82 7.68
2 4 11 14.18 3.09
2 4 11 18.06 4.24
2 4 12 96.73 7.79
2 4 12 93.01 9.3
2 4 13 7.31 2.77
2 4 13 6.76 3.16
2 4 14 4.03 2.42
2 4 14 5.69 3.41
2 4 15 5.46 2.67
2 4 16 9.25 3.73
2 5 -10 128.63 11.92
2 5 -9 29.44 5.58
2 5 -8 28.99 5.29
2 5 -7 106.67 9.39
2 5 -6 24.37 4.75
2 5 -6 23.23 3.06
2 5 -5 116.87 9.06
2 5 -5 117.28 7.34
2 5 -4 424.87 14.95
2 5 -4 396.27 16.94
2 5 -4 398.2 15.04
2 5 -3 178.73 8.64
2 5 -3 170.63 10.35
2 5 -3 168.21 8.84
2 5 -3 171.66 9.63
2 5 -2 56.41 4.77
2 5 -2 58.45 5.9
2 5 -2 63.59 4.68
2 5 -1 6.79 2.1
2 5 -1 11.55 2.24
2 5 0 195.88 8.45
2 5 1 186.58 8.1
2 5 1 184.63 12.09
2 5 2 215.09 8.92
2 5 2 242.19 13.62
2 5 3 627.88 15.69
2 5 3 640.53 23.54
2 5 4 367.15 11.01
2 5 5 18.49 2.22
2 5 6 42.46 3.58
2 5 7 119.79 6.48
2 5 7 138.36 10.42
2 5 8 151.5 7.85
2 5 8 176.73 12.02
2 5 9 224.98 10.3
2 5 9 266.56 15.26
2 5 10 107.68 7.33
2 5 10 112.23 10.05
2 5 11 0.35 1.56
2 5 11 0.18 2.19
2 5 12 47.26 5.37
2 5 12 51.65 7.41
2 5 13 24.03 4.29
2 5 13 21.42 5.3
2 5 14 35.15 5.62
2 5 14 36.64 6.52
2 5 15 30.64 5.51
2 5 15 27.13 5.91
2 5 16 42.99 6.43
2 6 -9 2.38 3.49
2 6 -8 10.61 4.24
2 6 -7 79.83 8.79
2 6 -6 44.3 6.43
2 6 -5 126.47 10.36
2 6 -5 125.66 9.04
2 6 -5 135.11 8.84
2 6 -4 15.94 3.19
2 6 -4 20.18 4.05
2 6 -4 18.15 3.63
2 6 -3 149.67 9.27
2 6 -3 161.11 10.84
2 6 -2 19.96 3.31
2 6 -2 19.65 3.7
2 6 -2 19.92 2.94
2 6 -1 96.83 7.98
2 6 -1 87.21 6.47
2 6 0 302.96 12.27
2 6 1 224.86 10.21
2 6 2 10.42 2.41
2 6 3 0.25 1.13
2 6 4 65.06 4.74
2 6 5 44.51 3.95
2 6 6 124.11 6.8
2 6 7 195.05 9.07
2 6 8 10.84 2.26
2 6 8 10.34 1.15
2 6 9 28.62 3.78
2 6 9 37.42 6.32
2 6 10 15.66 3.16
2 6 10 21.49 5.16
2 6 11 13.88 4.12
2 6 11 11.89 2.9
2 6 12 6.96 2.4
2 6 12 4.2 3.64
2 6 13 10.57 3.04
2 6 13 23.02 5.66
2 6 14 14.79 3.79
2 6 14 11.24 4.32
2 6 15 0.59 1.94
2 6 15 -4.2 3.55
2 6 16 -0.24 2.02
2 7 -7 38.63 6.8
2 7 -7 41.72 5.97
2 7 -6 28.32 4.91
2 7 -6 24.18 5.17
2 7 -5 3.35 2.94
2 7 -5 -0.83 1.63
2 7 -5 3.36 2.23
2 7 -4 60.63 6.49
2 7 -4 53.62 6.94
2 7 -3 15.76 3.37
2 7 -3 11.98 3.69
2 7 -2 17.32 3.92
2 7 -2 17.49 3.57
2 7 -1 233.2 11.89
2 7 0 96.27 7.32
2 7 1 28.01 4.08
2 7 2 16.51 3.05
2 7 3 12.52 2.74
2 7 4 205.26 9.82
2 7 5 99.35 6.68
2 7 6 117.16 7.3
2 7 7 86.13 6.28
2 7 8 89.66 6.63
2 7 9 60.12 5.63
2 7 10 8.23 2.36
2 7 10 16.45 4.86
2 7 11 63.11 6.3
2 7 11 75.92 9.64
2 7 12 75.27 7.11
2 7 12 66.48 9.26
2 7 13 14.84 3.58
2 7 13 9.97 4.51
2 7 14 8.67 2.95
2 7 14 10.48 4.85
2 7 15 4.66 2.67
2 7 15 1.45 3.37
2 7 16 4.91 2.96
2 7 16 -6.86 4.63
2 8 -6 2.18 2.17
2 8 -5 8.93 3.58
2 8 -5 17.58 3.96
2 8 -4 140.73 10.73
2 8 -4 132.76 11.66
2 8 -3 128.38 11.18
2 8 -3 120.32 9.64
2 8 -2 30.28 5.06
2 8 -1 54.83 6.22
2 8 0 5.13 2.23
2 8 1 19.91 3.81
2 8 2 38.38 5.04
2 8 3 237.44 12.53
2 8 4 145.72 9.03
2 8 5 6.34 2.15
2 8 6 9.42 2.57
2 8 7 9.1 2.44
2 8 8 0.02 1.25
2 8 9 42.69 5.03
2 8 10 13.99 3.31
2 8 11 13.26 3.22
2 8 11 17.14 5.41
2 8 12 3.23 2.07
2 8 12 11.55 5.24
2 8 13 1.81 2.18
2 8 13 7.3 4.91
2 8 14 0.19 2.09
2 8 14 0.64 3.57
2 8 15 1.92 2.25
2 9 -4 28.38 5.26
2 9 -3 14.21 3.99
2 9 -2 3.57 2.6
2 9 -1 7.28 2.79
2 9 0 13.78 3.78
2 9 1 16.14 3.88
2 9 2 20.21 4.16
2 9 3 45.11 6.02
2 9 4 71.65 6.96
2 9 5 8.36 2.55
2 9 6 4.51 2.1
2 9 7 18.02 3.46
2 9 8 30.4 4.43
2 9 9 4.45 2.13
2 9 10 12.05 3.23
2 10 -1 14.56 4.12
2 10 0 36.65 6.03
2 10 1 38.44 6.04
2 10 2 6.52 3.02
2 10 3 -0.06 1.92
3 -9 -3 33.28 6.78
3 -8 -9 15.54 4.84
3 -8 -8 -0.84 3.66
3 -8 -7 2.28 2.86
3 -8 -6 -6.98 3.8
3 -8 -5 4.03 2.71
3 -8 -4 45.71 6.6
3 -8 -3 25.19 5.34
3 -8 -3 30.74 5.44
3 -8 -2 37.61 6.37
3 -8 -2 28.49 5.51
3 -8 -1 12.3 4.65
3 -8 -1 2.05 2.35
3 -8 0 5.59 3.61
3 -8 0 2 2.46
3 -8 1 26.91 6.49
3 -8 1 20.43 4.89
3 -8 2 23.29 5.53
3 -7 -10 -2.46 4.33
3 -7 -9 -7.83 5.33
3 -7 -8 -1.09 3.26
3 -7 -7 9.43 3.56
3 -7 -6 19.67 4.24
3 -7 -5 45.55 6.06
3 -7 -4 25.42 4.48
3 -7 -4 22.72 4.36
3 -7 -3 6.78 2.61
3 -7 -3 13.14 3.69
3 -7 -3 7.06 2.95
3 -7 -2 8.39 3.2
3 -7 -2 10.3 3.12
3 -7 -1 39.61 6.22
3 -7 -1 33.84 5.4
3 -7 0 62.18 7.76
3 -7 0 45.21 6.3
3 -7 1 61.66 8.27
3 -7 1 56.21 7.47
3 -7 2 90.01 10.17
3 -7 3 13.57 4.67
3 -7 4 4.13 3.67
3 -6 -11 -0.73 4.91
3 -6 -10 -8.32 5.66
3 -6 -9 -3.64 4.21
3 -6 -8 110.59 10.91
3 -6 -7 31.79 5.71
3 -6 -6 41.04 5.87
3 -6 -5 29.26 4.9
3 -6 -4 18.97 3.88
3 -6 -4 17.29 3.41
3 -6 -3 42.81 5.24
3 -6 -3 38.28 4.99
3 -6 -3 32.92 4.91
3 -6 -2 3.87 2.31
3 -6 -2 3.29 1.93
3 -6 -2 6.95 2.86
3 -6 -1 161.89 8.95
3 -6 -1 180.11 11.5
3 -6 -1 160.35 11.02
3 -6 0 107.98 6.88
3 -6 0 135.19 10.45
3 -6 0 121.12 9.65
3 -6 1 116.74 10.17
3 -6 2 8.79 3.76
3 -6 3 16.82 4.97
3 -6 4 38.79 7.03
3 -6 5 87.53 10.61
3 -6 6 84.32 10.94
3 -5 -12 -10.32 5.59
3 -5 -11 -1.65 4.21
3 -5 -10 9.47 3.37
3 -5 -9 31.38 5.96
3 -5 -8 91.9 9.69
3 -5 -7 187.99 13.47
3 -5 -6 15.23 3.88
3 -5 -5 0.85 2.1
3 -5 -4 25.67 4.28
3 -5 -4 25.27 3.57
3 -5 -4 24.07 3.01
3 -5 -3 112.84 8.08
3 -5 -3 115.42 5.76
3 -5 -3 125.36 8.02
3 -5 -3 125.51 7.94
3 -5 -3 112.81 8.49
3 -5 -2 73.23 6.13
3 -5 -2 66.79 4
3 -5 -2 77.35 6.53
3 -5 -2 73.75 6.8
3 -5 -2 72.22 6.86
3 -5 -1 121.89 7.64
3 -5 -1 128.82 5.51
3 -5 -1 151.61 9.65
3 -5 -1 139.43 10.2
3 -5 -1 133.05 9.45
3 -5 0 136.03 7.61
3 -5 0 146.23 9.88
3 -5 0 154.57 11.4
3 -5 0 137.13 9.66
3 -5 1 7.53 1.71
3 -5 1 5.6 2.7
3 -5 2 14.52 3.75
3 -5 3 197.63 13.46
3 -5 4 58.44 7.76
3 -5 5 172.14 13.99
3 -5 6 46.09 7.72
3 -5 7 14.57 4.67
3 -5 8 18.75 6.31
3 -4 -12 15.44 5.66
3 -4 -11 0.87 3.91
3 -4 -10 62.86 8.5
3 -4 -9 -3.7 4.15
3 -4 -8 15.94 4.15
3 -4 -7 -1.26 3.19
3 -4 -7 3.22 1.57
3 -4 -6 25.07 4.33
3 -4 -5 360.2 16.56
3 -4 -4 77.43 6.95
3 -4 -4 84.39 5.46
3 -4 -3 120.92 8.21
3 -4 -3 135.22 7.29
3 -4 -3 118.94 6.62
3 -4 -3 116.07 8.15
3 -4 -2 8.91 2.29
3 -4 -2 9.4 1.28
3 -4 -2 8.79 2.16
3 -4 -2 9.98 2.45
3 -4 -2 5.84 2.14
3 -4 -1 1.56 1.29
3 -4 -1 0.22 0.43
3 -4 -1 3.5 1.92
3 -4 -1 2.2 1.94
3 -4 -1 -0.39 1.31
3 -4 0 32.62 3.66
3 -4 0 27.73 4.08
3 -4 0 35.59 4.99
3 -4 0 37.39 4.83
3 -4 1 143.02 7.28
3 -4 1 139.55 9.51
3 -4 1 137.17 10.59
3 -4 2 279.59 14.51
3 -4 2 270.22 9.35
3 -4 3 225.97 13.58
3 -4 4 118.84 10.3
3 -4 5 27.36 5.35
3 -4 6 -1.54 2.96
3 -4 7 56.69 8.36
3 -4 8 141.59 14.1
3 -4 9 93.11 12.2
3 -4 10 54.3 9.89
3 -3 -13 25.57 6.52
3 -3 -12 19.54 5.7
3 -3 -11 113.58 11.55
3 -3 -10 46.42 7.24
3 -3 -9 2.75 2.58
3 -3 -8 15.53 3.71
3 -3 -8 9.52 1.75
3 -3 -7 79.24 7.96
3 -3 -7 68.62 4.62
3 -3 -6 124.2 9.74
3 -3 -6 108.18 6.1
3 -3 -5 257.43 13.36
3 -3 -4 118.07 8.32
3 -3 -4 112.61 5.37
3 -3 -3 309.92 13.56
3 -3 -3 339.47 10.92
3 -3 -3 339.83 14.8
3 -3 -2 45.49 4.72
3 -3 -2 40.88 2.23
3 -3 -2 45.7 3.97
3 -3 -2 40.83 3.91
3 -3 -2 46.71 4.84
3 -3 -1 147.84 8.12
3 -3 -1 158.5 8.2
3 -3 -1 146.78 8.48
3 -3 -1 146.81 8.76
3 -3 0 79.93 5.73
3 -3 0 83.79 6.27
3 -3 0 94.18 7.27
3 -3 0 95.49 7
3 -3 1 461.27 14.76
3 -3 1 492.05 17.68
3 -3 1 494.81 19.17
3 -3 2 219.74 12.11
3 -3 2 238.96 13.69
3 -3 3 562.8 21.66
3 -3 4 81.06 8.11
3 -3 5 21.74 4.6
3 -3 6 177.22 9.64
3 -3 6 183.4 13.82
3 -3 7 133.87 9.12
3 -3 7 131.79 12.36
3 -3 7 125.71 5.09
3 -3 8 273.61 18.87
3 -3 9 24.36 6.28
3 -3 10 8.57 4.47
3 -3 11 -0.03 3.04
3 -2 -13 26.91 6.45
3 -2 -12 34.33 6.86
3 -2 -11 121.86 11.9
3 -2 -10 38.67 6.57
3 -2 -9 216.54 14.39
3 -2 -9 177.24 6.35
3 -2 -8 294.83 16.02
3 -2 -8 236.88 6.83
3 -2 -7 108.5 9.3
3 -2 -6 430.42 18.26
3 -2 -6 416.68 15.76
3 -2 -5 46.32 5.7
3 -2 -5 46.62 4.76
3 -2 -4 82.76 6.91
3 -2 -4 80.74 6.27
3 -2 -4 82.02 3.37
3 -2 -3 42.21 4.68
3 -2 -3 43.55 4.52
3 -2 -3 39.44 2.75
3 -2 -2 220.05 10.61
3 -2 -2 247.06 8.63
3 -2 -2 242.52 10.98
3 -2 -1 433.11 14.99
3 -2 -1 419.37 13.28
3 -2 -1 425.43 15.19
3 -2 0 304.23 11.92
3 -2 0 318.68 12.07
3 -2 0 288.67 12.78
3 -2 0 321.48 12.78
3 -2 1 1.8 1.06
3 -2 1 1.72 1.15
3 -2 1 2.85 1.47
3 -2 2 4.91 1.9
3 -2 2 3.29 1.81
3 -2 3 -0.11 1.32
3 -2 3 1.8 1.71
3 -2 4 146.6 10.63
3 -2 4 163.27 12.06
3 -2 5 166.65 12
3 -2 6 141.96 11.67
3 -2 6 123.81 3.8
3 -2 6 116.87 4.04
3 -2 7 154.72 9.91
3 -2 7 151 12.68
3 -2 7 148.82 5.76
3 -2 8 162.98 10.97
3 -2 8 172.64 14.23
3 -2 8 159.25 7
3 -2 9 44.57 7.83
3 -2 10 87.26 11.34
3 -2 11 3.78 3.68
3 -2 12 71.3 11.25
3 -1 -14 12.48 4.84
3 -1 -13 -2.33 3.42
3 -1 -12 6.08 3.94
3 -1 -11 26.97 5.79
3 -1 -10 23.27 5.36
3 -1 -9 97.81 9.32
3 -1 -8 21.12 4.66
3 -1 -7 45.18 5.98
3 -1 -7 43.51 4.46
3 -1 -6 10.45 2.19
3 -1 -6 14.81 3.48
3 -1 -5 6.09 2.44
3 -1 -5 5.5 1.71
3 -1 -4 240.74 11.98
3 -1 -4 232.74 9.68
3 -1 -3 76.76 6.33
3 -1 -3 78.43 5.29
3 -1 -2 95.22 6.81
3 -1 -2 90.57 3.6
3 -1 -2 90.01 5.66
3 -1 -2 89.03 4.08
3 -1 -1 457.48 15.93
3 -1 -1 455.18 12.98
3 -1 -1 454.2 15.26
3 -1 0 171.46 8.78
3 -1 0 177.58 8.28
3 -1 0 177.92 8.8
3 -1 1 45.95 4.21
3 -1 1 48.12 4.6
3 -1 1 45.32 4.38
3 -1 2 343.67 14.2
3 -1 3 226.69 12.03
3 -1 4 436.71 18.43
3 -1 4 425.45 19.7
3 -1 5 657.62 24.77
3 -1 5 684.42 27.12
3 -1 6 41.46 6.25
3 -1 6 42.6 2.8
3 -1 7 14.42 4.03
3 -1 7 15.83 2.05
3 -1 8 28.24 5.83
3 -1 8 29.34 3.21
3 -1 9 367.27 21.82
3 -1 9 371.55 13.6
3 -1 10 149.22 14.32
3 -1 11 40.89 8.05
3 -1 12 16.03 5.32
3 -1 13 6.21 4.43
3 0 -14 -4.31 3.96
3 0 -13 -0.31 2.89
3 0 -12 44.38 7.43
3 0 -11 46.89 7.38
3 0 -10 471.35 22.4
3 0 -9 186.74 13.23
3 0 -8 31.78 5.41
3 0 -7 26.3 4.66
3 0 -7 20.78 2.96
3 0 -6 277.43 14.25
3 0 -6 249.34 9.86
3 0 -5 334.72 15.13
3 0 -5 323.97 13.85
3 0 -5 334.23 11.1
3 0 -4 673.56 17.93
3 0 -4 688.03 21.22
3 0 -4 719.23 17.62
3 0 -3 814.55 24.3
3 0 -3 820.43 19.09
3 0 -3 829.95 19.13
3 0 -2 199.58 10.32
3 0 -2 202.93 6.93
3 0 -2 204.4 7.46
3 0 -1 15.7 2.84
3 0 -1 15.86 1.62
3 0 0 659.92 19.89
3 0 0 676.69 18.13
3 0 0 671.22 18.56
3 0 1 50.07 4.46
3 0 1 44.6 4.04
3 0 2 299.1 12.96
3 0 2 309.81 14.37
3 0 3 401.57 16.52
3 0 3 400.73 16.89
3 0 4 642.7 23.11
3 0 4 695.04 23.43
3 0 4 630.41 14.96
3 0 5 431.91 19.24
3 0 5 433.63 18.21
3 0 5 427.41 11.71
3 0 6 15.78 2.12
3 0 6 20.76 4.03
3 0 6 24.49 4.68
3 0 7 86.62 9.32
3 0 7 101.35 8.79
3 0 7 108.65 6.13
3 0 8 42.48 6.97
3 0 8 58.19 6.85
3 0 8 55.5 4.73
3 0 9 162.43 14.14
3 0 9 179.56 12.24
3 0 9 180.34 9.54
3 0 10 155.39 14.3
3 0 10 127.6 8.58
3 0 11 91.85 11.7
3 0 11 72.53 7.05
3 0 12 12.3 4.62
3 0 13 12.09 5.73
3 0 14 13.57 5.59
3 1 -14 -2.75 3.93
3 1 -13 18.23 5.47
3 1 -13 25.26 5.71
3 1 -12 19.88 5.63
3 1 -12 21.93 4.91
3 1 -11 49.86 7.57
3 1 -11 52.55 6.88
3 1 -10 20.52 4.81
3 1 -10 17.57 4.03
3 1 -9 54.44 7.05
3 1 -9 56.64 6.44
3 1 -8 14.81 3.85
3 1 -8 15.84 3.49
3 1 -7 4.85 2.19
3 1 -7 6.11 2.25
3 1 -6 178.85 11.45
3 1 -6 179.12 9.56
3 1 -6 194.79 10.52
3 1 -5 498.65 19.62
3 1 -5 522.58 16.54
3 1 -5 519.47 17.47
3 1 -4 167.99 10.08
3 1 -4 152.42 7.6
3 1 -4 161.59 8.46
3 1 -4 151.57 5.83
3 1 -3 3.72 1.95
3 1 -3 1.96 0.63
3 1 -3 2.68 1.41
3 1 -3 1.38 0.83
3 1 -2 0.83 1.46
3 1 -2 2.2 0.63
3 1 -2 3.73 1.14
3 1 -2 2.48 1.59
3 1 -1 130.83 8.17
3 1 -1 135.38 5.95
3 1 -1 152.1 9.17
3 1 0 355.58 14.89
3 1 0 325.13 13.12
3 1 1 573.61 20.21
3 1 1 560.33 16.02
3 1 2 104.75 7.36
3 1 2 96.03 7.72
3 1 2 99.29 5.81
3 1 3 64 4.64
3 1 3 67.79 6.46
3 1 3 63.8 6.32
3 1 4 2.99 1.19
3 1 4 -0.59 1.43
3 1 4 1.4 1.34
3 1 5 151.48 10.89
3 1 5 147.5 10.16
3 1 5 151.99 7.37
3 1 6 116.87 9.99
3 1 6 121.2 9.25
3 1 6 114.92 6.65
3 1 7 879.44 31.91
3 1 7 913 29.09
3 1 7 915.79 24.15
3 1 8 165.77 13.38
3 1 8 174.89 11.83
3 1 8 204.4 10.09
3 1 9 27.02 5.82
3 1 9 23.82 4.66
3 1 9 20.24 3.44
3 1 10 35.58 6.9
3 1 10 27.99 5.03
3 1 10 25.16 4.12
3 1 11 93.02 11.19
3 1 11 79.95 8.56
3 1 12 1.32 2.68
3 1 12 4.21 2.86
3 1 13 84.09 11.93
3 1 13 104.76 10.23
3 1 14 55.5 10.06
3 1 15 14.05 6.29
3 2 -14 46.46 8.38
3 2 -13 17.73 4.94
3 2 -12 20.57 5.65
3 2 -12 20.97 5.23
3 2 -11 13.71 4.74
3 2 -11 9.06 3.43
3 2 -10 18.68 4.63
3 2 -10 24.24 4.95
3 2 -9 1.2 2.63
3 2 -9 0.9 1.84
3 2 -8 79.53 8.35
3 2 -8 77.65 7.33
3 2 -7 203.28 12.97
3 2 -7 202.23 11.4
3 2 -6 110.7 9.06
3 2 -6 117.05 8.06
3 2 -6 111.65 7.89
3 2 -5 190.76 11.61
3 2 -5 190.5 9.84
3 2 -5 178.63 9.37
3 2 -4 240.31 12.63
3 2 -4 225.66 10.43
3 2 -4 244.45 10.3
3 2 -4 242.79 10.68
3 2 -3 20.01 3.68
3 2 -3 25.19 2.93
3 2 -3 20.27 2.91
3 2 -3 20.02 3.08
3 2 -2 465.43 17.38
3 2 -2 448.08 14.33
3 2 -2 458.01 13.11
3 2 -2 459.03 16.66
3 2 -1 298.93 10.87
3 2 -1 312.4 9.42
3 2 -1 297.97 13.31
3 2 0 78.7 4.94
3 2 0 78.14 6.67
3 2 1 4.2 1.92
3 2 2 21.16 3.24
3 2 2 18.69 3.51
3 2 2 19.38 2.4
3 2 3 18.62 3
3 2 3 22.28 3.82
3 2 3 21.3 2.49
3 2 4 105.11 8.42
3 2 4 116.76 7.28
3 2 5 288.45 15.46
3 2 5 301.09 14.87
3 2 5 304.42 12.37
3 2 6 273.25 15.7
3 2 6 273.63 12.01
3 2 6 276.38 14.56
3 2 7 314.84 17.86
3 2 7 321.06 16.09
3 2 7 311.17 13.41
3 2 8 -0.06 1.28
3 2 8 1.61 2.19
3 2 8 0.88 1.47
3 2 9 5.04 2.17
3 2 9 3.1 3.07
3 2 9 2.03 1.94
3 2 10 8.53 3.96
3 2 10 8.71 3.28
3 2 11 142.65 14.3
3 2 11 155.19 12.12
3 2 12 96.25 12.26
3 2 12 93.51 9.56
3 2 13 19.96 6.37
3 2 13 24.73 5.02
3 2 14 4.72 4.55
3 2 15 1.92 3.98
3 3 -12 1.93 2.83
3 3 -11 11.92 4.05
3 3 -11 8.7 3.78
3 3 -10 86.88 9.49
3 3 -10 94.02 9.31
3 3 -9 143.08 11.74
3 3 -9 139.14 10.97
3 3 -8 164.31 12.09
3 3 -8 139.83 10.45
3 3 -7 39.74 5.92
3 3 -7 37.69 5.24
3 3 -6 19.29 4.06
3 3 -6 18.14 3.72
3 3 -5 3.48 2.26
3 3 -5 0.31 1.06
3 3 -5 1.46 1.53
3 3 -5 0.98 1.25
3 3 -4 293.05 11.45
3 3 -4 281.9 12.69
3 3 -4 292.13 12.21
3 3 -4 301.53 14.55
3 3 -3 1055.8 24.46
3 3 -3 1028.59 27.54
3 3 -3 1057.63 28.07
3 3 -2 416.43 14.89
3 3 -2 416.32 11.77
3 3 -2 409.82 15.72
3 3 -2 402.81 8.43
3 3 -1 188.7 9.1
3 3 -1 192.09 6.43
3 3 -1 178.13 10.17
3 3 0 173.71 8.49
3 3 0 180.44 5.32
3 3 0 180.97 10.47
3 3 1 2.73 1.61
3 3 1 6.49 2.21
3 3 2 48.04 5.67
3 3 2 49.46 5.35
3 3 3 610.11 22.13
3 3 3 627.06 20.99
3 3 3 602.75 15.01
3 3 4 636.87 22.92
3 3 4 630.02 21.16
3 3 4 621.87 15.42
3 3 5 614.42 22.85
3 3 5 544.23 19.61
3 3 6 259.41 14.45
3 3 6 258.71 12.76
3 3 7 22.94 3.87
3 3 7 25.84 4.98
3 3 8 19.71 3.65
3 3 8 18.25 4.11
3 3 9 118.19 10.52
3 3 10 153.58 14.25
3 3 10 184.01 13.48
3 3 11 121.48 12.92
3 3 11 129.1 11.23
3 3 12 73.82 10.71
3 3 12 71.07 8.67
3 3 13 0.38 3.13
3 3 13 -0.79 2.35
3 3 14 -1.32 3.39
3 3 14 -1.6 2.25
3 3 15 12.51 5.32
3 4 -10 23.09 5.43
3 4 -10 16.85 4.66
3 4 -9 25.04 5.31
3 4 -9 22.18 4.71
3 4 -8 88.81 8.85
3 4 -8 93.99 9.3
3 4 -7 61.89 7
3 4 -7 64.28 7.45
3 4 -6 156.74 10.7
3 4 -6 185.7 8.46
3 4 -5 100.36 7.06
3 4 -5 99.3 8.23
3 4 -5 97.14 6.73
3 4 -4 155.06 8.25
3 4 -4 153.18 9.92
3 4 -4 150.68 8.82
3 4 -3 222.55 9.11
3 4 -3 209.09 11.21
3 4 -3 211.83 7.57
3 4 -3 189.76 10.44
3 4 -2 11.33 1.45
3 4 -2 14.12 3.06
3 4 -2 11.83 1.83
3 4 -2 9.93 2.56
3 4 -1 22.37 2.13
3 4 -1 21.59 3.4
3 4 -1 23.07 1.79
3 4 -1 21.04 3.53
3 4 0 10.37 1.14
3 4 0 9.88 2.28
3 4 0 12.09 2.99
3 4 1 205.06 12.47
3 4 1 183.14 11.26
3 4 2 360.23 16.73
3 4 2 404.78 17.87
3 4 3 98.95 8.49
3 4 3 101.74 8.51
3 4 4 54.23 6.49
3 4 4 57.33 6.37
3 4 4 66.83 3.38
3 4 5 0.56 1.23
3 4 5 -0.89 1.8
3 4 5 1.24 0.71
3 4 6 2.79 2.04
3 4 6 3.91 1.11
3 4 6 4.95 2.6
3 4 7 241.32 14.58
3 4 7 220.03 8.46
3 4 8 156.32 11.84
3 4 8 144.18 7.31
3 4 9 17.35 2.88
3 4 9 23.11 4.82
3 4 10 19.57 3.33
3 4 10 22.99 5.17
3 4 11 25.32 3.95
3 4 11 36.91 6.43
3 4 12 60.48 8.48
3 4 12 50.72 5.93
3 4 13 3.28 3.35
3 4 14 44.63 7.47
3 4 15 13.5 4.26
3 5 -9 4.91 3.11
3 5 -8 -2.27 2.56
3 5 -7 33.79 5.85
3 5 -6 226.01 13.91
3 5 -6 243.28 10.96
3 5 -5 44.28 5.92
3 5 -5 46.79 4.98
3 5 -4 67.81 5.56
3 5 -4 62.47 6.63
3 5 -4 72.59 5.2
3 5 -4 61.11 5.97
3 5 -3 3.61 2.28
3 5 -3 7.18 1.72
3 5 -3 2.67 1.31
3 5 -3 5.36 1.95
3 5 -2 15.49 3.29
3 5 -2 14.7 2.21
3 5 -2 15.86 2.18
3 5 -2 17.29 3.53
3 5 -1 154.63 6.47
3 5 -1 144.72 9.58
3 5 -1 147.56 6.34
3 5 -1 165.25 10.74
3 5 0 81.61 3.94
3 5 0 80.23 4.43
3 5 0 87.26 7.88
3 5 1 52.56 2.57
3 5 1 53.51 6.34
3 5 2 372.27 7.66
3 5 2 356 7.94
3 5 2 375.8 17.75
3 5 3 177.78 12.29
3 5 4 0.79 0.4
3 5 4 0.75 2.3
3 5 5 114.73 4.36
3 5 5 118.41 10.23
3 5 6 39.26 2.91
3 5 6 41.23 6.32
3 5 6 43.48 2.23
3 5 7 191.08 7.67
3 5 7 223.38 14.47
3 5 8 230.94 9.34
3 5 8 278.23 16.63
3 5 9 44.9 4.23
3 5 9 53.57 7.52
3 5 10 48.42 4.79
3 5 10 51.67 7.55
3 5 11 0.75 1.46
3 5 11 -1.56 3.13
3 5 12 203.05 15.45
3 5 12 200.61 11
3 5 13 76.85 9.7
3 5 13 57.45 6.32
3 5 14 1.58 1.98
3 5 14 5.89 3.9
3 5 15 0.28 1.87
3 5 15 3.8 3.03
3 6 -8 52.63 7.78
3 6 -7 73.17 8.67
3 6 -6 183.49 13.27
3 6 -6 181.97 10.42
3 6 -5 9.95 3.89
3 6 -5 10.04 2.46
3 6 -5 8.37 2.75
3 6 -4 -1.8 2.15
3 6 -4 1.72 1.4
3 6 -4 -0.86 1.83
3 6 -3 82.66 5.99
3 6 -3 86.55 6.19
3 6 -3 89.2 8.5
3 6 -3 88.74 7.93
3 6 -2 378.41 12.94
3 6 -2 367.12 17.2
3 6 -2 369.83 17.45
3 6 -2 361.77 12.89
3 6 -1 328.72 10.9
3 6 -1 312.83 15.51
3 6 -1 305.07 11.2
3 6 -1 303.8 16.01
3 6 0 57.62 3.82
3 6 0 54.71 4.29
3 6 0 52.98 6.86
3 6 1 106.8 6.07
3 6 1 106.96 9.8
3 6 1 115.45 5.09
3 6 2 21.78 4.89
3 6 3 6.09 1.13
3 6 3 5.08 3.16
3 6 4 166.84 5.67
3 6 4 152.42 12.31
3 6 5 111.05 4.73
3 6 5 111.03 10.52
3 6 6 33.64 2.8
3 6 6 33.61 5.97
3 6 7 97.77 5.29
3 6 7 114.08 11.08
3 6 8 1.75 1.05
3 6 8 7.02 3.68
3 6 9 2.27 1.39
3 6 9 3.4 2.71
3 6 10 2.33 1.4
3 6 10 9.63 4.13
3 6 11 5.33 2.26
3 6 11 9.79 4.11
3 6 12 24.52 3.89
3 6 12 23.1 5.75
3 6 13 48.29 5.66
3 6 13 51.42 8.37
3 6 14 6.72 2.63
3 6 14 2.61 2.8
3 6 15 -0.37 2.17
3 6 15 11.34 5.09
3 6 16 -0.88 2.42
3 6 16 6.04 4.54
3 7 -6 9.38 4.09
3 7 -5 11.43 4.05
3 7 -5 12.58 3
3 7 -4 33.99 4.53
3 7 -4 29.12 5.52
3 7 -4 30.5 5.05
3 7 -3 0.84 2.26
3 7 -3 2.88 1.55
3 7 -3 7.11 2.91
3 7 -2 132.95 10.89
3 7 -2 130.89 8.13
3 7 -2 129.86 10.82
3 7 -1 72.65 5.82
3 7 -1 68.65 8.1
3 7 0 18.7 2.55
3 7 0 17.64 2.92
3 7 0 19.31 4.73
3 7 1 4.74 1.63
3 7 1 10.8 4.01
3 7 2 39.29 6.52
3 7 3 36.54 3.26
3 7 3 39.69 7
3 7 4 14.78 2.06
3 7 4 18.48 4.92
3 7 5 107.47 5.47
3 7 5 123.6 12.07
3 7 6 10.57 1.89
3 7 6 12.21 4.49
3 7 7 26.72 2.95
3 7 7 32.25 6.57
3 7 8 83.97 5.54
3 7 8 91.92 10.83
3 7 9 80.84 5.78
3 7 9 96.85 11.03
3 7 10 45.4 4.75
3 7 10 53.44 8.43
3 7 11 3.17 1.76
3 7 11 4.39 3.83
3 7 12 13.4 3.13
3 7 12 16.51 5.28
3 7 13 13.81 3.12
3 7 13 13.23 5.27
3 7 14 8.31 3.18
3 7 14 -0.06 3.03
3 7 15 36.23 7.88
3 7 16 14.04 5.88
3 8 -4 35.57 6.59
3 8 -3 63.36 8.26
3 8 -3 71.6 8.73
3 8 -3 59.5 6.19
3 8 -2 0.17 1.43
3 8 -2 1.11 2.74
3 8 -1 2.13 1.82
3 8 -1 1.69 3.11
3 8 0 52.45 5.39
3 8 0 57.26 8.38
3 8 1 72.97 6.23
3 8 1 70.07 9.49
3 8 2 146.82 14.07
3 8 3 32.23 3.62
3 8 3 37.78 7.87
3 8 4 0.47 0.97
3 8 4 3.17 4.21
3 8 5 5.41 1.73
3 8 5 10.84 4.85
3 8 6 8.39 4.45
3 8 6 3.24 1.42
3 8 7 8.12 2.01
3 8 7 13.94 5.29
3 8 8 2.58 1.52
3 8 8 4.94 4.43
3 8 9 160.55 8.7
3 8 9 188.96 16.64
3 8 10 26.5 6.87
3 8 11 -0.68 3.08
3 8 12 -1.04 3.64
3 8 13 -0.15 3.61
3 9 -2 0.35 2.75
3 9 -1 34.92 7.13
3 9 0 35.76 5.02
3 9 0 41.25 8.1
3 9 1 72.18 6.88
3 9 1 73.42 10.76
3 9 2 35.11 4.86
3 9 2 31.71 7.43
3 9 3 26.95 7.18
3 9 4 20.62 6.79
3 9 5 2.92 4.01
3 9 6 49.97 9.82
3 9 7 46.67 9.71
3 9 8 44.94 9.3
3 9 9 15.54 6.71
3 9 10 19.11 6.75
3 10 -1 27.31 7.29
3 10 0 24.1 6.92
3 10 1 3.86 4.66
3 10 2 12.62 6.33
3 10 3 5.36 4.63
3 10 4 11.12 6.77
3 10 5 31.22 9.14
4 -8 -2 0.54 2.58
4 -8 -1 -2.28 3.46
4 -8 -1 1.92 2.86
4 -8 0 13.34 5.71
4 -8 0 24.72 5.95
4 -7 -8 6.63 4.27
4 -7 -7 33.24 6.84
4 -7 -6 17.99 5
4 -7 -5 28.39 5.72
4 -7 -3 -1.99 2.52
4 -7 -2 41.45 6.96
4 -7 -2 36.79 6.14
4 -7 -1 13.57 4.47
4 -7 -1 12.98 4.14
4 -7 0 37.11 7.17
4 -7 0 41.62 6.78
4 -7 1 42 7.49
4 -7 1 48.45 7.47
4 -7 2 19.24 5.25
4 -7 2 14.17 4.54
4 -7 3 -3.33 4
4 -7 3 -3.34 2.66
4 -6 -9 7.47 4.01
4 -6 -8 24.2 6.06
4 -6 -7 -2.67 3.33
4 -6 -6 9.23 4.26
4 -6 -5 -1.4 2.27
4 -6 -4 6.45 2.94
4 -6 -4 11.25 3.58
4 -6 -3 39.79 5.95
4 -6 -3 51.6 6.78
4 -6 -3 40.53 6.28
4 -6 -2 148.55 10.35
4 -6 -2 182.74 12.94
4 -6 -2 159.26 11.96
4 -6 -1 56.54 7.78
4 -6 -1 50.98 6.87
4 -6 0 7.77 3.8
4 -6 0 4.15 2.52
4 -6 1 1.95 2.77
4 -6 1 -0.05 2.29
4 -6 2 21.36 5.7
4 -6 2 19.24 4.57
4 -6 3 41.5 7.65
4 -6 4 50.76 8.4
4 -6 5 71.88 10.58
4 -5 -10 26.44 7.05
4 -5 -9 31.38 7.3
4 -5 -8 23.16 5.81
4 -5 -7 11.65 4.46
4 -5 -6 40.98 6.85
4 -5 -5 4.38 2.73
4 -5 -5 5.11 2.44
4 -5 -4 24.47 4.83
4 -5 -4 29.31 4.5
4 -5 -3 90.69 8.32
4 -5 -3 99.47 8.36
4 -5 -3 91.01 8.47
4 -5 -2 202.48 12.03
4 -5 -2 236.45 13.46
4 -5 -2 202.21 12.98
4 -5 -1 35.85 4.81
4 -5 -1 46.22 6.16
4 -5 -1 49.06 6.36
4 -5 0 5.94 2.44
4 -5 0 2.9 2.47
4 -5 0 1.93 1.95
4 -5 1 21.35 4.84
4 -5 1 25.5 4.94
4 -5 2 85.24 9.41
4 -5 2 88.17 8.92
4 -5 3 92.38 10.37
4 -5 4 14.22 4.39
4 -5 5 93.45 11.45
4 -5 6 16.32 6.21
4 -5 7 16.86 5.68
4 -4 -11 29.03 7.56
4 -4 -10 58.47 9.72
4 -4 -9 6.18 3.85
4 -4 -8 1.71 3
4 -4 -7 2.23 2.93
4 -4 -6 168.3 13.32
4 -4 -5 153.15 11.76
4 -4 -5 154.53 8.09
4 -4 -4 47.83 6.25
4 -4 -4 52.23 5.07
4 -4 -3 19.43 3.9
4 -4 -3 25.6 3.92
4 -4 -2 8.48 2.74
4 -4 -2 11.67 2.89
4 -4 -2 6.45 2.61
4 -4 -1 19.92 3.53
4 -4 -1 19.53 3.69
4 -4 -1 21.56 4.14
4 -4 0 109.96 8
4 -4 0 109.8 9.19
4 -4 0 100.54 9.56
4 -4 0 108.21 9.13
4 -4 1 98.59 7.16
4 -4 1 123.24 10.17
4 -4 1 122.3 9.77
4 -4 2 156.52 12.13
4 -4 3 75.29 8.87
4 -4 4 8.2 3.88
4 -4 5 10.46 4.58
4 -4 6 5.16 3.91
4 -4 7 63.53 10
4 -4 8 80.03 11.71
4 -4 9 66.83 11.11
4 -3 -11 10.21 5.33
4 -3 -10 20.28 5.61
4 -3 -9 5.71 4.1
4 -3 -8 12.68 4.49
4 -3 -7 17.07 4.84
4 -3 -6 46.61 6.9
4 -3 -5 124.18 10.37
4 -3 -5 109.26 4.87
4 -3 -4 2.95 2.34
4 -3 -4 8.86 1.69
4 -3 -3 29.1 4.62
4 -3 -3 25.67 1.61
4 -3 -3 30.73 3.46
4 -3 -2 67.2 6.64
4 -3 -2 67.25 5.71
4 -3 -2 65.56 6.71
4 -3 -1 220.52 12.07
4 -3 -1 242.59 12.13
4 -3 -1 237.88 12.83
4 -3 0 136.89 9.05
4 -3 0 157.91 10.2
4 -3 0 140.19 9.7
4 -3 1 212.89 10.93
4 -3 1 223.21 13.03
4 -3 1 235.83 14.68
4 -3 1 220.15 12.57
4 -3 2 27.18 5
4 -3 3 29.06 5.48
4 -3 4 149.41 12.32
4 -3 5 348.47 20.45
4 -3 6 123.3 12.34
4 -3 7 80.67 10.73
4 -3 8 5.57 3.75
4 -3 9 8.65 4.65
4 -3 10 14.97 6.23
4 -2 -12 4.42 4.79
4 -2 -11 8.42 4.44
4 -2 -10 163.71 14.7
4 -2 -9 51.43 8.31
4 -2 -8 131.64 12.24
4 -2 -7 71.68 8.7
4 -2 -6 26.94 5.24
4 -2 -5 -0.39 1.7
4 -2 -4 25.22 4.65
4 -2 -4 22.79 2.35
4 -2 -4 24.92 3.78
4 -2 -3 174.56 11.26
4 -2 -3 167.96 5.56
4 -2 -3 179.26 7.05
4 -2 -2 327.41 15.39
4 -2 -2 332.57 11.92
4 -2 -2 336.1 14.91
4 -2 -1 204.25 11.44
4 -2 -1 206.38 10.03
4 -2 -1 187.52 10.91
4 -2 0 37.78 4.91
4 -2 0 38.8 4.67
4 -2 0 41.05 5.12
4 -2 1 38.25 4.51
4 -2 1 52.75 6.02
4 -2 1 46.07 5.47
4 -2 2 30.9 4.79
4 -2 3 96.17 9.02
4 -2 4 182.19 13.19
4 -2 5 157.14 12.88
4 -2 6 130.76 12.28
4 -2 7 18.79 5.06
4 -2 8 0.15 2.8
4 -2 9 0.37 3.12
4 -2 10 28 7.02
4 -2 11 86.75 12.62
4 -1 -12 6.49 3.74
4 -1 -11 60.27 9.11
4 -1 -10 37.49 7.06
4 -1 -9 9.12 4.52
4 -1 -8 41.52 6.95
4 -1 -7 20.49 4.81
4 -1 -7 16.23 2.97
4 -1 -6 35.65 5.79
4 -1 -6 44.4 4.69
4 -1 -5 99.88 8.97
4 -1 -5 100.43 7
4 -1 -5 91.87 5.79
4 -1 -4 238.26 13.79
4 -1 -4 236.75 10.71
4 -1 -4 231.27 8.58
4 -1 -3 430.84 18.44
4 -1 -3 441.47 11.78
4 -1 -2 101.21 8.24
4 -1 -2 97 4.01
4 -1 -2 89.69 4.76
4 -1 -1 59.94 6.33
4 -1 -1 63.21 4.83
4 -1 -1 66.2 6.16
4 -1 0 5.42 2.22
4 -1 0 7.11 2.04
4 -1 0 5.74 2.07
4 -1 1 251.04 12.49
4 -1 1 220.63 11.46
4 -1 1 243.66 12.01
4 -1 2 294.44 14.79
4 -1 2 324.28 14.16
4 -1 3 488.7 20.76
4 -1 4 179.63 12.77
4 -1 5 1.04 2.28
4 -1 6 25.4 5.47
4 -1 7 64.06 8.93
4 -1 8 122.36 12.65
4 -1 9 61.41 9.63
4 -1 10 43.59 8.55
4 -1 11 20.44 6.45
4 -1 12 3.58 4.16
4 0 -13 14.49 4.55
4 0 -12 13.34 5.36
4 0 -12 11.41 3.77
4 0 -11 24.5 6.14
4 0 -11 34.58 5.6
4 0 -10 33.55 6.45
4 0 -10 40.36 5.79
4 0 -9 18.86 5.13
4 0 -9 13.89 3.63
4 0 -8 28.21 5.67
4 0 -8 24.76 4.14
4 0 -8 21.13 3.3
4 0 -7 46.5 6.89
4 0 -7 43.58 4.95
4 0 -7 34.27 3.95
4 0 -6 122.1 10.51
4 0 -6 124.35 7.75
4 0 -6 114.99 6.92
4 0 -5 1.79 1.7
4 0 -5 1.88 1.27
4 0 -5 1.72 1.21
4 0 -4 119.15 9.71
4 0 -4 120.72 6.54
4 0 -4 116.34 6.45
4 0 -3 26.35 4.54
4 0 -3 26.58 2.75
4 0 -3 30.5 3.11
4 0 -2 -0.29 1.47
4 0 -2 0.86 0.77
4 0 -1 101.9 8.24
4 0 -1 94.45 4.39
4 0 0 307.17 14.41
4 0 0 314.56 12.54
4 0 0 304.9 12.96
4 0 1 242.37 11.87
4 0 1 229.93 11.12
4 0 2 34.49 4.73
4 0 2 38.04 4.37
4 0 3 161.56 10.95
4 0 4 0.54 1.76
4 0 5 1.48 2.53
4 0 5 0.22 2.31
4 0 6 408.59 21.15
4 0 6 446.44 20.8
4 0 6 398.69 11.8
4 0 7 152.14 13.22
4 0 7 130.18 6.45
4 0 8 155.35 14.16
4 0 8 161.79 7.81
4 0 9 20.02 5.55
4 0 10 41.51 8.29
4 0 11 -1.03 2.68
4 0 12 28.77 7.78
4 0 13 56.25 10.7
4 1 -13 11.08 4.95
4 1 -12 8.64 3.94
4 1 -12 21.56 5.24
4 1 -11 -5.99 4.58
4 1 -11 5.64 3.37
4 1 -10 81.21 10.11
4 1 -10 87.04 8.7
4 1 -9 82.91 9.62
4 1 -9 78.69 7.83
4 1 -8 156.43 12.85
4 1 -8 155.11 10.56
4 1 -8 145.67 8.16
4 1 -7 243.93 15.61
4 1 -7 234.31 12.19
4 1 -7 225.9 9.61
4 1 -6 105.24 9.81
4 1 -6 96.1 7.18
4 1 -6 95.4 5.64
4 1 -5 136.32 10.78
4 1 -5 132.17 7.92
4 1 -5 127.21 8.76
4 1 -5 124.86 6.02
4 1 -4 91.89 8.7
4 1 -4 98.08 4.85
4 1 -4 99.11 6.48
4 1 -3 3.58 2.38
4 1 -3 3.47 1.46
4 1 -2 183.12 11.56
4 1 -2 180.31 8.04
4 1 -1 168.78 10.78
4 1 -1 170.04 7.34
4 1 -1 186.59 11.94
4 1 0 1478.11 40.59
4 1 1 745.38 26.1
4 1 1 646.7 20
4 1 2 11.39 2.8
4 1 2 11.52 3.47
4 1 2 10.72 2.31
4 1 3 1.2 1.48
4 1 3 5.19 2.67
4 1 3 1.06 1.21
4 1 4 23.38 3.09
4 1 4 27.43 4.93
4 1 4 23.81 4.63
4 1 5 277.12 16.33
4 1 5 242.12 14.87
4 1 5 266.43 10.96
4 1 6 82.75 9.47
4 1 6 73.51 8.2
4 1 6 76.23 5.68
4 1 7 175.78 14.08
4 1 7 160.89 12.41
4 1 7 179.28 9.05
4 1 8 108.13 11.65
4 1 8 85.18 9.09
4 1 8 90.97 6.69
4 1 9 21.53 3.51
4 1 9 26.66 6.33
4 1 9 20.92 4.9
4 1 10 31.87 4.61
4 1 10 32.4 7.07
4 1 10 33.64 6.22
4 1 11 11.3 5.04
4 1 11 23.87 5.73
4 1 12 11.78 5.67
4 1 12 11.68 4.57
4 1 13 16.76 6.51
4 1 13 18.41 5.3
4 1 14 53.62 10.8
4 2 -13 21.39 6.41
4 2 -12 -1.25 3.07
4 2 -11 29.71 6.81
4 2 -11 19.12 4.6
4 2 -10 17.95 5.18
4 2 -10 15.29 4.34
4 2 -9 1.81 3.14
4 2 -9 2.9 2.76
4 2 -8 173.62 13.87
4 2 -8 177.8 11.76
4 2 -7 99.03 9.99
4 2 -7 97.32 8.14
4 2 -6 16.05 4.19
4 2 -6 14.21 3.02
4 2 -6 10.35 1.77
4 2 -5 70.52 7.92
4 2 -5 64.54 5.99
4 2 -5 63.24 5.9
4 2 -5 65.21 3.7
4 2 -4 34.43 5.39
4 2 -4 37.51 4.46
4 2 -4 31.73 3.96
4 2 -4 33.61 2.17
4 2 -3 63.41 7
4 2 -3 70.22 5.65
4 2 -3 67.31 5.41
4 2 -3 79.31 7.35
4 2 -2 35.79 5.42
4 2 -2 36.92 3.9
4 2 -2 41.46 5.54
4 2 -1 95.42 6.16
4 2 -1 105.58 8.75
4 2 0 133.64 10.09
4 2 1 516.86 21.28
4 2 2 1585.65 43.22
4 2 2 1557.54 35.15
4 2 3 234.76 14.2
4 2 3 257.06 12.31
4 2 3 230.46 10.09
4 2 4 135.93 10.9
4 2 4 141.02 8.86
4 2 4 136.26 7.69
4 2 5 39.13 6.02
4 2 5 44.38 6.38
4 2 5 41.47 4.74
4 2 6 51.94 7.38
4 2 6 59.66 7.39
4 2 6 65.07 5.93
4 2 7 8.56 2.47
4 2 7 10.52 3.74
4 2 7 6.8 2.91
4 2 8 2.14 1.34
4 2 8 6.28 3.97
4 2 8 2.66 2.61
4 2 9 75.35 10.13
4 2 9 76.14 8.81
4 2 9 85.16 7.58
4 2 10 96.19 12.01
4 2 10 91.32 10.02
4 2 10 106.03 8.93
4 2 11 173.39 16.94
4 2 11 163.17 13.42
4 2 12 1.8 3.48
4 2 12 0.64 2.69
4 2 13 9.23 5.25
4 2 13 3.39 2.84
4 2 14 1.13 3.34
4 2 14 3.95 3.14
4 3 -13 -2.57 4.53
4 3 -12 14.52 5.57
4 3 -11 30.83 6.72
4 3 -11 34.77 6.66
4 3 -10 23.16 5.89
4 3 -10 17.85 4.77
4 3 -9 25.11 5.61
4 3 -9 30.49 5.61
4 3 -8 1.32 2.77
4 3 -8 4.05 2.63
4 3 -7 1.41 2.53
4 3 -7 -1.2 2.25
4 3 -6 29.11 5.47
4 3 -6 21.51 4.13
4 3 -5 24.91 3.69
4 3 -5 28.86 5.24
4 3 -5 31.97 4.62
4 3 -5 38.19 4.65
4 3 -4 129.13 8.79
4 3 -4 124.54 7.59
4 3 -4 118.42 3.64
4 3 -4 129.97 9.08
4 3 -4 123.93 10.18
4 3 -3 98.14 7.38
4 3 -3 83.21 5.75
4 3 -3 84.64 7.64
4 3 -2 166.06 9.42
4 3 -2 166.66 7.59
4 3 -2 159.45 10.71
4 3 -1 0.06 1.15
4 3 -1 0.72 1.51
4 3 0 -0.59 1.89
4 3 1 11.46 3.23
4 3 2 329.08 17.05
4 3 3 735.36 27.26
4 3 3 729.89 24.97
4 3 3 722.03 19.45
4 3 4 114.48 10.15
4 3 4 122.74 9.2
4 3 4 109.47 6.35
4 3 5 41.23 6.39
4 3 5 40.18 5.25
4 3 5 42.71 4.04
4 3 6 95.81 9.74
4 3 6 90.59 7.91
4 3 7 69.64 7.05
4 3 7 60.24 7.94
4 3 8 44.87 5.86
4 3 8 52.88 7.63
4 3 9 70.1 8.88
4 3 10 166.81 13.8
4 3 11 30.92 7.06
4 3 11 41.94 7.16
4 3 12 9.04 5.03
4 3 12 6.15 3.7
4 3 13 115.25 14.55
4 3 13 132.83 12.92
4 3 14 7.82 5
4 3 14 -0.7 3.07
4 4 -11 48.6 8.41
4 4 -10 7.02 3.79
4 4 -10 15.4 4.72
4 4 -9 2.42 2.81
4 4 -9 1.7 2.94
4 4 -8 28.06 5.97
4 4 -8 27.11 5.49
4 4 -7 61.63 8.13
4 4 -7 78.5 8.31
4 4 -6 61.19 7.08
4 4 -6 70.06 5.98
4 4 -5 236.48 13.54
4 4 -5 236.04 11.67
4 4 -5 237.53 12.31
4 4 -4 114.28 4.25
4 4 -4 121.99 9.28
4 4 -4 127.56 7.68
4 4 -4 127.52 9.3
4 4 -3 153.46 9.97
4 4 -3 142.44 7.51
4 4 -3 139.01 10.15
4 4 -2 46.11 5.35
4 4 -2 55.74 4.06
4 4 -2 46.16 5.88
4 4 -1 40.22 4.82
4 4 -1 41.69 3.01
4 4 -1 42.09 5.84
4 4 0 277.6 15.45
4 4 1 210.3 13.76
4 4 2 404.25 19.73
4 4 3 68.97 8.14
4 4 4 1.24 2.43
4 4 4 6.03 1.53
4 4 5 6.44 3.19
4 4 5 4.45 1.39
4 4 6 62.9 8.24
4 4 6 49.34 4.06
4 4 7 182.09 14.29
4 4 8 12.85 4.1
4 4 9 89.9 10.4
4 4 10 0.41 2.48
4 4 11 6.1 3.73
4 4 12 9.15 4.24
4 4 13 12.91 4.87
4 4 14 51.38 9.02
4 4 15 26.97 6.79
4 5 -8 19.25 4.66
4 5 -7 29.91 5.61
4 5 -6 10.7 3.71
4 5 -5 27.58 5.24
4 5 -5 26.42 4.24
4 5 -4 8.83 3.32
4 5 -4 6.95 2.54
4 5 -4 3.17 1.49
4 5 -4 4.9 1.17
4 5 -3 1.24 0.58
4 5 -3 2.92 2.04
4 5 -3 6.6 2.66
4 5 -3 3.23 1.4
4 5 -2 4.68 2.47
4 5 -2 7.34 3.1
4 5 -2 4.57 1.35
4 5 -1 106.7 8.59
4 5 -1 113.62 5.1
4 5 -1 108.09 9.67
4 5 0 250.43 6.56
4 5 0 253.56 15.22
4 5 1 17.11 4.18
4 5 2 32.97 5.61
4 5 3 17.49 4.35
4 5 4 67.26 8.33
4 5 5 142.24 12.36
4 5 6 311.23 18.71
4 5 6 308.97 9.68
4 5 7 43.61 7.23
4 5 7 41.35 3.33
4 5 8 3.21 3.05
4 5 9 87.35 10.36
4 5 10 39.95 7.47
4 5 11 71.97 9.99
4 5 12 8.87 4.64
4 5 13 34.34 7.34
4 5 14 5.09 4.35
4 5 15 0.99 3.3
4 6 -7 3.06 3.24
4 6 -6 7.71 3.76
4 6 -5 0.76 2.45
4 6 -4 17.44 4.49
4 6 -4 17.02 3.9
4 6 -3 160.38 11.93
4 6 -3 153.58 6.55
4 6 -3 152.2 11.53
4 6 -2 105.69 9.33
4 6 -2 118.04 5.3
4 6 -2 109.74 9.88
4 6 -1 60.62 4
4 6 -1 56.03 7.35
4 6 0 9.51 3.46
4 6 0 9.12 1.25
4 6 1 22.45 5.02
4 6 2 23.5 4.88
4 6 3 26.91 5.5
4 6 4 119.08 11.51
4 6 5 73.13 9.39
4 6 6 45.2 7.37
4 6 7 -1.81 3.26
4 6 8 -2.28 3.21
4 6 8 0.38 0.66
4 6 9 2.18 2.62
4 6 9 6.44 1.43
4 6 10 11.86 4.65
4 6 11 31.04 7.08
4 6 12 1.95 3.18
4 6 13 76.1 10.99
4 6 14 12.37 5.34
4 6 15 1.66 3.93
4 6 16 7.38 4.78
4 7 -5 13.99 4.15
4 7 -4 63.22 8.22
4 7 -3 11.56 3.73
4 7 -3 6.86 3.24
4 7 -2 167.4 12.67
4 7 -2 145.32 12.06
4 7 -1 18.04 2.52
4 7 -1 11.66 4.35
4 7 0 1.03 2.22
4 7 1 86.8 10.05
4 7 2 151.41 13.45
4 7 3 100.64 11.2
4 7 4 82.38 10.32
4 7 5 14.78 4.97
4 7 6 -0.79 2.5
4 7 7 26.95 6.6
4 7 8 256.74 19.01
4 7 9 29 6.77
4 7 10 0.15 3.17
4 7 11 -1.76 2.47
4 7 12 6.28 4.53
4 7 13 4.67 4.21
4 7 14 2.67 4.2
4 8 -2 1.74 2.64
4 8 -1 -1.68 2.73
4 8 0 59.64 8.79
4 8 1 32.55 6.88
4 8 2 11.26 4.71
4 8 3 6.14 3.97
4 8 4 0.13 2.76
4 8 5 38.18 7.96
4 8 6 9.64 5.36
4 8 7 4.24 3.34
4 8 8 18.18 6.75
4 8 9 42.06 8.59
4 8 10 10.46 5.28
4 8 11 -3.62 3.48
4 8 12 6.62 5.19
4 9 -1 10.85 5.35
4 9 0 36.53 7.95
4 9 1 23.23 6.39
4 9 2 1.86 3.13
4 9 3 -2.15 3.45
4 9 4 51.48 10.04
4 9 5 80.33 12.2
4 9 6 26.24 7.62
4 9 7 5.81 4.54
4 9 8 6.72 5.65
4 9 9 0.29 3.72
4 10 0 14.66 6.24
4 10 1 -1.67 4.38
4 10 2 6.02 4.68
4 10 3 1.71 4.25
4 10 4 15.59 6.32
5 -6 -7 1.4 3.26
5 -6 -6 0.02 3.36
5 -6 -5 5 3.88
5 -6 -4 28.28 5.69
5 -6 -2 28.78 5.9
5 -6 -1 12.97 4.5
5 -6 0 -0.62 3.03
5 -6 1 -5.98 4.54
5 -6 1 -0.38 2.53
5 -6 2 13.95 5.81
5 -6 3 58.3 10.07
5 -6 4 37.45 8.65
5 -5 -8 1.44 3.76
5 -5 -7 37.92 7.71
5 -5 -6 17.59 5.63
5 -5 -5 15.76 4.93
5 -5 -4 30.39 5.75
5 -5 -3 20.41 4.63
5 -5 -2 -0.28 1.89
5 -5 -2 5.34 3.2
5 -5 -1 2.04 2.29
5 -5 -1 -4.42 3.96
5 -5 -1 1.73 2.99
5 -5 0 75.19 9.52
5 -5 0 55.3 7.76
5 -5 1 94.88 11.07
5 -5 1 60.61 7.94
5 -5 2 113.22 12.54
5 -5 2 90.69 10.03
5 -5 3 24.36 6.55
5 -5 3 21.35 5.46
5 -5 4 24.38 6.78
5 -5 5 5.82 4.75
5 -5 6 39.73 9.21
5 -4 -9 0.17 3.65
5 -4 -8 12.12 5.25
5 -4 -7 50.89 8.62
5 -4 -6 165.68 14.4
5 -4 -5 3.44 2.95
5 -4 -4 9.82 3.53
5 -4 -3 -0.41 2.24
5 -4 -2 14.9 3.97
5 -4 -2 23.93 4.6
5 -4 -2 11.3 3.44
5 -4 -1 9.57 3.26
5 -4 -1 10.94 3.66
5 -4 -1 8.67 3.45
5 -4 0 47.4 5.93
5 -4 0 49.73 7.19
5 -4 0 37 6.12
5 -4 1 92.12 9.2
5 -4 1 79.59 7.32
5 -4 2 50.06 8.06
5 -4 2 45.68 6.94
5 -4 3 8.59 4.25
5 -4 3 7.84 3.59
5 -4 4 18.37 5.73
5 -4 5 3.3 3.57
5 -4 6 44.2 9.14
5 -4 7 47.1 9.3
5 -3 -9 29.61 7.75
5 -3 -8 19.46 6.47
5 -3 -7 64.07 9.44
5 -3 -6 75.07 9.62
5 -3 -5 23.65 5.5
5 -3 -4 39.58 6.39
5 -3 -3 41.41 6.32
5 -3 -3 39.5 4.24
5 -3 -2 147.63 11.3
5 -3 -2 165.15 10.04
5 -3 -2 173.13 12.01
5 -3 -1 40.24 5.81
5 -3 -1 51.63 6.21
5 -3 -1 43.01 6.23
5 -3 0 76.05 7.65
5 -3 0 73.44 7.84
5 -3 0 74.79 7.9
5 -3 1 18.22 3.87
5 -3 1 27.35 5.44
5 -3 1 22.67 4.55
5 -3 2 6.35 3.01
5 -3 2 2.84 2.95
5 -3 3 51.79 7.96
5 -3 3 58.67 7.39
5 -3 4 145.46 13.55
5 -3 5 146.42 14.32
5 -3 6 17.77 5.93
5 -3 7 22.2 6.37
5 -3 8 -0.42 4.19
5 -3 9 20.2 7.17
5 -2 -11 4.55 3.04
5 -2 -10 40.26 8.83
5 -2 -10 35.24 5.55
5 -2 -9 32 7.23
5 -2 -9 25.9 4.43
5 -2 -8 2.7 3.24
5 -2 -8 2.76 2.05
5 -2 -7 3.43 3.06
5 -2 -7 1.36 1.56
5 -2 -6 21.15 5.33
5 -2 -6 23.59 3.11
5 -2 -5 43.02 7.01
5 -2 -5 38.86 3.4
5 -2 -4 48.78 7.02
5 -2 -4 44.85 3.08
5 -2 -3 11.52 3.64
5 -2 -3 12.36 1.7
5 -2 -2 69.76 8
5 -2 -2 67.29 5.28
5 -2 -1 9.88 3.24
5 -2 -1 17.49 3.32
5 -2 -1 13.31 3.74
5 -2 0 28.72 4.76
5 -2 0 31.72 4.86
5 -2 0 29.05 4.94
5 -2 1 13.74 3.63
5 -2 1 12.94 3.59
5 -2 2 89.55 9.2
5 -2 2 83.97 8.31
5 -2 3 65.56 8.49
5 -2 3 71.25 7.7
5 -2 4 185.27 14.8
5 -2 5 89.6 10.85
5 -2 6 1.49 2.91
5 -2 7 20.1 6.25
5 -2 8 41.42 8.7
5 -2 9 158.66 16.85
5 -2 10 20.85 6.66
5 -1 -13 9.44 4.46
5 -1 -12 10.01 4.15
5 -1 -11 15.01 4.19
5 -1 -10 55.07 9.44
5 -1 -10 61.05 7.37
5 -1 -9 89.82 11.47
5 -1 -9 105.79 9.04
5 -1 -8 1.23 3.27
5 -1 -8 5.95 2.55
5 -1 -7 19.75 5.5
5 -1 -7 27.28 3.87
5 -1 -6 23.29 5.5
5 -1 -6 26.61 3.56
5 -1 -5 256.62 16.5
5 -1 -5 244.26 10
5 -1 -5 244.61 12.19
5 -1 -4 201.58 14.01
5 -1 -4 183.26 7.74
5 -1 -3 35.5 5.88
5 -1 -3 31.25 2.68
5 -1 -2 35.46 5.6
5 -1 -1 2.7 2.39
5 -1 -1 0.94 1.49
5 -1 -1 1.03 1.9
5 -1 0 103.69 7.86
5 -1 0 93.27 8.16
5 -1 0 105.12 9.06
5 -1 1 208.15 12.35
5 -1 1 212.6 12.43
5 -1 2 88.61 8.59
5 -1 2 84.16 7.86
5 -1 3 62.49 7.82
5 -1 3 67.83 7.22
5 -1 4 42.65 6.87
5 -1 5 -2 2.81
5 -1 6 6.06 3.06
5 -1 7 13.64 5.06
5 -1 8 38.46 7.92
5 -1 9 126.99 14.52
5 -1 10 6.49 4.93
5 -1 11 6.39 4.71
5 0 -12 9.47 4.05
5 0 -11 15.13 4.33
5 0 -10 0.1 3.31
5 0 -10 0.72 2.37
5 0 -9 -3.36 4.07
5 0 -9 7.89 3.02
5 0 -8 42.5 7.97
5 0 -8 48.76 5.91
5 0 -7 49.54 7.95
5 0 -7 37.58 4.78
5 0 -6 71.28 9.27
5 0 -6 61.26 5.69
5 0 -5 32.21 6.14
5 0 -5 31.95 3.9
5 0 -5 33.5 3.92
5 0 -4 26.2 5.29
5 0 -4 35.14 3.74
5 0 -3 38.61 6.14
5 0 -3 33.97 3.39
5 0 -2 13.06 3.49
5 0 -2 16.11 2.14
5 0 -1 67.38 7.65
5 0 0 125.49 9
5 0 0 126.81 10.21
5 0 1 130.55 9.4
5 0 1 131.18 9.3
5 0 2 37.55 5.69
5 0 2 35.49 4.88
5 0 3 3.95 2.62
5 0 3 2.3 1.81
5 0 4 6.09 2.7
5 0 4 12.9 3.41
5 0 5 70.76 9.03
5 0 6 298.97 19.23
5 0 7 99.19 11.59
5 0 8 20.54 6.19
5 0 9 10.57 4.81
5 0 10 26.56 7.03
5 0 11 35.81 8.66
5 0 12 50.08 10.38
5 1 -11 6.05 4.69
5 1 -11 -1.2 2.81
5 1 -10 1.54 3.51
5 1 -10 2.62 2.58
5 1 -9 76.83 10.35
5 1 -9 80.03 8.33
5 1 -8 59.55 8.94
5 1 -8 48.26 6.2
5 1 -7 24.74 5.89
5 1 -7 23.88 4.13
5 1 -6 2.78 2.47
5 1 -6 3.5 2.04
5 1 -5 0.94 2.83
5 1 -5 2.29 1.8
5 1 -5 3.54 1.31
5 1 -4 16.95 4.42
5 1 -4 18.6 3.07
5 1 -3 97.18 9.61
5 1 -3 84.23 6
5 1 -2 217.21 14.14
5 1 -2 207.42 9.22
5 1 -1 108.24 9.72
5 1 1 99.99 10.28
5 1 1 104.98 7.96
5 1 2 0.49 2.37
5 1 2 1.55 1.71
5 1 3 82.68 8.48
5 1 3 77.52 9.1
5 1 3 79.28 6.99
5 1 4 99.84 10.05
5 1 4 122.03 11.42
5 1 4 113.56 8.51
5 1 5 167.83 13.88
5 1 5 181.22 14.11
5 1 6 122.97 12.19
5 1 6 144.12 12.67
5 1 6 117.27 7.26
5 1 7 23.8 3.36
5 1 7 30.52 6.8
5 1 7 27.22 5.93
5 1 8 44.55 8.49
5 1 8 40.53 7.18
5 1 9 19.38 6.07
5 1 9 20.5 5.42
5 1 10 73.22 10.89
5 1 10 74.15 9.81
5 1 11 40.25 9.35
5 1 11 47.45 8.05
5 1 12 29.14 7.87
5 2 -11 16.16 5.49
5 2 -11 24.12 5.43
5 2 -10 40.85 8.12
5 2 -10 34.23 6.13
5 2 -9 30.82 7.2
5 2 -9 24.51 4.97
5 2 -8 82.49 10.77
5 2 -8 90.16 8.65
5 2 -7 -0.38 2.92
5 2 -7 -0.37 1.72
5 2 -6 3.29 3.25
5 2 -6 -1.05 1.83
5 2 -5 94.58 10.24
5 2 -5 71.05 6.67
5 2 -4 225.88 15.31
5 2 -4 230.35 11.74
5 2 -3 165.04 9.41
5 2 -3 173.01 13
5 2 -2 77.86 6.1
5 2 -2 86.28 8.98
5 2 -1 57.99 7.57
5 2 0 4.62 2.94
5 2 1 26.6 5.47
5 2 2 123.94 11.18
5 2 2 145.28 9.02
5 2 3 69.02 8.48
5 2 3 58.3 5.61
5 2 4 116.59 11.17
5 2 4 101.8 7.6
5 2 5 75.08 9.09
5 2 5 80.38 7.09
5 2 5 69.68 6.46
5 2 6 36.83 4.95
5 2 6 45.2 7.62
5 2 6 43.84 7.17
5 2 7 12.47 3.01
5 2 7 14.42 4.3
5 2 7 22.8 5.53
5 2 8 93.94 11.67
5 2 8 84.96 10.25
5 2 8 86.55 7.55
5 2 9 58.93 9.87
5 2 9 60.11 8.73
5 2 10 42.28 8.48
5 2 10 46.24 8.04
5 2 11 9.97 5.56
5 2 11 8.03 3.73
5 2 12 -0.2 3.62
5 2 12 4.23 3.56
5 2 13 17.72 6.56
5 2 13 22.09 6.25
5 2 14 1.45 3.1
5 3 -10 15.08 5.73
5 3 -10 12.39 4.18
5 3 -9 1.77 3.2
5 3 -9 1.61 2.62
5 3 -8 6 3.94
5 3 -8 6.98 3.39
5 3 -7 -1.24 3.11
5 3 -7 3.66 2.82
5 3 -6 34.78 6.79
5 3 -6 29.17 5.05
5 3 -5 55.17 7.8
5 3 -5 42.52 5.57
5 3 -4 161.77 10.4
5 3 -4 156.77 9.5
5 3 -4 174.94 12.16
5 3 -4 157.25 12.74
5 3 -3 3.69 2.21
5 3 -3 1.73 2.54
5 3 -2 7.55 2.42
5 3 -2 10.36 3.21
5 3 -1 39.91 4.66
5 3 -1 44.65 6.58
5 3 0 97.95 9.81
5 3 1 111.33 10.69
5 3 2 58.54 7.93
5 3 3 96.37 10.26
5 3 3 100.81 7.14
5 3 4 2.95 1.78
5 3 4 6 3.57
5 3 4 3.38 1.65
5 3 5 11.41 3.39
5 3 5 13.87 4.36
5 3 5 12.7 2.68
5 3 6 122.07 12.16
5 3 6 119.84 9.64
5 3 6 121.87 8.2
5 3 7 114.04 11.94
5 3 7 113.45 9.47
5 3 8 187.87 15.47
5 3 9 20.81 5.6
5 3 10 2.53 3.2
5 3 11 -3.49 3.94
5 3 12 53.08 8.91
5 3 13 42.03 9.53
5 3 13 46.7 8.35
5 3 14 17.97 5.91
5 4 -10 -1.2 4
5 4 -9 7.94 4.35
5 4 -9 7.64 3.96
5 4 -8 31.27 6.57
5 4 -8 35.69 6.09
5 4 -7 53.82 7.17
5 4 -6 34.58 5.72
5 4 -5 12.89 3.62
5 4 -5 18.26 4.08
5 4 -4 23.16 4.15
5 4 -4 20.8 4.3
5 4 -3 22.42 4.32
5 4 -3 22.81 3.23
5 4 -3 23.16 4.76
5 4 -2 183.78 11.48
5 4 -2 199.02 13.87
5 4 -1 88.07 9.18
5 4 0 29.61 5.78
5 4 1 37.01 6.54
5 4 2 2.43 2.83
5 4 3 21.42 5.29
5 4 4 30.92 6.21
5 4 5 47.39 7.91
5 4 5 41.7 4.34
5 4 6 62.54 9.13
5 4 6 60.51 5.24
5 4 7 62.91 9.12
5 4 7 53.82 5.12
5 4 8 23.1 5.97
5 4 9 24.1 6.08
5 4 10 -3.47 3.33
5 4 11 22.5 6.32
5 4 12 35.81 7.7
5 4 13 37.54 7.85
5 4 14 8.3 4.25
5 4 15 -2.6 3.74
5 5 -8 6.19 3.68
5 5 -7 72.48 8.92
5 5 -6 66.37 8.4
5 5 -5 7.06 3.36
5 5 -5 5.29 2.71
5 5 -4 13.58 3.86
5 5 -4 11.84 3.55
5 5 -3 54.44 6.7
5 5 -3 44.37 6.47
5 5 -2 159.16 11.4
5 5 -2 161.36 13.01
5 5 -1 129.77 11.74
5 5 0 54.6 7.76
5 5 1 53.43 7.94
5 5 2 3.72 3.28
5 5 3 106.86 11.41
5 5 4 155.91 14.2
5 5 5 48.35 8.3
5 5 6 67.35 9.59
5 5 6 63.28 4.96
5 5 7 39.89 7.41
5 5 7 39.68 4.07
5 5 8 14.38 4.99
5 5 8 11.04 2.36
5 5 9 50.17 8.79
5 5 10 7.95 4.62
5 5 11 33.19 8.17
5 5 12 38.02 8.12
5 5 13 5.89 4.7
5 5 14 4.27 4.73
5 5 15 3.43 4.32
5 6 -6 -0.02 2.78
5 6 -5 60.95 8.29
5 6 -4 17.07 4.31
5 6 -4 12 3.78
5 6 -3 41.79 6.46
5 6 -3 45.22 6.88
5 6 -2 6 3.15
5 6 -2 7.97 3.47
5 6 -1 3.55 2.91
5 6 0 39.51 6.91
5 6 1 12.25 4.89
5 6 2 2.28 2.66
5 6 3 32.72 6.84
5 6 4 58.09 8.93
5 6 5 2.46 3.1
5 6 6 7.07 3.77
5 6 7 3.47 4.22
5 6 8 14.25 5.34
5 6 9 38.63 7.92
5 6 10 25.41 6.93
5 6 11 32.23 8.1
5 6 12 15.66 5.92
5 6 13 38.95 8.77
5 6 14 30.89 8.17
5 7 -4 23.71 5.62
5 7 -3 27.35 5.52
5 7 -3 22.29 5.44
5 7 -2 3.15 2.7
5 7 -1 43.21 7.44
5 7 0 67.64 9.43
5 7 1 44.65 7.91
5 7 2 80.66 10.47
5 7 3 9.88 4.57
5 7 4 6.78 3.95
5 7 5 11.19 5.31
5 7 6 38.48 8.04
5 7 7 15.74 5.46
5 7 8 67.59 10.99
5 7 9 2.15 3.12
5 7 10 6.06 4.6
5 7 11 2.44 3.75
5 7 12 5.17 4.45
5 7 13 6.07 5.21
5 8 -2 0.41 2.45
5 8 -1 33.08 6.97
5 8 0 49.85 8.33
5 8 1 23.8 6.21
5 8 2 -0.15 2.86
5 8 3 8.47 4.62
5 8 4 3.75 4.02
5 8 5 1.29 3.52
5 8 6 22.84 6.71
5 8 7 7.66 5.05
5 8 8 52.74 10.14
5 8 9 -0.35 3.69
5 8 10 2.93 4.3
5 9 -1 7.98 4.32
5 9 0 16.11 5.72
5 9 1 -1.92 3.82
5 9 2 3.01 3.74
5 9 3 32.68 8.01
5 9 4 12.85 5.42
5 9 5 1.19 3.66
5 9 6 4.34 4.43
5 9 7 0.64 3.91
5 10 1 10.45 5.95
6 -5 -6 9.71 4.65
6 -5 -5 18.4 5.56
6 -5 -4 16.88 4.98
6 -5 4 -0.54 4.57
6 -4 -6 1.08 2.95
6 -4 -5 14.64 5.5
6 -4 -4 -0.73 2.86
6 -4 -3 1.76 2.79
6 -4 -2 10.87 4.14
6 -4 -1 69.85 8.61
6 -4 -1 91.65 10.06
6 -4 0 50.59 7.78
6 -4 1 8.1 3.79
6 -4 2 -1.94 4.02
6 -4 2 1.35 3.5
6 -4 3 23.8 6.97
6 -4 4 45.81 9.27
6 -4 5 8.14 4.61
6 -4 6 81.56 12.88
6 -3 -7 9.33 5.3
6 -3 -6 14.53 5.32
6 -3 -5 17.64 5.51
6 -3 -4 54.3 8.43
6 -3 -3 50.51 7.8
6 -3 -2 33.34 6.1
6 -3 -1 31.25 5.83
6 -3 -1 47.58 7.21
6 -3 0 12.32 3.66
6 -3 0 12.41 4.39
6 -3 1 8.76 3.76
6 -3 1 7.23 3.44
6 -3 2 27.53 6.39
6 -3 2 21.2 5.29
6 -3 3 54.73 9.07
6 -3 3 47.75 7.65
6 -3 4 63.45 10.02
6 -3 4 58.66 8.64
6 -3 5 -4.31 4.71
6 -3 5 1.16 3.33
6 -3 6 -0.57 4.28
6 -3 7 3.72 4.23
6 -2 -8 2.28 4.47
6 -2 -7 -0.24 3.24
6 -2 -6 3.6 3.76
6 -2 -5 16.73 5.28
6 -2 -4 57.72 8.55
6 -2 -3 43.5 7.19
6 -2 -2 11.97 4.02
6 -2 -1 2.34 2.31
6 -2 0 20.28 4.77
6 -2 0 24.8 4.56
6 -2 0 15.62 4.47
6 -2 1 28.85 5.44
6 -2 1 33.7 5.89
6 -2 2 114.46 11.14
6 -2 2 88.45 9.52
6 -2 3 85.19 10.39
6 -2 3 70.69 8.59
6 -2 4 22.1 5.73
6 -2 4 23.43 5.1
6 -2 5 -1.1 3.27
6 -2 5 6.93 3.36
6 -2 6 51.49 9.8
6 -2 7 46.36 9.25
6 -2 8 34.92 8.96
6 -2 9 14.04 6.08
6 -1 -8 7.5 4.37
6 -1 -7 21.45 6.49
6 -1 -6 26.67 6.39
6 -1 -5 27.95 6.26
6 -1 -4 8.38 4.02
6 -1 -3 3.63 3.2
6 -1 -2 33.25 6.18
6 -1 -1 99.82 10.31
6 -1 0 100.81 8.35
6 -1 0 98.92 9.41
6 -1 1 24 4.79
6 -1 1 27.71 5.23
6 -1 2 14.33 3.96
6 -1 2 14.49 3.94
6 -1 3 11.23 3.77
6 -1 3 11.3 3.83
6 -1 4 25.93 6.07
6 -1 4 15.73 4.44
6 -1 5 64.03 9.49
6 -1 5 64.34 8.11
6 -1 6 63.2 9.92
6 -1 7 63.37 10.47
6 -1 8 30 8.23
6 -1 9 4.11 4.65
6 -1 10 -0.66 3.66
6 0 -9 40.75 6.06
6 0 -8 11.34 5.55
6 0 -8 5.78 2.59
6 0 -7 17.5 6.11
6 0 -7 22.47 3.83
6 0 -6 19.57 5.58
6 0 -6 18.12 3.38
6 0 -5 41.44 7.61
6 0 -5 34.15 4.08
6 0 -4 1.4 2.78
6 0 -4 1.08 1.22
6 0 -3 32.52 6.35
6 0 -3 29.02 3.22
6 0 -2 84.03 9.82
6 0 -1 76.26 9.03
6 0 1 38.1 5.83
6 0 2 -0.59 1.9
6 0 2 -2.2 2.2
6 0 3 7.29 3.47
6 0 3 9.84 3.48
6 0 4 66.57 9.07
6 0 4 54.45 7.09
6 0 5 91.05 11.12
6 0 5 84.46 8.91
6 0 6 39.59 7.84
6 0 7 8.78 4.89
6 0 8 4.51 4.16
6 0 9 9.67 4.78
6 0 10 7.48 5.02
6 1 -11 -0.9 3.04
6 1 -10 12.48 4.4
6 1 -9 53.93 7.23
6 1 -8 4.49 3.72
6 1 -8 4.03 2.62
6 1 -7 -0.32 3.35
6 1 -7 2.27 2.21
6 1 -6 0.22 2.88
6 1 -6 1.79 1.96
6 1 -5 18.76 5.47
6 1 -5 8.2 2.38
6 1 -4 0.53 2.4
6 1 -4 3.22 1.67
6 1 -3 65.68 8.87
6 1 -3 56.43 5.19
6 1 -2 76.43 9.21
6 1 2 77.93 7.75
6 1 3 41.93 5.81
6 1 4 103.96 10.82
6 1 4 103.51 9.08
6 1 5 33.36 6.76
6 1 5 42.81 7.76
6 1 5 35.24 5.37
6 1 6 7.65 3.95
6 1 6 19.94 5.81
6 1 6 10.12 3.5
6 1 7 30.75 7.46
6 1 7 50.34 8.64
6 1 8 33.23 7.83
6 1 9 64.02 10.9
6 1 10 14.55 6.02
6 1 11 28.48 8.61
6 2 -10 -0.62 2.47
6 2 -9 38.86 6.51
6 2 -8 5.02 4.19
6 2 -8 2 2.58
6 2 -7 20.98 6.16
6 2 -7 19.11 4.08
6 2 -6 43.17 7.44
6 2 -6 38.85 5.48
6 2 -5 24.89 6.25
6 2 -5 16.11 3.58
6 2 -4 7.86 4.26
6 2 -4 16.36 3.4
6 2 -3 20.69 3.54
6 2 0 6.19 3.02
6 2 1 190.54 15.42
6 2 2 168.08 14.62
6 2 2 169.29 11.06
6 2 3 4.3 3.08
6 2 3 5.8 2.59
6 2 4 3.56 2.85
6 2 4 3.21 2.13
6 2 5 -2.58 3.41
6 2 5 -0.79 1.61
6 2 6 20.74 5.63
6 2 6 25.69 4.57
6 2 7 15.58 5.57
6 2 7 18.64 4.36
6 2 8 47.7 8.98
6 2 8 41.85 8.01
6 2 9 48.82 9.33
6 2 9 51.07 8.86
6 2 10 15.45 6.15
6 2 10 23.57 6.36
6 2 11 -2.04 3.61
6 2 11 5.67 4.07
6 2 12 0.52 3.51
6 2 12 5.34 4.02
6 2 13 4.85 4.59
6 2 14 8.1 5.38
6 3 -9 3.6 3.17
6 3 -8 -2.75 3.84
6 3 -8 2.05 2.9
6 3 -7 56.98 9.51
6 3 -7 47.79 6.86
6 3 -6 79.31 10.84
6 3 -6 72.16 7.99
6 3 -5 62.71 7.22
6 3 -4 3.5 2.18
6 3 -3 3.29 2.07
6 3 -2 3.7 3.32
6 3 -1 21.74 5.4
6 3 0 89.39 10.33
6 3 1 146.74 13.32
6 3 2 357.69 21.72
6 3 3 51.9 8.71
6 3 4 25.14 5.98
6 3 4 27.45 4.48
6 3 5 40.12 7.78
6 3 5 29.46 4.56
6 3 6 35.84 7.26
6 3 6 29.36 4.66
6 3 7 39.37 8.06
6 3 7 43.66 5.77
6 3 8 5.9 4.36
6 3 9 13.99 5.04
6 3 10 2.48 3.65
6 3 11 2.91 4.1
6 3 12 31.87 7.66
6 3 13 1.36 3.96
6 3 14 -1.35 3.6
6 4 -8 22.43 5.4
6 4 -7 2.41 2.93
6 4 -6 8.4 3.88
6 4 -5 1.98 2.36
6 4 -4 -0.62 2.04
6 4 -4 2.36 2.48
6 4 -3 27.67 5.08
6 4 -3 21.2 5.1
6 4 -2 23.36 5.65
6 4 -1 29.57 6.1
6 4 0 3.84 3.42
6 4 1 4.31 2.6
6 4 2 5.92 3.48
6 4 3 16.74 5.05
6 4 4 106.31 12.29
6 4 5 50.84 8.79
6 4 5 61.16 6.07
6 4 6 48.63 8.74
6 4 6 43.37 5.33
6 4 7 -0.7 3.29
6 4 7 1.17 1.57
6 4 8 3 3.56
6 4 8 1.81 2.07
6 4 9 0.54 3.34
6 4 9 2.33 1.98
6 4 10 14.04 5.46
6 4 11 56.04 9.89
6 4 12 48.4 9.37
6 4 13 29.95 7.73
6 4 14 13.41 6.14
6 5 -6 3.91 3.42
6 5 -5 -1.88 3.06
6 5 -4 42.97 6.56
6 5 -4 37.52 6.48
6 5 -3 37.63 6.17
6 5 -3 39.58 7.15
6 5 -2 70.23 9.21
6 5 -1 6.84 3.74
6 5 0 -1.6 2.24
6 5 1 23.34 5.94
6 5 2 38.1 7.59
6 5 3 113.28 12.98
6 5 4 34.19 7.35
6 5 5 9.68 4.96
6 5 6 2.28 3.12
6 5 7 21.95 7
6 5 7 8.38 2.61
6 5 8 44.62 9.41
6 5 8 51.19 5.53
6 5 9 13.38 5.8
6 5 9 5.1 2.06
6 5 10 10.42 5.33
6 5 10 15.78 3.58
6 5 11 2.75 3.63
6 5 12 2.8 4.59
6 5 13 8.08 5.83
6 6 -5 3.08 2.54
6 6 -4 18.05 4.86
6 6 -3 17.47 5.02
6 6 -3 1.31 2.43
6 6 -2 6.34 3.57
6 6 -1 5.64 3.96
6 6 0 8.23 3.95
6 6 1 46.4 8.26
6 6 2 11.68 4.87
6 6 3 58.02 9.59
6 6 4 17.33 5.91
6 6 5 5.89 4.47
6 6 6 4.22 3.88
6 6 7 44.53 9.35
6 6 8 38.48 9.11
6 6 9 30.74 7.72
6 6 10 3.81 4.31
6 6 11 1.29 4.02
6 6 12 -0.15 3.17
6 7 -2 11.59 4.12
6 7 -1 32.37 7.23
6 7 0 29.06 6.82
6 7 1 10.89 5.03
6 7 2 3.81 4.05
6 7 3 -2.04 2.93
6 7 4 7.55 4.73
6 7 5 40.15 8.64
6 7 6 20.14 6.92
6 7 7 13.43 6.08
6 7 8 -0.09 3.66
6 7 9 3.17 4.13
6 7 10 -1.77 5.06
6 8 -1 39.74 8.12
6 8 0 8 4.29
6 8 1 3.4 3.86
6 8 2 3.76 3.64
6 8 3 17.19 6.78
6 8 4 13.67 5.72
6 8 5 11.11 6.12
6 8 6 14.22 6.02
6 8 7 13.06 5.58
6 9 0 5.24 4.38
6 9 1 7.09 4.61
6 9 2 6.47 4.32
6 9 3 14.14 6.31
7 -4 -3 6.77 4.09
7 -3 -4 14.46 5.14
7 -3 -3 3.74 3.3
7 -3 -2 2.49 3.29
7 -2 -5 30.01 7.12
7 -2 -4 38.73 7.87
7 -2 -3 1.18 3.11
7 -2 -2 0.04 3.03
7 -2 0 13.04 4.61
7 -2 1 30.61 6.34
7 -2 2 29.25 6.15
7 -2 5 21.46 6.9
7 -2 6 37.33 9.02
7 -2 7 -3.09 5.36
7 -1 -5 0.4 3.18
7 -1 -4 1.21 3.13
7 -1 -3 7.42 4.35
7 -1 -2 6.37 3.19
7 -1 1 4.84 3.61
7 -1 2 -2.99 3.48
7 -1 3 -0.43 2.1
7 -1 4 2.12 2.64
7 -1 4 12.3 4.73
7 -1 5 39.84 8.25
7 -1 5 41.58 7.32
7 -1 6 47.85 9.56
7 -1 6 38.06 7.3
7 -1 7 24.52 7.48
7 -1 8 0.63 3.76
7 0 -5 5.63 3.97
7 0 -4 48.03 8.6
7 0 -3 39.14 7.97
7 0 2 43.82 7
7 0 3 35.9 6.71
7 0 3 37.12 6.4
7 0 4 23.11 6.03
7 0 4 20.3 4.86
7 0 5 34.9 7.49
7 0 5 30.14 5.99
7 0 6 -1.48 3.13
7 0 6 3.49 3.27
7 0 7 2.02 4.73
7 0 7 5.23 3.74
7 0 8 -1.91 4.3
7 0 8 6.96 4.26
7 0 9 13.9 6.27
7 1 -5 18.91 5.95
7 1 -4 28.77 6.88
7 1 2 37.46 6.23
7 1 3 33.31 5.73
7 1 4 6.36 2.94
7 1 5 8.08 3.5
7 1 6 3.28 3.5
7 1 6 2.27 3
7 1 7 33.21 7.37
7 1 7 29.39 6.06
7 1 8 20.52 6.6
7 1 8 14.35 4.75
7 1 9 10.78 5.21
7 1 10 9.45 5.52
7 2 -5 9.24 5.07
7 2 3 15.75 5.59
7 2 3 14.73 4.06
7 2 4 2.34 3.52
7 2 4 1.52 2.43
7 2 5 10.54 4.87
7 2 5 4.32 2.84
7 2 6 43.21 8.52
7 2 6 28.16 5.42
7 2 7 52.85 9.61
7 2 7 51.32 7.3
7 2 8 47.97 9.46
7 2 8 57.86 7.78
7 2 9 1.32 3.59
7 2 9 -0.51 2.64
7 2 10 1.37 3.67
7 3 -8 2.84 3.76
7 3 -7 25.2 5.47
7 3 -6 9.4 3.47
7 3 -5 8.53 3.09
7 3 -4 8.16 3.07
7 3 0 23.9 5.96
7 3 1 6.61 3.82
7 3 2 5.35 4.56
7 3 3 34.21 7.93
7 3 4 34.33 7.97
7 3 4 23.45 4.63
7 3 5 25.02 6.88
7 3 5 19.11 3.92
7 3 6 9.48 5.27
7 3 6 16.66 4.22
7 3 7 8.55 5.15
7 3 7 11.72 3.49
7 3 8 1.27 3.66
7 3 8 6.44 3.56
7 3 9 9.37 5.31
7 3 9 4.16 2.98
7 3 10 23.02 7.42
7 3 10 15.34 4.55
7 4 -7 3.27 2.94
7 4 -6 0.79 2.44
7 4 -5 5.34 3.33
7 4 -4 8.18 3.41
7 4 -2 15.02 5.33
7 4 -1 17.75 5.49
7 4 0 6.62 4.42
7 4 1 2.08 3.59
7 4 2 -0.26 2.39
7 4 3 6.8 4.09
7 4 4 44.67 8.92
7 4 5 33.21 7.71
7 4 6 26.85 7.58
7 4 6 18.89 4.15
7 4 7 0.76 3.89
7 4 7 0.5 2.03
7 4 8 0.98 4.87
7 4 8 1.49 2
7 4 9 17.77 6.38
7 4 9 20.31 4.44
7 4 10 17.41 6.64
7 4 10 14.1 4.2
7 4 11 17.74 4.71
7 5 -5 13.25 4.67
7 5 -4 6.96 3.33
7 5 -3 31.7 6.78
7 5 -2 1.51 3.5
7 5 -1 27.67 6.75
7 5 0 22.37 6.28
7 5 1 15.79 5.61
7 5 2 21.36 6.24
7 5 3 -0.78 3.35
7 5 4 6.52 4.29
7 5 5 12.06 5.72
7 5 6 3.96 4.83
7 5 7 7.85 5.09
7 5 7 7.87 2.5
7 5 8 13.5 6.51
7 5 9 3.09 4.12
7 6 -2 4.66 4.04
7 6 -1 13.41 5.24
7 6 0 13 5.01
7 6 1 12.87 5.82
7 6 2 13.22 5.35
7 6 3 9.19 4.85
7 6 4 6.8 4.73
7 6 5 16.97 5.98
7 6 6 10.3 6.62
7 6 7 15.07 6.91
7 6 8 30.38 8.96
7 7 -1 20.86 6.51
7 7 0 14.6 5.92
7 7 1 -1.62 3.78
7 7 2 0.78 3.21
7 7 3 6.02 4.73
7 7 4 8.34 5.62
7 7 5 17.85 6.39
7 7 6 2.77 4.16
7 8 0 1.65 3.25
7 8 1 5.27 5.2
7 8 2 8.61 5.49
8 1 3 4.07 3.82
8 1 4 2.07 2.97
8 1 5 14.94 5.12
8 2 4 0.97 2.47
8 2 5 10.94 4.35
8 2 6 21.33 5.64
8 2 7 12.29 4.4
8 3 3 47.49 9.57
8 3 4 8.08 5.24
8 3 5 7.06 3.42
8 3 6 1.45 2.25
8 3 7 3.51 3.01
8 3 8 2.5 2.78
8 3 9 6.52 3.76
8 4 0 1 3.81
8 4 1 2.8 3.24
8 4 2 18.26 6.82
8 4 3 113.03 14.83
8 4 4 4.01 4
8 4 7 7.3 3.36
8 4 8 10.16 3.9
8 5 -2 1.58 3.69
8 5 -1 7.29 4.5
8 5 0 13.31 5.54
8 5 1 6.64 5.02
8 5 2 4.87 4.29
8 5 3 17.91 6.55
8 6 -1 16 6.37
8 6 0 -0.34 3.16
8 6 1 3.68 3.79
loop_
_geom_angle_atom_site_label_1
_geom_angle_atom_site_label_2
_geom_angle_atom_site_label_3
_geom_angle
_geom_angle_site_symmetry_1
_geom_angle_site_symmetry_3
H4 O4 C8 110.6 . .
C2 C1 Br1 121.8(2) . .
C6 C1 Br1 117.1(2) . .
C6 C1 C2 121.1(2) . .
C3 C2 C1 117.7(2) . .
C7 C2 C1 123.8(2) . .
C7 C2 C3 118.5(2) . .
C4 C3 C2 121.9(2) . .
H3 C3 C2 119.04(15) . .
H3 C3 C4 119.04(16) . .
C5 C4 C3 118.2(3) . .
C8 C4 C3 119.5(3) . .
C8 C4 C5 122.3(3) . .
C6 C5 C4 121.4(3) . .
H5 C5 C4 119.31(17) . .
H5 C5 C6 119.31(17) . .
C5 C6 C1 119.6(3) . .
H6 C6 C1 120.19(16) . .
H6 C6 C5 120.19(17) . .
O2 C7 O1 126.0(3) . .
C2 C7 O1 116.9(3) . .
C2 C7 O2 117.0(2) . .
O4 C8 O3 124.0(3) . .
C4 C8 O3 123.4(3) . .
C4 C8 O4 112.6(3) . .
H5b O5 H5a 104.5 . .
H6b O6 H6a 104.5 . .
C13 N1 C9 122.2(3) . .
H1 N1 C9 118.89(16) . .
H1 N1 C13 118.89(17) . .
C10 C9 N1 119.9(3) . .
H9 C9 N1 120.04(16) . .
H9 C9 C10 120.0(2) . .
C11 C10 C9 120.2(3) . .
H10 C10 C9 119.9(2) . .
H10 C10 C11 119.88(17) . .
C12 C11 C10 117.8(3) . .
C14 C11 C10 122.4(3) . .
C14 C11 C12 119.8(3) . .
C13 C12 C11 119.8(3) . .
H12 C12 C11 120.08(16) . .
H12 C12 C13 120.08(19) . .
C12 C13 N1 119.9(3) . .
H13 C13 N1 120.03(17) . .
H13 C13 C12 120.03(19) . .
C14 C14 C11 125.8(3) 2_665 .
H14 C14 C11 117.09(16) . .
loop_
_geom_bond_atom_site_label_1
_geom_bond_atom_site_label_2
_geom_bond_distance
_geom_bond_site_symmetry_2
Br1 C1 1.899(2) .
O1 C7 1.257(3) .
O2 C7 1.251(3) .
O3 C8 1.206(4) .
O4 C8 1.324(3) .
O4 H4 0.7956 .
C1 C2 1.391(4) .
C1 C6 1.381(4) .
C2 C3 1.389(3) .
C2 C7 1.504(4) .
C3 C4 1.389(4) .
C3 H3 0.9300 .
C4 C5 1.380(4) .
C4 C8 1.493(4) .
C5 C6 1.370(4) .
C5 H5 0.9300 .
C6 H6 0.9300 .
O5 H5a 0.8500 .
O5 H5b 0.8500 .
O6 H6a 0.8500 .
O6 H6b 0.8500 .
N1 C9 1.331(4) .
N1 C13 1.330(4) .
N1 H1 0.8600 .
C9 C10 1.361(4) .
C9 H9 0.9300 .
C10 C11 1.392(4) .
C10 H10 0.9300 .
C11 C12 1.385(4) .
C11 C14 1.467(4) .
C12 C13 1.374(4) .
C12 H12 0.9300 .
C13 H13 0.9300 .
C14 C14 1.315(5) 2_665
C14 H14 0.9300 .
loop_
_geom_hbond_atom_site_label_D
_geom_hbond_atom_site_label_H
_geom_hbond_atom_site_label_A
_geom_hbond_distance_DH
_geom_hbond_distance_HA
_geom_hbond_distance_DA
_geom_hbond_angle_DHA
_geom_hbond_site_symmetry_A
O4 H4 O5 0.7956 1.841(3) 2.609(3) 161.98(10) .
O5 H5a O6 0.8500 1.879(3) 2.727(3) 175.99(9) .
O5 H5b O2 0.8500 1.941(3) 2.767(3) 163.86(9) 2_557
O6 H6a O2 0.8500 2.006(3) 2.844(3) 168.52(9) 1_556
O6 H6b O1 0.8500 1.989(3) 2.823(3) 166.76(8) 2_657
N1 H1 O1 0.8600 1.804(3) 2.660(3) 173.22(11) .
