#------------------------------------------------------------------------------
#$Date: 2022-04-28 12:31:32 +0300 (Thu, 28 Apr 2022) $
#$Revision: 274749 $
#$URL: file:///home/coder/svn-repositories/cod/cif/8/10/50/8105085.cif $
#------------------------------------------------------------------------------
#
# This file is available in the Crystallography Open Database (COD),
# http://www.crystallography.net/
#
# All data on this site have been placed in the public domain by the
# contributors.
#
data_8105085
loop_
_publ_author_name
'Jiang, Jin-Ke'
'Xu, Xin-Yue'
'Li, Xi-Xi'
'Du, Jing-Jie'
'Jiang, Hui'
'Dong, Xian-Wu'
_publ_section_title
;
 Crystal structure of
 catena-poly[aqua(\m4-piperazine-1,4-bis(2-hydroxypropanesulfonato-\k8
 O,O&#x2032;:O&#x2032;,N:N&#x2032;,O&#x2032;&#x2032;:O&#x2032;&#x2032;,O&#x2032;&#x2032;&#x2032;))silver(I)],
 C10H24Ag2N2O10S2
;
_journal_issue                   2
_journal_name_full
'Zeitschrift f\"ur Kristallographie - New Crystal Structures'
_journal_page_first              289
_journal_page_last               290
_journal_paper_doi               10.1515/ncrs-2019-0610
_journal_volume                  235
_journal_year                    2020
_chemical_formula_moiety         'C10 H24 Ag2 N2 O10 S2'
_chemical_formula_sum            'C10 H24 Ag2 N2 O10 S2'
_chemical_formula_weight         612.17
_space_group_crystal_system      triclinic
_space_group_IT_number           2
_space_group_name_Hall           '-P 1'
_space_group_name_H-M_alt        'P -1'
_atom_sites_solution_hydrogens   mixed
_audit_creation_method           SHELXL-2017/1
_cell_angle_alpha                117.888(15)
_cell_angle_beta                 101.740(13)
_cell_angle_gamma                93.026(11)
_cell_formula_units_Z            1
_cell_length_a                   6.9547(9)
_cell_length_b                   8.4684(12)
_cell_length_c                   8.9563(15)
_cell_measurement_reflns_used    2297
_cell_measurement_temperature    293(2)
_cell_measurement_theta_max      28.6800
_cell_measurement_theta_min      5.3850
_cell_volume                     449.75(14)
_computing_cell_refinement       'CrysAlisPro 1.171.39.7e (Rigaku OD, 2015)'
_computing_data_collection       'CrysAlisPro 1.171.39.7e (Rigaku OD, 2015)'
_computing_data_reduction        'CrysAlisPro 1.171.39.7e (Rigaku OD, 2015)'
_computing_molecular_graphics    DIAMOND
_computing_publication_material  publCIF
_computing_structure_refinement  'SHELXL-2017/1 (Sheldrick, 2017)'
_computing_structure_solution    'SHELXT 2014/5 (Sheldrick, 2014)'
_diffrn_ambient_temperature      293(2)
_diffrn_measured_fraction_theta_full 0.990
_diffrn_measured_fraction_theta_max 0.876
_diffrn_measurement_device       'four-circle diffractometer'
_diffrn_measurement_device_type  'XtaLAB Pro: Kappa dual offset/far'
_diffrn_measurement_method       '\w scans'
_diffrn_radiation_type           MoK\a
_diffrn_radiation_wavelength     0.71073
_diffrn_reflns_av_R_equivalents  0.0553
_diffrn_reflns_av_unetI/netI     0.0541
_diffrn_reflns_Laue_measured_fraction_full 0.990
_diffrn_reflns_Laue_measured_fraction_max 0.876
_diffrn_reflns_limit_h_max       9
_diffrn_reflns_limit_h_min       -9
_diffrn_reflns_limit_k_max       11
_diffrn_reflns_limit_k_min       -11
_diffrn_reflns_limit_l_max       12
_diffrn_reflns_limit_l_min       -12
_diffrn_reflns_number            6174
_diffrn_reflns_point_group_measured_fraction_full 0.990
_diffrn_reflns_point_group_measured_fraction_max 0.876
_diffrn_reflns_theta_full        25.000
_diffrn_reflns_theta_max         29.813
_diffrn_reflns_theta_min         5.037
_diffrn_source                   'fine-focus sealed X-ray tube'
_diffrn_source_type              'Enhance (Mo) X-ray Source'
_exptl_absorpt_coefficient_mu    2.463
_exptl_absorpt_correction_T_max  1.00000
_exptl_absorpt_correction_T_min  0.53892
_exptl_absorpt_correction_type   multi-scan
_exptl_absorpt_process_details
;
CrysAlisPro 1.171.39.7e (Rigaku Oxford Diffraction, 2015)
Empirical absorption correction using spherical harmonics,
 implemented in SCALE3 ABSPACK scaling algorithm.
;
_exptl_crystal_colour            colourless
_exptl_crystal_density_diffrn    2.260
_exptl_crystal_description       block
_exptl_crystal_F_000             304
_exptl_crystal_size_max          0.150
_exptl_crystal_size_mid          0.120
_exptl_crystal_size_min          0.120
_refine_diff_density_max         1.266
_refine_diff_density_min         -1.021
_refine_diff_density_rms         0.138
_refine_ls_extinction_coef       .
_refine_ls_extinction_method     none
_refine_ls_goodness_of_fit_ref   1.023
_refine_ls_hydrogen_treatment    mixed
_refine_ls_matrix_type           full
_refine_ls_number_parameters     123
_refine_ls_number_reflns         2258
_refine_ls_number_restraints     0
_refine_ls_restrained_S_all      1.023
_refine_ls_R_factor_all          0.0498
_refine_ls_R_factor_gt           0.0365
_refine_ls_shift/su_max          0.001
_refine_ls_shift/su_mean         0.000
_refine_ls_structure_factor_coef Fsqd
_refine_ls_weighting_details
'w=1/[\s^2^(Fo^2^)+(0.0266P)^2^+0.7399P] where P=(Fo^2^+2Fc^2^)/3'
_refine_ls_weighting_scheme      calc
_refine_ls_wR_factor_gt          0.0795
_refine_ls_wR_factor_ref         0.0858
_reflns_Friedel_coverage         0.000
_reflns_Friedel_fraction_full    .
_reflns_Friedel_fraction_max     .
_reflns_number_gt                1846
_reflns_number_total             2258
_reflns_threshold_expression     'I > 2\s(I)'
_cod_data_source_file            suppl_ncrs-2019-0610_suppl.cif
_cod_data_source_block           shelx
_cod_original_cell_volume        449.75(13)
_cod_database_code               8105085
_shelx_shelxl_version_number     2017/1
_shelx_space_group_comment
;
The symmetry employed for this shelxl refinement is uniquely defined
by the following loop, which should always be used as a source of
symmetry information in preference to the above space-group names.
They are only intended as comments.
;
_shelx_estimated_absorpt_t_min   0.709
_shelx_estimated_absorpt_t_max   0.756
_shelx_res_file
;
TITL 20190429xuxy1_a.res in P-1
    shelx.res
    created by SHELXL-2017/1 at 12:49:55 on 12-Aug-2019
CELL  0.71073   6.9547   8.4684   8.9563  117.888  101.740   93.026
ZERR     1.00   0.0009   0.0012   0.0015    0.015    0.013    0.011
LATT   1
SFAC  C    H    AG   N    O    S
UNIT  10 24 2 2 10 2
MERG   2
EQIV $1 -x+1, -y+1, -z+1
HTAB O1W O1_$1
EQIV $2 x, y+1, z+1
HTAB O1W O2_$2
HTAB O4 O3_$1
FMAP   2   53   53
PLAN    1
SIZE     0.120   0.120   0.150
ACTA    50.00
BOND   $H
LIST   4
L.S.   4
WGHT    0.026600    0.739900
FVAR       0.94040
C1    1    0.279008    0.142163    0.460537    11.00000    0.02941    0.02519 =
         0.02831    0.01263    0.01289    0.00535
AFIX  23
H1    2    0.149678    0.077698    0.380436    11.00000   -1.20000
H2    2    0.332499    0.066785    0.507980    11.00000   -1.20000
AFIX   0
C2    1    0.250415    0.318407    0.610297    11.00000    0.02326    0.02397 =
         0.02249    0.00926    0.00751    0.00391
AFIX  13
H3    2    0.375306    0.376693    0.702347    11.00000   -1.20000
AFIX   0
C3    1    0.089166    0.268789    0.681406    11.00000    0.03032    0.02325 =
         0.02480    0.00979    0.01323    0.00515
AFIX  23
H4    2   -0.031559    0.208768    0.587169    11.00000   -1.20000
H5    2    0.131646    0.182514    0.718458    11.00000   -1.20000
AFIX   0
C4    1    0.200763    0.491567    0.991470    11.00000    0.01987    0.03801 =
         0.02276    0.01339    0.00704    0.00582
AFIX  23
H6    2    0.322808    0.536993    0.977145    11.00000   -1.20000
H7    2    0.225409    0.393490    1.016294    11.00000   -1.20000
AFIX   0
C5    1    0.141919    0.641754    1.142387    11.00000    0.02080    0.03272 =
         0.02257    0.00852    0.00726    0.00104
AFIX  23
H8    2    0.249497    0.687387    1.247776    11.00000   -1.20000
H9    2    0.120434    0.740797    1.118380    11.00000   -1.20000
AFIX   0
AG1   3   -0.001400    0.655499    0.761750    11.00000    0.06092    0.03820 =
         0.03844    0.02201    0.02253    0.02546
N1    4    0.041638    0.423022    0.829048    11.00000    0.02166    0.02653 =
         0.02202    0.01108    0.00911    0.00502
O1    5    0.498731   -0.003060    0.248003    11.00000    0.06174    0.03664 =
         0.05796    0.02192    0.04255    0.02230
O2    5    0.323993    0.224327    0.222462    11.00000    0.04223    0.05742 =
         0.03585    0.02794    0.01976    0.02138
O1W   5    0.160407    0.953019    0.867121    11.00000    0.03787    0.04017 =
         0.03514    0.01269    0.01290    0.00497
AFIX   7
H1A   2    0.270933    0.952296    0.834559    11.00000   -1.50000
H1B   2    0.201681    1.009151    0.981200    11.00000   -1.50000
AFIX   0
O3    5    0.603941    0.310690    0.469715    11.00000    0.03547    0.05267 =
         0.04077    0.02348    0.00523   -0.01125
O4    5    0.181486    0.438747    0.552001    11.00000    0.03991    0.02771 =
         0.03712    0.01960    0.01890    0.01064
S1    6    0.439134    0.171559    0.341298    11.00000    0.02613    0.02783 =
         0.02760    0.01314    0.01303    0.00789
H10   2    0.297484    0.513370    0.578548    11.00000    0.11755
HKLF    4




REM  20190429xuxy1_a.res in P-1
REM R1 =  0.0365 for    1846 Fo > 4sig(Fo)  and  0.0498 for all    2258 data
REM    123 parameters refined using      0 restraints

END

WGHT      0.0266      0.7399

REM Highest difference peak  1.266,  deepest hole -1.021,  1-sigma level  0.138
Q1    1  -0.1006  0.5833  0.7124  11.00000  0.05    1.27
;
_shelx_hkl_file
;
  -9   2   1   52.22   12.44
  -9   2   2  148.17   19.05
  -9   3  -1    5.02    8.39
  -9   3   0    7.67    9.31
  -9   3   1   22.45   10.79
  -9   4  -1   14.09    9.52
  -9   4   0    1.17    9.38
  -8   1  -3   39.98   11.40
  -8   1   1    3.70    8.22
  -8   1   2    1.01    8.41
  -8   1   3   56.79   12.47
  -8   1   4   40.22   11.98
  -8   1   5  111.37   17.40
  -8   2  -4    3.48    9.36
  -8   2  -3   59.81   14.02
  -8   2  -1  171.19   17.34
  -8   2   0    8.29    8.62
  -8   2   1   65.90   12.66
  -8   2   2    5.41    8.80
  -8   2   3   49.14   12.64
  -8   2   4   24.07   11.57
  -8   2   5   12.35   11.37
  -8   3  -3   11.96   10.49
  -8   3  -2  105.38   13.93
  -8   3  -1    5.41    8.20
  -8   3   0  626.95   39.90
  -8   3   1   52.53   12.76
  -8   3   2  219.50   22.18
  -8   3   3    4.94    9.49
  -8   3   4  241.15   24.95
  -8   4  -3    2.50    7.53
  -8   4  -2    2.82    7.85
  -8   4  -1   39.44   11.52
  -8   4   0  111.10   16.41
  -8   4   1  220.21   23.13
  -8   4   2   28.16   11.37
  -8   4   3  327.47   29.57
  -8   5  -3   65.00   12.40
  -8   5  -2   -3.15    8.55
  -8   5  -1    2.26    8.92
  -8   5   0   61.69   14.05
  -8   5   1   74.90   15.28
  -8   6  -3   59.34   13.07
  -8   6  -2  101.69   16.16
  -8   6  -1    7.55   10.77
  -7  -1  -3   90.39   13.23
  -7  -1   7   87.79   13.56
  -7  -1   8  377.41   29.70
  -7  -1   9    3.85   10.36
  -7   0  -4    5.32    7.65
  -7   0  -3    5.09    8.36
  -7   0  -2    0.84    8.57
  -7   0   6   -0.82    7.12
  -7   0   7  150.69   17.17
  -7   0   8    3.47    9.33
  -7   0   9   88.88   16.14
  -7   1  -5    3.02    8.34
  -7   1  -4   -7.62    8.29
  -7   1  -3   16.50    9.05
  -7   1  -2   -2.71    8.16
  -7   1   0   17.98    8.14
  -7   1   1  502.75   32.17
  -7   1   2  255.08   21.71
  -7   1   3  317.94   25.61
  -7   1   4  137.16   17.14
  -7   1   5  107.99   15.98
  -7   1   5   -4.81    4.36
  -7   1   6  130.72   14.98
  -7   1   7   48.03   11.39
  -7   1   8    8.22    9.20
  -7   2  -5  118.50   17.06
  -7   2  -4    7.11    8.69
  -7   2  -3  269.74   19.99
  -7   2  -3    2.20    3.35
  -7   2  -2   26.16    9.53
  -7   2  -2   21.63    7.84
  -7   2  -1    2.19    6.86
  -7   2   0  169.03   16.69
  -7   2   1   -0.88    8.19
  -7   2   2  191.39   19.01
  -7   2   3  208.34   20.74
  -7   2   4  277.26   24.88
  -7   2   5  272.76   20.63
  -7   2   6   98.81   13.46
  -7   2   6  108.23   17.60
  -7   2   7  242.10   22.78
  -7   2   8   20.03   10.58
  -7   3  -5   23.60   10.77
  -7   3  -4  106.33   14.72
  -7   3  -4    2.21    3.67
  -7   3  -3  113.20   15.56
  -7   3  -3  111.87   12.93
  -7   3  -2   27.76   10.17
  -7   3  -2   39.45    9.34
  -7   3  -1  140.16   15.82
  -7   3   0  147.50   16.37
  -7   3   1   11.93    8.73
  -7   3   2  208.06   20.73
  -7   3   3   35.63   11.62
  -7   3   4  176.98   10.90
  -7   3   4   87.79   11.45
  -7   3   5  112.17   17.10
  -7   3   5   69.87   11.42
  -7   3   6  179.21   18.92
  -7   3   6  185.54   22.73
  -7   3   7    7.01    8.81
  -7   4  -5   14.14    9.78
  -7   4  -4   24.34    8.14
  -7   4  -4   24.91   11.13
  -7   4  -3  118.79   16.50
  -7   4  -3  104.37   13.42
  -7   4  -2  299.92   23.45
  -7   4  -1   61.97   12.65
  -7   4   0  945.55   54.14
  -7   4   1   10.68    9.07
  -7   4   2   81.86   14.46
  -7   4   3  104.53   16.48
  -7   4   3   78.06    9.33
  -7   4   4    6.66    6.58
  -7   4   5  292.82   24.01
  -7   5  -4   19.70    8.66
  -7   5  -4    1.19    9.04
  -7   5  -3  211.51   20.20
  -7   5  -3  229.58   22.85
  -7   5  -2  119.44   15.42
  -7   5  -1  276.47   24.24
  -7   5   0  -12.15   10.27
  -7   5   1  284.61   26.07
  -7   5   2   -3.77   10.85
  -7   5   2    0.55    5.68
  -7   6  -5   20.60    8.90
  -7   6  -4   29.90    9.83
  -7   6  -3   24.08   10.17
  -7   6  -2  210.87   21.21
  -7   6  -1    6.82    9.57
  -7   6   0  457.18   34.29
  -7   6   1   39.70   13.10
  -7   6   2  447.17   35.73
  -7   7  -5   -8.96    9.25
  -7   7  -4   95.54   14.79
  -7   7  -3   -9.01    9.57
  -7   7  -2  182.69   20.78
  -7   7  -1   75.50   15.28
  -6  -6   7   -4.38    4.56
  -6  -6   8   60.81   11.29
  -6  -5   8   16.61    6.58
  -6  -4   9   -1.42    7.28
  -6  -3   6   58.65    6.52
  -6  -3   9  132.98   13.91
  -6  -3  10  111.41   18.08
  -6  -2  -3   11.97    6.62
  -6  -2  -2   -2.83    4.73
  -6  -2   6    6.89    3.50
  -6  -2   8   -4.42    8.82
  -6  -2   9   -8.83   10.62
  -6  -2   9    2.18    9.62
  -6  -2  10  142.43   20.27
  -6  -1  -4   -1.46    7.24
  -6  -1  -3  141.18   14.36
  -6  -1  -2    5.75    6.52
  -6  -1  -1   -0.63    3.97
  -6  -1   6  272.05   15.70
  -6  -1   6  298.87   21.90
  -6  -1   7  359.05   26.71
  -6  -1   8    2.25    8.89
  -6  -1   9   -3.87    8.88
  -6   0  -6   35.44   10.31
  -6   0  -5    4.29    7.29
  -6   0  -4   98.98   13.38
  -6   0  -3   60.86   10.91
  -6   0  -2  333.92   23.32
  -6   0  -1  457.07   28.77
  -6   0   1    5.40    6.85
  -6   0   2  363.31   25.26
  -6   0   3  712.59   41.67
  -6   0   4 1011.90   56.11
  -6   0   5  174.02    7.53
  -6   0   5  191.28    7.74
  -6   0   6  628.41   37.70
  -6   0   7  114.49   15.09
  -6   0   8  476.48   34.16
  -6   0   9    9.12    9.50
  -6   1  -6   29.65   10.33
  -6   1  -5   46.45   11.17
  -6   1  -4   42.19   10.22
  -6   1  -3  465.90   30.17
  -6   1  -2   25.07    9.26
  -6   1  -1    8.13    5.12
  -6   1  -1  688.39   26.06
  -6   1   0  349.34   23.49
  -6   1   1   47.15    9.67
  -6   1   2   67.76   11.14
  -6   1   3  295.76   23.26
  -6   1   4   63.38   12.31
  -6   1   5    8.29    6.01
  -6   1   5  367.81   13.10
  -6   1   6  141.43   15.94
  -6   1   6  166.01   19.73
  -6   1   7  868.58   53.70
  -6   1   7 1080.91   58.73
  -6   1   8   63.48   13.50
  -6   1   9  276.59   27.06
  -6   2  -6   11.38    9.48
  -6   2  -5   27.77   10.43
  -6   2  -4   36.49    9.99
  -6   2  -3  263.28   21.55
  -6   2  -2    3.42    4.51
  -6   2  -2  409.23   21.39
  -6   2  -1  791.46   43.66
  -6   2  -1  801.84   45.60
  -6   2   0  102.67   12.63
  -6   2   1  619.62   37.44
  -6   2   2    5.29    8.64
  -6   2   2   13.12    3.93
  -6   2   3  288.64   21.27
  -6   2   3  161.56    9.62
  -6   2   4   18.14    5.04
  -6   2   5    9.86    6.48
  -6   2   5   11.56    7.18
  -6   2   5   26.63   10.93
  -6   2   6  261.01   24.22
  -6   2   6  200.79   17.72
  -6   2   6  216.71   20.34
  -6   2   7   25.95   10.20
  -6   2   7   38.67   13.81
  -6   2   8  257.65   26.47
  -6   2   8  355.65   30.20
  -6   3  -6    5.39    8.61
  -6   3  -5    3.00    8.62
  -6   3  -4   19.62    9.24
  -6   3  -3   44.36   10.30
  -6   3  -3   -0.59    3.85
  -6   3  -2  252.83   19.42
  -6   3  -2  259.34   21.34
  -6   3  -1   18.36    7.90
  -6   3   0 1360.73   70.46
  -6   3   1   67.88    4.86
  -6   3   1  141.96   14.40
  -6   3   2 1735.00   80.34
  -6   3   3    8.82    5.12
  -6   3   4   38.13    9.53
  -6   3   4  383.82   16.95
  -6   3   5   -0.85    6.77
  -6   3   5  -11.04    8.67
  -6   3   5    2.41    9.54
  -6   3   6   66.33   12.54
  -6   3   6   76.81   15.37
  -6   3   6   71.66   12.43
  -6   3   7   -1.21    9.00
  -6   3   7   -6.94   11.19
  -6   4  -6  126.02   17.01
  -6   4  -5    7.30    9.48
  -6   4  -5   -0.55    3.75
  -6   4  -4  123.34   15.58
  -6   4  -4  120.89   12.98
  -6   4  -3   -2.76    6.68
  -6   4  -3  -12.32    9.10
  -6   4  -2   17.32    7.42
  -6   4  -2   23.55    9.08
  -6   4  -1  204.20   18.39
  -6   4   0   32.69    9.71
  -6   4   1  558.32   29.19
  -6   4   1  613.27   37.38
  -6   4   2  177.85   18.42
  -6   4   2  172.49   13.60
  -6   4   3  529.25   20.15
  -6   4   3   13.48    6.76
  -6   4   4  142.80   18.68
  -6   4   4  133.16   14.83
  -6   4   4  143.97   14.73
  -6   4   5  240.85   21.62
  -6   4   5  240.97   24.99
  -6   4   5  216.84   19.91
  -6   4   6    5.71    9.20
  -6   4   6   10.40    9.06
  -6   4   6   -1.37   11.16
  -6   4   7   29.50   12.00
  -6   5  -6   -1.76    6.41
  -6   5  -6    6.93    8.88
  -6   5  -5  449.02   33.32
  -6   5  -5  497.64   29.80
  -6   5  -4   18.57    9.30
  -6   5  -4   27.24    8.82
  -6   5  -3  179.97   19.18
  -6   5  -3  229.40   19.02
  -6   5  -2    3.42    7.07
  -6   5  -2    1.00    7.70
  -6   5  -1  206.72   17.72
  -6   5  -1  119.01    6.99
  -6   5   0   27.53    9.98
  -6   5   0   38.61    5.80
  -6   5   1    1.76    5.83
  -6   5   1    1.05    8.79
  -6   5   2   60.12    9.15
  -6   5   2   83.15   11.28
  -6   5   3  324.78   24.47
  -6   5   3  352.66   24.79
  -6   5   3  379.30   30.07
  -6   5   4  136.78   15.97
  -6   5   4  140.56   19.45
  -6   5   4  115.48   14.88
  -6   5   5  576.13   41.96
  -6   5   5  565.99   37.56
  -6   5   5  552.82   38.47
  -6   5   6   43.88   12.38
  -6   6  -6  118.04   16.60
  -6   6  -6  118.28   13.63
  -6   6  -5   28.24   10.56
  -6   6  -5   50.25   10.40
  -6   6  -4  308.48   23.93
  -6   6  -3   53.52    3.97
  -6   6  -3  111.32   14.45
  -6   6  -2  301.81   16.44
  -6   6  -2  293.37   16.34
  -6   6  -1  244.32   22.33
  -6   6   0  156.41   15.67
  -6   6   0  192.10   19.87
  -6   6   1    1.25    4.19
  -6   6   1   11.62    9.19
  -6   6   1   15.68    7.83
  -6   6   2  223.35   19.31
  -6   6   2  247.20   20.78
  -6   6   3   22.14    9.59
  -6   6   3    7.93   11.25
  -6   6   3   16.05    8.43
  -6   6   4  292.02   25.71
  -6   6   4  269.70   24.91
  -6   6   5   12.39    9.73
  -6   7  -6   14.72    8.39
  -6   7  -5   35.13    9.81
  -6   7  -4  196.13   20.97
  -6   7  -4  186.95   19.31
  -6   7  -3   55.72   12.27
  -6   7  -2  440.17   25.04
  -6   7  -2  434.23   31.94
  -6   7  -1   67.52   14.58
  -6   7  -1   93.61   13.37
  -6   7   0  471.82   28.30
  -6   7   0  441.47   23.61
  -6   7   1   46.90   11.51
  -6   7   1   51.53    9.95
  -6   7   2  124.60   17.00
  -6   7   2  149.37   16.64
  -6   7   2  156.34   20.72
  -6   7   3   16.00    9.51
  -6   8  -6   44.29   11.27
  -6   8  -5   45.84   11.70
  -6   8  -4    6.12    9.40
  -6   8  -4    3.33    9.04
  -6   8  -3  211.93   22.37
  -6   8  -2   -3.64   10.30
  -6   8  -1  438.59   30.65
  -6   8  -1  378.16   32.02
  -6   8   0   -4.06    9.99
  -6   9  -1   16.06   11.38
  -5  -9   8   28.41   11.85
  -5  -8   7   69.15   13.92
  -5  -8   8  142.75   18.23
  -5  -8   9  282.64   25.50
  -5  -7   7   20.07    9.40
  -5  -7   8  542.36   35.67
  -5  -7   9   -2.03    9.21
  -5  -7  10  151.66   18.70
  -5  -6   6    2.26    6.07
  -5  -6   7   69.20   11.52
  -5  -6   8    1.67    7.83
  -5  -6   9  278.28   23.41
  -5  -6  10    9.16    9.13
  -5  -5   7   26.17    7.49
  -5  -5   8   -1.55    7.50
  -5  -5   9   33.24   10.17
  -5  -5  10  110.10   15.22
  -5  -5  11   38.01   12.15
  -5  -4  -2    1.37    3.66
  -5  -4   8   -1.40    4.52
  -5  -4   9   21.95    8.85
  -5  -4  10   32.01   10.63
  -5  -4  11   89.21   15.51
  -5  -3   5  232.31   14.82
  -5  -3   8  238.62   19.88
  -5  -3   8    1.34    4.20
  -5  -3   9   58.31   13.10
  -5  -3   9   41.14   10.37
  -5  -3  10   13.62    9.88
  -5  -3  10   15.48   10.72
  -5  -2  -4   10.14    6.50
  -5  -2  -3   87.15   10.34
  -5  -2   5  184.65   11.96
  -5  -2   6   21.97    8.21
  -5  -2   7  581.03   36.99
  -5  -2   8   69.28   13.12
  -5  -2   9  531.35   37.74
  -5  -2  10   41.63   13.36
  -5  -1  -3   -1.75    3.95
  -5  -1   5   21.96    4.84
  -5  -1   6   84.16   12.16
  -5  -1   7   10.23    7.37
  -5  -1   8  437.34   31.70
  -5  -1   9    8.78    9.64
  -5  -1  10  359.51   31.91
  -5   0  -3   38.97    8.40
  -5   0  -2   -1.73    3.97
  -5   0   2  441.96   27.35
  -5   0   3    2.19    7.27
  -5   0   6  405.89   28.47
  -5   0   6  333.86   24.68
  -5   0   7   10.63    8.55
  -5   0   8   11.39    8.32
  -5   0   9  224.56   23.72
  -5   1  -4  548.37   33.40
  -5   1  -3   64.38   10.36
  -5   1  -2   10.01    6.46
  -5   1  -1    0.61    3.89
  -5   1   2  236.92   18.59
  -5   1   2  225.00   13.73
  -5   1   3  988.38   64.48
  -5   1   3 1361.99   58.67
  -5   1   4 1591.08   74.32
  -5   1   5  606.29   43.51
  -5   1   5 1608.00   56.80
  -5   1   6  326.25   26.79
  -5   1   6  352.84   25.35
  -5   1   7  287.73   24.53
  -5   1   7  232.11   22.24
  -5   1   8    5.01    9.53
  -5   1   9   86.69   16.61
  -5   2  -4   16.95    8.28
  -5   2  -3  946.81   50.90
  -5   2  -2    4.05    6.84
  -5   2  -1  841.04   45.67
  -5   2   0   -2.47    3.91
  -5   2   1  426.99   21.71
  -5   2   1  559.41   29.76
  -5   2   2  987.16   49.28
  -5   2   2  920.31   43.07
  -5   2   3  181.43   12.44
  -5   2   4  816.90   43.33
  -5   2   4  913.63   49.81
  -5   2   5  529.16   34.01
  -5   2   5  622.04   37.85
  -5   2   6  516.08   34.73
  -5   2   6  460.19   32.04
  -5   2   7  274.39   25.17
  -5   2   7  320.74   27.36
  -5   2   8  236.16   24.39
  -5   2   8  214.98   23.70
  -5   3  -6   32.36    4.38
  -5   3  -5    9.61    8.45
  -5   3  -4  549.50   34.24
  -5   3  -3  547.60   33.71
  -5   3  -2 1208.83   62.68
  -5   3  -1  250.11   19.47
  -5   3  -1  385.65   23.69
  -5   3   0 1012.51   53.55
  -5   3   1   51.37    9.94
  -5   3   1   41.18    5.38
  -5   3   1   33.65    6.01
  -5   3   2  504.30   25.80
  -5   3   2  386.29   28.93
  -5   3   3  414.32   24.78
  -5   3   4  369.89   25.84
  -5   3   4  409.43   25.49
  -5   3   4  431.73   29.95
  -5   3   5  208.61   17.74
  -5   3   5  207.07   21.19
  -5   3   5  170.22   18.16
  -5   3   6  623.19   41.14
  -5   3   6  670.04   42.83
  -5   3   7    2.49    9.96
  -5   3   7   11.38    9.23
  -5   3   8  169.18   22.66
  -5   3   8  251.69   25.30
  -5   4  -6   17.77    9.14
  -5   4  -5  319.95   24.64
  -5   4  -4    1.10    4.15
  -5   4  -3  511.50   30.22
  -5   4  -3  400.59   26.22
  -5   4  -2  900.95   49.07
  -5   4  -2  867.16   47.29
  -5   4  -1  651.81   31.55
  -5   4  -1  653.23   31.47
  -5   4   0  744.99   39.47
  -5   4   0  837.21   43.99
  -5   4   0  732.32   36.82
  -5   4   1  590.36   35.69
  -5   4   1  552.22   31.16
  -5   4   2 1423.36   70.18
  -5   4   3  175.42   16.73
  -5   4   3  137.08   13.06
  -5   4   4   30.93    9.09
  -5   4   4   43.50    9.92
  -5   4   4   39.32   12.39
  -5   4   5  520.12   35.89
  -5   4   5  474.33   31.93
  -5   4   5  469.24   33.43
  -5   4   6    7.66   10.48
  -5   4   6    4.83    8.52
  -5   4   6    8.20    9.39
  -5   4   7  285.14   27.96
  -5   4   7  339.99   30.25
  -5   4   7  301.39   27.80
  -5   5  -7  131.15   12.36
  -5   5  -7  143.43   17.76
  -5   5  -6   44.99   11.02
  -5   5  -6   25.63    5.77
  -5   5  -5  254.15   18.34
  -5   5  -5  275.35   21.92
  -5   5  -5  223.87   14.51
  -5   5  -4   44.55   10.01
  -5   5  -4   24.98    4.59
  -5   5  -4   42.31    9.24
  -5   5  -3  200.41   12.25
  -5   5  -3  273.32   19.03
  -5   5  -2  146.71   10.04
  -5   5  -2  155.06   15.54
  -5   5  -1  846.52   47.47
  -5   5   0  390.75   27.52
  -5   5   0  390.04   24.70
  -5   5   1 1409.67   70.40
  -5   5   2    2.02    4.38
  -5   5   2    4.34    7.16
  -5   5   3  475.65   31.30
  -5   5   3  476.76   31.14
  -5   5   3  509.39   34.63
  -5   5   4   78.71   15.41
  -5   5   4   81.70   13.30
  -5   5   4   94.01   13.62
  -5   5   5   83.68   13.94
  -5   5   5   64.96   13.68
  -5   5   5   58.03   13.70
  -5   5   6  128.53   18.40
  -5   5   6  147.43   20.31
  -5   5   6  101.44   17.57
  -5   5   7   50.82   14.41
  -5   6  -7  169.37   19.69
  -5   6  -7  197.43   16.46
  -5   6  -6   70.22   11.61
  -5   6  -6   51.60    7.73
  -5   6  -5  225.27   19.53
  -5   6  -5  222.67   14.89
  -5   6  -4   16.53    9.69
  -5   6  -4   36.40    6.14
  -5   6  -3  -11.25    9.82
  -5   6  -3    3.72    4.34
  -5   6  -3   -1.85    7.90
  -5   6  -2  271.07   22.96
  -5   6  -1   34.87    9.53
  -5   6  -1   35.12    8.35
  -5   6   0  745.44   42.39
  -5   6   0  768.04   45.51
  -5   6   1    7.50    6.21
  -5   6   1    7.08    7.51
  -5   6   2  717.38   41.97
  -5   6   2  723.36   44.22
  -5   6   2  658.38   40.51
  -5   6   3   22.81    9.60
  -5   6   3   21.20    8.73
  -5   6   3    3.58    9.90
  -5   6   4  311.97   27.41
  -5   6   4  300.04   26.63
  -5   6   4  364.84   29.96
  -5   6   5   56.51   14.04
  -5   6   5   53.00   15.50
  -5   6   5   38.58   12.88
  -5   7  -7   44.14   11.12
  -5   7  -6  340.61   27.38
  -5   7  -6  390.66   26.87
  -5   7  -6  314.47   21.55
  -5   7  -5    6.35    5.39
  -5   7  -5   -2.76    9.38
  -5   7  -5    4.14    8.11
  -5   7  -4  663.41   37.49
  -5   7  -4  748.45   44.12
  -5   7  -4  823.31   45.12
  -5   7  -3   24.12    9.49
  -5   7  -3   31.03   11.44
  -5   7  -3   34.56    7.56
  -5   7  -2  385.22   27.45
  -5   7  -2  399.94   29.86
  -5   7  -1   39.86   11.69
  -5   7  -1   38.07   10.26
  -5   7   0  114.32   14.64
  -5   7   1  283.74   22.88
  -5   7   1  339.69   25.54
  -5   7   1  316.95   27.00
  -5   7   2   79.19   15.71
  -5   7   2   78.51   12.94
  -5   7   2   95.35   14.82
  -5   7   3  211.81   24.17
  -5   7   3  222.31   22.57
  -5   7   3  253.50   23.69
  -5   7   4  318.94   28.28
  -5   7   4  248.10   25.28
  -5   8  -7  135.99   17.36
  -5   8  -6  -11.28   10.98
  -5   8  -6    4.54    8.64
  -5   8  -5  292.16   20.41
  -5   8  -5  268.36   24.86
  -5   8  -5  329.59   26.82
  -5   8  -4   54.78    9.82
  -5   8  -4   71.94   14.95
  -5   8  -4   76.78   13.94
  -5   8  -3  505.20   36.09
  -5   8  -2   41.26   12.67
  -5   8  -2   54.25   12.31
  -5   8  -1   69.73   14.81
  -5   8  -1  104.44   14.69
  -5   8   0   -1.04    7.99
  -5   8   1  200.98   22.35
  -5   8   1  167.74   18.25
  -5   8   1  185.12   20.35
  -5   8   2   24.06   11.36
  -5   8   2   18.70    9.61
  -5   8   3   89.77   15.24
  -5   8   3   90.58   16.34
  -5   9  -7   44.42   12.69
  -5   9  -6   23.06   12.06
  -5   9  -5   -9.35   10.72
  -5   9  -5  -15.61   11.54
  -5   9  -4  157.59   20.75
  -5   9  -3  292.58   28.28
  -5   9  -2   62.72   14.95
  -5   9  -2  113.15   18.34
  -5   9  -1  225.39   23.08
  -5   9   0   92.10   15.73
  -5   9   0   98.53   14.45
  -5   9   1  179.96   21.61
  -5   9   1  200.60   20.60
  -4 -10   8   49.26   14.59
  -4  -9   7    3.72    9.63
  -4  -9   8   11.31   10.23
  -4  -9   9   40.85   12.92
  -4  -9  10   -8.09   11.91
  -4  -8   6   -3.24    9.74
  -4  -8   7   53.13   12.69
  -4  -8   8   19.83   10.41
  -4  -8   9    7.03    9.94
  -4  -8  10  146.00   19.67
  -4  -8  11   20.43   11.78
  -4  -7   5  105.99   14.63
  -4  -7   6  312.77   24.73
  -4  -7   7   18.67    9.50
  -4  -7   8  251.25   22.69
  -4  -7   9    7.64    9.49
  -4  -7  10   13.94   10.20
  -4  -7  11   -2.51    9.23
  -4  -6   5  269.44   20.84
  -4  -6   6  146.99   15.28
  -4  -6   7  418.27   28.34
  -4  -6   8  388.06   28.13
  -4  -6   9  142.42   17.09
  -4  -6  10  116.09   16.25
  -4  -6  11    8.35   10.86
  -4  -6  12  -26.76   11.96
  -4  -5   7   47.92    9.58
  -4  -5   8   86.12   12.10
  -4  -5   9  645.99   39.81
  -4  -5  10   82.43   13.95
  -4  -5  11  338.29   28.84
  -4  -5  12   -1.34   10.46
  -4  -4  -2   -0.26    3.45
  -4  -4   8  209.93   17.99
  -4  -4   9  120.80   14.80
  -4  -4   9   99.91   16.60
  -4  -4  10  740.98   48.50
  -4  -4  10  713.31   44.94
  -4  -4  11  -14.58   13.86
  -4  -4  12   72.11   15.62
  -4  -3  -1  158.78   10.79
  -4  -3   4 2053.25   95.17
  -4  -3   7  373.23   27.66
  -4  -3   8   17.25    9.03
  -4  -3   9  491.20   35.82
  -4  -3  10   29.69   11.87
  -4  -2   3 3083.82  138.44
  -4  -2   4   43.21    5.68
  -4  -2   6   50.05    9.86
  -4  -2   7  724.84   43.38
  -4  -2   8   -7.39    9.19
  -4  -2   9  117.43   17.03
  -4  -2  10   92.76   16.60
  -4  -1   6  468.83   29.98
  -4  -1   7  252.47   21.26
  -4  -1   8  229.52   21.89
  -4  -1   9  106.74   16.60
  -4  -1  10   53.05   14.25
  -4   0   5 2829.22  134.95
  -4   0   6 1540.39   81.50
  -4   0   6 1712.88   83.30
  -4   0   7  514.65   34.31
  -4   0   8  489.22   34.92
  -4   0   9   95.85   16.51
  -4   1  -3 1261.74   58.91
  -4   1   1 1228.94   56.14
  -4   1   2  829.29   35.63
  -4   1   2  661.13   32.81
  -4   1   4   -0.74    5.32
  -4   1   5  970.54   56.38
  -4   1   5 1283.71   60.36
  -4   1   6   15.57    9.09
  -4   1   6    9.69    7.37
  -4   1   7  402.47   30.75
  -4   1   7  483.76   31.98
  -4   1   8   47.48   12.40
  -4   1   9  331.16   30.94
  -4   2  -5   72.14    5.39
  -4   2  -4   -0.27    3.89
  -4   2  -3  233.58   17.24
  -4   2   1 2257.28  102.26
  -4   2   1 2254.10  102.30
  -4   2   2  616.07   31.15
  -4   2   3 1429.00   68.45
  -4   2   4   81.36   12.76
  -4   2   5  167.56   17.33
  -4   2   5  127.10   14.45
  -4   2   6    5.78    8.39
  -4   2   6   13.93    8.99
  -4   2   7   29.68   10.94
  -4   2   7   28.32   10.50
  -4   2   8  244.71   23.22
  -4   2   8  206.45   23.51
  -4   3  -6  316.06   17.15
  -4   3  -5  757.91   38.54
  -4   3  -4   37.12    5.45
  -4   3  -3  103.11   11.27
  -4   3  -3   69.25    5.68
  -4   3  -2 1522.83   74.87
  -4   3  -1   28.10    2.92
  -4   3   0 1177.25   55.37
  -4   3   0 1132.13   53.47
  -4   3   1  144.52   10.88
  -4   3   1  158.65   11.63
  -4   3   2 3110.42  142.91
  -4   3   3    3.81    5.83
  -4   3   3    0.80    6.67
  -4   3   4 1606.57   82.18
  -4   3   4 1720.17   84.20
  -4   3   4 1591.38   80.45
  -4   3   5   59.65   12.46
  -4   3   5   62.46   11.81
  -4   3   6  580.74   37.66
  -4   3   6  533.12   37.28
  -4   3   7   14.40    9.56
  -4   3   7   12.20    9.81
  -4   3   8  151.37   21.29
  -4   3   8  178.17   20.88
  -4   4  -8   54.17    9.33
  -4   4  -7   -1.14    6.20
  -4   4  -6  411.42   24.38
  -4   4  -5   35.63    6.49
  -4   4  -4  812.21   42.67
  -4   4  -4  710.65   36.57
  -4   4  -3  151.94   10.01
  -4   4  -2  960.79   45.62
  -4   4  -1   58.83    9.28
  -4   4  -1   68.07    8.53
  -4   4   0   70.03    8.77
  -4   4   0   83.21   10.63
  -4   4   1  763.64   40.50
  -4   4   2    3.20    3.78
  -4   4   2  272.91   15.09
  -4   4   3 1617.94   83.40
  -4   4   3 1684.79   83.33
  -4   4   3 1764.33   86.25
  -4   4   4  319.23   24.77
  -4   4   4  326.22   23.97
  -4   4   4  344.76   26.01
  -4   4   5  794.84   46.41
  -4   4   5  798.25   48.10
  -4   4   5  797.57   48.35
  -4   4   6  175.15   20.06
  -4   4   6  168.86   20.43
  -4   4   7  179.04   20.36
  -4   4   7  139.48   20.44
  -4   4   8   -6.20   11.91
  -4   5  -8    0.67    5.98
  -4   5  -7  150.85   13.95
  -4   5  -6   34.51    7.61
  -4   5  -6    0.54    4.19
  -4   5  -5   16.31    7.94
  -4   5  -5 1061.63   24.36
  -4   5  -4    6.19    7.03
  -4   5  -4   12.33    5.08
  -4   5  -3 1671.22   78.53
  -4   5  -3 1515.50   73.62
  -4   5  -2  581.65   23.94
  -4   5  -2   -0.72    3.55
  -4   5  -1 1175.46   60.58
  -4   5  -1 1112.91   57.70
  -4   5   0    3.66    6.30
  -4   5   0    5.48    6.37
  -4   5   1 1048.24   54.83
  -4   5   2   15.09    7.52
  -4   5   2   10.34    7.77
  -4   5   2   24.29    9.55
  -4   5   3  426.97   28.54
  -4   5   3  403.29   27.82
  -4   5   3  407.21   29.68
  -4   5   4  411.27   29.41
  -4   5   4  380.55   29.42
  -4   5   4  433.16   30.78
  -4   5   5  253.57   24.55
  -4   5   5  254.19   23.62
  -4   5   5  272.50   25.32
  -4   5   6  130.79   18.63
  -4   5   6  139.39   18.60
  -4   5   6  146.36   20.52
  -4   5   7  255.77   26.07
  -4   6  -8   35.99    8.60
  -4   6  -8   39.66    9.31
  -4   6  -7  109.68   12.54
  -4   6  -7  128.82   13.42
  -4   6  -6  234.46   17.76
  -4   6  -6  272.22   19.72
  -4   6  -5  169.78   15.92
  -4   6  -5  153.13   13.11
  -4   6  -5  149.03   15.89
  -4   6  -4  720.20   42.85
  -4   6  -4  801.38   43.23
  -4   6  -4  745.77   39.24
  -4   6  -3  197.04   18.31
  -4   6  -3  223.87   18.40
  -4   6  -3  173.02   14.16
  -4   6  -2 1316.78   70.89
  -4   6  -2 1537.09   73.94
  -4   6  -2 1413.70   72.48
  -4   6  -1  436.00   27.97
  -4   6  -1  436.44   30.34
  -4   6   0 1260.63   65.32
  -4   6   1  201.72   19.20
  -4   6   1  219.32   18.88
  -4   6   2  306.38   23.64
  -4   6   2  327.94   25.44
  -4   6   2  303.91   23.83
  -4   6   3   -1.07    8.87
  -4   6   3    3.00    7.21
  -4   6   3   -1.94    8.56
  -4   6   4  268.53   25.89
  -4   6   4  308.37   26.60
  -4   6   4  331.81   26.87
  -4   6   5   60.96   14.17
  -4   6   5   50.27   13.80
  -4   6   5   46.31   12.56
  -4   6   6  393.59   33.00
  -4   7  -8  130.54   14.25
  -4   7  -8  109.66   13.92
  -4   7  -7   10.47    8.47
  -4   7  -7   22.72    9.28
  -4   7  -7   15.56    7.31
  -4   7  -6  316.70   23.11
  -4   7  -6  293.37   20.87
  -4   7  -6  303.30   23.87
  -4   7  -5   -1.61    8.18
  -4   7  -5   -7.23    7.67
  -4   7  -5    4.72    5.81
  -4   7  -4  262.35   21.57
  -4   7  -4  282.27   22.28
  -4   7  -4  275.74   19.26
  -4   7  -3  908.53   51.82
  -4   7  -3  973.69   53.02
  -4   7  -3  930.99   52.02
  -4   7  -2  754.93   45.48
  -4   7  -2  845.57   47.64
  -4   7  -1  443.28   29.85
  -4   7   0  634.33   39.14
  -4   7   1  135.38   16.41
  -4   7   1   85.45   14.42
  -4   7   2  157.65   17.66
  -4   7   2  164.90   19.32
  -4   7   2  157.21   18.61
  -4   7   3   50.13   12.25
  -4   7   3   42.28   12.42
  -4   7   3   26.12   11.03
  -4   7   4   92.16   16.34
  -4   7   4  108.78   17.50
  -4   7   4  113.65   17.72
  -4   8  -8   33.85   10.56
  -4   8  -8   23.81    9.05
  -4   8  -7  271.55   23.48
  -4   8  -7  339.98   26.60
  -4   8  -7  312.97   22.69
  -4   8  -6  163.26   15.15
  -4   8  -6  158.02   17.75
  -4   8  -6  145.35   17.46
  -4   8  -5  191.32   19.08
  -4   8  -5  166.70   15.76
  -4   8  -5  155.41   17.42
  -4   8  -4  110.93   14.80
  -4   8  -4   90.91   11.93
  -4   8  -4  119.83   16.13
  -4   8  -3  360.86   26.93
  -4   8  -3  280.69   24.74
  -4   8  -2  -12.50    9.75
  -4   8  -2    5.31   10.46
  -4   8  -1  581.61   37.62
  -4   8   0  -10.53   12.20
  -4   8   0    1.04    9.01
  -4   8   1  565.90   39.83
  -4   8   1  625.84   40.75
  -4   8   2   15.62   11.51
  -4   8   2   29.21   12.24
  -4   8   2   29.45   10.50
  -4   8   3  355.11   30.53
  -4   8   3  351.11   30.39
  -4   9  -8  106.15   15.57
  -4   9  -7  216.13   19.32
  -4   9  -7  214.21   21.08
  -4   9  -7  156.61   19.22
  -4   9  -6  110.72   16.13
  -4   9  -6  101.73   15.05
  -4   9  -6  110.49   13.69
  -4   9  -5  185.29   20.42
  -4   9  -5  197.52   20.03
  -4   9  -5  175.33   17.56
  -4   9  -4   13.20   10.71
  -4   9  -3   85.87   15.77
  -4   9  -3   89.70   14.97
  -4   9  -2   71.75   13.57
  -4   9  -1   18.30   10.20
  -4   9  -1   13.86   12.11
  -4   9   0  289.98   28.40
  -4   9   0  347.05   28.66
  -4   9   1   60.27   14.21
  -4   9   1   33.78   11.56
  -4  10  -6  206.28   22.21
  -4  10  -5   21.97   10.38
  -4  10  -5   18.04    8.86
  -4  10  -4  466.79   35.59
  -3 -10   7   -7.04   13.25
  -3 -10   8  263.74   27.89
  -3  -9   6  -11.16   10.54
  -3  -9   7  214.67   23.12
  -3  -9   8   98.44   16.68
  -3  -9   9  130.44   19.07
  -3  -9  10   23.62   12.12
  -3  -8   5   48.50   12.52
  -3  -8   6  314.94   26.06
  -3  -8   7  129.23   17.11
  -3  -8   8  147.47   18.31
  -3  -8   9   84.49   16.07
  -3  -8  10  235.03   25.01
  -3  -8  11  147.67   20.62
  -3  -7   5   94.66   14.19
  -3  -7   6  518.65   34.39
  -3  -7   7   26.06   10.02
  -3  -7   8  227.45   21.59
  -3  -7   9  203.93   20.87
  -3  -7  10  405.81   32.52
  -3  -7  11   22.56   11.85
  -3  -6   4  669.68   39.18
  -3  -6   5    9.11    6.35
  -3  -6   6   30.32    9.11
  -3  -6   7  174.42   17.28
  -3  -6   8   21.58    9.17
  -3  -6   9  157.03   17.80
  -3  -6   9  135.67   11.34
  -3  -6  10    1.15    9.09
  -3  -6  10   -3.04    6.63
  -3  -6  11  405.32   32.79
  -3  -5   6   -0.70    4.37
  -3  -5   7  913.97   50.06
  -3  -5   8   47.12    6.91
  -3  -5   8   41.78   10.64
  -3  -5   9  112.17   14.81
  -3  -5   9  113.80   10.70
  -3  -5  10   11.14    6.40
  -3  -5  10   10.14    9.42
  -3  -5  11   24.99    9.16
  -3  -5  11   46.48   13.31
  -3  -4  -1  309.67   15.51
  -3  -4   7    1.42    5.19
  -3  -4   8  466.96   31.31
  -3  -4   8  510.14   34.08
  -3  -4   8  476.38   27.45
  -3  -4   9    8.46    5.92
  -3  -4   9   18.28   10.26
  -3  -4   9   -0.99    8.92
  -3  -4  10   41.65   13.13
  -3  -4  10   23.49    8.35
  -3  -4  11   -0.88    8.97
  -3  -4  11   -1.57   10.96
  -3  -3   3  165.43   11.86
  -3  -3   6  404.46   27.27
  -3  -3   7  934.60   54.45
  -3  -3   7 1008.15   49.89
  -3  -3   8  464.47   32.46
  -3  -3   8  457.18   27.81
  -3  -3   9  430.82   28.85
  -3  -3   9  534.23   35.49
  -3  -3  10  223.61   23.63
  -3  -3  10  176.93   17.87
  -3  -3  11   35.21   13.85
  -3  -3  11   20.33    9.50
  -3  -3  12   22.10   10.47
  -3  -2   0 2502.32  112.94
  -3  -2   3  786.35   38.01
  -3  -2   4  186.62   12.53
  -3  -2   6    1.51    6.39
  -3  -2   7 1269.93   62.81
  -3  -2   7 1205.54   65.82
  -3  -2   8    2.13    6.83
  -3  -2   9 1285.17   69.92
  -3  -2   9 1198.85   64.93
  -3  -2  10   24.70    9.85
  -3  -2  10   28.21   12.41
  -3  -2  11  333.92   28.38
  -3  -1  -1 3187.20  144.01
  -3  -1   0 1544.58   71.59
  -3  -1   3 4331.81  193.17
  -3  -1   6  330.80   23.77
  -3  -1   7   -1.85    7.26
  -3  -1   7    4.16    6.83
  -3  -1   8  641.31   42.28
  -3  -1   8  700.87   40.24
  -3  -1   9   14.42    9.41
  -3  -1   9    6.46    9.43
  -3  -1  10  428.75   35.62
  -3  -1  10  437.30   32.38
  -3   0  -1   76.30    7.00
  -3   0   0 1102.69   53.22
  -3   0   0 1113.19   52.92
  -3   0   2 5392.42  240.74
  -3   0   5   56.86    9.64
  -3   0   6  606.83   34.15
  -3   0   6  496.49   33.26
  -3   0   7  634.94   39.84
  -3   0   8  119.37   16.53
  -3   0   9   59.35   14.40
  -3   1  -3   19.95    3.44
  -3   1  -2 1059.30   50.03
  -3   1  -1 1313.00   61.79
  -3   1   1 2817.09  126.14
  -3   1   2  257.95   15.27
  -3   1   4    0.64    6.26
  -3   1   5 3640.88  162.22
  -3   1   5 3290.58  161.69
  -3   1   6  434.61   28.86
  -3   1   6  440.33   29.90
  -3   1   7  785.90   49.52
  -3   1   7  887.52   48.08
  -3   1   8   90.33   15.81
  -3   1   9   80.60   16.52
  -3   2  -6  275.03   19.00
  -3   2  -5 1043.61   49.93
  -3   2  -5 1245.77   54.65
  -3   2  -4  459.56   22.62
  -3   2  -4  420.81   23.97
  -3   2  -3 2500.58  117.69
  -3   2  -3 2736.96  118.45
  -3   2  -2  217.93   11.76
  -3   2  -2  243.82   14.48
  -3   2   0 1098.73   48.41
  -3   2   0  980.81   46.81
  -3   2   1 1504.45   68.98
  -3   2   1 1468.55   68.90
  -3   2   2  787.92   39.38
  -3   2   3   97.79   11.59
  -3   2   4 2217.08  106.85
  -3   2   5  622.37   38.05
  -3   2   5  628.88   37.67
  -3   2   6  590.92   36.09
  -3   2   6  571.36   37.56
  -3   2   7  330.02   28.95
  -3   2   7  375.99   26.79
  -3   2   8  307.38   24.61
  -3   2   8  269.10   27.57
  -3   3  -8    2.19    6.20
  -3   3  -7   23.80    3.67
  -3   3  -7   40.13    8.26
  -3   3  -6  324.09   17.73
  -3   3  -6  294.10   20.43
  -3   3  -5  297.00   18.80
  -3   3  -4 1897.09   88.22
  -3   3  -3    9.69    3.71
  -3   3  -2 3302.71  148.05
  -3   3  -1   28.72    5.63
  -3   3   0 1939.39   90.12
  -3   3   1   97.09    9.11
  -3   3   2  234.11   16.58
  -3   3   3   -1.38    6.74
  -3   3   4  476.67   31.40
  -3   3   4  520.34   32.16
  -3   3   5   96.01   14.71
  -3   3   5  164.64   16.04
  -3   3   6  304.35   26.22
  -3   3   6  312.38   24.75
  -3   3   7  253.23   22.76
  -3   3   7  245.39   25.23
  -3   3   8  395.13   29.95
  -3   3   8  397.72   34.85
  -3   4 -10   88.07   13.43
  -3   4  -9    2.45    7.60
  -3   4  -8  347.18   24.03
  -3   4  -7    5.04    5.98
  -3   4  -6  344.80   22.55
  -3   4  -5    7.72    4.56
  -3   4  -4  179.40   12.69
  -3   4  -3 1092.50   52.56
  -3   4  -1 1805.15   85.68
  -3   4   0 3055.02  141.09
  -3   4   1 1162.63   58.27
  -3   4   2 1149.09   59.69
  -3   4   2 1147.70   58.77
  -3   4   3  699.18   39.48
  -3   4   3  653.42   39.34
  -3   4   3  702.22   40.19
  -3   4   4  439.48   30.24
  -3   4   4  437.18   29.77
  -3   4   5   92.57   14.18
  -3   4   5   74.63   14.28
  -3   4   6   -9.12    8.95
  -3   4   6   -1.34    9.96
  -3   4   7  195.40   20.77
  -3   4   7  195.89   23.72
  -3   5 -10   -1.82    7.55
  -3   5  -9  386.05   27.11
  -3   5  -8   29.74    9.31
  -3   5  -7  474.39   28.98
  -3   5  -6    4.57    5.59
  -3   5  -5  208.25   15.30
  -3   5  -4    0.65    3.38
  -3   5  -4    8.44    4.81
  -3   5  -3  508.96   17.56
  -3   5  -3  584.73   21.88
  -3   5  -2    7.21    5.75
  -3   5  -2    8.68    6.12
  -3   5  -2   19.02    7.63
  -3   5  -1  825.52   52.05
  -3   5  -1 1290.18   54.45
  -3   5   0  130.31   12.78
  -3   5   1 1287.70   81.36
  -3   5   1 2178.63   84.53
  -3   5   2  313.48   23.16
  -3   5   2  274.35   21.84
  -3   5   2  319.33   22.51
  -3   5   3 1080.70   59.59
  -3   5   3 1144.86   59.78
  -3   5   3 1079.62   59.68
  -3   5   4   39.16   10.69
  -3   5   4   24.57    9.94
  -3   5   4   30.97    9.39
  -3   5   5  189.18   21.33
  -3   5   5  199.43   20.91
  -3   5   5  197.88   20.59
  -3   5   6   11.55   10.54
  -3   5   6    6.18    9.69
  -3   5   6   15.19    9.88
  -3   5   7   15.51   10.03
  -3   6 -10   34.80   10.02
  -3   6  -9   89.74   10.78
  -3   6  -9   64.01   12.09
  -3   6  -8  111.98   13.47
  -3   6  -8   90.94   12.22
  -3   6  -7  412.56   26.57
  -3   6  -7  406.65   26.80
  -3   6  -6  518.98   29.34
  -3   6  -6  434.16   29.48
  -3   6  -5  875.58   47.04
  -3   6  -5  847.48   46.26
  -3   6  -5  820.06   44.25
  -3   6  -4  315.84   22.62
  -3   6  -4  318.68   21.31
  -3   6  -4  376.30   24.37
  -3   6  -3 1092.65   56.82
  -3   6  -3 1036.56   55.89
  -3   6  -3 1115.48   56.66
  -3   6  -2   22.30    9.26
  -3   6  -2   22.16    7.31
  -3   6  -2   16.98    7.83
  -3   6  -1   71.72   10.40
  -3   6   0  552.06   36.23
  -3   6   0  643.94   36.41
  -3   6   1   26.48   10.96
  -3   6   1   40.77    9.82
  -3   6   2  625.60   38.11
  -3   6   2  602.05   37.67
  -3   6   3   33.76    9.57
  -3   6   3   37.03   10.43
  -3   6   3   38.90   11.01
  -3   6   4  671.53   41.94
  -3   6   4  630.75   42.01
  -3   6   4  589.47   39.87
  -3   6   5   82.04   14.96
  -3   6   5   64.22   14.61
  -3   6   5   90.17   16.22
  -3   6   6  217.20   22.42
  -3   7 -10    9.67    8.22
  -3   7  -9   -2.64    7.93
  -3   7  -9   -1.40    9.44
  -3   7  -8  140.31   15.02
  -3   7  -8  120.00   15.56
  -3   7  -7  -12.59   11.64
  -3   7  -7    0.74    6.44
  -3   7  -6  843.16   44.12
  -3   7  -6  847.72   46.27
  -3   7  -6  706.21   44.71
  -3   7  -5   87.13   12.63
  -3   7  -5   97.88   11.72
  -3   7  -5   95.12   14.57
  -3   7  -4 1823.95   88.97
  -3   7  -4 1751.94   86.72
  -3   7  -4 1768.54   87.93
  -3   7  -3   19.24    8.29
  -3   7  -3   18.66    7.54
  -3   7  -3   26.20    9.92
  -3   7  -2  938.35   51.33
  -3   7  -2  895.32   50.34
  -3   7  -1  246.34   20.21
  -3   7   0  515.37   33.75
  -3   7   0  512.41   34.50
  -3   7   1   71.99   12.62
  -3   7   1   73.92   14.79
  -3   7   2  140.75   17.30
  -3   7   2  151.56   17.67
  -3   7   2  174.81   18.79
  -3   7   3  183.07   20.05
  -3   7   3  219.47   21.88
  -3   7   3  179.14   20.59
  -3   7   4  114.40   16.81
  -3   7   4   99.22   16.37
  -3   7   4  106.56   16.97
  -3   7   5  188.59   21.82
  -3   8  -9   39.75    9.90
  -3   8  -9   22.45   12.73
  -3   8  -8  -12.76   12.51
  -3   8  -8    8.50    7.39
  -3   8  -7   83.31   15.47
  -3   8  -7  113.77   14.04
  -3   8  -6    9.23    7.00
  -3   8  -6    2.64    7.84
  -3   8  -5  545.77   34.45
  -3   8  -5  545.65   36.11
  -3   8  -5  577.48   34.22
  -3   8  -4    9.74    8.22
  -3   8  -4   21.09    8.82
  -3   8  -4   30.15   10.55
  -3   8  -3 1164.22   62.77
  -3   8  -3 1149.41   62.47
  -3   8  -2  293.71   23.58
  -3   8  -1  896.97   53.50
  -3   8  -1 1005.52   54.88
  -3   8   0   82.24   15.83
  -3   8   0   55.80   12.84
  -3   8   1  165.51   20.45
  -3   8   1  180.73   20.34
  -3   8   2   83.93   14.56
  -3   8   2   77.92   14.80
  -3   8   2   73.11   13.99
  -3   8   3  112.78   17.20
  -3   8   3   80.74   15.35
  -3   9  -9  225.20   23.06
  -3   9  -9  218.73   21.21
  -3   9  -8    4.72    7.95
  -3   9  -8   10.50    8.99
  -3   9  -8  -16.75   14.17
  -3   9  -7  191.53   19.21
  -3   9  -7  203.37   18.93
  -3   9  -6   18.40   12.38
  -3   9  -6    5.54    7.54
  -3   9  -6   21.49    8.72
  -3   9  -5  140.18   15.67
  -3   9  -5  107.67   14.40
  -3   9  -5  143.95   17.73
  -3   9  -4  149.71   17.50
  -3   9  -4  138.27   16.08
  -3   9  -4  121.68   16.93
  -3   9  -3  124.78   16.69
  -3   9  -2  276.36   24.78
  -3   9  -1  312.25   27.24
  -3   9  -1  353.26   28.66
  -3   9   0  181.09   21.91
  -3   9   0  171.40   20.73
  -3   9   1  104.88   17.56
  -3   9   1  127.20   18.76
  -3  10  -8  376.06   28.41
  -3  10  -8  348.05   30.19
  -3  10  -7   71.04   15.44
  -3  10  -7   56.16   12.07
  -3  10  -7   44.92   11.52
  -3  10  -6  190.92   19.80
  -3  10  -6  206.63   22.47
  -3  10  -6  182.76   19.50
  -3  10  -5    2.20   10.77
  -3  10  -5   -1.95    7.94
  -3  10  -5   -1.00    7.72
  -3  10  -4  266.26   24.68
  -3  10  -4  224.69   23.79
  -3  10  -3   88.20   16.28
  -3  10  -2  180.35   21.01
  -3  11  -7   90.78   14.83
  -3  11  -6   69.81   13.37
  -3  11  -6   47.80   12.37
  -2 -10   6    7.08   10.77
  -2 -10   7    7.06   10.63
  -2 -10   8   91.78   18.02
  -2  -9   5   12.39   10.27
  -2  -9   6   82.80   14.92
  -2  -9   7   11.24    9.80
  -2  -9   8   67.85   14.35
  -2  -9   9   39.39   13.40
  -2  -9  10   -4.42   10.26
  -2  -8   4   66.44   13.45
  -2  -8   5  739.26   45.95
  -2  -8   6  174.39   19.30
  -2  -8   7  279.16   24.84
  -2  -8   8   59.29    4.74
  -2  -8   8   66.70   14.25
  -2  -8   9   88.21    7.86
  -2  -8   9  105.85   16.99
  -2  -8  10   41.66   12.95
  -2  -8  11    1.46   10.15
  -2  -7   4  784.11   46.00
  -2  -7   5    2.72    7.95
  -2  -7   6 1859.58   94.16
  -2  -7   7   15.34    9.63
  -2  -7   7   10.51    2.56
  -2  -7   8  475.70   25.38
  -2  -7   8  613.30   36.75
  -2  -7   9    2.67    4.79
  -2  -7   9    1.17   10.42
  -2  -7  10  195.98   22.12
  -2  -7  10  198.48   15.40
  -2  -7  11   16.63   11.09
  -2  -6  -2  348.58   18.65
  -2  -6   3  299.63   22.57
  -2  -6   4  190.65   17.07
  -2  -6   5  287.16   21.73
  -2  -6   6  439.49   25.67
  -2  -6   6  277.59   14.46
  -2  -6   7  488.04   29.59
  -2  -6   7  367.50   20.23
  -2  -6   8  185.53   13.16
  -2  -6   8  230.95   20.49
  -2  -6   9  881.41   50.15
  -2  -6   9  791.30   41.98
  -2  -6  10  324.32   28.42
  -2  -6  10  342.29   22.33
  -2  -6  11  303.71   22.43
  -2  -6  11  301.77   28.77
  -2  -5  -2    2.92    4.09
  -2  -5  -1 1106.21   50.86
  -2  -5   6  435.09   16.85
  -2  -5   6  117.40   17.71
  -2  -5   7  448.41   27.23
  -2  -5   7  332.18   19.94
  -2  -5   8  891.72   48.06
  -2  -5   8  769.96   41.02
  -2  -5   9  714.55   44.15
  -2  -5   9  699.61   38.20
  -2  -5  10  101.72   12.11
  -2  -5  10   90.57   15.93
  -2  -5  11  352.85   32.37
  -2  -5  11  325.40   30.64
  -2  -5  11  350.05   25.07
  -2  -5  12   71.77   13.04
  -2  -4  -6    3.89    7.52
  -2  -4  -5  157.78   14.29
  -2  -4  -2  223.31   13.71
  -2  -4   5  390.12   19.54
  -2  -4   6  644.69   32.31
  -2  -4   7   25.20    6.19
  -2  -4   7   38.49    9.32
  -2  -4   8  380.02   23.47
  -2  -4   9   81.15   11.16
  -2  -4  10   73.91   11.49
  -2  -4  11    4.75   12.56
  -2  -4  11   26.60    9.38
  -2  -4  12  250.43   23.37
  -2  -3  -7    3.79    8.52
  -2  -3  -6  129.90   14.09
  -2  -3  -5    4.49    6.87
  -2  -3  -2  130.05    9.65
  -2  -3   2 3670.86  166.44
  -2  -3   3 1099.50   53.54
  -2  -3   4 4058.10  180.39
  -2  -3   5  501.99   25.53
  -2  -3   6 1290.44   61.90
  -2  -3   7   21.79    6.70
  -2  -3   8   77.83   10.23
  -2  -3   9  466.85   29.62
  -2  -3  10   -0.84    7.74
  -2  -3  11  205.93   21.03
  -2  -3  11  225.92   26.13
  -2  -2  -8   13.79    9.89
  -2  -2  -7  196.90   18.40
  -2  -2  -6    5.33    7.70
  -2  -2  -5  591.94   33.63
  -2  -2  -2  449.24   23.55
  -2  -2   2  366.97   19.35
  -2  -2   3  113.22    8.79
  -2  -2   4 1628.16   74.73
  -2  -2   5 4217.17  190.04
  -2  -2   6  101.35   11.97
  -2  -2   6   97.68    9.79
  -2  -2   7  902.22   27.14
  -2  -2   7   90.26   13.72
  -2  -2   8    5.43    6.64
  -2  -2   9  605.42   36.64
  -2  -2  10    6.56    8.53
  -2  -2  11   20.45   10.37
  -2  -1  -8   -4.35    9.59
  -2  -1  -7  110.43   14.24
  -2  -1  -6   -6.63    8.32
  -2  -1  -5  196.16   15.80
  -2  -1   0  103.78    6.89
  -2  -1   2   16.21    4.15
  -2  -1   2   16.93    3.17
  -2  -1   3   42.37    6.19
  -2  -1   4 1792.58   83.27
  -2  -1   5 1203.24   58.67
  -2  -1   6 1564.40   75.56
  -2  -1   6 1535.88   78.41
  -2  -1   7  307.78   24.18
  -2  -1   7  337.25   22.44
  -2  -1   8  262.60   20.65
  -2  -1   9  197.68   19.14
  -2  -1  10   58.10   12.66
  -2   0  -8    7.80    9.38
  -2   0  -7   61.83   11.75
  -2   0  -6   70.42   11.07
  -2   0  -5   -1.11    5.65
  -2   0  -1  968.27   44.74
  -2   0   0 4269.03  192.60
  -2   0   0 4357.92  192.61
  -2   0   1 1105.61   53.79
  -2   0   1 1154.77   52.05
  -2   0   2 8937.06  396.49
  -2   0   3    9.07    5.03
  -2   0   4 1564.53   75.01
  -2   0   4 1580.52   75.59
  -2   0   5  274.18   18.74
  -2   0   5  260.63   18.15
  -2   0   6  701.50   37.61
  -2   0   6  615.70   38.93
  -2   0   7  894.41   51.82
  -2   0   7  891.35   48.86
  -2   0   8  474.82   31.36
  -2   0   9   99.98   14.73
  -2   0  10  377.76   30.43
  -2   1  -8  313.29   24.52
  -2   1  -7   50.58   10.90
  -2   1  -6  282.76   21.10
  -2   1  -5   23.43    6.49
  -2   1  -4   16.30    5.13
  -2   1  -3   81.43    7.28
  -2   1  -3   74.38    5.12
  -2   1  -2 1800.14   82.80
  -2   1  -2 1853.56   82.58
  -2   1  -1 2771.65  120.81
  -2   1  -1 2584.12  119.70
  -2   1   0 1136.58   54.63
  -2   1   0 1179.07   53.03
  -2   1   1 9821.33  434.88
  -2   1   1 9839.11  434.39
  -2   1   2 3184.34  144.41
  -2   1   3 3607.57  164.78
  -2   1   4  102.38   10.82
  -2   1   5  469.17   29.58
  -2   1   5  460.75   28.22
  -2   1   5  440.84   27.34
  -2   1   6   -5.18    7.28
  -2   1   6    6.59    7.09
  -2   1   6    0.94    6.79
  -2   1   7  859.11   49.37
  -2   1   7  895.72   52.53
  -2   1   8    7.05    9.05
  -2   1   8   28.05   11.72
  -2   1   9  379.85   30.59
  -2   2  -8   63.27   10.37
  -2   2  -7  829.20   45.07
  -2   2  -6  345.80   20.45
  -2   2  -6  297.37   14.08
  -2   2  -5 1329.36   65.09
  -2   2  -5 1337.85   61.22
  -2   2  -4    3.09    4.75
  -2   2  -4   14.10    5.61
  -2   2  -3 2148.58   99.48
  -2   2  -3 2204.21   98.88
  -2   2  -2    9.45    4.18
  -2   2  -2    9.20    3.03
  -2   2  -1 2258.20  103.33
  -2   2  -1 2278.58  103.66
  -2   2   0 3934.93  176.37
  -2   2   1 6771.96  301.78
  -2   2   3 3462.41  159.21
  -2   2   4  395.04   24.98
  -2   2   5 1669.94   86.12
  -2   2   5 1705.85   83.38
  -2   2   6   61.31   10.28
  -2   2   6   44.64   10.68
  -2   2   6   49.35   12.00
  -2   2   7  187.27   19.36
  -2   2   7  178.75   20.68
  -2   2   7  192.42   17.69
  -2   2   8  170.34   21.36
  -2   2   8  149.41   19.10
  -2   3 -10    6.91    8.03
  -2   3  -9   55.41   10.92
  -2   3  -8  227.48   12.88
  -2   3  -8  255.28   19.03
  -2   3  -8  199.03   12.29
  -2   3  -7  402.79   25.14
  -2   3  -7  366.26   20.32
  -2   3  -6 1045.67   51.45
  -2   3  -6 1174.69   55.94
  -2   3  -5 1434.25   69.50
  -2   3  -4 5185.29  233.24
  -2   3  -3 1846.56   85.38
  -2   3  -1   -4.10    4.22
  -2   3   0 3847.93  174.16
  -2   3   1  155.64   12.15
  -2   3   2 2735.61  127.25
  -2   3   3   41.26    8.46
  -2   3   4 3297.17  155.36
  -2   3   4 3258.75  153.11
  -2   3   5   20.51    8.15
  -2   3   5   28.46    9.56
  -2   3   6  965.52   54.19
  -2   3   6 1078.51   60.44
  -2   3   7   -0.81    7.84
  -2   3   7   -1.40   10.57
  -2   3   8   81.51   13.13
  -2   3   8   91.37   17.65
  -2   4 -10   49.93   11.26
  -2   4  -9    5.85    4.43
  -2   4  -9    6.92    7.75
  -2   4  -8  161.17   15.95
  -2   4  -7  444.04   28.31
  -2   4  -6  937.88   48.79
  -2   4  -5  203.77   15.14
  -2   4  -4 1916.36   90.08
  -2   4  -3  507.99   27.54
  -2   4  -2 2593.30  122.01
  -2   4  -2 2670.30  121.72
  -2   4  -1  394.03   22.98
  -2   4  -1  375.60   22.89
  -2   4   0  984.57   49.88
  -2   4   1 3327.64  150.17
  -2   4   1 3137.35  149.31
  -2   4   2   15.45    8.16
  -2   4   2   21.71    7.23
  -2   4   3 1566.10   80.68
  -2   4   3 1737.52   83.38
  -2   4   4    9.52    8.28
  -2   4   4    1.49    7.09
  -2   4   5  848.52   52.30
  -2   4   5  918.35   49.89
  -2   4   6   28.80    9.58
  -2   4   6   34.67   11.67
  -2   4   7  118.58   15.35
  -2   4   7  129.30   20.18
  -2   5 -11  107.74   15.87
  -2   5 -10  125.55   16.24
  -2   5  -9  110.97   14.13
  -2   5  -8    0.79    7.36
  -2   5  -7  776.10   42.98
  -2   5  -6    1.21    5.42
  -2   5  -5  385.21   23.71
  -2   5  -4  210.80   15.44
  -2   5  -3 4231.05  197.13
  -2   5  -3 4450.59  198.76
  -2   5  -2   35.35    7.86
  -2   5  -2   48.83    7.82
  -2   5  -1 3855.41  177.61
  -2   5   0  343.21   21.34
  -2   5   0  249.43   19.67
  -2   5   1 1120.05   58.78
  -2   5   1 1154.75   59.13
  -2   5   2   57.63   10.67
  -2   5   2   64.75   11.73
  -2   5   3  293.84   23.34
  -2   5   3  284.87   22.82
  -2   5   3  306.74   22.41
  -2   5   4   65.49   12.18
  -2   5   4   80.16   13.49
  -2   5   4   67.10   12.99
  -2   5   5  100.48   14.37
  -2   5   5  104.21   16.65
  -2   5   6  312.20   29.93
  -2   5   6  303.96   25.09
  -2   6 -11  127.23   17.04
  -2   6 -10   50.57   12.72
  -2   6  -9  298.49   23.19
  -2   6  -9  276.43   20.09
  -2   6  -8   33.95    8.80
  -2   6  -8   40.24   10.21
  -2   6  -7  398.52   28.48
  -2   6  -7  639.85   32.43
  -2   6  -6  406.98   23.74
  -2   6  -6  276.63   22.00
  -2   6  -5  110.51   13.48
  -2   6  -5  114.06   11.62
  -2   6  -4 1832.08   89.21
  -2   6  -4 1893.83   89.19
  -2   6  -4 1796.26   88.58
  -2   6  -3  168.76   16.05
  -2   6  -3  139.85   14.49
  -2   6  -3  166.47   13.75
  -2   6  -2 2321.07  110.13
  -2   6  -2 2339.73  111.75
  -2   6  -1  111.26   13.09
  -2   6   0  556.78   33.86
  -2   6   0  557.62   33.91
  -2   6   1  207.35   18.25
  -2   6   1  204.44   18.85
  -2   6   2  504.50   33.64
  -2   6   2  542.57   34.24
  -2   6   3  112.22   14.48
  -2   6   3   98.04   14.91
  -2   6   3   99.37   15.18
  -2   6   4  150.11   17.17
  -2   6   4  157.21   19.32
  -2   6   4  153.22   19.18
  -2   6   5   10.80   10.18
  -2   6   5   -1.40   10.76
  -2   6   5    2.56    9.63
  -2   7 -11   -6.60    9.94
  -2   7 -10  275.29   23.72
  -2   7 -10  240.70   20.30
  -2   7  -9    0.93    6.98
  -2   7  -9   -6.53   10.04
  -2   7  -8  352.53   26.18
  -2   7  -8  462.63   28.65
  -2   7  -7   51.55    9.79
  -2   7  -7   49.68   11.42
  -2   7  -6  543.03   31.89
  -2   7  -6  477.40   31.31
  -2   7  -5    0.72    6.69
  -2   7  -5    1.38   10.19
  -2   7  -5    6.07    6.48
  -2   7  -4  314.60   23.29
  -2   7  -4  277.37   23.09
  -2   7  -4  320.51   21.45
  -2   7  -3   66.04   13.51
  -2   7  -3   79.06   10.54
  -2   7  -3   76.00   11.56
  -2   7  -2  161.33   16.07
  -2   7  -1 1008.03   55.56
  -2   7  -1 1066.39   56.83
  -2   7   0  494.75   31.88
  -2   7   0  478.64   31.89
  -2   7   1  377.44   27.77
  -2   7   1  378.61   27.87
  -2   7   2  585.70   38.56
  -2   7   2  581.60   37.76
  -2   7   3   28.75   10.18
  -2   7   3   23.23   10.64
  -2   7   3   38.29   11.70
  -2   7   4   47.60   11.99
  -2   7   4   42.49   12.92
  -2   7   4   52.99   14.01
  -2   7   5    1.06    9.02
  -2   8 -10   17.76    8.84
  -2   8 -10   24.53   11.72
  -2   8  -9  319.16   25.25
  -2   8  -9  359.81   26.80
  -2   8  -8   46.92   10.38
  -2   8  -8   27.09   11.69
  -2   8  -7  365.32   27.52
  -2   8  -7  414.98   27.66
  -2   8  -6  274.70   21.37
  -2   8  -6  255.45   22.91
  -2   8  -6  305.98   22.67
  -2   8  -5  355.59   24.19
  -2   8  -5  333.57   26.11
  -2   8  -5  348.60   24.88
  -2   8  -4  289.56   23.44
  -2   8  -4  257.93   23.78
  -2   8  -4  324.16   21.83
  -2   8  -3  251.39   21.35
  -2   8  -2  145.01   16.53
  -2   8  -2  106.00   14.86
  -2   8  -1  737.29   44.41
  -2   8  -1  720.92   43.06
  -2   8   0    2.11    8.35
  -2   8   0    2.82   10.10
  -2   8   1  552.00   37.89
  -2   8   1  565.09   37.57
  -2   8   2   -3.16   10.79
  -2   8   2    4.83    9.55
  -2   8   3  179.95   20.03
  -2   8   4   22.13   11.58
  -2   9 -10    0.89   12.30
  -2   9 -10   -7.62    8.61
  -2   9  -9   59.25   14.28
  -2   9  -9   46.88   11.21
  -2   9  -8  161.23   17.34
  -2   9  -8  152.72   19.13
  -2   9  -8  124.09   15.84
  -2   9  -7  311.14   23.77
  -2   9  -7  306.08   24.38
  -2   9  -7  293.63   25.52
  -2   9  -6  113.94   17.00
  -2   9  -6  126.30   15.45
  -2   9  -6   97.61   13.36
  -2   9  -5  644.77   40.96
  -2   9  -5  607.42   37.24
  -2   9  -5  658.84   40.99
  -2   9  -4  106.88   17.58
  -2   9  -4  125.34   13.76
  -2   9  -4  109.63   15.67
  -2   9  -3  278.55   24.20
  -2   9  -2   49.76   11.84
  -2   9  -2   27.32   10.82
  -2   9  -1  142.53   17.95
  -2   9  -1  139.66   18.02
  -2   9   0   71.93   14.85
  -2   9   0   50.22   12.62
  -2   9   1   -8.02   12.40
  -2   9   2  283.84   26.13
  -2  10  -9   -1.02   14.12
  -2  10  -9   36.35   10.41
  -2  10  -8   95.84   17.43
  -2  10  -8   83.27   13.30
  -2  10  -8   90.68   14.20
  -2  10  -7    4.25    7.92
  -2  10  -7    2.72    7.44
  -2  10  -7  -20.81   14.40
  -2  10  -6  361.61   30.01
  -2  10  -6  360.87   26.14
  -2  10  -6  338.52   27.58
  -2  10  -5  -18.38   14.96
  -2  10  -5   -1.71    8.01
  -2  10  -5   -5.95   11.28
  -2  10  -4  366.30   29.53
  -2  10  -3   17.76   10.44
  -2  10  -3   38.59   12.38
  -2  10  -2  286.22   27.24
  -2  10  -2  334.71   27.65
  -2  10  -1   25.25   12.21
  -2  11  -8  101.24   14.72
  -2  11  -7   49.08   11.37
  -2  11  -7   61.53   13.39
  -2  11  -6   45.88   12.30
  -2  11  -6   30.11   10.20
  -1 -10   5   44.85   14.82
  -1 -10   6  444.57   35.79
  -1 -10   7   -2.86   12.03
  -1 -10   8  346.84   32.06
  -1  -9   0  151.95   15.55
  -1  -9   1   46.92    9.03
  -1  -9   2   34.67    7.15
  -1  -9   4  -13.55   12.13
  -1  -9   5  208.37   22.14
  -1  -9   6   -6.20   10.95
  -1  -9   7  366.33   30.51
  -1  -9   8   15.93   12.00
  -1  -9   9  228.79   26.09
  -1  -9  10   19.76   12.40
  -1  -8   0    7.87    6.62
  -1  -8   1  376.04   20.75
  -1  -8   1  274.54   13.99
  -1  -8   2   17.67    3.15
  -1  -8   4   85.25   15.03
  -1  -8   5  123.60   16.42
  -1  -8   6  162.23   18.98
  -1  -8   7   40.11   12.39
  -1  -8   8  414.66   32.38
  -1  -8   9   23.40   11.87
  -1  -8   9   48.55    7.92
  -1  -8  10  163.39   14.29
  -1  -8  10  157.56   22.19
  -1  -7  -2   12.20    4.91
  -1  -7  -1    0.77    3.64
  -1  -7  -1    0.68    7.05
  -1  -7   0  481.45   28.39
  -1  -7   2  939.73   43.63
  -1  -7   3  432.06   22.14
  -1  -7   3  424.57   30.33
  -1  -7   4  589.80   30.44
  -1  -7   4  661.65   38.96
  -1  -7   5   37.04   10.54
  -1  -7   6  696.55   42.58
  -1  -7   7    3.12    7.90
  -1  -7   8  444.81   32.55
  -1  -7   9   64.38   13.31
  -1  -7   9   54.00    8.69
  -1  -7  10  366.21   31.06
  -1  -7  10  366.87   23.80
  -1  -7  11   52.20    9.90
  -1  -7  11   49.98   14.90
  -1  -6  -4    0.47    4.13
  -1  -6  -1   16.87    4.85
  -1  -6  -1   30.46    7.92
  -1  -6   2  285.77   14.86
  -1  -6   3  645.48   30.72
  -1  -6   3  608.64   37.17
  -1  -6   3  610.67   30.94
  -1  -6   4  442.19   28.97
  -1  -6   5  690.27   40.57
  -1  -6   6 1767.76   89.10
  -1  -6   7   -4.70    8.04
  -1  -6   8  129.26   11.54
  -1  -6   8  139.56   16.47
  -1  -6   9  258.23   18.40
  -1  -6   9  248.72   23.49
  -1  -6  10    5.29    6.78
  -1  -6  10    3.87    9.31
  -1  -6  11  358.78   25.54
  -1  -6  11  324.23   31.71
  -1  -5  -5  210.58   16.96
  -1  -5  -4    0.48    3.14
  -1  -5  -2  549.29   32.47
  -1  -5   0  128.17    8.13
  -1  -5   2   26.29    3.94
  -1  -5   2   42.72    5.42
  -1  -5   6   19.08    7.78
  -1  -5   7 1262.73   60.72
  -1  -5   7 1228.07   66.07
  -1  -5   8   11.99    8.36
  -1  -5   8    9.75    6.15
  -1  -5   9  368.85   31.55
  -1  -5   9  438.38   31.81
  -1  -5   9  439.26   26.65
  -1  -5  10   -2.75   11.57
  -1  -5  10   13.06    9.84
  -1  -5  10   10.12    7.46
  -1  -5  11  188.35   23.46
  -1  -5  11  146.42   16.90
  -1  -5  12    2.97   11.12
  -1  -4  -7   54.55   10.90
  -1  -4  -6   25.91    8.74
  -1  -4  -5  187.38   15.54
  -1  -4  -2    3.25    3.43
  -1  -4   0   68.96    5.25
  -1  -4   1 1373.37   63.67
  -1  -4   2 2504.94  115.14
  -1  -4   2 2669.00  115.59
  -1  -4   6    5.05    6.40
  -1  -4   6 4312.21   44.02
  -1  -4   7    1.81    3.87
  -1  -4   7   59.75    7.26
  -1  -4   8 1580.01   80.85
  -1  -4   8 1486.35   74.13
  -1  -4   9  161.56   19.29
  -1  -4   9  159.91   15.05
  -1  -4  10  205.11   23.92
  -1  -4  10  215.79   19.02
  -1  -4  11  -12.78   13.89
  -1  -4  11   -6.53   10.88
  -1  -3  -8   51.07   11.66
  -1  -3  -7   18.87    9.10
  -1  -3  -6   26.89    8.84
  -1  -3  -5    1.09    6.79
  -1  -3   0 4237.88  189.70
  -1  -3   1  716.66   33.66
  -1  -3   2 6622.14  296.24
  -1  -3   5  769.72   37.95
  -1  -3   6  317.78   19.22
  -1  -3   7    4.36    4.34
  -1  -3   7 1319.10   29.17
  -1  -3   8  539.95   35.79
  -1  -3   8  537.50   31.90
  -1  -3   9  510.12   31.76
  -1  -3   9  501.06   35.96
  -1  -3  10   92.85   16.75
  -1  -3  10   86.13   12.98
  -1  -3  11  370.83   33.01
  -1  -3  11  292.88   25.84
  -1  -2  -9   29.17   10.61
  -1  -2  -8  221.72   20.38
  -1  -2  -7   38.75   10.42
  -1  -2  -6  417.84   26.78
  -1  -2  -5  170.45   14.33
  -1  -2   0  221.13   12.26
  -1  -2   1 7508.93  333.49
  -1  -2   2 1583.22   73.09
  -1  -2   3 4311.97  190.90
  -1  -2   3 4262.44  193.44
  -1  -2   4 1028.09   48.65
  -1  -2   5 1313.32   62.69
  -1  -2   6   23.92    6.35
  -1  -2   7  997.83   51.60
  -1  -2   8  222.76   21.21
  -1  -2   8  252.72   19.43
  -1  -2   9  555.94   39.61
  -1  -2   9  601.49   36.18
  -1  -2  10  127.16   19.39
  -1  -2  10  149.05   17.16
  -1  -2  11  250.64   23.50
  -1  -1  -9  121.39   16.00
  -1  -1  -8    3.28    8.84
  -1  -1  -7  723.20   41.31
  -1  -1  -6   16.34    8.25
  -1  -1  -5   -1.55    3.42
  -1  -1  -2 3062.04  137.75
  -1  -1  -1   71.63    5.43
  -1  -1   2 5321.64  235.53
  -1  -1   3 3627.46  162.43
  -1  -1   4 3981.05  179.45
  -1  -1   5 1327.81   64.22
  -1  -1   6  951.53   49.08
  -1  -1   7  105.65   12.09
  -1  -1   8  201.34   20.65
  -1  -1   8  171.02   16.76
  -1  -1   9   13.69   10.94
  -1  -1   9    0.91    8.19
  -1  -1  10  174.58   23.37
  -1  -1  10  173.13   19.28
  -1   0  -9   -2.78    9.18
  -1   0  -8  281.98   22.75
  -1   0  -7   -3.52    8.11
  -1   0  -6  943.85   49.78
  -1   0  -3  102.17    8.75
  -1   0  -2 3795.22  166.04
  -1   0  -2 3613.14  166.20
  -1   0   2 3471.01  149.40
  -1   0   2 3209.19  149.94
  -1   0   2 3297.85  149.65
  -1   0   3 3152.76  147.17
  -1   0   3 3376.23  147.56
  -1   0   4 1855.82   84.32
  -1   0   4 1746.73   84.84
  -1   0   5  303.05   19.90
  -1   0   6  641.30   36.29
  -1   0   7    7.34    7.53
  -1   0   8   73.36   14.55
  -1   0   8   76.32   12.42
  -1   0   9   21.63    9.74
  -1   0   9   28.95   12.53
  -1   1 -10  102.18   16.33
  -1   1  -9    2.76    9.58
  -1   1  -8   42.44   10.75
  -1   1  -7  936.47   42.04
  -1   1  -7  905.28   41.81
  -1   1  -6  417.95   23.56
  -1   1  -6  381.65   22.88
  -1   1  -5  533.89   27.89
  -1   1  -5  449.15   22.50
  -1   1  -4  949.02   44.74
  -1   1  -4 1053.87   48.68
  -1   1  -3 1784.16   82.56
  -1   1  -2 9787.98  434.71
  -1   1  -2 9999.00  436.09
  -1   1   2   80.00    7.81
  -1   1   2   82.60    7.38
  -1   1   3 5901.51  264.19
  -1   1   4  316.10   20.35
  -1   1   4  329.61   19.71
  -1   1   5 1234.15   60.30
  -1   1   5 1220.44   61.86
  -1   1   6    0.99    5.66
  -1   1   6    8.32    7.23
  -1   1   7 1188.04   62.81
  -1   1   8  109.19   14.90
  -1   1   8  115.47   18.22
  -1   1   9  109.56   16.42
  -1   1   9  129.05   20.33
  -1   2 -10   79.49   15.30
  -1   2  -9   26.32    3.82
  -1   2  -9   50.03   12.11
  -1   2  -9   51.15   10.55
  -1   2  -9   33.38    4.06
  -1   2  -8   53.23    5.51
  -1   2  -8   63.36   10.54
  -1   2  -8   70.29   12.68
  -1   2  -7  411.95   26.79
  -1   2  -7  401.52   27.18
  -1   2  -7  418.49   21.82
  -1   2  -6   16.69    4.24
  -1   2  -6   16.41    7.82
  -1   2  -6   25.61    6.96
  -1   2  -5 1505.65   73.13
  -1   2  -4 1089.91   53.22
  -1   2  -3 3256.28  138.74
  -1   2  -3 2940.81  136.99
  -1   2  -2 4667.23  206.80
  -1   2  -2 4601.86  206.22
  -1   2  -1 4061.90  181.74
  -1   2  -1 4057.01  181.36
  -1   2   0    7.44    3.75
  -1   2   1 1203.41   57.03
  -1   2   2   36.10    5.90
  -1   2   3 2726.45  125.41
  -1   2   4  104.05   10.84
  -1   2   5  274.49   19.14
  -1   2   6 1307.15   65.06
  -1   2   8  285.85   24.77
  -1   3 -10  118.28   16.52
  -1   3 -10  114.18   15.58
  -1   3  -9  368.94   27.45
  -1   3  -9  411.07   28.65
  -1   3  -9  397.44   21.75
  -1   3  -8    4.29    4.50
  -1   3  -8    0.79    8.31
  -1   3  -8   -7.07    6.67
  -1   3  -7  553.73   33.11
  -1   3  -6  271.71   19.09
  -1   3  -5  280.21   18.48
  -1   3  -4 1371.29   66.03
  -1   3  -3   77.74    7.58
  -1   3  -3   64.72    7.86
  -1   3  -2 4784.57  217.52
  -1   3  -2 4957.27  218.67
  -1   3  -1  514.91   27.20
  -1   3  -1  568.64   28.51
  -1   3   0 4613.95  208.03
  -1   3   1 1543.74   74.57
  -1   3   1 1573.59   73.78
  -1   3   2  617.63   33.38
  -1   3   3   60.52    8.34
  -1   3   4  287.56   17.25
  -1   3   4  331.86   16.33
  -1   3   5   11.56    7.52
  -1   3   6  134.10   13.72
  -1   3   7   40.61    8.90
  -1   4 -11   39.48   11.00
  -1   4 -10  500.24   34.04
  -1   4  -9   33.84    6.80
  -1   4  -9   25.54    9.08
  -1   4  -8  889.22   49.45
  -1   4  -7   -1.40    6.41
  -1   4  -6 1309.11   65.65
  -1   4  -5   -1.06    4.96
  -1   4  -4 2647.36  122.84
  -1   4  -3  258.05   17.66
  -1   4  -2 2230.43  102.06
  -1   4  -2 2202.29  103.70
  -1   4  -1 3478.23  154.34
  -1   4  -1 3298.79  155.91
  -1   4   0 3947.02  180.40
  -1   4   1 3535.66  158.85
  -1   4   1 3348.93  157.01
  -1   4   2 1197.13   60.22
  -1   4   3 1205.53   67.02
  -1   4   3 1367.34   65.06
  -1   4   4  502.69   33.01
  -1   4   4  466.73   28.99
  -1   4   5   85.29   11.67
  -1   4   6   63.14   11.00
  -1   5 -11   35.06   10.89
  -1   5 -10   19.90    6.79
  -1   5 -10   14.22   10.19
  -1   5 -10    5.55    6.22
  -1   5  -9  346.91   21.14
  -1   5  -9   14.46    7.08
  -1   5  -8   -2.45    3.29
  -1   5  -8    8.12    6.78
  -1   5  -7 1340.47   68.34
  -1   5  -6  338.34   22.68
  -1   5  -5 1850.45   89.11
  -1   5  -4  413.40   25.10
  -1   5  -3  755.83   39.33
  -1   5  -3  799.41   41.56
  -1   5  -2  199.40   13.89
  -1   5  -2  206.73   15.93
  -1   5  -1 2311.60  109.59
  -1   5   0  251.32   19.03
  -1   5   0  267.52   19.10
  -1   5   1 1676.86   81.89
  -1   5   1 1619.24   80.05
  -1   5   2  342.42   24.36
  -1   5   2  325.91   23.19
  -1   5   3 1555.91   77.63
  -1   5   3 1495.63   78.02
  -1   5   3 1436.01   74.30
  -1   5   4   52.37   12.65
  -1   5   4   58.66   10.84
  -1   5   5  367.95   30.71
  -1   5   5  337.67   24.72
  -1   5   6   52.27   11.26
  -1   6 -11   52.79   12.12
  -1   6 -10  -14.46   10.94
  -1   6 -10   14.72    8.92
  -1   6  -9  144.12   14.87
  -1   6  -9  124.61   15.71
  -1   6  -8  364.14   24.94
  -1   6  -8  402.78   26.91
  -1   6  -7  724.69   42.41
  -1   6  -7  877.99   45.23
  -1   6  -6  845.35   46.30
  -1   6  -6  916.57   47.80
  -1   6  -5 1525.61   72.39
  -1   6  -5 1361.89   70.49
  -1   6  -4 1502.51   72.62
  -1   6  -4 1374.81   70.28
  -1   6  -3  631.38   36.61
  -1   6  -3  642.23   34.21
  -1   6  -2  751.88   42.02
  -1   6  -2  761.35   39.47
  -1   6  -1  619.06   36.82
  -1   6  -1  645.11   36.50
  -1   6   0   30.96    9.36
  -1   6   0    6.88    6.88
  -1   6   1   -2.67    7.98
  -1   6   1   -0.83    7.37
  -1   6   2  512.66   33.74
  -1   6   2  504.04   32.34
  -1   6   3   -7.77    9.67
  -1   6   3   -4.16    9.05
  -1   6   3    1.10    8.22
  -1   6   4  569.99   38.65
  -1   6   4  561.94   38.12
  -1   6   4  488.63   32.98
  -1   6   5    1.71    8.50
  -1   6   5   11.85   10.42
  -1   6   5   -7.19   10.36
  -1   7 -11   47.20   12.43
  -1   7 -10  300.29   25.44
  -1   7 -10  293.81   22.65
  -1   7  -9   72.76   12.43
  -1   7  -9   47.82   10.96
  -1   7  -8  406.25   28.19
  -1   7  -8  381.56   26.31
  -1   7  -7   44.69    9.77
  -1   7  -7   50.59   11.52
  -1   7  -6  820.67   44.04
  -1   7  -6  714.44   42.41
  -1   7  -5  231.83   18.65
  -1   7  -5  239.84   19.99
  -1   7  -4 1880.91   91.53
  -1   7  -4 1973.61   95.11
  -1   7  -4 1928.60   93.65
  -1   7  -3  111.45   13.54
  -1   7  -3  122.21   11.50
  -1   7  -2 1682.37   82.56
  -1   7  -2 1581.70   81.03
  -1   7  -1   75.49   11.94
  -1   7  -1   54.72   13.75
  -1   7   0  458.13   30.28
  -1   7   0  523.73   32.99
  -1   7   1  206.82   19.15
  -1   7   1  233.81   21.04
  -1   7   2   37.62   12.10
  -1   7   2   60.03   12.94
  -1   7   3  224.47   23.67
  -1   7   3  215.25   20.10
  -1   7   3  235.89   23.72
  -1   7   4   29.92   10.19
  -1   7   4   12.52   11.15
  -1   8 -11  113.91   15.92
  -1   8 -10  158.53   17.37
  -1   8 -10  116.55   16.93
  -1   8  -9  106.68   15.05
  -1   8  -9  135.97   16.21
  -1   8  -8  161.94   17.25
  -1   8  -8  174.10   18.34
  -1   8  -7   69.18   11.64
  -1   8  -7   85.13   14.14
  -1   8  -6    7.98    6.36
  -1   8  -6    9.65    7.64
  -1   8  -6   19.58   11.38
  -1   8  -5  730.51   40.59
  -1   8  -5  778.61   44.68
  -1   8  -5  730.55   43.07
  -1   8  -4   35.90    7.94
  -1   8  -4   43.93   10.27
  -1   8  -3  909.61   51.44
  -1   8  -2    4.04   11.46
  -1   8  -2    1.88    8.04
  -1   8  -1 1299.76   69.65
  -1   8  -1 1274.41   67.64
  -1   8   0   27.55   10.71
  -1   8   0   19.86    9.49
  -1   8   1  281.44   24.28
  -1   8   1  328.17   26.84
  -1   8   2   -5.87   10.90
  -1   8   2   -1.21    8.75
  -1   8   3   13.38    9.08
  -1   9 -11  133.79   17.71
  -1   9 -10   80.44   14.33
  -1   9 -10   89.16   15.44
  -1   9  -9  438.97   33.04
  -1   9  -9  490.17   32.70
  -1   9  -8   -7.05    7.83
  -1   9  -8   -6.07   12.23
  -1   9  -7  291.34   22.41
  -1   9  -7  298.48   24.69
  -1   9  -7  326.43   25.69
  -1   9  -6   14.48   11.47
  -1   9  -6   13.71    8.47
  -1   9  -6   10.63    7.25
  -1   9  -5  246.81   21.88
  -1   9  -5  190.64   16.89
  -1   9  -5  213.18   20.53
  -1   9  -4   71.47   13.50
  -1   9  -3   51.37   14.72
  -1   9  -3   39.85   11.10
  -1   9  -2  235.35   23.72
  -1   9  -2  286.33   24.21
  -1   9  -1   81.16   13.92
  -1   9  -1   89.56   14.78
  -1   9   0  175.21   19.27
  -1   9   0  161.92   19.47
  -1   9   1  137.21   18.06
  -1   9   2    1.09   11.08
  -1  10  -9   21.38    8.89
  -1  10  -9    3.40    8.20
  -1  10  -9   29.21   13.15
  -1  10  -8  330.38   25.71
  -1  10  -8  397.45   29.77
  -1  10  -8  363.41   28.79
  -1  10  -7   18.11   12.46
  -1  10  -7   14.45    9.24
  -1  10  -7   21.61    8.60
  -1  10  -6  266.51   24.15
  -1  10  -6  274.37   24.83
  -1  10  -6  272.76   21.03
  -1  10  -5  -10.33   11.78
  -1  10  -4   69.68   16.49
  -1  10  -4  107.29   16.04
  -1  10  -3   -8.41   14.54
  -1  10  -3    5.93    9.30
  -1  10  -2  112.75   16.84
  -1  10  -2  106.48   16.51
  -1  10  -1   45.72   13.32
  -1  11  -9   67.87   12.43
   0 -10   1   -2.88    7.05
   0 -10   2  264.55   19.93
   0 -10   3    7.66    6.28
   0 -10   4  167.99   12.88
   0 -10   4  154.20   14.00
   0 -10   5   67.65    8.92
   0 -10   5   57.71   14.44
   0 -10   6   92.51   17.49
   0 -10   7    2.87    9.99
   0 -10   8   93.46   17.36
   0  -9  -2   64.57   12.32
   0  -9  -1   26.52    9.13
   0  -9   0   57.36   10.39
   0  -9   1   86.97   11.45
   0  -9   2   86.88   10.87
   0  -9   3  501.46   21.05
   0  -9   3  190.74   18.59
   0  -9   4  193.38   13.21
   0  -9   4  164.95   20.24
   0  -9   5  632.64   34.16
   0  -9   5  622.80   42.55
   0  -9   6  413.71   32.15
   0  -9   7  256.55   25.44
   0  -9   8   80.22   15.66
   0  -9   9   81.98   17.06
   0  -8  -3  185.47   19.10
   0  -8  -2   18.07    8.71
   0  -8  -1  303.82   22.22
   0  -8   0   43.83    9.16
   0  -8   1   98.90   11.28
   0  -8   2    3.16    3.80
   0  -8   3  883.65   53.24
   0  -8   3  898.77   44.54
   0  -8   4  430.25   24.71
   0  -8   4  427.42   32.00
   0  -8   5  789.39   40.74
   0  -8   5  752.17   47.40
   0  -8   6  405.30   30.66
   0  -8   7  702.42   45.35
   0  -8   8  134.26   18.64
   0  -8   9   64.73   14.79
   0  -8  10   43.98    9.15
   0  -8  10   25.16   12.25
   0  -7  -3   86.35   11.42
   0  -7  -3   88.80   13.71
   0  -7  -2  218.92   18.01
   0  -7  -2  172.07   14.46
   0  -7  -1  711.03   38.68
   0  -7  -1  829.44   42.45
   0  -7   0  129.85   12.79
   0  -7   1    1.03    3.55
   0  -7   3   31.62    8.63
   0  -7   3   66.97    7.86
   0  -7   4  336.38   25.71
   0  -7   4  382.45   21.78
   0  -7   5  140.86   12.16
   0  -7   5  123.90   15.33
   0  -7   6  703.28   43.47
   0  -7   7   55.71   11.90
   0  -7   8 1533.38   82.42
   0  -7   9    1.26    9.80
   0  -7  10  240.79   19.06
   0  -7  10  187.81   23.34
   0  -7  11    4.66    7.51
   0  -6  -4   94.13   14.41
   0  -6  -3  118.73   14.33
   0  -6  -2  396.33   25.33
   0  -6  -2  375.30   23.62
   0  -6  -1  420.68   24.44
   0  -6  -1  432.66   26.53
   0  -6   0 1604.91   75.34
   0  -6   3   59.69    7.03
   0  -6   3    0.75    4.46
   0  -6   4  774.63   24.47
   0  -6   4  149.00   19.08
   0  -6   5  410.59   19.63
   0  -6   5  151.77   17.46
   0  -6   6  123.51   14.29
   0  -6   7  968.63   54.81
   0  -6   8  410.62   30.50
   0  -6   9  543.18   31.23
   0  -6   9  461.87   35.82
   0  -6  10   37.32   14.27
   0  -6  10   37.86    9.21
   0  -6  11  182.95   23.42
   0  -6  11  166.99   17.83
   0  -6  12   35.53   11.11
   0  -5  -6   48.87   10.24
   0  -5  -4   53.09   10.87
   0  -5  -3  380.99   25.52
   0  -5  -2  343.39   22.53
   0  -5  -1 1590.54   75.32
   0  -5   0    7.31    4.14
   0  -5   3 1454.00   68.18
   0  -5   4   -1.79    4.90
   0  -5   5 1628.47   77.66
   0  -5   6   18.68    7.32
   0  -5   7   27.88    9.45
   0  -5   8  373.62   29.03
   0  -5   8  402.02   29.92
   0  -5   9  248.36   24.33
   0  -5   9  263.90   19.96
   0  -5   9  285.06   25.43
   0  -5  10  255.66   20.32
   0  -5  10  230.02   25.38
   0  -5  11  238.95   26.64
   0  -5  11  218.10   20.95
   0  -4  -7  127.64   15.35
   0  -4  -4   49.63   10.33
   0  -4  -3  586.57   33.66
   0  -4   0  796.25   38.58
   0  -4   1 1267.83   59.68
   0  -4   3  173.12   11.52
   0  -4   4 2551.91  116.96
   0  -4   6  161.67   15.48
   0  -4   6  154.90   15.59
   0  -4   7    4.48    7.73
   0  -4   8  202.07   16.55
   0  -4   8  178.70   19.53
   0  -4   9   24.28   11.33
   0  -4   9   27.36    8.11
   0  -4  10  314.31   28.96
   0  -4  10  284.54   23.00
   0  -4  11   -4.80   13.25
   0  -4  11   -4.80    9.15
   0  -3  -8  157.19   17.21
   0  -3  -7   14.99    8.29
   0  -3  -6  537.27   28.29
   0  -3  -5   36.98    7.06
   0  -3  -4  490.53   28.80
   0  -3  -4  436.05   24.24
   0  -3  -3    2.57    4.01
   0  -3  -3  378.50   12.82
   0  -3  -2 2268.92  103.58
   0  -3  -1   39.50    6.77
   0  -3   0 3314.00  152.25
   0  -3   0 3518.77  153.23
   0  -3   2 5151.70  229.22
   0  -3   3 2109.80   96.37
   0  -3   6 2182.21  105.73
   0  -3   7  335.43   21.84
   0  -3   7  310.32   23.96
   0  -3   8  668.48   39.50
   0  -3   8  790.00   44.81
   0  -3   9    9.58    9.66
   0  -3   9    2.33    7.40
   0  -3  10   23.72   11.88
   0  -3  10   17.93    9.59
   0  -3  11  176.30   23.13
   0  -3  11  112.55   16.54
   0  -2  -9    6.55    9.60
   0  -2  -8   17.96    9.38
   0  -2  -7   64.00   11.40
   0  -2  -7   61.89    7.13
   0  -2  -6  192.05   12.75
   0  -2  -5 1405.51   65.37
   0  -2  -4  270.38   18.38
   0  -2  -4  244.17   14.71
   0  -2  -3 3603.89  161.52
   0  -2  -2 1979.15   89.77
   0  -2  -1 2207.06   97.70
   0  -2  -1 2093.90   96.55
   0  -2   0  891.81   43.43
   0  -2   0  988.61   43.91
   0  -2   2  476.03   23.41
   0  -2   3 4137.82  187.02
   0  -2   5 3391.71  154.90
   0  -2   6   52.78    9.74
   0  -2   6   53.36    8.26
   0  -2   7 2651.87  127.09
   0  -2   7 2790.98  131.43
   0  -2   8   26.52    8.67
   0  -2   8   21.56   10.13
   0  -2   9  299.82   27.25
   0  -2   9  298.38   23.25
   0  -2  10   -5.93   10.45
   0  -2  10  -12.68   10.61
   0  -1  -9  157.25   17.93
   0  -1  -8  154.21   16.23
   0  -1  -8  140.27    9.64
   0  -1  -7   75.78    7.89
   0  -1  -7   87.80   12.09
   0  -1  -6   -2.22    5.59
   0  -1  -5 1943.32   88.47
   0  -1  -4  428.38   21.68
   0  -1  -3 3529.09  157.51
   0  -1  -2  188.13   10.40
   0  -1   4 2264.66  104.50
   0  -1   6  903.98   46.96
   0  -1   6  893.37   49.56
   0  -1   7  211.17   19.43
   0  -1   7  194.27   17.14
   0  -1   8 1108.87   62.13
   0  -1   8 1051.88   57.32
   0  -1   9  201.98   19.78
   0  -1   9  222.27   24.39
   0  -1  10  107.91   15.85
   0  -1  10   97.17   18.77
   0   0  -9  291.63   23.89
   0   0  -8  290.40   16.51
   0   0  -8  341.40   23.79
   0   0  -7  140.22   14.59
   0   0  -7  131.52    9.92
   0   0  -6  177.24   15.03
   0   0  -6  165.82   14.67
   0   0  -6  153.72   11.07
   0   0  -5  212.07   16.18
   0   0  -5  225.66   12.88
   0   0  -4 2139.47   97.16
   0   0  -4 2170.77  100.77
   0   0  -3  473.71   25.01
   0   0  -3  456.44   22.50
   0   0   2 6198.77  274.17
   0   0   4 2053.31   95.96
   0   0   5  245.08   18.49
   0   0   5  222.16   16.46
   0   0   6  164.89   16.88
   0   0   6  162.95   14.90
   0   0   7  123.41   14.13
   0   0   7  135.68   16.85
   0   0   8  287.48   27.77
   0   0   8  338.37   24.68
   0   0   9  289.58   28.16
   0   0   9  241.91   23.04
   0   1 -10  102.86   15.45
   0   1  -9  185.18   18.75
   0   1  -9  189.02   12.52
   0   1  -8 1017.95   54.38
   0   1  -8  975.81   54.44
   0   1  -8 1008.48   48.23
   0   1  -7  201.91   13.66
   0   1  -7  240.63   18.61
   0   1  -7  241.32   18.62
   0   1  -6  987.15   49.21
   0   1  -6  933.83   49.57
   0   1  -6  922.18   45.40
   0   1  -5  331.83   21.23
   0   1  -5  336.85   18.55
   0   1  -4 2455.84  109.61
   0   1  -4 2302.24  106.68
   0   1  -3 1811.30   83.94
   0   1   2  170.33   10.01
   0   1   3 3332.58  149.71
   0   1   4  383.09   20.60
   0   1   5  608.44   58.57
   0   1   5 1756.75   58.38
   0   1   6    3.04    8.74
   0   1   7   89.87   15.69
   0   1   8  153.93   20.71
   0   1   8  137.98   16.56
   0   1   9  146.58   18.17
   0   1   9  161.36   22.56
   0   2 -10    1.89    9.55
   0   2 -10    2.09    7.01
   0   2  -9  280.09   22.59
   0   2  -9  286.99   22.98
   0   2  -9  274.29   17.10
   0   2  -8    7.87    5.35
   0   2  -8   21.60    9.17
   0   2  -8   12.35    7.56
   0   2  -7 2698.45  120.00
   0   2  -7 2634.24  115.08
   0   2  -6   59.12    7.14
   0   2  -6   49.68    8.66
   0   2  -4   16.57    5.20
   0   2  -3 4423.32  198.96
   0   2  -2  475.94   23.72
   0   2  -2  499.50   24.99
   0   2   0  937.26   43.78
   0   2   1 2044.97   95.87
   0   2   1 2151.09   95.49
   0   2   2 1977.13   93.52
   0   2   2 2054.91   92.66
   0   2   3 3622.61  160.90
   0   2   3 3443.32  158.57
   0   2   4  222.08   11.12
   0   2   4  219.04   13.75
   0   2   5  281.91   35.20
   0   2   5 1294.90   38.50
   0   2   6  183.94   13.30
   0   2   6  216.24   21.63
   0   2   7   86.18   16.60
   0   2   8   44.90   15.18
   0   3 -10    8.70    5.69
   0   3 -10   11.30    8.29
   0   3 -10   12.21    9.80
   0   3  -9   10.17    5.79
   0   3  -9   12.75    7.94
   0   3  -8  756.03   43.27
   0   3  -8  740.20   38.84
   0   3  -7  324.49   23.11
   0   3  -6 2371.73  112.69
   0   3  -4 4599.73  206.00
   0   3  -4 4547.58  207.28
   0   3  -3 2331.43  107.85
   0   3  -1  330.91   17.01
   0   3   0 3461.03  155.93
   0   3   1   31.37    7.23
   0   3   1   32.07    6.02
   0   3   2 2306.14  103.08
   0   3   2 2142.97  103.83
   0   3   3  374.70   22.92
   0   3   3  354.36   21.26
   0   3   4  436.19   27.25
   0   3   4  436.61   25.22
   0   3   5   35.86    7.41
   0   3   5   37.06   10.74
   0   3   5   44.20    9.57
   0   3   6  544.81   34.86
   0   3   6  513.60   29.72
   0   3   7   14.01    9.18
   0   3   7    9.03   11.57
   0   4 -11   -3.39    9.52
   0   4 -10  269.76   23.27
   0   4 -10  258.69   18.68
   0   4  -9   11.80    6.61
   0   4  -9   20.92    8.85
   0   4  -8  209.92   18.53
   0   4  -8  225.98   19.12
   0   4  -7    5.53    7.02
   0   4  -7   15.24    6.71
   0   4  -6  143.23   13.94
   0   4  -6  168.65   13.99
   0   4  -5 1306.57   64.29
   0   4  -5 1361.85   66.18
   0   4  -4 2772.16  128.86
   0   4  -2 3395.02  152.47
   0   4   0  811.30   40.81
   0   4   1  275.81   18.42
   0   4   2    6.57    6.66
   0   4   2   -0.54    5.98
   0   4   3  546.13   31.58
   0   4   3  571.89   32.96
   0   4   4   47.56    8.74
   0   4   4   52.61   10.20
   0   4   5  525.86   35.80
   0   4   5  470.23   31.17
   0   4   5  443.97   27.59
   0   4   6   53.00   12.20
   0   4   6   63.81    9.40
   0   5 -11  232.35   22.22
   0   5 -11  218.29   22.68
   0   5 -10  204.34   21.44
   0   5 -10  221.34   20.52
   0   5 -10  213.45   17.43
   0   5  -9  265.95   21.61
   0   5  -9  280.88   22.67
   0   5  -8  430.54   28.50
   0   5  -8  392.29   26.89
   0   5  -7   36.19    8.39
   0   5  -6   22.69    6.80
   0   5  -5 1705.42   83.39
   0   5  -2   -0.28    3.63
   0   5  -1 2187.12  102.31
   0   5   0   11.95    8.42
   0   5   1 1711.59   82.52
   0   5   2  318.01   21.56
   0   5   3  395.04   25.86
   0   5   4   53.22    9.75
   0   5   5  115.46   13.52
   0   5   5  157.37   20.44
   0   5   6   36.85   13.75
   0   6 -11  153.48   15.12
   0   6 -11  108.50   17.45
   0   6 -10   29.27    9.79
   0   6  -9  458.44   31.78
   0   6  -8  384.53   27.15
   0   6  -7  948.72   51.76
   0   6  -6  112.65   12.42
   0   6  -5  420.10   26.99
   0   6  -4  127.42   11.42
   0   6  -3   51.04    6.84
   0   6  -2 1030.04   52.78
   0   6  -1  310.15   21.47
   0   6   0 1527.99   75.36
   0   6   1  429.86   26.95
   0   6   2  392.92   26.06
   0   6   3  109.28   13.91
   0   6   4   92.29   12.41
   0   7 -11   10.44    8.83
   0   7 -11   -2.19   10.34
   0   7 -10  204.51   20.53
   0   7  -9   -3.91    7.67
   0   7  -8 1544.00   79.74
   0   7  -7   51.15   10.23
   0   7  -6  762.83   43.15
   0   7  -6  723.93   42.05
   0   7  -5  130.84   15.75
   0   7  -4  371.99   22.05
   0   7  -3   62.10    7.51
   0   7  -3    9.31    9.10
   0   7  -2  426.16   27.93
   0   7  -1   92.58   13.89
   0   7   0  115.66   15.38
   0   7   1  710.46   40.51
   0   7   2  194.22   18.48
   0   7   3   64.32   12.56
   0   8 -11   15.24   11.52
   0   8 -10   32.97   10.50
   0   8 -10   27.47   12.49
   0   8  -9   74.09   14.63
   0   8  -9   90.20   14.15
   0   8  -8  153.11   16.80
   0   8  -8  139.16   17.38
   0   8  -7  606.59   37.74
   0   8  -7  637.83   39.02
   0   8  -6  351.71   26.03
   0   8  -6  378.26   26.72
   0   8  -5  718.51   38.41
   0   8  -4  405.74   24.20
   0   8  -3  797.01   45.34
   0   8  -2   95.53   15.02
   0   8  -1   66.44   13.75
   0   8   0   49.22   12.00
   0   8   1  284.03   22.71
   0   8   2    0.90   10.29
   0   8   3  163.54   17.63
   0   9 -11  112.76   16.92
   0   9 -10   22.43   10.13
   0   9 -10   12.14   11.95
   0   9  -9   74.44   13.11
   0   9  -9   84.81   15.18
   0   9  -8   75.42   13.08
   0   9  -8   70.96   14.79
   0   9  -7  245.64   19.53
   0   9  -7  294.08   23.85
   0   9  -7  306.02   24.36
   0   9  -6  379.94   24.84
   0   9  -6  378.66   29.51
   0   9  -6  446.36   30.29
   0   9  -6  415.20   29.28
   0   9  -5  566.73   31.88
   0   9  -5  536.25   36.60
   0   9  -4  163.42   18.42
   0   9  -3  491.59   33.08
   0   9  -2   63.86   14.68
   0   9  -1   56.67   14.64
   0   9   0   52.02   12.03
   0   9   1   26.45   11.81
   0  10  -9   93.04   16.82
   0  10  -8   79.68   13.88
   0  10  -8   76.31   11.49
   0  10  -8  100.06   16.83
   0  10  -7   -6.60   12.21
   0  10  -7   -5.74    8.65
   0  10  -6  105.62   15.31
   0  10  -6   85.59   11.02
   0  10  -6   79.61   14.33
   0  10  -5   63.63   14.91
   0  10  -5   36.00   11.91
   0  10  -4  158.55   19.66
   0  10  -4  168.41   18.91
   0  10  -3   -5.79   12.68
   0  10  -2  224.42   23.63
   0  10  -1   20.48   10.85
   0  10   0  103.59   16.45
   1 -10   0  134.52   15.65
   1 -10   1   37.87    9.84
   1 -10   2   96.62   12.53
   1 -10   3    3.39    6.44
   1 -10   3   10.56    7.08
   1 -10   4   87.31   11.69
   1 -10   4  103.71   11.78
   1 -10   5    0.60    6.60
   1 -10   6  329.41   23.12
   1 -10   7   23.50    9.19
   1  -9  -2   29.34    9.85
   1  -9  -1  147.50   16.31
   1  -9   0  167.61   17.00
   1  -9   1   83.35   11.79
   1  -9   2  260.06   19.67
   1  -9   3   45.40    8.91
   1  -9   4   70.96   10.61
   1  -9   5  264.44   19.23
   1  -9   6   11.79    8.01
   1  -9   7  361.65   25.21
   1  -8  -3    8.39    8.61
   1  -8  -2    3.20    6.22
   1  -8  -2    1.70    7.80
   1  -8  -1  314.42   21.45
   1  -8  -1  341.56   24.09
   1  -8   0   15.02    7.24
   1  -8   1 1327.96   67.11
   1  -8   2    1.80    6.43
   1  -8   4   38.59    8.63
   1  -8   5  808.84   43.35
   1  -8   6    1.90    7.40
   1  -8   7   80.38   12.05
   1  -8  11   97.68   14.13
   1  -7  -4   22.35    9.09
   1  -7  -4   32.73   10.37
   1  -7  -3  245.35   21.08
   1  -7  -3  249.27   19.81
   1  -7  -2   56.47    9.97
   1  -7  -2   52.41   10.54
   1  -7  -1  243.34   17.69
   1  -7  -1  237.85   18.84
   1  -7   0  487.66   28.03
   1  -7   0  478.94   29.20
   1  -7   1   71.61    9.76
   1  -7   2  163.43   17.19
   1  -7   4 2042.64   96.81
   1  -7   5  228.20   17.20
   1  -7   6  893.24   47.49
   1  -7   7   54.92   10.47
   1  -7  11   63.74   12.32
   1  -6  -5    1.00    8.59
   1  -6  -4  505.89   32.70
   1  -6  -3    0.77    7.16
   1  -6  -2  503.52   30.52
   1  -6  -2  536.78   31.81
   1  -6  -1    2.13    6.14
   1  -6  -1    9.87    6.54
   1  -6   0    3.75    4.88
   1  -6   0   11.35    5.87
   1  -6   2   -0.76    3.77
   1  -6   4 1457.46   70.62
   1  -6   5 1406.93   68.97
   1  -6   6  902.68   47.52
   1  -6  10    3.35    7.82
   1  -6  11   82.02   13.44
   1  -5  -5  392.00   28.14
   1  -5  -5  398.45   24.83
   1  -5  -4   67.17   10.74
   1  -5  -4   58.38   10.54
   1  -5  -3 1521.37   74.53
   1  -5  -3 1570.86   77.13
   1  -5  -2  320.05   21.37
   1  -5  -2  337.11   22.28
   1  -5  -1 1597.42   31.35
   1  -5  -1 1591.49   31.55
   1  -5   0  273.96   18.46
   1  -5   0  236.58   16.58
   1  -5   4  383.11   22.84
   1  -5   5 1855.03   88.39
   1  -5   8   18.54    9.40
   1  -5   9  384.80   30.65
   1  -5  10   28.49   13.67
   1  -5  10   35.26    9.95
   1  -5  11   44.64   14.71
   1  -5  11   42.42   11.06
   1  -4  -6   66.91   12.72
   1  -4  -6   74.32   10.22
   1  -4  -5  118.88   13.69
   1  -4  -5  106.71   11.65
   1  -4  -4  466.52   28.95
   1  -4  -4  464.73   26.76
   1  -4  -3 1335.76   64.92
   1  -4  -3 1356.05   67.22
   1  -4  -2 1174.01   57.32
   1  -4  -1 3329.55  151.78
   1  -4   0 3993.33  177.15
   1  -4   0 3832.67  176.84
   1  -4   4 2461.78  113.83
   1  -4   5   -0.92    5.56
   1  -4   6 1208.50   62.88
   1  -4   7    4.41    7.84
   1  -4   8  844.68   50.00
   1  -4   9   24.17   11.38
   1  -4   9   33.43    9.33
   1  -4  10  578.49   36.28
   1  -4  10  559.16   41.34
   1  -4  11   44.73   15.17
   1  -3  -7   59.31    9.21
   1  -3  -6  182.41   17.16
   1  -3  -6  161.98   13.57
   1  -3  -5   15.33    7.26
   1  -3  -5    9.11    7.40
   1  -3  -4  297.95   20.47
   1  -3  -4  298.00   18.94
   1  -3  -3   42.67    7.84
   1  -3  -2  567.50   29.85
   1  -3  -1 1490.85   69.93
   1  -3   0 4307.13  198.35
   1  -3   0 4533.36  198.44
   1  -3   1  494.39   26.53
   1  -3   3   74.60    7.80
   1  -3   4 1287.97   62.11
   1  -3   4 1293.99   63.39
   1  -3   5  264.93   18.87
   1  -3   6  228.62   18.56
   1  -3   7  538.44   34.07
   1  -3   8    8.15    7.92
   1  -3   8    6.54    7.07
   1  -3   9  400.34   27.53
   1  -3   9  393.62   31.13
   1  -3  10  134.26   20.22
   1  -3  10  148.14   17.44
   1  -2  -9   64.43   12.77
   1  -2  -8  311.34   19.42
   1  -2  -7  354.67   21.59
   1  -2  -6 1440.20   69.01
   1  -2  -5  278.18   17.39
   1  -2  -4  111.00    9.79
   1  -2  -3 2615.71  119.26
   1  -2  -2   54.93    6.59
   1  -2  -1 1176.77   55.48
   1  -2   0   11.05    4.04
   1  -2   0    8.43    4.05
   1  -2   1 3859.58  173.18
   1  -2   2 4399.66  197.88
   1  -2   3 2869.92  130.88
   1  -2   4  978.01   49.09
   1  -2   5 1340.68   66.83
   1  -2   6   18.47    7.49
   1  -2   7  428.11   27.29
   1  -2   7  411.51   29.33
   1  -2   8   63.24   13.01
   1  -2   8   72.45   10.72
   1  -2   9   60.29   13.79
   1  -2   9   33.32   10.61
   1  -2  10   77.62   16.66
   1  -2  10   64.33   13.01
   1  -1  -9   84.84   13.62
   1  -1  -8  124.90   10.99
   1  -1  -7 1281.30   61.68
   1  -1  -6   -1.52    5.94
   1  -1  -5 1352.14   64.62
   1  -1  -4  310.95   18.29
   1  -1  -3 5762.70  257.39
   1  -1  -2   73.85    7.14
   1  -1   2 9737.55  431.14
   1  -1   3 1630.47   76.32
   1  -1   3 1663.54   77.05
   1  -1   4 1119.83   55.83
   1  -1   5  546.68   31.18
   1  -1   5  574.09   32.92
   1  -1   6  413.39   26.16
   1  -1   6  428.36   28.37
   1  -1   7  838.14   47.14
   1  -1   7  917.45   51.05
   1  -1   8   31.95    9.75
   1  -1   8   40.37   11.93
   1  -1   9    8.50   10.56
   1  -1   9    5.66    8.88
   1  -1  10  132.07   21.24
   1   0 -10    7.63    9.50
   1   0  -9   21.48    6.61
   1   0  -9    8.62    8.52
   1   0  -8   89.81   10.02
   1   0  -7   -4.03    5.80
   1   0  -7    2.36    6.46
   1   0  -6  615.56   32.22
   1   0  -5  304.41   18.79
   1   0  -5  267.08   16.98
   1   0  -4 1738.48   80.71
   1   0  -3 3298.65  144.20
   1   0  -3 3093.15  143.99
   1   0  -2 3270.43  145.46
   1   0  -2 3226.68  145.85
   1   0   2 3881.98  174.42
   1   0   3  111.32   10.16
   1   0   4  798.90   42.74
   1   0   5  358.40   24.58
   1   0   6  943.67   53.22
   1   0   7    8.81    9.36
   1   0   8  300.82   27.57
   1   0   8  287.22   23.22
   1   0   9    1.03    9.23
   1   0   9    1.50   11.18
   1   1 -10  161.96   18.26
   1   1  -9   12.72    5.52
   1   1  -9  -13.28    9.50
   1   1  -9   -0.98    7.28
   1   1  -8  202.57   17.75
   1   1  -8  196.49   18.03
   1   1  -8  191.71   14.24
   1   1  -7   87.83   11.99
   1   1  -7   98.51    9.79
   1   1  -6  966.16   48.18
   1   1  -5 1310.91   62.87
   1   1  -4 3941.64  177.70
   1   1  -3 3520.76  158.22
   1   1  -3 3555.16  159.19
   1   1  -2 5120.26  226.51
   1   1   1   72.06    6.12
   1   1   2 3016.27  127.18
   1   1   2 3139.41  128.62
   1   1   3  845.45   35.26
   1   1   3  765.75   32.53
   1   1   4   42.58    8.89
   1   1   5 2744.42  132.29
   1   1   6   -1.05    9.44
   1   1   7  680.95   44.37
   1   1   8   -1.44   11.28
   1   1   9  135.64   21.12
   1   2 -10  125.11   12.30
   1   2 -10  119.62   15.82
   1   2 -10  139.58   16.79
   1   2  -9  580.66   35.74
   1   2  -9  583.28   37.00
   1   2  -9  589.19   32.62
   1   2  -8  256.51   20.89
   1   2  -8  272.17   18.25
   1   2  -7 1053.27   55.07
   1   2  -7 1013.96   51.76
   1   2  -6   29.81    6.48
   1   2  -6   21.95    7.08
   1   2  -5 1396.27   66.83
   1   2  -2 1691.88   77.64
   1   2  -1 7589.79  328.99
   1   2  -1 7357.62  326.74
   1   2   0  189.01   10.62
   1   2   1 5032.36  224.80
   1   2   1 5109.67  226.14
   1   2   2  659.29   33.92
   1   2   2  663.73   31.65
   1   2   3 1472.67   68.76
   1   2   3 1285.80   62.35
   1   2   3 1450.05   66.27
   1   2   4  351.80   23.77
   1   2   4  338.80   20.81
   1   2   5  354.55   26.89
   1   2   5  339.77   23.57
   1   2   6  396.66   30.67
   1   2   6  364.04   26.18
   1   2   7   31.84    9.96
   1   2   7   27.56   12.60
   1   2   8  227.43   22.09
   1   2   8  206.67   25.52
   1   3 -10   57.42    9.59
   1   3 -10   63.35   12.58
   1   3  -9  548.07   35.06
   1   3  -9  515.35   30.86
   1   3  -8  549.53   34.48
   1   3  -8  661.88   37.60
   1   3  -8  590.58   33.27
   1   3  -7 1341.31   35.59
   1   3  -7 1275.80   29.60
   1   3  -6  352.07   22.03
   1   3  -6  359.53   23.55
   1   3  -5  804.68   40.66
   1   3  -4  593.93   30.16
   1   3  -3  243.69   13.90
   1   3  -3  245.74   15.66
   1   3  -2 7195.21  320.90
   1   3  -1  665.07   34.04
   1   3   0 4018.86  182.04
   1   3   0 4059.99  179.95
   1   3   0 3959.13  179.44
   1   3   1  118.60    9.64
   1   3   1  116.32    9.53
   1   3   2 3760.41  171.81
   1   3   2 3919.09  174.16
   1   3   3  306.43   21.70
   1   3   3  271.24   18.93
   1   3   3  265.38   16.82
   1   3   4   12.10    5.04
   1   3   4   14.77    7.00
   1   3   4   10.11    8.67
   1   3   5    6.45    3.98
   1   3   5    7.51    7.22
   1   3   5   -3.29    9.61
   1   3   6   27.15    9.72
   1   3   6   19.66   11.27
   1   3   7   14.00    9.45
   1   3   7   24.60   12.42
   1   4 -11    4.77    6.80
   1   4 -11   11.60   10.40
   1   4 -11    4.58   10.63
   1   4 -10  184.23   18.28
   1   4 -10  183.87   19.48
   1   4 -10  185.54   16.43
   1   4  -9  172.64   17.63
   1   4  -9  141.20   15.58
   1   4  -9  154.20   14.52
   1   4  -8 1582.09   78.67
   1   4  -8 1585.67   80.69
   1   4  -7   79.94   10.64
   1   4  -7   81.64   11.04
   1   4  -6 4521.44  205.74
   1   4  -6 4544.14  208.44
   1   4  -5   36.01    6.53
   1   4  -4 2494.28  113.68
   1   4  -3 1273.83   62.07
   1   4  -2 2521.24  115.09
   1   4  -2 2775.14  119.92
   1   4  -1 1296.45   63.39
   1   4   0  122.23   11.69
   1   4   0   95.96    9.04
   1   4   0  118.72   10.82
   1   4   1 2227.46  102.08
   1   4   1 2108.68   98.93
   1   4   1 2079.75   98.13
   1   4   2  649.74   35.94
   1   4   2  685.22   34.78
   1   4   3  621.09   35.80
   1   4   3  647.79   34.26
   1   4   4  154.17   14.71
   1   4   4  154.49   17.75
   1   4   4  119.80   11.53
   1   4   5  164.68   16.52
   1   4   5  134.59   11.52
   1   4   6   20.19    9.17
   1   4   6   32.11   13.22
   1   5 -11  143.57   15.41
   1   5 -11  160.90   19.62
   1   5 -11  164.83   18.44
   1   5 -10   13.32    7.44
   1   5 -10   16.12    9.33
   1   5 -10    7.50    9.11
   1   5  -9  405.73   28.55
   1   5  -9  377.85   26.40
   1   5  -8    9.64    7.67
   1   5  -8   13.78    6.90
   1   5  -7 1151.50   59.31
   1   5  -7 1227.34   62.56
   1   5  -6   19.55    7.27
   1   5  -6   10.12    6.64
   1   5  -5 2988.46  140.32
   1   5  -4   29.56    7.21
   1   5  -3 1342.09   66.36
   1   5  -2   24.51    7.93
   1   5  -1  637.15   33.87
   1   5  -1  622.05   35.53
   1   5   0  156.56   13.66
   1   5   0  150.63   14.18
   1   5   1  309.50   22.50
   1   5   1  295.84   20.16
   1   5   2  504.17   31.44
   1   5   2  447.94   26.50
   1   5   2  439.12   27.66
   1   5   3  767.84   41.71
   1   5   3  703.68   39.27
   1   5   4  171.69   20.78
   1   5   4  198.21   15.30
   1   5   4  210.96   18.64
   1   5   5  229.93   24.93
   1   5   5  224.44   21.16
   1   6 -11  341.12   25.79
   1   6 -11  288.61   26.23
   1   6 -11  279.32   23.36
   1   6 -10   -1.67    8.66
   1   6 -10    7.55    8.85
   1   6  -9  252.89   20.13
   1   6  -9  227.70   21.10
   1   6  -8  132.27   13.99
   1   6  -8  149.95   16.13
   1   6  -7   -0.82    6.88
   1   6  -6 1763.06   87.81
   1   6  -5  699.90   38.40
   1   6  -5  630.24   38.18
   1   6  -4  449.29   28.04
   1   6  -3  626.15   31.28
   1   6  -3  658.79   36.66
   1   6  -2  322.62   22.14
   1   6  -2  328.41   22.96
   1   6  -1  691.09   39.48
   1   6  -1  678.07   37.52
   1   6   0  176.21   16.64
   1   6   0  153.72   15.48
   1   6   1   12.96    9.75
   1   6   1   20.41    9.43
   1   6   2   46.62    9.61
   1   6   2   74.67   13.04
   1   6   3    5.66    8.33
   1   6   3   31.78   11.85
   1   6   4  110.47   12.68
   1   6   4  148.36   19.46
   1   6   4  128.26   18.74
   1   7 -11   40.72   11.41
   1   7 -10  273.05   24.43
   1   7  -9   57.66   11.36
   1   7  -8  407.44   28.77
   1   7  -7   10.57    7.67
   1   7  -6  679.35   40.50
   1   7  -5   19.29    8.35
   1   7  -4  589.16   22.72
   1   7  -4  626.21   29.77
   1   7  -3  384.43   26.55
   1   7  -3  437.35   28.17
   1   7  -2 1046.88   55.51
   1   7  -2  982.12   52.92
   1   7  -1   75.66   12.14
   1   7  -1   50.65   10.98
   1   7   0  437.31   29.79
   1   7   0  403.91   27.52
   1   7   1   19.01    9.25
   1   7   1    3.07    8.49
   1   7   2   17.08    8.70
   1   7   2    4.58    9.40
   1   7   3    5.80    8.82
   1   7   3   35.58   11.99
   1   7   3   27.77   11.16
   1   8 -10  143.21   18.11
   1   8  -9   28.76    9.84
   1   8  -8  381.09   28.33
   1   8  -7   35.52   10.35
   1   8  -6  139.37   15.92
   1   8  -6  140.51   15.98
   1   8  -5   87.57    9.20
   1   8  -5  114.70   14.52
   1   8  -4   74.89   12.44
   1   8  -4   59.29   12.98
   1   8  -3  983.82   53.45
   1   8  -3  912.67   51.12
   1   8  -2   22.22   10.92
   1   8  -2   31.03   11.26
   1   8  -1  416.11   28.84
   1   8  -1  332.16   25.81
   1   8   0   -8.38   11.44
   1   8   0    3.26    9.23
   1   8   1  213.55   21.53
   1   8   1  175.05   17.47
   1   8   2   -4.79    9.19
   1   9  -9  226.73   22.31
   1   9  -8   18.46    9.05
   1   9  -8   35.46   13.18
   1   9  -7  356.35   28.12
   1   9  -7  361.95   27.67
   1   9  -6    1.05    7.81
   1   9  -6   -1.00    5.58
   1   9  -6   -5.08    8.55
   1   9  -5  222.18   20.15
   1   9  -5  200.26   19.60
   1   9  -5  194.34   14.53
   1   9  -4   -3.00    8.83
   1   9  -4   16.85   11.03
   1   9  -3   96.51   15.22
   1   9  -3  112.82   15.37
   1   9  -2   36.23   12.73
   1   9  -2   57.64   12.52
   1   9  -1    5.89   11.77
   1   9  -1   49.01   11.96
   1   9   0  143.84   16.96
   1   9   0  153.75   19.72
   1   9   1   33.69   11.40
   1  10  -8  248.90   19.98
   1  10  -8  325.61   27.12
   1  10  -8  304.10   25.90
   1  10  -7   -8.27    9.35
   1  10  -7   -4.10    6.08
   1  10  -6  383.03   23.27
   1  10  -6  337.42   28.90
   1  10  -5   76.27   14.96
   1  10  -5   37.89   12.98
   1  10  -4   52.21   13.65
   1  10  -4   45.25   12.11
   1  10  -3   -0.91   12.15
   1  10  -3    7.10    8.92
   1  10  -2   10.33   12.55
   1  10  -1   38.60   13.41
   1  10   0   75.24   14.07
   2 -11   2   71.92   12.16
   2 -11   3  288.89   23.48
   2 -11   4   53.65   11.11
   2 -11   7   81.89   13.97
   2 -11   8  186.49   20.18
   2 -10   0   64.35   12.20
   2 -10   1   18.36    8.85
   2 -10   2  306.34   23.55
   2 -10   3   22.81    9.38
   2 -10   4  457.10   28.60
   2 -10   4  365.29   33.86
   2 -10   5   -3.74    8.56
   2 -10   5  -18.46   14.97
   2 -10   6  417.96   28.26
   2 -10   6  407.92   34.62
   2 -10   7    2.54    9.17
   2 -10   7  -12.08   11.37
   2 -10   8   88.58   14.83
   2  -9  -1   -3.61    8.20
   2  -9   0   51.37   10.65
   2  -9   1  121.65   14.02
   2  -9   2   34.01    9.01
   2  -9   3  328.46   28.98
   2  -9   4  151.71   19.64
   2  -9   5  744.26   41.03
   2  -9   5  648.80   45.15
   2  -9   6  143.54   15.40
   2  -9   6  106.37   18.09
   2  -9   7  361.26   26.20
   2  -9   7  353.46   31.18
   2  -9   8  183.50   18.74
   2  -9   8  166.44   23.38
   2  -8  -3  166.10   17.48
   2  -8  -3  181.30   18.74
   2  -8  -2    3.10    7.36
   2  -8  -2    8.88    8.02
   2  -8  -1  553.61   33.46
   2  -8  -1  550.24   34.60
   2  -8   0    1.51    6.58
   2  -8   1  652.89   37.95
   2  -8   3  225.98   21.58
   2  -8   4  282.71   24.46
   2  -8   5  382.95   25.13
   2  -8   5  355.71   28.77
   2  -8   6  308.26   22.68
   2  -8   6  322.30   27.06
   2  -8   7  451.05   30.43
   2  -8   7  499.34   35.83
   2  -8   8   41.99   10.68
   2  -8   8   50.36   13.86
   2  -8   9  357.72   33.01
   2  -7  -4   47.86   11.29
   2  -7  -4   56.15   11.46
   2  -7  -3   34.06    9.92
   2  -7  -3   36.79    9.92
   2  -7  -3   23.94   10.94
   2  -7  -2  605.20   35.72
   2  -7  -2  589.42   35.37
   2  -7  -2  569.43   35.57
   2  -7  -1  366.41   25.34
   2  -7  -1  402.60   26.32
   2  -7  -1  396.18   26.93
   2  -7   0  495.96   30.08
   2  -7   0  508.39   31.41
   2  -7   0  476.01   29.96
   2  -7   2  167.11   17.38
   2  -7   3   71.79   11.78
   2  -7   4  337.69   25.67
   2  -7   5    9.59    8.02
   2  -7   5   10.15    8.83
   2  -7   6  621.77   36.08
   2  -7   6  600.17   39.64
   2  -7   7   67.18   13.68
   2  -7   7   53.40   11.06
   2  -7   8  520.14   33.42
   2  -7   8  529.63   37.72
   2  -7   9   -5.62   11.44
   2  -7  10  278.68   29.86
   2  -6  -5   -6.53    8.49
   2  -6  -5    1.26    9.54
   2  -6  -4  157.29   15.75
   2  -6  -4  173.65   17.32
   2  -6  -3  114.46   14.33
   2  -6  -3  113.05   13.83
   2  -6  -3  115.53   13.64
   2  -6  -2  519.36   32.06
   2  -6  -2  544.80   33.02
   2  -6  -2  570.75   33.42
   2  -6  -1  190.37   16.84
   2  -6  -1  176.22   15.68
   2  -6  -1  200.71   16.21
   2  -6   0  509.03   31.53
   2  -6   0  562.51   31.61
   2  -6   0  545.42   32.26
   2  -6   1  122.21   14.38
   2  -6   1  142.37   14.78
   2  -6   2 2338.79  113.21
   2  -6   3  160.46   16.19
   2  -6   4 1970.86   97.94
   2  -6   5  106.13   12.18
   2  -6   5  105.20   13.74
   2  -6   6  365.70   25.17
   2  -6   6  397.56   28.34
   2  -6   7  639.74   37.78
   2  -6   7  666.87   41.98
   2  -6   8   51.20   12.97
   2  -6   9  380.68   32.64
   2  -6  10   62.15   17.44
   2  -5  -6  281.20   24.38
   2  -5  -6  314.52   21.78
   2  -5  -5  111.10   13.14
   2  -5  -5  109.67   14.42
   2  -5  -4   84.53   12.04
   2  -5  -4   91.44   12.35
   2  -5  -3  299.25   20.56
   2  -5  -3  267.68   20.52
   2  -5  -2   85.21   11.68
   2  -5  -2   71.77    9.91
   2  -5  -2   64.39   10.50
   2  -5  -1 1070.14   54.87
   2  -5  -1 1073.68   54.38
   2  -5  -1 1075.79   55.03
   2  -5   0  352.26   22.04
   2  -5   0  333.14   22.28
   2  -5   1 3574.56  165.70
   2  -5   2   35.05    8.43
   2  -5   2   40.99    9.79
   2  -5   3 4186.09  193.32
   2  -5   4  220.48   16.39
   2  -5   4  210.52   17.90
   2  -5   5  362.34   25.47
   2  -5   5  355.44   23.09
   2  -5   6   -4.97    7.40
   2  -5   6    0.92    7.47
   2  -5   7  795.93   45.32
   2  -5   7  875.77   50.02
   2  -5   8    1.22   10.26
   2  -5   9  125.88   17.36
   2  -5   9   97.05   17.93
   2  -5  10  153.58   17.99
   2  -5  10  165.32   21.00
   2  -5  11  180.25   23.52
   2  -4  -7  127.36   13.59
   2  -4  -6   34.64    9.26
   2  -4  -6   17.23    9.05
   2  -4  -5  873.17   47.08
   2  -4  -5  816.01   44.28
   2  -4  -4   -2.05    8.59
   2  -4  -4    3.43    6.28
   2  -4  -3 1611.81   78.37
   2  -4  -3 1635.92   79.75
   2  -4  -2   31.62    8.98
   2  -4  -2   27.79    6.72
   2  -4  -1 3074.88  142.74
   2  -4  -1 3145.83  143.94
   2  -4   0  963.95   49.04
   2  -4   0  987.51   49.01
   2  -4   1  349.54   21.70
   2  -4   2 2658.82  127.15
   2  -4   2 2798.80  125.93
   2  -4   3  540.07   31.33
   2  -4   4 1883.81   89.67
   2  -4   4 1895.44   92.03
   2  -4   5  188.85   15.66
   2  -4   5  199.63   17.36
   2  -4   6  817.81   45.47
   2  -4   7  468.62   31.48
   2  -4   8  159.54   18.52
   2  -4   9    3.50    8.50
   2  -4   9    9.51   10.58
   2  -4  10   82.41   16.86
   2  -4  10   90.07   14.25
   2  -4  11    6.26   11.78
   2  -3  -7   -2.14    8.21
   2  -3  -6  894.99   47.05
   2  -3  -5   20.28    8.41
   2  -3  -4 3208.71  147.77
   2  -3  -3   40.71    7.91
   2  -3  -2 2583.30  119.61
   2  -3  -1  172.21   13.27
   2  -3  -1  159.50   13.79
   2  -3   0 3778.85  168.16
   2  -3   0 3624.38  167.75
   2  -3   1    5.99    6.81
   2  -3   1   -3.58    4.39
   2  -3   2 1808.03   88.33
   2  -3   2 1939.24   87.21
   2  -3   3 1817.92   86.87
   2  -3   4 5199.90  234.95
   2  -3   5 1458.37   72.01
   2  -3   6 1132.74   59.23
   2  -3   7  417.24   28.63
   2  -3   8  296.79   24.56
   2  -3   9   53.62   12.81
   2  -3   9   31.48   10.22
   2  -3  10    8.34   10.36
   2  -3  10    5.89    8.74
   2  -2  -8  202.14   16.31
   2  -2  -7  207.63   18.12
   2  -2  -7  188.74   15.20
   2  -2  -6   50.64    8.73
   2  -2  -6   52.98    9.53
   2  -2  -5    2.99    3.37
   2  -2  -5 1575.50   30.85
   2  -2  -4  387.37   23.24
   2  -2  -3 3297.26  150.77
   2  -2  -2   64.62    8.17
   2  -2   0 3522.17  158.19
   2  -2   1 2106.84   99.45
   2  -2   1 2259.62   99.74
   2  -2   2   19.75    5.69
   2  -2   2   13.51    5.06
   2  -2   3 2016.16   92.97
   2  -2   4   -6.10    5.71
   2  -2   4   -1.69    5.93
   2  -2   5 1316.76   64.99
   2  -2   5 1331.50   66.11
   2  -2   6  367.14   25.23
   2  -2   7  840.43   46.55
   2  -2   7  836.03   48.44
   2  -2   8   60.96   13.18
   2  -2   8   61.35   11.74
   2  -2   9  394.03   28.91
   2  -2   9  434.90   33.57
   2  -2  10    5.93   10.58
   2  -1  -9  424.71   25.78
   2  -1  -8   19.00    7.30
   2  -1  -7  834.82   46.49
   2  -1  -7  851.94   44.63
   2  -1  -6   -3.08    7.48
   2  -1  -6    3.61    6.69
   2  -1  -5  452.84   26.45
   2  -1  -5  440.78   25.89
   2  -1  -4  103.55   10.18
   2  -1  -4   94.31    9.30
   2  -1  -3 3228.84  147.55
   2  -1  -3 3227.58  147.11
   2  -1  -2 2925.58  136.10
   2  -1  -2 3092.44  136.78
   2  -1   0 1097.84   50.68
   2  -1   0 1143.95   52.64
   2  -1   1 2500.26  112.69
   2  -1   2 1792.46   80.09
   2  -1   2 1756.26   80.93
   2  -1   3   71.13    7.99
   2  -1   3   86.47    7.95
   2  -1   4   16.67    5.98
   2  -1   4   11.20    5.43
   2  -1   5   21.30    7.04
   2  -1   6  328.15   24.34
   2  -1   7   53.30   11.59
   2  -1   8  309.50   24.14
   2  -1   8  312.24   27.67
   2  -1   9   55.78   12.43
   2  -1   9   96.29   17.40
   2   0  -9  134.80   13.79
   2   0  -8  488.52   28.76
   2   0  -7  856.41   44.67
   2   0  -6  678.86   36.71
   2   0  -6  647.09   37.92
   2   0  -6  676.76   36.03
   2   0  -5  262.49   16.91
   2   0  -5  249.44   18.28
   2   0  -5  256.14   17.28
   2   0  -4 1378.32   68.44
   2   0  -4 1422.17   67.92
   2   0  -4 1431.82   67.01
   2   0  -3    5.67    3.88
   2   0  -3    1.85    4.56
   2   0  -3   -0.72    4.17
   2   0  -2 8857.30  393.04
   2   0  -1 1073.32   49.16
   2   0   0 4213.29  188.07
   2   0   0 4217.80  188.29
   2   0   1  974.45   45.71
   2   0   1 1004.84   45.67
   2   0   2 7032.53  318.44
   2   0   2 7496.46  321.05
   2   0   2 7742.60  321.73
   2   0   3    5.15    5.28
   2   0   3    1.30    4.61
   2   0   4 1119.35   57.23
   2   0   5   26.05    8.13
   2   0   6   92.93   13.79
   2   0   7   76.04   14.15
   2   0   8   -1.31   10.85
   2   0   9   15.06   11.59
   2   1 -10   57.67    9.75
   2   1 -10   56.90   12.59
   2   1  -9  162.92   14.57
   2   1  -8  250.33   18.40
   2   1  -7  348.76   22.46
   2   1  -6 1465.53   72.07
   2   1  -6 1556.17   73.22
   2   1  -6 1471.99   74.82
   2   1  -5 1146.10   55.40
   2   1  -5 1125.12   58.23
   2   1  -5 1179.12   57.25
   2   1  -4 1644.14   79.48
   2   1  -4 1686.45   79.14
   2   1  -4 1669.24   76.98
   2   1  -3   36.02    6.30
   2   1  -3   34.98    4.42
   2   1  -3   38.87    5.97
   2   1  -2   27.87    4.69
   2   1  -1 2327.59  103.50
   2   1  -1 2301.18  105.51
   2   1   0  104.73    7.57
   2   1   1 1292.98   57.56
   2   1   1 1221.18   57.21
   2   1   2  684.07   28.66
   2   1   2  537.80   28.78
   2   1   3 2403.91  114.29
   2   1   3 2534.76  115.94
   2   1   4  277.16   19.91
   2   1   4  230.28   17.55
   2   1   5  396.27   27.57
   2   1   5  354.60   24.29
   2   1   6    3.01    7.36
   2   1   6   -8.53    9.76
   2   1   7  105.47   14.32
   2   1   7  103.74   16.77
   2   1   8   18.14   10.18
   2   1   8   13.08   11.95
   2   2 -10   12.63    6.99
   2   2  -9  676.96   38.26
   2   2  -8   -3.75    6.62
   2   2  -7  955.08   50.01
   2   2  -6   89.71   10.15
   2   2  -5 4218.40  193.69
   2   2  -5 4237.10  192.74
   2   2  -4 1552.37   72.30
   2   2  -4 1639.31   76.43
   2   2  -4 1607.37   75.54
   2   2  -3  114.62    9.81
   2   2  -3  109.27    6.43
   2   2  -2  409.63   21.05
   2   2  -1 3752.98  166.96
   2   2  -1 3811.21  168.98
   2   2   0   27.80    2.78
   2   2   1  448.63   23.74
   2   2   2  476.46   24.60
   2   2   2  418.44   21.13
   2   2   3  319.72   18.14
   2   2   3  338.45   20.63
   2   2   4  984.33   51.22
   2   2   4  852.59   47.23
   2   2   5  825.28   46.84
   2   2   5  710.30   41.87
   2   2   6    9.84    8.46
   2   2   6    2.47   10.30
   2   2   7  227.94   25.66
   2   2   7  209.60   20.47
   2   2   8   19.09   12.61
   2   3 -11  201.81   17.96
   2   3 -10    0.84    9.02
   2   3 -10    5.86    6.89
   2   3  -9  509.41   32.07
   2   3  -9  517.15   31.63
   2   3  -8   71.93   10.57
   2   3  -7   14.60    7.03
   2   3  -6 1281.56   64.04
   2   3  -5  447.43   27.31
   2   3  -4 4127.52  188.49
   2   3  -3 1196.75   56.64
   2   3  -3 1158.97   58.13
   2   3  -2 3992.82  180.09
   2   3  -1  959.22   47.51
   2   3  -1  974.46   44.71
   2   3   0 1900.49   89.06
   2   3   0 1882.28   86.38
   2   3   1  115.31    9.34
   2   3   1  103.05    9.32
   2   3   2  136.32   10.17
   2   3   2  139.29   11.82
   2   3   3   75.47    7.33
   2   3   3   81.87   10.32
   2   3   3   84.88   12.27
   2   3   4  799.45   38.47
   2   3   4  774.31   33.63
   2   3   5    7.05    7.43
   2   3   5    7.83    9.58
   2   3   6  151.72   17.16
   2   3   6  170.89   21.29
   2   3   7    1.55   10.95
   2   4 -11   12.11    8.25
   2   4 -11   26.20   10.63
   2   4 -11    2.40   11.00
   2   4 -10   50.54   10.49
   2   4 -10   73.79   12.21
   2   4 -10   74.57   13.65
   2   4  -9   76.27   11.27
   2   4  -9   84.10   11.91
   2   4  -8  454.52   27.29
   2   4  -8  406.59   27.10
   2   4  -7   35.53    8.66
   2   4  -6  675.64   35.82
   2   4  -5  387.15   21.76
   2   4  -4 2427.62  112.32
   2   4  -4 2610.67  115.58
   2   4  -4 2431.74  116.72
   2   4  -3 1769.92   76.69
   2   4  -3 1543.70   72.40
   2   4  -2 1496.81   72.12
   2   4  -1  573.87   31.26
   2   4  -1  557.14   27.64
   2   4   0  971.38   50.05
   2   4   0  963.32   46.68
   2   4   1  103.31    9.65
   2   4   1   90.90    9.91
   2   4   2  196.80   14.73
   2   4   2  229.50   16.18
   2   4   3    8.07    5.88
   2   4   3   26.36    8.02
   2   4   4    3.36    3.98
   2   4   4   -5.81    7.15
   2   4   4   -1.08    8.66
   2   4   5  181.26   21.99
   2   4   5  195.95   18.63
   2   4   6   13.62    8.94
   2   4   6   22.21   11.63
   2   5 -11  287.97   23.60
   2   5 -11  258.76   25.14
   2   5 -11  257.13   22.40
   2   5 -10   73.37   12.32
   2   5 -10   74.46   11.94
   2   5 -10   73.86   13.28
   2   5  -9  764.56   42.63
   2   5  -9  751.60   43.11
   2   5  -8  944.66   49.78
   2   5  -7  455.81   27.00
   2   5  -6  521.06   28.60
   2   5  -5  150.46   11.28
   2   5  -4   37.07    7.72
   2   5  -3 1277.53   63.48
   2   5  -2    1.71    6.34
   2   5  -1 1908.60   92.13
   2   5   0   11.96    5.63
   2   5   0    6.89    7.43
   2   5   0   13.17    7.87
   2   5   1 1714.85   80.84
   2   5   1 1510.43   75.06
   2   5   1 1592.13   76.00
   2   5   2   18.12    7.45
   2   5   2    4.01    6.65
   2   5   2   -3.59    7.76
   2   5   3  153.90   14.98
   2   5   3  168.56   13.56
   2   5   4    6.80    5.18
   2   5   4   11.23    8.05
   2   5   4   15.88   10.46
   2   5   5    8.37    8.96
   2   5   5   29.49   12.79
   2   6 -12   -3.73    9.17
   2   6 -11  227.96   21.32
   2   6 -11  247.55   23.70
   2   6 -11  243.61   21.47
   2   6 -10  301.29   22.89
   2   6 -10  296.92   25.54
   2   6 -10  300.34   23.85
   2   6  -9  852.83   46.19
   2   6  -9  833.50   49.40
   2   6  -8  216.87   17.19
   2   6  -7  512.96   29.46
   2   6  -6  439.11   24.86
   2   6  -5  274.89   20.20
   2   6  -4  185.53   15.87
   2   6  -3  299.66   21.29
   2   6  -2  564.54   33.58
   2   6  -1    2.23    7.75
   2   6  -1   13.30    9.04
   2   6   0 1001.78   52.42
   2   6   0 1087.07   56.63
   2   6   1   56.63   10.64
   2   6   1   55.18   11.79
   2   6   2  477.17   33.03
   2   6   2  455.01   28.91
   2   6   2  460.31   27.13
   2   6   3    3.81    7.58
   2   6   3    4.82    8.19
   2   6   3   11.91    9.69
   2   6   3   19.46   10.16
   2   6   4   74.60   13.16
   2   6   4   85.76   16.51
   2   7 -12    5.97    8.10
   2   7 -11   -7.77   10.53
   2   7 -11    4.72    8.58
   2   7 -10  188.73   17.84
   2   7 -10  195.24   20.72
   2   7  -9   -3.99    8.37
   2   7  -9    2.13    8.02
   2   7  -5   -3.75    8.10
   2   7  -4  763.02   38.90
   2   7  -4  611.27   30.72
   2   7  -3   16.23    8.13
   2   7  -2    4.15    7.22
   2   7  -2   -3.55    9.39
   2   7  -1  248.50   21.28
   2   7  -1  255.55   20.01
   2   7   0    5.83    9.11
   2   7   0    6.66    8.66
   2   7   1   16.94   10.06
   2   7   1   46.63   11.93
   2   7   2   14.05    8.21
   2   7   2   13.09    9.69
   2   8 -10   38.03   11.46
   2   8  -9   93.04   14.56
   2   8  -6  157.02   16.62
   2   8  -5  597.97   31.32
   2   8  -5  729.65   39.60
   2   8  -4   81.62   12.68
   2   8  -4   81.24   14.10
   2   8  -3  330.48   24.86
   2   8  -3  378.00   26.74
   2   8  -2   10.76    8.97
   2   8  -2   16.40   10.36
   2   8  -1  119.95   15.05
   2   8  -1  142.61   17.24
   2   8   0  -11.94   11.25
   2   8   0   -3.33    8.72
   2   8   1   27.66    9.17
   2   8   1    4.80    8.97
   2   9  -9   43.01   11.10
   2   9  -8   86.70   14.67
   2   9  -6   76.65   13.36
   2   9  -6   64.81    8.01
   2   9  -5   -4.89   10.20
   2   9  -5   23.92   11.76
   2   9  -4  338.55   27.08
   2   9  -4  362.43   26.46
   2   9  -3  426.24   29.88
   2   9  -3  436.96   31.66
   2   9  -2   26.22   11.55
   2   9  -2   24.80   10.53
   2   9  -1  127.26   17.25
   2   9  -1  144.17   18.54
   2   9   0   11.70   11.39
   2  10  -6   11.08    9.35
   2  10  -6   19.13   12.70
   2  10  -5   23.24   10.83
   2  10  -5   35.84   12.83
   2  10  -4   36.52   13.24
   2  10  -4   51.04   12.30
   2  10  -3   11.38   11.78
   2  10  -2   26.01   13.06
   2  10  -1  -14.95   13.21
   3 -11   3   67.92   12.70
   3 -11   5  141.12   17.85
   3 -11   6   58.94   13.51
   3 -10   1  112.87   15.08
   3 -10   2  199.10   19.75
   3 -10   4  268.63   27.61
   3 -10   5    0.88    9.16
   3 -10   5  -10.06   14.23
   3 -10   6  238.79   22.05
   3 -10   6  256.11   27.26
   3 -10   7   78.43   14.46
   3  -9  -1  119.17   15.43
   3  -9   0  166.94   17.63
   3  -9   1  308.16   24.51
   3  -9   3  141.61   19.42
   3  -9   4  176.50   21.19
   3  -9   5  131.97   18.69
   3  -9   5  156.66   16.56
   3  -9   6   16.59    9.90
   3  -9   6   24.22   11.46
   3  -9   7  204.30   20.65
   3  -9   7  246.72   25.76
   3  -9   8   12.59   10.43
   3  -9   8    4.64   12.14
   3  -8  -3  110.19   15.21
   3  -8  -3  121.13   17.32
   3  -8  -2   81.47   13.18
   3  -8  -2   64.04   12.16
   3  -8  -2   78.18   14.60
   3  -8  -1  205.28   18.77
   3  -8  -1  195.59   19.51
   3  -8  -1  171.93   17.71
   3  -8   0   64.90   11.47
   3  -8   0   56.93   13.59
   3  -8   3 1214.87   66.99
   3  -8   4   31.48   10.58
   3  -8   5  649.89   38.72
   3  -8   5  648.64   42.44
   3  -8   6    7.43    8.51
   3  -8   6    1.23   10.21
   3  -8   7  156.26   17.25
   3  -8   7  156.45   20.47
   3  -8   8   12.10    9.56
   3  -8   8   11.31   12.20
   3  -8   9   75.97   16.67
   3  -7  -5  217.91   22.38
   3  -7  -5  213.87   20.56
   3  -7  -4  104.82   15.04
   3  -7  -4   97.79   14.27
   3  -7  -4   98.50   15.16
   3  -7  -3  207.06   19.98
   3  -7  -3  212.50   19.52
   3  -7  -3  191.98   19.25
   3  -7  -2  169.50   17.23
   3  -7  -2  170.31   17.45
   3  -7  -2  170.61   16.79
   3  -7  -1   81.90   12.02
   3  -7  -1   71.43   11.89
   3  -7  -1   83.22   13.17
   3  -7   0  501.63   31.50
   3  -7   0  504.81   31.86
   3  -7   0  487.87   31.47
   3  -7   2  922.59   52.22
   3  -7   3   21.95    8.66
   3  -7   4 1857.01   94.33
   3  -7   5  100.86   15.30
   3  -7   5  109.09   13.68
   3  -7   6  927.22   54.09
   3  -7   6  897.39   50.14
   3  -7   7   -2.52    8.46
   3  -7   7    8.61    9.73
   3  -7   8  178.75   18.37
   3  -7   8  153.04   20.91
   3  -7   9    5.88   11.08
   3  -6  -6  250.81   21.30
   3  -6  -5   67.74   12.74
   3  -6  -5   66.30   12.74
   3  -6  -4  621.02   37.33
   3  -6  -4  638.21   38.90
   3  -6  -4  644.75   39.70
   3  -6  -3   44.57   11.11
   3  -6  -3   36.52    9.51
   3  -6  -3   44.47   10.54
   3  -6  -2  632.51   36.53
   3  -6  -2  585.20   35.23
   3  -6  -2  556.74   34.83
   3  -6  -1   41.36   10.91
   3  -6  -1   41.88    9.55
   3  -6  -1   40.51    9.27
   3  -6   0  609.55   35.78
   3  -6   0  620.52   36.24
   3  -6   1   56.29    9.95
   3  -6   2   25.14    7.87
   3  -6   2   17.25    9.94
   3  -6   3 1052.64   56.60
   3  -6   4  303.50   23.52
   3  -6   5  841.58   47.11
   3  -6   5  896.51   50.12
   3  -6   6  515.17   32.47
   3  -6   6  543.65   35.85
   3  -6   7  466.19   31.39
   3  -6   7  509.90   35.29
   3  -6   8  116.64   15.13
   3  -6   8  123.05   18.54
   3  -6   9   67.58   16.21
   3  -5  -6   14.69    9.71
   3  -5  -6   18.96    9.19
   3  -5  -5  223.63   18.85
   3  -5  -5  217.11   19.67
   3  -5  -4   41.93   10.90
   3  -5  -4   36.12    9.18
   3  -5  -3 1037.99   53.81
   3  -5  -3 1005.96   54.24
   3  -5  -2  292.21   21.12
   3  -5  -2  290.68   21.80
   3  -5  -2  312.38   22.42
   3  -5  -1 2117.87  100.81
   3  -5  -1 2053.50   99.62
   3  -5   0  168.74   14.86
   3  -5   1 1203.91   61.29
   3  -5   2   11.32    6.36
   3  -5   2   13.22    8.61
   3  -5   3  555.13   33.06
   3  -5   3  539.07   31.88
   3  -5   4   21.36    8.26
   3  -5   5  221.72   18.61
   3  -5   5  259.89   20.59
   3  -5   6   -0.97    8.78
   3  -5   7  526.74   36.50
   3  -5   8   29.61   12.51
   3  -5   9  436.60   35.94
   3  -5  10   -7.51   10.97
   3  -4  -7  186.89   17.88
   3  -4  -6   -0.66    9.56
   3  -4  -5   90.46   13.19
   3  -4  -4  412.38   27.14
   3  -4  -3  711.02   39.99
   3  -4  -2 1092.12   56.94
   3  -4  -2 1135.15   57.81
   3  -4  -1 1146.84   59.74
   3  -4  -1 1215.15   59.79
   3  -4   0 2918.70  135.98
   3  -4   1 1734.88   85.21
   3  -4   1 1857.13   85.69
   3  -4   2  677.02   36.92
   3  -4   2  684.96   36.55
   3  -4   3 1146.71   59.52
   3  -4   3 1195.79   57.76
   3  -4   4  169.28   15.33
   3  -4   5   17.33    8.63
   3  -4   7    0.82    7.43
   3  -4   7   -4.43    8.52
   3  -4   8  383.69   28.64
   3  -4   9   -2.28   10.43
   3  -4  10  130.00   18.99
   3  -3  -8  330.71   26.33
   3  -3  -8  310.35   23.74
   3  -3  -7  246.22   21.35
   3  -3  -7  278.42   20.50
   3  -3  -6  308.83   21.60
   3  -3  -6  305.53   22.52
   3  -3  -5  123.75   13.05
   3  -3  -5  122.62   13.42
   3  -3  -4  462.92   28.02
   3  -3  -3   11.16    7.46
   3  -3  -2  218.89   16.52
   3  -3  -1   99.82   10.78
   3  -3   0 1850.05   85.91
   3  -3   0 1845.19   87.62
   3  -3   0 1827.66   87.46
   3  -3   1   22.78    8.34
   3  -3   1   27.64    5.82
   3  -3   2 3308.36  152.81
   3  -3   2 3362.06  151.86
   3  -3   3    7.01    6.05
   3  -3   3   16.77    6.93
   3  -3   4 1638.17   79.24
   3  -3   5  305.94   20.86
   3  -3   5  284.33   20.03
   3  -3   6  305.23   21.97
   3  -3   6  311.28   22.05
   3  -3   7   33.20    9.36
   3  -3   8   15.91    9.51
   3  -3   9  101.91   16.43
   3  -3   9  118.81   16.53
   3  -3  10   -8.13   11.88
   3  -2  -9   71.80   11.44
   3  -2  -8  286.66   23.53
   3  -2  -8  297.08   21.42
   3  -2  -7  288.76   21.86
   3  -2  -7  303.07   21.49
   3  -2  -6  551.54   32.68
   3  -2  -6  559.66   33.10
   3  -2  -5  576.81   33.34
   3  -2  -5  561.05   32.79
   3  -2  -4 2071.50  100.27
   3  -2  -4 2173.16  101.43
   3  -2  -3   98.75   11.20
   3  -2  -2  796.21   41.93
   3  -2   0  992.90   48.56
   3  -2   0 1116.58   51.45
   3  -2   1 4196.48  189.90
   3  -2   1 4266.94  190.73
   3  -2   2  255.42   16.81
   3  -2   2  266.21   16.37
   3  -2   3 2550.28  116.59
   3  -2   3 2473.57  114.35
   3  -2   3 2521.14  113.75
   3  -2   4  406.37   24.41
   3  -2   4  402.69   23.50
   3  -2   5 1273.59   63.27
   3  -2   5 1262.41   63.34
   3  -2   6  277.25   21.03
   3  -2   7   62.29   11.85
   3  -2   8   10.15    8.98
   3  -2   8    7.46    8.75
   3  -2   9  127.62   18.24
   3  -2  10   47.45   13.96
   3  -1  -9   86.07   12.19
   3  -1  -8   64.55   11.50
   3  -1  -8   74.05   12.16
   3  -1  -7  735.74   41.30
   3  -1  -7  751.78   41.74
   3  -1  -6  400.95   25.03
   3  -1  -6  356.38   23.92
   3  -1  -5 3241.00  152.48
   3  -1  -5 3292.66  151.59
   3  -1  -5 3284.18  151.19
   3  -1  -4    7.27    5.70
   3  -1  -4    8.04    4.93
   3  -1  -4   -1.02    5.07
   3  -1  -3 4594.57  213.11
   3  -1  -3 4761.87  213.27
   3  -1  -3 4833.98  214.46
   3  -1  -2  229.01   13.86
   3  -1  -1 2705.11  124.73
   3  -1  -1 2722.21  124.69
   3  -1   0 1343.20   62.82
   3  -1   0 1273.75   59.67
   3  -1   0 1392.74   63.01
   3  -1   1 1336.89   63.07
   3  -1   2 1031.59   50.39
   3  -1   2 1162.76   51.31
   3  -1   3   28.67    6.46
   3  -1   3   23.10    5.44
   3  -1   3   26.66    4.34
   3  -1   4 1187.65   58.97
   3  -1   4 1206.35   59.33
   3  -1   5  685.48   38.76
   3  -1   6  349.85   25.22
   3  -1   7  134.17   16.80
   3  -1   8  122.96   17.62
   3  -1   9   88.31   16.95
   3   0 -10  -14.33    9.86
   3   0  -9   89.17   12.70
   3   0  -8  104.12   12.80
   3   0  -8  122.09   13.20
   3   0  -8  106.19   14.28
   3   0  -7  593.33   34.24
   3   0  -7  570.63   35.85
   3   0  -7  639.05   35.17
   3   0  -6  535.06   29.87
   3   0  -6  498.31   31.38
   3   0  -6  532.52   31.06
   3   0  -5   46.86    8.34
   3   0  -5   29.87    6.52
   3   0  -5   44.10    7.75
   3   0  -4 4384.98  197.46
   3   0  -4 4302.69  195.76
   3   0  -3  248.07   15.77
   3   0  -3  246.82   15.28
   3   0  -2 5349.69  238.84
   3   0  -1   41.73    6.77
   3   0  -1   41.45    6.13
   3   0  -1   33.10    3.84
   3   0   0 1035.52   49.97
   3   0   1   77.40    6.01
   3   0   1   75.03    6.95
   3   0   2  911.70   45.58
   3   0   2  950.79   45.45
   3   0   2  942.33   43.76
   3   0   3  361.11   22.09
   3   0   3  434.68   23.86
   3   0   4  619.71   35.27
   3   0   5  459.62   29.57
   3   0   6  660.39   38.57
   3   0   6  632.42   39.92
   3   0   7   50.21   11.58
   3   0   7   41.11   12.06
   3   0   8   37.76   11.34
   3   0   8   35.99   12.52
   3   0   9   -4.49   11.39
   3   1 -10  366.75   30.91
   3   1 -10  474.60   28.81
   3   1  -9    8.77    7.54
   3   1  -9   -3.03    8.99
   3   1  -8  622.01   38.98
   3   1  -8  665.43   37.75
   3   1  -7   -4.66    7.27
   3   1  -7    0.78    7.10
   3   1  -7   -2.65    6.10
   3   1  -6  362.44   21.48
   3   1  -6  364.94   24.40
   3   1  -6  362.33   24.21
   3   1  -5 1406.87   68.45
   3   1  -5 1329.22   65.16
   3   1  -5 1429.92   68.73
   3   1  -4  783.64   40.49
   3   1  -4  757.41   37.77
   3   1  -4  789.57   41.20
   3   1  -3 4521.42  200.31
   3   1  -3 4382.72  198.36
   3   1  -2 8014.30  355.93
   3   1  -2 7985.26  357.62
   3   1  -1 1695.72   75.22
   3   1  -1 1582.74   73.20
   3   1  -1 1686.56   76.70
   3   1   0 1402.98   65.96
   3   1   1 3132.02  141.54
   3   1   1 3153.34  141.63
   3   1   2 1911.63   84.92
   3   1   2 2005.26   87.19
   3   1   2 1743.38   82.93
   3   1   3  277.79   19.44
   3   1   4   35.37    8.65
   3   1   4   47.56    9.77
   3   1   5  149.86   15.04
   3   1   5  177.04   17.71
   3   1   6   19.96    8.84
   3   1   6   17.04    9.72
   3   1   7  162.96   18.03
   3   1   7  176.41   21.31
   3   1   8   21.54   12.62
   3   2 -11  328.77   24.47
   3   2 -10   26.25    9.19
   3   2 -10   28.83   10.37
   3   2  -9 1164.96   65.32
   3   2  -9 1241.37   63.37
   3   2  -8    5.12    6.98
   3   2  -8    2.71    6.73
   3   2  -7 1202.04   63.72
   3   2  -7 1223.39   62.75
   3   2  -6    2.50    6.39
   3   2  -6   -1.36    6.37
   3   2  -6    5.32    4.42
   3   2  -5  517.93   27.36
   3   2  -5  559.03   31.74
   3   2  -5  599.63   32.10
   3   2  -4  187.36   14.32
   3   2  -4  184.18   10.82
   3   2  -3  803.12   40.74
   3   2  -3  796.88   37.22
   3   2  -2  150.35    9.45
   3   2  -2  152.86   11.46
   3   2  -2  142.72   11.74
   3   2  -1 1983.60   90.52
   3   2  -1 1974.22   91.80
   3   2   0 2256.73  103.44
   3   2   1 2339.62  105.71
   3   2   1 2341.29  106.45
   3   2   2   52.73    5.33
   3   2   2   78.02    9.20
   3   2   3  211.55   16.83
   3   2   3  270.12   19.35
   3   2   4   65.36   12.04
   3   2   4   69.13   10.05
   3   2   5   -3.74    7.50
   3   2   5   -7.25    9.28
   3   2   6   49.38   11.01
   3   2   6   54.08   13.68
   3   2   7   19.98   10.18
   3   2   7   24.76   11.81
   3   3 -11   45.73   10.78
   3   3 -11   52.19   11.88
   3   3 -10  227.95   22.22
   3   3 -10  215.13   19.36
   3   3  -9  525.99   35.31
   3   3  -9  531.24   33.53
   3   3  -8  471.57   31.58
   3   3  -8  486.94   30.52
   3   3  -7  973.50   53.97
   3   3  -7 1022.58   53.39
   3   3  -6  382.36   25.22
   3   3  -6  375.06   24.64
   3   3  -5  966.40   50.21
   3   3  -5  938.66   49.42
   3   3  -4  527.46   30.16
   3   3  -3  175.18   12.07
   3   3  -3  183.22   14.04
   3   3  -2  616.61   32.01
   3   3  -2  633.05   29.80
   3   3  -1  254.94   13.28
   3   3  -1  224.32   11.35
   3   3  -1  252.97   15.58
   3   3   0  865.50   42.75
   3   3   0  922.82   45.53
   3   3   1    6.25    5.04
   3   3   2  385.51   20.90
   3   3   2  426.92   24.03
   3   3   3   43.27    4.33
   3   3   3   30.12    3.77
   3   3   3   58.89    9.34
   3   3   3   68.38   11.17
   3   3   4  518.62   33.61
   3   3   4  458.06   29.69
   3   3   5   45.36   10.83
   3   3   5   36.90   11.70
   3   3   6   16.15    9.54
   3   3   6   13.56   11.15
   3   4 -11    5.49    8.14
   3   4 -11   -7.07    9.71
   3   4 -10   23.27    9.47
   3   4 -10   47.69   10.48
   3   4 -10   20.52   10.37
   3   4  -9    4.87    7.12
   3   4  -9    4.18    7.91
   3   4  -9    3.99    7.97
   3   4  -8  503.68   33.13
   3   4  -8  507.13   31.98
   3   4  -7  190.58   17.59
   3   4  -7  200.82   16.96
   3   4  -6 2234.14  107.94
   3   4  -5  100.37   11.42
   3   4  -4 2691.45  125.24
   3   4  -4 2733.16  127.65
   3   4  -3  265.59   17.23
   3   4  -2  626.98   30.57
   3   4  -2  521.27   25.29
   3   4  -1   25.17    4.45
   3   4  -1   29.72    6.74
   3   4   0   46.11    6.73
   3   4   0   43.74    8.28
   3   4   1  418.08   26.64
   3   4   1  401.19   22.87
   3   4   1  401.26   23.60
   3   4   2   24.94    6.85
   3   4   2   29.64    7.55
   3   4   3  285.49   22.20
   3   4   3  259.54   18.27
   3   4   4  157.39   15.90
   3   4   4  149.32   18.70
   3   4   5   79.32   13.06
   3   4   5   94.72   16.59
   3   5 -12  193.59   19.84
   3   5 -11   18.16    9.36
   3   5 -11   40.21   11.38
   3   5 -10    2.68    7.82
   3   5 -10    3.06    8.72
   3   5  -9   99.67   13.96
   3   5  -9   79.47   11.98
   3   5  -9  104.87   14.49
   3   5  -8   65.69   10.96
   3   5  -8   62.15    9.95
   3   5  -8   66.74   11.42
   3   5  -7  826.84   43.06
   3   5  -7  837.15   47.22
   3   5  -6    2.28    6.39
   3   5  -6   11.84    5.73
   3   5  -5  300.32   17.46
   3   5  -5  299.26   21.86
   3   5  -4   66.10    6.07
   3   5  -4   65.21    8.98
   3   5  -3 1381.29   67.90
   3   5  -2  430.64   26.56
   3   5  -1  214.48   16.41
   3   5  -1  172.27   11.81
   3   5   0   35.42    6.49
   3   5   0   43.67    9.73
   3   5   0   49.96    9.94
   3   5   1  318.64   23.47
   3   5   1  290.93   19.08
   3   5   1  298.50   19.63
   3   5   2  182.19   18.65
   3   5   2  163.01   14.03
   3   5   2  213.10   16.07
   3   5   3   10.49    5.99
   3   5   3   17.51    7.90
   3   5   3   14.37    9.78
   3   5   4   55.72   11.19
   3   5   4   91.27   15.95
   3   6 -12    5.16    8.54
   3   6 -11  369.49   27.22
   3   6 -11  403.06   29.51
   3   6 -10    5.61    8.06
   3   6 -10   -7.31    8.73
   3   6  -9  171.63   15.60
   3   6  -9  168.02   18.40
   3   6  -8   20.26    9.07
   3   6  -8   20.76    7.45
   3   6  -7  137.36   15.67
   3   6  -7  156.32   12.70
   3   6  -6   18.69    8.36
   3   6  -6   23.47    6.24
   3   6  -5    6.42    6.65
   3   6  -5    5.85    6.67
   3   6  -4  657.88   37.12
   3   6  -3  530.84   31.75
   3   6  -2  414.87   26.90
   3   6  -1  372.57   25.57
   3   6  -1  365.28   24.15
   3   6   0   20.52    6.67
   3   6   0   19.34    8.62
   3   6   0   23.06    9.03
   3   6   1   94.59   11.70
   3   6   1  103.70   11.36
   3   6   1  115.80   15.00
   3   6   2   61.57    9.30
   3   6   2   42.35    9.35
   3   6   2   65.02   13.49
   3   6   3   -1.57    7.43
   3   6   3   -8.73   10.59
   3   6   3   -1.25    9.59
   3   6   4   -0.92    8.70
   3   7 -11   24.63   10.27
   3   7 -11   18.81    9.33
   3   7 -10  363.10   25.25
   3   7  -9  189.54   16.55
   3   7  -9  208.90   20.94
   3   7  -8  179.97   15.10
   3   7  -8  199.99   19.61
   3   7  -7   41.01   10.05
   3   7  -6  587.41   37.36
   3   7  -5  103.99   13.03
   3   7  -4  345.17   24.06
   3   7  -3  252.51   20.43
   3   7  -2  377.03   25.74
   3   7  -2  330.65   24.48
   3   7  -1   59.14   11.48
   3   7  -1   65.76   11.66
   3   7   0   73.50   11.87
   3   7   0   75.42   13.27
   3   7   1  -11.50    9.50
   3   7   1    4.38    8.98
   3   7   2   91.93   16.20
   3   8  -8  110.85   15.48
   3   8  -7  127.62   16.57
   3   8  -6  280.42   22.74
   3   8  -6  302.98   24.77
   3   8  -5   27.03    9.39
   3   8  -4   -0.87    7.99
   3   8  -3   28.11    9.87
   3   8  -3   42.75   12.29
   3   8  -2  101.84   14.83
   3   8  -2   85.85   13.73
   3   8  -1  372.38   28.77
   3   8  -1  372.78   25.79
   3   8   0   25.34   11.20
   3   8   0   21.68   10.50
   3   9  -8   99.96   16.08
   3   9  -7  189.57   20.60
   3   9  -6   -1.13    8.41
   3   9  -6   -4.88    8.68
   3   9  -5  112.12   15.15
   3   9  -4   -7.98    8.95
   3   9  -4  -11.49   11.43
   3   9  -3   20.88    9.96
   3   9  -3   35.12   12.66
   3   9  -2   32.33   12.23
   3   9  -2   50.14   12.51
   3   9  -1   44.42   13.07
   3  10  -6  184.23   20.19
   3  10  -6  195.64   21.77
   3  10  -5   -8.77   10.25
   3  10  -5    3.62   11.94
   3  10  -4  127.27   17.41
   3  10  -4  161.90   19.17
   3  10  -3    7.02   11.24
   3  10  -2  -12.98   11.69
   4 -10   2  112.74   16.34
   4 -10   4  525.50   40.25
   4 -10   5   29.32   12.28
   4 -10   5   14.44   12.69
   4 -10   6  291.81   26.52
   4  -9  -2  356.68   28.81
   4  -9   0  319.45   25.81
   4  -9   1   17.29    9.92
   4  -9   3  110.26   17.12
   4  -9   4    2.49   11.01
   4  -9   5  182.23   21.83
   4  -9   6  160.83   18.53
   4  -9   6  127.21   19.11
   4  -9   7  260.40   24.15
   4  -9   7  243.32   26.85
   4  -8  -3  363.27   28.73
   4  -8  -2   39.61   10.79
   4  -8  -2   19.28    9.71
   4  -8  -2   39.83   13.41
   4  -8  -1  599.07   37.76
   4  -8  -1  553.60   36.74
   4  -8  -1  577.71   36.81
   4  -8   0    1.92    7.87
   4  -8   0    7.60   11.76
   4  -8   2    3.45   11.58
   4  -8   3  318.21   26.18
   4  -8   4   90.97   15.17
   4  -8   5  225.13   22.59
   4  -8   6  223.71   20.78
   4  -8   6  201.46   22.66
   4  -8   7  390.62   28.80
   4  -8   7  367.23   32.51
   4  -8   8   29.15   14.40
   4  -7  -4   94.87   15.49
   4  -7  -4  111.01   16.78
   4  -7  -3   35.27   10.67
   4  -7  -3   34.71   10.17
   4  -7  -3   34.49   12.07
   4  -7  -2  183.53   19.12
   4  -7  -2  166.50   17.55
   4  -7  -2  190.75   18.86
   4  -7  -1  112.80   14.76
   4  -7  -1  123.77   14.94
   4  -7  -1  121.47   16.00
   4  -7   0  698.90   40.79
   4  -7   0  652.04   40.06
   4  -7   2  792.53   46.55
   4  -7   2  798.10   45.67
   4  -7   3  855.92   51.40
   4  -7   3  982.10   51.72
   4  -7   4  236.34   21.69
   4  -7   5   -7.54   10.34
   4  -7   5   -1.68    9.16
   4  -7   6  324.02   25.59
   4  -7   6  354.76   28.36
   4  -7   7   20.52    9.81
   4  -7   7   19.00   11.30
   4  -7   8  140.61   17.49
   4  -7   8  128.91   19.85
   4  -6  -6  353.82   26.77
   4  -6  -5   42.87   12.95
   4  -6  -5   48.63   12.59
   4  -6  -4  319.01   24.66
   4  -6  -4  328.77   26.49
   4  -6  -4  330.37   25.46
   4  -6  -3    8.21    9.63
   4  -6  -3    3.44    6.94
   4  -6  -3   -1.89    8.15
   4  -6  -2  317.65   24.71
   4  -6  -2  321.42   24.00
   4  -6  -2  358.67   24.95
   4  -6  -1  191.51   18.15
   4  -6  -1  214.42   19.26
   4  -6   0 1246.11   65.42
   4  -6   1  416.96   28.00
   4  -6   1  431.89   28.71
   4  -6   2 1416.52   72.67
   4  -6   2 1432.04   72.04
   4  -6   3  206.36   18.54
   4  -6   3  217.43   19.34
   4  -6   4  810.15   47.09
   4  -6   5  150.27   17.24
   4  -6   5  162.96   16.98
   4  -6   6  287.48   22.54
   4  -6   6  241.35   22.79
   4  -6   7  136.44   18.50
   4  -6   8   38.77   12.62
   4  -6   9  196.24   24.32
   4  -5  -7  256.80   22.36
   4  -5  -6  128.15   16.27
   4  -5  -5  275.82   22.77
   4  -5  -4  376.44   26.73
   4  -5  -3  384.85   27.41
   4  -5  -3  420.22   28.47
   4  -5  -2   27.89   10.91
   4  -5  -2   25.08    9.04
   4  -5  -1  997.19   53.77
   4  -5   0   18.85    8.04
   4  -5   1  926.30   51.70
   4  -5   1 1084.84   53.01
   4  -5   2  532.02   32.15
   4  -5   2  555.23   32.65
   4  -5   3 1555.47   78.72
   4  -5   3 1594.68   77.26
   4  -5   4   16.60    8.66
   4  -5   5 1074.16   58.66
   4  -5   6   39.68   11.62
   4  -5   7  162.00   17.26
   4  -5   7  162.39   19.81
   4  -5   8    5.49    9.64
   4  -5   8   -4.02    9.99
   4  -5   9   30.25   15.21
   4  -4  -8  -21.66   12.24
   4  -4  -7  121.29   16.38
   4  -4  -7  132.55   16.61
   4  -4  -6  124.52   16.61
   4  -4  -6  143.90   15.83
   4  -4  -5  768.16   43.75
   4  -4  -5  764.65   43.94
   4  -4  -4  328.27   23.47
   4  -4  -3 1577.04   81.58
   4  -4  -3 1658.06   80.86
   4  -4  -2  302.92   21.78
   4  -4  -2  275.66   21.24
   4  -4  -1  719.73   40.68
   4  -4   0   88.66   12.88
   4  -4   0   77.03   10.94
   4  -4   1   84.96   12.16
   4  -4   1   71.84    8.87
   4  -4   2 1008.76   51.50
   4  -4   2  996.95   51.30
   4  -4   3  161.92   14.83
   4  -4   3  187.03   15.46
   4  -4   4  711.06   41.71
   4  -4   4  762.56   39.39
   4  -4   5   30.30   10.50
   4  -4   5   36.91    9.51
   4  -4   6  439.19   29.50
   4  -4   6  479.58   32.67
   4  -4   7   24.17    9.49
   4  -4   8   43.94   11.11
   4  -4   9    5.26    8.86
   4  -3  -8  142.54   16.30
   4  -3  -8  158.07   17.66
   4  -3  -7   33.92    9.69
   4  -3  -7    7.77    8.48
   4  -3  -6  494.02   31.41
   4  -3  -6  515.02   31.99
   4  -3  -5   75.90   11.92
   4  -3  -5   51.71    9.71
   4  -3  -4 1426.83   72.94
   4  -3  -4 1505.68   73.99
   4  -3  -3   -2.57    7.48
   4  -3  -3   -1.90    4.91
   4  -3  -2 3107.39  145.63
   4  -3   0 1132.20   55.48
   4  -3   0 1195.16   58.24
   4  -3   1   39.81    9.94
   4  -3   1   39.55    6.46
   4  -3   2 1399.69   70.52
   4  -3   2 1527.53   70.97
   4  -3   3  107.47   11.26
   4  -3   3   90.78   10.84
   4  -3   4   45.10    9.96
   4  -3   4   34.67    9.07
   4  -3   5  812.61   43.40
   4  -3   5  758.17   40.86
   4  -3   6  357.48   24.36
   4  -3   6  340.36   23.39
   4  -3   7  137.47   15.48
   4  -3   8  158.72   18.24
   4  -3   9   11.25    9.56
   4  -2  -9   78.54   13.30
   4  -2  -8  204.47   19.03
   4  -2  -8  209.84   18.86
   4  -2  -7   13.27    9.15
   4  -2  -7   10.06    7.63
   4  -2  -6   19.09    9.00
   4  -2  -6   13.26    7.69
   4  -2  -5  133.88   15.29
   4  -2  -5  138.81   13.81
   4  -2  -4   81.33   11.88
   4  -2  -4   77.71   10.07
   4  -2  -3 1498.73   74.77
   4  -2  -1 2397.43  113.23
   4  -2   0  280.13   18.55
   4  -2   0  253.11   14.70
   4  -2   0  278.41   18.64
   4  -2   1 1445.24   69.11
   4  -2   1 1518.61   71.05
   4  -2   2  255.59   17.41
   4  -2   2  280.28   18.26
   4  -2   3  191.42   12.01
   4  -2   3  235.72   14.47
   4  -2   4    0.76    4.37
   4  -2   4   -3.32    7.12
   4  -2   5   93.68   10.75
   4  -2   5   90.10   11.91
   4  -2   6   12.37    7.22
   4  -2   7  211.35   19.47
   4  -2   8   12.16    9.49
   4  -1  -9  309.37   25.05
   4  -1  -9  336.23   25.13
   4  -1  -8   34.05   11.28
   4  -1  -8   37.92    9.57
   4  -1  -7  435.58   28.51
   4  -1  -7  404.27   26.64
   4  -1  -6   20.56    8.70
   4  -1  -6    8.52    6.90
   4  -1  -5 1092.59   58.60
   4  -1  -5 1152.44   58.00
   4  -1  -5 1223.96   60.12
   4  -1  -4   13.16    7.36
   4  -1  -4   11.09    6.09
   4  -1  -4   12.24    6.15
   4  -1  -3  297.89   18.29
   4  -1  -2  753.76   41.20
   4  -1  -2  792.31   41.09
   4  -1  -1 1301.54   64.11
   4  -1  -1 1324.50   64.44
   4  -1   0  270.66   17.14
   4  -1   0  232.75   12.82
   4  -1   0  264.17   17.51
   4  -1   1  945.92   47.41
   4  -1   2   30.43    3.59
   4  -1   2   66.75    7.57
   4  -1   3 1202.61   58.67
   4  -1   3 1170.30   56.29
   4  -1   3 1175.30   54.96
   4  -1   4    3.16    6.76
   4  -1   4    6.03    5.73
   4  -1   5   67.67   10.33
   4  -1   5   71.04   10.32
   4  -1   6   26.31    8.87
   4  -1   7   -4.69    8.23
   4  -1   7   -5.82    8.03
   4  -1   8  128.18   17.73
   4   0 -10   95.61   14.85
   4   0  -9   88.35   12.81
   4   0  -9   77.75   12.54
   4   0  -9   76.99   13.47
   4   0  -8  455.22   28.21
   4   0  -8  425.38   30.49
   4   0  -8  448.27   29.31
   4   0  -7  472.61   28.73
   4   0  -7  495.15   31.28
   4   0  -7  472.51   30.52
   4   0  -6 1508.50   75.49
   4   0  -6 1581.40   76.07
   4   0  -6 1442.26   72.83
   4   0  -5 2409.62  115.84
   4   0  -5 2414.70  113.98
   4   0  -5 2553.82  117.26
   4   0  -4  500.95   27.84
   4   0  -4  474.97   26.61
   4   0  -4  482.40   29.38
   4   0  -3   -0.38    4.26
   4   0  -2 1167.63   55.43
   4   0  -2 1154.58   58.73
   4   0  -2 1213.90   58.11
   4   0  -1   26.44    6.80
   4   0  -1   39.41    6.72
   4   0  -1   24.30    3.53
   4   0   0 1064.53   51.52
   4   0   0 1426.06   56.90
   4   0   1   72.40    8.01
   4   0   1   54.87    5.22
   4   0   2 1420.70   73.20
   4   0   2 1537.60   72.32
   4   0   2 1660.54   72.27
   4   0   3    8.30    3.33
   4   0   3    7.93    6.36
   4   0   3    4.04    5.44
   4   0   4  987.21   51.46
   4   0   4 1052.54   52.75
   4   0   5   12.75    8.09
   4   0   6   92.22   13.95
   4   0   6   97.35   14.49
   4   0   7   -3.76    8.92
   4   0   7   12.90    9.13
   4   0   8   18.70   10.61
   4   1 -10   42.03   10.18
   4   1 -10   49.02   11.92
   4   1  -9   91.15   13.32
   4   1  -9   83.07   13.51
   4   1  -8  222.28   17.56
   4   1  -8  241.28   20.68
   4   1  -8  256.49   20.38
   4   1  -7  258.78   18.25
   4   1  -7  290.70   21.87
   4   1  -7  314.93   22.41
   4   1  -6  517.63   30.79
   4   1  -6  492.44   31.08
   4   1  -6  476.90   27.34
   4   1  -5   22.34    8.29
   4   1  -5   27.71    6.00
   4   1  -5   18.05    7.09
   4   1  -4  995.48   48.74
   4   1  -4  923.39   46.06
   4   1  -3  166.80   12.37
   4   1  -3  163.03   14.41
   4   1  -2 2387.69  109.76
   4   1  -2 2406.85  110.78
   4   1  -2 2402.10  112.49
   4   1  -1  306.69   17.24
   4   1  -1  254.02   13.66
   4   1  -1  310.51   16.18
   4   1  -1  281.60   18.36
   4   1   0  387.43   22.59
   4   1   1 1315.32   62.56
   4   1   2   19.01    4.60
   4   1   2   17.00    6.02
   4   1   2   16.34    6.05
   4   1   3 1130.78   57.57
   4   1   4   47.13   10.18
   4   1   5  198.00   17.56
   4   1   5  154.99   17.62
   4   1   6   50.86   10.98
   4   1   6   28.33   10.72
   4   1   7    9.75   10.52
   4   1   8    5.53   10.83
   4   2 -11   92.61   14.12
   4   2 -10   97.26   13.95
   4   2 -10   86.91   14.61
   4   2  -9  177.20   17.20
   4   2  -9  131.30   16.45
   4   2  -8   -5.07    8.16
   4   2  -8   -1.83    7.05
   4   2  -7  670.84   36.82
   4   2  -7  761.08   42.31
   4   2  -7  762.20   42.01
   4   2  -6   48.42    9.75
   4   2  -6   48.22    6.62
   4   2  -6   53.34    9.47
   4   2  -5 1715.26   81.46
   4   2  -5 1636.21   76.78
   4   2  -4   37.44    5.07
   4   2  -4   40.90    7.77
   4   2  -3 3362.52  153.27
   4   2  -3 3322.94  154.58
   4   2  -2  683.06   32.53
   4   2  -2  699.54   34.34
   4   2  -2  681.00   35.42
   4   2  -2  647.21   36.27
   4   2  -1  817.93   38.72
   4   2  -1  766.52   40.88
   4   2   0   26.65    6.33
   4   2   1  219.61   13.75
   4   2   1  234.67   14.86
   4   2   2  172.71   14.90
   4   2   2  168.90   11.12
   4   2   3  177.47   15.35
   4   2   3  169.78   16.03
   4   2   4  161.62   15.45
   4   2   4  157.10   16.99
   4   2   5   30.69    9.98
   4   2   5   57.06   12.53
   4   2   6  174.23   19.20
   4   2   6  184.80   21.00
   4   2   7   78.82   16.21
   4   3 -11  311.93   25.88
   4   3 -10   26.06    9.89
   4   3 -10   18.42    9.41
   4   3  -9  538.27   35.83
   4   3  -9  516.36   33.99
   4   3  -8   13.84    8.82
   4   3  -8   30.19    9.11
   4   3  -7  383.82   26.54
   4   3  -7  382.89   26.19
   4   3  -6 1142.54   55.17
   4   3  -6 1226.52   61.44
   4   3  -6 1229.16   61.82
   4   3  -5  307.47   21.08
   4   3  -5  291.43   15.47
   4   3  -4 2173.63   94.65
   4   3  -4 1897.25   88.02
   4   3  -4 2075.06   95.20
   4   3  -3   10.92    5.98
   4   3  -3   12.50    6.50
   4   3  -3   14.43    4.86
   4   3  -2 2280.37   99.96
   4   3  -2 2240.95  101.38
   4   3  -2 1988.71  103.04
   4   3  -1   58.94    7.99
   4   3  -1   46.25    7.27
   4   3   0  440.87   22.66
   4   3   0  370.33   19.61
   4   3   0  426.29   24.28
   4   3   0  393.58   22.86
   4   3   1  148.70   12.17
   4   3   1  139.39   10.96
   4   3   2  109.26    8.51
   4   3   2  111.16   11.42
   4   3   2   99.63    8.62
   4   3   3   10.14    8.14
   4   3   3   19.48    8.25
   4   3   4   94.07   12.92
   4   3   4   87.93   14.10
   4   3   5   53.74   11.58
   4   3   5   72.99   14.39
   4   3   6  110.46   18.26
   4   4 -11   -3.08   10.51
   4   4 -11    7.05    8.78
   4   4 -10  682.82   44.54
   4   4 -10  709.06   43.24
   4   4  -9  119.92   15.08
   4   4  -9   93.21   14.14
   4   4  -8  211.91   19.45
   4   4  -8  213.94   18.91
   4   4  -7   -4.70    7.66
   4   4  -7    1.65    6.89
   4   4  -6  393.91   26.44
   4   4  -5  118.41   12.81
   4   4  -4  125.37   12.87
   4   4  -3  877.29   44.82
   4   4  -3  905.45   42.34
   4   4  -2  452.91   24.62
   4   4  -2  393.32   20.17
   4   4  -1  964.42   48.25
   4   4  -1  918.53   44.67
   4   4   0  716.03   38.34
   4   4   0  659.78   34.81
   4   4   1   29.51    7.13
   4   4   1   29.04    9.02
   4   4   2    3.65    5.58
   4   4   2    3.68    4.33
   4   4   2   -2.83    7.04
   4   4   3   14.10    3.15
   4   4   3   13.45    2.73
   4   4   3   22.43    7.98
   4   4   4    1.13    8.96
   4   4   4  -13.76    8.67
   4   4   5    3.79    8.79
   4   4   5    1.30    9.77
   4   5 -11  302.48   24.50
   4   5 -11  371.42   28.33
   4   5 -10   69.06   12.98
   4   5 -10   79.60   12.05
   4   5 -10   64.05   13.53
   4   5  -9  678.51   37.47
   4   5  -9  647.87   41.25
   4   5  -9  624.85   40.06
   4   5  -8  109.62   13.95
   4   5  -8   80.16   12.97
   4   5  -7  366.40   25.61
   4   5  -7  315.49   24.19
   4   5  -6  152.22   15.21
   4   5  -5  166.27   16.04
   4   5  -4  260.91   14.43
   4   5  -4  277.81   18.39
   4   5  -4  285.09   20.66
   4   5  -3   34.86    7.42
   4   5  -2   40.78    4.75
   4   5  -2   67.81    9.62
   4   5  -1  737.86   38.00
   4   5  -1  623.22   32.72
   4   5   0   66.41    7.99
   4   5   0   62.58   10.97
   4   5   1  240.36   20.38
   4   5   1  230.98   16.10
   4   5   1  227.36   16.72
   4   5   2  103.26   10.41
   4   5   2  106.38   12.33
   4   5   2  115.02   15.82
   4   5   2   93.59    9.05
   4   5   3  108.82   13.72
   4   5   3  117.59   17.95
   4   5   3  122.98   16.68
   4   5   4    0.86    8.08
   4   5   4  -10.14   10.31
   4   6 -11    9.51    9.09
   4   6 -11   34.18   10.24
   4   6 -10  110.60   15.47
   4   6 -10   99.46   13.45
   4   6 -10  124.71   16.87
   4   6  -9  134.05   16.03
   4   6  -9  138.97   13.86
   4   6  -9  126.25   16.71
   4   6  -8  389.99   24.02
   4   6  -8  429.23   29.17
   4   6  -8  346.18   26.64
   4   6  -7  394.51   23.30
   4   6  -7  401.14   28.31
   4   6  -6  159.65   11.83
   4   6  -6  175.80   17.30
   4   6  -5  271.03   15.61
   4   6  -5  297.12   20.27
   4   6  -5  308.53   22.90
   4   6  -4   72.55   10.04
   4   6  -3    2.58    6.43
   4   6  -2   33.42    8.76
   4   6  -1   18.99    5.30
   4   6  -1   20.98    8.40
   4   6   0  151.62   16.51
   4   6   0  114.09   11.08
   4   6   0  140.17   13.52
   4   6   1   19.87    8.35
   4   6   1    3.31    5.98
   4   6   1   18.94    9.70
   4   6   2  126.82   14.13
   4   6   2  147.75   18.67
   4   6   3    3.97    7.67
   4   6   3   12.59   10.24
   4   7 -11   -2.31    8.69
   4   7 -10    3.08    8.19
   4   7 -10    8.09    7.54
   4   7 -10    3.53    8.40
   4   7  -9   15.10    7.68
   4   7  -9   13.57    9.38
   4   7  -8  224.46   16.44
   4   7  -8  222.73   21.44
   4   7  -7    9.83    7.95
   4   7  -7   19.19    6.68
   4   7  -6  270.87   22.97
   4   7  -5  111.60   14.51
   4   7  -5   83.32   12.33
   4   7  -4  423.71   27.65
   4   7  -3   -3.86    7.17
   4   7  -2   27.30    9.30
   4   7  -1    6.36    8.08
   4   7  -1    6.48    8.94
   4   7   0    3.89    8.29
   4   7   0    5.05    8.29
   4   7   1   -3.37    9.70
   4   8 -11   18.03    8.87
   4   8 -10  118.20   13.66
   4   8  -9    9.29    9.02
   4   8  -8    6.59    8.61
   4   8  -7   40.44   10.97
   4   8  -6   -2.11    8.12
   4   8  -6    1.81    1.86
   4   8  -6   -5.06    8.34
   4   8  -5  268.35   21.69
   4   8  -4   95.64   13.56
   4   8  -3  101.41   14.35
   4   8  -2   31.95   11.06
   4   8  -2   54.01   12.46
   4   8  -1   58.31   12.62
   4   8  -1   47.18   12.28
   4   8   0   -6.98    9.47
   4   9  -7   -3.57    8.29
   4   9  -6   41.97   11.82
   4   9  -6   39.30   10.77
   4   9  -5   21.85    9.57
   4   9  -4   25.60    9.68
   4   9  -4   18.89   12.56
   4   9  -3    8.33    8.84
   4   9  -3   -5.55   10.80
   4   9  -2  168.80   19.73
   4   9  -2  153.98   18.14
   4  10  -6   12.87    9.34
   5 -10   4  179.33   22.37
   5  -9   3  220.87   24.00
   5  -9   4  185.75   21.86
   5  -9   5    1.29    9.91
   5  -9   6   34.31   12.66
   5  -8  -2   28.05   11.24
   5  -8  -1  186.52   20.34
   5  -8  -1  180.87   19.96
   5  -8  -1  213.87   21.29
   5  -8   1  112.28   16.78
   5  -8   2   50.99   13.79
   5  -8   3  510.76   35.41
   5  -8   3  504.15   35.17
   5  -8   4   66.96   13.81
   5  -8   5  363.84   29.86
   5  -8   6    1.05   10.17
   5  -8   6   -1.27   10.48
   5  -8   7  154.12   21.42
   5  -7  -3  221.25   22.31
   5  -7  -3  236.69   22.55
   5  -7  -3  252.53   22.16
   5  -7  -2  100.84   16.23
   5  -7  -2   88.54   13.61
   5  -7  -2  107.31   15.18
   5  -7  -1  327.94   26.08
   5  -7  -1  296.29   25.33
   5  -7   1   62.13   14.07
   5  -7   2  369.73   27.42
   5  -7   2  400.12   28.10
   5  -7   3   23.90    9.98
   5  -7   3   43.28   13.08
   5  -7   4  756.20   45.68
   5  -7   5   -3.25   10.33
   5  -7   6  380.44   29.34
   5  -7   6  414.42   31.75
   5  -7   7   62.97   14.71
   5  -7   8   72.94   16.32
   5  -6  -5   66.06   15.32
   5  -6  -4  373.55   28.96
   5  -6  -4  362.78   28.36
   5  -6  -3    9.47   10.93
   5  -6  -3   21.37    9.85
   5  -6  -2  720.47   42.36
   5  -6  -2  642.90   40.89
   5  -6  -1   13.05    8.44
   5  -6   0  701.47   42.64
   5  -6   0  741.50   42.81
   5  -6   1   39.81   12.02
   5  -6   1   16.70    8.78
   5  -6   2  240.74   19.83
   5  -6   2  277.53   22.23
   5  -6   3   -4.83    7.48
   5  -6   3    6.90    9.84
   5  -6   4   24.32   10.50
   5  -6   4   59.33   12.94
   5  -6   5  240.72   22.04
   5  -6   6   74.67   13.93
   5  -6   7  217.22   21.46
   5  -6   7  210.58   23.05
   5  -6   8  173.58   22.69
   5  -5  -6  103.17   16.92
   5  -5  -5   82.47   15.42
   5  -5  -5   80.30   13.73
   5  -5  -5   74.21   12.37
   5  -5  -4   84.93   15.55
   5  -5  -4  102.47   14.84
   5  -5  -3  432.22   30.59
   5  -5  -3  469.01   31.61
   5  -5  -2   -8.91   11.38
   5  -5  -2    4.43    7.59
   5  -5  -1 1378.63   71.77
   5  -5   0  325.47   24.64
   5  -5   0  343.17   25.36
   5  -5   1  772.37   42.53
   5  -5   1  824.85   45.14
   5  -5   2  134.27   14.16
   5  -5   2  206.00   17.91
   5  -5   3  217.64   18.99
   5  -5   3  271.00   20.15
   5  -5   4   37.09    9.30
   5  -5   4   64.47   11.84
   5  -5   5  319.60   24.21
   5  -5   5  300.22   24.08
   5  -5   6   40.38   10.94
   5  -5   6   37.85   11.50
   5  -5   7  177.31   19.07
   5  -5   7  182.12   21.46
   5  -5   8   -9.48   14.04
   5  -4  -7  315.78   26.49
   5  -4  -6   12.42   10.07
   5  -4  -6   -1.81    7.89
   5  -4  -5  453.35   30.67
   5  -4  -5  456.52   30.37
   5  -4  -4   48.44   11.35
   5  -4  -4   30.81    8.50
   5  -4  -4   26.83    9.55
   5  -4  -3  152.69   16.40
   5  -4  -3  154.95   15.43
   5  -4  -3  178.95   17.17
   5  -4  -2 1358.91   70.46
   5  -4  -1  644.23   38.10
   5  -4   0  846.02   47.25
   5  -4   1  813.74   44.72
   5  -4   1 1004.99   49.09
   5  -4   2  776.04   43.02
   5  -4   2  878.33   45.19
   5  -4   3  472.04   30.36
   5  -4   3  557.79   30.97
   5  -4   4  316.47   23.23
   5  -4   4  320.06   21.46
   5  -4   5  308.52   23.34
   5  -4   5  295.53   23.63
   5  -4   6   16.55    9.21
   5  -4   6   26.23   10.73
   5  -4   7   46.63   11.35
   5  -4   7   13.29   12.24
   5  -4   8   90.61   17.85
   5  -3  -8  206.54   20.30
   5  -3  -7   10.62    9.39
   5  -3  -7   11.46    8.37
   5  -3  -6  634.16   38.81
   5  -3  -6  632.45   38.16
   5  -3  -5  159.87   15.77
   5  -3  -5  202.59   18.35
   5  -3  -4  396.42   26.12
   5  -3  -4  409.25   27.98
   5  -3  -1   51.51   10.85
   5  -3   0  878.33   49.14
   5  -3   0  902.03   44.68
   5  -3   0  995.32   49.45
   5  -3   1  333.51   20.42
   5  -3   1  408.91   25.00
   5  -3   2 1061.26   55.48
   5  -3   2 1198.21   57.45
   5  -3   3  468.83   29.09
   5  -3   3  506.44   28.45
   5  -3   4  484.92   30.82
   5  -3   4  482.66   31.18
   5  -3   4  508.50   27.58
   5  -3   5   -6.45    8.47
   5  -3   6   55.97    8.89
   5  -3   6   65.57   11.92
   5  -3   7   48.89    9.53
   5  -2  -9  219.07   21.31
   5  -2  -8  174.50   18.31
   5  -2  -8  222.66   20.67
   5  -2  -7  323.15   25.26
   5  -2  -7  311.89   23.17
   5  -2  -6  477.88   32.40
   5  -2  -6  474.49   30.09
   5  -2  -5  520.44   32.10
   5  -2  -5  588.49   35.69
   5  -2  -4  832.10   45.48
   5  -2  -4  861.84   47.90
   5  -2  -3  179.97   16.40
   5  -2  -2  836.21   47.13
   5  -2  -2  934.26   48.75
   5  -2  -1  530.04   32.14
   5  -2  -1  569.21   33.45
   5  -2   0   21.61    8.96
   5  -2   0   10.57    3.39
   5  -2   1  700.67   35.86
   5  -2   1  756.91   39.40
   5  -2   2   20.76    9.03
   5  -2   2   10.71    5.54
   5  -2   3  827.28   41.96
   5  -2   4   11.21    4.22
   5  -2   4    7.02    7.96
   5  -2   4   16.96    6.67
   5  -2   5  490.33   30.18
   5  -2   5  468.01   27.08
   5  -2   6   52.12    9.20
   5  -2   6   41.55   10.33
   5  -2   7  104.62   13.53
   5  -1  -9  123.42   17.00
   5  -1  -9  102.37   14.20
   5  -1  -8   -8.63   10.48
   5  -1  -8   -3.06    7.21
   5  -1  -7  210.16   20.22
   5  -1  -7  232.79   18.36
   5  -1  -6  324.76   23.63
   5  -1  -6  292.67   21.03
   5  -1  -5 1385.23   70.74
   5  -1  -5 1366.75   69.99
   5  -1  -5 1560.16   73.71
   5  -1  -4 1559.50   74.59
   5  -1  -4 1510.12   75.05
   5  -1  -3 1909.64   92.66
   5  -1  -2  225.47   17.14
   5  -1  -2  224.55   18.00
   5  -1  -1  529.33   30.17
   5  -1  -1  499.74   30.39
   5  -1   0   89.59   11.49
   5  -1   0   61.65    4.85
   5  -1   1  121.55   12.36
   5  -1   1  101.29    9.12
   5  -1   2   11.50    6.82
   5  -1   3   40.98    5.26
   5  -1   3   66.07    8.36
   5  -1   3   52.94    9.47
   5  -1   4  493.71   30.17
   5  -1   4  503.25   27.55
   5  -1   5   50.60   10.26
   5  -1   5   39.61    8.27
   5  -1   6  143.59   15.14
   5  -1   7   33.18   10.01
   5   0 -10    6.19   11.82
   5   0  -9  210.57   18.83
   5   0  -9  194.24   20.53
   5   0  -9  257.75   21.63
   5   0  -8    4.56    8.12
   5   0  -8   12.18    8.03
   5   0  -8   12.74    7.04
   5   0  -7   -1.74    7.75
   5   0  -7    1.82    6.42
   5   0  -7   -0.82    7.07
   5   0  -6  329.20   23.36
   5   0  -6  344.74   22.11
   5   0  -6  358.67   25.22
   5   0  -5   76.36   12.12
   5   0  -5   77.22    9.42
   5   0  -5   81.70   10.46
   5   0  -4 1150.05   57.05
   5   0  -3   -2.28    6.27
   5   0  -3    1.35    6.93
   5   0  -3    2.26    4.37
   5   0  -2  809.85   40.55
   5   0  -2  870.28   44.36
   5   0  -2  915.04   46.06
   5   0  -1   17.13    7.41
   5   0  -1   14.16    6.52
   5   0  -1   11.24    2.56
   5   0   0 1107.55   55.78
   5   0   1    6.87    6.87
   5   0   1   11.05    2.66
   5   0   2   -1.82    6.13
   5   0   2   -0.95    6.86
   5   0   2   -0.27    3.75
   5   0   3   15.64    5.09
   5   0   3   22.72    7.47
   5   0   3   19.46    6.06
   5   0   4   26.99    8.29
   5   0   4   28.97    7.64
   5   0   5   40.08    8.72
   5   0   6   13.58    9.49
   5   0   6    0.84    7.57
   5   1 -10  292.90   27.03
   5   1 -10  391.85   28.20
   5   1  -9    6.80    9.15
   5   1  -9   12.41    8.86
   5   1  -9    7.53    7.30
   5   1  -8  426.61   26.24
   5   1  -8  408.58   29.39
   5   1  -8  460.63   30.74
   5   1  -7    5.27    8.38
   5   1  -7    4.63    5.74
   5   1  -7   16.08    7.27
   5   1  -6   62.71   11.45
   5   1  -6   71.17    8.91
   5   1  -6   87.17   11.21
   5   1  -5   27.01    6.01
   5   1  -5   26.54    7.65
   5   1  -4  176.14   13.82
   5   1  -4  171.77   16.35
   5   1  -3  290.64   18.20
   5   1  -3  299.23   21.57
   5   1  -3  303.50   19.80
   5   1  -2  235.59   16.11
   5   1  -2  220.41   14.35
   5   1  -2  232.07   17.91
   5   1  -1 1830.30   69.28
   5   1  -1 1891.23   74.17
   5   1   0 1475.12   71.77
   5   1   1  535.87   28.88
   5   1   1  580.39   30.46
   5   1   2   47.45    7.72
   5   1   2   45.43    7.80
   5   1   2   38.29    7.25
   5   1   3   22.18    3.05
   5   1   3   33.77    7.89
   5   1   4   21.47    8.32
   5   1   5   -3.39    7.38
   5   1   5   -5.34    8.65
   5   1   6    0.96    8.46
   5   1   6    2.99    8.54
   5   2 -10   53.67   12.33
   5   2 -10   35.37   10.54
   5   2  -9  487.26   34.50
   5   2  -9  553.69   35.26
   5   2  -8   59.53   12.29
   5   2  -8   57.89   11.09
   5   2  -8   58.33    8.73
   5   2  -7  633.81   33.95
   5   2  -7  674.54   39.19
   5   2  -7  655.60   39.92
   5   2  -6   26.22    9.12
   5   2  -6   16.47    5.48
   5   2  -6   22.09    8.17
   5   2  -5  200.46   15.69
   5   2  -5  169.98   12.06
   5   2  -4   10.67    7.30
   5   2  -4    3.21    5.46
   5   2  -3  337.72   21.06
   5   2  -3  334.94   20.84
   5   2  -3  366.89   23.91
   5   2  -2  119.58   10.35
   5   2  -2  112.62   12.30
   5   2  -2  104.94    6.85
   5   2  -2  127.91   10.42
   5   2  -1   58.36    8.88
   5   2  -1   43.11    5.86
   5   2   0   47.17    8.29
   5   2   0   56.90    7.56
   5   2   1  530.17   29.25
   5   2   1  606.70   30.91
   5   2   2   32.91    5.74
   5   2   2   36.82    8.37
   5   2   3  252.93   19.52
   5   2   3  222.20   18.85
   5   2   4   18.87    8.78
   5   2   4   15.61    8.72
   5   2   5   77.71   13.19
   5   2   5   92.96   14.55
   5   3 -11    6.57    9.90
   5   3 -10   27.69   10.68
   5   3 -10   26.84   10.98
   5   3  -9   67.57   13.24
   5   3  -9   54.46   11.90
   5   3  -8  246.31   21.10
   5   3  -8  216.55   20.75
   5   3  -7  880.51   44.74
   5   3  -7  968.42   51.58
   5   3  -7  999.57   52.83
   5   3  -6  266.61   20.39
   5   3  -6  258.47   14.99
   5   3  -5  237.49   18.54
   5   3  -5  233.64   13.44
   5   3  -5  257.03   19.88
   5   3  -4  294.24   20.03
   5   3  -4  280.48   15.46
   5   3  -4  284.07   20.72
   5   3  -3  493.19   26.40
   5   3  -3  489.00   28.42
   5   3  -3  466.36   29.12
   5   3  -2   61.83    9.05
   5   3  -2   55.89    6.61
   5   3  -1  272.56   16.69
   5   3  -1  235.90   17.68
   5   3   0   79.17    7.26
   5   3   0   78.45    9.48
   5   3   0   86.98    9.82
   5   3   1   -5.01    5.42
   5   3   1    3.12    6.18
   5   3   2  311.80   21.11
   5   3   2  278.84   17.34
   5   3   3   16.13    8.36
   5   3   3    2.77    7.11
   5   3   4  113.95   14.75
   5   3   4  119.51   16.02
   5   3   5   23.53   10.20
   5   3   5    6.99    9.99
   5   4 -10   58.10   12.99
   5   4 -10   41.33   12.03
   5   4  -9   18.47    9.89
   5   4  -9   25.05    9.93
   5   4  -8  173.50   18.10
   5   4  -8  180.13   17.92
   5   4  -7   35.55    9.42
   5   4  -6  551.60   33.97
   5   4  -5  183.36   16.17
   5   4  -5  169.93   16.03
   5   4  -4 1022.55   52.76
   5   4  -4 1024.88   48.91
   5   4  -4  915.59   52.16
   5   4  -3    9.44    6.88
   5   4  -3   12.06    7.40
   5   4  -3    7.23    4.97
   5   4  -3    3.04    2.48
   5   4  -2  574.83   29.34
   5   4  -2  637.93   32.72
   5   4  -2  604.66   34.10
   5   4  -1  111.11    9.24
   5   4  -1  106.23   11.28
   5   4  -1  112.89   11.33
   5   4   0   54.10    8.25
   5   4   0   42.50    7.40
   5   4   1   71.73    8.81
   5   4   1   77.03   11.82
   5   4   1   86.53   10.40
   5   4   2   -1.28    4.47
   5   4   2    3.74    6.74
   5   4   2    1.75    7.78
   5   4   2    4.47    8.63
   5   4   2   -2.23    5.13
   5   4   3   24.38    8.73
   5   4   3   46.35   11.18
   5   4   4   13.84    8.93
   5   4   4    1.12    9.17
   5   5 -11   55.66   11.64
   5   5 -10  144.82   17.68
   5   5 -10  131.43   17.19
   5   5  -9   36.97   10.82
   5   5  -9   36.42   10.98
   5   5  -8    1.85    7.52
   5   5  -8   -0.97    7.35
   5   5  -7   66.08   11.67
   5   5  -6    3.28    6.91
   5   5  -6   -0.81    6.87
   5   5  -5  582.89   34.08
   5   5  -5  506.86   32.69
   5   5  -4   -0.75    6.74
   5   5  -4    6.82    6.95
   5   5  -4   -0.91    3.18
   5   5  -4   -0.48    5.74
   5   5  -3  635.46   32.93
   5   5  -3  531.44   33.22
   5   5  -2   69.18    9.69
   5   5  -2   53.61    5.67
   5   5  -2   63.91    9.87
   5   5  -1  348.97   22.51
   5   5  -1  316.49   18.37
   5   5  -1  294.72   20.45
   5   5   0   10.14    5.84
   5   5   0    0.44    5.59
   5   5   0   18.61    7.98
   5   5   1   -1.31    4.89
   5   5   1   -4.40    6.18
   5   5   1    1.75    7.68
   5   5   1    2.26    6.70
   5   5   2   12.75    8.65
   5   5   2   31.78   10.31
   5   5   3    4.78    8.13
   5   5   3   -6.03   10.57
   5   5   3   -7.86    9.06
   5   6 -11  304.50   23.54
   5   6 -10   16.05    9.62
   5   6 -10   22.62    8.89
   5   6 -10   17.85   10.54
   5   6  -9  265.76   19.21
   5   6  -9  265.63   23.66
   5   6  -9  231.27   22.49
   5   6  -8   -0.51    6.52
   5   6  -8    2.07    8.26
   5   6  -7   58.44   11.39
   5   6  -7   55.05   11.13
   5   6  -7   53.43    8.08
   5   6  -6    0.89    7.25
   5   6  -6   18.56    8.28
   5   6  -6    3.45    4.88
   5   6  -5   12.20    8.17
   5   6  -5   12.55    3.89
   5   6  -5   19.59    3.93
   5   6  -4  233.46   17.71
   5   6  -4  226.40   19.76
   5   6  -3    1.28    6.05
   5   6  -1   31.75    6.14
   5   6  -1   38.06    9.52
   5   6   0   58.81    8.45
   5   6   0   55.70    8.64
   5   6   0   63.26   11.77
   5   6   0   70.21   10.90
   5   6   1   43.64    8.73
   5   6   1   50.41   11.62
   5   6   2    4.67    9.24
   5   6   2   11.58    9.75
   5   7 -11   12.61    8.08
   5   7 -10  151.03   15.15
   5   7  -9    3.09    8.53
   5   7  -9   12.18    7.02
   5   7  -9   -5.78    9.49
   5   7  -8  531.37   29.11
   5   7  -8  498.79   35.25
   5   7  -7   20.13    9.13
   5   7  -7   22.41    5.98
   5   7  -6    8.00    8.70
   5   7  -6    7.13    3.61
   5   7  -5   13.50    8.33
   5   7  -5   11.18    7.46
   5   7  -4   32.72    8.48
   5   7  -3   97.44   12.76
   5   7  -2   17.07    8.43
   5   7  -1   48.73   11.29
   5   7  -1   48.91   11.34
   5   7   0   82.53   14.34
   5   8  -8  124.13   16.76
   5   8  -7   75.16   13.57
   5   8  -6   16.34    9.57
   5   8  -5    1.07    8.37
   5   8  -5   13.70    8.03
   5   8  -4    0.83    7.03
   5   8  -3   25.17    9.74
   5   8  -2    1.97    8.49
   5   8  -2   -2.19   10.46
   5   8  -1   -5.39    9.08
   5   9  -6   13.84    8.35
   5   9  -5   73.03   12.72
   5   9  -4   -0.96    7.84
   5   9  -3   30.21   10.60
   5   9  -3   36.53   12.62
   6  -9   4   46.01   12.51
   6  -9   5  107.23   17.41
   6  -8   1  424.81   31.86
   6  -8   2   -7.72   13.36
   6  -8   3  192.56   20.74
   6  -8   3  243.23   23.83
   6  -8   4    7.60    8.84
   6  -8   5   49.74   12.51
   6  -8   6   67.42   14.41
   6  -7  -2  168.23   19.28
   6  -7  -1   58.42   12.71
   6  -7   0  548.01   36.49
   6  -7   1  113.05   17.45
   6  -7   2  425.99   30.32
   6  -7   2  492.72   32.84
   6  -7   3   46.24   11.67
   6  -7   3   83.55   15.06
   6  -7   4  180.06   19.88
   6  -7   4  250.31   22.37
   6  -7   5   26.48   10.61
   6  -7   6   43.23   12.79
   6  -7   7    1.29   10.10
   6  -6  -3   -1.94   12.72
   6  -6  -3   17.56    9.55
   6  -6  -2  210.60   20.92
   6  -6  -1   12.74   12.55
   6  -6  -1    3.07    8.41
   6  -6   0  168.40   19.48
   6  -6   1  283.86   23.91
   6  -6   2  419.87   27.79
   6  -6   2  430.37   30.21
   6  -6   3  111.17   14.21
   6  -6   3  146.82   17.29
   6  -6   4  280.95   23.71
   6  -6   4  319.13   24.22
   6  -6   5   38.12   11.20
   6  -6   5   20.81   11.63
   6  -6   6  103.47   16.54
   6  -6   6  110.23   16.27
   6  -6   7    1.24   10.44
   6  -5  -5  557.12   38.76
   6  -5  -5  581.29   37.20
   6  -5  -4  117.78   18.35
   6  -5  -4  126.69   15.48
   6  -5  -4  131.46   16.62
   6  -5  -3  318.94   25.80
   6  -5  -3  346.51   26.04
   6  -5  -3  305.97   26.57
   6  -5  -2   87.31   13.51
   6  -5  -1   -9.72   12.74
   6  -5  -1    7.53    7.80
   6  -5   0   56.59   14.26
   6  -5   1  204.46   16.03
   6  -5   1  213.79   20.46
   6  -5   2    1.44   10.19
   6  -5   2    1.22    6.17
   6  -5   3  211.10   17.89
   6  -5   3  220.95   19.68
   6  -5   4   23.54    9.17
   6  -5   4   37.62   11.00
   6  -5   5  458.14   31.60
   6  -5   5  437.16   31.10
   6  -5   6    1.91    9.28
   6  -5   6   -1.05    9.34
   6  -5   7  133.08   18.98
   6  -4  -6   12.71   10.57
   6  -4  -6    3.84    7.88
   6  -4  -5  233.99   20.20
   6  -4  -5  247.43   21.85
   6  -4  -5  215.50   21.39
   6  -4  -4  147.01   17.59
   6  -4  -4  155.14   16.63
   6  -4  -4  199.60   18.82
   6  -4  -2  160.65   17.23
   6  -4  -1  651.32   39.42
   6  -4   0   25.88   12.04
   6  -4   1  196.01   14.60
   6  -4   1  216.23   19.99
   6  -4   2   16.64   10.91
   6  -4   2   19.29    6.73
   6  -4   3    7.75    9.64
   6  -4   3    1.90    6.16
   6  -4   4  131.28   15.00
   6  -4   4  136.04   13.99
   6  -4   5   -3.58   10.48
   6  -4   5   23.53    9.94
   6  -4   6  112.22   15.97
   6  -4   6  126.19   16.96
   6  -4   7   33.64   12.74
   6  -3  -7    4.04   10.54
   6  -3  -7   -9.11    9.18
   6  -3  -6   52.90   12.92
   6  -3  -6   77.18   12.37
   6  -3  -5   12.38   10.14
   6  -3  -5   -2.40    7.38
   6  -3  -4  395.98   27.14
   6  -3  -4  412.89   29.30
   6  -3  -2 1780.73   91.15
   6  -3  -2 1896.37   92.18
   6  -3  -1  110.30   14.60
   6  -3  -1  110.38   13.49
   6  -3   0 1232.11   63.93
   6  -3   1   33.59   10.44
   6  -3   1    7.25    4.86
   6  -3   2  202.60   15.06
   6  -3   2  208.45   18.33
   6  -3   3   34.89    9.79
   6  -3   3   29.01    8.05
   6  -3   4   15.49    8.50
   6  -3   4   25.80    9.88
   6  -3   4   24.63    8.23
   6  -3   5    6.33   10.04
   6  -3   5   15.31    8.99
   6  -3   6    9.53    9.93
   6  -3   6    3.18   10.79
   6  -2  -8  271.92   24.30
   6  -2  -8  216.82   20.45
   6  -2  -7   36.57   12.48
   6  -2  -7   34.38    9.71
   6  -2  -6  213.64   18.86
   6  -2  -6  265.01   23.37
   6  -2  -5   11.60   10.41
   6  -2  -5   10.01    7.14
   6  -2  -4   19.03    8.47
   6  -2  -4   16.48    7.10
   6  -2  -3  194.69   18.08
   6  -2  -3  270.10   21.81
   6  -2  -2   -0.83    9.84
   6  -2  -2   21.25    8.44
   6  -2  -1  578.74   34.57
   6  -2  -1  579.59   35.72
   6  -2   0  108.72   13.49
   6  -2   1  588.21   31.83
   6  -2   1  759.77   37.65
   6  -2   2  371.06   22.94
   6  -2   2  423.49   25.93
   6  -2   3  245.38   18.96
   6  -2   3  279.52   18.64
   6  -2   4   47.23   10.59
   6  -2   4   47.40    8.01
   6  -2   5   42.15   10.92
   6  -2   6   20.06    9.91
   6  -1  -9  246.00   20.99
   6  -1  -8   67.36   14.41
   6  -1  -8   45.60   10.37
   6  -1  -7  972.47   53.38
   6  -1  -7  855.09   48.53
   6  -1  -6  157.25   17.51
   6  -1  -6  131.76   13.55
   6  -1  -5  381.53   24.59
   6  -1  -4   51.94   10.31
   6  -1  -3  287.94   21.76
   6  -1  -3  318.46   23.24
   6  -1  -2   72.32   11.87
   6  -1  -2   60.48   10.13
   6  -1  -1   42.25    9.25
   6  -1  -1   33.91   10.42
   6  -1   0  343.59   24.57
   6  -1   1  492.48   26.59
   6  -1   1  580.79   31.70
   6  -1   2   43.40    9.24
   6  -1   3  404.31   26.31
   6  -1   3  399.42   23.23
   6  -1   4   16.85    4.53
   6  -1   4   32.18    9.66
   6  -1   5   50.01   10.83
   6   0  -9   12.87   10.24
   6   0  -9    9.61    7.20
   6   0  -8  423.66   31.10
   6   0  -8  484.94   33.02
   6   0  -8  480.42   29.28
   6   0  -7  169.43   18.04
   6   0  -7  132.05   15.30
   6   0  -7  143.33   13.98
   6   0  -6  603.09   36.22
   6   0  -6  631.49   35.24
   6   0  -6  657.63   39.61
   6   0  -5  283.24   19.97
   6   0  -5  300.60   19.77
   6   0  -4  868.50   45.54
   6   0  -4  966.25   50.88
   6   0  -4  889.54   48.37
   6   0  -3  545.62   29.58
   6   0  -3  588.20   33.53
   6   0  -3  618.46   35.67
   6   0  -2  320.92   20.34
   6   0  -2  318.09   21.73
   6   0  -1    0.67    6.82
   6   0   0  171.41    9.76
   6   0   0  184.13    9.83
   6   0   1  453.31   27.88
   6   0   2  273.07   18.11
   6   0   2  303.60   16.87
   6   0   3   52.40    7.08
   6   0   3   32.68    8.99
   6   0   3   31.33    5.68
   6   0   4   86.42   11.88
   6   0   4   78.91    9.77
   6   1 -10   70.85   11.63
   6   1  -9    7.58    9.12
   6   1  -9   -1.03    8.01
   6   1  -9   -1.96    6.63
   6   1  -8   -1.03    8.96
   6   1  -8    4.13    6.82
   6   1  -8    7.35    7.60
   6   1  -7  362.17   25.61
   6   1  -7  372.57   27.76
   6   1  -7  356.60   22.73
   6   1  -6  304.63   21.91
   6   1  -6  302.22   19.64
   6   1  -5  105.66   10.31
   6   1  -5   99.43   11.20
   6   1  -4  488.45   28.61
   6   1  -4  517.48   32.51
   6   1  -4  501.00   30.15
   6   1  -3  179.36   12.93
   6   1  -3  170.50   14.81
   6   1  -3  194.80   17.33
   6   1  -2  402.71   23.91
   6   1  -2  350.76   20.47
   6   1  -2  415.89   25.98
   6   1  -1   80.58   11.24
   6   1  -1   63.10    6.17
   6   1   0    4.93    3.47
   6   1   0    5.81    6.83
   6   1   0    1.71    3.40
   6   1   1  267.40   16.44
   6   1   1  327.59   19.77
   6   1   2   10.62    6.64
   6   1   2   21.18    7.24
   6   1   2    9.69    5.35
   6   1   3  126.23   12.87
   6   1   3  123.25   12.12
   6   1   3  106.76    7.19
   6   1   4    3.83    6.01
   6   1   5   67.16   13.84
   6   2 -10  118.67   16.58
   6   2  -9   13.14   10.24
   6   2  -9   -3.09    8.81
   6   2  -8   -2.07    8.86
   6   2  -8   -4.72    8.33
   6   2  -8   -2.40    5.47
   6   2  -7  250.86   20.30
   6   2  -7  221.85   21.18
   6   2  -7  238.83   16.14
   6   2  -6   20.19    6.03
   6   2  -6    6.52    7.16
   6   2  -5  421.47   26.12
   6   2  -5  405.79   23.02
   6   2  -5  430.64   29.19
   6   2  -4  164.99   16.54
   6   2  -4  158.88   13.53
   6   2  -4  160.93   14.12
   6   2  -3  608.17   34.19
   6   2  -3  632.49   33.74
   6   2  -3  636.13   37.07
   6   2  -2   40.16    7.25
   6   2  -2   48.45    9.67
   6   2  -1  414.97   22.31
   6   2  -1  453.50   24.73
   6   2  -1  495.25   28.36
   6   2   0  246.82   16.00
   6   2   0  264.25   18.81
   6   2   1   22.94    6.77
   6   2   1   20.39    6.49
   6   2   1   16.80    6.09
   6   2   2   -8.53    6.16
   6   2   2   -5.67    6.22
   6   2   2   -4.52    6.14
   6   2   3   16.79    8.83
   6   2   3    4.78    6.86
   6   2   4   31.84   10.31
   6   3 -10   79.49   15.01
   6   3  -9  242.69   23.71
   6   3  -9  370.00   27.75
   6   3  -8   41.66   11.49
   6   3  -8   57.45   11.34
   6   3  -8   53.45    7.54
   6   3  -7   96.09    8.57
   6   3  -7  106.33   13.52
   6   3  -6   58.38   12.09
   6   3  -6   67.90    6.95
   6   3  -6   53.28    9.87
   6   3  -5   12.76    8.75
   6   3  -5   16.36    4.57
   6   3  -5   21.95    7.55
   6   3  -4  264.05   19.29
   6   3  -4  301.45   18.84
   6   3  -4  269.21   21.50
   6   3  -3    4.89    5.96
   6   3  -3    2.53    5.35
   6   3  -3   -5.15    7.68
   6   3  -2  449.27   23.22
   6   3  -2  449.70   26.63
   6   3  -2  454.18   28.43
   6   3  -1   39.56    8.71
   6   3  -1   26.32    6.10
   6   3   0   52.23    9.27
   6   3   0   59.51    7.44
   6   3   0   61.92    9.25
   6   3   1    7.93    6.05
   6   3   1    3.80    6.56
   6   3   2   46.88    9.82
   6   3   2   45.14   10.12
   6   3   3    5.69    7.71
   6   3   3    6.17    8.21
   6   3   4   -5.42    8.73
   6   4 -10  124.39   17.92
   6   4  -9   -1.10    8.64
   6   4  -9   -1.06    9.66
   6   4  -8  242.47   21.45
   6   4  -8  220.71   21.77
   6   4  -7   -0.87    7.92
   6   4  -6   16.92    8.74
   6   4  -6   16.14    2.54
   6   4  -6   22.43    8.06
   6   4  -5   -1.44    6.24
   6   4  -5    7.39    7.73
   6   4  -5    2.90    5.51
   6   4  -5    0.55    1.46
   6   4  -4   -2.00    6.01
   6   4  -4    1.65    2.26
   6   4  -4    3.82    7.19
   6   4  -4   -0.40    4.89
   6   4  -3   41.54    8.85
   6   4  -3   43.23    8.96
   6   4  -3   38.88    6.27
   6   4  -2   19.74    7.72
   6   4  -2   14.61    5.59
   6   4  -2    9.46    4.78
   6   4  -1  294.07   17.65
   6   4  -1  273.08   18.47
   6   4  -1  256.20   19.60
   6   4   0   12.21    6.61
   6   4   0   15.27    6.89
   6   4   0   15.45    6.57
   6   4   1  172.23   14.70
   6   4   1  131.91   15.37
   6   4   1  136.97   12.55
   6   4   2   92.58   14.06
   6   4   2   91.54   12.42
   6   4   2   85.84   12.88
   6   4   3   -0.81    7.76
   6   4   3    4.34    9.13
   6   5 -10    4.69    9.19
   6   5  -9  117.02   16.29
   6   5  -9  103.27   15.25
   6   5  -8   27.69    9.93
   6   5  -7  242.14   21.13
   6   5  -7  252.55   21.73
   6   5  -6  258.55   21.34
   6   5  -6  273.43   21.88
   6   5  -5   98.14   13.23
   6   5  -5   86.13   12.59
   6   5  -5  124.12   10.16
   6   5  -4   46.97    9.77
   6   5  -4   32.59    8.88
   6   5  -3   12.59    7.00
   6   5  -3   20.47    7.42
   6   5  -3   11.73    2.45
   6   5  -3   20.62    6.10
   6   5  -2   -0.65    6.40
   6   5  -2   -0.51    3.83
   6   5  -2   -4.34    5.44
   6   5  -1   16.45    6.75
   6   5  -1   19.54    5.83
   6   5  -1   27.18    7.94
   6   5   0   14.66    6.67
   6   5   0   11.97    6.13
   6   5   0    4.45    7.45
   6   5   1   25.01    7.80
   6   5   1   30.68   10.24
   6   6  -9   13.71    7.72
   6   6  -9   14.43    9.05
   6   6  -8   78.17   10.05
   6   6  -8   70.48   12.85
   6   6  -7   38.48   10.70
   6   6  -7   46.30   10.96
   6   6  -7   36.84    7.46
   6   6  -6  117.97   15.00
   6   6  -6  128.81   10.30
   6   6  -6  125.32   15.45
   6   6  -6  137.54   11.23
   6   6  -5  196.67   10.95
   6   6  -5  206.39   19.30
   6   6  -5  186.29   17.92
   6   6  -4    1.73    7.50
   6   6  -4    3.92    6.97
   6   6  -4   -0.55    5.66
   6   6  -3   11.75    6.69
   6   6  -3    8.39    6.40
   6   6  -2    4.77    6.41
   6   6  -2    2.03    6.29
   6   6  -1    9.97    6.55
   6   6  -1   15.47    8.25
   6   6   0   -0.89    7.57
   6   7  -8   -3.26    7.93
   6   7  -7  178.50   18.68
   6   7  -7  147.75   17.34
   6   7  -6   91.03   14.09
   6   7  -6   93.92   13.68
   6   7  -5   12.80    8.43
   6   7  -5    3.39    6.84
   6   7  -5    3.27    6.63
   6   7  -4   46.30   10.58
   6   7  -4   38.22    9.12
   6   7  -4   38.33    8.71
   6   7  -3    2.26    6.60
   6   7  -3    3.68    6.65
   6   7  -2   74.91   11.02
   6   7  -2   83.62   12.55
   6   8  -7   22.15    9.90
   6   8  -6   -7.79    8.56
   6   8  -5   54.34   12.13
   6   8  -5   34.99    9.92
   6   8  -4   -1.66    6.30
   6   8  -3   76.58   11.26
   7  -7   1   94.03   17.48
   7  -7   2  182.13   21.21
   7  -7   3    0.85    7.96
   7  -7   3    2.76   12.18
   7  -7   4  108.48   17.70
   7  -6  -1   36.47   14.36
   7  -6   0  444.69   32.64
   7  -6   1   28.36   13.36
   7  -6   2  227.85   22.34
   7  -6   2  206.37   17.96
   7  -6   3   22.95    8.17
   7  -6   3   10.88   12.33
   7  -6   4   37.81   10.07
   7  -6   4   27.19   12.53
   7  -5  -3  170.72   19.26
   7  -5  -3  222.54   21.08
   7  -5  -2   12.53   12.85
   7  -5  -1  266.85   25.06
   7  -5   0    5.60   12.51
   7  -5   1  283.82   24.60
   7  -5   2  110.29   16.01
   7  -5   2   75.42   10.48
   7  -5   3  173.33   16.86
   7  -5   3  262.18   20.66
   7  -5   4   11.05    7.96
   7  -5   4    4.74   10.52
   7  -5   5   22.43    9.41
   7  -4  -5  310.20   24.90
   7  -4  -4    7.59    8.26
   7  -4  -3  113.58   15.68
   7  -4  -2  110.41   15.31
   7  -4  -2   72.81   12.90
   7  -4  -1   47.28   12.51
   7  -4  -1   13.18    8.81
   7  -4   0  957.72   54.86
   7  -4   1   26.55   12.94
   7  -4   1   43.25    6.99
   7  -4   2  255.88   17.90
   7  -4   2  313.43   23.63
   7  -4   3  129.69   14.96
   7  -4   3   80.32   11.30
   7  -4   4   24.03    8.64
   7  -4   4   18.68   10.71
   7  -4   4   39.06   10.56
   7  -4   5   11.60    9.87
   7  -4   5   12.09    8.41
   7  -3  -6  186.40   18.49
   7  -3  -5   79.15   13.49
   7  -3  -5   66.87   11.96
   7  -3  -4  202.51   19.83
   7  -3  -4  226.07   19.84
   7  -3  -3   51.60   13.03
   7  -3  -3   42.16   10.64
   7  -3  -2  157.80   18.25
   7  -3  -2  167.50   16.93
   7  -3  -1   16.47    8.91
   7  -3  -1   13.04   10.24
   7  -3   0  144.10   16.32
   7  -3   1  108.30   15.26
   7  -3   1   75.80    7.27
   7  -3   2   30.98   11.79
   7  -3   2   24.26    6.33
   7  -3   3  126.95   13.97
   7  -3   3   94.97   11.86
   7  -3   4   71.80   11.67
   7  -3   4  108.39   15.12
   7  -3   4   98.23   11.84
   7  -3   5   11.66    9.66
   7  -3   5   11.99    8.85
   7  -2  -7  214.44   19.75
   7  -2  -6  108.66   17.20
   7  -2  -6   81.00   13.87
   7  -2  -6  100.76   13.17
   7  -2  -5  271.84   21.04
   7  -2  -5  262.81   22.41
   7  -2  -4  234.54   21.00
   7  -2  -4  292.29   24.48
   7  -2  -3  202.56   18.60
   7  -2  -3  227.37   21.69
   7  -2  -2  178.33   18.87
   7  -2  -2  168.47   16.65
   7  -2  -1    4.28    9.98
   7  -2   0  153.45   16.66
   7  -2   1   -4.13    8.66
   7  -2   1   -0.84    2.93
   7  -2   2    7.00   10.70
   7  -2   2   18.33    6.11
   7  -2   3  277.91   21.29
   7  -2   3  250.49   18.03
   7  -2   4    9.51    7.88
   7  -2   4    8.16    8.65
   7  -2   5  120.86   16.19
   7  -1  -8   22.57    8.82
   7  -1  -7   48.46   14.21
   7  -1  -7   55.45   10.11
   7  -1  -6  129.04   17.32
   7  -1  -6  114.65   13.16
   7  -1  -5  108.41   12.61
   7  -1  -5   83.24   12.86
   7  -1  -4  103.29   15.54
   7  -1  -4  115.36   13.85
   7  -1  -3  237.68   19.64
   7  -1  -3  261.94   22.53
   7  -1  -2  251.76   19.56
   7  -1  -2  234.61   21.49
   7  -1  -1  374.11   27.13
   7  -1   0    0.76    9.53
   7  -1   1  124.41   13.33
   7  -1   1   67.67    6.23
   7  -1   2   10.53    8.13
   7  -1   2   -1.68    5.16
   7  -1   3   10.60    7.75
   7  -1   3   14.01    8.68
   7  -1   4   -6.19    9.67
   7  -1   5    5.73    8.81
   7   0  -9   86.34   12.27
   7   0  -8    9.91    7.43
   7   0  -7  156.43   18.26
   7   0  -7  145.43   14.36
   7   0  -7  118.07   14.55
   7   0  -6    1.86    6.06
   7   0  -6   -4.63    6.79
   7   0  -5    3.92    8.53
   7   0  -5    4.99    6.64
   7   0  -5    0.54    5.23
   7   0  -5   -0.80    6.70
   7   0  -4   69.42   12.76
   7   0  -4   80.08   11.38
   7   0  -4   69.47    8.06
   7   0  -3   29.55    9.88
   7   0  -3   22.61    8.20
   7   0  -2  579.73   33.79
   7   0  -2  548.56   34.84
   7   0  -1    5.26    7.70
   7   0   0  382.76   26.42
   7   0   1   37.68    9.90
   7   0   1   30.23    5.42
   7   0   2   15.62    7.48
   7   0   2   11.75    9.05
   7   0   3    1.36    7.99
   7   0   4   -0.72    8.10
   7   1  -9   16.16    9.02
   7   1  -9   18.81    7.20
   7   1  -8  351.66   27.13
   7   1  -8  435.23   31.38
   7   1  -8  382.58   24.73
   7   1  -7   72.16   13.80
   7   1  -7   77.94   10.02
   7   1  -7   74.45   11.81
   7   1  -6  280.65   20.57
   7   1  -6  289.08   19.31
   7   1  -5    7.72    9.09
   7   1  -5    6.42    6.43
   7   1  -5    8.77    7.07
   7   1  -5    5.05    5.76
   7   1  -4  153.97   16.58
   7   1  -4  133.98   13.88
   7   1  -4  136.09   11.93
   7   1  -3    5.91    8.32
   7   1  -3    7.08    6.60
   7   1  -3    2.76    4.47
   7   1  -2    6.28    7.68
   7   1  -2    3.65    3.08
   7   1  -1  173.71    9.62
   7   1  -1  333.94   20.30
   7   1   0   13.35    2.89
   7   1   0   12.69    2.71
   7   1   1  195.54   15.27
   7   1   1  105.85    7.09
   7   1   1  164.02   11.53
   7   1   1   97.91    7.10
   7   1   1  232.41   16.11
   7   1   2  121.95   11.52
   7   1   2   83.31   11.73
   7   1   3   74.83   11.48
   7   2  -9   94.79   14.28
   7   2  -8    2.27    8.98
   7   2  -8   18.94    6.49
   7   2  -8    0.90    9.22
   7   2  -7  284.30   23.32
   7   2  -7  342.89   20.35
   7   2  -6   36.37   10.92
   7   2  -6   37.66    7.06
   7   2  -6   26.14    8.77
   7   2  -5  421.01   26.48
   7   2  -5  419.02   24.59
   7   2  -5  455.32   27.59
   7   2  -5  461.07   30.66
   7   2  -4   28.34   10.13
   7   2  -4   41.11    8.35
   7   2  -4   22.63    6.62
   7   2  -3    3.45    6.22
   7   2  -3   -3.31    8.18
   7   2  -3   -1.29    4.68
   7   2  -2   19.91    8.46
   7   2  -2   23.17    5.56
   7   2  -1   55.88    7.07
   7   2  -1   78.79   11.56
   7   2   0   37.42    6.16
   7   2   0   42.77    9.18
   7   2   0   51.42    8.69
   7   2   0   34.04    5.98
   7   2   0   38.22    6.16
   7   2   1   59.34    9.58
   7   2   1   57.93    9.16
   7   2   1   54.00    8.41
   7   2   1   57.25    7.85
   7   2   3  142.16   17.06
   7   3  -9    8.39    8.54
   7   3  -8  251.83   22.48
   7   3  -7    6.44    8.73
   7   3  -7    9.73    4.82
   7   3  -7   -0.83    8.94
   7   3  -6  210.34   18.64
   7   3  -6  231.75   14.24
   7   3  -6  223.74   20.97
   7   3  -6  222.44   17.97
   7   3  -5  201.32   17.38
   7   3  -5  257.93   17.96
   7   3  -5  223.47   14.17
   7   3  -5  229.97   20.45
   7   3  -4   27.07   10.06
   7   3  -4   27.79    7.64
   7   3  -4   21.98    6.98
   7   3  -3   40.56    7.32
   7   3  -3   45.73   10.33
   7   3  -2   23.80    6.52
   7   3  -2   18.99    8.47
   7   3  -1   39.37    7.54
   7   3  -1   41.93    9.52
   7   3  -1   43.75    6.24
   7   3  -1   62.94    8.23
   7   3   0    0.61    6.57
   7   3   0    1.46    5.27
   7   3   0    0.45    5.41
   7   3   1   48.02   10.23
   7   3   2   13.96    8.20
   7   3   3   40.47   10.49
   7   4  -9   28.99   10.18
   7   4  -8   49.04   11.27
   7   4  -7   39.89   10.93
   7   4  -7   31.43    9.23
   7   4  -6   31.14    7.56
   7   4  -6   47.27   11.15
   7   4  -6   19.49    7.87
   7   4  -5  217.24   14.98
   7   4  -5  190.09   16.40
   7   4  -5  201.05   18.41
   7   4  -4  263.58   20.04
   7   4  -4  287.70   22.36
   7   4  -3   54.48    9.28
   7   4  -3   57.75   11.16
   7   4  -2   45.19    8.66
   7   4  -2   55.38   10.05
   7   4  -2   46.71    6.51
   7   4  -2   49.45    6.48
   7   4  -2   44.67    7.23
   7   4  -1    4.79    6.94
   7   4  -1    2.30    5.69
   7   4   0   10.74    6.87
   7   5  -9   -6.52    9.60
   7   5  -8   58.78   11.60
   7   5  -7   -1.21    5.94
   7   5  -7    3.17    8.66
   7   5  -7    2.72    7.52
   7   5  -6   44.62    8.31
   7   5  -6   41.17   10.87
   7   5  -6   39.30    9.91
   7   5  -5  148.66   15.50
   7   5  -5  133.12   15.92
   7   5  -4   14.26    8.10
   7   5  -4   14.51    8.27
   7   5  -3  127.73   14.03
   7   5  -3  126.62   14.82
   7   5  -2   22.56    7.87
   7   5  -2   15.70    7.84
   7   6  -8    1.03    7.51
   7   6  -7   21.55    8.96
   7   6  -6   16.37    8.50
   7   6  -6   28.76    9.43
   7   6  -5   13.87    7.79
   7   6  -5   12.55    8.05
   7   6  -4   -4.34    6.73
   7   6  -4    3.38    6.62
   7   6  -3   -5.93    7.13
   7   6  -3    5.53    7.18
   7   7  -7    3.09    7.83
   7   7  -6   16.68    8.82
   7   7  -5    3.92    7.76
   7   7  -4   -2.90    7.64
   7   7  -4    5.09    6.46
   8  -6   2  143.63   19.80
   8  -6   3   61.14   15.31
   8  -5  -1   59.73   16.44
   8  -5   0   76.77   16.66
   8  -5   1   -2.87   12.78
   8  -5   2    6.13   11.81
   8  -5   3   72.30   14.69
   8  -4  -2   44.32   13.29
   8  -4  -2   36.65   10.51
   8  -4  -1  293.32   25.89
   8  -4   0   86.79   17.33
   8  -4   1   56.30   15.01
   8  -4   2    5.65   11.86
   8  -4   3   17.92   11.40
   8  -3  -5    3.68    8.31
   8  -3  -4  177.34   18.72
   8  -3  -4  152.61   17.74
   8  -3  -3   11.80   11.43
   8  -3  -3    2.99    8.02
   8  -3  -2  202.38   21.00
   8  -3  -2  185.29   19.03
   8  -3  -1   61.80   13.90
   8  -3   0  755.28   44.99
   8  -3   1  -12.19   13.33
   8  -3   2  119.48   16.37
   8  -2  -6  106.30   13.88
   8  -2  -5    3.40    7.79
   8  -2  -5    1.97    7.73
   8  -2  -4    5.68   10.92
   8  -2  -4    6.63    7.97
   8  -2  -3   52.75   13.98
   8  -2  -3   39.60   10.44
   8  -2  -2   15.23    8.61
   8  -2  -2    3.02   10.33
   8  -2  -1   84.76   14.86
   8  -2   0   17.83   10.51
   8  -2   1  200.65   18.97
   8  -2   2   -1.36   11.15
   8  -2   3   42.83   12.60
   8  -2   4   21.66   10.56
   8  -1  -7  240.77   20.56
   8  -1  -6    0.97    7.36
   8  -1  -6   -0.76    6.98
   8  -1  -5  118.97   18.08
   8  -1  -5  110.37   14.05
   8  -1  -5  133.57   15.41
   8  -1  -4   13.30   11.28
   8  -1  -4   28.93    9.10
   8  -1  -3   28.37   12.68
   8  -1  -3   45.24   10.55
   8  -1  -2   -1.00   10.98
   8  -1  -1   -7.36   10.50
   8  -1   0   68.28   13.21
   8  -1   1   14.11    8.96
   8  -1   2  127.93   15.92
   8  -1   3   29.54   10.67
   8  -1   4    2.59    8.75
   8   0  -7    2.84    7.04
   8   0  -6  393.06   24.79
   8   0  -6  313.87   25.45
   8   0  -6  364.23   29.14
   8   0  -5   38.55   10.92
   8   0  -5   25.57    8.65
   8   0  -5   24.57    8.58
   8   0  -4  198.58   18.49
   8   0  -4  215.94   20.81
   8   0  -3   92.75   14.11
   8   0  -3   59.88   11.16
   8   0  -2   77.83   14.17
   8   0  -1   -9.71   10.43
   8   0   0  -11.37   10.15
   8   0   1    9.31    8.53
   8   0   2    8.89    8.72
   8   1  -7   -0.90    7.15
   8   1  -7    7.87    6.62
   8   1  -6    2.23    9.47
   8   1  -6    6.70    6.42
   8   1  -6    4.15    6.87
   8   1  -5  193.74   15.03
   8   1  -5  216.90   18.60
   8   1  -5  224.92   16.87
   8   1  -5  204.20   20.56
   8   1  -4   71.42   12.96
   8   1  -4   68.52   11.17
   8   1  -4   66.03    7.67
   8   1  -3   65.09   12.21
   8   1  -2  105.40   13.97
   8   1  -1    2.38    7.96
   8   1   0  -12.86    9.67
   8   1   1   -6.54    8.05
   8   2  -7   29.12    9.09
   8   2  -6    5.48    8.91
   8   2  -6    6.50    5.41
   8   2  -6    7.72    7.37
   8   2  -6    1.32    6.11
   8   2  -5    1.96    5.87
   8   2  -5    3.09    9.63
   8   2  -5    4.97    6.04
   8   2  -5    6.51    7.21
   8   2  -4   30.02   10.30
   8   2  -4   52.24    9.67
   8   2  -4   24.81    6.32
   8   2  -3  109.16   14.61
   8   2  -2    4.20    7.30
   8   2  -1  128.89   14.52
   8   3  -7   41.74    9.35
   8   3  -7   42.88    9.54
   8   3  -6    4.94    6.65
   8   3  -6    1.08    9.21
   8   3  -6    7.75    6.55
   8   3  -5   -3.03    9.04
   8   3  -5    0.66    6.41
   8   3  -5    5.53    6.23
   8   3  -4   -9.46    8.61
   8   3  -3    9.70    8.63
   8   3  -2   32.70    9.68
   8   3  -1    3.70    7.10
   8   4  -5   30.14   10.33
   8   4  -4    1.88    8.05
   8   4  -3   72.47   12.38
   8   4  -2    2.40    7.33
   8   5  -5   84.28   13.43
   8   5  -4   26.60    9.32
   8   5  -3   37.93    9.74
   9  -4   1    9.62   13.11
   9  -3  -1   22.72   11.92
   9  -3   0   10.27   12.18
   9  -3   1  -12.75   13.37
   9  -2  -2  149.04   19.49
   9  -2  -1   40.86   12.85
   9  -2   0  101.76   15.53
   9  -1  -6   -1.63    6.96
   9  -1  -5   -1.69    7.68
   9  -1  -3   27.73   13.05
   9  -1  -2   45.70   13.32
   9  -1  -1  147.62   18.12
   9  -1   0   23.34   10.96
   9   0  -5   30.76    9.32
   9   0  -5   18.30    8.79
   9   0  -4   21.31    8.68
   9   0  -3   49.40   14.03
   9   0  -2   59.80   13.79
   9   0  -1   -8.59   11.36
   9   1  -5   14.50    8.57
   9   1  -4   24.64    8.49
   9   1  -3   14.95    9.53
   9   1  -2  -11.47   11.57
   9   1  -1   -0.90   10.45
   9   2  -6    7.44    7.52
   9   2  -3   17.44    9.21
   9   2  -2    8.93    8.30
   9   3  -3   46.96   11.32
   0   0   0    0.00    0.00



TITL 20190429xuxy1 in P1
REM P1 (#1 in standard setting)
CELL 0.71073   6.954659   8.468439   8.956338 117.8881 101.7395  93.0261
ZERR    2.00   0.000934   0.001190   0.001472   0.0154   0.0126   0.0112
LATT -1
SFAC C H N O
UNIT 22.00 20.00 2.00 2.00
TREF
HKLF 4
END
_computing_structure_solution     'SHELXT 2014/5 (Sheldrick, 2014)'
_computing_structure_solution     'SHELXT 2014/5 (Sheldrick, 2014)'
;
loop_
_space_group_symop_operation_xyz
'x, y, z'
'-x, -y, -z'
loop_
_atom_site_label
_atom_site_type_symbol
_atom_site_fract_x
_atom_site_fract_y
_atom_site_fract_z
_atom_site_U_iso_or_equiv
_atom_site_adp_type
_atom_site_occupancy
_atom_site_site_symmetry_order
_atom_site_calc_flag
_atom_site_refinement_flags_posn
_atom_site_refinement_flags_adp
_atom_site_refinement_flags_occupancy
_atom_site_disorder_assembly
_atom_site_disorder_group
C1 C 0.2790(5) 0.1422(5) 0.4605(4) 0.0269(7) Uani 1 1 d . . . . .
H1 H 0.149678 0.077698 0.380436 0.032 Uiso 1 1 calc R U . . .
H2 H 0.332499 0.066785 0.507980 0.032 Uiso 1 1 calc R U . . .
C2 C 0.2504(5) 0.3184(4) 0.6103(4) 0.0239(6) Uani 1 1 d . . . . .
H3 H 0.375306 0.376693 0.702347 0.029 Uiso 1 1 calc R U . . .
C3 C 0.0892(5) 0.2688(4) 0.6814(4) 0.0259(7) Uani 1 1 d . . . . .
H4 H -0.031559 0.208768 0.587169 0.031 Uiso 1 1 calc R U . . .
H5 H 0.131646 0.182514 0.718458 0.031 Uiso 1 1 calc R U . . .
C4 C 0.2008(5) 0.4916(5) 0.9915(4) 0.0272(7) Uani 1 1 d . . . . .
H6 H 0.322808 0.536993 0.977145 0.033 Uiso 1 1 calc R U . . .
H7 H 0.225409 0.393490 1.016294 0.033 Uiso 1 1 calc R U . . .
C5 C 0.1419(5) 0.6418(5) 1.1424(4) 0.0273(7) Uani 1 1 d . . . . .
H8 H 0.249497 0.687387 1.247776 0.033 Uiso 1 1 calc R U . . .
H9 H 0.120434 0.740797 1.118380 0.033 Uiso 1 1 calc R U . . .
Ag1 Ag -0.00140(5) 0.65550(4) 0.76175(4) 0.04218(12) Uani 1 1 d . . . . .
N1 N 0.0416(4) 0.4230(4) 0.8290(3) 0.0231(5) Uani 1 1 d . . . . .
O1 O 0.4987(5) -0.0031(4) 0.2480(4) 0.0476(8) Uani 1 1 d . . . . .
O2 O 0.3240(4) 0.2243(4) 0.2225(4) 0.0409(7) Uani 1 1 d . . . . .
O1W O 0.1604(4) 0.9530(4) 0.8671(4) 0.0396(6) Uani 1 1 d . . . . .
H1A H 0.270933 0.952296 0.834559 0.059 Uiso 1 1 d R U . . .
H1B H 0.201681 1.009151 0.981200 0.059 Uiso 1 1 d R U . . .
O3 O 0.6039(4) 0.3107(4) 0.4697(4) 0.0443(7) Uani 1 1 d . . . . .
O4 O 0.1815(4) 0.4387(3) 0.5520(3) 0.0317(5) Uani 1 1 d . . . . .
S1 S 0.43913(13) 0.17156(11) 0.34130(11) 0.02623(18) Uani 1 1 d . . . . .
H10 H 0.297(12) 0.513(12) 0.579(11) 0.12(3) Uiso 1 1 d . . . . .
loop_
_atom_site_aniso_label
_atom_site_aniso_U_11
_atom_site_aniso_U_22
_atom_site_aniso_U_33
_atom_site_aniso_U_23
_atom_site_aniso_U_13
_atom_site_aniso_U_12
C1 0.0294(17) 0.0252(16) 0.0283(16) 0.0126(13) 0.0129(14) 0.0053(13)
C2 0.0233(16) 0.0240(15) 0.0225(15) 0.0093(12) 0.0075(12) 0.0039(12)
C3 0.0303(17) 0.0233(15) 0.0248(15) 0.0098(13) 0.0132(13) 0.0052(13)
C4 0.0199(15) 0.0380(18) 0.0228(15) 0.0134(14) 0.0070(12) 0.0058(13)
C5 0.0208(15) 0.0327(17) 0.0226(15) 0.0085(13) 0.0073(12) 0.0010(13)
Ag1 0.0609(2) 0.03820(18) 0.03844(18) 0.02201(14) 0.02253(15) 0.02546(15)
N1 0.0217(13) 0.0265(13) 0.0220(13) 0.0111(11) 0.0091(11) 0.0050(10)
O1 0.062(2) 0.0366(15) 0.0580(18) 0.0219(14) 0.0426(16) 0.0223(14)
O2 0.0422(16) 0.0574(18) 0.0358(14) 0.0279(14) 0.0198(13) 0.0214(14)
O1W 0.0379(15) 0.0402(15) 0.0351(14) 0.0127(12) 0.0129(12) 0.0050(12)
O3 0.0355(15) 0.0527(18) 0.0408(16) 0.0235(14) 0.0052(12) -0.0112(13)
O4 0.0399(15) 0.0277(12) 0.0371(14) 0.0196(11) 0.0189(12) 0.0106(11)
S1 0.0261(4) 0.0278(4) 0.0276(4) 0.0131(3) 0.0130(3) 0.0079(3)
loop_
_atom_type_symbol
_atom_type_description
_atom_type_scat_dispersion_real
_atom_type_scat_dispersion_imag
_atom_type_scat_source
C C 0.0033 0.0016 'International Tables Vol C Tables 4.2.6.8 and 6.1.1.4'
H H 0.0000 0.0000 'International Tables Vol C Tables 4.2.6.8 and 6.1.1.4'
Ag Ag -0.8971 1.1015 'International Tables Vol C Tables 4.2.6.8 and 6.1.1.4'
N N 0.0061 0.0033 'International Tables Vol C Tables 4.2.6.8 and 6.1.1.4'
O O 0.0106 0.0060 'International Tables Vol C Tables 4.2.6.8 and 6.1.1.4'
S S 0.1246 0.1234 'International Tables Vol C Tables 4.2.6.8 and 6.1.1.4'
loop_
_geom_angle_atom_site_label_1
_geom_angle_atom_site_label_2
_geom_angle_atom_site_label_3
_geom_angle
_geom_angle_site_symmetry_1
_geom_angle_site_symmetry_3
C2 C1 S1 114.5(2) . .
C2 C1 H1 108.6 . .
S1 C1 H1 108.6 . .
C2 C1 H2 108.6 . .
S1 C1 H2 108.6 . .
H1 C1 H2 107.6 . .
O4 C2 C3 107.2(3) . .
O4 C2 C1 111.8(3) . .
C3 C2 C1 107.1(3) . .
O4 C2 H3 110.2 . .
C3 C2 H3 110.2 . .
C1 C2 H3 110.2 . .
N1 C3 C2 115.0(3) . .
N1 C3 H4 108.5 . .
C2 C3 H4 108.5 . .
N1 C3 H5 108.5 . .
C2 C3 H5 108.5 . .
H4 C3 H5 107.5 . .
N1 C4 C5 110.4(3) . .
N1 C4 H6 109.6 . .
C5 C4 H6 109.6 . .
N1 C4 H7 109.6 . .
C5 C4 H7 109.6 . .
H6 C4 H7 108.1 . .
N1 C5 C4 111.3(3) 2_567 .
N1 C5 H8 109.4 2_567 .
C4 C5 H8 109.4 . .
N1 C5 H9 109.4 2_567 .
C4 C5 H9 109.4 . .
H8 C5 H9 108.0 . .
N1 Ag1 O1W 137.01(10) . .
N1 Ag1 O2 117.76(9) . 2_566
O1W Ag1 O2 88.13(10) . 2_566
N1 Ag1 O4 116.60(9) . 2_566
O1W Ag1 O4 102.64(9) . 2_566
O2 Ag1 O4 74.43(9) 2_566 2_566
N1 Ag1 O4 72.68(8) . .
O1W Ag1 O4 107.59(9) . .
O2 Ag1 O4 143.41(10) 2_566 .
O4 Ag1 O4 70.01(10) 2_566 .
C4 N1 C3 111.7(3) . .
C4 N1 C5 107.8(3) . 2_567
C3 N1 C5 107.8(3) . 2_567
C4 N1 Ag1 109.1(2) . .
C3 N1 Ag1 109.02(19) . .
C5 N1 Ag1 111.4(2) 2_567 .
S1 O2 Ag1 127.25(15) . 2_566
Ag1 O1W H1A 111.0 . .
Ag1 O1W H1B 110.3 . .
H1A O1W H1B 103.2 . .
C2 O4 Ag1 124.7(2) . 2_566
C2 O4 Ag1 109.74(18) . .
Ag1 O4 Ag1 109.99(10) 2_566 .
C2 O4 H10 101(6) . .
Ag1 O4 H10 107(5) 2_566 .
Ag1 O4 H10 101(5) . .
O3 S1 O1 112.8(2) . .
O3 S1 O2 112.79(19) . .
O1 S1 O2 111.82(19) . .
O3 S1 C1 105.89(17) . .
O1 S1 C1 105.90(16) . .
O2 S1 C1 107.03(17) . .
loop_
_geom_bond_atom_site_label_1
_geom_bond_atom_site_label_2
_geom_bond_distance
_geom_bond_site_symmetry_2
C1 C2 1.528(4) .
C1 S1 1.774(3) .
C1 H1 0.9700 .
C1 H2 0.9700 .
C2 O4 1.410(4) .
C2 C3 1.527(4) .
C2 H3 0.9800 .
C3 N1 1.474(4) .
C3 H4 0.9700 .
C3 H5 0.9700 .
C4 N1 1.471(4) .
C4 C5 1.511(4) .
C4 H6 0.9700 .
C4 H7 0.9700 .
C5 N1 1.479(4) 2_567
C5 H8 0.9700 .
C5 H9 0.9700 .
Ag1 N1 2.330(3) .
Ag1 O1W 2.356(3) .
Ag1 O2 2.515(3) 2_566
Ag1 O4 2.543(3) 2_566
Ag1 O4 2.551(2) .
O1 S1 1.451(3) .
O2 S1 1.452(3) .
O1W H1A 0.8752 .
O1W H1B 0.8742 .
O3 S1 1.442(3) .
O4 H10 0.91(9) .
loop_
_geom_hbond_atom_site_label_D
_geom_hbond_atom_site_label_H
_geom_hbond_atom_site_label_A
_geom_hbond_distance_DH
_geom_hbond_distance_HA
_geom_hbond_distance_DA
_geom_hbond_angle_DHA
_geom_hbond_site_symmetry_A
_geom_hbond_publ_flag
O1W H1A O1 0.88 2.00 2.857(4) 165.4 2_666 yes
O1W H1B O2 0.87 2.03 2.848(4) 155.5 1_566 yes
O4 H10 O3 0.91(9) 1.87(9) 2.634(4) 140(8) 2_666 yes
