#------------------------------------------------------------------------------
#$Date: 2022-06-07 10:49:44 +0300 (Tue, 07 Jun 2022) $
#$Revision: 275862 $
#$URL: file:///home/coder/svn-repositories/cod/cif/8/10/53/8105346.cif $
#------------------------------------------------------------------------------
#
# This file is available in the Crystallography Open Database (COD),
# http://www.crystallography.net/
#
# All data on this site have been placed in the public domain by the
# contributors.
#
data_8105346
loop_
_publ_author_name
'Shu-Fang, Fang'
'Jia, Gu'
'Yuan-Zhen, Xiong'
'Guo-Ping, Huang'
'Jian-Ping, Huang'
_publ_section_title
;
 Crystal structure of
 7-ethoxy-6,8-difluoro-4-oxo-1-pyridin-2-ylmethyl-1,4-dihydro-quinoline-3-carboxylic
 acid, C18H14F2N2O4
;
_journal_issue                   4
_journal_name_full
'Zeitschrift f\"ur Kristallographie - New Crystal Structures'
_journal_page_first              971
_journal_page_last               973
_journal_paper_doi               10.1515/ncrs-2020-0128
_journal_volume                  235
_journal_year                    2020
_chemical_formula_moiety         'C18 H14 F2 N2 O4'
_chemical_formula_sum            'C18 H14 F2 N2 O4'
_chemical_formula_weight         360.31
_chemical_name_common
;
7-Ethoxy-6,8-difluoro-4-oxo-1-pyridin-2-ylmethyl-1,4-dihydro-quinoline-3-
carboxylic acid
;
_space_group_crystal_system      triclinic
_space_group_IT_number           2
_space_group_name_Hall           '-P 1'
_space_group_name_H-M_alt        'P -1'
_atom_sites_solution_hydrogens   geom
_audit_creation_method           SHELXL-2014/7
_cell_angle_alpha                83.409(6)
_cell_angle_beta                 83.283(6)
_cell_angle_gamma                83.728(6)
_cell_formula_units_Z            2
_cell_length_a                   6.377(3)
_cell_length_b                   9.466(5)
_cell_length_c                   13.367(7)
_cell_measurement_reflns_used    2709
_cell_measurement_temperature    296(2)
_cell_measurement_theta_max      27.49
_cell_measurement_theta_min      2.54
_cell_volume                     792.3(7)
_computing_cell_refinement       'APEX2, SAINT and SADABS [1]'
_computing_data_collection       'APEX2, SAINT and SADABS [1]'
_computing_data_reduction        'APEX2, SAINT and SADABS [1]'
_computing_molecular_graphics    'Diamond 4.0 [3]'
_computing_publication_material  'SHELXL-2014/7 (Sheldrick, 2014) [2]'
_computing_structure_refinement  'SHELXL-2014/7 (Sheldrick, 2014) [2]'
_computing_structure_solution    'SHELXL-2014/7 (Sheldrick, 2014) [2]'
_diffrn_ambient_temperature      296(2)
_diffrn_measured_fraction_theta_full 0.964
_diffrn_measured_fraction_theta_max 0.961
_diffrn_measurement_device_type  'Bruker APEX-II CCD'
_diffrn_measurement_method       '\f and \w scans'
_diffrn_radiation_monochromator  graphite
_diffrn_radiation_source         'sealed tube'
_diffrn_radiation_type           MoK\a
_diffrn_radiation_wavelength     0.71073
_diffrn_reflns_av_R_equivalents  0.0410
_diffrn_reflns_av_unetI/netI     0.0521
_diffrn_reflns_Laue_measured_fraction_full 0.964
_diffrn_reflns_Laue_measured_fraction_max 0.961
_diffrn_reflns_limit_h_max       7
_diffrn_reflns_limit_h_min       -7
_diffrn_reflns_limit_k_max       11
_diffrn_reflns_limit_k_min       -11
_diffrn_reflns_limit_l_max       16
_diffrn_reflns_limit_l_min       -16
_diffrn_reflns_number            5426
_diffrn_reflns_point_group_measured_fraction_full 0.964
_diffrn_reflns_point_group_measured_fraction_max 0.961
_diffrn_reflns_theta_full        25.242
_diffrn_reflns_theta_max         25.500
_diffrn_reflns_theta_min         2.795
_exptl_absorpt_coefficient_mu    0.123
_exptl_crystal_colour            COLORLESS
_exptl_crystal_density_diffrn    1.510
_exptl_crystal_description       BLOCK
_exptl_crystal_F_000             372
_exptl_crystal_size_max          0.190
_exptl_crystal_size_mid          0.150
_exptl_crystal_size_min          0.130
_refine_diff_density_max         0.230
_refine_diff_density_min         -0.246
_refine_diff_density_rms         0.051
_refine_ls_abs_structure_details
;
 Flack x determined using 1462 quotients [(I+)-(I-)]/[(I+)+(I-)]
 (Parsons, Flack and Wagner, Acta Crystallogr. B69 (2013) 249-259).
;
_refine_ls_extinction_coef       .
_refine_ls_extinction_expression Fc^*^=kFc[1+0.001xFc^2^\l^3^/sin(2\q)]^-1/4^
_refine_ls_extinction_method     none
_refine_ls_goodness_of_fit_ref   1.024
_refine_ls_hydrogen_treatment    constr
_refine_ls_matrix_type           full
_refine_ls_number_parameters     237
_refine_ls_number_reflns         2843
_refine_ls_number_restraints     0
_refine_ls_restrained_S_all      1.024
_refine_ls_R_factor_all          0.0959
_refine_ls_R_factor_gt           0.0587
_refine_ls_shift/su_max          0.000
_refine_ls_shift/su_mean         0.000
_refine_ls_structure_factor_coef Fsqd
_refine_ls_weighting_details
'w=1/[\s^2^(Fo^2^)+(0.0779P)^2^+0.5244P] where P=(Fo^2^+2Fc^2^)/3'
_refine_ls_weighting_scheme      calc
_refine_ls_wR_factor_gt          0.1511
_refine_ls_wR_factor_ref         0.1814
_reflns_Friedel_coverage         0.000
_reflns_Friedel_fraction_full    .
_reflns_Friedel_fraction_max     .
_reflns_number_gt                1825
_reflns_number_total             2843
_reflns_threshold_expression     'I > 2\s(I)'
_cod_data_source_file            suppl_ncrs-2020-0128_suppl.cif
_cod_data_source_block           4014_0m
_cod_database_code               8105346
_shelx_shelxl_version_number     2014/7
_shelx_space_group_comment
;
The symmetry employed for this shelxl refinement is uniquely defined
by the following loop, which should always be used as a source of
symmetry information in preference to the above space-group names.
They are only intended as comments.
;
_shelx_estimated_absorpt_t_min   0.977
_shelx_estimated_absorpt_t_max   0.984
_shelx_res_file
;

    4014_0m.res created by SHELXL-2014/7

TITL 4014_0m in P-1
CELL 0.71073   6.3772   9.4661  13.3667  83.409  83.283  83.728
ZERR    2.00   0.0031   0.0046   0.0066   0.006   0.006   0.006
LATT 1
SFAC C  H  N  O  F
UNIT 36  28  4  8  4
OMIT -3 51
L.S. 10
ACTA
BOND
FMAP 2
PLAN 10
SIZE 0.13 0.15 0.19
TEMP 23.000
WGHT    0.077900    0.524400
FVAR       0.18009
MOLE 1
C1    1    0.033777    0.678596    0.320125    11.00000    0.03847    0.03269 =
         0.04193   -0.00582   -0.00179   -0.00756
C2    1    0.147541    0.747603    0.380613    11.00000    0.04316    0.05159 =
         0.04861   -0.00758   -0.00183   -0.01998
C3    1    0.086686    0.761220    0.481506    11.00000    0.05892    0.06595 =
         0.05215   -0.01538   -0.00809   -0.02513
C4    1   -0.097446    0.700475    0.525306    11.00000    0.06248    0.06898 =
         0.04113   -0.01356    0.00328   -0.02179
C5    1   -0.215104    0.633719    0.469833    11.00000    0.04941    0.05202 =
         0.04936   -0.00585    0.00672   -0.02046
AFIX  43
H5    2   -0.338646    0.596331    0.500341    11.00000   -1.20000
AFIX   0
C6    1   -0.151919    0.621099    0.368090    11.00000    0.04067    0.03071 =
         0.04492   -0.00318   -0.00153   -0.00871
C7    1   -0.277649    0.545748    0.310931    11.00000    0.04310    0.03331 =
         0.04966   -0.00159   -0.00002   -0.01314
C8    1   -0.201545    0.531852    0.208528    11.00000    0.03857    0.02705 =
         0.04986   -0.00554   -0.00432   -0.00742
C9    1   -0.020863    0.592156    0.166451    11.00000    0.04398    0.03162 =
         0.04097   -0.00714   -0.00150   -0.00826
AFIX  43
H9    2    0.023500    0.583447    0.098453    11.00000   -1.20000
AFIX   0
C10   1   -0.311651    0.453076    0.142736    11.00000    0.04478    0.03776 =
         0.05784   -0.00987   -0.00553   -0.00911
C11   1    0.275388    0.732318    0.159117    11.00000    0.03536    0.04686 =
         0.04824   -0.01125    0.00486   -0.01244
AFIX  23
H11A  2    0.306800    0.693156    0.094478    11.00000   -1.20000
H11B  2    0.399934    0.710074    0.195427    11.00000   -1.20000
AFIX   0
C12   1    0.230415    0.893084    0.140506    11.00000    0.04369    0.04233 =
         0.03941   -0.00647   -0.00114   -0.01377
C13   1   -0.004422    1.088859    0.114079    11.00000    0.06067    0.05950 =
         0.08232   -0.00097   -0.00449    0.00076
AFIX  43
H13   2   -0.143607    1.128394    0.110014    11.00000   -1.20000
AFIX   0
C14   1    0.152243    1.178827    0.098444    11.00000    0.08318    0.04063 =
         0.06893   -0.00531   -0.00270   -0.00937
AFIX  43
H14   2    0.120243    1.276750    0.084022    11.00000   -1.20000
AFIX   0
C15   1    0.355445    1.122165    0.104421    11.00000    0.06939    0.04769 =
         0.08597   -0.01132   -0.00808   -0.02327
AFIX  43
H15   2    0.465273    1.181013    0.094094    11.00000   -1.20000
AFIX   0
C16   1    0.397985    0.977176    0.125844    11.00000    0.04766    0.05188 =
         0.07533   -0.00981   -0.00951   -0.01730
AFIX  43
H16   2    0.536419    0.936381    0.130401    11.00000   -1.20000
AFIX   0
C17   1    0.170143    0.875283    0.622822    11.00000    0.10368    0.07676 =
         0.06589   -0.01981   -0.01473   -0.02901
AFIX  23
H17A  2    0.160638    0.793828    0.673700    11.00000   -1.20000
H17B  2    0.034951    0.933370    0.626872    11.00000   -1.20000
AFIX   0
C18   1    0.343119    0.961272    0.641218    11.00000    0.09876    0.09191 =
         0.06779   -0.02561   -0.01173   -0.03879
AFIX 137
H18A  2    0.473332    0.900406    0.644486    11.00000   -1.50000
H18B  2    0.306019    1.002419    0.704054    11.00000   -1.50000
H18C  2    0.360823    1.036079    0.586901    11.00000   -1.50000
AFIX   0
F1    5    0.327117    0.806170    0.341320    11.00000    0.06329    0.08708 =
         0.05654   -0.01469   -0.00010   -0.04544
F2    5   -0.159460    0.707118    0.624879    11.00000    0.09869    0.12524 =
         0.04763   -0.02658    0.01166   -0.05690
N1    3    0.095645    0.663113    0.217972    11.00000    0.03716    0.03608 =
         0.04346   -0.00671   -0.00054   -0.01137
N2    3    0.030642    0.946480    0.135005    11.00000    0.04602    0.05235 =
         0.07379   -0.00154   -0.00509   -0.01143
O1    4   -0.486234    0.398762    0.187673    11.00000    0.06329    0.05948 =
         0.06995   -0.01786    0.00065   -0.03493
AFIX 147
H1    2   -0.508656    0.420170    0.245961    11.00000   -1.50000
AFIX   0
O2    4   -0.250457    0.437422    0.056018    11.00000    0.05865    0.07703 =
         0.05868   -0.02791   -0.00383   -0.01999
O3    4   -0.445943    0.494930    0.352699    11.00000    0.06167    0.06920 =
         0.05642   -0.01165    0.00928   -0.03855
O4    4    0.216515    0.829631    0.528271    11.00000    0.09823    0.15505 =
         0.06190   -0.04356    0.00304   -0.07266
HKLF 4

REM  4014_0m in P-1
REM R1 =  0.0587 for    1825 Fo > 4sig(Fo)  and  0.0959 for all    2843 data
REM    237 parameters refined using      0 restraints

END

WGHT      0.0775      0.5269

REM Highest difference peak  0.230,  deepest hole -0.246,  1-sigma level  0.051
Q1    1   0.1219  0.9152  0.5381  11.00000  0.05    0.23
Q2    1  -0.1573  0.5403  0.3397  11.00000  0.05    0.20
Q3    1  -0.1249  0.3946  0.0702  11.00000  0.05    0.19
Q4    1  -0.1992  0.4013 -0.0069  11.00000  0.05    0.19
Q5    1   0.1901  0.8980  0.3401  11.00000  0.05    0.18
Q6    1  -0.3186  0.5956  0.2029  11.00000  0.05    0.18
Q7    1   0.0345  0.7663  0.3507  11.00000  0.05    0.18
Q8    1  -0.1927  0.4582  0.1746  11.00000  0.05    0.18
Q9    1  -0.3143  0.5338  0.1857  11.00000  0.05    0.17
Q10   1   0.1452  0.6541  0.3559  11.00000  0.05    0.17
;
_shelx_hkl_file
;
  -1   0   0   65.76    2.96
   1   0   0   60.01    3.10
  -2   0   0   17.35    0.81
  -2   0   0   16.23    0.67
   2   0   0   16.49    0.84
  -3   0   0    0.75    0.12
   3   0   0    0.93    0.10
  -4   0   0    2.39    0.21
  -4   0   0    2.09    0.12
   4   0   0    2.80    0.18
  -5   0   0    0.08    0.09
  -6   0   0    0.43    0.14
   6   0   0    0.50    0.11
  -7   0   0   -0.01    0.13
   7   0   0    0.16    0.10
  -8   0   0    0.15    0.15
   8   0   0    0.31    0.12
   8  -1   0    0.23    0.13
  -8   1   0   -0.03    0.14
   7  -1   0    0.25    0.11
  -7   1   0    0.04    0.13
   6  -1   0    0.18    0.09
  -6   1   0    0.16    0.12
   5  -1   0   -0.07    0.07
  -5   1   0    0.05    0.09
   4  -1   0   17.14    0.90
   4  -1   0   17.71    0.70
  -4   1   0   17.91    0.89
   3  -1   0   16.01    0.62
   3  -1   0   15.14    0.78
  -3   1   0   15.09    0.76
   2  -1   0    6.99    0.39
   2  -1   0    7.96    0.31
  -2   1   0    7.94    0.39
   1  -1   0   20.48    1.07
  -1   1   0   23.13    1.03
  -1  -1   0   62.70    2.86
  -1  -1   0   63.63    2.41
   1   1   0   55.85    2.98
  -2  -1   0    1.29    0.11
  -2  -1   0    1.42    0.07
   2   1   0    1.29    0.11
  -3  -1   0   12.23    0.50
  -3  -1   0   12.06    0.63
   3   1   0   12.59    0.64
  -4  -1   0    0.00    0.08
  -4  -1   0    0.07    0.03
   4   1   0    0.15    0.07
  -5  -1   0    8.33    0.37
  -5  -1   0    8.39    0.49
   5   1   0    8.94    0.48
  -6  -1   0   -0.01    0.10
   6   1   0    0.18    0.09
  -7  -1   0    0.00    0.12
   7   1   0    0.09    0.09
  -8  -1   0    0.14    0.14
   8   1   0    0.12    0.11
   7  -2   0    0.28    0.13
  -7   2   0    0.10    0.14
   6  -2   0    0.34    0.11
  -6   2   0    0.25    0.14
   5  -2   0    2.34    0.19
  -5   2   0    2.06    0.21
   4  -2   0   13.87    0.72
  -4   2   0   13.95    0.72
   3  -2   0   14.84    0.76
  -3   2   0   14.86    0.74
   2  -2   0    1.43    0.10
  -2   2   0    1.42    0.10
   1  -2   0  180.14    7.28
   1  -2   0  180.62    8.98
  -1   2   0  189.57    8.60
   0  -2   0    1.09    0.07
   0  -2   0    1.05    0.06
  -1  -2   0    1.70    0.11
  -1  -2   0    1.85    0.09
   1   2   0    1.53    0.11
   1   2   0    1.89    0.10
  -2  -2   0   55.85    2.09
  -2  -2   0   53.45    2.49
   2   2   0   49.00    2.60
  -3  -2   0    0.19    0.07
  -3  -2   0    0.23    0.04
   3   2   0    0.36    0.08
  -4  -2   0    3.51    0.24
  -4  -2   0    3.67    0.17
   4   2   0    3.50    0.25
  -5  -2   0    1.20    0.18
  -5  -2   0    1.28    0.10
   5   2   0    1.52    0.17
   6   2   0    0.95    0.14
  -7  -2   0    0.19    0.13
   7   2   0    0.17    0.11
  -8  -2   0    0.06    0.13
   8   2   0    0.09    0.11
   7  -3   0   -0.12    0.12
  -7   3   0   -0.07    0.13
   6  -3   0    0.31    0.12
  -6   3   0    0.15    0.13
   5  -3   0    0.82    0.13
   4  -3   0    0.08    0.07
  -4   3   0    0.21    0.09
   3  -3   0    0.03    0.05
  -3   3   0    0.01    0.05
   2  -3   0   18.20    0.93
   2  -3   0   18.05    0.74
  -2   3   0   19.59    0.90
   1  -3   0   24.28    1.21
   1  -3   0   23.72    0.97
  -1   3   0   25.00    1.15
   0  -3   0    0.86    0.08
   0  -3   0    1.06    0.06
  -1  -3   0   28.68    1.46
  -1  -3   0   29.93    1.17
  -2  -3   0   44.68    2.01
  -2  -3   0   42.14    1.69
   2   3   0   40.53    2.11
  -3  -3   0   -0.01    0.06
  -3  -3   0    0.11    0.04
  -4  -3   0    6.65    0.38
  -4  -3   0    6.89    0.31
   4   3   0    6.69    0.41
  -5  -3   0    0.62    0.13
  -5  -3   0    0.65    0.07
   5   3   0    0.80    0.17
  -6  -3   0    0.00    0.04
  -6  -3   0   -0.09    0.09
   6   3   0    0.05    0.10
  -7  -3   0    0.01    0.10
   7   3   0   -0.04    0.11
  -8  -3   0    0.11    0.13
   8   3   0    0.09    0.12
   7  -4   0   -0.04    0.13
  -7   4   0   -0.10    0.13
   6  -4   0    1.24    0.16
  -6   4   0    0.95    0.18
   5  -4   0    1.32    0.15
  -5   4   0    1.22    0.17
   4  -4   0    0.67    0.11
  -4   4   0    0.61    0.12
   3  -4   0    0.40    0.08
  -3   4   0    0.39    0.08
   2  -4   0    3.95    0.19
   2  -4   0    4.33    0.25
  -2   4   0    4.62    0.24
   1  -4   0    1.56    0.09
   1  -4   0    1.57    0.12
  -1   4   0    1.75    0.10
   0  -4   0    0.31    0.06
   0  -4   0    0.23    0.04
  -1  -4   0   15.58    0.63
  -1  -4   0   15.07    0.78
  -2  -4   0    0.28    0.05
  -2  -4   0    0.33    0.05
   2   4   0    0.33    0.07
  -3  -4   0   10.35    0.53
  -3  -4   0   10.83    0.45
   3   4   0   10.14    0.58
  -4  -4   0    0.71    0.12
  -4  -4   0    0.85    0.08
   4   4   0    0.89    0.17
  -5  -4   0    0.06    0.04
  -5  -4   0    0.08    0.08
   5   4   0   -0.07    0.11
  -6  -4   0   -0.07    0.04
  -6  -4   0    0.00    0.09
   6   4   0   -0.09    0.12
  -7  -4   0    0.90    0.17
   7   4   0    0.77    0.18
   7  -5   0   -0.10    0.14
  -7   5   0   -0.07    0.14
   6  -5   0    0.16    0.13
  -6   5   0    0.11    0.13
   5  -5   0   -0.02    0.10
  -5   5   0   -0.04    0.10
   4  -5   0    0.16    0.09
  -4   5   0    0.03    0.09
   3  -5   0    0.00    0.06
  -3   5   0    0.03    0.06
   2  -5   0    0.65    0.10
  -2   5   0    0.63    0.08
   1  -5   0   15.34    0.63
   1  -5   0   15.44    0.79
   0  -5   0    0.90    0.10
   0  -5   0    0.98    0.07
  -1  -5   0   -0.01    0.02
  -1  -5   0    0.03    0.05
  -2  -5   0    2.70    0.15
   2   5   0    2.75    0.18
   2   5   0    2.69    0.20
  -3  -5   0    1.90    0.13
  -3  -5   0    1.96    0.15
   3   5   0    2.11    0.20
  -4  -5   0    0.66    0.11
  -4  -5   0    0.70    0.08
   4   5   0    0.88    0.17
  -5  -5   0    1.00    0.14
  -5  -5   0    1.01    0.10
   5   5   0    0.93    0.20
  -6  -5   0    0.46    0.09
  -6  -5   0    0.39    0.12
   6   5   0    0.45    0.17
  -7  -5   0    0.16    0.12
   7   5   0    0.08    0.16
   6  -6   0    0.24    0.15
   5  -6   0   -0.13    0.11
   4  -6   0    2.29    0.19
  -4   6   0    2.21    0.19
   3  -6   0    2.64    0.19
  -3   6   0    2.40    0.18
   2  -6   0    0.61    0.10
   1  -6   0    0.38    0.06
   0  -6   0    0.42    0.09
   0  -6   0    0.33    0.06
  -1  -6   0    0.29    0.08
  -1  -6   0    0.23    0.05
  -2  -6   0    2.91    0.16
   2   6   0    2.39    0.20
   2   6   0    2.82    0.20
  -3  -6   0    1.98    0.13
   3   6   0    1.71    0.21
  -4  -6   0    0.56    0.09
   4   6   0    0.58    0.18
  -5  -6   0    0.09    0.06
   5   6   0   -0.12    0.15
  -6  -6   0    0.15    0.06
   6   6   0    0.13    0.18
  -7  -6   0    0.15    0.07
   7   6   0    0.11    0.19
   6  -7   0    0.03    0.14
   5  -7   0   -0.11    0.11
   4  -7   0    0.59    0.12
   3  -7   0    0.42    0.11
   2  -7   0    0.08    0.08
   1  -7   0    0.08    0.04
   1  -7   0    0.13    0.08
   0  -7   0    0.19    0.09
   0  -7   0    0.10    0.04
  -1  -7   0    0.26    0.09
  -1  -7   0    0.12    0.05
  -2  -7   0   12.82    0.56
   2   7   0   12.59    0.69
  -3  -7   0    1.90    0.15
   3   7   0    1.95    0.23
  -4  -7   0    3.66    0.21
   4   7   0    3.15    0.34
  -5  -7   0    0.11    0.06
   5   7   0   -0.25    0.18
  -6  -7   0    0.76    0.11
   6   7   0    0.59    0.22
  -7  -7   0    0.68    0.12
   7   7   0    0.54    0.24
   5  -8   0   -0.03    0.12
   4  -8   0    0.08    0.10
   3  -8   0    0.25    0.10
   2  -8   0    0.19    0.10
   1  -8   0    0.69    0.08
   1  -8   0    0.80    0.13
   0  -8   0    0.14    0.05
   0  -8   0    0.09    0.10
  -1  -8   0    0.77    0.09
  -1  -8   0    0.90    0.15
  -2  -8   0    1.80    0.14
   2   8   0    1.60    0.20
  -3  -8   0   11.06    0.53
   3   8   0   12.01    0.69
  -4  -8   0    2.32    0.16
   4   8   0    1.53    0.28
  -5  -8   0    0.65    0.10
   5   8   0    0.47    0.23
  -6  -8   0    0.02    0.06
   6   8   0   -0.24    0.20
   4  -9   0    0.13    0.11
   3  -9   0    0.05    0.10
   2  -9   0    0.73    0.14
   1  -9   0    0.02    0.11
   0  -9   0    0.06    0.05
   0  -9   0    0.11    0.11
  -1  -9   0    0.02    0.05
  -1  -9   0    0.01    0.11
  -2  -9   0    0.27    0.08
   2   9   0    0.48    0.13
  -3  -9   0    5.82    0.33
   3   9   0    6.55    0.45
  -4  -9   0    0.07    0.07
  -5  -9   0    0.15    0.07
   5   9   0   -0.13    0.21
  -6  -9   0    1.36    0.15
   6   9   0    1.26    0.30
   3 -10   0    0.30    0.12
   2 -10   0    0.18    0.13
   1 -10   0    1.23    0.18
   0 -10   0   -0.04    0.13
   0 -10   0   -0.01    0.05
  -1 -10   0    0.76    0.18
  -1 -10   0    0.65    0.10
  -2 -10   0    6.23    0.34
   2  10   0    6.47    0.43
  -3 -10   0    0.06    0.08
   3  10   0   -0.23    0.19
  -4 -10   0    0.20    0.08
   4  10   0   -0.22    0.20
  -5 -10   0    0.05    0.07
   5  10   0   -0.18    0.22
   2 -11   0    0.37    0.16
   1 -11   0    0.10    0.14
   0 -11   0    0.21    0.16
  -1 -11   0    0.65    0.12
  -1 -11   0    0.80    0.20
  -2 -11   0    8.30    0.44
   2  11   0    8.79    0.55
  -3 -11   0    0.16    0.09
   3  11   0   -0.29    0.21
  -4 -11   0   -0.03    0.07
   4  11   0   -0.24    0.21
   0 -12   0    0.13    0.17
  -1 -12   0    1.83    0.26
  -2 -12   0    0.99    0.16
   2  12   0    1.14    0.23
  -1 -12   1    3.93    0.34
  -1 -12   1    3.13    0.24
   0 -12   1    0.21    0.18
  -4 -11   1    0.85    0.14
  -3 -11   1    0.04    0.09
   2  11  -1    1.42    0.22
  -2 -11   1    1.12    0.16
  -1 -11   1    0.06    0.07
  -1 -11   1    0.34    0.18
   0 -11   1    0.22    0.16
   1 -11   1    0.21    0.15
   2 -11   1    0.02    0.14
  -5 -10   1    0.02    0.07
  -4 -10   1   -0.06    0.07
   3  10  -1    2.09    0.29
  -3 -10   1    2.51    0.19
   2  10  -1    3.88    0.30
  -2 -10   1    3.00    0.22
  -1 -10   1    0.01    0.06
  -1 -10   1    0.09    0.14
   0 -10   1    0.02    0.05
   0 -10   1    0.00    0.13
   1 -10   1    0.23    0.15
   2 -10   1    0.14    0.13
   3 -10   1    0.25    0.12
  -6  -9   1    0.33    0.09
   5   9  -1   -0.03    0.21
  -5  -9   1    0.31    0.09
   4   9  -1    0.06    0.19
   3   9  -1    3.88    0.34
  -3  -9   1    3.77    0.24
  -2  -9   1    0.37    0.08
  -1  -9   1    0.51    0.09
  -1  -9   1    0.64    0.15
   0  -9   1    0.07    0.05
   0  -9   1    0.12    0.12
   1  -9   1    0.24    0.13
   2  -9   1    0.12    0.11
   3  -9   1    0.14    0.11
   4  -9   1    0.08    0.10
   6   8  -1   -0.20    0.21
  -6  -8   1    0.07    0.06
   5   8  -1    0.72    0.23
  -5  -8   1    0.85    0.12
  -4  -8   1    0.02    0.06
   3   8  -1    0.47    0.16
  -3  -8   1    0.28    0.08
   2   8  -1    2.33    0.21
  -2  -8   1    2.30    0.16
  -1  -8   1    0.80    0.15
  -1  -8   1    0.83    0.10
   0  -8   1   -0.01    0.04
   0  -8   1   -0.01    0.09
   1  -8   1    0.58    0.13
   1  -8   1    0.55    0.08
   2  -8   1    0.00    0.10
   3  -8   1    0.16    0.10
   4  -8   1    0.04    0.10
   5  -8   1   -0.01    0.12
   7   7  -1   -0.11    0.21
  -7  -7   1    0.05    0.07
   6   7  -1    0.37    0.21
  -6  -7   1    0.53    0.10
  -5  -7   1   -0.09    0.05
   4   7  -1    0.37    0.18
  -4  -7   1    0.49    0.09
   3   7  -1    1.61    0.21
  -3  -7   1    1.51    0.13
   2   7  -1    4.94    0.32
   2   7  -1    4.83    0.30
  -2  -7   1    5.02    0.26
  -1  -7   1    0.92    0.13
  -1  -7   1    0.84    0.09
   0  -7   1    0.03    0.04
   0  -7   1    0.04    0.08
   1  -7   1    0.52    0.11
   1  -7   1    0.42    0.08
   2  -7   1    1.23    0.15
   3  -7   1    0.86    0.14
   4  -7   1    0.16    0.11
   5  -7   1   -0.13    0.11
   6  -7   1   -0.03    0.14
   7   6  -1   -0.14    0.18
  -7  -6   1    0.00    0.06
   6   6  -1   -0.03    0.17
  -6  -6   1    0.09    0.06
   5   6  -1    0.91    0.20
  -5  -6   1    0.70    0.10
   4   6  -1    0.16    0.15
  -4  -6   1    0.22    0.06
   3   6  -1    0.05    0.10
  -3  -6   1    0.01    0.04
   2   6  -1   -0.04    0.06
  -2  -6   1   -0.01    0.03
  -1  -6   1    1.70    0.16
  -1  -6   1    2.03    0.13
   0  -6   1    9.96    0.42
   0  -6   1    9.22    0.52
   2  -6   1    2.29    0.17
   2  -6   1    2.15    0.13
   3  -6   1    8.89    0.49
   4  -6   1    0.59    0.13
   6  -6   1    0.80    0.17
   7   5  -1    0.09    0.16
  -7  -5   1    0.09    0.11
   6   5  -1    0.11    0.15
  -6  -5   1    0.10    0.06
  -6  -5   1    0.11    0.10
   5   5  -1    0.45    0.16
  -5  -5   1    0.36    0.11
  -5  -5   1    0.35    0.07
   4   5  -1    0.41    0.14
  -4  -5   1    0.37    0.07
  -4  -5   1    0.43    0.10
   3   5  -1    8.19    0.47
  -3  -5   1    7.67    0.36
  -3  -5   1    7.90    0.41
   2   5  -1    0.52    0.08
   2   5  -1    0.48    0.10
  -2  -5   1    0.35    0.06
  -1  -5   1    1.01    0.08
  -1  -5   1    0.85    0.11
   0  -5   1    0.46    0.06
   1  -5   1   -0.04    0.05
  -2   5  -1   25.85    1.16
   2  -5   1   23.58    1.21
   2  -5   1   22.83    0.97
  -3   5  -1    0.01    0.07
   3  -5   1    0.07    0.07
  -4   5  -1    0.42    0.12
   4  -5   1    0.48    0.12
  -5   5  -1    0.27    0.12
   5  -5   1    0.24    0.12
  -6   5  -1   -0.02    0.11
   6  -5   1   -0.01    0.12
  -7   5  -1   -0.01    0.14
   7  -5   1   -0.06    0.15
   7   4  -1    0.29    0.14
  -7  -4   1    0.39    0.14
   6   4  -1    0.78    0.17
  -6  -4   1    0.66    0.15
  -6  -4   1    0.70    0.09
   5   4  -1    0.03    0.11
  -5  -4   1   -0.05    0.08
  -5  -4   1   -0.06    0.04
   4   4  -1    1.26    0.18
  -4  -4   1    1.32    0.14
  -4  -4   1    1.35    0.10
   3   4  -1    6.85    0.41
  -3  -4   1    7.15    0.37
  -3  -4   1    6.72    0.31
  -2  -4   1    0.35    0.07
  -2  -4   1    0.47    0.06
  -1  -4   1    7.70    0.33
  -1  -4   1    7.70    0.42
   0  -4   1   16.43    0.87
   0  -4   1   17.71    0.70
   1  -4   1    5.33    0.30
   1  -4   1    5.33    0.24
  -2   4  -1   43.98    2.02
   2  -4   1   42.50    1.70
   2  -4   1   41.65    2.11
  -3   4  -1    1.46    0.14
   3  -4   1    1.57    0.13
  -4   4  -1    0.14    0.09
   4  -4   1    0.17    0.08
  -5   4  -1    1.48    0.18
   5  -4   1    1.57    0.16
  -6   4  -1    0.11    0.13
   6  -4   1    0.37    0.13
  -7   4  -1   -0.01    0.13
   7  -4   1   -0.03    0.13
   8   3  -1    0.13    0.12
  -8  -3   1    0.07    0.13
   7   3  -1   -0.02    0.11
  -7  -3   1    0.04    0.11
   6   3  -1    0.01    0.10
  -6  -3   1   -0.09    0.10
   5   3  -1    0.76    0.17
  -5  -3   1    0.57    0.07
  -5  -3   1    0.57    0.13
   4   3  -1    0.12    0.09
  -4  -3   1    0.09    0.08
  -4  -3   1    0.07    0.04
   3   3  -1    8.68    0.48
  -3  -3   1    8.30    0.45
  -3  -3   1    8.65    0.37
   2   3  -1   41.98    2.19
  -2  -3   1   46.56    2.09
  -2  -3   1   43.82    1.76
  -1  -3   1    1.84    0.10
   0  -3   1   -0.06    0.04
  -1   3  -1  170.49    8.23
   1  -3   1  188.09    6.94
   1  -3   1  169.02    8.59
   2  -3   1    1.47    0.11
   2  -3   1    1.37    0.08
  -3   3  -1    0.81    0.11
   3  -3   1    0.74    0.08
  -4   3  -1    0.00    0.07
   4  -3   1   -0.03    0.06
  -5   3  -1    6.31    0.40
   5  -3   1    6.65    0.39
  -6   3  -1    0.04    0.11
   6  -3   1    0.06    0.11
  -7   3  -1    0.05    0.14
   7  -3   1    0.06    0.13
   8   2  -1    0.32    0.12
  -8  -2   1    0.29    0.16
   7   2  -1    0.12    0.10
  -7  -2   1    0.10    0.12
   6   2  -1    2.81    0.22
  -6  -2   1    2.21    0.25
   5   2  -1    4.48    0.30
  -5  -2   1    4.56    0.22
  -5  -2   1    4.47    0.31
   4   2  -1    1.26    0.15
  -4  -2   1    1.32    0.09
  -4  -2   1    1.20    0.15
   3   2  -1    5.15    0.30
  -3  -2   1    4.88    0.29
  -3  -2   1    4.88    0.23
   2   2  -1    5.52    0.32
  -2  -2   1    5.95    0.25
  -2  -2   1    6.07    0.31
   1   2  -1   79.89    3.30
   1   2  -1   74.03    3.88
  -1  -2   1   76.24    3.12
  -1  -2   1   85.93    3.72
   0  -2   1  211.21    8.02
   0  -2   1  194.11    9.95
  -1   2  -1  975.48   44.08
   1  -2   1 1000.00   37.29
   1  -2   1  836.99   46.14
  -2   2  -1    2.44    0.15
   2  -2   1    2.12    0.14
   2  -2   1    2.34    0.10
  -3   2  -1    0.18    0.08
   4  -2   1    1.35    0.13
  -5   2  -1    0.07    0.10
   5  -2   1    0.14    0.08
  -6   2  -1    0.99    0.18
   6  -2   1    1.14    0.16
  -7   2  -1    0.11    0.14
   7  -2   1    0.24    0.13
   8   1  -1    0.21    0.11
  -8  -1   1    0.09    0.14
   7   1  -1    0.08    0.09
  -7  -1   1   -0.12    0.11
  -6  -1   1    0.01    0.11
   5   1  -1   10.58    0.59
  -5  -1   1   10.95    0.60
   4   1  -1    5.71    0.34
  -4  -1   1    6.01    0.35
  -4  -1   1    5.85    0.26
   3   1  -1   36.86    1.86
  -3  -1   1   38.94    1.79
  -3  -1   1   36.65    1.49
   2   1  -1    6.34    0.35
  -2  -1   1    6.39    0.27
  -2  -1   1    6.80    0.33
   1   1  -1   21.08    1.09
  -1  -1   1   23.28    1.04
  -1  -1   1   21.56    0.88
   0  -1   1    5.40    0.29
   0  -1   1    6.01    0.23
  -1   1  -1   81.35    3.51
   1  -1   1   74.42    2.96
   1  -1   1   68.29    3.66
  -2   1  -1   41.02    1.83
   2  -1   1   39.42    1.52
   2  -1   1   35.17    1.89
  -3   1  -1    0.78    0.13
   3  -1   1    1.13    0.09
   3  -1   1    0.97    0.06
  -4   1  -1   -0.08    0.08
  -5   1  -1    0.12    0.10
   5  -1   1   -0.01    0.07
  -6   1  -1    0.14    0.12
   6  -1   1    0.11    0.09
  -7   1  -1   -0.02    0.12
   7  -1   1    0.08    0.10
  -8   1  -1    0.01    0.13
   8  -1   1    0.09    0.13
   8   0  -1    0.56    0.13
  -8   0   1    0.22    0.17
   7   0  -1    0.33    0.11
  -7   0   1    0.24    0.15
   6   0  -1    0.12    0.09
  -6   0   1   -0.05    0.10
   5   0  -1   -0.04    0.07
  -5   0   1    0.06    0.09
   4   0  -1   23.28    1.21
  -4   0   1   25.19    1.19
  -4   0   1   23.73    0.96
   3   0  -1   41.56    2.09
  -3   0   1   43.46    2.01
  -3   0   1   41.96    1.68
   2   0  -1   26.29    1.30
  -2   0   1   25.68    1.04
  -2   0   1   26.57    1.25
   1   0  -1    2.31    0.13
  -1   0   1    2.39    0.12
  -1   0  -1   16.93    0.80
   1   0   1   17.28    0.67
   1   0   1   16.27    0.83
  -2   0  -1    0.00    0.01
  -2   0  -1   -0.03    0.04
  -3   0  -1    2.45    0.11
  -3   0  -1    2.27    0.17
   3   0   1    2.28    0.15
  -4   0  -1    0.08    0.08
  -5   0  -1    1.61    0.18
   5   0   1    1.33    0.15
  -6   0  -1    0.49    0.14
   6   0   1    0.44    0.11
  -7   0  -1    0.46    0.16
   7   0   1    0.61    0.13
  -8   0  -1    0.18    0.15
   8   0   1    0.24    0.12
   8  -1  -1    0.27    0.12
  -8   1   1   -0.02    0.14
   7  -1  -1    1.32    0.16
  -7   1   1    1.03    0.21
   6  -1  -1   -0.07    0.08
  -6   1   1   -0.03    0.11
   5  -1  -1    0.55    0.10
  -5   1   1    0.65    0.13
   4  -1  -1    0.68    0.11
  -4   1   1    0.84    0.12
   3  -1  -1    8.35    0.45
  -3   1   1    8.55    0.44
   2  -1  -1    0.18    0.03
  -2   1   1    0.24    0.05
   1  -1  -1  116.70    5.91
  -1   1   1  123.96    5.64
  -1  -1  -1    5.04    0.26
  -1  -1  -1    5.20    0.21
   1   1   1    5.06    0.27
  -2  -1  -1   39.83    1.55
  -2  -1  -1   38.91    1.85
   2   1   1   38.76    1.94
  -3  -1  -1    6.31    0.26
  -3  -1  -1    5.75    0.34
   3   1   1    6.39    0.34
  -4  -1  -1    0.08    0.03
  -4  -1  -1   -0.01    0.08
   4   1   1    0.05    0.06
  -5  -1  -1    0.29    0.11
  -6  -1  -1    0.94    0.17
   6   1   1    0.94    0.14
  -7  -1  -1    0.09    0.13
   7   1   1    0.19    0.10
  -8  -1  -1    0.07    0.13
   8   1   1    0.04    0.11
   7  -2  -1    1.36    0.18
  -7   2   1    0.88    0.20
   6  -2  -1    0.01    0.09
  -6   2   1   -0.12    0.11
   5  -2  -1    1.10    0.14
  -5   2   1    1.13    0.16
   4  -2  -1    0.03    0.06
  -4   2   1    0.12    0.07
   3  -2  -1    0.85    0.09
  -3   2   1    0.92    0.10
   2  -2  -1    0.03    0.02
  -2   2   1    0.02    0.03
   1  -2  -1    3.13    0.17
  -1   2   1    3.04    0.16
   0  -2  -1   26.59    1.29
   0  -2  -1   28.46    1.09
   0  -2  -1   27.24    1.35
  -1  -2  -1    1.16    0.08
  -1  -2  -1    1.22    0.06
   1   2   1    1.23    0.08
  -2  -2  -1    7.41    0.31
  -2  -2  -1    7.17    0.37
   2   2   1    7.19    0.39
  -3  -2  -1    0.06    0.06
  -3  -2  -1    0.11    0.03
   3   2   1    0.17    0.06
  -4  -2  -1    5.11    0.31
  -4  -2  -1    5.10    0.23
   4   2   1    5.23    0.32
  -5  -2  -1    0.22    0.04
  -5  -2  -1    0.16    0.11
   5   2   1    0.18    0.10
  -6  -2  -1    0.29    0.13
   6   2   1    0.42    0.12
  -7  -2  -1    0.05    0.11
   7   2   1   -0.02    0.10
  -8  -2  -1    0.21    0.15
   8   2   1    0.20    0.12
   7  -3  -1   -0.11    0.12
  -7   3   1   -0.19    0.13
   6  -3  -1    0.33    0.12
  -6   3   1    0.04    0.14
   5  -3  -1    2.58    0.20
  -5   3   1    2.28    0.21
   4  -3  -1    0.15    0.07
  -4   3   1    0.22    0.08
   3  -3  -1    3.89    0.23
  -3   3   1    3.89    0.23
   2  -3  -1    4.02    0.23
  -2   3   1    4.47    0.23
   1  -3  -1    0.68    0.07
  -1   3   1    0.69    0.05
   0  -3  -1    9.12    0.38
   0  -3  -1    8.89    0.44
   0  -3  -1    9.31    0.47
  -1  -3  -1    9.65    0.51
  -1  -3  -1   10.07    0.48
  -1  -3  -1    9.94    0.41
   2   3   1    0.16    0.05
  -3  -3  -1    7.20    0.39
  -3  -3  -1    7.74    0.32
   3   3   1    7.14    0.42
  -4  -3  -1    3.59    0.25
  -4  -3  -1    3.82    0.19
   4   3   1    3.70    0.27
  -5  -3  -1    0.76    0.15
  -5  -3  -1    0.91    0.08
   5   3   1    0.69    0.16
  -6  -3  -1    0.78    0.16
  -6  -3  -1    0.88    0.09
   6   3   1    0.81    0.16
  -7  -3  -1    0.13    0.12
   7   3   1    0.07    0.12
  -8  -3  -1    0.25    0.15
   8   3   1    0.19    0.13
   7  -4  -1   -0.12    0.13
   6  -4  -1    0.65    0.14
  -6   4   1    0.61    0.17
   5  -4  -1    0.15    0.09
  -5   4   1    0.03    0.10
   4  -4  -1    0.08    0.07
  -4   4   1    0.06    0.07
   3  -4  -1    2.11    0.15
  -3   4   1    2.24    0.16
   2  -4  -1    1.02    0.06
   2  -4  -1    1.16    0.10
  -2   4   1    1.13    0.09
   1  -4  -1    3.82    0.22
   1  -4  -1    3.66    0.17
  -1   4   1    3.71    0.19
   0  -4  -1    0.65    0.05
  -1  -4  -1    6.99    0.39
  -1  -4  -1    7.03    0.32
  -1  -4  -1    7.91    0.36
  -2  -4  -1    0.30    0.06
  -2  -4  -1    0.24    0.04
   2   4   1    0.26    0.07
  -3  -4  -1    0.13    0.04
  -3  -4  -1    0.03    0.06
   3   4   1    0.20    0.09
  -4  -4  -1    1.75    0.12
  -4  -4  -1    1.56    0.15
   4   4   1    1.71    0.20
  -5  -4  -1    1.56    0.12
  -5  -4  -1    1.66    0.17
  -6  -4  -1    0.01    0.10
  -6  -4  -1    0.12    0.05
   6   4   1    0.04    0.13
  -7  -4  -1    0.09    0.11
   7   4   1    0.18    0.13
  -8  -4  -1    1.03    0.19
   8   4   1    0.98    0.20
   7  -5  -1    0.03    0.15
  -7   5   1   -0.20    0.15
   6  -5  -1    0.00    0.12
  -6   5   1   -0.16    0.12
   5  -5  -1    0.14    0.11
  -5   5   1    0.08    0.11
   4  -5  -1    0.92    0.12
  -4   5   1    0.80    0.13
   3  -5  -1    0.27    0.07
  -3   5   1    0.17    0.07
   2  -5  -1    0.89    0.10
  -2   5   1    0.81    0.09
   1  -5  -1    3.73    0.19
   1  -5  -1    4.32    0.24
  -1   5   1    4.08    0.21
   0  -5  -1    1.39    0.12
   0  -5  -1    1.24    0.08
  -1  -5  -1    7.80    0.44
  -1  -5  -1    8.28    0.35
  -2  -5  -1    9.16    0.44
  -2  -5  -1    8.72    0.38
   2   5   1    8.36    0.42
   2   5   1    8.39    0.48
  -3  -5  -1   19.45    0.83
  -3  -5  -1   20.21    0.97
   3   5   1   20.06    1.05
  -4  -5  -1    1.82    0.13
  -4  -5  -1    2.20    0.17
   4   5   1    1.94    0.24
  -5  -5  -1    3.44    0.19
  -5  -5  -1    3.61    0.25
   5   5   1    2.75    0.31
  -6  -5  -1    0.10    0.09
  -6  -5  -1    0.07    0.05
   6   5   1    0.00    0.15
  -7  -5  -1    0.74    0.15
  -7  -5  -1    0.76    0.10
   7   5   1    0.70    0.19
   6  -6  -1   -0.08    0.13
  -6   6   1   -0.17    0.12
   4  -6  -1    0.78    0.13
  -4   6   1    0.57    0.13
   2  -6  -1    0.42    0.09
  -2   6   1    0.41    0.08
   1  -6  -1    3.72    0.23
   1  -6  -1    3.60    0.18
  -1   6   1    3.61    0.20
   0  -6  -1    0.90    0.11
   0  -6  -1    0.85    0.07
  -1  -6  -1    0.14    0.07
  -1  -6  -1    0.10    0.04
  -2  -6  -1    0.00    0.03
  -2  -6  -1   -0.02    0.03
   2   6   1    0.00    0.06
  -3  -6  -1    0.13    0.05
   3   6   1    0.06    0.11
  -4  -6  -1   52.72    2.55
  -4  -6  -1   53.18    2.17
   4   6   1   55.45    2.72
  -5  -6  -1    0.10    0.05
  -5  -6  -1    0.12    0.08
  -6  -6  -1    1.72    0.14
  -6  -6  -1    1.74    0.18
   6   6   1    1.67    0.26
  -7  -6  -1    0.27    0.08
   7   6   1    0.30    0.20
   6  -7  -1   -0.18    0.13
   5  -7  -1   -0.08    0.11
   4  -7  -1    0.40    0.12
   3  -7  -1    0.23    0.10
   2  -7  -1   -0.04    0.07
   1  -7  -1    1.09    0.08
   1  -7  -1    1.13    0.13
   0  -7  -1    6.35    0.36
   0  -7  -1    5.58    0.28
  -1  -7  -1    3.73    0.25
  -1  -7  -1    3.52    0.19
  -2  -7  -1    0.98    0.11
   2   7   1    1.13    0.16
  -3  -7  -1    4.08    0.23
   3   7   1    3.95    0.32
  -4  -7  -1   10.46    0.48
   4   7   1   10.49    0.67
  -5  -7  -1    0.17    0.06
   5   7   1   -0.15    0.19
  -6  -7  -1    0.09    0.06
   6   7   1   -0.04    0.19
  -7  -7  -1    0.82    0.12
   7   7   1    0.84    0.25
   4  -8  -1    0.10    0.10
   3  -8  -1    0.48    0.11
   2  -8  -1   -0.04    0.08
   1  -8  -1    0.69    0.13
   0  -8  -1    3.58    0.25
   0  -8  -1    3.17    0.18
  -1  -8  -1    0.74    0.14
  -1  -8  -1    0.69    0.09
  -2  -8  -1    2.85    0.18
  -3  -8  -1   25.53    1.10
   3   8   1   26.98    1.39
   4   8   1   -0.17    0.20
  -5  -8  -1    0.12    0.07
   5   8   1   -0.18    0.19
  -6  -8  -1    0.06    0.07
   6   8   1   -0.12    0.20
   4  -9  -1    0.19    0.11
   3  -9  -1    0.01    0.09
   2  -9  -1    0.21    0.10
   1  -9  -1    0.60    0.14
   0  -9  -1    0.90    0.10
   0  -9  -1    1.13    0.16
  -1  -9  -1   -0.02    0.04
  -1  -9  -1   -0.02    0.11
  -2  -9  -1    4.06    0.24
   2   9   1    3.80    0.30
  -3  -9  -1   11.20    0.54
   3   9   1   12.45    0.71
  -4  -9  -1    0.03    0.06
  -5  -9  -1    0.09    0.07
   5   9   1   -0.08    0.20
  -6  -9  -1    0.08    0.08
   6   9   1   -0.05    0.24
   3 -10  -1    0.25    0.12
   2 -10  -1    0.34    0.13
   1 -10  -1    1.53    0.19
   0 -10  -1    0.07    0.12
  -1 -10  -1    0.09    0.06
  -1 -10  -1    0.14    0.14
  -2 -10  -1    2.39    0.19
   2  10   1    3.05    0.25
  -3 -10  -1    1.04    0.14
   3  10   1    1.13    0.24
   3  10   1    0.59    0.22
  -4 -10  -1    0.17    0.08
   4  10   1    0.06    0.20
  -5 -10  -1    0.92    0.13
   5  10   1    0.69    0.26
   2 -11  -1    0.53    0.16
   1 -11  -1    0.28    0.15
   0 -11  -1    0.02    0.14
  -1 -11  -1    0.12    0.17
  -1 -11  -1    0.08    0.07
  -3 -11  -1   -0.09    0.07
   3  11   1   -0.13    0.19
  -4 -11  -1   -0.01    0.07
   4  11   1   -0.26    0.20
   0 -12  -1    0.05    0.16
  -1 -12  -1    1.05    0.22
  -2 -12  -1    1.08    0.16
   2  12   1    1.05    0.21
  -3 -11   2    0.01    0.08
   2  11  -2    2.73    0.32
   2  11  -2    3.01    0.28
  -2 -11   2    2.48    0.21
  -1 -11   2    0.47    0.19
  -1 -11   2    0.17    0.08
   0 -11   2    0.12    0.16
   1 -11   2    0.05    0.15
   2 -11   2   -0.12    0.15
  -5 -10   2    0.29    0.10
   4  10  -2    0.40    0.22
  -4 -10   2    0.49    0.11
   3  10  -2    0.01    0.17
  -3 -10   2    0.09    0.08
   2  10  -2    0.36    0.14
  -2 -10   2    0.23    0.08
  -1 -10   2    0.01    0.06
  -1 -10   2    0.03    0.14
   0 -10   2    0.19    0.07
   0 -10   2    0.13    0.14
   1 -10   2    0.06    0.14
   2 -10   2   -0.13    0.14
   3 -10   2    0.53    0.15
   5   9  -2   -0.03    0.21
  -5  -9   2    0.15    0.08
  -4  -9   2   -0.06    0.06
   3   9  -2    0.13    0.15
  -3  -9   2    0.08    0.07
   2   9  -2    0.15    0.11
   2   9  -2    0.25    0.11
  -2  -9   2    0.10    0.06
  -1  -9   2   -0.05    0.12
  -1  -9   2   -0.01    0.05
   0  -9   2    0.20    0.07
   0  -9   2    0.32    0.14
   1  -9   2   -0.18    0.12
   2  -9   2    0.13    0.12
   3  -9   2    0.23    0.12
   4  -9   2    0.36    0.13
   6   8  -2   -0.15    0.20
  -6  -8   2   -0.02    0.06
   5   8  -2   -0.27    0.18
  -5  -8   2   -0.04    0.06
   4   8  -2   -0.17    0.16
  -4  -8   2   -0.01    0.06
   3   8  -2    1.34    0.20
  -3  -8   2    1.22    0.13
   2   8  -2    0.84    0.15
   2   8  -2    0.54    0.12
  -2  -8   2    0.73    0.10
  -1  -8   2    1.27    0.17
  -1  -8   2    1.24    0.12
   0  -8   2    0.31    0.12
   0  -8   2    0.42    0.07
   1  -8   2    0.62    0.09
   1  -8   2    0.44    0.14
   3  -8   2    1.67    0.17
   4  -8   2    0.56    0.13
   5  -8   2   -0.02    0.12
  -6  -7   2   -0.04    0.05
   5   7  -2    0.76    0.21
  -5  -7   2    0.57    0.10
   4   7  -2   -0.02    0.15
  -4  -7   2   -0.03    0.05
   3   7  -2    1.61    0.21
  -3  -7   2    1.59    0.14
   2   7  -2   11.88    0.59
   2   7  -2   11.64    0.66
  -2  -7   2   12.40    0.54
  -1  -7   2    0.48    0.11
  -1  -7   2    0.32    0.07
   0  -7   2   -0.05    0.08
   0  -7   2    0.02    0.04
   1  -7   2    0.01    0.05
   3  -7   2    4.10    0.28
   4  -7   2    0.63    0.14
   5  -7   2   -0.06    0.12
   6  -7   2   -0.14    0.14
   7   6  -2   -0.06    0.18
   6   6  -2   -0.10    0.16
  -6  -6   2   -0.01    0.05
   5   6  -2    0.02    0.15
  -5  -6   2   -0.06    0.05
   4   6  -2    0.09    0.14
  -4  -6   2    0.04    0.05
   3   6  -2    0.69    0.17
  -3  -6   2    1.00    0.10
   2   6  -2    0.93    0.14
   2   6  -2    1.03    0.14
  -2  -6   2    0.96    0.10
  -1  -6   2    2.08    0.13
  -1  -6   2    2.02    0.18
   0  -6   2    0.12    0.04
   0  -6   2   -0.08    0.08
   2  -6   2    1.92    0.13
   2  -6   2    2.38    0.18
   3  -6   2   14.86    0.78
   4  -6   2    0.13    0.10
   5  -6   2    0.00    0.12
   6  -6   2    0.53    0.17
   7   5  -2    0.27    0.16
  -7  -5   2    0.25    0.12
   6   5  -2    0.34    0.17
  -6  -5   2    0.37    0.12
  -6  -5   2    0.34    0.07
   5   5  -2    0.71    0.17
  -5  -5   2    0.52    0.09
  -5  -5   2    0.51    0.13
   4   5  -2   -0.03    0.12
  -4  -5   2    0.05    0.06
  -4  -5   2   -0.02    0.04
  -3  -5   2    0.40    0.07
  -3  -5   2    0.56    0.09
   2   5  -2    3.01    0.22
   2   5  -2    2.91    0.18
  -2  -5   2    2.85    0.16
  -1  -5   2    7.45    0.42
  -1  -5   2    7.64    0.34
   0  -5   2    0.96    0.08
   1  -5   2    0.82    0.08
  -2   5  -2   35.19    1.59
   2  -5   2   32.33    1.33
   2  -5   2   32.14    1.66
  -3   5  -2    1.86    0.16
   3  -5   2    1.66    0.15
  -4   5  -2    0.43    0.12
   4  -5   2    0.53    0.11
  -5   5  -2    0.12    0.11
   5  -5   2   -0.01    0.11
  -6   5  -2    0.62    0.16
   6  -5   2    0.28    0.15
  -7   5  -2    0.09    0.13
   7  -5   2   -0.05    0.15
   7   4  -2    0.24    0.14
  -7  -4   2    0.19    0.11
   6   4  -2    1.32    0.21
  -6  -4   2    1.29    0.12
  -6  -4   2    1.08    0.17
   5   4  -2    1.82    0.22
  -5  -4   2    1.65    0.18
  -5  -4   2    1.77    0.13
   4   4  -2    0.42    0.13
  -4  -4   2    0.28    0.06
  -4  -4   2    0.35    0.09
   3   4  -2    1.24    0.16
  -3  -4   2    1.18    0.12
  -3  -4   2    1.16    0.09
   2   4  -2    0.33    0.08
  -2  -4   2    0.30    0.05
  -1  -4   2   14.42    0.76
  -1  -4   2   14.99    0.61
   0  -4   2   64.33    2.45
   0  -4   2   58.97    3.04
   1  -4   2   86.53    3.20
   1  -4   2   75.11    3.96
  -2   4  -2  110.53    4.95
   2  -4   2  107.07    4.17
   2  -4   2   99.46    5.18
  -3   4  -2    1.18    0.14
   3  -4   2    1.16    0.11
   3  -4   2    1.13    0.08
  -4   4  -2   -0.03    0.08
   4  -4   2   -0.03    0.07
  -5   4  -2    0.05    0.11
   5  -4   2    0.11    0.10
  -6   4  -2    0.16    0.13
   6  -4   2    0.22    0.13
  -7   4  -2    0.16    0.14
   7  -4   2    0.12    0.14
   7   3  -2    0.11    0.11
  -7  -3   2    0.07    0.12
   6   3  -2    0.08    0.11
  -6  -3   2   -0.05    0.11
   5   3  -2    2.53    0.24
  -5  -3   2    2.48    0.15
  -5  -3   2    2.36    0.22
   4   3  -2   12.60    0.70
  -4  -3   2   12.96    0.67
  -4  -3   2   13.25    0.55
   3   3  -2   10.87    0.60
  -3  -3   2   11.58    0.48
  -3  -3   2   11.07    0.57
   2   3  -2   47.35    2.40
  -2  -3   2   47.36    1.92
  -2  -3   2   50.23    2.28
  -1  -3   2    4.40    0.20
   0  -3   2    0.71    0.06
   1  -3   2   39.15    2.07
   1  -3   2   44.81    1.67
  -2   3  -2    2.90    0.18
   2  -3   2    2.88    0.13
   2  -3   2    2.69    0.17
  -3   3  -2    1.13    0.13
   3  -3   2    1.11    0.10
  -4   3  -2    0.53    0.12
   4  -3   2    0.42    0.09
   5  -3   2    1.09    0.14
  -6   3  -2   -0.01    0.11
   6  -3   2   -0.05    0.11
  -7   3  -2    0.10    0.13
   7  -3   2   -0.05    0.13
  -8  -2   2   -0.03    0.13
   7   2  -2    0.52    0.13
  -7  -2   2    0.34    0.15
   6   2  -2    0.57    0.13
  -6  -2   2    0.28    0.14
   5   2  -2    0.32    0.10
  -5  -2   2    0.31    0.06
  -5  -2   2    0.24    0.11
   4   2  -2    7.54    0.45
  -4  -2   2    7.89    0.35
  -4  -2   2    8.05    0.44
   3   2  -2  100.52    5.22
  -3  -2   2  108.95    4.20
  -3  -2   2  109.69    4.99
   2   2  -2   10.60    0.59
  -2  -2   2   11.75    0.56
  -2  -2   2   11.71    0.47
   1   2  -2   23.69    1.26
   1   2  -2   26.62    1.08
  -1  -2   2   25.57    1.20
  -1  -2   2   25.54    1.02
   0  -2   2   57.77    2.99
   0  -2   2   63.95    2.41
  -1   2  -2    8.35    0.47
   1  -2   2   10.37    0.39
   1  -2   2    9.94    0.49
  -2   2  -2    0.05    0.05
   2  -2   2    0.06    0.02
   2  -2   2    0.09    0.03
  -3   2  -2    1.07    0.13
   3  -2   2    1.18    0.07
   3  -2   2    1.23    0.10
  -4   2  -2    0.94    0.15
   4  -2   2    1.22    0.07
   4  -2   2    1.32    0.12
  -5   2  -2   -0.05    0.09
  -6   2  -2    0.05    0.10
   6  -2   2   -0.02    0.11
  -7   2  -2    0.09    0.13
   7  -2   2    0.09    0.13
   8   1  -2    0.17    0.11
  -8  -1   2    0.11    0.15
   7   1  -2    0.18    0.10
  -7  -1   2    0.06    0.13
   6   1  -2    7.66    0.44
  -6  -1   2    7.51    0.48
   5   1  -2    0.67    0.13
  -5  -1   2    0.38    0.12
   4   1  -2    0.38    0.08
  -4  -1   2    0.46    0.09
  -4  -1   2    0.36    0.05
  -3  -1   2    5.39    0.29
  -3  -1   2    5.00    0.23
   2   1  -2   12.67    0.67
  -2  -1   2   13.10    0.53
  -2  -1   2   13.61    0.64
   1   1  -2    7.45    0.41
  -1  -1   2    7.96    0.39
  -1  -1   2    8.64    0.33
   0  -1   2   52.49    2.74
   0  -1   2   58.78    2.20
  -1   1  -2   42.32    1.88
   1  -1   2   36.29    1.95
   1  -1   2   40.62    1.57
  -2   1  -2   10.96    0.55
   2  -1   2   10.52    0.55
   2  -1   2   11.36    0.44
  -3   1  -2    3.38    0.22
   3  -1   2    3.26    0.20
   3  -1   2    3.56    0.15
  -4   1  -2    0.18    0.10
   4  -1   2    0.33    0.04
   4  -1   2    0.37    0.07
  -5   1  -2    0.82    0.16
   5  -1   2    0.70    0.12
  -6   1  -2    0.13    0.12
   6  -1   2   -0.12    0.09
  -7   1  -2    0.06    0.13
   7  -1   2    0.10    0.11
  -8   1  -2    0.24    0.15
   8  -1   2    0.36    0.15
  -8   0   2    0.19    0.16
   7   0  -2    1.23    0.15
  -7   0   2    0.91    0.20
   6   0  -2    0.45    0.11
  -6   0   2    0.35    0.15
   5   0  -2    2.10    0.17
  -5   0   2    1.94    0.20
   4   0  -2    4.82    0.28
  -4   0   2    4.83    0.29
  -4   0   2    4.81    0.21
   3   0  -2    0.24    0.06
  -3   0   2    0.33    0.04
   2   0  -2   35.34    1.74
  -2   0   2   33.83    1.40
  -2   0   2   36.38    1.66
   1   0  -2   65.06    3.21
  -1   0   2   65.32    3.05
  -1   0   2   64.95    2.58
   0   0  -2    3.95    0.19
   0   0   2    3.89    0.16
  -1   0  -2    2.39    0.13
   1   0   2    2.04    0.12
   1   0   2    2.41    0.10
  -2   0  -2    1.77    0.13
   2   0   2    1.89    0.08
   2   0   2    1.68    0.11
  -3   0  -2    6.92    0.37
   3   0   2    6.37    0.36
   3   0   2    7.10    0.28
  -4   0  -2    0.62    0.12
   4   0   2    0.67    0.05
   4   0   2    0.75    0.10
  -5   0  -2    0.04    0.08
   5   0   2    0.03    0.03
   6   0   2    0.51    0.13
  -7   0  -2    0.34    0.15
   7   0   2    0.68    0.13
  -8   0  -2    0.10    0.14
   8   0   2    0.21    0.12
  -7   1   2    0.00    0.14
   6  -1  -2    0.05    0.09
  -6   1   2   -0.07    0.11
   5  -1  -2   -0.06    0.07
  -5   1   2    0.11    0.09
   4  -1  -2    6.70    0.37
  -4   1   2    6.68    0.38
   3  -1  -2    0.36    0.07
  -3   1   2    0.46    0.08
  -3   1   2    0.50    0.03
   2  -1  -2    0.84    0.07
  -2   1   2    1.03    0.08
   1  -1  -2   87.21    4.31
  -1   1   2   88.40    4.11
   0  -1  -2    7.49    0.37
   0   1   2    7.72    0.31
  -1  -1  -2   54.38    2.11
  -1  -1  -2   51.82    2.50
   1   1   2   53.42    2.62
  -2  -1  -2    2.31    0.17
  -2  -1  -2    2.80    0.12
   2   1   2    3.01    0.17
  -3  -1  -2   16.93    0.69
  -3  -1  -2   17.34    0.85
   3   1   2   17.06    0.87
  -4  -1  -2    0.12    0.08
  -4  -1  -2    0.18    0.03
   4   1   2    0.22    0.07
  -5  -1  -2    0.69    0.15
  -5  -1  -2    0.54    0.07
   5   1   2    0.40    0.11
  -6  -1  -2    4.05    0.30
   6   1   2    3.74    0.28
  -7  -1  -2    0.14    0.13
   7   1   2    0.25    0.11
  -8  -1  -2   -0.01    0.12
   8   1   2    0.13    0.12
   7  -2  -2    0.39    0.13
  -7   2   2    0.08    0.16
   5  -2  -2    0.42    0.10
  -5   2   2    0.40    0.12
   4  -2  -2    1.22    0.12
  -4   2   2    1.26    0.13
   3  -2  -2    1.64    0.12
  -3   2   2    1.65    0.13
   2  -2  -2   22.08    1.13
  -2   2   2   23.40    1.09
   1  -2  -2    0.26    0.04
  -1   2   2    0.30    0.04
   0  -2  -2    2.34    0.12
   0  -2  -2    2.31    0.10
   0  -2  -2    2.34    0.13
  -1  -2  -2   26.34    1.31
  -1  -2  -2   27.16    1.10
   1   2   2   27.02    1.37
   1   2   2   30.18    1.17
  -2  -2  -2    3.53    0.21
  -2  -2  -2    3.88    0.17
   2   2   2    3.88    0.22
  -3  -2  -2   13.31    0.65
  -3  -2  -2   13.04    0.53
   3   2   2   12.43    0.67
  -4  -2  -2    4.30    0.28
  -4  -2  -2    4.21    0.20
   4   2   2    4.43    0.28
  -5  -2  -2    1.79    0.20
  -5  -2  -2    1.88    0.12
   5   2   2    1.70    0.20
  -7  -2  -2    0.17    0.12
   7   2   2    0.33    0.12
  -8  -2  -2    0.30    0.16
   8   2   2    0.21    0.12
   7  -3  -2   -0.07    0.13
  -7   3   2   -0.19    0.15
   6  -3  -2    0.21    0.11
  -6   3   2   -0.16    0.12
   5  -3  -2    0.27    0.09
  -5   3   2    0.17    0.11
   4  -3  -2    0.17    0.07
  -4   3   2    0.18    0.08
   3  -3  -2    0.64    0.08
  -3   3   2    0.62    0.09
   2  -3  -2    2.15    0.13
  -2   3   2    2.15    0.13
   1  -3  -2    0.01    0.03
   1  -3  -2    0.03    0.01
  -1   3   2    0.03    0.02
   0  -3  -2    4.01    0.22
   0  -3  -2    4.01    0.20
   0  -3  -2    3.99    0.17
  -1  -3  -2    4.53    0.26
  -1  -3  -2    4.51    0.20
  -1  -3  -2    4.88    0.24
  -2  -3  -2   22.60    1.09
  -2  -3  -2   23.08    0.91
   2   3   2   22.20    1.14
  -3  -3  -2    0.32    0.05
  -3  -3  -2    0.25    0.07
   3   3   2    0.41    0.09
  -4  -3  -2   12.00    0.50
  -4  -3  -2   11.78    0.62
   4   3   2   11.87    0.65
  -5  -3  -2    6.78    0.41
  -5  -3  -2    7.26    0.31
   5   3   2    5.93    0.43
  -6  -3  -2    0.12    0.05
  -6  -3  -2    0.08    0.11
   6   3   2    0.21    0.12
  -7  -3  -2    0.03    0.11
   7   3   2    0.07    0.11
  -8  -3  -2    0.09    0.13
   8   3   2    0.06    0.13
   7  -4  -2   -0.13    0.13
   6  -4  -2    0.02    0.12
   5  -4  -2    0.24    0.10
  -5   4   2    0.15    0.10
   4  -4  -2   -0.01    0.06
  -4   4   2   -0.01    0.07
   3  -4  -2    0.15    0.06
  -3   4   2    0.08    0.06
   2  -4  -2    1.62    0.12
  -2   4   2    1.49    0.11
   1  -4  -2    0.01    0.02
   1  -4  -2    0.03    0.03
  -1   4   2   -0.01    0.02
   0  -4  -2   60.15    2.97
   0  -4  -2   57.17    2.82
   0  -4  -2   63.46    2.39
  -1  -4  -2    2.70    0.14
  -1  -4  -2    2.26    0.12
  -1  -4  -2    2.24    0.17
  -2  -4  -2    6.16    0.30
  -2  -4  -2    5.73    0.26
   2   4   2    5.38    0.33
  -3  -4  -2    0.76    0.07
  -3  -4  -2    0.59    0.10
   3   4   2    0.86    0.13
  -4  -4  -2    7.17    0.40
  -4  -4  -2    7.00    0.32
   4   4   2    7.00    0.43
  -5  -4  -2   45.10    2.26
  -5  -4  -2   49.35    1.89
   5   4   2   46.71    2.38
  -6  -4  -2   -0.01    0.04
  -6  -4  -2   -0.04    0.08
   6   4   2   -0.02    0.12
  -7  -4  -2    0.32    0.13
   7   4   2    0.38    0.15
  -8  -4  -2    0.32    0.14
   8   4   2    0.26    0.15
   6  -5  -2    0.11    0.13
  -6   5   2   -0.18    0.12
   4  -5  -2    0.08    0.08
  -4   5   2    0.00    0.08
   3  -5  -2    0.48    0.09
  -3   5   2    0.32    0.08
   2  -5  -2    0.43    0.08
  -2   5   2    0.35    0.07
   1  -5  -2    4.14    0.24
   1  -5  -2    4.15    0.19
  -1   5   2    4.04    0.22
   0  -5  -2    6.38    0.35
   0  -5  -2    6.15    0.28
  -1  -5  -2   19.71    1.03
  -1  -5  -2   20.44    0.83
  -1  -5  -2   20.79    0.97
  -2  -5  -2    3.83    0.21
  -2  -5  -2    3.75    0.19
   2   5   2    3.71    0.22
   2   5   2    3.67    0.25
  -3  -5  -2    0.01    0.04
   3   5   2    0.21    0.10
  -4  -5  -2    4.26    0.27
  -4  -5  -2    3.79    0.22
   4   5   2    4.30    0.33
  -5  -5  -2   16.06    0.68
  -5  -5  -2   15.50    0.82
   5   5   2   16.20    0.89
  -6  -5  -2    0.60    0.14
  -6  -5  -2    0.53    0.09
   6   5   2    0.57    0.18
  -7  -5  -2    0.23    0.12
  -7  -5  -2    0.11    0.06
   7   5   2    0.14    0.16
   6  -6  -2    0.03    0.14
   4  -6  -2    0.17    0.10
   3  -6  -2    4.15    0.26
  -3   6   2    4.31    0.26
   2  -6  -2    0.84    0.11
  -2   6   2    0.66    0.09
   1  -6  -2    0.11    0.04
   1  -6  -2    0.21    0.07
  -1   6   2    0.08    0.05
   0  -6  -2    1.61    0.11
   0   6   2    1.83    0.11
  -1  -6  -2   16.96    0.79
  -1  -6  -2   16.47    0.69
  -1  -6  -2   16.02    0.86
  -2  -6  -2    1.20    0.10
  -2  -6  -2    1.24    0.09
   2   6   2    1.08    0.13
   2   6   2    1.18    0.13
  -3  -6  -2    9.73    0.51
  -3  -6  -2    9.88    0.44
   3   6   2   10.10    0.57
  -4  -6  -2   15.47    0.70
  -4  -6  -2   16.13    0.82
   4   6   2   17.05    0.91
  -5  -6  -2    0.24    0.06
  -6  -6  -2    0.16    0.07
  -6  -6  -2    0.30    0.11
   6   6   2    0.12    0.17
  -7  -6  -2    0.21    0.11
  -7  -6  -2   -0.07    0.06
   7   6   2   -0.02    0.18
   6  -7  -2   -0.15    0.14
   5  -7  -2   -0.09    0.12
   4  -7  -2    0.13    0.11
   3  -7  -2    0.29    0.10
   2  -7  -2    0.75    0.11
   1  -7  -2    0.56    0.11
   1  -7  -2    0.50    0.06
   0  -7  -2    0.69    0.08
  -1  -7  -2    0.58    0.08
  -1  -7  -2    0.68    0.13
  -2  -7  -2    4.75    0.23
   2   7   2    3.91    0.29
  -3  -7  -2   10.64    0.48
   3   7   2   10.78    0.63
  -4  -7  -2   19.29    0.85
   4   7   2   20.60    1.10
  -5  -7  -2    1.93    0.15
   5   7   2    1.66    0.27
  -6  -7  -2   -0.02    0.05
   6   7   2   -0.07    0.18
  -7  -7  -2   -0.04    0.06
   7   7   2   -0.15    0.19
   5  -8  -2   -0.17    0.12
   4  -8  -2    0.10    0.11
   3  -8  -2    1.30    0.15
   2  -8  -2    0.00    0.09
   1  -8  -2    5.04    0.32
   0  -8  -2    2.61    0.16
   0  -8  -2    2.85    0.22
  -1  -8  -2    0.97    0.15
  -1  -8  -2    0.85    0.09
  -2  -8  -2    1.54    0.13
  -3  -8  -2   12.42    0.58
   3   8   2   13.24    0.75
  -4  -8  -2    0.02    0.06
  -5  -8  -2    0.03    0.06
   5   8   2   -0.28    0.18
  -6  -8  -2    0.53    0.10
   6   8   2    0.41    0.23
   4  -9  -2    0.21    0.11
   3  -9  -2    0.11    0.10
   2  -9  -2   -0.06    0.09
   1  -9  -2    2.30    0.21
   0  -9  -2    0.03    0.11
   0  -9  -2   -0.05    0.03
  -1  -9  -2    0.27    0.06
  -1  -9  -2    0.29    0.13
  -2  -9  -2    1.35    0.13
  -3  -9  -2    0.59    0.11
  -4  -9  -2    0.73    0.11
   4   9   2    0.95    0.23
  -5  -9  -2    0.05    0.06
   5   9   2   -0.16    0.20
  -6  -9  -2   -0.01    0.06
   6   9   2   -0.32    0.22
   3 -10  -2    0.22    0.12
   2 -10  -2    0.17    0.12
   1 -10  -2    0.83    0.16
   0 -10  -2    0.46    0.14
  -1 -10  -2    0.17    0.14
  -2 -10  -2    0.36    0.09
  -3 -10  -2    0.02    0.07
   3  10   2    0.08    0.16
   3  10   2    0.25    0.18
  -4 -10  -2   -0.01    0.06
   4  10   2   -0.15    0.19
  -5 -10  -2   -0.04    0.06
   5  10   2   -0.28    0.21
   2 -11  -2    0.31    0.15
   1 -11  -2    0.20    0.14
   0 -11  -2    0.23    0.15
  -1 -11  -2    0.02    0.05
  -1 -11  -2   -0.03    0.15
   2  11   2    0.29    0.14
  -3 -11  -2   -0.10    0.07
   3  11   2    0.01    0.19
   3  11   2   -0.14    0.17
  -4 -11  -2   -0.02    0.07
   4  11   2   -0.08    0.21
   0 -12  -2    0.03    0.16
  -1 -12  -2    0.41    0.19
  -2 -12  -2   -0.04    0.08
   2  12   2    0.16    0.15
   3  11  -3   -0.19    0.17
  -3 -11   3   -0.09    0.08
   2  11  -3    0.57    0.19
   2  11  -3    0.61    0.18
  -2 -11   3    0.37    0.11
  -1 -11   3    0.17    0.17
  -1 -11   3    0.19    0.08
   0 -11   3    0.16    0.08
   0 -11   3    0.14    0.17
   1 -11   3    0.04    0.16
   2 -11   3   -0.21    0.16
   4  10  -3   -0.16    0.19
  -4 -10   3   -0.02    0.08
   3  10  -3   -0.17    0.14
  -3 -10   3   -0.01    0.07
   2  10  -3    0.21    0.12
   2  10  -3    0.04    0.13
  -2 -10   3    0.03    0.07
  -1 -10   3    0.13    0.15
  -1 -10   3    0.13    0.07
   0 -10   3    0.06    0.06
   0 -10   3    0.03    0.14
   1 -10   3   -0.05    0.15
   3 -10   3    0.31    0.15
   5   9  -3   -0.01    0.20
  -5  -9   3    0.18    0.09
   4   9  -3   -0.14    0.16
  -4  -9   3   -0.05    0.07
   3   9  -3   -0.04    0.13
  -3  -9   3   -0.02    0.06
   2   9  -3    0.16    0.12
   2   9  -3    0.23    0.12
  -2  -9   3    0.08    0.07
  -1  -9   3    0.28    0.08
  -1  -9   3    0.41    0.15
   0  -9   3    0.14    0.14
   0  -9   3    0.05    0.06
   1  -9   3   -0.07    0.14
   1  -9   3    0.05    0.05
   2  -9   3   -0.16    0.13
   3  -9   3    1.26    0.17
   4  -9   3    1.80    0.20
   6   8  -3   -0.09    0.20
  -6  -8   3    0.01    0.07
   5   8  -3   -0.12    0.18
  -5  -8   3    0.00    0.07
   4   8  -3    0.34    0.18
  -4  -8   3    0.35    0.09
   3   8  -3    1.67    0.21
  -3  -8   3    1.61    0.15
   2   8  -3   -0.01    0.10
   2   8  -3   -0.02    0.09
  -2  -8   3    0.05    0.06
  -1  -8   3    0.06    0.11
  -1  -8   3    0.19    0.07
   0  -8   3    1.80    0.19
   0  -8   3    1.80    0.14
   1  -8   3    0.06    0.05
   1  -8   3   -0.16    0.12
   2  -8   3    0.07    0.12
   3  -8   3    1.19    0.16
   4  -8   3    1.49    0.17
   5  -8   3    0.05    0.13
   6   7  -3    0.10    0.19
  -6  -7   3    0.17    0.07
   5   7  -3   -0.18    0.16
  -5  -7   3   -0.02    0.06
   4   7  -3   -0.14    0.14
  -4  -7   3   -0.03    0.05
   3   7  -3    1.60    0.21
  -3  -7   3    1.66    0.14
   2   7  -3    1.87    0.19
   2   7  -3    1.54    0.21
  -2  -7   3    1.39    0.14
  -1  -7   3   10.35    0.57
  -1  -7   3    9.89    0.46
   0  -7   3    2.10    0.19
   0  -7   3    2.14    0.14
   1  -7   3    0.64    0.15
   1  -7   3    0.90    0.09
   2  -7   3    1.81    0.20
   2  -7   3    2.34    0.14
   3  -7   3    2.52    0.21
   4  -7   3    0.38    0.12
   5  -7   3   -0.12    0.12
   6  -7   3   -0.10    0.15
   7   6  -3    0.01    0.18
   6   6  -3   -0.16    0.15
  -6  -6   3    0.00    0.06
   5   6  -3    1.68    0.24
  -5  -6   3    1.46    0.14
   4   6  -3    6.17    0.42
  -4  -6   3    5.70    0.30
   3   6  -3    1.23    0.20
  -3  -6   3    1.39    0.12
   2   6  -3    0.10    0.11
   2   6  -3    0.22    0.09
  -2  -6   3    0.26    0.06
  -1  -6   3    0.25    0.06
   0  -6   3    1.50    0.11
   0  -6   3    1.17    0.15
   1  -6   3    1.77    0.12
   2  -6   3   11.76    0.51
   2  -6   3   12.01    0.64
   3  -6   3    9.04    0.51
   4  -6   3    0.61    0.13
   5  -6   3   -0.07    0.11
   6  -6   3    0.07    0.15
   7   5  -3    0.16    0.16
   6   5  -3    0.12    0.15
  -6  -5   3    0.05    0.06
   5   5  -3    0.88    0.20
  -5  -5   3    0.74    0.11
   4   5  -3    1.21    0.20
  -4  -5   3    1.29    0.11
   3   5  -3   13.91    0.75
  -3  -5   3   13.36    0.59
   2   5  -3   23.61    1.23
   2   5  -3   24.47    1.05
  -2  -5   3   23.65    0.99
  -1  -5   3    7.75    0.44
  -1  -5   3    7.80    0.35
   0  -5   3    1.74    0.15
   0  -5   3    1.93    0.12
   1  -5   3    1.74    0.16
   1  -5   3    2.26    0.13
   2  -5   3   20.09    0.80
   2  -5   3   18.99    1.00
   3  -5   3    0.37    0.06
   3  -5   3    0.59    0.11
  -4   5  -3    2.47    0.21
   4  -5   3    1.88    0.18
  -5   5  -3    0.38    0.12
   5  -5   3   -0.07    0.11
   6  -5   3   -0.02    0.14
   7  -5   3   -0.20    0.16
   7   4  -3    0.46    0.15
  -7  -4   3    0.39    0.14
   6   4  -3    0.12    0.14
  -6  -4   3    0.20    0.12
   5   4  -3    0.19    0.13
  -5  -4   3    0.13    0.06
  -5  -4   3    0.20    0.10
   4   4  -3    0.25    0.12
  -4  -4   3    0.30    0.09
  -4  -4   3    0.26    0.06
   3   4  -3    0.63    0.15
  -3  -4   3    1.03    0.09
  -3  -4   3    0.83    0.11
   2   4  -3   55.63    2.84
  -2  -4   3   57.70    2.29
  -2  -4   3   58.56    2.70
  -1  -4   3    0.20    0.06
  -1  -4   3    0.20    0.04
   0  -4   3    3.14    0.16
   0  -4   3    3.05    0.20
   1  -4   3    1.91    0.15
   1  -4   3    2.18    0.12
   2  -4   3    1.36    0.10
   2  -4   3    1.81    0.14
  -3   4  -3    0.14    0.08
   3  -4   3    0.20    0.07
   3  -4   3    0.11    0.04
  -4   4  -3    0.07    0.09
   4  -4   3   -0.03    0.07
  -5   4  -3    0.02    0.10
   5  -4   3   -0.15    0.10
  -6   4  -3    0.68    0.16
   6  -4   3    0.38    0.15
  -7   4  -3    0.23    0.14
   7  -4   3   -0.03    0.16
   7   3  -3    0.19    0.11
  -7  -3   3    0.06    0.12
   6   3  -3    0.78    0.16
  -6  -3   3    0.60    0.16
   5   3  -3    2.31    0.23
  -5  -3   3    2.43    0.15
  -5  -3   3    2.26    0.22
   4   3  -3    1.46    0.18
  -4  -3   3    1.33    0.15
  -4  -3   3    1.51    0.11
   3   3  -3   -0.09    0.07
  -3  -3   3    0.01    0.03
  -3  -3   3   -0.06    0.05
   2   3  -3   20.90    1.09
  -2  -3   3   21.59    0.87
  -2  -3   3   21.82    1.03
   1   3  -3    6.79    0.39
  -1  -3   3    7.96    0.32
   0  -3   3    0.66    0.08
   0  -3   3    0.88    0.06
   1  -3   3   12.98    0.69
   1  -3   3   14.53    0.57
  -2   3  -3    4.79    0.28
   2  -3   3    5.23    0.28
   2  -3   3    4.98    0.22
  -3   3  -3    1.59    0.15
   3  -3   3    1.52    0.12
  -4   3  -3    0.42    0.11
   4  -3   3    0.37    0.08
  -5   3  -3    0.02    0.10
   5  -3   3    0.02    0.09
  -6   3  -3    0.22    0.13
   6  -3   3   -0.04    0.13
  -7   3  -3    0.26    0.14
   7  -3   3   -0.09    0.15
   7   2  -3    0.23    0.10
  -7  -2   3    0.08    0.13
   6   2  -3    2.39    0.21
  -6  -2   3    2.02    0.23
   5   2  -3    3.46    0.25
  -5  -2   3    3.08    0.26
   4   2  -3    1.10    0.15
  -4  -2   3    1.15    0.14
  -4  -2   3    1.19    0.09
   3   2  -3    1.58    0.15
  -3  -2   3    1.67    0.14
  -3  -2   3    1.59    0.10
   2   2  -3   15.11    0.83
  -2  -2   3   17.22    0.67
  -2  -2   3   16.73    0.79
   1   2  -3   26.39    1.35
  -1  -2   3   26.18    1.28
  -1  -2   3   28.78    1.09
   0  -2   3    1.00    0.06
   0  -2   3    0.91    0.07
   1  -2   3    1.03    0.06
   1  -2   3    0.88    0.07
  -2   2  -3    5.40    0.28
   2  -2   3    5.04    0.28
   2  -2   3    5.34    0.22
  -3   2  -3    7.40    0.39
   3  -2   3    7.29    0.30
   3  -2   3    6.92    0.38
  -4   2  -3    0.32    0.10
   4  -2   3    0.25    0.07
   4  -2   3    0.22    0.04
  -5   2  -3    0.17    0.12
   5  -2   3    0.05    0.09
  -6   2  -3    0.16    0.12
  -7   2  -3    0.26    0.13
   7  -2   3    0.01    0.15
   7   1  -3    0.34    0.10
  -7  -1   3    0.05    0.14
   6   1  -3    2.19    0.19
  -6  -1   3    1.82    0.23
   5   1  -3    1.68    0.16
  -5  -1   3    1.33    0.18
   4   1  -3    0.01    0.06
  -4  -1   3   -0.04    0.06
  -4  -1   3   -0.01    0.03
   3   1  -3    2.05    0.17
  -3  -1   3    2.55    0.16
  -3  -1   3    2.43    0.12
   2   1  -3   20.28    1.03
  -2  -1   3   21.33    0.99
  -2  -1   3   20.22    0.83
   1   1  -3    9.86    0.53
  -1  -1   3    9.93    0.50
  -1  -1   3   11.55    0.43
   0   1  -3   13.60    0.65
   0  -1   3   14.70    0.56
   0  -1   3   12.99    0.69
   1  -1   3    0.02    0.02
   1  -1   3    0.04    0.01
  -2   1  -3    1.86    0.13
   2  -1   3    1.95    0.12
   2  -1   3    2.03    0.09
  -3   1  -3    2.53    0.18
   3  -1   3    2.51    0.16
   3  -1   3    2.57    0.12
  -4   1  -3    4.78    0.31
   4  -1   3    5.23    0.22
   4  -1   3    4.93    0.29
  -5   1  -3    0.40    0.12
  -6   1  -3    0.07    0.10
  -7   1  -3    1.13    0.20
   7  -1   3    1.57    0.19
  -8   1  -3    0.15    0.14
   8  -1   3    0.37    0.15
   7   0  -3    0.95    0.13
  -7   0   3    0.62    0.19
   6   0  -3    1.05    0.14
  -6   0   3    0.90    0.18
   5   0  -3    1.63    0.15
  -5   0   3    1.39    0.18
   4   0  -3    5.22    0.30
  -4   0   3    5.34    0.31
   3   0  -3    1.09    0.10
  -3   0   3    1.23    0.07
  -3   0   3    1.30    0.11
   2   0  -3    2.37    0.15
  -2   0   3    2.53    0.14
  -2   0   3    2.38    0.11
   1   0  -3    6.16    0.32
  -1   0   3    6.07    0.31
  -1   0   3    6.47    0.26
   0   0  -3   38.18    1.80
   0   0   3   38.34    1.51
  -1   0  -3   26.48    1.27
   1   0   3   25.58    1.33
   1   0   3   28.83    1.07
  -2   0  -3    9.56    0.48
   2   0   3    8.97    0.48
   2   0   3   10.09    0.39
  -3   0  -3    2.37    0.18
   3   0   3    2.71    0.12
   3   0   3    2.64    0.16
  -4   0  -3    4.16    0.28
   4   0   3    4.09    0.25
   4   0   3    4.21    0.19
  -5   0  -3    0.29    0.11
  -7   0  -3    1.14    0.20
   7   0   3    1.59    0.18
  -8   0  -3    0.38    0.17
   8   0   3    0.74    0.15
   7  -1  -3    1.73    0.17
  -7   1   3    1.28    0.23
   6  -1  -3    0.05    0.09
  -6   1   3   -0.15    0.11
   5  -1  -3   -0.06    0.07
  -5   1   3   -0.04    0.08
   4  -1  -3    0.08    0.06
  -4   1   3    0.13    0.07
   3  -1  -3    0.39    0.06
  -3   1   3    0.38    0.07
  -3   1   3    0.25    0.03
   2  -1  -3    1.00    0.07
  -2   1   3    0.93    0.05
  -2   1   3    1.06    0.08
   0  -1  -3   53.93    2.60
   0   1   3   57.21    2.20
  -1  -1  -3   62.12    3.04
   1   1   3   67.33    3.20
   1   1   3   65.32    2.56
  -2  -1  -3    0.25    0.05
   2   1   3    0.31    0.07
  -3  -1  -3    0.87    0.12
   3   1   3    1.17    0.11
  -4  -1  -3    0.23    0.09
   4   1   3    0.34    0.08
  -5  -1  -3    7.47    0.42
   5   1   3    6.59    0.29
   5   1   3    6.13    0.40
  -6  -1  -3    4.33    0.31
   6   1   3    3.32    0.28
  -7  -1  -3    0.30    0.15
   7   1   3    0.58    0.13
  -8  -1  -3    0.18    0.15
   8   1   3    0.25    0.13
   7  -2  -3    0.08    0.12
  -7   2   3   -0.17    0.13
   5  -2  -3    0.19    0.09
  -5   2   3    0.14    0.10
   4  -2  -3   -0.01    0.06
  -4   2   3    0.10    0.06
   3  -2  -3    1.45    0.11
  -3   2   3    1.28    0.12
   2  -2  -3    0.91    0.07
  -2   2   3    0.89    0.08
   1  -2  -3   18.92    0.95
  -1   2   3   19.06    0.91
  -1   2   3   19.44    0.76
   0  -2  -3    3.45    0.15
   0  -2  -3    3.67    0.18
   0  -2  -3    3.25    0.18
  -1  -2  -3   10.13    0.40
  -1  -2  -3    9.81    0.48
   1   2   3    9.69    0.50
  -2  -2  -3    9.61    0.40
  -2  -2  -3    9.90    0.48
   2   2   3    9.44    0.50
  -3  -2  -3    2.20    0.11
  -3  -2  -3    2.01    0.16
   3   2   3    2.16    0.17
  -4  -2  -3    1.40    0.16
  -4  -2  -3    1.62    0.10
   4   2   3    1.76    0.16
  -5  -2  -3   27.76    1.34
  -5  -2  -3   26.69    1.09
   5   2   3   25.87    1.37
  -6  -2  -3   34.10    1.63
   6   2   3   31.11    1.66
  -7  -2  -3    0.22    0.13
   7   2   3    0.24    0.12
  -8  -2  -3    0.22    0.14
   8   2   3    0.16    0.12
   7  -3  -3   -0.05    0.12
   6  -3  -3   -0.08    0.10
   5  -3  -3    0.49    0.11
  -5   3   3    0.32    0.11
   4  -3  -3    0.07    0.06
  -4   3   3   -0.01    0.06
   3  -3  -3    1.68    0.12
  -3   3   3    1.49    0.13
   2  -3  -3    1.32    0.10
  -2   3   3    1.27    0.10
   1  -3  -3    3.18    0.13
   1  -3  -3    3.10    0.18
  -1   3   3    3.11    0.17
   0  -3  -3   18.93    0.90
   0  -3  -3   18.56    0.94
   0  -3  -3   19.30    0.76
  -1  -3  -3   21.07    1.02
  -1  -3  -3   20.28    0.82
  -1  -3  -3   19.59    0.97
  -2  -3  -3    2.47    0.16
  -2  -3  -3    2.56    0.12
   2   3   3    2.43    0.18
  -3  -3  -3   12.08    0.49
  -3  -3  -3   11.15    0.59
   3   3   3   11.56    0.62
  -4  -3  -3    0.00    0.03
  -4  -3  -3   -0.09    0.07
   4   3   3    0.16    0.09
  -5  -3  -3    2.08    0.15
  -5  -3  -3    2.74    0.24
   5   3   3    2.93    0.26
  -6  -3  -3    1.98    0.22
  -6  -3  -3    2.00    0.13
   6   3   3    2.10    0.21
  -7  -3  -3    0.73    0.16
   7   3   3    0.85    0.15
  -8  -3  -3    0.20    0.13
   8   3   3    0.33    0.14
   7  -4  -3    0.03    0.13
   6  -4  -3    0.18    0.12
   5  -4  -3    0.18    0.10
  -5   4   3    0.05    0.10
   4  -4  -3    0.63    0.10
  -4   4   3    0.59    0.11
   3  -4  -3   -0.01    0.05
   2  -4  -3    1.64    0.12
  -2   4   3    1.48    0.12
   1  -4  -3    0.74    0.08
   1  -4  -3    0.68    0.04
  -1   4   3    0.57    0.07
   0  -4  -3   23.48    0.92
   0  -4  -3   23.11    1.15
   0  -4  -3   22.21    1.09
  -1  -4  -3   67.93    3.49
  -1  -4  -3   74.03    2.81
  -1  -4  -3   71.20    3.33
  -2  -4  -3   53.97    2.62
  -2  -4  -3   57.58    2.21
   2   4   3   55.32    2.75
  -3  -4  -3    3.08    0.20
  -3  -4  -3    3.16    0.16
   3   4   3    3.16    0.22
  -4  -4  -3   14.84    0.78
  -4  -4  -3   15.60    0.65
   4   4   3   15.67    0.82
  -5  -4  -3    5.40    0.36
  -5  -4  -3    4.59    0.26
   5   4   3    5.40    0.37
  -6  -4  -3    0.11    0.10
  -6  -4  -3    0.07    0.05
   6   4   3    0.15    0.13
  -7  -4  -3   -0.01    0.05
  -7  -4  -3    0.08    0.10
   7   4   3    0.09    0.13
  -8  -4  -3    0.25    0.14
   8   4   3    0.27    0.14
   6  -5  -3    0.35    0.14
  -6   5   3   -0.13    0.14
   5  -5  -3   -0.15    0.10
  -5   5   3   -0.10    0.09
   4  -5  -3    0.11    0.08
  -4   5   3    0.05    0.08
   3  -5  -3    1.93    0.15
  -3   5   3    1.75    0.15
   2  -5  -3    4.13    0.24
  -2   5   3    4.05    0.23
   1  -5  -3    1.47    0.12
   1  -5  -3    1.29    0.08
  -1   5   3    1.39    0.10
   0  -5  -3    0.08    0.03
   0  -5  -3    0.02    0.03
   0  -5  -3    0.20    0.06
  -1  -5  -3    8.37    0.38
  -1  -5  -3    9.16    0.44
  -1  -5  -3    8.78    0.48
  -2  -5  -3    0.29    0.07
  -2  -5  -3    0.19    0.04
   2   5   3    0.24    0.07
   2   5   3    0.20    0.08
  -3  -5  -3    0.06    0.04
  -3  -5  -3    0.11    0.06
   3   5   3    0.19    0.10
  -4  -5  -3   24.55    1.27
  -4  -5  -3   26.72    1.07
   4   5   3   26.86    1.36
  -5  -5  -3    4.74    0.33
  -5  -5  -3    4.48    0.24
   5   5   3    4.95    0.36
  -6  -5  -3    0.20    0.10
  -6  -5  -3    0.16    0.06
   6   5   3    0.17    0.15
  -7  -5  -3    0.36    0.08
  -7  -5  -3    0.69    0.16
   7   5   3    0.47    0.17
   6  -6  -3    0.70    0.18
   4  -6  -3    0.17    0.10
  -4   6   3   -0.08    0.09
   3  -6  -3    3.74    0.25
  -3   6   3    3.80    0.24
   2  -6  -3    4.49    0.27
  -2   6   3    4.49    0.26
   1  -6  -3    0.78    0.10
   1  -6  -3    0.80    0.06
  -1   6   3    0.59    0.08
   0  -6  -3   41.38    1.65
   0  -6  -3   41.76    2.06
   0   6   3   40.56    1.94
  -1  -6  -3    2.87    0.16
  -1  -6  -3    2.63    0.22
  -1  -6  -3    3.32    0.18
  -2  -6  -3    0.62    0.07
  -2  -6  -3    0.62    0.08
   2   6   3    0.50    0.11
   2   6   3    0.66    0.11
  -3  -6  -3   -0.05    0.04
   3   6   3    0.06    0.10
  -4  -6  -3    8.09    0.38
  -5  -6  -3    0.13    0.05
  -5  -6  -3    0.28    0.09
   5   6   3    0.00    0.16
  -6  -6  -3    0.03    0.06
  -6  -6  -3    0.16    0.10
   6   6   3    0.19    0.17
  -7  -6  -3    0.39    0.13
  -7  -6  -3    0.20    0.07
   7   6   3    0.21    0.19
   5  -7  -3   -0.13    0.12
   4  -7  -3    0.33    0.12
  -4   7   3    0.11    0.10
   3  -7  -3    2.48    0.19
  -3   7   3    1.94    0.17
   2  -7  -3    0.11    0.08
  -2   7   3    0.16    0.06
   1  -7  -3    0.20    0.09
   0  -7  -3    9.94    0.54
   0  -7  -3    9.44    0.42
  -1  -7  -3    0.42    0.11
  -1  -7  -3    0.41    0.07
  -1  -7  -3    0.51    0.07
  -2  -7  -3    0.13    0.05
  -2  -7  -3    0.19    0.06
   2   7   3   -0.12    0.10
   3   7   3   -0.10    0.12
   4   7   3    0.29    0.18
  -5  -7  -3    2.48    0.17
   5   7   3    2.74    0.29
  -6  -7  -3    0.00    0.06
   6   7   3   -0.23    0.17
  -7  -7  -3   -0.05    0.06
   7   7   3   -0.13    0.19
   4  -8  -3    0.34    0.13
   3  -8  -3    0.24    0.11
   1  -8  -3    0.34    0.11
   0  -8  -3    0.33    0.06
   0  -8  -3    0.56    0.13
  -1  -8  -3    0.23    0.11
  -2  -8  -3    7.79    0.36
   2   8   3    7.06    0.44
   3   8   3    0.90    0.20
  -4  -8  -3    0.00    0.06
   4   8   3   -0.20    0.16
  -5  -8  -3   -0.01    0.05
   5   8   3   -0.21    0.18
  -6  -8  -3    0.14    0.07
   6   8   3   -0.01    0.21
   4  -9  -3    0.71    0.14
   3  -9  -3    0.15    0.11
   2  -9  -3    0.03    0.10
   1  -9  -3    1.03    0.16
   0  -9  -3    0.40    0.13
  -1  -9  -3    0.86    0.16
  -1  -9  -3    0.85    0.09
  -2  -9  -3    2.63    0.17
  -3  -9  -3   -0.08    0.06
   3   9   3    0.06    0.15
  -4  -9  -3   -0.06    0.05
   4   9   3   -0.09    0.17
  -5  -9  -3   -0.05    0.06
   5   9   3   -0.14    0.20
  -6  -9  -3   -0.03    0.06
   6   9   3   -0.32    0.22
   3 -10  -3    0.05    0.11
   2 -10  -3    0.04    0.11
   1 -10  -3    0.09    0.13
   0 -10  -3    0.13    0.13
  -1 -10  -3    0.06    0.05
  -1 -10  -3    0.06    0.13
  -2 -10  -3   -0.09    0.05
   2  10   3    0.15    0.11
   3  10   3   -0.05    0.16
  -4 -10  -3   -0.03    0.06
   4  10   3   -0.17    0.18
  -5 -10  -3    0.04    0.07
   5  10   3   -0.24    0.22
   2 -11  -3    0.46    0.16
   1 -11  -3    0.01    0.13
   0 -11  -3    0.03    0.14
  -1 -11  -3   -0.05    0.15
   2  11   3    0.33    0.13
  -3 -11  -3   -0.04    0.07
   3  11   3    0.06    0.18
  -4 -11  -3    0.67    0.12
   4  11   3    0.69    0.25
   0 -12  -3    0.11    0.16
  -1 -12  -3    0.48    0.19
   2  12   3    0.42    0.16
   2  12   3    0.14    0.14
   2  11  -4    0.19    0.16
   2  11  -4    0.32    0.16
  -2 -11   4    0.21    0.09
  -1 -11   4    0.22    0.09
   0 -11   4    0.13    0.08
   0 -11   4    0.14    0.17
   1 -11   4    0.04    0.17
   4  10  -4    0.00    0.19
  -4 -10   4    0.30    0.10
   3  10  -4    0.01    0.16
  -3 -10   4    0.18    0.09
   2  10  -4    0.03    0.13
   2  10  -4    0.13    0.13
  -2 -10   4    0.09    0.08
  -1 -10   4   -0.13    0.14
  -1 -10   4    0.05    0.07
   0 -10   4    0.52    0.18
   0 -10   4    0.38    0.09
   1 -10   4    0.42    0.18
   3 -10   4    0.20    0.16
   5   9  -4    0.06    0.21
  -5  -9   4    0.19    0.09
   4   9  -4   -0.08    0.17
  -4  -9   4    0.22    0.09
   3   9  -4   -0.06    0.13
  -3  -9   4   -0.05    0.06
   2   9  -4    0.01    0.11
   2   9  -4   -0.02    0.11
  -2  -9   4   -0.01    0.07
  -1  -9   4    0.19    0.08
  -1  -9   4    0.05    0.13
   0  -9   4    1.33    0.19
   0  -9   4    1.22    0.13
   1  -9   4    1.25    0.19
   1  -9   4    1.27    0.12
   2  -9   4    0.10    0.16
   3  -9   4    0.97    0.17
   4  -9   4    1.50    0.19
  -6  -8   4    0.47    0.11
   5   8  -4   -0.27    0.17
  -5  -8   4   -0.07    0.06
   4   8  -4   -0.15    0.15
  -4  -8   4   -0.05    0.06
   3   8  -4    1.32    0.20
  -3  -8   4    1.40    0.14
   2   8  -4    0.01    0.10
   2   8  -4    0.08    0.11
  -2  -8   4    0.06    0.06
  -1  -8   4    0.85    0.11
  -1  -8   4    0.70    0.15
   0  -8   4    0.26    0.13
   0  -8   4    0.26    0.07
   1  -8   4   -0.13    0.12
   1  -8   4    0.13    0.06
   2  -8   4   -0.06    0.12
   3  -8   4    4.00    0.29
   4  -8   4    1.12    0.16
   5  -8   4    0.00    0.13
   6   7  -4   -0.23    0.17
  -6  -7   4   -0.05    0.06
   5   7  -4   -0.07    0.17
  -5  -7   4   -0.02    0.06
   4   7  -4    1.29    0.23
  -4  -7   4    1.07    0.13
   3   7  -4    2.28    0.24
  -3  -7   4    2.17    0.17
   2   7  -4    9.67    0.51
   2   7  -4   10.44    0.58
  -2  -7   4    9.95    0.47
  -1  -7   4    2.82    0.23
  -1  -7   4    2.70    0.18
   0  -7   4    0.94    0.14
   0  -7   4    0.99    0.10
   1  -7   4   -0.08    0.11
   1  -7   4    0.08    0.05
   2  -7   4   -0.02    0.05
   2  -7   4   -0.15    0.11
   3  -7   4    2.03    0.19
   4  -7   4    0.03    0.11
   5  -7   4   -0.10    0.13
   6   6  -4   -0.07    0.16
  -6  -6   4    0.07    0.07
   5   6  -4    0.31    0.18
  -5  -6   4    0.26    0.08
   4   6  -4    0.45    0.17
  -4  -6   4    0.34    0.08
   3   6  -4    1.15    0.22
  -3  -6   4    1.58    0.13
   2   6  -4    2.28    0.22
   2   6  -4    2.79    0.23
  -2  -6   4    3.01    0.18
  -1  -6   4   25.51    1.08
  -1  -6   4   26.68    1.34
   0  -6   4    0.84    0.09
   0  -6   4    0.82    0.12
   1  -6   4    0.60    0.12
   1  -6   4    0.66    0.08
   2  -6   4    1.02    0.10
   2  -6   4    1.42    0.15
   3  -6   4    4.48    0.29
   4  -6   4    0.58    0.13
   6  -6   4   -0.06    0.15
   7   5  -4    0.01    0.15
   6   5  -4    0.20    0.16
  -6  -5   4    0.14    0.07
   5   5  -4    4.23    0.34
  -5  -5   4    4.00    0.24
   4   5  -4    2.49    0.25
  -4  -5   4    2.51    0.16
   3   5  -4    0.98    0.18
  -3  -5   4    1.21    0.11
   2   5  -4    0.29    0.09
  -2  -5   4    0.38    0.07
  -1  -5   4    0.63    0.08
  -1  -5   4    0.53    0.11
   0  -5   4    4.86    0.29
   0  -5   4    4.71    0.23
   1  -5   4    1.68    0.11
   1  -5   4    1.52    0.14
   3  -5   4    0.49    0.11
   3  -5   4    0.36    0.07
   4  -5   4    3.19    0.23
   7   4  -4    0.21    0.13
  -7  -4   4    0.13    0.12
   6   4  -4    0.07    0.13
  -6  -4   4   -0.05    0.10
   5   4  -4    7.35    0.48
  -5  -4   4    7.31    0.45
  -5  -4   4    8.01    0.37
   4   4  -4    0.04    0.11
  -4  -4   4    0.04    0.04
  -4  -4   4   -0.08    0.08
   3   4  -4    0.23    0.11
  -3  -4   4    0.15    0.07
  -3  -4   4    0.22    0.05
   2   4  -4    0.82    0.13
  -2  -4   4    0.94    0.08
  -2  -4   4    0.80    0.09
  -1  -4   4    2.48    0.14
   0  -4   4    0.21    0.05
   0  -4   4    0.18    0.04
   1  -4   4    1.97    0.11
   1  -4   4    1.97    0.14
   2  -4   4    0.23    0.07
   2  -4   4    0.18    0.04
  -3   4  -4    0.92    0.13
   3  -4   4    1.00    0.11
   3  -4   4    1.03    0.08
  -4   4  -4   -0.04    0.09
   4  -4   4   -0.03    0.08
  -5   4  -4    0.34    0.13
   5  -4   4    0.07    0.11
  -6   4  -4    0.50    0.14
   6  -4   4    0.00    0.15
  -7   4  -4    0.23    0.14
   7   3  -4    0.36    0.13
  -7  -3   4    0.28    0.15
   6   3  -4    0.88    0.17
  -6  -3   4    0.68    0.16
   5   3  -4    0.82    0.18
  -5  -3   4    0.83    0.16
  -5  -3   4    0.94    0.10
   4   3  -4    0.06    0.09
  -4  -3   4    0.04    0.08
  -4  -3   4    0.14    0.04
   3   3  -4    2.72    0.21
  -3  -3   4    2.72    0.15
  -3  -3   4    2.79    0.19
   2   3  -4    4.51    0.28
  -2  -3   4    4.59    0.24
  -2  -3   4    4.57    0.22
   1   3  -4    7.34    0.42
   1   3  -4    8.23    0.37
  -1  -3   4    7.80    0.34
   0  -3   4    7.65    0.42
   0  -3   4    8.36    0.34
   1  -3   4   18.65    0.74
   1  -3   4   17.61    0.91
   2  -3   4    0.13    0.05
   2  -3   4    0.15    0.03
  -3   3  -4    1.28    0.14
   3  -3   4    1.41    0.08
   3  -3   4    1.34    0.12
  -4   3  -4    0.07    0.09
   4  -3   4    0.07    0.03
   4  -3   4    0.04    0.07
  -5   3  -4    0.01    0.10
   5  -3   4   -0.13    0.09
  -6   3  -4    0.14    0.12
  -7   3  -4    0.47    0.16
   7  -3   4   -0.11    0.17
   7   2  -4    0.12    0.09
  -7  -2   4   -0.11    0.12
   6   2  -4    1.63    0.18
  -6  -2   4    1.50    0.20
   5   2  -4    1.00    0.15
  -5  -2   4    0.79    0.16
   4   2  -4    0.41    0.10
  -4  -2   4    0.31    0.10
  -4  -2   4    0.30    0.05
   3   2  -4    5.90    0.35
  -3  -2   4    6.20    0.33
  -3  -2   4    6.13    0.27
   2   2  -4    1.05    0.11
  -2  -2   4    1.02    0.09
  -2  -2   4    1.12    0.08
   1   2  -4   15.02    0.79
  -1  -2   4   15.12    0.75
  -1  -2   4   17.01    0.64
   0  -2   4    8.07    0.33
   0  -2   4    7.37    0.40
  -1   2  -4    3.78    0.20
   1  -2   4    3.85    0.17
   1  -2   4    3.89    0.21
  -2   2  -4    1.25    0.11
   2  -2   4    1.23    0.09
   2  -2   4    1.34    0.07
  -3   2  -4    4.84    0.29
   3  -2   4    5.00    0.22
   3  -2   4    4.64    0.27
  -4   2  -4    0.02    0.08
   4  -2   4    0.00    0.03
   4  -2   4   -0.02    0.06
  -5   2  -4   -0.02    0.10
   7  -2   4    0.42    0.19
  -7  -1   4   -0.19    0.12
   6   1  -4    1.85    0.18
  -6  -1   4    1.57    0.21
   5   1  -4    0.74    0.12
  -5  -1   4    0.73    0.15
   4   1  -4    0.86    0.12
  -4  -1   4    0.87    0.12
  -4  -1   4    0.99    0.08
   3   1  -4    1.48    0.13
  -3  -1   4    1.54    0.12
  -3  -1   4    1.48    0.09
   2   1  -4    1.73    0.12
  -2  -1   4    1.71    0.11
  -2  -1   4    1.71    0.09
   1   1  -4    3.97    0.22
  -1  -1   4    4.56    0.19
  -1  -1   4    3.87    0.21
   0   1  -4   23.59    1.14
   0  -1   4   24.70    0.97
  -1   1  -4    0.49    0.05
   1  -1   4    0.54    0.04
   1  -1   4    0.47    0.04
  -2   1  -4    6.35    0.33
   2  -1   4    6.13    0.33
   2  -1   4    6.55    0.27
  -3   1  -4   10.62    0.53
   3  -1   4   10.25    0.42
   3  -1   4    9.46    0.52
  -4   1  -4   -0.02    0.08
   4  -1   4    0.02    0.03
   4  -1   4    0.07    0.06
  -5   1  -4    0.21    0.11
   5  -1   4    0.11    0.04
  -6   1  -4    0.54    0.15
  -7   1  -4    2.95    0.29
   7  -1   4    3.37    0.28
  -8   1  -4    0.09    0.15
   8  -1   4    0.33    0.16
   7   0  -4    0.25    0.09
   6   0  -4    0.29    0.10
  -6   0   4   -0.04    0.12
   5   0  -4    2.82    0.20
  -5   0   4    2.61    0.23
   4   0  -4    0.03    0.05
  -4   0   4   -0.01    0.06
   3   0  -4    1.94    0.14
  -3   0   4    2.18    0.15
  -3   0   4    2.04    0.10
   2   0  -4    0.30    0.05
  -2   0   4    0.29    0.04
  -2   0   4    0.25    0.05
   1   0  -4    0.17    0.03
  -1   0   4    0.14    0.03
  -1   0   4    0.13    0.02
   0   0  -4  249.71   11.97
   0   0   4  262.53   10.09
  -1   0  -4    1.29    0.09
   1   0   4    1.37    0.07
  -2   0  -4    0.16    0.04
   2   0   4    0.13    0.02
  -3   0  -4    4.29    0.26
   3   0   4    4.00    0.24
   3   0   4    4.41    0.19
  -4   0  -4    1.22    0.16
   4   0   4    1.25    0.08
   4   0   4    1.35    0.12
  -5   0  -4    0.00    0.09
  -6   0  -4   10.96    0.60
   6   0   4    9.80    0.58
  -7   0  -4    6.25    0.44
   7   0   4    6.84    0.42
  -8   0  -4    0.07    0.14
   8   0   4    0.44    0.14
  -7   1   4   -0.16    0.12
   6  -1  -4   -0.09    0.08
   5  -1  -4    0.40    0.09
  -5   1   4    0.27    0.12
   4  -1  -4    1.07    0.11
  -4   1   4    1.00    0.12
   3  -1  -4    6.88    0.36
  -3   1   4    6.86    0.36
  -3   1   4    6.65    0.28
   2  -1  -4    4.78    0.25
  -2   1   4    4.31    0.20
  -2   1   4    4.77    0.25
   1  -1  -4    0.90    0.06
  -1   1   4    0.89    0.07
  -1   1   4    0.91    0.05
   0  -1  -4   49.53    2.31
   0   1   4   48.88    1.94
  -1  -1  -4   47.73    2.29
   1   1   4   49.67    1.92
  -2  -1  -4   30.95    1.53
   2   1   4   32.87    1.28
   2   1   4   33.06    1.60
  -3  -1  -4    1.85    0.15
   3   1   4    1.66    0.14
   3   1   4    1.58    0.09
  -4  -1  -4    0.62    0.13
   4   1   4    0.76    0.06
   4   1   4    0.82    0.11
  -5  -1  -4    3.59    0.27
   5   1   4    2.64    0.23
   5   1   4    3.06    0.16
  -6  -1  -4    4.62    0.34
   6   1   4    4.31    0.31
  -7  -1  -4    1.11    0.20
   7   1   4    1.35    0.17
  -8  -1  -4    0.47    0.18
   8   1   4    0.83    0.16
   7  -2  -4    0.11    0.11
   6  -2  -4   -0.07    0.09
   5  -2  -4   -0.04    0.07
   4  -2  -4    0.15    0.07
  -4   2   4    0.14    0.07
   3  -2  -4   -0.03    0.04
  -3   2   4   -0.04    0.04
   2  -2  -4    8.64    0.44
  -2   2   4    8.47    0.43
   1  -2  -4    3.50    0.18
  -1   2   4    3.24    0.14
  -1   2   4    3.50    0.18
   0  -2  -4   11.23    0.57
   0   2   4   12.28    0.47
  -1  -2  -4   12.82    0.63
   1   2   4   13.81    0.53
   1   2   4   12.56    0.66
  -2  -2  -4  181.30    8.93
  -2  -2  -4  197.32    7.53
   2   2   4  193.77    9.33
  -3  -2  -4   22.13    1.09
  -3  -2  -4   23.13    0.91
   3   2   4   22.15    1.13
  -4  -2  -4    0.13    0.08
  -4  -2  -4    0.08    0.03
   4   2   4    0.16    0.08
  -5  -2  -4    1.91    0.23
   5   2   4    2.13    0.22
  -7  -2  -4    0.12    0.12
   7   2   4    0.24    0.12
  -8  -2  -4    0.05    0.13
   8   2   4    0.15    0.12
   7  -3  -4    0.06    0.12
  -7   3   4   -0.19    0.14
   6  -3  -4    0.33    0.12
  -5   3   4    0.06    0.10
   4  -3  -4    1.27    0.12
  -4   3   4    1.13    0.13
   3  -3  -4    2.26    0.15
  -3   3   4    2.11    0.16
   2  -3  -4    0.70    0.07
  -2   3   4    0.60    0.08
   1  -3  -4   15.73    0.78
  -1   3   4   15.37    0.62
  -1   3   4   15.32    0.75
   0  -3  -4    0.46    0.06
   0  -3  -4    0.39    0.06
   0  -3  -4    0.42    0.03
  -1  -3  -4   11.90    0.61
  -1  -3  -4   13.16    0.51
  -2  -3  -4    3.26    0.20
  -2  -3  -4    3.42    0.16
   2   3   4    3.17    0.21
  -3  -3  -4    1.90    0.11
  -3  -3  -4    1.96    0.15
   3   3   4    1.80    0.16
  -4  -3  -4    0.18    0.04
  -4  -3  -4    0.15    0.08
   4   3   4    0.25    0.10
  -5  -3  -4   29.31    1.20
  -5  -3  -4   30.09    1.47
   5   3   4   29.46    1.51
  -6  -3  -4    0.83    0.18
  -6  -3  -4    1.02    0.10
   6   3   4    1.18    0.17
  -7  -3  -4    0.04    0.11
   7   3   4    0.09    0.11
  -8  -3  -4    0.25    0.14
   8   3   4    0.48    0.15
   7  -4  -4    0.04    0.14
   6  -4  -4    0.80    0.15
   5  -4  -4    1.86    0.17
  -5   4   4    1.56    0.18
   4  -4  -4   -0.03    0.07
  -4   4   4   -0.03    0.07
   3  -4  -4    0.32    0.07
  -3   4   4    0.16    0.08
   2  -4  -4    5.18    0.28
  -2   4   4    4.58    0.27
   1  -4  -4   13.64    0.71
   1  -4  -4   14.26    0.56
  -1   4   4   14.11    0.68
   0  -4  -4    4.31    0.23
   0  -4  -4    4.35    0.19
   0  -4  -4    4.26    0.25
  -1  -4  -4   58.84    2.87
  -1  -4  -4   58.98    2.74
  -1  -4  -4   56.98    2.31
  -2  -4  -4    0.25    0.04
  -2  -4  -4    0.30    0.06
   2   4   4    0.32    0.07
  -3  -4  -4    0.11    0.05
  -3  -4  -4    0.10    0.03
   3   4   4    0.13    0.08
  -4  -4  -4    0.22    0.11
  -4  -4  -4    0.37    0.07
  -5  -4  -4    0.90    0.10
  -5  -4  -4    0.71    0.19
  -6  -4  -4    1.55    0.12
  -6  -4  -4    1.52    0.19
   6   4   4    1.51    0.20
  -7  -4  -4    0.03    0.05
  -7  -4  -4    0.20    0.12
   7   4   4    0.09    0.13
  -8  -4  -4    0.11    0.13
   8   4   4    0.15    0.13
   5  -5  -4   -0.04    0.11
  -5   5   4    0.02    0.10
   4  -5  -4    0.44    0.10
  -4   5   4    0.47    0.11
   3  -5  -4    0.55    0.10
  -3   5   4    0.33    0.09
   2  -5  -4    0.99    0.11
  -2   5   4    0.71    0.10
   1  -5  -4    6.77    0.39
   1  -5  -4    7.31    0.30
  -1   5   4    7.36    0.37
   0  -5  -4    0.00    0.02
   0  -5  -4   -0.04    0.03
   0  -5  -4    0.02    0.06
  -1  -5  -4   29.90    1.42
  -1  -5  -4   30.42    1.49
  -1  -5  -4   28.81    1.19
  -2  -5  -4    0.60    0.08
  -2  -5  -4    0.62    0.06
   2   5   4    0.55    0.09
   2   5   4    0.49    0.10
  -3  -5  -4    8.58    0.46
  -3  -5  -4    8.82    0.38
   3   5   4    8.62    0.50
   4   5   4    0.23    0.13
   5   5   4    0.05    0.13
  -6  -5  -4    0.38    0.12
  -6  -5  -4    0.18    0.06
   6   5   4    0.09    0.15
  -7  -5  -4    0.26    0.13
  -7  -5  -4    0.18    0.07
   7   5   4    0.31    0.16
   5  -6  -4    0.12    0.14
  -5   6   4    0.26    0.13
   4  -6  -4    0.69    0.13
  -4   6   4    0.77    0.13
   3  -6  -4    1.03    0.13
  -3   6   4    1.03    0.13
   2  -6  -4    3.85    0.25
  -2   6   4    4.18    0.24
   1  -6  -4    2.30    0.12
   1  -6  -4    2.21    0.17
  -1   6   4    2.37    0.15
   0  -6  -4    3.32    0.22
   0  -6  -4    3.08    0.16
  -1  -6  -4    0.36    0.06
  -1  -6  -4    0.41    0.10
  -2  -6  -4    0.03    0.03
  -2  -6  -4    0.03    0.04
   2   6   4    0.02    0.07
  -3  -6  -4    0.35    0.07
  -3  -6  -4    0.23    0.08
   3   6   4    0.32    0.12
   4   6   4    0.47    0.15
  -5  -6  -4    0.83    0.10
  -5  -6  -4    0.97    0.14
   5   6   4    0.84    0.20
  -6  -6  -4    0.47    0.08
   6   6   4    0.54    0.19
  -7  -6  -4    0.41    0.13
  -7  -6  -4    0.18    0.07
   7   6   4    0.00    0.18
  -5   7   4   -0.13    0.10
   4  -7  -4    1.24    0.16
  -4   7   4    1.29    0.16
   3  -7  -4    8.16    0.47
  -3   7   4    8.50    0.45
   2  -7  -4    0.13    0.09
  -2   7   4    0.21    0.07
   1  -7  -4    0.02    0.07
  -1   7   4    0.07    0.05
   0  -7  -4    0.33    0.10
   0  -7  -4    0.14    0.04
   0   7   4    0.21    0.06
  -1  -7  -4    2.11    0.13
  -1  -7  -4    2.05    0.14
  -1  -7  -4    2.17    0.18
  -2  -7  -4    4.37    0.22
  -2  -7  -4    4.35    0.25
   2   7   4    4.08    0.28
  -3  -7  -4   -0.05    0.04
   3   7   4    0.00    0.11
  -4  -7  -4    0.01    0.07
  -5  -7  -4    0.14    0.06
  -5  -7  -4    0.26    0.09
   5   7   4    0.10    0.18
  -6  -7  -4    0.12    0.09
  -6  -7  -4    0.03    0.06
   6   7   4   -0.06    0.18
  -7  -7  -4    0.02    0.06
   7   7   4   -0.27    0.19
   4  -8  -4   -0.05    0.11
   3  -8  -4   -0.10    0.10
   2  -8  -4   -0.13    0.09
   1  -8  -4   -0.04    0.09
   0  -8  -4    0.16    0.10
   0  -8  -4    0.14    0.04
  -1  -8  -4    0.45    0.07
  -1  -8  -4    0.60    0.13
  -2  -8  -4    1.11    0.11
   2   8   4    1.52    0.16
  -3  -8  -4    1.15    0.13
   3   8   4    1.54    0.20
  -4  -8  -4   -0.01    0.05
   4   8   4    0.00    0.16
  -5  -8  -4    0.29    0.07
   5   8   4    0.13    0.20
  -6  -8  -4    0.02    0.06
   6   8   4   -0.03    0.21
   4  -9  -4    0.08    0.11
   3  -9  -4   -0.03    0.10
   2  -9  -4    0.03    0.10
   1  -9  -4    1.13    0.16
   0  -9  -4   -0.06    0.11
  -1  -9  -4    0.17    0.05
  -1  -9  -4    0.40    0.14
  -2  -9  -4    1.36    0.13
   2   9   4    1.92    0.18
   3   9   4    0.17    0.16
  -4  -9  -4    0.40    0.08
   4   9   4    0.57    0.20
  -5  -9  -4    0.02    0.06
   5   9   4   -0.30    0.20
  -6  -9  -4    0.22    0.08
   6   9   4   -0.06    0.24
   3 -10  -4    0.16    0.12
   2 -10  -4   -0.03    0.11
   1 -10  -4    0.15    0.13
   0 -10  -4    0.22    0.13
  -1 -10  -4    0.08    0.05
  -1 -10  -4    0.04    0.13
  -2 -10  -4    0.00    0.05
   2  10   4    0.24    0.12
   3  10   4    0.08    0.16
  -4 -10  -4   -0.02    0.06
   4  10   4   -0.23    0.18
  -5 -10  -4    0.08    0.07
   5  10   4   -0.01    0.23
   2 -11  -4    0.43    0.15
   1 -11  -4    0.15    0.14
   0 -11  -4    0.13    0.14
  -1 -11  -4   -0.05    0.14
   2  11   4    0.63    0.15
  -3 -11  -4   -0.04    0.07
   3  11   4    0.04    0.18
  -4 -11  -4    0.27    0.09
   4  11   4    0.27    0.23
   0 -12  -4    0.10    0.16
  -1 -12  -4    0.18    0.18
   2  12   4    0.14    0.15
   2  12   4    0.35    0.16
  -2 -11   5    0.11    0.10
  -1 -11   5    0.22    0.09
   0 -11   5    0.03    0.07
   0 -11   5   -0.02    0.17
   1 -11   5    0.31    0.19
  -4 -10   5    0.12    0.09
   3  10  -5    0.28    0.18
  -3 -10   5    0.42    0.11
   2  10  -5    0.47    0.16
   2  10  -5    0.54    0.16
  -2 -10   5    0.56    0.12
  -1 -10   5    0.29    0.09
   0 -10   5    0.12    0.07
   0 -10   5    0.09    0.16
   1 -10   5    0.14    0.17
   2 -10   5   -0.19    0.17
   3 -10   5    0.21    0.18
  -5  -9   5   -0.02    0.07
   4   9  -5   -0.03    0.18
  -4  -9   5    0.20    0.09
   3   9  -5    1.51    0.23
  -3  -9   5    1.56    0.17
   2   9  -5   -0.02    0.11
   2   9  -5   -0.02    0.12
  -2  -9   5    0.03    0.07
  -1  -9   5    0.24    0.08
   0  -9   5    1.47    0.20
   0  -9   5    1.26    0.13
   1  -9   5   -0.03    0.15
   1  -9   5    0.09    0.06
   2  -9   5   -0.10    0.16
   3  -9   5    0.57    0.16
   4  -9   5    1.73    0.21
  -5  -8   5   -0.04    0.06
   4   8  -5   -0.23    0.16
  -4  -8   5    0.00    0.07
   3   8  -5    0.39    0.16
  -3  -8   5    0.37    0.10
   2   8  -5    0.55    0.13
   2   8  -5    0.42    0.14
  -2  -8   5    0.47    0.10
  -1  -8   5    1.37    0.13
  -1  -8   5    1.23    0.19
   0  -8   5    3.45    0.26
   0  -8   5    3.25    0.21
   1  -8   5    1.03    0.17
   1  -8   5    1.03    0.11
   2  -8   5   -0.10    0.13
   2  -8   5   -0.05    0.05
   4  -8   5    0.45    0.14
   5  -8   5   -0.02    0.13
   6   7  -5   -0.16    0.17
  -6  -7   5    0.07    0.08
   5   7  -5   -0.20    0.16
  -5  -7   5    0.00    0.06
   4   7  -5    4.21    0.35
  -4  -7   5    4.03    0.25
   3   7  -5    0.10    0.14
  -3  -7   5    0.03    0.07
   2   7  -5    3.03    0.24
   2   7  -5    3.14    0.25
  -2  -7   5    2.92    0.19
  -1  -7   5    0.09    0.09
  -1  -7   5    0.20    0.06
   0  -7   5    0.04    0.05
   0  -7   5    0.10    0.09
   1  -7   5    0.14    0.12
   1  -7   5    0.20    0.06
   2  -7   5    0.16    0.06
   2  -7   5    0.27    0.12
   3  -7   5    0.37    0.12
   4  -7   5    0.04    0.11
   5  -7   5   -0.01    0.14
   6   6  -5   -0.06    0.16
  -6  -6   5   -0.06    0.06
   5   6  -5    0.38    0.18
  -5  -6   5    0.57    0.10
   4   6  -5    7.23    0.47
  -4  -6   5    6.74    0.35
   3   6  -5   -0.06    0.12
  -3  -6   5    0.04    0.06
   2   6  -5    1.97    0.20
  -2  -6   5    2.12    0.15
  -1  -6   5    0.89    0.10
   0  -6   5   -0.05    0.04
   0  -6   5    0.04    0.07
   1  -6   5    0.18    0.10
   1  -6   5    0.16    0.06
   2  -6   5   -0.04    0.09
   2  -6   5   -0.02    0.05
   3  -6   5    1.76    0.17
   3  -6   5    1.41    0.11
   4  -6   5   -0.02    0.11
   6  -6   5   -0.18    0.15
   6   5  -5    0.06    0.15
   5   5  -5   -0.09    0.14
  -5  -5   5    0.00    0.05
   4   5  -5    3.26    0.28
  -4  -5   5    3.19    0.20
   3   5  -5    0.43    0.14
  -3  -5   5    0.49    0.08
   2   5  -5    8.21    0.47
  -2  -5   5    8.14    0.38
  -1  -5   5    0.18    0.05
   0  -5   5    1.23    0.10
   0  -5   5    1.48    0.13
   1  -5   5    2.20    0.14
   1  -5   5    2.59    0.18
   2  -5   5    0.75    0.08
   2  -5   5    0.89    0.11
   3  -5   5    2.79    0.20
   3  -5   5    2.59    0.15
   4  -5   5    1.30    0.16
   7   4  -5    0.27    0.14
   6   4  -5   -0.02    0.12
  -6  -4   5   -0.07    0.11
   5   4  -5    4.01    0.32
  -5  -4   5    4.41    0.23
  -5  -4   5    3.68    0.29
   4   4  -5   -0.01    0.11
  -4  -4   5    0.02    0.05
  -4  -4   5   -0.09    0.08
   3   4  -5    0.09    0.10
  -3  -4   5    0.11    0.05
  -3  -4   5    0.12    0.07
   2   4  -5    0.71    0.13
  -2  -4   5    0.71    0.08
   1   4  -5    0.24    0.06
  -1  -4   5    0.20    0.05
   0  -4   5    0.95    0.09
   0  -4   5    0.77    0.07
   1  -4   5    0.12    0.04
   1  -4   5    0.19    0.06
   2  -4   5    0.41    0.06
   2  -4   5    0.39    0.08
  -3   4  -5    0.39    0.09
   3  -4   5    0.39    0.06
   3  -4   5    0.39    0.09
  -4   4  -5   -0.04    0.09
   4  -4   5    0.03    0.09
  -5   4  -5    0.26    0.12
   5  -4   5    0.06    0.11
  -6   4  -5    0.10    0.12
  -7   4  -5    0.32    0.16
   7   3  -5    0.12    0.11
  -7  -3   5   -0.07    0.12
   6   3  -5    0.16    0.11
  -6  -3   5   -0.09    0.11
   5   3  -5    0.75    0.15
  -5  -3   5    0.84    0.10
  -5  -3   5    0.69    0.15
   4   3  -5    1.74    0.18
  -4  -3   5    1.38    0.16
  -4  -3   5    1.75    0.12
   3   3  -5    5.87    0.35
  -3  -3   5    5.83    0.28
  -3  -3   5    5.81    0.32
   2   3  -5    1.48    0.14
  -2  -3   5    1.43    0.10
  -2  -3   5    1.32    0.10
   1   3  -5   10.89    0.47
   1   3  -5   10.13    0.55
  -1  -3   5   10.52    0.45
   0  -3   5    6.20    0.28
   0  -3   5    6.38    0.34
   1  -3   5    1.10    0.08
   1  -3   5    1.22    0.10
  -2   3  -5    0.05    0.04
   2  -3   5    0.04    0.05
   2  -3   5    0.05    0.03
  -3   3  -5   -0.02    0.06
   3  -3   5   -0.05    0.05
   3  -3   5   -0.03    0.03
  -4   3  -5    0.96    0.14
   4  -3   5    0.72    0.11
   4  -3   5    0.73    0.07
  -5   3  -5    0.08    0.11
   5  -3   5   -0.06    0.09
  -6   3  -5    0.01    0.12
   7   2  -5    0.16    0.10
   6   2  -5    0.59    0.13
  -6  -2   5    0.32    0.15
   5   2  -5    2.09    0.19
  -5  -2   5    1.64    0.19
   4   2  -5    0.06    0.08
   3   2  -5    1.78    0.16
  -3  -2   5    1.84    0.11
  -3  -2   5    1.80    0.14
   2   2  -5    6.88    0.39
  -2  -2   5    7.40    0.31
  -2  -2   5    7.05    0.36
   1   2  -5    2.99    0.18
  -1  -2   5    2.83    0.16
  -1  -2   5    3.19    0.15
   0   2  -5    1.72    0.10
   0  -2   5    1.82    0.10
   0  -2   5    1.74    0.11
  -1   2  -5   16.59    0.80
   1  -2   5   16.37    0.84
   1  -2   5   17.34    0.68
  -2   2  -5    1.00    0.09
   2  -2   5    0.96    0.07
   2  -2   5    0.78    0.08
  -3   2  -5    0.39    0.08
   3  -2   5    0.27    0.05
   3  -2   5    0.23    0.06
  -4   2  -5    0.22    0.09
   4  -2   5    0.15    0.04
   4  -2   5    0.25    0.07
  -5   2  -5    1.02    0.17
   5  -2   5    0.99    0.14
  -6   2  -5    0.13    0.13
  -7   2  -5    5.31    0.39
   7  -2   5    5.23    0.38
   7   1  -5    0.14    0.09
  -7  -1   5   -0.19    0.13
   6   1  -5    0.79    0.13
   5   1  -5    2.57    0.19
  -5  -1   5    2.27    0.22
  -4  -1   5    0.29    0.11
  -4  -1   5    0.37    0.07
   3   1  -5    2.51    0.18
  -3  -1   5    2.72    0.14
  -3  -1   5    2.63    0.17
   2   1  -5    7.51    0.40
  -2  -1   5    7.72    0.33
  -2  -1   5    7.73    0.39
   1   1  -5    1.41    0.10
  -1  -1   5    1.37    0.09
  -1  -1   5    1.41    0.08
   0   1  -5    1.09    0.07
   0  -1   5    1.10    0.07
  -1   1  -5    0.61    0.06
   1  -1   5    0.62    0.05
  -2   1  -5   21.90    1.05
   2  -1   5   20.84    1.09
   2  -1   5   23.11    0.88
  -3   1  -5   16.06    0.75
   3  -1   5   13.69    0.76
   3  -1   5   15.33    0.62
  -4   1  -5    3.53    0.24
   4  -1   5    3.41    0.22
   4  -1   5    3.38    0.17
  -5   1  -5   -0.05    0.09
   5  -1   5   -0.02    0.03
  -6   1  -5    0.16    0.13
  -7   1  -5    2.57    0.28
   7  -1   5    3.21    0.27
  -7   0   5   -0.09    0.13
   6   0  -5    0.36    0.10
  -6   0   5    0.10    0.12
   5   0  -5    0.70    0.11
  -5   0   5    0.52    0.14
  -4   0   5    0.06    0.08
   3   0  -5   -0.02    0.04
  -3   0   5    0.05    0.02
  -3   0   5   -0.05    0.04
   2   0  -5    0.27    0.04
  -2   0   5    0.22    0.04
  -2   0   5    0.32    0.05
   1   0  -5   32.99    1.68
  -1   0   5   32.19    1.61
  -1   0   5   37.42    1.36
   0   0  -5    9.20    0.46
   0   0   5    9.58    0.39
  -1   0  -5   12.45    0.61
   1   0   5   12.74    0.51
   2   0   5    0.28    0.04
   2   0   5    0.18    0.05
  -3   0  -5   76.61    3.52
   3   0   5   76.58    2.95
   3   0   5   71.02    3.67
  -4   0  -5    1.41    0.16
   4   0   5    1.53    0.13
   4   0   5    1.39    0.09
  -5   0  -5    0.11    0.11
   5   0   5    0.03    0.04
   5   0   5   -0.04    0.08
  -6   0  -5    4.29    0.34
   6   0   5    4.89    0.31
  -8   0  -5    0.08    0.14
   8   0   5    0.45    0.15
   7  -1  -5    0.25    0.09
  -6   1   5   -0.09    0.12
   5  -1  -5    0.36    0.09
  -5   1   5    0.05    0.11
   4  -1  -5    0.91    0.10
  -4   1   5    0.62    0.11
   3  -1  -5   10.08    0.52
  -3   1   5    9.93    0.51
  -2   1   5    0.60    0.07
  -2   1   5    0.55    0.05
   1  -1  -5    6.40    0.33
  -1   1   5    6.26    0.33
  -1   1   5    6.70    0.27
   0  -1  -5   86.63    4.24
   0   1   5   94.80    3.57
  -1  -1  -5    1.61    0.11
   1   1   5    1.73    0.08
  -2  -1  -5    2.23    0.15
   2   1   5    2.46    0.12
   2   1   5    2.16    0.15
  -3  -1  -5    5.99    0.33
   3   1   5    5.78    0.26
   3   1   5    6.03    0.33
  -4  -1  -5    0.69    0.13
   4   1   5    0.87    0.07
   4   1   5    0.85    0.11
  -5  -1  -5    1.07    0.17
   5   1   5    0.76    0.09
   5   1   5    1.07    0.14
  -6  -1  -5    2.72    0.28
   6   1   5    3.03    0.23
  -7  -1  -5    0.03    0.14
  -8  -1  -5    0.47    0.17
   8   1   5    0.73    0.15
   7  -2  -5    0.15    0.11
   6  -2  -5    0.32    0.11
  -6   2   5    0.02    0.13
   5  -2  -5    0.49    0.11
  -5   2   5    0.23    0.12
   4  -2  -5    0.28    0.08
  -4   2   5    0.24    0.08
   3  -2  -5    0.31    0.07
  -3   2   5    0.41    0.07
   2  -2  -5    0.09    0.03
   1  -2  -5   30.39    1.48
  -1   2   5   30.42    1.19
  -1   2   5   29.06    1.42
   0  -2  -5    2.06    0.13
   0   2   5    2.12    0.10
  -1  -2  -5    1.54    0.11
   1   2   5    1.72    0.09
  -2  -2  -5   34.13    1.70
   2   2   5   37.40    1.78
   2   2   5   35.97    1.43
  -3  -2  -5    1.02    0.12
   3   2   5    1.17    0.12
   3   2   5    1.15    0.08
  -4  -2  -5    0.10    0.07
   4   2   5    0.10    0.04
   4   2   5    0.11    0.08
  -5  -2  -5   -0.09    0.10
   5   2   5    0.10    0.05
   5   2   5    0.14    0.10
   6   2   5    2.80    0.22
   6   2   5    2.19    0.15
  -7  -2  -5    0.30    0.15
   7   2   5    0.35    0.12
  -8  -2  -5    0.10    0.15
   8   2   5    0.25    0.13
   7  -3  -5   -0.05    0.11
   6  -3  -5    0.38    0.12
  -6   3   5   -0.05    0.13
   5  -3  -5    4.70    0.29
  -5   3   5    4.16    0.30
   4  -3  -5    0.52    0.11
  -4   3   5    0.75    0.11
   3  -3  -5    0.67    0.08
  -3   3   5    0.52    0.09
   1  -3  -5    3.23    0.18
  -1   3   5    3.32    0.18
  -1   3   5    2.96    0.14
   0  -3  -5    7.58    0.39
   0  -3  -5    7.32    0.40
   0   3   5    8.20    0.32
  -1  -3  -5   17.37    0.84
  -2  -3  -5   14.45    0.74
  -2  -3  -5   15.12    0.61
   2   3   5   15.32    0.77
  -3  -3  -5    2.50    0.18
  -3  -3  -5    2.75    0.14
   3   3   5    2.59    0.19
  -4  -3  -5    6.33    0.28
  -4  -3  -5    6.34    0.37
   4   3   5    6.19    0.37
   5   3   5    3.05    0.24
   6   3   5    0.47    0.07
   6   3   5    0.58    0.14
  -7  -3  -5    0.27    0.14
   7   3   5    0.19    0.12
   7   3   5    0.12    0.06
  -8  -3  -5    0.24    0.15
   8   3   5    0.19    0.14
  -6   4   5    0.03    0.14
   5  -4  -5    3.13    0.22
  -5   4   5    2.04    0.21
  -4   4   5   -0.02    0.07
   3  -4  -5    0.18    0.06
  -3   4   5    0.07    0.06
   2  -4  -5   24.20    1.21
  -2   4   5   24.09    1.17
   1  -4  -5    0.16    0.05
  -1   4   5    0.14    0.03
  -1   4   5    0.25    0.05
   0  -4  -5    5.19    0.22
   0  -4  -5    5.25    0.27
   0  -4  -5    4.96    0.28
  -1  -4  -5    0.81    0.06
  -1  -4  -5    1.02    0.09
  -1  -4  -5    0.97    0.10
  -2  -4  -5   13.81    0.56
  -2  -4  -5   13.11    0.67
   2   4   5   13.49    0.70
  -3  -4  -5    0.54    0.06
  -3  -4  -5    0.41    0.09
   3   4   5    0.58    0.12
  -4  -4  -5    0.09    0.09
  -4  -4  -5    0.22    0.05
   4   4   5    0.37    0.11
   5   4   5    0.12    0.12
  -6  -4  -5    0.44    0.08
  -6  -4  -5    0.43    0.13
   6   4   5    0.66    0.15
  -7  -4  -5    0.26    0.13
   7   4   5    0.31    0.13
   7   4   5    0.19    0.06
   6  -5  -5    2.19    0.22
  -6   5   5    1.50    0.23
  -5   5   5    0.04    0.10
  -4   5   5   -0.05    0.07
   3  -5  -5    1.97    0.16
  -3   5   5    1.99    0.16
   2  -5  -5   15.57    0.80
  -2   5   5   15.82    0.78
   1  -5  -5    0.02    0.06
  -1   5   5    0.19    0.06
   0  -5  -5    1.11    0.09
   0  -5  -5    1.13    0.11
   0  -5  -5    1.03    0.07
  -1  -5  -5    2.24    0.15
  -1  -5  -5    2.28    0.16
  -1  -5  -5    2.05    0.12
  -2  -5  -5    0.01    0.04
  -2  -5  -5    0.01    0.02
   2   5   5   -0.02    0.05
   2   5   5    0.03    0.06
  -3  -5  -5    0.66    0.11
  -3  -5  -5    0.80    0.08
   3   5   5    0.91    0.14
  -4  -5  -5   -0.06    0.08
  -4  -5  -5    0.11    0.05
   4   5   5    0.27    0.13
  -5  -5  -5    0.27    0.11
  -5  -5  -5    0.35    0.07
   5   5   5    0.33    0.14
  -6  -5  -5    0.02    0.05
  -6  -5  -5    0.12    0.10
   6   5   5   -0.11    0.14
  -7  -5  -5    0.04    0.06
  -7  -5  -5    0.23    0.12
   7   5   5    0.05    0.14
   6  -6  -5    2.08    0.24
  -6   6   5    1.93    0.25
  -5   6   5   -0.07    0.10
   4  -6  -5    0.46    0.13
  -4   6   5    0.63    0.12
   3  -6  -5    0.07    0.08
  -3   6   5    0.05    0.07
   2  -6  -5    1.09    0.12
  -2   6   5    1.33    0.12
   1  -6  -5    1.22    0.13
  -1   6   5    1.54    0.12
   0  -6  -5    2.54    0.13
   0  -6  -5    2.67    0.19
  -1  -6  -5    0.00    0.07
  -1  -6  -5    0.04    0.04
  -1  -6  -5    0.03    0.03
  -2  -6  -5    0.00    0.03
  -2  -6  -5   -0.01    0.04
   2   6   5    0.02    0.08
   2   6   5    0.00    0.08
  -3  -6  -5   -0.06    0.05
  -3  -6  -5   -0.02    0.03
   3   6   5   -0.04    0.10
  -4  -6  -5   -0.01    0.05
  -4  -6  -5    0.00    0.07
   4   6   5    0.10    0.13
  -5  -6  -5    0.87    0.10
  -5  -6  -5    1.02    0.14
   5   6   5    0.77    0.19
  -6  -6  -5    0.87    0.10
  -6  -6  -5    1.13    0.16
   6   6   5    0.91    0.20
  -7  -6  -5    0.07    0.10
  -7  -6  -5    0.01    0.06
   7   6   5   -0.05    0.18
  -5   7   5   -0.04    0.10
   4  -7  -5   -0.17    0.11
  -4   7   5   -0.03    0.09
  -3   7   5    0.31    0.10
   2  -7  -5    0.81    0.12
  -2   7   5    1.02    0.11
   1  -7  -5    0.20    0.08
  -1   7   5    0.22    0.06
   0  -7  -5    0.03    0.08
   0  -7  -5   -0.01    0.03
   0   7   5   -0.02    0.05
  -1  -7  -5    0.55    0.12
  -1  -7  -5    0.36    0.08
  -1  -7  -5    0.34    0.06
  -2  -7  -5    0.14    0.05
  -2  -7  -5    0.20    0.07
   2   7   5    0.23    0.09
   2   7   5    0.35    0.09
  -3  -7  -5   -0.04    0.04
  -3  -7  -5   -0.07    0.05
   3   7   5    0.00    0.11
  -4  -7  -5    0.05    0.06
   4   7   5   -0.20    0.14
  -5  -7  -5    0.82    0.14
  -5  -7  -5    0.66    0.10
   5   7   5    0.72    0.20
  -6  -7  -5    0.35    0.11
  -6  -7  -5    0.34    0.08
   6   7   5    0.27    0.19
  -7  -7  -5    0.35    0.09
   7   7   5    0.26    0.22
   4  -8  -5   -0.08    0.11
   3  -8  -5    0.02    0.10
   2  -8  -5   -0.05    0.09
   1  -8  -5   -0.07    0.09
   0  -8  -5    0.06    0.09
  -1  -8  -5    0.31    0.12
  -2  -8  -5    0.37    0.07
  -3  -8  -5    2.53    0.17
   3   8   5    2.46    0.25
  -4  -8  -5    0.14    0.06
   4   8   5    0.06    0.17
   5   8   5    0.09    0.20
  -6  -8  -5    1.16    0.13
   6   8   5    1.11    0.27
   4  -9  -5   -0.05    0.11
   3  -9  -5    0.02    0.11
   2  -9  -5    0.03    0.10
   1  -9  -5    0.27    0.13
   0  -9  -5    0.05    0.11
  -1  -9  -5    1.17    0.11
  -1  -9  -5    1.49    0.18
  -2  -9  -5    0.70    0.10
   2   9   5    0.95    0.14
  -3  -9  -5   -0.02    0.05
   3   9   5    0.01    0.15
  -4  -9  -5    0.24    0.07
   4   9   5    0.30    0.19
  -5  -9  -5    0.11    0.07
   5   9   5   -0.07    0.20
  -6  -9  -5    0.06    0.07
   3 -10  -5    0.20    0.12
   2 -10  -5    0.15    0.13
   1 -10  -5    0.51    0.15
   0 -10  -5    0.01    0.13
  -1 -10  -5    0.06    0.13
   2  10   5    0.58    0.14
  -3 -10  -5    0.29    0.08
   3  10   5    0.47    0.18
  -4 -10  -5    0.31    0.08
   4  10   5    0.31    0.20
  -5 -10  -5    5.03    0.29
   5  10   5    5.15    0.45
   2 -11  -5    0.41    0.16
   1 -11  -5    0.10    0.14
   0 -11  -5    0.34    0.15
  -1 -11  -5    0.01    0.15
  -2 -11  -5    0.02    0.06
   2  11   5    0.07    0.08
   2  11   5    0.41    0.14
  -3 -11  -5   -0.09    0.05
   3  11   5   -0.05    0.18
  -4 -11  -5    0.04    0.06
   4  11   5   -0.29    0.21
  -1 -12  -5    0.81    0.20
   3  10  -6   -0.09    0.17
  -3 -10   6    0.23    0.10
   2  10  -6    0.14    0.14
   2  10  -6    0.20    0.14
  -2 -10   6    0.16    0.10
  -1 -10   6    0.11    0.08
   0 -10   6    0.67    0.19
   0 -10   6    0.61    0.11
   1 -10   6    0.81    0.19
   1 -10   6    0.78    0.12
   2 -10   6    0.03    0.18
   4   9  -6   -0.21    0.18
  -4  -9   6    0.20    0.09
   3   9  -6    1.75    0.25
  -3  -9   6    1.67    0.17
   2   9  -6    0.04    0.12
   2   9  -6    0.00    0.11
  -2  -9   6   -0.02    0.07
  -1  -9   6    0.05    0.07
   0  -9   6    0.03    0.07
   0  -9   6    0.10    0.14
   1  -9   6    0.07    0.06
   1  -9   6    0.14    0.15
   2  -9   6    0.02    0.16
   3  -9   6    0.24    0.15
  -5  -8   6    0.09    0.08
  -4  -8   6    0.00    0.07
   3   8  -6    2.10    0.25
  -3  -8   6    2.06    0.18
   2   8  -6    0.52    0.13
   2   8  -6    0.47    0.14
  -2  -8   6    0.49    0.10
  -1  -8   6    0.33    0.08
   0  -8   6    0.64    0.10
   0  -8   6    0.75    0.16
   1  -8   6    0.13    0.06
   1  -8   6    0.18    0.14
   2  -8   6    0.02    0.14
   2  -8   6    0.01    0.06
   3  -8   6    0.31    0.14
   4  -8   6    0.17    0.13
   5   7  -6   -0.18    0.17
  -5  -7   6    0.03    0.06
   4   7  -6   -0.07    0.17
  -4  -7   6    0.18    0.08
   3   7  -6    2.45    0.26
  -3  -7   6    2.28    0.18
   2   7  -6    0.65    0.14
  -2  -7   6    0.54    0.11
  -1  -7   6    0.20    0.07
   0  -7   6   -0.04    0.05
   0  -7   6    0.06    0.09
   1  -7   6    0.43    0.08
   1  -7   6    0.55    0.14
   2  -7   6    0.33    0.13
   2  -7   6    0.12    0.06
   3  -7   6    0.24    0.12
   4  -7   6    0.04    0.11
   5  -7   6    0.00    0.14
   6   6  -6   -0.17    0.16
   5   6  -6    0.51    0.19
  -5  -6   6    0.70    0.11
   4   6  -6    0.81    0.19
  -4  -6   6    0.82    0.12
   3   6  -6    0.41    0.15
  -3  -6   6    0.24    0.08
   2   6  -6    2.10    0.20
  -2  -6   6    1.97    0.15
  -1  -6   6    0.30    0.07
   0  -6   6    0.04    0.07
   0  -6   6   -0.05    0.05
   1  -6   6    0.97    0.14
   1  -6   6    0.71    0.09
   2  -6   6    0.08    0.06
   2  -6   6    0.21    0.11
   3  -6   6    0.52    0.09
   3  -6   6    0.71    0.13
   4  -6   6    0.17    0.12
   5  -6   6   -0.13    0.12
   6   5  -6    0.22    0.16
   5   5  -6   -0.04    0.14
  -5  -5   6    0.05    0.06
   4   5  -6   -0.10    0.13
  -4  -5   6   -0.03    0.06
   3   5  -6    1.65    0.21
  -3  -5   6    1.61    0.13
   2   5  -6    0.02    0.08
  -2  -5   6    0.02    0.04
   1   5  -6    0.20    0.07
  -1  -5   6    0.11    0.05
   0  -5   6    3.04    0.18
   0  -5   6    3.33    0.22
   1  -5   6    0.19    0.08
   1  -5   6    0.10    0.05
   2  -5   6    1.11    0.13
   2  -5   6    1.12    0.10
   3  -5   6    2.35    0.15
   3  -5   6    2.46    0.19
   4  -5   6    0.46    0.12
   5  -5   6    0.31    0.14
   6   4  -6    0.27    0.13
   5   4  -6    0.00    0.12
  -5  -4   6    0.03    0.06
   4   4  -6    0.76    0.17
  -4  -4   6    0.63    0.10
   3   4  -6    0.10    0.10
  -3  -4   6   -0.03    0.04
   2   4  -6    0.35    0.10
  -2  -4   6    0.30    0.06
   1   4  -6    0.40    0.07
   1   4  -6    0.30    0.08
  -1  -4   6    0.26    0.06
   0  -4   6    5.28    0.26
   0  -4   6    5.77    0.31
   1  -4   6    0.19    0.05
   2  -4   6    2.09    0.15
   2  -4   6    2.08    0.12
   3  -4   6    2.36    0.18
   3  -4   6    2.45    0.14
  -4   4  -6    0.41    0.11
   4  -4   6    0.24    0.11
   4  -4   6    0.21    0.06
   5  -4   6    0.14    0.12
   7  -4   6   -0.20    0.16
   7   3  -6    0.19    0.11
  -7  -3   6   -0.17    0.13
   6   3  -6    0.00    0.10
   5   3  -6    0.03    0.10
  -5  -3   6   -0.12    0.09
   4   3  -6    1.24    0.17
  -4  -3   6    1.18    0.11
   3   3  -6    0.01    0.08
   2   3  -6    4.03    0.25
  -2  -3   6    3.94    0.20
  -2  -3   6    3.80    0.22
   1   3  -6    0.10    0.05
  -1  -3   6    0.05    0.03
  -1  -3   6    0.05    0.04
   0  -3   6    4.17    0.23
   0  -3   6    3.90    0.19
  -1   3  -6    1.49    0.09
   1  -3   6    1.27    0.09
   1  -3   6    1.48    0.11
  -2   3  -6    0.43    0.06
   2  -3   6    0.37    0.05
   2  -3   6    0.36    0.07
  -3   3  -6    0.78    0.11
   3  -3   6    0.65    0.07
   3  -3   6    0.63    0.10
  -4   3  -6    5.66    0.33
   4  -3   6    5.29    0.32
   4  -3   6    5.33    0.25
  -5   3  -6    1.03    0.16
   5  -3   6    0.78    0.14
  -6   3  -6    0.23    0.14
   7  -3   6   -0.08    0.18
   7   2  -6    0.13    0.10
   6   2  -6    0.09    0.09
   5   2  -6    0.01    0.08
  -5  -2   6   -0.13    0.08
  -4  -2   6    0.52    0.09
  -4  -2   6    0.43    0.12
   3   2  -6    4.36    0.27
  -3  -2   6    4.06    0.25
  -3  -2   6    4.28    0.21
   2   2  -6    2.61    0.17
  -2  -2   6    2.31    0.15
  -2  -2   6    2.46    0.14
   1   2  -6    0.32    0.08
  -1  -2   6    0.24    0.04
  -1  -2   6    0.21    0.04
   0   2  -6    1.14    0.08
   0  -2   6    0.99    0.07
   0  -2   6    1.00    0.09
  -1   2  -6    0.01    0.03
   1  -2   6    0.02    0.03
   1  -2   6    0.05    0.03
  -2   2  -6    1.33    0.10
   2  -2   6    1.30    0.09
   2  -2   6    1.26    0.10
   3  -2   6    0.16    0.04
   3  -2   6    0.11    0.06
  -4   2  -6    9.79    0.51
   4  -2   6    9.14    0.50
   4  -2   6    9.25    0.41
  -5   2  -6    0.03    0.10
   5  -2   6   -0.06    0.04
   5  -2   6    0.10    0.09
  -6   2  -6    0.43    0.16
   7   1  -6    0.12    0.09
   6   1  -6    0.90    0.13
   5   1  -6    0.97    0.12
  -5  -1   6    0.80    0.15
   4   1  -6    0.36    0.08
  -4  -1   6    0.06    0.10
   3   1  -6    0.63    0.10
  -3  -1   6    0.78    0.07
  -3  -1   6    0.65    0.09
   2   1  -6    8.09    0.43
  -2  -1   6    8.24    0.35
  -2  -1   6    8.21    0.41
   1   1  -6    2.18    0.14
  -1  -1   6    2.33    0.12
  -1  -1   6    2.17    0.13
   0   1  -6    7.20    0.36
   0  -1   6    7.36    0.31
  -1   1  -6    2.97    0.18
   1  -1   6    3.38    0.15
  -2   1  -6    2.53    0.16
   2  -1   6    2.47    0.15
   2  -1   6    2.66    0.13
  -3   1  -6    0.60    0.11
   3  -1   6    0.39    0.06
   3  -1   6    0.43    0.07
  -4   1  -6    3.02    0.22
   4  -1   6    2.79    0.19
   4  -1   6    2.76    0.15
  -5   1  -6   -0.05    0.09
   5  -1   6   -0.03    0.08
  -6   1  -6    0.52    0.17
   6  -1   6    0.41    0.14
  -7   1  -6    1.54    0.24
   7  -1   6    2.36    0.23
   7   0  -6    0.16    0.09
  -6   0   6   -0.03    0.11
   5   0  -6    2.06    0.16
   4   0  -6    4.00    0.24
  -4   0   6    3.63    0.26
   3   0  -6    0.03    0.04
  -3   0   6    0.08    0.03
  -3   0   6    0.01    0.05
   2   0  -6    2.04    0.13
  -2   0   6    1.96    0.11
  -2   0   6    2.11    0.14
  -1   0   6    2.34    0.12
  -1   0   6    2.43    0.14
   0   0  -6   78.10    3.63
   0   0   6   76.74    3.06
  -1   0  -6    0.36    0.05
   1   0   6    0.32    0.04
  -2   0  -6    0.48    0.08
   2   0   6    0.56    0.05
  -3   0  -6   10.62    0.55
   3   0   6   10.72    0.44
   3   0   6   10.45    0.55
  -4   0  -6    0.91    0.14
   4   0   6    1.04    0.11
   4   0   6    1.00    0.08
  -5   0  -6    0.13    0.10
   5   0   6    0.10    0.08
   6   0   6    1.60    0.17
  -7   1   6   -0.18    0.13
   6  -1  -6    0.26    0.09
  -6   1   6    0.03    0.11
   4  -1  -6   12.46    0.65
  -4   1   6   12.64    0.65
   3  -1  -6    0.02    0.04
  -3   1   6    0.02    0.05
   2  -1  -6   -0.01    0.03
  -2   1   6   -0.04    0.02
  -1   1   6    5.15    0.23
  -1   1   6    5.45    0.28
   0  -1  -6    8.00    0.41
   0   1   6    8.45    0.34
  -1  -1  -6   36.39    1.78
   1   1   6   38.66    1.49
  -2  -1  -6   19.88    1.00
   2   1   6   21.28    0.83
  -3  -1  -6    0.65    0.10
   3   1   6    0.75    0.06
   3   1   6    0.74    0.08
  -4  -1  -6    0.01    0.06
   4   1   6    0.01    0.03
   4   1   6   -0.01    0.06
  -5  -1  -6    0.80    0.16
   5   1   6    0.63    0.08
   5   1   6    0.86    0.12
   6   1   6    0.24    0.10
  -7  -1  -6   -0.21    0.13
   7   1   6    0.19    0.10
  -8  -1  -6    0.25    0.16
   8   1   6    0.36    0.14
   7  -2  -6    0.19    0.11
   6  -2  -6    0.11    0.10
  -6   2   6   -0.09    0.11
   5  -2  -6    1.30    0.15
   4  -2  -6    6.61    0.38
  -4   2   6    6.70    0.38
   3  -2  -6    0.28    0.06
  -3   2   6    0.30    0.07
  -2   2   6    0.35    0.07
   1  -2  -6  119.75    5.56
  -1   2   6  109.85    4.47
  -1   2   6  111.07    5.31
   0  -2  -6    0.66    0.08
   0   2   6    0.87    0.05
  -1  -2  -6   30.87    1.52
   1   2   6   32.88    1.27
  -2  -2  -6    2.78    0.19
   2   2   6    3.21    0.19
   2   2   6    3.18    0.15
  -3  -2  -6    1.09    0.11
   3   2   6    1.11    0.08
   3   2   6    1.19    0.12
  -4  -2  -6   -0.04    0.05
   4   2   6    0.00    0.03
   4   2   6   -0.09    0.07
  -5  -2  -6   -0.14    0.09
   5   2   6    0.17    0.09
   5   2   6    0.04    0.05
  -6  -2  -6    1.87    0.25
   6   2   6    2.81    0.21
   6   2   6    2.26    0.15
  -7  -2  -6    0.05    0.13
   7   2   6    0.25    0.11
  -8  -2  -6    0.14    0.15
   8   2   6    0.04    0.13
  -7   3   6   -0.11    0.14
   6  -3  -6    0.56    0.14
  -6   3   6    0.25    0.15
   5  -3  -6    1.22    0.17
  -5   3   6    1.12    0.16
   4  -3  -6    0.74    0.14
   3  -3  -6    0.14    0.06
  -3   3   6    0.12    0.06
   2  -3  -6   13.48    0.68
  -2   3   6   13.10    0.66
   1  -3  -6   29.09    1.48
  -1   3   6   30.69    1.43
  -1   3   6   30.26    1.19
   0  -3  -6    7.90    0.40
   0  -3  -6    7.69    0.40
   0   3   6    7.81    0.33
  -1  -3  -6    0.66    0.08
   1   3   6    0.75    0.05
   1   3   6    0.55    0.07
  -2  -3  -6    1.97    0.14
   2   3   6    1.98    0.11
   2   3   6    1.99    0.14
  -3  -3  -6    0.60    0.10
   3   3   6    0.76    0.07
   3   3   6    0.82    0.11
  -4  -3  -6    0.23    0.08
   4   3   6    0.28    0.10
   4   3   6    0.23    0.05
   5   3   6    0.04    0.04
   5   3   6    0.24    0.10
  -6  -3  -6    0.35    0.16
   6   3   6    0.75    0.14
   6   3   6    0.50    0.08
  -7  -3  -6    0.25    0.14
   7   3   6    0.35    0.13
   7   3   6    0.21    0.07
   6  -4  -6    2.03    0.20
  -6   4   6    1.74    0.22
   5  -4  -6    7.81    0.45
  -5   4   6    7.61    0.46
  -4   4   6    0.56    0.11
   3  -4  -6    0.22    0.07
  -3   4   6    0.33    0.08
   2  -4  -6    1.94    0.14
  -2   4   6    2.04    0.15
  -1   4   6   -0.03    0.05
  -1   4   6    0.05    0.02
   0  -4  -6    0.80    0.08
   0  -4  -6    0.65    0.08
   0   4   6    0.81    0.05
  -1  -4  -6    6.75    0.36
  -2  -4  -6    0.12    0.05
  -2  -4  -6    0.12    0.03
   2   4   6    0.13    0.06
  -3  -4  -6    2.42    0.13
  -3  -4  -6    2.31    0.18
   3   4   6    2.52    0.19
  -4  -4  -6   -0.05    0.03
   4   4   6   -0.01    0.10
  -5  -4  -6    0.03    0.05
  -5  -4  -6   -0.10    0.08
   5   4   6    0.14    0.12
  -6  -4  -6    0.12    0.11
   6   4   6    0.10    0.05
   6   4   6    0.09    0.12
  -7  -4  -6    0.16    0.12
   7   4   6    0.02    0.05
   7   4   6    0.12    0.12
   6  -5  -6    2.61    0.23
  -6   5   6    2.02    0.25
   5  -5  -6    0.97    0.18
  -5   5   6    1.18    0.16
  -4   5   6   -0.03    0.08
   3  -5  -6    0.58    0.11
  -3   5   6    0.85    0.11
   2  -5  -6    0.14    0.06
  -2   5   6    0.17    0.06
   1  -5  -6   -0.01    0.05
   0  -5  -6    2.79    0.18
   0  -5  -6    2.88    0.17
  -1  -5  -6    1.30    0.12
  -1  -5  -6    1.29    0.11
  -1  -5  -6    1.24    0.08
  -2  -5  -6    0.52    0.06
  -2  -5  -6    0.38    0.08
   2   5   6    0.46    0.10
  -3  -5  -6    3.91    0.25
  -3  -5  -6    4.01    0.20
   3   5   6    3.82    0.27
  -4  -5  -6   -0.01    0.08
  -4  -5  -6    0.03    0.04
   4   5   6    0.11    0.12
  -5  -5  -6    0.49    0.11
  -5  -5  -6    0.36    0.07
   5   5   6    0.39    0.15
  -6  -5  -6    1.18    0.16
  -6  -5  -6    0.90    0.10
   6   5   6    0.94    0.19
   7   5   6    0.46    0.09
   7   5   6    0.35    0.16
  -6   6   6    0.01    0.14
  -5   6   6    0.13    0.12
  -4   6   6    0.02    0.09
   3  -6  -6    1.04    0.13
  -3   6   6    1.19    0.14
   2  -6  -6    0.38    0.08
  -2   6   6    0.42    0.08
   1  -6  -6    0.42    0.08
  -1   6   6    0.27    0.08
   0  -6  -6    0.34    0.07
   0  -6  -6    0.45    0.10
   0  -6  -6    0.33    0.05
  -1  -6  -6    0.04    0.05
  -1  -6  -6    0.06    0.03
  -1  -6  -6    0.01    0.07
  -2  -6  -6    9.24    0.39
  -2  -6  -6    8.83    0.47
   2   6   6    8.75    0.50
   2   6   6    8.88    0.43
  -3  -6  -6    0.01    0.05
  -3  -6  -6   -0.01    0.03
   3   6   6   -0.08    0.11
  -4  -6  -6   -0.07    0.06
   4   6   6   -0.11    0.12
  -5  -6  -6    0.29    0.07
  -5  -6  -6    0.44    0.11
   5   6   6    0.22    0.16
  -6  -6  -6    0.27    0.07
   6   6   6    0.32    0.17
  -7  -6  -6    2.22    0.22
  -7  -6  -6    1.66    0.15
   7   6   6    1.65    0.26
  -5   7   6   -0.03    0.11
  -4   7   6   -0.04    0.09
   3  -7  -6    0.58    0.13
  -3   7   6    0.57    0.12
   2  -7  -6    0.38    0.10
  -2   7   6    0.31    0.09
   1  -7  -6    0.04    0.07
  -1   7   6   -0.03    0.05
   0  -7  -6    0.02    0.03
   0  -7  -6    0.09    0.08
  -1  -7  -6    1.93    0.15
  -1  -7  -6    1.92    0.17
  -1  -7  -6    1.80    0.12
  -2  -7  -6    0.74    0.08
  -2  -7  -6    0.78    0.11
   2   7   6    0.92    0.16
   2   7   6    0.82    0.14
  -3  -7  -6    1.75    0.13
  -3  -7  -6    1.66    0.15
   3   7   6    1.86    0.21
  -4  -7  -6    3.14    0.22
  -4  -7  -6    3.17    0.19
   4   7   6    3.00    0.29
  -5  -7  -6    1.33    0.16
  -5  -7  -6    1.30    0.12
   5   7   6    0.99    0.22
  -6  -7  -6    0.14    0.07
  -6  -7  -6    0.32    0.12
   6   7   6    0.10    0.19
  -7  -7  -6    0.23    0.08
   7   7   6    0.06    0.22
   4  -8  -6   -0.11    0.12
   3  -8  -6    0.53    0.13
   2  -8  -6    0.00    0.09
   1  -8  -6    0.48    0.12
  -1   8   6    0.45    0.10
   0  -8  -6    1.26    0.15
   0   8   6    1.13    0.12
  -1  -8  -6    0.95    0.09
  -1  -8  -6    0.81    0.11
  -1  -8  -6    1.14    0.16
  -2  -8  -6    1.74    0.15
  -2  -8  -6    1.87    0.13
   2   8   6    1.60    0.17
   2   8   6    2.02    0.18
  -3  -8  -6    3.71    0.24
  -3  -8  -6    3.70    0.21
   3   8   6    3.84    0.31
  -4  -8  -6    0.04    0.07
  -4  -8  -6    0.01    0.05
  -5  -8  -6    0.05    0.06
   5   8   6   -0.25    0.18
  -6  -8  -6    4.31    0.26
   6   8   6    4.57    0.40
   4  -9  -6    0.08    0.12
   3  -9  -6    0.00    0.11
   2  -9  -6    0.14    0.11
   1  -9  -6    0.64    0.15
   0  -9  -6    0.13    0.13
  -1  -9  -6    0.28    0.13
  -1  -9  -6    0.23    0.06
  -2  -9  -6    0.53    0.09
   2   9   6    0.66    0.14
  -3  -9  -6    1.26    0.12
   3   9   6    1.34    0.22
   4   9   6    0.11    0.19
  -5  -9  -6    0.10    0.07
   5   9   6   -0.17    0.20
  -6  -9  -6    2.39    0.18
   3 -10  -6    0.38    0.13
   2 -10  -6    0.84    0.16
   1 -10  -6    0.85    0.17
   0 -10  -6    0.21    0.15
  -1 -10  -6   -0.11    0.14
  -2 -10  -6    1.26    0.12
   2  10   6    1.57    0.18
   2  10   6    0.92    0.17
  -3 -10  -6    0.25    0.07
   3  10   6    0.37    0.19
  -4 -10  -6   -0.01    0.06
   4  10   6   -0.14    0.19
  -5 -10  -6    0.25    0.09
   5  10   6    0.17    0.24
   1 -11  -6    0.21    0.16
   0 -11  -6   -0.07    0.15
  -1 -11  -6    0.08    0.16
  -2 -11  -6    1.61    0.14
   2  11   6    1.23    0.20
  -3 -11  -6    0.05    0.06
   3  11   6   -0.08    0.18
  -4 -11  -6    0.21    0.08
   2  10  -7    1.33    0.20
  -2 -10   7    1.10    0.15
   1  10  -7    0.23    0.11
  -1 -10   7    0.01    0.08
   0 -10   7    0.02    0.15
   0 -10   7    0.05    0.07
   1 -10   7    0.24    0.08
   1 -10   7    0.41    0.18
  -4  -9   7    0.24    0.10
   3   9  -7   -0.07    0.16
  -3  -9   7    0.03    0.09
   2   9  -7    0.14    0.12
  -2  -9   7    0.05    0.09
   1   9  -7    0.18    0.10
  -1  -9   7    0.00    0.07
   0  -9   7    0.15    0.14
   0  -9   7    0.19    0.08
   1  -9   7    0.13    0.14
   1  -9   7    0.05    0.06
   2  -9   7   -0.07    0.16
   3  -9   7    0.10    0.16
  -5  -8   7    0.04    0.08
   4   8  -7   -0.22    0.17
   3   8  -7    0.23    0.16
  -3  -8   7    0.39    0.10
   2   8  -7    0.01    0.11
  -2  -8   7   -0.04    0.07
   1   8  -7    0.12    0.09
  -1  -8   7    0.05    0.07
   0  -8   7    0.12    0.12
   0  -8   7    0.05    0.06
   1  -8   7    0.28    0.13
   1  -8   7    0.04    0.06
   2  -8   7    0.05    0.07
   2  -8   7    0.32    0.15
   3  -8   7    0.26    0.14
   4  -8   7    0.17    0.13
   5   7  -7   -0.19    0.17
  -5  -7   7    0.01    0.07
   4   7  -7    0.24    0.18
  -4  -7   7    0.43    0.10
   3   7  -7    1.16    0.22
  -3  -7   7    1.09    0.13
   2   7  -7    0.83    0.17
  -2  -7   7    0.68    0.12
   1   7  -7    0.56    0.12
  -1  -7   7    0.49    0.10
   0  -7   7    0.10    0.10
   0  -7   7    0.10    0.06
   1  -7   7    0.01    0.11
   2  -7   7    0.06    0.06
   2  -7   7    0.12    0.13
   3  -7   7    0.32    0.13
   4  -7   7    0.07    0.11
   5  -7   7   -0.06    0.13
   5   6  -7   -0.15    0.15
  -5  -6   7    0.08    0.07
   4   6  -7   -0.06    0.15
  -4  -6   7    0.17    0.08
   3   6  -7    0.15    0.15
  -3  -6   7   -0.02    0.07
   2   6  -7    0.14    0.11
  -2  -6   7    0.14    0.07
   1   6  -7    2.34    0.19
   1   6  -7    2.34    0.18
  -1  -6   7    1.95    0.15
   0  -6   7    0.24    0.07
   0  -6   7    0.39    0.10
   1  -6   7   -0.10    0.09
   2  -6   7    0.04    0.06
   2  -6   7    0.16    0.11
   3  -6   7    0.33    0.12
   3  -6   7    0.27    0.07
   4  -6   7   -0.16    0.11
   5  -6   7    0.00    0.13
   6   5  -7    0.04    0.14
   5   5  -7    0.01    0.14
  -5  -5   7    0.05    0.07
   4   5  -7    0.08    0.14
  -4  -5   7    0.24    0.08
   3   5  -7    0.76    0.18
  -3  -5   7    0.54    0.10
   2   5  -7    0.61    0.13
  -2  -5   7    0.40    0.08
   1   5  -7    0.08    0.07
  -1  -5   7    0.10    0.05
   0  -5   7    0.18    0.07
   0  -5   7    0.10    0.05
   1  -5   7   -0.05    0.08
   1  -5   7   -0.06    0.04
   2  -5   7    2.67    0.20
   2  -5   7    2.31    0.15
   3  -5   7    0.18    0.06
   3  -5   7    0.32    0.10
   4  -5   7    0.68    0.14
   5  -5   7    0.55    0.15
   6   4  -7    0.28    0.13
   5   4  -7   -0.11    0.11
   4   4  -7    0.03    0.11
  -4  -4   7    0.03    0.06
   3   4  -7    0.13    0.11
  -3  -4   7    0.00    0.06
   2   4  -7    1.68    0.17
  -2  -4   7    1.31    0.11
   1   4  -7    1.41    0.14
  -1  -4   7    1.21    0.10
   0  -4   7   -0.06    0.05
   1  -4   7    0.71    0.08
   2  -4   7    0.18    0.07
   3  -4   7    0.36    0.10
   3  -4   7    0.35    0.07
   4  -4   7    2.64    0.20
   4  -4   7    2.42    0.15
   5  -4   7    2.50    0.22
   6  -4   7   -0.07    0.14
   6   3  -7    0.15    0.10
   5   3  -7    0.19    0.10
  -5  -3   7   -0.01    0.10
   4   3  -7    0.85    0.15
  -4  -3   7    0.60    0.13
  -4  -3   7    0.77    0.10
   3   3  -7    0.06    0.09
   2   3  -7    1.62    0.15
  -2  -3   7    1.32    0.10
  -2  -3   7    1.38    0.11
   1   3  -7    2.87    0.18
  -1  -3   7    2.43    0.14
  -1  -3   7    2.46    0.14
   0   3  -7    0.39    0.05
   0  -3   7    0.29    0.07
   0  -3   7    0.44    0.07
  -1   3  -7   14.55    0.66
   1  -3   7   12.55    0.57
  -2   3  -7    0.33    0.06
   2  -3   7    0.23    0.05
   2  -3   7    0.40    0.08
  -3   3  -7    0.36    0.07
   3  -3   7    0.29    0.08
   3  -3   7    0.33    0.06
   4  -3   7    0.25    0.09
   4  -3   7    0.20    0.05
  -5   3  -7    0.25    0.11
   5  -3   7    0.06    0.10
  -6   3  -7    0.40    0.15
   6  -3   7   -0.01    0.13
  -7   3  -7    0.49    0.17
   7  -3   7    0.01    0.17
   6   2  -7    0.16    0.09
  -6  -2   7   -0.10    0.11
   5   2  -7    0.58    0.12
  -5  -2   7    0.38    0.12
  -4  -2   7    1.15    0.12
  -4  -2   7    1.09    0.17
  -3  -2   7    0.77    0.11
  -3  -2   7    0.93    0.12
   2   2  -7    1.38    0.13
  -2  -2   7    1.31    0.10
  -2  -2   7    1.32    0.10
   1   2  -7    3.41    0.20
  -1  -2   7    3.23    0.18
  -1  -2   7    3.33    0.17
   0   2  -7    1.71    0.12
   0  -2   7    1.93    0.11
  -1   2  -7   29.77    1.39
   1  -2   7   28.91    1.18
  -2   2  -7    2.04    0.14
   2  -2   7    2.08    0.12
   2  -2   7    2.10    0.14
  -3   2  -7    1.44    0.13
   3  -2   7    1.60    0.10
   3  -2   7    1.51    0.12
  -4   2  -7    0.85    0.15
   4  -2   7    1.01    0.11
   4  -2   7    0.80    0.08
  -5   2  -7    0.01    0.10
   5  -2   7   -0.04    0.04
   5  -2   7   -0.03    0.08
  -6   2  -7    0.17    0.15
   6  -2   7    0.14    0.12
  -7   2  -7    0.34    0.19
   7  -2   7    0.58    0.18
   7   1  -7    0.16    0.10
   6   1  -7    1.34    0.15
   5   1  -7    1.13    0.12
  -5  -1   7    0.88    0.14
   3   1  -7   25.75    1.33
  -3  -1   7   26.37    1.08
  -3  -1   7   27.23    1.28
   2   1  -7    4.63    0.26
  -2  -1   7    4.54    0.25
  -2  -1   7    4.76    0.22
  -1  -1   7    0.33    0.06
  -1  -1   7    0.41    0.06
   0   1  -7    1.01    0.09
   0  -1   7    0.93    0.08
  -1   1  -7    3.72    0.21
   1  -1   7    3.73    0.18
  -2   1  -7    0.21    0.05
   2  -1   7    0.24    0.05
   2  -1   7    0.31    0.06
  -3   1  -7    1.84    0.15
   3  -1   7    1.94    0.11
   3  -1   7    1.92    0.13
  -4   1  -7    1.32    0.16
   4  -1   7    1.36    0.13
   4  -1   7    1.30    0.09
  -5   1  -7   -0.04    0.09
   5  -1   7   -0.04    0.04
   5  -1   7   -0.02    0.08
  -6   1  -7    0.58    0.18
   6  -1   7    0.67    0.15
  -7   1  -7    0.12    0.20
   7  -1   7    0.60    0.16
   7   0  -7    0.36    0.10
  -7   0   7   -0.04    0.14
  -6   0   7    0.13    0.12
   5   0  -7    0.50    0.10
  -5   0   7    0.09    0.10
   4   0  -7   12.28    0.65
  -4   0   7   12.56    0.65
   3   0  -7   14.49    0.81
  -3   0   7   16.30    0.66
  -3   0   7   17.11    0.80
   2   0  -7   -0.03    0.03
  -2   0   7    0.00    0.03
  -2   0   7   -0.04    0.04
  -1   0   7   17.36    0.68
  -1   0   7   15.82    0.80
   0   0  -7   45.42    2.18
   0   0   7   47.07    1.84
  -1   0  -7    9.60    0.50
   1   0   7   10.33    0.42
  -2   0  -7    1.73    0.14
   2   0   7    2.23    0.11
  -3   0  -7    4.10    0.26
   3   0   7    4.31    0.24
   3   0   7    4.73    0.21
  -4   0  -7    0.07    0.07
   4   0   7    0.05    0.03
   4   0   7    0.04    0.06
  -5   0  -7    0.79    0.15
   5   0   7    0.55    0.08
   5   0   7    0.74    0.12
  -6   0  -7   -0.09    0.14
   6   0   7   -0.02    0.04
   6   0   7    0.16    0.10
   7   0   7    0.48    0.14
  -7   1   7   -0.20    0.13
   6  -1  -7    0.56    0.11
  -6   1   7    0.16    0.13
   5  -1  -7    2.71    0.19
  -5   1   7    2.36    0.22
   4  -1  -7    2.36    0.19
  -4   1   7    2.54    0.20
  -3   1   7    0.47    0.09
   2  -1  -7    0.00    0.03
  -2   1   7   -0.02    0.04
  -2   1   7    0.00    0.03
  -1   1   7    7.97    0.34
   0  -1  -7   45.70    2.22
   0   1   7   48.48    1.87
  -1  -1  -7    0.32    0.06
   1   1   7    0.45    0.05
  -2  -1  -7    1.77    0.14
   2   1   7    2.04    0.10
  -3  -1  -7   -0.02    0.04
   3   1   7    0.00    0.04
   3   1   7   -0.01    0.02
  -4  -1  -7    0.08    0.06
   4   1   7    0.04    0.06
   4   1   7    0.01    0.03
  -5  -1  -7    0.66    0.15
   5   1   7    0.48    0.08
   6   1   7   -0.06    0.04
   6   1   7    0.14    0.09
  -7  -1  -7   -0.18    0.14
   6  -2  -7    0.17    0.10
  -6   2   7    0.02    0.11
   5  -2  -7    9.64    0.52
  -5   2   7    8.81    0.52
   4  -2  -7   11.28    0.61
  -4   2   7   11.34    0.60
  -3   2   7    0.03    0.06
   2  -2  -7    5.54    0.28
  -2   2   7    5.27    0.29
  -2   2   7    4.79    0.23
  -1   2   7    1.22    0.08
  -1   2   7    1.21    0.10
   0  -2  -7   11.82    0.59
   0   2   7   12.21    0.49
  -1  -2  -7    1.22    0.11
   1   2   7    1.47    0.08
  -2  -2  -7    0.32    0.06
   2   2   7    0.30    0.04
  -3  -2  -7    1.35    0.13
   3   2   7    1.49    0.09
   3   2   7    1.46    0.13
  -4  -2  -7    0.14    0.07
   4   2   7    0.15    0.04
   4   2   7    0.11    0.07
  -5  -2  -7    1.15    0.18
   5   2   7    1.52    0.15
   5   2   7    1.18    0.10
  -6  -2  -7    1.21    0.20
   6   2   7    1.18    0.11
  -7  -2  -7    0.52    0.17
   7   2   7    0.66    0.14
   6  -3  -7    0.01    0.11
  -6   3   7   -0.10    0.11
   5  -3  -7    3.93    0.27
  -5   3   7    3.64    0.28
   3  -3  -7   -0.05    0.06
  -3   3   7    0.17    0.07
   2  -3  -7    0.44    0.07
  -2   3   7    0.46    0.08
  -1   3   7    0.11    0.03
  -1   3   7    0.12    0.05
   0  -3  -7   -0.01    0.03
   0   3   7    0.00    0.02
  -1  -3  -7    0.89    0.09
   1   3   7    0.88    0.06
  -2  -3  -7    0.05    0.04
   2   3   7    0.05    0.06
   2   3   7    0.07    0.03
  -3  -3  -7    4.61    0.27
   3   3   7    4.31    0.21
   3   3   7    4.67    0.28
  -4  -3  -7    0.37    0.10
   4   3   7    0.48    0.07
   4   3   7    0.51    0.12
  -5  -3  -7    0.59    0.14
   5   3   7    0.63    0.08
  -6  -3  -7    0.66    0.16
   6   3   7    0.53    0.09
   6   3   7    0.80    0.14
  -7  -3  -7    0.72    0.17
   7   3   7    0.41    0.08
   7   3   7    0.61    0.15
   6  -4  -7    0.04    0.12
  -6   4   7   -0.07    0.11
   5  -4  -7    0.20    0.12
  -5   4   7    0.18    0.11
   4  -4  -7    0.34    0.12
  -3   4   7   -0.03    0.06
   2  -4  -7    0.49    0.09
  -2   4   7    0.69    0.09
   1  -4  -7    0.71    0.07
  -1   4   7    0.57    0.09
  -1   4   7    0.61    0.05
   0  -4  -7    0.05    0.04
   0  -4  -7   -0.01    0.03
   0   4   7   -0.02    0.02
  -1  -4  -7    1.95    0.14
   1   4   7    1.83    0.10
  -2  -4  -7    0.07    0.04
   2   4   7    0.05    0.03
   2   4   7    0.07    0.06
  -3  -4  -7    2.17    0.17
   3   4   7    2.11    0.13
   3   4   7    2.00    0.18
  -4  -4  -7   -0.03    0.07
   4   4   7    0.06    0.04
   4   4   7    0.16    0.11
  -5  -4  -7    0.05    0.08
   5   4   7    0.17    0.06
   5   4   7    0.11    0.12
  -6  -4  -7    0.01    0.09
   6   4   7   -0.05    0.05
   6   4   7    0.06    0.11
  -7  -4  -7    0.26    0.13
   7   4   7    0.04    0.06
   7   4   7    0.09    0.13
   6  -5  -7    0.43    0.15
  -6   5   7    0.19    0.15
   5  -5  -7    0.74    0.16
  -5   5   7    0.84    0.15
   4  -5  -7   -0.07    0.11
  -4   5   7    0.36    0.11
   3  -5  -7    0.03    0.08
  -3   5   7    0.30    0.09
   2  -5  -7    0.05    0.06
  -2   5   7    0.08    0.07
   1  -5  -7    0.15    0.05
  -1   5   7   -0.02    0.06
   0  -5  -7    0.60    0.08
   0   5   7    0.55    0.06
  -1  -5  -7    1.11    0.11
  -1  -5  -7    1.08    0.11
   1   5   7    0.99    0.08
  -2  -5  -7    7.91    0.35
  -2  -5  -7    7.56    0.42
   2   5   7    8.29    0.44
  -3  -5  -7    0.41    0.09
  -3  -5  -7    0.42    0.06
   3   5   7    0.42    0.11
  -4  -5  -7    0.11    0.05
  -4  -5  -7    0.08    0.08
   4   5   7    0.11    0.12
  -5  -5  -7    1.93    0.19
   5   5   7    1.73    0.21
  -6  -5  -7    0.04    0.09
   6   5   7   -0.08    0.05
   6   5   7   -0.01    0.13
   7   5   7    0.46    0.09
   7   5   7    0.37    0.17
  -5   6   7   -0.02    0.11
  -4   6   7   -0.03    0.09
   3  -6  -7    0.04    0.09
  -3   6   7    0.19    0.09
   2  -6  -7    0.15    0.07
  -2   6   7    0.09    0.08
   1  -6  -7    0.72    0.10
  -1   6   7    0.54    0.10
   0  -6  -7    7.07    0.39
   0  -6  -7    6.86    0.37
   0   6   7    6.72    0.30
  -1  -6  -7    0.64    0.06
  -1  -6  -7    0.55    0.12
  -1  -6  -7    0.63    0.10
  -2  -6  -7    0.22    0.05
  -2  -6  -7    0.21    0.07
   2   6   7    0.28    0.10
  -3  -6  -7    0.06    0.06
  -3  -6  -7    0.00    0.04
   3   6   7    0.03    0.12
  -4  -6  -7    4.09    0.27
  -4  -6  -7    3.94    0.22
   4   6   7    4.10    0.31
  -5  -6  -7   -0.01    0.05
  -5  -6  -7   -0.02    0.07
   5   6   7   -0.13    0.14
  -6  -6  -7    0.27    0.11
  -6  -6  -7    0.13    0.06
   6   6   7    0.02    0.16
  -7  -6  -7    2.33    0.23
   7   6   7    1.72    0.14
   7   6   7    1.98    0.26
   5  -7  -7   -0.19    0.13
  -5   7   7   -0.08    0.11
  -4   7   7    0.00    0.10
   3  -7  -7    0.87    0.14
  -3   7   7    0.76    0.14
   2  -7  -7    0.07    0.08
  -1   7   7    0.39    0.10
   0  -7  -7    1.19    0.14
   0  -7  -7    0.98    0.08
  -1  -7  -7    1.29    0.12
  -1  -7  -7    1.20    0.09
  -1  -7  -7    1.22    0.15
  -2  -7  -7    0.45    0.10
  -2  -7  -7    0.35    0.07
   2   7   7    0.56    0.13
  -3  -7  -7    0.35    0.09
  -3  -7  -7    0.30    0.06
   3   7   7    0.29    0.14
  -4  -7  -7    0.40    0.08
  -4  -7  -7    0.63    0.11
  -5  -7  -7    2.63    0.17
  -5  -7  -7    2.69    0.22
   5   7   7    2.29    0.27
  -6  -7  -7    1.26    0.13
  -6  -7  -7    1.58    0.19
   6   7   7    1.20    0.23
   4  -8  -7   -0.09    0.12
  -4   8   7   -0.13    0.09
   3  -8  -7    0.56    0.13
  -3   8   7    0.38    0.13
   0  -8  -7    1.72    0.18
   0   8   7    1.60    0.15
  -1  -8  -7   -0.04    0.06
  -1  -8  -7   -0.02    0.11
  -1  -8  -7    0.01    0.04
  -2  -8  -7    2.45    0.19
  -2  -8  -7    2.50    0.16
   2   8   7    2.58    0.23
   2   8   7    2.64    0.23
  -3  -8  -7    6.34    0.38
  -3  -8  -7    6.61    0.32
   3   8   7    6.88    0.44
  -4  -8  -7    0.24    0.09
  -4  -8  -7    0.25    0.07
   4   8   7   -0.25    0.18
  -5  -8  -7    0.07    0.08
  -5  -8  -7    0.01    0.06
  -6  -8  -7    0.74    0.16
  -6  -8  -7    0.46    0.10
   6   8   7    0.50    0.23
   3  -9  -7    0.20    0.12
   2  -9  -7    0.40    0.13
   1  -9  -7    3.81    0.29
   0  -9  -7   -0.07    0.13
  -1  -9  -7    0.46    0.16
  -1  -9  -7    0.62    0.08
  -2  -9  -7    5.29    0.26
   2   9   7    5.17    0.34
   2   9   7    4.14    0.34
  -3  -9  -7    3.36    0.20
   3   9   7    3.34    0.30
  -4  -9  -7    0.73    0.10
   4   9   7    0.50    0.21
   5   9   7   -0.22    0.20
   2 -10  -7    1.47    0.20
   1 -10  -7    3.35    0.28
  -1 -10  -7   -0.16    0.14
  -2 -10  -7    0.21    0.07
   2  10   7    0.36    0.17
  -3 -10  -7    0.14    0.07
   3  10   7   -0.08    0.17
  -4 -10  -7    0.25    0.07
   4  10   7   -0.03    0.20
  -5 -10  -7    0.84    0.13
   1 -11  -7    1.63    0.22
   0 -11  -7   -0.12    0.16
  -1 -11  -7    0.01    0.17
   2  11   7    0.59    0.19
   2  11   7    0.86    0.17
  -3 -11  -7   -0.02    0.06
   3  11   7   -0.19    0.17
  -1 -10   8    0.07    0.09
   0 -10   8    0.10    0.08
   1 -10   8    0.13    0.08
  -3  -9   8    0.42    0.11
  -2  -9   8   -0.02    0.08
  -1  -9   8    0.15    0.09
   0  -9   8    0.09    0.07
   1  -9   8    0.03    0.07
   2  -9   8   -0.02    0.06
  -4  -8   8    0.07    0.08
  -3  -8   8    0.02    0.07
   2   8  -8   -0.03    0.11
  -2  -8   8   -0.09    0.07
   1   8  -8    0.06    0.10
  -1  -8   8   -0.03    0.07
   0  -8   8   -0.03    0.06
   1  -8   8    0.22    0.08
   2  -8   8    0.04    0.07
  -5  -7   8    0.02    0.08
  -4  -7   8    0.11    0.08
   3   7  -8   -0.19    0.14
  -3  -7   8    0.01    0.07
   2   7  -8    2.63    0.24
  -2  -7   8    2.02    0.18
   1   7  -8    0.10    0.10
  -1  -7   8   -0.01    0.07
   0  -7   8    0.19    0.11
   0  -7   8    0.05    0.07
   1  -7   8   -0.05    0.06
   1  -7   8    0.05    0.10
   2  -7   8   -0.07    0.06
   3  -7   8    0.08    0.07
  -5  -6   8    0.00    0.07
   4   6  -8   -0.09    0.15
  -4  -6   8    0.18    0.08
   3   6  -8   -0.11    0.15
  -3  -6   8    0.21    0.08
   2   6  -8    1.12    0.20
  -2  -6   8    0.74    0.12
   1   6  -8    5.38    0.33
  -1  -6   8    4.48    0.26
   0  -6   8    0.09    0.08
   0  -6   8   -0.06    0.05
   1  -6   8   -0.05    0.05
   1  -6   8   -0.03    0.09
   2  -6   8    0.12    0.12
   2  -6   8    0.00    0.06
   3  -6   8    0.76    0.14
   3  -6   8    0.48    0.09
  -5  -5   8   -0.01    0.06
  -4  -5   8    0.01    0.06
   3   5  -8    1.01    0.20
  -3  -5   8    1.05    0.13
   2   5  -8    0.03    0.12
  -2  -5   8    0.00    0.07
   1   5  -8    0.03    0.08
  -1  -5   8    0.06    0.05
   0  -5   8    1.73    0.12
   1  -5   8    0.66    0.09
   1  -5   8    0.55    0.13
   2  -5   8    1.19    0.11
   2  -5   8    1.44    0.15
   3  -5   8    1.12    0.14
   3  -5   8    0.90    0.10
   4  -5   8    1.24    0.12
   4  -5   8    1.21    0.16
   4   4  -8    0.12    0.12
  -4  -4   8    0.20    0.07
   3   4  -8    0.00    0.11
  -3  -4   8   -0.13    0.07
  -2  -4   8    0.83    0.10
   1   4  -8    0.00    0.07
  -1  -4   8    0.02    0.05
   0  -4   8    0.18    0.05
   1  -4   8    0.15    0.05
   2  -4   8    7.78    0.35
   3  -4   8    0.83    0.09
   3  -4   8    0.96    0.13
   4  -4   8    0.12    0.06
   4  -4   8    0.12    0.10
   5   3  -8    0.83    0.15
  -5  -3   8    0.67    0.14
   4   3  -8    0.16    0.10
  -4  -3   8    0.26    0.07
  -4  -3   8    0.12    0.09
   3   3  -8    7.61    0.43
  -3  -3   8    7.29    0.35
  -3  -3   8    6.89    0.40
   2   3  -8   15.90    0.78
  -2  -3   8   14.15    0.63
  -2  -3   8   14.29    0.72
  -1  -3   8    1.46    0.10
  -1  -3   8    1.39    0.10
   0  -3   8    0.02    0.04
  -1   3  -8    1.51    0.11
   1  -3   8    1.40    0.10
  -2   3  -8    0.73    0.08
   2  -3   8    0.67    0.08
  -3   3  -8    0.07    0.06
   3  -3   8    0.07    0.05
  -4   3  -8    1.55    0.15
   4  -3   8    1.38    0.14
   4  -3   8    1.41    0.11
  -5   3  -8    0.08    0.09
   5  -3   8   -0.02    0.10
  -6   3  -8    0.87    0.17
  -6  -2   8   -0.03    0.12
   5   2  -8    0.11    0.08
  -5  -2   8   -0.01    0.08
  -4  -2   8    0.30    0.11
   3   2  -8   24.10    1.25
  -3  -2   8   25.95    1.02
  -3  -2   8   24.23    1.20
  -2  -2   8   21.11    1.01
  -2  -2   8   20.68    0.86
  -1  -2   8    0.54    0.06
  -1  -2   8    0.54    0.06
   0   2  -8   13.64    0.68
   0  -2   8   14.18    0.58
  -1   2  -8   22.46    1.04
   1  -2   8   20.95    0.89
  -2   2  -8    0.48    0.07
   2  -2   8    0.48    0.06
  -3   2  -8    0.24    0.07
   3  -2   8    0.27    0.05
  -4   2  -8    0.20    0.09
   4  -2   8    0.19    0.06
   4  -2   8    0.25    0.08
  -5   2  -8    0.02    0.09
   5  -2   8   -0.06    0.04
   5  -2   8    0.00    0.08
  -6   2  -8    0.11    0.14
  -7   2  -8   -0.09    0.17
  -6  -1   8   -0.06    0.11
  -5  -1   8    0.36    0.12
  -4  -1   8    4.96    0.31
  -3  -1   8    1.39    0.13
  -3  -1   8    1.06    0.11
  -2  -1   8    0.39    0.06
  -2  -1   8    0.45    0.07
  -1  -1   8    0.11    0.04
  -1  -1   8    0.16    0.05
   0   1  -8   13.85    0.69
   0  -1   8   14.45    0.59
  -1   1  -8    0.28    0.05
   1  -1   8    0.33    0.05
  -2   1  -8   -0.03    0.04
   2  -1   8    0.01    0.03
  -3   1  -8    2.02    0.16
   3  -1   8    2.05    0.12
  -4   1  -8    0.18    0.09
   4  -1   8    0.20    0.05
  -5   1  -8    0.07    0.09
   5  -1   8   -0.07    0.08
   5  -1   8    0.02    0.04
  -6   1  -8    0.01    0.13
  -7   1  -8   -0.28    0.18
  -6   0   8    0.50    0.15
  -5   0   8    1.89    0.19
   4   0  -8   17.96    0.94
  -4   0   8   18.90    0.93
  -3   0   8   10.39    0.54
  -2   0   8    0.23    0.06
  -2   0   8    0.19    0.04
  -1   0   8    4.11    0.19
  -1   0   8    4.10    0.23
   0   0  -8   12.38    0.61
   0   0   8   12.21    0.51
  -1   0  -8    2.88    0.18
   1   0   8    3.29    0.16
  -2   0  -8   -0.04    0.04
   2   0   8    0.00    0.03
  -3   0  -8    1.71    0.15
   3   0   8    1.70    0.11
  -4   0  -8    0.16    0.08
   4   0   8    0.11    0.04
  -5   0  -8    0.15    0.10
  -6   0  -8   -0.20    0.13
   6   0   8   -0.07    0.04
  -7   0  -8   -0.07    0.17
  -6   1   8   -0.04    0.11
  -5   1   8    0.96    0.14
  -4   1   8    8.98    0.50
  -3   1   8    0.39    0.09
  -2   1   8    0.47    0.06
  -2   1   8    0.58    0.08
  -1   1   8    1.93    0.13
  -1   1   8    1.98    0.11
   0  -1  -8   22.39    1.09
   0   1   8   23.06    0.92
  -1  -1  -8    0.02    0.04
   1   1   8    0.05    0.03
  -2  -1  -8    1.30    0.11
   2   1   8    1.35    0.09
  -3  -1  -8   -0.01    0.04
   3   1   8    0.02    0.03
  -4  -1  -8    1.00    0.14
   4   1   8    1.07    0.09
  -5  -1  -8    0.90    0.15
   5   1   8    0.71    0.09
  -6  -1  -8   -0.13    0.11
   6   1   8    0.06    0.05
  -7  -1  -8   -0.03    0.14
  -6   2   8    0.02    0.11
  -5   2   8    0.30    0.11
  -4   2   8    0.97    0.14
  -3   2   8    5.49    0.32
  -2   2   8    0.36    0.07
  -1   2   8    2.24    0.15
  -1   2   8    2.13    0.11
   0  -2  -8    4.92    0.28
   0   2   8    5.30    0.23
  -1  -2  -8    0.87    0.10
   1   2   8    1.09    0.07
  -2  -2  -8    3.57    0.22
   2   2   8    3.57    0.17
  -3  -2  -8    0.88    0.11
   3   2   8    0.83    0.07
  -4  -2  -8    0.56    0.12
   4   2   8    0.62    0.07
  -5  -2  -8    2.99    0.24
   5   2   8    2.68    0.17
  -6  -2  -8    0.05    0.12
   6   2   8    0.08    0.06
  -7  -2  -8    0.52    0.16
   7   2   8    0.29    0.07
  -6   3   8   -0.06    0.11
  -5   3   8    0.37    0.12
  -4   3   8    0.06    0.09
  -3   3   8    0.01    0.06
  -2   3   8    0.63    0.09
  -1   3   8   -0.02    0.04
  -1   3   8    0.00    0.02
   0  -3  -8    1.23    0.11
   0   3   8    1.30    0.08
  -1  -3  -8    1.22    0.11
   1   3   8    1.42    0.09
  -2  -3  -8    5.16    0.30
   2   3   8    5.55    0.25
  -3  -3  -8    4.84    0.29
   3   3   8    5.01    0.24
  -4  -3  -8    2.43    0.20
   4   3   8    2.37    0.14
  -5  -3  -8    3.09    0.25
   5   3   8    3.20    0.18
  -6  -3  -8    1.03    0.17
   6   3   8    0.79    0.11
  -7  -3  -8    0.15    0.12
   7   3   8   -0.04    0.05
  -6   4   8   -0.07    0.11
  -5   4   8    0.11    0.11
  -4   4   8    0.02    0.09
  -3   4   8    2.20    0.18
  -2   4   8    0.54    0.09
  -1   4   8    0.96    0.07
  -1   4   8    1.13    0.11
   0  -4  -8    3.73    0.22
   0   4   8    3.37    0.17
  -1  -4  -8    4.38    0.26
   1   4   8    4.59    0.21
  -2  -4  -8    0.73    0.10
   2   4   8    0.69    0.07
  -3  -4  -8    0.17    0.06
   3   4   8    0.16    0.05
  -4  -4  -8    0.42    0.11
   4   4   8    0.53    0.08
  -5  -4  -8    0.93    0.16
   5   4   8    0.95    0.10
  -6  -4  -8    0.80    0.15
   6   4   8    0.64    0.10
  -7  -4  -8    0.74    0.16
   7   4   8    0.39    0.08
  -5   5   8    0.01    0.11
  -4   5   8    0.30    0.12
  -3   5   8    0.00    0.07
  -2   5   8    0.70    0.11
  -1   5   8    0.88    0.11
   0  -5  -8    1.88    0.14
   0   5   8    1.76    0.11
  -1  -5  -8    5.59    0.31
   1   5   8    5.27    0.25
  -2  -5  -8    0.17    0.06
   2   5   8   -0.02    0.05
  -3  -5  -8    7.67    0.41
   3   5   8    7.02    0.34
  -4  -5  -8   -0.04    0.06
   4   5   8    0.00    0.05
  -5  -5  -8    0.09    0.09
   5   5   8   -0.07    0.05
  -6  -5  -8    0.62    0.14
   6   5   8    0.39    0.08
  -7  -5  -8    2.34    0.24
   7   5   8    1.72    0.15
  -5   6   8   -0.11    0.11
  -4   6   8   -0.04    0.10
  -3   6   8    0.46    0.12
  -1   6   8    1.36    0.14
   0  -6  -8    0.77    0.10
   0   6   8    0.64    0.08
   1   6   8    1.03    0.11
  -2  -6  -8    0.07    0.07
  -3  -6  -8    0.36    0.07
  -3  -6  -8    0.39    0.09
  -4  -6  -8    5.68    0.34
  -5  -6  -8    0.06    0.08
  -6  -6  -8    0.13    0.11
   6   6   8    0.09    0.06
  -7  -6  -8    0.33    0.14
   7   6   8    0.25    0.08
  -5   7   8   -0.05    0.12
  -4   7   8    0.22    0.13
  -3   7   8    0.44    0.12
  -2   7   8    0.93    0.14
  -1   7   8    0.27    0.12
  -1  -7  -8    0.27    0.08
  -2  -7  -8    2.74    0.20
  -2  -7  -8    2.65    0.16
  -3  -7  -8    1.76    0.17
  -3  -7  -8    1.83    0.13
  -4  -7  -8    4.04    0.27
  -4  -7  -8    4.05    0.22
  -5  -7  -8    0.45    0.08
  -5  -7  -8    0.65    0.13
  -6  -7  -8    0.02    0.10
  -3   8   8    0.35    0.12
  -1   8   8    7.44    0.42
   0   8   8   10.21    0.54
  -1  -8  -8    0.62    0.07
  -1  -8  -8    0.57    0.11
  -2  -8  -8    2.40    0.19
  -2  -8  -8    2.54    0.16
  -3  -8  -8    0.38    0.10
  -3  -8  -8    0.34    0.07
  -4  -8  -8    0.02    0.05
  -4  -8  -8   -0.04    0.07
  -5  -8  -8    0.02    0.06
  -5  -8  -8   -0.01    0.08
  -6  -8  -8    0.84    0.12
  -6  -8  -8    1.06    0.17
  -2  -9  -8    0.02    0.05
  -3  -9  -8    1.64    0.14
  -4  -9  -8   -0.04    0.06
  -5  -9  -8    0.04    0.07
  -2 -10  -8    0.69    0.10
  -3 -10  -8    0.01    0.06
  -4 -10  -8    0.01    0.06
  -3 -11  -8   -0.04    0.06
  -2  -9   9    0.06    0.08
  -1  -9   9   -0.02    0.08
   0  -9   9    0.20    0.08
   1  -9   9    0.01    0.07
   2  -9   9   -0.09    0.06
  -3  -8   9    0.01    0.07
  -2  -8   9    0.02    0.08
  -1  -8   9    0.42    0.10
   0  -8   9    1.08    0.13
   1  -8   9   -0.01    0.07
  -4  -7   9    0.03    0.07
  -3  -7   9    0.06    0.08
  -2  -7   9    0.19    0.09
  -1  -7   9    0.33    0.10
   0  -7   9    0.35    0.09
   1  -7   9    0.39    0.09
   2  -7   9    0.34    0.09
   3  -7   9    0.22    0.08
  -5  -6   9    0.87    0.14
  -4  -6   9    0.26    0.09
  -3  -6   9    0.03    0.07
  -2  -6   9    0.37    0.10
  -1  -6   9    0.21    0.08
   0  -6   9    0.03    0.06
   1  -6   9    0.10    0.06
   2  -6   9    0.44    0.09
   3  -6   9    0.07    0.07
  -4  -5   9    0.62    0.11
  -3  -5   9    0.43    0.09
  -2  -5   9   16.98    0.74
  -1  -5   9    8.47    0.40
   0  -5   9   -0.06    0.05
   1  -5   9    0.11    0.06
   2  -5   9    0.37    0.07
   3  -5   9    1.29    0.12
   4  -5   9    0.12    0.07
  -4  -4   9    0.84    0.11
  -3  -4   9    0.10    0.07
  -2  -4   9   14.57    0.63
  -1  -4   9    3.90    0.21
   0  -4   9    0.03    0.05
   1  -4   9    4.53    0.23
   2  -4   9    1.20    0.11
   3  -4   9    0.92    0.10
   4  -4   9    0.10    0.06
  -4  -3   9    0.25    0.07
  -3  -3   9    7.87    0.37
  -3  -3   9    7.30    0.41
  -2  -3   9    0.27    0.07
  -1  -3   9   -0.01    0.04
   0  -3   9    0.89    0.08
   1  -3   9    1.17    0.09
   2  -3   9    0.16    0.05
   3  -3   9    0.23    0.06
   4  -3   9    0.13    0.06
   5  -3   9    0.17    0.06
  -6  -2   9    0.47    0.15
  -5  -2   9    1.23    0.16
  -4  -2   9   -0.03    0.07
  -3  -2   9   18.66    0.94
  -3  -2   9   19.51    0.80
  -2  -2   9    2.76    0.17
  -2  -2   9    2.49    0.15
  -1  -2   9    1.76    0.13
  -1  -2   9    1.99    0.12
   0   2  -9   -0.01    0.04
   0  -2   9    0.01    0.04
  -1   2  -9    0.01    0.04
   1  -2   9    0.04    0.04
  -2   2  -9    1.09    0.10
   2  -2   9    1.04    0.09
  -3   2  -9   -0.04    0.05
   3  -2   9   -0.05    0.04
  -4   2  -9    0.05    0.07
   4  -2   9    0.04    0.05
  -5   2  -9    0.28    0.11
   5  -2   9    0.07    0.06
  -6   2  -9    0.23    0.14
  -7   2  -9    0.15    0.18
  -6  -1   9    0.37    0.15
  -5  -1   9    0.22    0.11
  -4  -1   9    0.20    0.09
  -3  -1   9    6.59    0.36
  -3  -1   9    6.36    0.31
  -2  -1   9   -0.01    0.05
  -1  -1   9    0.76    0.08
  -1  -1   9    0.65    0.08
   0   1  -9    1.36    0.10
   0  -1   9    1.45    0.10
  -1   1  -9    0.30    0.07
   1  -1   9    0.43    0.06
  -2   1  -9    0.15    0.05
   2  -1   9    0.13    0.04
  -3   1  -9    0.01    0.05
   3  -1   9   -0.01    0.04
  -4   1  -9    0.19    0.09
   4  -1   9    0.23    0.06
  -5   1  -9    0.04    0.10
   5  -1   9    0.02    0.05
  -6   1  -9    0.11    0.14
   6  -1   9    0.07    0.06
  -7   1  -9   -0.12    0.16
  -6   0   9   -0.04    0.11
  -5   0   9    0.20    0.11
  -4   0   9    0.06    0.08
  -3   0   9    1.75    0.15
  -2   0   9    2.75    0.18
  -2   0   9    2.87    0.15
  -1   0   9    0.29    0.06
  -1   0   9    0.32    0.05
   0   0  -9    0.03    0.04
   0   0   9    0.00    0.03
  -1   0  -9    0.93    0.09
   1   0   9    1.03    0.08
  -2   0  -9    0.26    0.06
   2   0   9    0.23    0.05
  -3   0  -9    1.91    0.15
   3   0   9    1.72    0.11
  -4   0  -9    1.20    0.14
   4   0   9    1.14    0.10
  -5   0  -9    0.09    0.10
   5   0   9    0.03    0.05
  -6   0  -9   -0.09    0.12
   6   0   9   -0.05    0.05
  -7   0  -9    0.01    0.15
  -6   1   9   -0.06    0.11
  -5   1   9    0.35    0.12
  -4   1   9    0.03    0.09
  -3   1   9    0.21    0.08
  -2   1   9    0.60    0.09
  -2   1   9    0.45    0.07
  -1   1   9    0.70    0.08
  -1   1   9    0.70    0.07
   0  -1  -9    3.43    0.20
   0   1   9    3.36    0.17
  -1  -1  -9    1.20    0.11
   1   1   9    1.22    0.09
  -2  -1  -9    0.22    0.06
   2   1   9    0.20    0.04
  -3  -1  -9    1.47    0.14
   3   1   9    1.49    0.10
  -4  -1  -9    1.32    0.15
   4   1   9    1.04    0.09
  -5  -1  -9    0.28    0.11
  -6  -1  -9    0.41    0.15
   6   1   9    0.16    0.06
  -7  -1  -9    0.07    0.14
  -6   2   9    0.09    0.12
  -5   2   9   -0.05    0.09
  -4   2   9    0.22    0.11
  -3   2   9    0.51    0.10
  -2   2   9    2.46    0.18
  -1   2   9    0.37    0.05
  -1   2   9    0.36    0.07
   0  -2  -9    2.31    0.16
   0   2   9    2.43    0.13
  -1  -2  -9    2.78    0.18
   1   2   9    2.87    0.15
  -2  -2  -9    3.00    0.20
   2   2   9    3.29    0.16
  -3  -2  -9    0.04    0.05
   3   2   9   -0.03    0.03
  -4  -2  -9   -0.02    0.06
   4   2   9   -0.05    0.04
  -5  -2  -9    0.09    0.10
   5   2   9    0.04    0.05
  -6  -2  -9    2.58    0.23
   6   2   9    1.99    0.15
  -7  -2  -9    0.20    0.13
   7   2   9    0.12    0.06
  -6   3   9    0.28    0.14
  -5   3   9   -0.02    0.10
  -4   3   9   -0.05    0.09
  -3   3   9    0.28    0.09
  -2   3   9    0.91    0.11
  -1   3   9    4.45    0.21
   0  -3  -9    0.17    0.05
   0   3   9    0.15    0.04
  -1  -3  -9    0.13    0.06
   1   3   9    0.11    0.04
  -2  -3  -9    4.76    0.28
   2   3   9    4.97    0.23
  -3  -3  -9    0.80    0.11
   3   3   9    0.82    0.08
  -4  -3  -9    4.17    0.27
   4   3   9    3.72    0.21
  -5  -3  -9    0.63    0.15
   5   3   9    0.52    0.09
   6   3   9    0.35    0.08
  -7  -3  -9    0.25    0.13
   7   3   9    0.04    0.06
  -5   4   9   -0.07    0.09
  -4   4   9    1.10    0.16
  -3   4   9    0.01    0.07
  -2   4   9    0.06    0.07
  -1   4   9    0.75    0.10
   0  -4  -9    0.37    0.07
   0   4   9    0.35    0.06
  -1  -4  -9    3.77    0.24
   1   4   9    3.86    0.19
  -2  -4  -9    2.28    0.17
   2   4   9    2.06    0.13
  -3  -4  -9   -0.05    0.05
  -4  -4  -9    1.84    0.18
   4   4   9    1.95    0.13
  -5  -4  -9    6.53    0.39
   5   4   9    5.71    0.30
  -6  -4  -9    0.22    0.12
   6   4   9    0.19    0.07
  -7  -4  -9    0.13    0.12
   7   4   9   -0.08    0.06
  -5   5   9    0.00    0.10
  -3   5   9    0.00    0.08
  -2   5   9    0.42    0.10
  -1   5   9    0.31    0.09
   0  -5  -9    0.73    0.12
   0   5   9    0.90    0.08
   2   5   9    0.44    0.08
  -3  -5  -9    2.05    0.17
   3   5   9    2.02    0.14
  -4  -5  -9    3.92    0.27
   4   5   9    4.13    0.22
  -5  -5  -9    0.80    0.14
   5   5   9    0.60    0.09
  -6  -5  -9    0.42    0.13
   6   5   9    0.22    0.07
  -7  -5  -9    0.05    0.12
   7   5   9    0.02    0.07
  -5   6   9    0.19    0.13
  -4   6   9   -0.13    0.10
  -3   6   9    0.07    0.09
  -2   6   9   -0.12    0.07
  -1   6   9    0.62    0.12
  -1  -6  -9   18.10    0.86
   1   6   9   16.05    0.71
  -2  -6  -9   -0.01    0.06
   2   6   9   -0.02    0.04
  -3  -6  -9    2.25    0.19
   3   6   9    2.35    0.15
  -4  -6  -9    0.00    0.07
   4   6   9    0.03    0.05
  -5  -6  -9    0.02    0.08
   5   6   9   -0.05    0.05
  -6  -6  -9    0.30    0.13
   6   6   9    0.17    0.07
  -4   7   9    1.46    0.19
  -3   7   9    0.20    0.11
  -2   7   9    1.33    0.16
  -1   7   9    0.06    0.11
  -1  -7  -9    0.44    0.09
   1   7   9    0.29    0.06
  -2  -7  -9    0.81    0.13
   2   7   9    0.93    0.09
  -3  -7  -9    1.37    0.16
   3   7   9    1.61    0.12
  -4  -7  -9    0.01    0.07
   4   7   9   -0.01    0.05
  -5  -7  -9    0.00    0.08
   5   7   9   -0.01    0.05
  -6  -7  -9   -0.07    0.10
   6   7   9    0.01    0.06
  -4   8   9    0.42    0.14
  -3   8   9    0.01    0.10
  -2   8   9   -0.08    0.09
  -1   8   9    1.74    0.18
   0   8   9    0.05    0.09
  -1  -8  -9    0.81    0.12
   1   8   9    0.80    0.09
  -2  -8  -9    0.33    0.10
  -3  -8  -9    0.02    0.06
  -3  -8  -9    0.14    0.09
  -4  -8  -9   -0.05    0.07
  -4  -8  -9   -0.06    0.05
  -5  -8  -9   -0.06    0.09
  -2  -9  -9    0.09    0.06
  -2  -9  -9    0.09    0.08
  -3  -9  -9    0.28    0.07
  -4  -9  -9   -0.01    0.06
  -5  -9  -9   -0.07    0.07
  -2 -10  -9   -0.03    0.05
  -3 -10  -9    0.27    0.07
  -4 -10  -9    0.00    0.06
  -1  -9  10    0.00    0.08
   1  -9  10    0.08    0.08
  -3  -8  10   -0.01    0.08
  -2  -8  10    0.09    0.08
  -1  -8  10    0.74    0.12
   0  -8  10    0.09    0.08
   1  -8  10    0.03    0.08
  -4  -7  10    0.08    0.08
  -3  -7  10    0.17    0.08
  -2  -7  10    0.20    0.09
  -1  -7  10    4.97    0.28
   0  -7  10    1.71    0.15
   1  -7  10    0.00    0.07
   2  -7  10   -0.05    0.07
   3  -7  10    0.06    0.07
  -4  -6  10    0.17    0.08
  -3  -6  10    1.03    0.13
  -2  -6  10    0.67    0.11
  -1  -6  10    7.11    0.35
   0  -6  10    1.14    0.12
   1  -6  10   -0.07    0.05
   2  -6  10    0.68    0.10
   3  -6  10    0.04    0.07
  -4  -5  10    0.32    0.09
  -3  -5  10    0.15    0.07
  -2  -5  10    0.93    0.12
  -1  -5  10    0.15    0.07
   0  -5  10   -0.04    0.05
   1  -5  10    0.10    0.06
   2  -5  10    0.02    0.06
   3  -5  10    0.83    0.11
   4  -5  10    0.05    0.07
  -4  -4  10    1.51    0.14
  -3  -4  10    0.62    0.10
  -2  -4  10   11.74    0.53
  -1  -4  10    1.31    0.12
   0  -4  10    1.34    0.11
   1  -4  10    0.03    0.05
   2  -4  10    0.04    0.06
   3  -4  10    0.29    0.07
   4  -4  10    0.03    0.06
  -3  -3  10    1.66    0.14
  -2  -3  10    0.95    0.11
  -1  -3  10    0.76    0.08
   0  -3  10   -0.04    0.04
   1  -3  10    0.41    0.07
   2  -3  10    0.16    0.06
   3  -3  10   -0.04    0.05
   4  -3  10   -0.04    0.05
   5  -3  10    0.04    0.06
  -5  -2  10    0.74    0.14
  -4  -2  10    0.13    0.09
  -3  -2  10    0.38    0.08
  -3  -2  10    0.42    0.10
  -2  -2  10    0.71    0.09
  -2  -2  10    0.90    0.10
  -1  -2  10   -0.06    0.04
  -1  -2  10   -0.07    0.04
   0   2 -10    1.46    0.11
   0  -2  10    1.43    0.11
  -1   2 -10    0.00    0.04
   1  -2  10   -0.05    0.04
  -2   2 -10   -0.03    0.04
   2  -2  10   -0.03    0.04
  -3   2 -10    0.03    0.05
   3  -2  10   -0.05    0.04
  -4   2 -10    0.16    0.08
   4  -2  10    0.07    0.05
  -5   2 -10    0.51    0.13
   5  -2  10    0.26    0.07
  -6   2 -10    0.14    0.13
  -6  -1  10   -0.05    0.12
  -5  -1  10   -0.11    0.09
  -4  -1  10   -0.05    0.08
  -3  -1  10    0.65    0.09
  -3  -1  10    0.53    0.12
  -2  -1  10    0.66    0.08
  -2  -1  10    0.73    0.10
  -1  -1  10    1.09    0.09
  -1  -1  10    1.05    0.10
   0   1 -10    2.75    0.17
   0  -1  10    2.65    0.15
  -1   1 -10    0.01    0.04
   1  -1  10   -0.04    0.04
  -2   1 -10   -0.01    0.05
   2  -1  10   -0.05    0.04
  -3   1 -10    0.17    0.06
   3  -1  10    0.08    0.05
  -4   1 -10    0.06    0.07
   4  -1  10   -0.05    0.05
  -5   1 -10    0.10    0.11
   5  -1  10    0.04    0.06
  -6   1 -10    0.13    0.14
   6  -1  10    0.00    0.06
  -6   0  10    0.68    0.17
  -5   0  10    0.25    0.13
  -4   0  10    0.53    0.12
  -3   0  10    0.49    0.11
  -2   0  10    0.23    0.07
  -2   0  10    0.17    0.05
  -1   0  10    3.07    0.16
  -1   0  10    2.98    0.19
   0   0 -10    1.67    0.13
   0   0  10    1.60    0.11
  -1   0 -10    0.00    0.05
   1   0  10   -0.06    0.04
  -2   0 -10    3.22    0.20
   2   0  10    3.26    0.17
  -3   0 -10    1.40    0.13
   3   0  10    1.37    0.11
  -4   0 -10    0.31    0.10
   4   0  10    0.26    0.06
  -5   0 -10    0.29    0.12
   5   0  10    0.15    0.06
  -6   0 -10    0.72    0.16
   6   0  10    0.43    0.08
  -7   0 -10    0.11    0.16
  -6   1  10   -0.10    0.11
  -5   1  10   -0.02    0.10
  -4   1  10   -0.11    0.08
  -3   1  10    2.70    0.20
  -2   1  10    1.73    0.14
  -2   1  10    1.45    0.11
  -1   1  10    7.03    0.37
  -1   1  10    6.86    0.31
   0  -1 -10    4.70    0.27
   0   1  10    4.79    0.23
  -1  -1 -10    6.81    0.37
   1   1  10    7.14    0.32
  -2  -1 -10    3.03    0.20
   2   1  10    3.11    0.17
  -3  -1 -10    1.55    0.14
   3   1  10    1.63    0.11
  -4  -1 -10    0.05    0.08
   4   1  10    0.03    0.05
  -5  -1 -10    0.15    0.11
   5   1  10   -0.02    0.05
  -6  -1 -10    0.11    0.13
   6   1  10    0.00    0.06
  -7  -1 -10    0.07    0.14
  -5   2  10    0.01    0.10
  -4   2  10   -0.09    0.09
  -3   2  10    2.46    0.19
  -2   2  10    0.80    0.11
  -1   2  10    2.22    0.16
  -1   2  10    2.32    0.13
   0  -2 -10    0.24    0.07
   0   2  10    0.22    0.05
  -1  -2 -10    4.85    0.29
   1   2  10    5.20    0.24
  -2  -2 -10   14.87    0.74
   2   2  10   14.63    0.62
  -3  -2 -10    3.41    0.22
   3   2  10    3.29    0.18
  -4  -2 -10    0.59    0.12
   4   2  10    0.45    0.08
  -5  -2 -10    2.16    0.21
   5   2  10    1.68    0.14
  -6  -2 -10    0.31    0.14
   6   2  10    0.03    0.06
  -7  -2 -10    0.07    0.12
   7   2  10   -0.08    0.05
  -5   3  10   -0.05    0.10
  -4   3  10    0.34    0.12
  -2   3  10    0.01    0.06
  -1   3  10    0.62    0.07
  -1   3  10    0.70    0.10
   0  -3 -10    0.95    0.12
   0   3  10    1.17    0.09
  -1  -3 -10    6.84    0.38
   1   3  10    6.96    0.31
  -2  -3 -10    0.73    0.11
   2   3  10    0.54    0.08
  -3  -3 -10    0.33    0.08
   3   3  10    0.33    0.06
  -4  -3 -10   -0.03    0.07
   4   3  10   -0.03    0.05
  -5  -3 -10    2.05    0.21
   5   3  10    1.92    0.15
  -6  -3 -10    1.31    0.19
   6   3  10    1.11    0.12
  -7  -3 -10    0.01    0.12
   7   3  10   -0.11    0.06
  -5   4  10    0.16    0.12
  -4   4  10    0.09    0.11
  -3   4  10    0.02    0.09
  -2   4  10    1.48    0.14
  -1   4  10    1.02    0.12
   0   4  10    0.00    0.05
  -1  -4 -10   61.15    2.88
   1   4  10   60.31    2.42
  -2  -4 -10    9.83    0.53
   2   4  10   10.35    0.45
  -3  -4 -10    1.43    0.15
   3   4  10    1.55    0.12
  -4  -4 -10    0.89    0.14
   4   4  10    0.98    0.11
  -5  -4 -10    0.10    0.10
   5   4  10    0.14    0.06
  -6  -4 -10    0.58    0.14
   6   4  10    0.31    0.08
  -7  -4 -10    0.04    0.12
   7   4  10   -0.07    0.06
  -5   5  10    0.04    0.12
  -4   5  10    0.25    0.13
  -3   5  10    1.90    0.18
  -2   5  10    0.00    0.07
  -1   5  10    0.95    0.12
  -1  -5 -10   24.42    1.13
   1   5  10   21.38    0.94
  -2  -5 -10    0.10    0.07
   2   5  10    0.12    0.05
  -3  -5 -10   -0.09    0.06
   3   5  10   -0.05    0.04
  -4  -5 -10    0.30    0.11
   4   5  10    0.41    0.08
  -5  -5 -10   -0.02    0.08
   5   5  10   -0.05    0.05
  -6  -5 -10    0.11    0.11
   6   5  10    0.02    0.06
  -4   6  10    0.18    0.13
  -3   6  10    3.73    0.27
  -2   6  10   -0.03    0.08
  -1   6  10    0.80    0.12
  -1  -6 -10    0.27    0.08
  -2  -6 -10    0.02    0.08
   2   6  10    0.07    0.05
  -3  -6 -10    0.12    0.08
   3   6  10    0.22    0.06
  -4  -6 -10   -0.05    0.06
   4   6  10   -0.01    0.05
  -5  -6 -10    0.47    0.12
   5   6  10    0.41    0.08
  -6  -6 -10    0.08    0.10
   6   6  10    0.05    0.06
  -4   7  10    0.12    0.13
  -3   7  10    0.02    0.10
  -2   7  10    0.09    0.10
  -1   7  10    0.94    0.14
  -1  -7 -10    0.16    0.08
   1   7  10    0.15    0.05
  -2  -7 -10    0.65    0.12
   2   7  10    0.72    0.09
  -3  -7 -10    0.16    0.08
   3   7  10    0.19    0.06
  -4  -7 -10    0.34    0.10
   4   7  10    0.38    0.08
  -5  -7 -10    0.18    0.10
   5   7  10    0.19    0.07
  -6  -7 -10   -0.06    0.09
   6   7  10    0.01    0.06
  -3   8  10    0.07    0.11
  -2   8  10   -0.01    0.09
  -1   8  10    0.74    0.13
   0   8  10   -0.02    0.09
  -1  -8 -10    0.51    0.11
  -2  -8 -10    0.10    0.08
   2   8  10    0.10    0.05
  -3  -8 -10   -0.06    0.07
   3   8  10    0.00    0.05
  -4  -8 -10   -0.05    0.07
   4   8  10    0.01    0.06
  -5  -8 -10    0.01    0.09
   5   8  10    0.08    0.06
  -2   9  10    0.22    0.11
  -1   9  10    0.16    0.11
   0   9  10   -0.06    0.10
  -2  -9 -10    0.62    0.12
   2   9  10    0.50    0.09
  -3  -9 -10    0.46    0.11
   3   9  10    0.31    0.08
  -4  -9 -10   -0.10    0.07
   4   9  10   -0.05    0.06
  -2  -8  11    0.25    0.09
  -1  -8  11    0.21    0.09
   0  -8  11    1.39    0.15
   1  -8  11    0.11    0.09
  -3  -7  11    0.86    0.13
  -2  -7  11    0.16    0.08
  -1  -7  11    0.90    0.12
   0  -7  11    0.21    0.09
   1  -7  11   -0.02    0.07
   2  -7  11    0.18    0.08
   3  -7  11   -0.09    0.07
  -4  -6  11    0.45    0.10
  -3  -6  11    0.19    0.08
  -2  -6  11    1.32    0.14
  -1  -6  11    0.78    0.11
   0  -6  11    0.15    0.08
   1  -6  11   -0.02    0.06
  -4  -5  11    0.73    0.12
  -3  -5  11    0.11    0.07
  -2  -5  11    0.59    0.10
  -1  -5  11    0.81    0.11
   0  -5  11   -0.06    0.05
   1  -5  11   -0.04    0.06
   3  -5  11   -0.09    0.08
   4  -5  11    0.28    0.10
  -4  -4  11    0.68    0.11
  -3  -4  11    0.13    0.07
  -2  -4  11    0.02    0.06
  -1  -4  11    0.22    0.07
   0  -4  11    0.03    0.05
   1  -4  11   -0.04    0.05
   2  -4  11   -0.02    0.06
   3  -4  11   -0.05    0.07
   4  -4  11    0.51    0.10
  -3  -3  11   -0.01    0.06
  -2  -3  11    0.12    0.07
  -1  -3  11    0.38    0.07
   0  -3  11    0.22    0.06
   1  -3  11   -0.04    0.05
   3  -3  11    0.11    0.07
   4  -3  11    0.08    0.07
   5  -3  11    0.06    0.07
  -5  -2  11   -0.01    0.10
  -4  -2  11    0.12    0.10
  -3  -2  11   -0.08    0.05
  -3  -2  11   -0.03    0.07
  -2  -2  11    1.01    0.11
  -2  -2  11    1.12    0.11
  -1  -2  11   -0.02    0.05
  -1  -2  11    0.01    0.05
   0  -2  11    0.24    0.06
  -1   2 -11    0.51    0.08
   1  -2  11    0.31    0.07
   2  -2  11    0.34    0.07
  -3   2 -11    0.00    0.06
   3  -2  11   -0.05    0.05
   4  -2  11    0.34    0.07
  -5   2 -11    0.16    0.10
   5  -2  11   -0.01    0.06
  -6   2 -11    0.17    0.13
  -5  -1  11    0.61    0.14
  -4  -1  11    0.00    0.09
  -3  -1  11    0.25    0.09
  -2  -1  11    7.27    0.39
  -2  -1  11    7.18    0.34
  -1  -1  11    1.78    0.14
  -1  -1  11    1.63    0.12
   0   1 -11    1.12    0.10
   0  -1  11    1.05    0.10
  -1   1 -11    1.58    0.12
   1  -1  11    1.31    0.11
  -2   1 -11    0.05    0.06
   2  -1  11   -0.08    0.05
  -3   1 -11    3.64    0.22
   3  -1  11    3.19    0.20
  -4   1 -11    0.89    0.13
   4  -1  11    0.64    0.10
  -5   1 -11    0.03    0.10
   5  -1  11   -0.06    0.06
  -6   1 -11    0.19    0.14
   6  -1  11   -0.07    0.07
  -5   0  11   -0.10    0.10
  -4   0  11    0.32    0.12
  -3   0  11    0.16    0.09
  -2   0  11    1.62    0.14
  -2   0  11    1.33    0.11
  -1   0  11    0.71    0.09
  -1   0  11    0.56    0.08
   0   0 -11    0.17    0.06
   0   0  11   -0.01    0.05
  -1   0 -11    0.12    0.06
   1   0  11   -0.07    0.05
  -2   0 -11    0.23    0.07
   2   0  11    0.03    0.06
  -3   0 -11   12.97    0.64
   3   0  11   11.83    0.54
   4   0  11    1.37    0.12
  -5   0 -11    0.12    0.11
   5   0  11   -0.03    0.06
  -6   0 -11    1.43    0.20
   6   0  11    1.09    0.13
  -5   1  11    0.20    0.12
  -4   1  11    0.24    0.12
  -3   1  11    0.03    0.09
  -2   1  11    0.01    0.07
  -1   1  11    1.07    0.11
  -1   1  11    0.81    0.09
   0  -1 -11    2.69    0.18
   0   1  11    2.58    0.15
  -1  -1 -11    0.19    0.07
   1   1  11    0.03    0.06
  -2  -1 -11    3.62    0.23
   2   1  11    3.23    0.20
   3   1  11    0.12    0.06
  -4  -1 -11    0.30    0.10
   4   1  11    0.22    0.06
  -5  -1 -11    0.42    0.13
   5   1  11    0.12    0.07
  -6  -1 -11    0.96    0.18
   6   1  11    0.73    0.11
  -5   2  11    0.06    0.12
  -4   2  11   -0.13    0.09
  -3   2  11    0.21    0.11
  -2   2  11   -0.02    0.07
  -1   2  11    0.94    0.11
  -1   2  11    0.84    0.09
   0  -2 -11    6.43    0.36
   0   2  11    6.38    0.30
  -1  -2 -11   -0.02    0.08
  -2  -2 -11   46.16    2.16
   2   2  11   44.40    1.82
  -3  -2 -11    2.31    0.18
   3   2  11    2.15    0.14
  -4  -2 -11    0.07    0.08
   4   2  11    0.06    0.05
  -5  -2 -11    1.30    0.18
   5   2  11    0.99    0.11
  -6  -2 -11    0.07    0.12
   6   2  11   -0.02    0.06
  -5   3  11    0.13    0.12
  -4   3  11    0.19    0.11
  -3   3  11    0.26    0.10
  -2   3  11    4.54    0.29
  -1   3  11    0.50    0.09
   0  -3 -11    0.24    0.09
   0   3  11    0.24    0.06
  -1  -3 -11    7.81    0.43
   1   3  11    7.85    0.36
  -2  -3 -11   15.87    0.79
   2   3  11   15.20    0.66
  -3  -3 -11    0.10    0.07
   3   3  11    0.12    0.05
  -4  -3 -11   -0.02    0.08
   4   3  11    0.02    0.05
  -5  -3 -11    0.17    0.12
   5   3  11    0.21    0.07
  -6  -3 -11    0.37    0.13
   6   3  11    0.33    0.08
  -5   4  11    0.07    0.11
  -4   4  11    0.46    0.14
  -3   4  11    1.32    0.15
  -2   4  11    2.53    0.20
  -1   4  11    0.24    0.08
   0  -4 -11    0.46    0.10
   0   4  11    0.36    0.07
  -1  -4 -11    3.16    0.21
   1   4  11    2.62    0.17
  -2  -4 -11    2.46    0.19
   2   4  11    2.50    0.15
  -3  -4 -11    0.05    0.08
   3   4  11    0.11    0.05
  -4  -4 -11    0.43    0.12
   4   4  11    0.61    0.09
  -5  -4 -11    0.06    0.10
   5   4  11    0.07    0.06
  -6  -4 -11    0.07    0.10
   6   4  11   -0.03    0.06
  -4   5  11    0.06    0.12
  -3   5  11    0.62    0.13
  -2   5  11    0.39    0.11
  -1   5  11    0.05    0.08
   0  -5 -11    3.95    0.23
   0   5  11    3.11    0.19
  -1  -5 -11    2.36    0.18
   1   5  11    1.88    0.13
  -2  -5 -11    0.13    0.07
   2   5  11    0.16    0.05
  -3  -5 -11    0.11    0.09
   3   5  11    0.17    0.06
  -4  -5 -11    0.35    0.10
   4   5  11    0.39    0.08
  -5  -5 -11    0.40    0.12
   5   5  11    0.37    0.08
  -6  -5 -11    0.01    0.09
   6   5  11   -0.05    0.06
  -4   6  11    0.04    0.12
  -3   6  11    0.02    0.10
  -2   6  11    0.28    0.11
  -1   6  11    0.16    0.09
  -1  -6 -11    1.28    0.14
   1   6  11    1.12    0.10
  -2  -6 -11    0.94    0.13
   2   6  11    0.99    0.10
  -3  -6 -11    2.58    0.20
   3   6  11    2.37    0.16
  -4  -6 -11   -0.04    0.07
   4   6  11   -0.02    0.05
  -5  -6 -11    0.02    0.08
   5   6  11    0.00    0.06
  -6  -6 -11   -0.04    0.09
   6   6  11   -0.02    0.06
  -3   7  11    0.62    0.14
  -2   7  11    0.58    0.13
  -1   7  11    0.30    0.11
   0   7  11    0.18    0.10
  -1  -7 -11    0.00    0.07
   1   7  11   -0.04    0.04
  -2  -7 -11    0.03    0.08
   2   7  11    0.05    0.05
  -3  -7 -11    0.02    0.07
   3   7  11    0.10    0.06
   4   7  11   -0.03    0.05
  -5  -7 -11    0.20    0.11
   5   7  11    0.24    0.08
  -3   8  11    0.12    0.12
  -2   8  11    0.04    0.10
  -1   8  11    0.57    0.13
   0   8  11   -0.01    0.09
  -1  -8 -11    0.04    0.07
  -2  -8 -11    0.68    0.12
   2   8  11    0.57    0.09
  -3  -8 -11   -0.01    0.08
   3   8  11    0.05    0.06
  -4  -8 -11   -0.06    0.07
   4   8  11   -0.04    0.06
  -5  -8 -11   -0.05    0.09
   5   8  11    0.11    0.07
  -1   9  11    0.07    0.11
   0   9  11    0.01    0.10
   2   9  11    0.41    0.08
  -3  -9 -11    0.06    0.08
   3   9  11   -0.02    0.06
  -4  -9 -11    0.60    0.13
   4   9  11    0.55    0.10
  -2  -7  12    0.21    0.09
  -1  -7  12    0.58    0.11
   0  -7  12   -0.06    0.07
   1  -7  12    0.00    0.08
   2  -7  12   -0.04    0.08
  -3  -6  12    0.94    0.13
  -2  -6  12    0.12    0.08
  -1  -6  12    0.08    0.08
   0  -6  12   -0.04    0.07
   1  -6  12   -0.09    0.06
   3  -6  12   -0.13    0.07
  -4  -5  12    0.10    0.08
  -3  -5  12    0.03    0.07
  -2  -5  12   -0.01    0.07
  -1  -5  12    0.99    0.12
   0  -5  12    0.32    0.08
   1  -5  12   -0.05    0.06
   2  -5  12    0.01    0.07
   3  -5  12   -0.04    0.08
  -3  -4  12    0.01    0.07
  -2  -4  12   -0.04    0.06
  -1  -4  12   -0.10    0.06
   0  -4  12    0.59    0.09
   1  -4  12    0.18    0.07
   2  -4  12    0.17    0.08
   3  -4  12    0.14    0.09
   4  -4  12    0.04    0.09
   5  -4  12    0.21    0.10
  -3  -3  12   -0.05    0.06
  -1  -3  12    2.62    0.17
   0  -3  12   -0.01    0.05
   1  -3  12    0.71    0.09
   3  -3  12    0.15    0.08
   4  -3  12    3.64    0.23
   5  -3  12    0.60    0.12
  -2  -2  12   -0.07    0.05
  -1  -2  12    0.19    0.06
  -1  -2  12    0.14    0.06
   0  -2  12    0.10    0.06
   3  -2  12    0.22    0.08
   4  -2  12    2.76    0.18
   5  -2  12    0.04    0.07
  -5  -1  12    0.16    0.13
  -4  -1  12   -0.02    0.10
  -3  -1  12   -0.08    0.07
  -2  -1  12    0.06    0.06
  -2  -1  12    0.35    0.09
  -1  -1  12    0.09    0.07
  -1  -1  12    0.04    0.06
   0  -1  12    0.68    0.08
  -1   1 -12    0.27    0.07
   1  -1  12    0.11    0.06
  -2   1 -12    0.23    0.08
   2  -1  12    0.04    0.07
  -3   1 -12    2.70    0.19
   3  -1  12    2.12    0.16
  -4   1 -12    0.16    0.08
   4  -1  12    0.04    0.07
  -5   1 -12    0.06    0.10
   5  -1  12   -0.10    0.06
  -6   1 -12   -0.01    0.14
   6  -1  12   -0.06    0.07
  -5   0  12    0.43    0.14
  -4   0  12    0.35    0.13
  -3   0  12   -0.11    0.08
  -1   0  12    0.31    0.07
  -1   0  12    0.43    0.09
   0   0 -12    3.02    0.19
  -1   0 -12    1.25    0.13
   1   0  12    1.35    0.11
  -2   0 -12    3.35    0.23
   2   0  12    3.28    0.19
  -3   0 -12   10.87    0.54
   3   0  12    9.25    0.46
   4   0  12    0.28    0.07
  -5   0 -12    0.02    0.11
   5   0  12   -0.03    0.06
  -6   0 -12    0.18    0.14
   6   0  12    0.00    0.07
  -5   1  12    0.00    0.12
  -4   1  12    1.46    0.17
  -3   1  12    0.51    0.11
  -2   1  12    0.91    0.13
  -1   1  12    2.38    0.15
  -1   1  12    2.37    0.18
   0  -1 -12    0.44    0.09
  -1  -1 -12    0.17    0.09
   1   1  12    0.34    0.07
  -2  -1 -12    4.58    0.29
   2   1  12    4.66    0.24
  -3  -1 -12    4.49    0.27
   3   1  12    3.96    0.23
  -4  -1 -12    0.05    0.07
   4   1  12   -0.02    0.05
  -5  -1 -12    0.02    0.11
   5   1  12   -0.08    0.05
  -6  -1 -12   -0.01    0.13
   6   1  12    0.02    0.06
  -5   2  12    0.01    0.12
  -4   2  12   -0.01    0.10
  -3   2  12    1.94    0.18
  -2   2  12    4.38    0.28
  -1   2  12    2.25    0.15
  -1   2  12    2.45    0.18
   0  -2 -12    0.21    0.07
   0   2  12    0.29    0.06
  -1  -2 -12    0.78    0.12
   1   2  12    1.12    0.10
  -2  -2 -12    1.07    0.13
   2   2  12    1.19    0.11
  -3  -2 -12    0.95    0.13
   3   2  12    0.88    0.10
  -4  -2 -12   -0.06    0.07
   4   2  12   -0.01    0.05
  -5  -2 -12    0.19    0.12
   5   2  12    0.13    0.07
  -6  -2 -12    0.19    0.13
   6   2  12   -0.05    0.06
  -4   3  12   -0.10    0.10
  -3   3  12    0.07    0.09
  -2   3  12    1.19    0.14
   0  -3 -12    1.62    0.14
   0   3  12    1.56    0.12
  -1  -3 -12    1.65    0.15
   1   3  12    1.42    0.11
  -2  -3 -12    0.00    0.06
   2   3  12   -0.02    0.04
  -3  -3 -12   -0.02    0.06
   3   3  12   -0.01    0.05
  -4  -3 -12    0.59    0.13
   4   3  12    0.74    0.09
  -5  -3 -12    0.26    0.12
   5   3  12    0.12    0.06
  -6  -3 -12    0.26    0.13
   6   3  12    0.12    0.07
  -4   4  12   -0.04    0.11
  -3   4  12    0.79    0.13
  -2   4  12    0.02    0.08
  -1   4  12    0.53    0.11
   0  -4 -12    1.04    0.11
   0   4  12    0.88    0.09
  -1  -4 -12    0.13    0.07
   1   4  12    0.13    0.05
  -2  -4 -12    0.87    0.12
   2   4  12    0.89    0.09
  -3  -4 -12    0.93    0.13
   3   4  12    0.99    0.10
  -4  -4 -12    0.46    0.12
   4   4  12    0.50    0.09
  -5  -4 -12    0.06    0.10
   5   4  12    0.12    0.07
  -6  -4 -12    0.14    0.11
   6   4  12    0.04    0.07
  -4   5  12   -0.14    0.10
  -3   5  12   -0.04    0.09
  -2   5  12   -0.06    0.08
  -1   5  12    2.13    0.18
  -1  -5 -12   -0.02    0.07
   1   5  12   -0.01    0.04
  -2  -5 -12   -0.11    0.07
   2   5  12   -0.02    0.04
  -3  -5 -12   -0.10    0.07
   3   5  12   -0.08    0.05
  -4  -5 -12   -0.01    0.07
   4   5  12    0.06    0.06
  -5  -5 -12    0.21    0.10
   5   5  12    0.13    0.07
  -6  -5 -12    0.03    0.09
   6   5  12    0.01    0.07
  -3   6  12    0.00    0.10
  -2   6  12   -0.04    0.09
  -1  -6 -12    0.43    0.10
   1   6  12    0.36    0.07
  -2  -6 -12    0.93    0.13
   2   6  12    0.80    0.10
  -3  -6 -12    0.03    0.08
   3   6  12    0.03    0.05
  -4  -6 -12    0.07    0.09
   4   6  12    0.09    0.06
  -5  -6 -12    0.00    0.09
   5   6  12   -0.04    0.06
  -3   7  12   -0.03    0.11
  -2   7  12    0.30    0.12
  -1   7  12    0.06    0.10
   0   7  12    0.09    0.10
  -1  -7 -12    0.17    0.09
  -2  -7 -12    0.09    0.08
   2   7  12    0.03    0.06
  -3  -7 -12    0.04    0.08
   3   7  12    0.02    0.05
  -4  -7 -12    0.32    0.10
   4   7  12    0.48    0.09
  -5  -7 -12    0.28    0.12
   5   7  12    0.36    0.09
  -2   8  12   -0.06    0.10
  -1   8  12    0.04    0.11
   0   8  12   -0.13    0.09
  -1  -8 -12    2.13    0.18
  -2  -8 -12    0.02    0.08
   2   8  12   -0.03    0.05
  -3  -8 -12    0.21    0.10
   3   8  12    0.08    0.07
  -4  -8 -12    0.00    0.09
   4   8  12    0.12    0.07
  -1   9  12    0.05    0.11
   0   9  12    0.72    0.14
  -2  -9 -12    2.57    0.21
  -3  -9 -12    0.49    0.12
   3   9  12    0.43    0.09
   0  -7  13    0.05    0.08
  -2  -6  13    0.31    0.10
  -1  -6  13   -0.09    0.07
   0  -6  13   -0.09    0.07
   1  -6  13    0.15    0.08
   2  -6  13   -0.06    0.07
  -3  -5  13    0.23    0.09
  -2  -5  13    0.65    0.11
  -1  -5  13    0.04    0.07
   0  -5  13    0.46    0.09
   1  -5  13   -0.06    0.06
   2  -5  13   -0.08    0.07
   3  -5  13   -0.14    0.08
  -3  -4  13    0.08    0.08
  -2  -4  13   -0.08    0.06
  -1  -4  13    0.22    0.08
   0  -4  13    0.00    0.06
   1  -4  13    0.06    0.07
   2  -4  13   -0.12    0.06
   3  -4  13    0.17    0.09
   4  -4  13    0.14    0.10
  -3  -3  13    0.20    0.08
  -2  -3  13   -0.08    0.06
  -1  -3  13    0.03    0.07
   0  -3  13    0.83    0.10
   2  -3  13   -0.04    0.06
   3  -3  13   -0.03    0.07
   5  -3  13    0.07    0.09
  -2  -2  13   -0.05    0.06
  -1  -2  13    0.40    0.08
   0  -2  13    0.02    0.05
   1  -2  13    0.44    0.08
   2  -2  13    0.26    0.08
   3  -2  13    2.61    0.18
   4  -2  13    2.24    0.17
   5  -2  13    0.12    0.08
  -3  -1  13    1.57    0.16
  -2  -1  13    0.20    0.08
  -2  -1  13    0.08    0.06
  -1  -1  13    1.17    0.13
  -1  -1  13    0.98    0.11
   0  -1  13    0.34    0.07
   1  -1  13   -0.07    0.05
   2  -1  13   -0.04    0.05
  -3   1 -13    2.47    0.19
   3  -1  13    2.31    0.17
  -4   1 -13    0.29    0.10
   4  -1  13    0.24    0.08
  -5   1 -13    0.18    0.10
   5  -1  13    0.05    0.07
  -4   0  13    0.06    0.12
  -3   0  13   -0.04    0.08
  -2   0  13    1.75    0.16
  -1   0  13    3.80    0.22
  -1   0  13    4.30    0.26
  -1   0 -13    0.50    0.10
   1   0  13    0.66    0.08
  -2   0 -13    0.29    0.09
  -3   0 -13    0.52    0.11
   3   0  13    0.40    0.08
  -4   0 -13    0.05    0.07
   4   0  13   -0.01    0.06
  -5   0 -13    0.06    0.10
   5   0  13    0.02    0.07
  -6   0 -13    0.05    0.13
  -4   1  13    0.75    0.15
  -3   1  13    0.03    0.09
  -2   1  13    0.05    0.07
  -1   1  13    0.95    0.10
  -1   1  13    1.26    0.13
   0  -1 -13    0.07    0.06
   0   1  13    0.12    0.06
   1   1  13    0.02    0.05
  -2  -1 -13    0.43    0.10
   2   1  13    0.46    0.08
  -3  -1 -13    0.63    0.11
   3   1  13    0.58    0.09
  -4  -1 -13   -0.05    0.08
   4   1  13    0.03    0.06
  -5  -1 -13    0.45    0.14
   5   1  13    0.32    0.08
  -6  -1 -13    0.07    0.13
   6   1  13   -0.03    0.06
  -4   2  13    0.92    0.16
  -3   2  13   -0.01    0.09
  -2   2  13    0.08    0.08
  -1   2  13    0.26    0.10
   0  -2 -13    3.72    0.24
   0   2  13    4.11    0.21
  -1  -2 -13    0.19    0.08
   1   2  13    0.13    0.06
  -2  -2 -13    0.77    0.11
   2   2  13    0.69    0.09
  -3  -2 -13    0.42    0.10
   3   2  13    0.31    0.07
  -4  -2 -13    0.71    0.13
   4   2  13    0.73    0.10
  -5  -2 -13    0.10    0.09
   5   2  13    0.18    0.07
  -6  -2 -13    0.20    0.13
   6   2  13    0.13    0.07
  -4   3  13   -0.02    0.12
  -3   3  13   -0.02    0.10
  -2   3  13    0.08    0.09
  -1   3  13   -0.06    0.08
   0  -3 -13    0.29    0.08
   0   3  13    0.25    0.06
  -1  -3 -13    0.58    0.10
   1   3  13    0.56    0.08
  -2  -3 -13    0.04    0.07
   2   3  13    0.05    0.05
  -3  -3 -13    0.61    0.11
   3   3  13    0.63    0.09
  -4  -3 -13   -0.06    0.08
   4   3  13    0.01    0.05
  -5  -3 -13    0.47    0.13
   5   3  13    0.46    0.09
  -6  -3 -13    0.19    0.11
   6   3  13   -0.01    0.06
  -4   4  13   -0.15    0.11
  -3   4  13    0.41    0.13
  -2   4  13   -0.01    0.09
  -1   4  13    0.07    0.09
   0   4  13    0.21    0.06
  -1  -4 -13    0.45    0.10
   1   4  13    0.41    0.08
  -2  -4 -13    0.46    0.10
   2   4  13    0.48    0.08
  -3  -4 -13    0.21    0.09
   3   4  13    0.30    0.07
  -4  -4 -13   -0.07    0.07
   4   4  13   -0.02    0.05
  -5  -4 -13    0.08    0.10
   5   4  13    0.14    0.07
  -3   5  13    0.06    0.11
  -2   5  13    0.02    0.09
  -1   5  13    0.02    0.09
  -1  -5 -13    0.03    0.07
   1   5  13    0.07    0.05
  -2  -5 -13    0.34    0.10
   2   5  13    0.23    0.07
  -3  -5 -13    0.13    0.09
   3   5  13    0.11    0.06
  -4  -5 -13   -0.07    0.07
   4   5  13    0.01    0.05
  -5  -5 -13   -0.06    0.08
   5   5  13    0.00    0.06
  -3   6  13   -0.05    0.11
  -2   6  13   -0.06    0.09
  -1   6  13    0.21    0.11
   0   6  13    0.24    0.11
  -1  -6 -13    0.01    0.08
   1   6  13   -0.04    0.05
  -2  -6 -13    1.10    0.14
   2   6  13    0.81    0.11
  -3  -6 -13   -0.08    0.07
   3   6  13   -0.05    0.05
  -4  -6 -13    0.02    0.09
   4   6  13    0.01    0.06
  -5  -6 -13    0.08    0.10
   5   6  13    0.13    0.08
  -2   7  13    0.22    0.12
  -1   7  13   -0.01    0.10
   0   7  13    0.26    0.11
  -1  -7 -13    2.04    0.18
  -2  -7 -13    0.03    0.09
   2   7  13   -0.01    0.06
  -3  -7 -13    1.30    0.16
   3   7  13    1.04    0.13
  -4  -7 -13    0.04    0.08
   4   7  13    0.08    0.07
  -1   8  13    0.12    0.11
   0   8  13   -0.04    0.10
  -1  -8 -13    0.38    0.11
  -2  -8 -13    1.79    0.18
   2   8  13    1.52    0.15
  -3  -8 -13    1.67    0.18
   3   8  13    1.30    0.14
   0  -6  14   -0.01    0.07
   1  -6  14   -0.03    0.07
  -2  -5  14    0.03    0.08
  -1  -5  14   -0.02    0.07
   0  -5  14    0.21    0.08
   1  -5  14    0.14    0.08
   2  -5  14    0.49    0.10
  -2  -4  14    0.60    0.11
  -1  -4  14   -0.03    0.07
   0  -4  14    0.07    0.07
   1  -4  14    0.37    0.09
   2  -4  14    0.01    0.07
   3  -4  14    0.06    0.08
  -2  -3  14    0.36    0.09
  -1  -3  14    0.27    0.08
   0  -3  14    0.26    0.08
   1  -3  14    0.25    0.07
   2  -3  14   -0.06    0.06
   3  -3  14   -0.03    0.07
   4  -3  14    0.83    0.13
  -2  -2  14   -0.09    0.06
  -1  -2  14   -0.02    0.06
   0  -2  14    2.90    0.18
   1  -2  14    0.17    0.07
   2  -2  14   -0.01    0.06
   3  -2  14    0.08    0.07
   4  -2  14    0.15    0.08
  -3  -1  14    0.12    0.10
  -2  -1  14   -0.06    0.07
  -2  -1  14   -0.02    0.06
  -1  -1  14   -0.02    0.06
  -1  -1  14    0.05    0.07
   0  -1  14   -0.01    0.06
   0  -1  14   -0.02    0.06
   1  -1  14   -0.03    0.05
   2  -1  14    0.01    0.05
  -3   1 -14   -0.03    0.07
   3  -1  14    0.08    0.07
  -4   1 -14    0.02    0.08
   4  -1  14    0.06    0.07
   5  -1  14    0.02    0.07
  -4   0  14    1.13    0.18
  -3   0  14    0.65    0.13
  -2   0  14   -0.05    0.07
  -1   0  14   -0.02    0.07
  -1   0  14   -0.03    0.06
   0   0  14   -0.01    0.05
  -1   0 -14    0.36    0.09
   1   0  14    0.45    0.08
  -2   0 -14    0.40    0.10
   2   0  14    0.43    0.08
  -3   0 -14    0.21    0.08
   3   0  14    0.19    0.07
  -4   0 -14    0.03    0.08
   4   0  14    0.07    0.07
  -5   0 -14    0.08    0.10
   5   0  14   -0.03    0.07
  -4   1  14    0.89    0.17
  -3   1  14    0.17    0.11
  -2   1  14    0.00    0.08
  -1   1  14    0.47    0.11
  -1   1  14    0.51    0.09
   0   1  14   -0.05    0.05
  -1  -1 -14    1.28    0.13
   1   1  14    1.35    0.12
  -2  -1 -14   -0.06    0.06
   2   1  14   -0.04    0.05
  -3  -1 -14    0.01    0.07
   3   1  14   -0.02    0.06
  -4  -1 -14    0.57    0.13
   4   1  14    0.41    0.09
  -5  -1 -14    0.03    0.10
   5   1  14    0.01    0.06
  -3   2  14   -0.08    0.09
  -2   2  14    0.12    0.09
  -1   2  14    0.14    0.09
   0   2  14    0.03    0.05
  -1  -2 -14   -0.01    0.06
   1   2  14    0.00    0.05
  -2  -2 -14    0.07    0.07
   2   2  14    0.02    0.05
  -3  -2 -14    0.13    0.08
   3   2  14    0.13    0.06
  -4  -2 -14    0.25    0.11
   4   2  14    0.33    0.08
  -5  -2 -14    0.02    0.10
   5   2  14    0.01    0.06
  -3   3  14   -0.13    0.09
  -2   3  14    0.02    0.09
   0   3  14    0.11    0.06
  -1  -3 -14    0.55    0.10
   1   3  14    0.46    0.09
  -2  -3 -14    0.04    0.07
   2   3  14    0.02    0.05
  -3  -3 -14   -0.04    0.07
   3   3  14    0.04    0.06
  -4  -3 -14    0.05    0.09
   4   3  14    0.08    0.06
  -5  -3 -14   -0.04    0.09
   5   3  14    0.04    0.07
  -2   4  14    0.12    0.10
  -1   4  14    0.08    0.09
  -1  -4 -14    0.38    0.10
   1   4  14    0.36    0.08
  -2  -4 -14    0.11    0.08
   2   4  14    0.10    0.06
  -3  -4 -14    0.81    0.13
   3   4  14    0.72    0.10
  -4  -4 -14   -0.05    0.08
   4   4  14    0.11    0.06
  -5  -4 -14    0.01    0.10
   5   4  14    0.09    0.07
  -3   5  14    0.06    0.12
  -2   5  14    0.00    0.09
  -1   5  14    0.07    0.10
   0   5  14   -0.09    0.08
  -1  -5 -14    0.44    0.11
   1   5  14    0.34    0.08
  -2  -5 -14    1.51    0.16
   2   5  14    1.35    0.13
  -3  -5 -14    0.82    0.13
   3   5  14    0.78    0.11
  -4  -5 -14    0.31    0.11
   4   5  14    0.38    0.09
  -5  -5 -14    0.21    0.11
   5   5  14    0.27    0.09
  -2   6  14    0.50    0.14
  -1   6  14   -0.03    0.10
   0   6  14   -0.02    0.09
  -1  -6 -14   -0.06    0.07
  -2  -6 -14    0.29    0.10
   2   6  14    0.14    0.07
  -3  -6 -14    1.90    0.19
   3   6  14    1.77    0.15
  -4  -6 -14    0.40    0.11
   4   6  14    0.51    0.10
  -1   7  14   -0.04    0.11
   0   7  14    0.71    0.13
  -1  -7 -14    0.00    0.08
  -2  -7 -14    0.59    0.14
   2   7  14    0.43    0.09
  -3  -7 -14    1.21    0.16
   3   7  14    0.98    0.13
   0   8  14    0.40    0.13
  -2  -8 -14    0.68    0.14
  -1  -4  15    0.02    0.07
   0  -4  15    0.06    0.07
   1  -4  15    0.37    0.09
   2  -4  15    0.14    0.08
  -2  -3  15    0.12    0.09
  -1  -3  15   -0.05    0.07
   0  -3  15    0.02    0.07
   1  -3  15    0.04    0.07
   2  -3  15   -0.04    0.06
   3  -3  15    0.00    0.07
  -2  -2  15   -0.03    0.07
  -1  -2  15   -0.01    0.06
   0  -2  15    0.03    0.06
   1  -2  15   -0.04    0.06
   2  -2  15    0.08    0.06
   3  -2  15    0.05    0.07
   4  -2  15    0.04    0.08
  -1  -1  15    0.36    0.09
   0  -1  15    0.07    0.06
   1  -1  15   -0.04    0.05
   2  -1  15    0.10    0.07
   3  -1  15    0.00    0.06
   4  -1  15    0.07    0.07
  -3   0  15    0.00    0.10
  -2   0  15   -0.04    0.08
  -1   0  15    0.01    0.08
  -1   0  15   -0.06    0.06
   0   0  15   -0.05    0.08
   0   0  15   -0.03    0.06
  -1   0 -15    0.17    0.07
   1   0  15    0.10    0.07
  -2   0 -15    0.12    0.07
   2   0  15    0.16    0.07
  -3   0 -15    0.00    0.07
   3   0  15    0.02    0.06
  -4   0 -15   -0.03    0.08
   4   0  15   -0.02    0.06
  -3   1  15   -0.14    0.10
  -2   1  15   -0.07    0.09
  -1   1  15   -0.01    0.08
   0   1  15    0.49    0.10
   0   1  15    0.76    0.12
  -1  -1 -15    0.32    0.09
   1   1  15    0.30    0.08
  -2  -1 -15   -0.05    0.06
   2   1  15   -0.02    0.05
  -3  -1 -15   -0.02    0.07
   3   1  15   -0.06    0.06
  -4  -1 -15    0.17    0.09
   4   1  15    0.09    0.07
  -2   2  15   -0.02    0.09
  -1   2  15   -0.04    0.09
   0   2  15    0.03    0.06
  -1  -2 -15    0.46    0.10
   1   2  15    0.37    0.08
  -2  -2 -15    0.65    0.11
   2   2  15    0.48    0.09
  -3  -2 -15    0.02    0.08
   3   2  15    0.05    0.07
  -4  -2 -15    0.04    0.09
   4   2  15    0.12    0.07
  -2   3  15    0.58    0.13
  -1   3  15    0.20    0.10
  -1  -3 -15    0.47    0.10
   1   3  15    0.44    0.09
  -2  -3 -15    0.39    0.10
   2   3  15    0.32    0.08
  -3  -3 -15    0.68    0.12
   3   3  15    0.56    0.10
  -4  -3 -15    0.38    0.11
   4   3  15    0.44    0.10
  -2   4  15   -0.07    0.09
  -1   4  15    0.30    0.11
   0   4  15   -0.02    0.09
  -1  -4 -15   -0.08    0.07
   1   4  15   -0.05    0.06
  -2  -4 -15    0.21    0.10
   2   4  15    0.18    0.07
  -3  -4 -15    0.06    0.09
   3   4  15   -0.02    0.07
   4   4  15    2.43    0.19
  -2   5  15   -0.04    0.10
  -1   5  15   -0.03    0.10
   0   5  15   -0.03    0.09
  -1  -5 -15    0.35    0.11
   1   5  15    0.34    0.08
  -2  -5 -15   -0.07    0.08
   2   5  15   -0.04    0.06
  -3  -5 -15    0.07    0.09
   3   5  15    0.11    0.08
  -4  -5 -15    0.63    0.13
   4   5  15    0.43    0.10
  -1   6  15   -0.08    0.10
   0   6  15    0.35    0.12
  -1  -6 -15    0.13    0.10
  -2  -6 -15    0.26    0.11
   2   6  15    0.16    0.09
  -3  -6 -15    0.95    0.15
   3   6  15    0.66    0.12
   0   7  15    1.00    0.15
  -2  -7 -15   -0.13    0.09
   0  -3  16    0.00    0.07
   1  -3  16    0.10    0.08
  -1  -2  16   -0.07    0.07
   0  -2  16   -0.01    0.07
   1  -2  16    0.06    0.07
   2  -2  16    0.06    0.07
  -1  -1  16   -0.03    0.07
   0  -1  16    0.00    0.07
   1  -1  16   -0.06    0.06
   2  -1  16   -0.02    0.06
   3  -1  16   -0.06    0.06
  -2   0  16    0.00    0.09
  -1   0  16    0.05    0.08
  -1   0  16    0.15    0.10
   0   0  16   -0.05    0.08
   0   0  16   -0.02    0.07
  -1   0 -16    0.00    0.06
   1   0  16   -0.04    0.06
  -2   0 -16   -0.02    0.06
   2   0  16   -0.10    0.05
  -3   0 -16   -0.04    0.07
   3   0  16    0.02    0.07
  -2   1  16   -0.07    0.09
  -1   1  16    0.74    0.13
   0   1  16    0.05    0.07
   0   1  16    0.09    0.09
  -1  -1 -16    0.03    0.07
   1   1  16    0.09    0.07
  -2  -1 -16    0.14    0.08
   2   1  16    0.13    0.07
  -3  -1 -16    0.06    0.08
   3   1  16    0.03    0.07
  -4  -1 -16    0.07    0.08
  -2   2  16    0.72    0.14
  -1   2  16    0.10    0.10
   0   2  16    0.87    0.13
   0   2  16    0.67    0.11
  -1  -2 -16    0.03    0.07
   1   2  16    0.00    0.06
  -2  -2 -16    0.05    0.08
   2   2  16    0.04    0.07
  -3  -2 -16    0.20    0.09
   3   2  16    0.14    0.09
  -4  -2 -16   -0.03    0.08
   4   2  16   -0.10    0.07
  -1   3  16    0.34    0.12
   0   3  16    0.35    0.11
  -1  -3 -16   -0.01    0.07
   1   3  16    0.01    0.06
  -2  -3 -16    0.18    0.08
   2   3  16    0.12    0.08
  -3  -3 -16    0.08    0.09
   3   3  16    0.05    0.08
  -1   4  16   -0.12    0.10
   0   4  16    0.22    0.11
  -1  -4 -16    1.40    0.15
   1   4  16    1.22    0.14
  -2  -4 -16    0.05    0.09
   2   4  16    0.02    0.07
  -3  -4 -16   -0.10    0.09
   3   4  16    0.02    0.08
   0   5  16    0.07    0.10
  -1  -5 -16    0.50    0.11
  -2  -5 -16    0.05    0.09
   2   5  16    0.05    0.08
   3   5  16    0.05    0.07
   1  -1  17   -0.09    0.06
   0   0  17   -0.03    0.07
   1   0  17   -0.09    0.06
   2   0  17   -0.07    0.07
   0   1  17   -0.02    0.07
   0   1  17    0.09    0.10
  -1  -1 -17   -0.01    0.06
   1   1  17   -0.11    0.06
  -2  -1 -17    0.06    0.08
   2   1  17    0.02    0.07
   0   2  17    0.43    0.12
  -1  -2 -17    0.02    0.07
   1   2  17   -0.03    0.07
  -2  -2 -17    0.82    0.12
   2   2  17    0.75    0.12
   0   3  17   -0.02    0.10
  -1  -3 -17    0.17    0.08
   1   3  17    0.06    0.08
  -2  -3 -17    0.58    0.12
   2   3  17    0.48    0.10
   0   0   0    0.00    0.00
;
loop_
_space_group_symop_operation_xyz
'x, y, z'
'-x, -y, -z'
loop_
_atom_site_label
_atom_site_type_symbol
_atom_site_fract_x
_atom_site_fract_y
_atom_site_fract_z
_atom_site_U_iso_or_equiv
_atom_site_adp_type
_atom_site_occupancy
_atom_site_site_symmetry_order
_atom_site_calc_flag
_atom_site_refinement_flags_posn
_atom_site_refinement_flags_adp
_atom_site_refinement_flags_occupancy
_atom_site_disorder_assembly
_atom_site_disorder_group
C1 C 0.0338(4) 0.6786(3) 0.3201(2) 0.0374(6) Uani 1 1 d . . . . .
C2 C 0.1475(5) 0.7476(3) 0.3806(2) 0.0467(7) Uani 1 1 d . . . . .
C3 C 0.0867(5) 0.7612(4) 0.4815(2) 0.0567(9) Uani 1 1 d . . . . .
C4 C -0.0974(5) 0.7005(4) 0.5253(2) 0.0565(9) Uani 1 1 d . . . . .
C5 C -0.2151(5) 0.6337(3) 0.4698(2) 0.0500(8) Uani 1 1 d . . . . .
H5 H -0.3386 0.5963 0.5003 0.060 Uiso 1 1 calc R U . . .
C6 C -0.1519(4) 0.6211(3) 0.3681(2) 0.0387(7) Uani 1 1 d . . . . .
C7 C -0.2776(5) 0.5457(3) 0.3109(2) 0.0419(7) Uani 1 1 d . . . . .
C8 C -0.2015(4) 0.5319(3) 0.2085(2) 0.0381(6) Uani 1 1 d . . . . .
C9 C -0.0209(4) 0.5922(3) 0.1665(2) 0.0385(7) Uani 1 1 d . . . . .
H9 H 0.0235 0.5834 0.0985 0.046 Uiso 1 1 calc R U . . .
C10 C -0.3117(5) 0.4531(3) 0.1427(2) 0.0460(7) Uani 1 1 d . . . . .
C11 C 0.2754(4) 0.7323(3) 0.1591(2) 0.0431(7) Uani 1 1 d . . . . .
H11A H 0.3068 0.6932 0.0945 0.052 Uiso 1 1 calc R U . . .
H11B H 0.3999 0.7101 0.1954 0.052 Uiso 1 1 calc R U . . .
C12 C 0.2304(5) 0.8931(3) 0.1405(2) 0.0412(7) Uani 1 1 d . . . . .
C13 C -0.0044(6) 1.0889(4) 0.1141(3) 0.0687(10) Uani 1 1 d . . . . .
H13 H -0.1436 1.1284 0.1100 0.082 Uiso 1 1 calc R U . . .
C14 C 0.1522(7) 1.1788(4) 0.0984(3) 0.0645(10) Uani 1 1 d . . . . .
H14 H 0.1202 1.2768 0.0840 0.077 Uiso 1 1 calc R U . . .
C15 C 0.3554(6) 1.1222(4) 0.1044(3) 0.0660(10) Uani 1 1 d . . . . .
H15 H 0.4653 1.1810 0.0941 0.079 Uiso 1 1 calc R U . . .
C16 C 0.3980(5) 0.9772(4) 0.1258(3) 0.0569(9) Uani 1 1 d . . . . .
H16 H 0.5364 0.9364 0.1304 0.068 Uiso 1 1 calc R U . . .
C17 C 0.1701(7) 0.8753(4) 0.6228(3) 0.0792(12) Uani 1 1 d . . . . .
H17A H 0.1606 0.7938 0.6737 0.095 Uiso 1 1 calc R U . . .
H17B H 0.0350 0.9334 0.6269 0.095 Uiso 1 1 calc R U . . .
C18 C 0.3431(7) 0.9613(5) 0.6412(3) 0.0824(13) Uani 1 1 d . . . . .
H18A H 0.4733 0.9004 0.6445 0.124 Uiso 1 1 calc R U . . .
H18B H 0.3060 1.0024 0.7041 0.124 Uiso 1 1 calc R U . . .
H18C H 0.3608 1.0361 0.5869 0.124 Uiso 1 1 calc R U . . .
F1 F 0.3271(3) 0.8062(2) 0.34132(13) 0.0661(6) Uani 1 1 d . . . . .
F2 F -0.1595(4) 0.7071(3) 0.62488(14) 0.0873(8) Uani 1 1 d . . . . .
N1 N 0.0956(3) 0.6631(2) 0.21797(17) 0.0384(6) Uani 1 1 d . . . . .
N2 N 0.0306(4) 0.9465(3) 0.1350(2) 0.0574(7) Uani 1 1 d . . . . .
O1 O -0.4862(4) 0.3988(2) 0.18767(18) 0.0618(7) Uani 1 1 d . . . . .
H1 H -0.5087 0.4202 0.2460 0.093 Uiso 1 1 calc R U . . .
O2 O -0.2505(4) 0.4374(3) 0.05602(18) 0.0623(7) Uani 1 1 d . . . . .
O3 O -0.4459(4) 0.4949(2) 0.35270(16) 0.0609(7) Uani 1 1 d . . . . .
O4 O 0.2165(5) 0.8296(4) 0.5283(2) 0.0989(11) Uani 1 1 d . . . . .
loop_
_atom_site_aniso_label
_atom_site_aniso_U_11
_atom_site_aniso_U_22
_atom_site_aniso_U_33
_atom_site_aniso_U_23
_atom_site_aniso_U_13
_atom_site_aniso_U_12
C1 0.0385(16) 0.0327(15) 0.0419(15) -0.0058(12) -0.0018(12) -0.0076(12)
C2 0.0432(17) 0.0516(18) 0.0486(17) -0.0076(14) -0.0018(13) -0.0200(14)
C3 0.059(2) 0.066(2) 0.0521(19) -0.0154(16) -0.0081(16) -0.0251(17)
C4 0.062(2) 0.069(2) 0.0411(17) -0.0136(15) 0.0033(15) -0.0218(17)
C5 0.0494(18) 0.0520(19) 0.0494(17) -0.0058(14) 0.0067(14) -0.0205(15)
C6 0.0407(16) 0.0307(15) 0.0449(16) -0.0032(12) -0.0015(13) -0.0087(12)
C7 0.0431(17) 0.0333(15) 0.0497(17) -0.0016(12) 0.0000(13) -0.0131(13)
C8 0.0386(16) 0.0271(14) 0.0499(16) -0.0055(12) -0.0043(12) -0.0074(12)
C9 0.0440(16) 0.0316(15) 0.0410(15) -0.0071(12) -0.0015(12) -0.0083(12)
C10 0.0448(18) 0.0378(17) 0.058(2) -0.0099(14) -0.0055(15) -0.0091(13)
C11 0.0354(16) 0.0469(18) 0.0482(16) -0.0113(13) 0.0049(13) -0.0124(13)
C12 0.0437(18) 0.0423(17) 0.0394(15) -0.0065(12) -0.0011(12) -0.0138(13)
C13 0.061(2) 0.059(2) 0.082(3) -0.0010(19) -0.0045(19) 0.0008(18)
C14 0.083(3) 0.0406(19) 0.069(2) -0.0053(16) -0.0027(19) -0.0094(18)
C15 0.069(3) 0.048(2) 0.086(3) -0.0113(18) -0.0081(19) -0.0233(18)
C16 0.0477(19) 0.052(2) 0.075(2) -0.0098(16) -0.0095(16) -0.0173(15)
C17 0.104(3) 0.077(3) 0.066(2) -0.020(2) -0.015(2) -0.029(2)
C18 0.099(3) 0.092(3) 0.068(2) -0.026(2) -0.012(2) -0.039(3)
F1 0.0633(12) 0.0871(14) 0.0565(11) -0.0147(10) -0.0001(9) -0.0454(11)
F2 0.0987(17) 0.125(2) 0.0476(11) -0.0266(12) 0.0117(11) -0.0569(15)
N1 0.0372(13) 0.0361(13) 0.0435(13) -0.0067(10) -0.0005(10) -0.0114(10)
N2 0.0460(17) 0.0523(18) 0.0738(19) -0.0015(14) -0.0051(13) -0.0114(13)
O1 0.0633(15) 0.0595(14) 0.0700(15) -0.0179(12) 0.0007(12) -0.0349(12)
O2 0.0587(15) 0.0770(17) 0.0587(15) -0.0279(12) -0.0038(11) -0.0200(12)
O3 0.0617(14) 0.0692(15) 0.0564(13) -0.0117(11) 0.0093(11) -0.0386(12)
O4 0.098(2) 0.155(3) 0.0619(16) -0.0436(17) 0.0030(14) -0.073(2)
loop_
_atom_type_symbol
_atom_type_description
_atom_type_scat_dispersion_real
_atom_type_scat_dispersion_imag
_atom_type_scat_source
C C 0.0033 0.0016 'International Tables Vol C Tables 4.2.6.8 and 6.1.1.4'
H H 0.0000 0.0000 'International Tables Vol C Tables 4.2.6.8 and 6.1.1.4'
N N 0.0061 0.0033 'International Tables Vol C Tables 4.2.6.8 and 6.1.1.4'
O O 0.0106 0.0060 'International Tables Vol C Tables 4.2.6.8 and 6.1.1.4'
F F 0.0171 0.0103 'International Tables Vol C Tables 4.2.6.8 and 6.1.1.4'
loop_
_geom_angle_atom_site_label_1
_geom_angle_atom_site_label_2
_geom_angle_atom_site_label_3
_geom_angle
_geom_angle_site_symmetry_1
_geom_angle_site_symmetry_3
N1 C1 C2 123.9(2) . .
N1 C1 C6 119.6(2) . .
C2 C1 C6 116.5(2) . .
F1 C2 C3 115.7(2) . .
F1 C2 C1 120.8(3) . .
C3 C2 C1 123.5(3) . .
O4 C3 C2 115.5(3) . .
O4 C3 C4 127.1(3) . .
C2 C3 C4 117.4(3) . .
F2 C4 C5 119.0(3) . .
F2 C4 C3 119.5(3) . .
C5 C4 C3 121.5(3) . .
C4 C5 C6 120.4(3) . .
C5 C6 C1 120.6(2) . .
C5 C6 C7 119.4(2) . .
C1 C6 C7 120.0(2) . .
O3 C7 C8 122.4(2) . .
O3 C7 C6 120.7(3) . .
C8 C7 C6 116.9(2) . .
C9 C8 C7 120.0(2) . .
C9 C8 C10 117.9(3) . .
C7 C8 C10 122.2(2) . .
N1 C9 C8 123.8(3) . .
O2 C10 O1 121.1(3) . .
O2 C10 C8 124.1(3) . .
O1 C10 C8 114.8(3) . .
N1 C11 C12 112.8(2) . .
N2 C12 C16 122.8(3) . .
N2 C12 C11 117.8(2) . .
C16 C12 C11 119.3(3) . .
N2 C13 C14 123.9(4) . .
C15 C14 C13 118.5(3) . .
C14 C15 C16 119.5(3) . .
C15 C16 C12 118.6(3) . .
O4 C17 C18 108.3(3) . .
C9 N1 C1 119.7(2) . .
C9 N1 C11 116.9(2) . .
C1 N1 C11 123.2(2) . .
C12 N2 C13 116.8(3) . .
C3 O4 C17 125.2(3) . .
loop_
_geom_bond_atom_site_label_1
_geom_bond_atom_site_label_2
_geom_bond_distance
_geom_bond_site_symmetry_2
C1 N1 1.396(3) .
C1 C2 1.403(4) .
C1 C6 1.412(4) .
C2 F1 1.351(3) .
C2 C3 1.376(4) .
C3 O4 1.352(4) .
C3 C4 1.401(4) .
C4 F2 1.350(4) .
C4 C5 1.361(4) .
C5 C6 1.387(4) .
C6 C7 1.459(4) .
C7 O3 1.267(3) .
C7 C8 1.414(4) .
C8 C9 1.374(4) .
C8 C10 1.494(4) .
C9 N1 1.346(3) .
C10 O2 1.200(4) .
C10 O1 1.328(3) .
C11 N1 1.482(3) .
C11 C12 1.515(4) .
C12 N2 1.325(4) .
C12 C16 1.384(4) .
C13 N2 1.344(4) .
C13 C14 1.365(5) .
C14 C15 1.355(5) .
C15 C16 1.373(5) .
C17 O4 1.372(4) .
C17 C18 1.498(5) .
