#------------------------------------------------------------------------------
#$Date: 2022-05-09 12:06:59 +0300 (Mon, 09 May 2022) $
#$Revision: 275276 $
#$URL: file:///home/coder/svn-repositories/cod/cif/8/10/51/8105189.cif $
#------------------------------------------------------------------------------
#
# This file is available in the Crystallography Open Database (COD),
# http://www.crystallography.net/
#
# All data on this site have been placed in the public domain by the
# contributors.
#
data_8105189
loop_
_publ_author_name
'Yan, Wei-Hong'
'Chen, Wan-Yao'
_publ_section_title
;
 Crystal structure of 1,1&#x2032;-(1,2-ethanediyl)bis(pyridin-1-ium)
 bis(1,2-dicyanoethene-1,2-dithiolato-\k2 S:S)nickel(II), C20H14N6NiS4
;
_journal_issue                   2
_journal_name_full
'Zeitschrift f\"ur Kristallographie - New Crystal Structures'
_journal_page_first              235
_journal_page_last               236
_journal_paper_doi               10.1515/ncrs-2021-0433
_journal_volume                  237
_journal_year                    2022
_chemical_formula_moiety         'C8 N4 Ni S4, C12 H14 N2'
_chemical_formula_sum            'C20 H14 N6 Ni S4'
_chemical_formula_weight         525.32
_space_group_crystal_system      triclinic
_space_group_IT_number           2
_space_group_name_Hall           '-P 1'
_space_group_name_H-M_alt        'P -1'
_atom_sites_solution_hydrogens   geom
_atom_sites_solution_primary     iterative
_cell_angle_alpha                116.404(3)
_cell_angle_beta                 94.574(4)
_cell_angle_gamma                103.031(4)
_cell_formula_units_Z            1
_cell_length_a                   8.519(3)
_cell_length_b                   8.5956(16)
_cell_length_c                   8.6531(17)
_cell_measurement_reflns_used    878
_cell_measurement_temperature    296.15
_cell_measurement_theta_max      28.23
_cell_measurement_theta_min      2.51
_cell_volume                     541.0(2)
_computing_cell_refinement       'SAINT v7.68A (Bruker, 2009)'
_computing_data_reduction        'SAINT v7.68A (Bruker, 2009)'
_computing_molecular_graphics    'Olex2 (Dolomanov et al., 2009)'
_computing_publication_material  'Olex2 (Dolomanov et al., 2009)'
_computing_structure_refinement  'ShelXL (Sheldrick, 2015)'
_computing_structure_solution    'olex2.solve (Bourhis et al., 2015)'
_diffrn_ambient_temperature      296.15
_diffrn_measured_fraction_theta_full 0.989
_diffrn_measured_fraction_theta_max 0.983
_diffrn_measurement_device_type  'CCD area detector'
_diffrn_measurement_method       'phi and omega scans'
_diffrn_radiation_monochromator  graphite
_diffrn_radiation_type           MoK\a
_diffrn_radiation_wavelength     0.71073
_diffrn_reflns_av_R_equivalents  0.0270
_diffrn_reflns_av_unetI/netI     0.0609
_diffrn_reflns_Laue_measured_fraction_full 0.989
_diffrn_reflns_Laue_measured_fraction_max 0.983
_diffrn_reflns_limit_h_max       11
_diffrn_reflns_limit_h_min       -7
_diffrn_reflns_limit_k_max       9
_diffrn_reflns_limit_k_min       -11
_diffrn_reflns_limit_l_max       10
_diffrn_reflns_limit_l_min       -11
_diffrn_reflns_number            3974
_diffrn_reflns_point_group_measured_fraction_full 0.989
_diffrn_reflns_point_group_measured_fraction_max 0.983
_diffrn_reflns_theta_full        25.242
_diffrn_reflns_theta_max         28.524
_diffrn_reflns_theta_min         2.508
_exptl_absorpt_coefficient_mu    1.304
_exptl_absorpt_correction_T_max  0.7457
_exptl_absorpt_correction_T_min  0.6505
_exptl_absorpt_correction_type   none
_exptl_absorpt_process_details
;
SADABS-2008/1 (Bruker,2008) was used for absorption correction.
wR2(int) was 0.0472 before and 0.0327 after correction.
The Ratio of minimum to maximum transmission is 0.8723.
The \l/2 correction factor is 0.0015.
;
_exptl_crystal_colour            red
_exptl_crystal_colour_primary    red
_exptl_crystal_density_diffrn    1.612
_exptl_crystal_density_meas      .
_exptl_crystal_description       block
_exptl_crystal_F_000             268
_refine_diff_density_max         0.435
_refine_diff_density_min         -0.621
_refine_diff_density_rms         0.109
_refine_ls_extinction_coef       .
_refine_ls_extinction_method     none
_refine_ls_goodness_of_fit_ref   1.046
_refine_ls_hydrogen_treatment    constr
_refine_ls_matrix_type           full
_refine_ls_number_parameters     142
_refine_ls_number_reflns         2708
_refine_ls_number_restraints     0
_refine_ls_restrained_S_all      1.046
_refine_ls_R_factor_all          0.0611
_refine_ls_R_factor_gt           0.0445
_refine_ls_shift/su_max          0.000
_refine_ls_shift/su_mean         0.000
_refine_ls_structure_factor_coef Fsqd
_refine_ls_weighting_details
'w=1/[\s^2^(Fo^2^)+(0.0468P)^2^+0.4529P] where P=(Fo^2^+2Fc^2^)/3'
_refine_ls_weighting_scheme      calc
_refine_ls_wR_factor_gt          0.0992
_refine_ls_wR_factor_ref         0.1147
_reflns_Friedel_coverage         0.000
_reflns_Friedel_fraction_full    .
_reflns_Friedel_fraction_max     .
_reflns_number_gt                2157
_reflns_number_total             2708
_reflns_threshold_expression     'I > 2\s(I)'
_cod_data_source_file            suppl_j_ncrs-2021-0433_suppl.cif
_cod_data_source_block           1
_cod_database_code               8105189
_shelx_space_group_comment
;
The symmetry employed for this shelxl refinement is uniquely defined
by the following loop, which should always be used as a source of
symmetry information in preference to the above space-group names.
They are only intended as comments.
;
_olex2_refinement_description
;
1. Fixed Uiso
 At 1.2 times of:
  All C(H) groups, All C(H,H) groups
2.a Secondary CH2 refined with riding coordinates:
 C5(H5A,H5B)
2.b Aromatic/amide H refined with riding coordinates:
 C6(H6), C7(H7), C8(H8), C10(H10), C9(H9)
;
_shelx_res_file
;
TITL 1_a.res in P-1
    1.res
    created by SHELXL-2016/6 at 16:18:51 on 01-Nov-2021
REM Old TITL 1 in P-1
REM SHELXT solution in P-1
REM R1 0.080, Rweak 0.008, Alpha 0.052, Orientation as input
REM Formula found by SHELXT: C20 N6 S4 Ni
CELL 0.71073 8.5191 8.5956 8.6531 116.404 94.574 103.031
ZERR 1 0.0031 0.0016 0.0017 0.003 0.004 0.004
LATT 1
SFAC C H N Ni S
UNIT 20 14 6 1 4

L.S. 25
PLAN  25
TEMP 23
CONF
BOND $H
list 4
MORE -1
fmap 2
acta
REM <olex2.extras>
REM <HklSrc "%.\\1.hkl">
REM </olex2.extras>

WGHT    0.046800    0.452900
FVAR       0.75082
NI1   4    0.000000    0.000000    0.500000    10.50000    0.01229    0.01430 =
         0.01443    0.00671    0.00016    0.00065
S2    5    0.242093    0.119170    0.673780    11.00000    0.01466    0.01750 =
         0.01974    0.01049   -0.00189    0.00030
S1    5    0.034071    0.226514    0.442548    11.00000    0.01444    0.01840 =
         0.02037    0.01112   -0.00199   -0.00037
N3    3    0.886434    1.253609    0.900155    11.00000    0.01483    0.01676 =
         0.01664    0.00530    0.00286    0.00067
N1    3    0.333275    0.662743    0.547668    11.00000    0.02124    0.02371 =
         0.03584    0.01932    0.00246    0.00259
N2    3    0.608434    0.529872    0.852558    11.00000    0.02078    0.02885 =
         0.02529    0.00983   -0.00404   -0.00366
C5    1    1.013297    1.416749    0.926685    11.00000    0.01524    0.01726 =
         0.02067    0.00847    0.00373    0.00086
AFIX  23
H5A   2    1.006242    1.425756    0.818658    11.00000   -1.20000
H5B   2    1.121933    1.408168    0.957223    11.00000   -1.20000
AFIX   0

C4    1    0.479319    0.437090    0.769345    11.00000    0.01891    0.02082 =
         0.01687    0.00809    0.00298    0.00490
C1    1    0.229645    0.365964    0.563670    11.00000    0.01341    0.01843 =
         0.01717    0.00513    0.00256    0.00037
C2    1    0.290458    0.530509    0.556320    11.00000    0.01361    0.02143 =
         0.02092    0.00745    0.00000    0.00235
C3    1    0.319720    0.321635    0.666182    11.00000    0.01490    0.01865 =
         0.01648    0.00777    0.00475    0.00137
C6    1    0.754309    1.176599    0.766228    11.00000    0.01729    0.01943 =
         0.01556    0.00814    0.00062    0.00472
AFIX  43
H6    2    0.744419    1.223846    0.689105    11.00000   -1.20000
AFIX   0
C7    1    0.633854    1.026654    0.745053    11.00000    0.01328    0.01942 =
         0.02470    0.00504    0.00109   -0.00068
AFIX  43
H7    2    0.541736    0.973156    0.653955    11.00000   -1.20000
AFIX   0
C8    1    0.650138    0.956925    0.858120    11.00000    0.02993    0.02368 =
         0.02728    0.00867    0.00801   -0.00348
AFIX  43
H8    2    0.569174    0.856050    0.843959    11.00000   -1.20000
AFIX   0
C10   1    0.905055    1.186791    1.011569    11.00000    0.03243    0.02579 =
         0.02259    0.01105   -0.00864   -0.00334
AFIX  43
H10   2    0.998230    1.242254    1.101628    11.00000   -1.20000
AFIX   0
C9    1    0.788722    1.037651    0.994928    11.00000    0.04932    0.03149 =
         0.02977    0.02352   -0.00104    0.00121
AFIX  43
H9    2    0.801802    0.991621    1.072584    11.00000   -1.20000
AFIX   0
HKLF 4




REM  1_a.res in P-1
REM R1 =  0.0445 for    2157 Fo > 4sig(Fo)  and  0.0611 for all    2708 data
REM    142 parameters refined using      0 restraints

END

WGHT      0.0468      0.4518

REM Highest difference peak  0.435,  deepest hole -0.621,  1-sigma level  0.109
Q1    1   0.2188  0.6195  0.8003  11.00000  0.05    0.44
Q2    1   0.3006  0.0784  0.5251  11.00000  0.05    0.41
Q3    1   0.4740  0.4043  0.6563  11.00000  0.05    0.37
Q4    1   1.0155  1.2193  0.6616  11.00000  0.05    0.37
Q5    1   0.7186  1.0809  0.7419  11.00000  0.05    0.36
Q6    1   0.3852  0.7124  0.5023  11.00000  0.05    0.35
Q7    1   0.0147  0.3544  0.5833  11.00000  0.05    0.34
Q8    1   0.7444  0.7782  0.7117  11.00000  0.05    0.34
Q9    1   0.4282  0.5599  0.6195  11.00000  0.05    0.34
Q10   1   0.9634  1.1903  0.9014  11.00000  0.05    0.34
Q11   1   0.2759  0.0836  0.7025  11.00000  0.05    0.34
Q12   1   1.0256  1.3352  0.7884  11.00000  0.05    0.33
Q13   1   1.3406  1.5454  0.9654  11.00000  0.05    0.33
Q14   1   0.1107  0.1201  0.4177  11.00000  0.05    0.33
Q15   1   0.1498  0.3601  0.5812  11.00000  0.05    0.33
Q16   1   0.2150  0.0424  0.5784  11.00000  0.05    0.33
Q17   1   0.4515  0.4093  0.4356  11.00000  0.05    0.33
Q18   1   0.5032  1.0468  0.6952  11.00000  0.05    0.32
Q19   1   0.0463 -0.1324  0.3917  11.00000  0.05    0.32
Q20   1  -0.0940  0.2231  0.3804  11.00000  0.05    0.31
Q21   1   0.3422  0.5823  0.4401  11.00000  0.05    0.31
Q22   1   0.9000  1.0028  1.1565  11.00000  0.05    0.31
Q23   1   0.5843  1.1896  0.6200  11.00000  0.05    0.31
Q24   1   0.8930  1.3656  1.1555  11.00000  0.05    0.31
Q25   1   0.2078  0.1642  0.4728  11.00000  0.05    0.31
;
_shelx_hkl_file
;
   1  -1   0 1278.17   14.90
   1  -1   0 1283.37   10.50
   2  -2   0    2.50    2.10
   2  -2   0    3.40    1.50
   3  -3   0  208.78   10.40
   3  -3   0  190.38    6.20
   4  -4   0    1.10    2.00
   4  -4   0    1.50    2.70
   5  -5   0  250.57   15.50
   5  -5   0  251.57    9.20
   6  -6   0   62.99   10.50
   7  -7   0   65.99   11.90
   8  -8   0   40.30   10.40
   8  -9   1  118.59   17.00
   7  -8   1   56.19   11.30
   6  -7   1   22.10    7.00
   5  -6   1  275.67   16.60
   4  -5   1  124.89   12.00
   4  -5   1  129.69    5.80
   3  -4   1  423.36    8.90
   3  -4   1  395.86   14.70
   2  -3   1  254.97    6.20
   2  -3   1  265.27   10.00
   1  -2   1 1071.39   15.20
  -1   2  -1 1068.39   11.50
   0  -1   1 1418.86   15.40
   0   1  -1 1399.26   13.20
   1   0  -1  567.44    9.10
   2  -1  -1 9563.44   69.79
   2  -1  -1 9228.98   67.39
   3  -2  -1    8.70    3.30
   3  -2  -1    5.40    2.30
   4  -3  -1 1003.20   25.10
   4  -3  -1  970.70   17.70
   5  -4  -1    8.60    4.70
   5  -4  -1   11.50    3.30
   6  -5  -1   14.20    6.10
   7  -6  -1  219.18   20.30
   8  -7  -1   47.10   10.90
   9  -8  -1    3.90    7.70
   7  -9   2  127.99   17.00
   6  -8   2  105.79   14.00
   5  -7   2    2.90    4.20
   4  -6   2   11.00    2.50
   4  -6   2    6.60    4.30
   3  -5   2  490.55   10.90
   3  -5   2  509.75   17.40
   2  -4   2  220.68    9.90
  -2   4  -2  226.08    7.00
   1  -3   2   28.80    3.60
  -1   3  -2   23.90    2.90
   0  -2   2  219.88    7.90
   0   2  -2  210.08    6.80
  -1  -1   2   75.79    5.10
   1   1  -2   79.19    3.00
   1   1  -2   80.29    4.70
   2   0  -2  140.09    5.80
   2   0  -2  141.09    6.70
   3  -1  -2    3.00    2.50
   3  -1  -2    3.60    2.30
   4  -2  -2  544.15   14.60
   4  -2  -2  522.25   17.20
   5  -3  -2   57.49    6.70
   5  -3  -2   60.29    8.40
   6  -4  -2  224.98   11.10
   6  -4  -2  233.68   15.50
   7  -5  -2  162.48   16.60
   8  -6  -2  116.39   15.50
   9  -7  -2   77.89   14.20
   7 -10   3  215.78   22.00
   6  -9   3  221.68   20.40
   5  -8   3   31.40    7.90
   4  -7   3   26.80    6.70
   3  -6   3  195.78    8.20
   3  -6   3  203.38   12.00
   2  -5   3  104.19    8.90
  -2   5  -3  115.09    6.20
   1  -4   3  707.43   15.10
  -1   4  -3  705.93   14.50
   0  -3   3  336.07   11.80
   0   3  -3  337.97   10.20
  -1  -2   3   24.90    4.20
   1   2  -3   19.50    2.00
   1   2  -3   13.70    3.10
  -2  -1   3  131.99    8.30
   2   1  -3  128.59    7.30
   2   1  -3  118.39    5.20
   3   0  -3   71.49    6.30
   3   0  -3   71.39    6.80
   4  -1  -3   51.69    6.50
   4  -1  -3   61.49    6.70
   5  -2  -3   24.30    4.80
   5  -2  -3   20.30    5.30
   6  -3  -3   27.50    5.60
   6  -3  -3   26.30    6.90
   7  -4  -3    7.40    5.30
   8  -5  -3    9.60    6.00
   9  -6  -3  127.29   17.30
   6 -10   4   11.30    6.40
   5  -9   4  299.27   19.00
   4  -8   4   77.29   10.70
   3  -7   4  190.88   12.40
   2  -6   4  245.18   11.80
  -2   6  -4  241.28   10.00
   1  -5   4   61.29    8.20
   1  -5   4   38.60    4.90
   0  -4   4  210.28   11.20
   0   4  -4  217.78    9.50
  -1  -3   4 2083.89   33.30
   1   3  -4 2110.99   30.70
  -2  -2   4  826.32   20.70
   2   2  -4  822.42   11.90
   2   2  -4  798.42   19.20
   3   1  -4   33.60    5.60
   3   1  -4   37.30    4.60
   4   0  -4  131.89   10.70
   4   0  -4  140.49    8.60
   5  -1  -4   56.39    7.80
   5  -1  -4   48.80    7.30
   6  -2  -4   11.80    5.40
   6  -2  -4   25.50    5.90
   7  -3  -4   31.80    6.60
   7  -3  -4   22.10    7.20
   8  -4  -4   23.30    8.00
   9  -5  -4    5.80    6.80
   5 -10   5   38.80    9.30
   4  -9   5   11.60    5.60
   3  -8   5  256.47   15.20
   2  -7   5   37.20    8.30
   2  -7   5   29.80    5.80
  -2   7  -5   40.40    5.90
   1  -6   5  116.79    7.70
   1  -6   5  112.69   11.80
  -1   6  -5   77.69    7.80
   0  -5   5   23.10    5.90
   0  -5   5   20.20    3.20
   0   5  -5   20.70    4.90
  -1  -4   5  648.44   20.50
   1   4  -5  663.83   19.20
  -2  -3   5 1590.54   32.00
   2   3  -5 1632.34   30.70
   3   2  -5 1510.55   30.20
   3   2  -5 1464.15   19.60
   4   1  -5  115.39    7.90
   4   1  -5  127.19   11.10
   5   0  -5   15.30    5.00
   5   0  -5   14.70    4.90
   6  -1  -5   28.00    6.30
   6  -1  -5    7.50    4.00
   7  -2  -5   31.60    7.60
   7  -2  -5   40.20    7.40
   8  -3  -5   16.40    7.00
   9  -4  -5   35.90   10.20
   5 -11   6   30.80    9.50
   4 -10   6   10.20    6.20
   3  -9   6   45.80   10.10
   2  -8   6   89.99   12.70
   1  -7   6  275.17   11.90
   1  -7   6  271.77   17.00
  -1   7  -6  281.07   13.30
   0  -6   6  135.59   13.50
   0   6  -6  118.29   10.70
  -1  -5   6   26.20    7.40
   1   5  -6   40.20    6.90
  -2  -4   6  345.87   17.40
   2   4  -6  361.76   16.10
  -3  -3   6  718.63   24.00
   3   3  -6  706.93   22.60
   4   2  -6  516.65   19.80
   5   1  -6  109.39   11.60
   6   0  -6   18.00    5.90
   7  -1  -6    7.70    4.80
   8  -2  -6   71.19   10.40
   4 -11   7   86.29   15.30
   3 -10   7    7.20    6.50
   2  -9   7   -0.30    4.70
   1  -8   7   11.70    7.20
   0  -7   7  213.98   16.20
   0   7  -7  217.08   13.20
  -1  -6   7  206.08   15.40
   1   6  -7  204.18   13.30
  -2  -5   7   42.40    9.50
   2   5  -7   45.20    8.00
  -3  -4   7  149.69   14.60
   3   4  -7  133.29   13.00
   4   3  -7  173.18   15.30
   5   2  -7  128.89   13.40
   6   1  -7   36.90    7.60
   7   0  -7    0.00    4.00
   8  -1  -7    5.50    4.70
   2 -10   8   -3.10    6.00
   1  -9   8   97.59   14.50
   0  -8   8    3.90    6.80
   0   8  -8    9.50    5.00
  -1  -7   8   31.20    9.50
   1   7  -8   26.10    6.70
  -2  -6   8  224.28   17.60
   2   6  -8  242.08   15.60
  -3  -5   8  187.38   17.60
   3   5  -8  174.38   15.90
   4   4  -8    3.50    4.50
   5   3  -8   97.69   12.50
   6   2  -8   48.90    9.60
   7   1  -8   10.60    5.10
   8   0  -8    2.50    5.10
   1 -10   9   19.90   10.30
   0  -9   9   64.59   13.80
   0   9  -9   54.99    9.90
  -1  -8   9   39.40   12.20
   1   8  -9   47.80    9.20
  -2  -7   9   57.79   12.80
  -3  -6   9  155.88   17.60
   3   6  -9  139.79   15.40
   4   5  -9  160.98   16.70
   5   4  -9  111.39   14.50
   6   3  -9   18.60    7.10
   7   2  -9   45.10    9.90
   1   9 -10   26.90    8.20
   2   8 -10   -5.30    3.60
   3   7 -10   83.59   13.80
   4   6 -10  160.48   17.50
   5   5 -10  116.89   15.90
   6   4 -10   -3.00    4.50
   6   3 -10   35.00    9.40
   5   4 -10   45.00    9.60
   4   5 -10  114.29   15.10
   3   6 -10   24.70    8.00
   2   7 -10    3.30    5.60
   1   8 -10   29.10    8.80
   0   9 -10   25.40    8.10
   7   1  -9   90.19   13.40
   6   2  -9   79.39   12.60
   5   3  -9   17.10    6.20
   4   4  -9   50.09    9.70
   3   5  -9  183.58   17.20
   2   6  -9  167.68   16.80
   1   7  -9   17.30    6.80
  -1  -7   9   19.80    9.50
   0   8  -9    7.80    5.00
   0  -8   9    5.60    7.90
  -1   9  -9   10.60    5.70
   1  -9   9    8.10    8.20
   2 -10   9   60.09   13.00
   8  -1  -8   12.50    6.50
   7   0  -8   23.60    7.20
   6   1  -8  233.98   16.20
   5   2  -8  429.76   21.10
   4   3  -8  244.68   16.10
   3   4  -8    8.50    5.00
  -3  -4   8   12.10    7.10
   2   5  -8   15.60    5.70
  -2  -5   8   17.50    7.50
   1   6  -8  335.67   17.70
  -1  -6   8  337.97   20.00
   0   7  -8  129.89   13.60
   0  -7   8  146.79   15.90
  -1   8  -8    9.10    4.80
   1  -8   8   10.40    6.80
   2  -9   8   23.30    8.70
   3 -10   8   43.50   10.90
   7  -1  -7   -2.80    3.40
   6   0  -7   27.30    6.90
   5   1  -7  360.76   18.10
   4   2  -7  977.20   29.20
   3   3  -7  467.05   20.00
   2   4  -7   35.30    7.00
  -2  -4   7   22.10    7.30
   1   5  -7   59.79    9.00
  -1  -5   7   59.19   10.20
   0   6  -7   29.40    6.30
   0  -6   7   38.90    8.20
  -1   7  -7  304.47   15.40
   1  -7   7  298.97   18.40
  -2   8  -7  121.39   11.90
   2  -8   7  142.29   15.70
   3  -9   7   -0.80    4.10
   4 -10   7   46.00   10.90
   8  -3  -6    5.00    6.30
   7  -2  -6    4.40    5.10
   7  -2  -6    8.00    4.40
   6  -1  -6    9.70    5.10
   6  -1  -6   26.10    6.20
   5   0  -6   59.99    8.80
   5   0  -6   71.49    9.50
   4   1  -6  159.68   11.20
   4   1  -6  152.68    9.50
   3   2  -6  631.34   21.10
   3   2  -6  648.54   15.20
   2   3  -6  493.25   12.50
   2   3  -6  469.05   18.30
  -2  -3   6  547.65   18.50
   1   4  -6    6.90    3.70
  -1  -4   6    7.60    5.40
   0   5  -6  298.37   13.80
   0  -5   6  301.77   14.90
  -1   6  -6  145.29   10.00
   1  -6   6  141.99   13.70
  -2   7  -6   -0.50    2.70
   2  -7   6    2.20    3.40
   2  -7   6    2.30    3.20
   3  -8   6  375.06   21.10
   3  -8   6  373.26   17.50
   4  -9   6  227.78   15.50
   5 -10   6   -2.30    3.80
   8  -4  -5   -1.60    5.10
   7  -3  -5   12.30    5.10
   7  -3  -5    8.00    5.90
   6  -2  -5   38.20    6.80
   6  -2  -5   31.10    7.40
   5  -1  -5    7.90    4.20
   5  -1  -5    9.30    4.90
   4   0  -5   22.40    5.50
   4   0  -5   16.60    4.70
   3   1  -5  126.59    9.00
   3   1  -5  116.39    7.40
   2   2  -5   68.09    5.60
   2   2  -5   68.49    7.80
  -2  -2   5   77.09    8.40
   1   3  -5  257.07   11.80
  -1  -3   5  242.48   11.60
   0   4  -5   34.80    5.70
   0  -4   5   34.10    5.80
  -1   5  -5  192.68   10.20
   1  -5   5  182.98   11.30
  -2   6  -5   34.00    5.30
  -3   7  -5   42.80    6.30
   3  -7   5   58.59    8.40
   4  -8   5  367.76   18.50
   5  -9   5  341.47   20.40
   6 -10   5   92.19   14.00
   8  -5  -4    0.90    4.90
   7  -4  -4  169.08   16.40
   6  -3  -4   48.90    7.00
   6  -3  -4   59.29    9.50
   5  -2  -4  242.78   13.90
   5  -2  -4  239.18   11.80
   4  -1  -4  118.29    8.30
   4  -1  -4  115.49   10.10
   3   0  -4   42.50    5.50
   3   0  -4   49.00    6.10
   2   1  -4    1.80    2.70
   2   1  -4    5.50    2.40
   1   2  -4  583.14   11.50
   1   2  -4  586.44   15.80
  -1  -2   4  573.74   14.90
   0   3  -4  206.98    9.50
   0  -3   4  215.98    9.80
  -1   4  -4  177.98    8.70
   1  -4   4  194.38   10.30
  -2   5  -4   -0.20    0.90
  -3   6  -4    5.20    3.20
   3  -6   4    3.70    3.20
   4  -7   4   73.49    9.90
   4  -7   4  108.19    8.80
   5  -8   4  318.87   18.80
   6  -9   4  319.87   20.60
   7 -10   4   38.70   10.00
   8  -6  -3   25.00    9.00
   7  -5  -3    6.60    5.70
   6  -4  -3   -2.10    3.80
   5  -3  -3  178.28    9.40
   5  -3  -3  165.58   12.30
   4  -2  -3 1042.60   20.80
   4  -2  -3 1042.70   25.40
   3  -1  -3 3080.49   35.50
   3  -1  -3 3107.39   39.30
   1   1  -3  645.84   11.60
   1   1  -3  627.84   14.10
  -1  -1   3  623.44   13.00
   0   2  -3   11.50    3.00
   0  -2   3   11.30    2.80
  -1   3  -3 1107.59   18.20
   3  -5   3   70.09    6.10
   3  -5   3   68.39    7.90
   4  -6   3  163.68    8.10
   4  -6   3  168.68   11.90
   5  -7   3  104.59   12.50
   6  -8   3  173.08   17.50
   7  -9   3  135.99   17.20
   8  -7  -2   34.90   10.60
   7  -6  -2   89.09   12.80
   6  -5  -2   12.00    5.40
   5  -4  -2   48.40    8.30
   5  -4  -2   50.89    5.70
   4  -3  -2  740.93   15.60
   4  -3  -2  737.13   22.00
   3  -2  -2  253.57   11.30
   3  -2  -2  215.68    8.00
   2  -1  -2 4755.12   44.80
   2  -1  -2 4706.23   38.80
   1   0  -2 9773.82   63.49
   1   0  -2 9999.00   92.59
   0   1  -2    0.20    1.40
   0   1  -2    0.20    1.10
   0  -1   2    0.80    1.10
  -1   2  -2   24.40    3.20
  -2   3  -2  114.99    5.60
   3  -4   2  255.77    8.60
   3  -4   2  261.97   11.60
   4  -5   2  475.95   18.20
   4  -5   2  497.05   13.10
   5  -6   2   28.00    6.90
   5  -6   2   25.60    4.20
   6  -7   2  155.68   16.50
   7  -8   2  137.59   16.90
   8  -9   2   65.09   13.00
   8  -8  -1   -0.90    6.30
   7  -7  -1   47.10   10.40
   6  -6  -1  138.29   15.20
   5  -5  -1  163.08   15.10
   4  -4  -1  172.08    6.80
   4  -4  -1  146.99   12.90
   3  -3  -1   18.80    4.50
   3  -3  -1   21.80    2.90
   2  -2  -1 3091.99   36.50
   2  -2  -1 3035.90   24.70
   1  -1  -1 1761.12   20.80
   1  -1  -1 1751.32   15.40
   0   0  -1 1155.28   12.60
   0   0  -1 1165.18   11.80
  -1   1  -1 2484.15   21.10
   2  -2   1 1791.52   19.40
   3  -3   1  136.99    7.90
   3  -3   1  146.49    6.20
   4  -4   1   24.30    3.70
   4  -4   1   20.90    4.80
   5  -5   1  313.17   10.70
   5  -5   1  316.57   16.30
   6  -6   1  486.15   22.90
   7  -7   1   43.00   10.00
   8  -8   1   45.20   11.10
   8  -9   0   21.60    9.10
   7  -8   0   28.80    8.30
   6  -7   0    4.30    4.40
   5  -6   0   17.10    5.90
   4  -5   0  429.26   18.50
   4  -5   0  411.16    8.70
   3  -4   0   93.79    9.40
   3  -4   0   92.99    3.90
   2  -3   0   99.99    7.00
   2  -3   0  111.69    3.10
   1  -2   0  300.57    9.20
   0   1   0  669.03    6.10
   1   0   0 1185.38   12.10
   2  -1   0   63.39    3.70
   3  -2   0   -0.50    1.70
   3  -2   0   -0.30    1.60
   4  -3   0  205.08   10.90
   4  -3   0  224.38    8.40
   5  -4   0   74.39    9.20
   5  -4   0   77.19    6.70
   6  -5   0  502.95   15.00
   6  -5   0  507.65   22.20
   7  -6   0  318.07   20.00
   8  -7   0  106.69   15.80
   9  -8   0    1.80    6.70
   7  -9   1   24.10    8.20
   6  -8   1   39.00    9.00
   5  -7   1   36.10    8.40
   4  -6   1   45.70    8.10
   3  -5   1   39.20    2.60
   3  -5   1   41.10    6.80
   2  -4   1  843.32   20.30
   2  -4   1  840.22    9.70
   1  -3   1   61.79    5.60
  -1   3  -1   79.19    2.90
   0  -2   1    8.00    2.60
   0  -2   1    8.80    2.00
   0   2  -1    8.70    1.80
  -1  -1   1    2.30    1.60
   1   1  -1    2.70    1.60
   2   0  -1   42.40    2.90
   3  -1  -1  572.44   12.80
   3  -1  -1  530.85   13.20
   4  -2  -1   23.00    4.60
   4  -2  -1   25.80    4.10
   5  -3  -1    1.20    3.10
   5  -3  -1   -3.20    2.20
   6  -4  -1   38.70    8.10
   6  -4  -1   54.19    6.70
   7  -5  -1  325.27   19.50
   8  -6  -1  265.87   19.80
   9  -7  -1   48.00   11.50
   7 -10   2   76.69   13.30
   6  -9   2  124.79   15.70
   5  -8   2   39.00    8.60
   4  -7   2  303.27   17.00
   3  -6   2   12.40    4.80
   3  -6   2   12.30    2.30
   2  -5   2  182.28   10.20
  -2   5  -2  185.38    6.10
   1  -4   2 1464.05   23.30
  -1   4  -2 1434.46   17.40
   0  -3   2 2405.66   24.10
   0  -3   2 2389.86   32.80
   0   3  -2 2430.56   24.60
  -1  -2   2  457.45   12.70
   1   2  -2  478.35   11.10
  -2  -1   2  104.59    7.50
   2   1  -2  103.79    6.30
   2   1  -2  109.59    4.00
   3   0  -2   93.69    6.60
   3   0  -2  101.69    5.80
   4  -1  -2   30.80    4.90
   4  -1  -2   35.20    5.20
   5  -2  -2  107.29   10.20
   5  -2  -2   89.39    8.20
   6  -3  -2   82.09   10.20
   6  -3  -2   59.39    7.40
   7  -4  -2   17.80    5.10
   7  -4  -2   25.10    7.30
   8  -5  -2  138.29   16.40
   9  -6  -2  157.18   18.80
   6 -10   3   28.60    8.70
   5  -9   3   81.29   12.50
   4  -8   3   89.99   11.70
   3  -7   3   33.80    6.90
   2  -6   3    8.70    3.80
  -2   6  -3    5.10    2.20
   1  -5   3  814.82   23.60
   1  -5   3  813.82   18.40
  -1   5  -3  836.72   15.70
   0  -4   3 2109.89   35.00
   0  -4   3 2092.19   24.70
  -1  -3   3 2756.12   38.30
  -1  -3   3 2781.72   19.60
   1   3  -3 2735.83   32.30
  -2  -2   3  877.11   20.90
   2   2  -3  863.41   18.70
   3   1  -3   11.00    3.50
   3   1  -3   16.20    2.90
   4   0  -3   -0.20    2.10
   4   0  -3    5.40    3.20
   5  -1  -3   88.19    9.10
   5  -1  -3  104.69    9.70
   6  -2  -3   55.89    8.20
   6  -2  -3   53.99    7.50
   7  -3  -3   49.20    9.10
   7  -3  -3   59.39    8.40
   8  -4  -3   99.39   13.30
   9  -5  -3   65.69   12.20
   5 -10   4    4.50    5.30
   4  -9   4  101.39   12.60
   3  -8   4  322.17   16.90
   2  -7   4  161.48   11.00
  -2   7  -4  144.39    8.00
   1  -6   4   14.90    5.00
   1  -6   4   14.60    3.90
  -1   6  -4   11.10    3.40
   0  -5   4  286.17   14.60
   0  -5   4  295.67    9.60
   0   5  -4  241.28   10.20
  -1  -4   4 1539.55   31.40
  -1  -4   4 1503.05   15.40
   1   4  -4 1442.06   25.70
  -2  -3   4 1002.60   25.00
   2   3  -4  976.00   21.80
  -3  -2   4  179.08   12.10
   3   2  -4  178.98    5.50
   3   2  -4  176.58   10.40
   4   1  -4    6.00    2.50
   4   1  -4    2.20    3.30
   5   0  -4   48.10    7.40
   5   0  -4   41.00    6.20
   6  -1  -4   50.29    7.70
   6  -1  -4   38.70    6.70
   7  -2  -4  256.57   14.10
   7  -2  -4  193.68   13.20
   8  -3  -4  110.99   13.10
   8  -3  -4  105.89   11.30
   9  -4  -4   28.30    9.20
   5 -11   5    8.00    5.90
   4 -10   5    2.60    4.50
   4 -10   5   -1.20    4.20
   3  -9   5    1.80    4.30
   3  -9   5   -1.30    3.70
   2  -8   5   80.39   12.10
   2  -8   5   75.39    9.30
   1  -7   5  551.74   17.60
   1  -7   5  612.44   24.80
  -1   7  -5  630.94   18.00
   0  -6   5   99.79   12.10
   0  -6   5  102.39    6.70
   0   6  -5  100.59    9.10
  -1  -5   5    1.70    4.40
  -1  -5   5    5.20    1.80
   1   5  -5    7.30    3.40
  -2  -4   5  350.06   16.80
   2   4  -5  339.67   14.40
  -3  -3   5  407.76   17.80
   3   3  -5  430.86   16.60
   4   2  -5  161.98    6.80
   4   2  -5  133.39   11.70
   5   1  -5   19.50    5.40
   5   1  -5   17.80    4.40
   6   0  -5    8.40    4.30
   6   0  -5    6.50    4.40
   7  -1  -5   53.29    8.40
   7  -1  -5   54.49    8.70
   8  -2  -5  227.28   15.30
   8  -2  -5  227.18   14.60
   9  -3  -5  196.98   18.40
   4 -11   6   -1.40    4.70
   3 -10   6   49.90   11.20
   2  -9   6    9.30    6.40
   1  -8   6   17.10    7.00
  -1   8  -6   21.10    5.30
   0  -7   6   60.79   10.70
   0   7  -6   50.59    7.50
  -1  -6   6  756.82   27.40
   1   6  -6  792.22   23.20
  -2  -5   6  109.09   12.90
   2   5  -6   68.69    9.10
  -3  -4   6    2.90    5.90
   3   4  -6    4.10    4.00
  -4  -3   6  293.77   17.50
   4   3  -6  296.87   15.80
   5   2  -6   48.50    8.50
   6   1  -6   11.60    4.80
   7   0  -6   -1.00    3.60
   8  -1  -6   10.60    5.40
   9  -2  -6  176.68   16.40
   3 -11   7   -2.80    4.60
   2 -10   7  116.19   16.80
   1  -9   7   35.20   10.10
   0  -8   7   31.50    8.80
   0   8  -7   47.90    7.80
  -1  -7   7  367.56   21.30
   1   7  -7  397.16   18.00
  -2  -6   7  101.89   14.00
   2   6  -7   82.99   10.40
  -3  -5   7  376.46   21.50
   3   5  -7  390.66   18.90
  -4  -4   7   97.29   13.30
   4   4  -7   80.79   10.80
   5   3  -7   44.70    8.60
   6   2  -7  111.89   13.00
   7   1  -7   -0.70    4.10
   8   0  -7    9.00    5.40
   9  -1  -7   14.90    6.90
   2 -11   8   35.20   12.00
   1 -10   8    1.80    7.00
   0  -9   8   70.09   13.60
  -1  -8   8   98.89   15.10
   1   8  -8   90.29   11.50
  -2  -7   8  339.67   22.90
   2   7  -8  285.87   16.70
  -3  -6   8  473.25   25.10
   3   6  -8  453.45   22.00
  -4  -5   8   -0.60    7.30
   4   5  -8    9.40    5.80
   5   4  -8    3.30    4.60
   6   3  -8   32.80    7.80
   7   2  -8   23.40    7.40
   8   1  -8   65.39   11.30
   0 -10   9   28.00   11.00
  -1  -9   9    7.20    9.90
   1   9  -9   17.20    6.70
  -2  -8   9   -3.50    8.10
   2   8  -9    0.10    4.60
  -3  -7   9  262.57   21.90
   3   7  -9  266.27   17.70
  -4  -6   9  218.78   21.70
   4   6  -9  252.77   21.00
   5   5  -9   51.59   10.40
   6   4  -9   14.90    6.40
   7   3  -9   27.20    8.20
   3   8 -10   70.09   12.70
   4   7 -10   11.40    6.60
   5   6 -10  159.88   18.50
   6   5 -10   52.89   11.50
   4   5 -11  105.19   15.30
   3   6 -11   26.10    8.50
   2   7 -11   18.70    8.30
   6   2 -10  117.99   15.00
   5   3 -10   34.80    8.30
   4   4 -10   10.20    5.80
   3   5 -10   60.59   11.70
   2   6 -10  145.99   15.90
   1   7 -10   20.30    7.20
   0   8 -10   23.10    7.60
  -1   9 -10    5.00    5.80
   7   0  -9  102.29   13.80
   6   1  -9  261.57   18.10
   5   2  -9  224.38   19.10
   4   3  -9    1.80    4.20
   3   4  -9   13.10    5.60
   2   5  -9   10.20    5.70
   1   6  -9    9.20    4.80
   0   7  -9  177.88   16.40
  -1   8  -9   14.20    5.50
  -2   9  -9   27.40    7.70
   7  -1  -8   14.50    5.90
   6   0  -8   32.70    7.80
   5   1  -8  215.68   15.10
   4   2  -8  154.58   14.90
   3   3  -8   16.20    5.80
   2   4  -8  197.98   14.00
  -2  -4   8  211.18   14.40
   1   5  -8  198.28   13.50
  -1  -5   8  204.68   14.50
   0   6  -8   34.90    7.70
   0  -6   8   26.40    8.10
  -1   7  -8  145.59   13.90
   1  -7   8  146.89   15.10
  -2   8  -8  305.47   16.80
   2  -8   8  278.87   18.70
   3  -9   8   28.60    8.60
   4 -10   8   12.50    7.00
   7  -2  -7   25.00    7.20
   6  -1  -7    4.10    5.10
   6  -1  -7    2.60    4.00
   5   0  -7   12.10    6.00
   5   0  -7    9.20    4.80
   4   1  -7  134.89   11.40
   4   1  -7  134.79   13.00
   3   2  -7  129.59   12.50
   2   3  -7   10.60    4.90
  -2  -3   7    6.60    5.60
   1   4  -7   33.20    7.10
  -1  -4   7   31.10    7.00
   0   5  -7   60.79    8.80
   0  -5   7   75.79    9.80
  -1   6  -7    4.60    3.80
   1  -6   7    3.00    4.40
  -2   7  -7  585.44   21.20
   2  -7   7  626.44   24.70
  -3   8  -7  425.06   18.20
   3  -8   7  433.76   18.70
   3  -8   7  397.16   21.60
   4  -9   7   89.89   12.00
   4  -9   7   97.59   14.20
   5 -10   7    9.80    6.00
   8  -4  -6   -0.60    5.80
   7  -3  -6   94.39   13.20
   6  -2  -6   66.99    9.20
   6  -2  -6   49.10    9.60
   5  -1  -6  149.19   13.00
   5  -1  -6  139.59   13.60
   4   0  -6   11.10    4.60
   4   0  -6    9.30    4.90
   3   1  -6   28.50    5.60
   3   1  -6   25.10    5.90
   2   2  -6  475.35   14.00
   2   2  -6  460.15   17.80
   1   3  -6  199.98    9.10
   1   3  -6  209.08   11.90
  -1  -3   6  215.58   11.20
   0   4  -6   26.60    5.40
   0  -4   6   28.60    5.80
  -1   5  -6   29.20    5.80
   1  -5   6   19.50    5.40
  -2   6  -6  106.49   10.20
   2  -6   6  115.29   12.00
  -3   7  -6  217.98   12.30
   3  -7   6  197.58   12.40
   4  -8   6  577.74   19.80
   4  -8   6  606.14   23.70
   5  -9   6  171.78   16.90
   6 -10   6    3.50    5.50
   8  -5  -5    1.00    5.70
   7  -4  -5    1.80    5.30
   6  -3  -5   98.99   10.00
   6  -3  -5   85.59   12.00
   5  -2  -5 1008.30   29.70
   5  -2  -5 1046.80   25.40
   4  -1  -5  343.97   14.50
   4  -1  -5  348.37   16.10
   3   0  -5  400.66   15.20
   2   1  -5  143.09    9.00
   2   1  -5  127.39    7.50
   1   2  -5    4.40    2.40
   1   2  -5    3.20    2.80
  -1  -2   5    0.70    3.00
   0   3  -5  929.91   21.30
   0  -3   5  940.31   19.60
  -1   4  -5  290.07   12.30
   1  -4   5  293.37   12.40
  -2   5  -5   33.20    5.60
  -3   6  -5  166.48    9.70
   4  -7   5  306.87   13.70
   4  -7   5  282.17   15.60
   5  -8   5  179.58   17.00
   6  -9   5   90.09   13.60
   7 -10   5    8.80    6.00
   8  -6  -4   94.69   14.80
   7  -5  -4   17.80    7.50
   6  -4  -4    1.00    4.80
   5  -3  -4  625.24   23.50
   5  -3  -4  609.04   17.60
   4  -2  -4 1028.40   26.90
   4  -2  -4 1014.50   22.00
   3  -1  -4 2344.17   33.10
   3  -1  -4 2400.66   37.40
   2   0  -4  108.49    8.60
   2   0  -4  112.99    7.40
   1   1  -4    1.50    2.00
   1   1  -4   -1.70    1.70
   0   2  -4   48.10    5.00
   0   2  -4   50.59    5.60
   0  -2   4   45.80    4.60
  -1   3  -4   48.80    5.60
   1  -3   4   62.29    6.00
  -2   4  -4  674.53   17.10
  -3   5  -4  309.57   12.00
   4  -6   4   54.69    8.20
   4  -6   4   54.49    6.80
   5  -7   4  256.47   11.80
   5  -7   4  236.08   15.50
   6  -8   4  143.19   15.80
   7  -9   4   22.00    7.90
   8  -7  -3   90.19   15.10
   7  -6  -3    4.60    5.80
   6  -5  -3  136.69   14.80
   5  -4  -3   39.90    5.30
   5  -4  -3   40.40    8.10
   4  -3  -3    0.60    3.90
   4  -3  -3   -1.30    2.20
   3  -2  -3 1765.62   25.00
   3  -2  -3 1784.12   32.60
   2  -1  -3 1278.07   23.90
   2  -1  -3 1303.97   20.60
   1   0  -3  416.36   11.00
   1   0  -3  404.46   11.40
   0   1  -3  812.12   14.50
   0   1  -3  810.62   15.50
   0  -1   3  808.42   11.00
  -1   2  -3  632.14   14.00
  -2   3  -3  194.98    8.20
   3  -4   3  156.58    7.80
   4  -5   3  667.93   16.80
   4  -5   3  674.53   20.90
   5  -6   3  282.17   15.80
   5  -6   3  267.97   12.10
   6  -7   3   37.80    8.50
   7  -8   3  105.89   14.50
   8  -9   3   32.40    9.60
   8  -8  -2    3.30    7.10
   7  -7  -2   -2.70    5.70
   6  -6  -2   80.89   12.30
   5  -5  -2   22.40    7.00
   4  -4  -2  103.49   11.20
   4  -4  -2  106.19    5.60
   3  -3  -2  152.38    6.10
   3  -3  -2  141.49    9.80
   2  -2  -2  358.26    8.80
   2  -2  -2  356.96   13.10
   1  -1  -2  899.61   13.80
   1  -1  -2  873.11   17.20
   0   0  -2  983.60   14.30
   0   0  -2  964.60   15.50
  -1   1  -2   95.89    5.00
  -1   1  -2   95.49    5.20
   3  -3   2   19.90    3.50
   4  -4   2 1157.68   21.50
   5  -5   2  662.63   22.50
   5  -5   2  649.64   16.60
   6  -6   2  232.18   15.60
   6  -6   2  206.58   10.40
   7  -7   2    3.00    4.50
   8  -8   2    6.50    5.40
   7  -8  -1   71.89   13.00
   6  -7  -1   11.70    6.20
   5  -6  -1   25.00    6.80
   4  -5  -1  278.67   15.40
   3  -4  -1   95.79    3.70
   3  -4  -1   97.79    9.80
   2  -3  -1   71.69    7.50
   2  -3  -1   63.89    2.90
   1  -2  -1  582.84    7.70
   1  -2  -1  562.84   14.10
   0  -1  -1  207.68    7.20
   0  -1  -1  212.18    5.10
  -1   0  -1  142.09    5.20
   1   0   1  143.09    5.20
   2  -1   1 1053.59   15.40
   3  -2   1    9.50    2.60
   4  -3   1   -0.60    1.70
   5  -4   1  515.65   14.60
   5  -4   1  518.55   18.70
   6  -5   1  657.53   17.90
   6  -5   1  658.53   24.60
   7  -6   1  161.38   17.00
   8  -7   1    7.00    6.10
   9  -8   1   40.20   11.00
   7  -9   0    2.70    5.80
   6  -8   0   98.09   13.60
   5  -7   0   55.59    9.80
   4  -6   0  117.99   12.60
   3  -5   0  949.60   25.90
   2  -4   0 1443.96   27.60
   1  -3   0  465.55   13.20
   0  -2   0  260.87    8.40
   0   2   0  257.37    5.00
  -1  -1   0  438.26    8.20
  -1  -1   0  431.36    9.90
   1   1   0  429.86    8.10
   2   0   0   -1.90    1.60
   3  -1   0    8.20    2.60
   4  -2   0  224.68   10.10
   4  -2   0  210.78    8.80
   5  -3   0  154.98   10.20
   5  -3   0  150.18    8.10
   6  -4   0  100.99   11.40
   6  -4   0  102.39    8.80
   7  -5   0  426.76   15.80
   7  -5   0  414.86   21.50
   8  -6   0  134.09   16.40
   9  -7   0    3.60    5.90
   7 -10   1   39.10   11.00
   6  -9   1   32.70    9.10
   5  -8   1    0.30    4.50
   4  -7   1    4.80    4.70
   3  -6   1  222.78   13.50
   2  -5   1 1607.84   30.80
   1  -4   1 2768.02   35.30
  -1   4  -1 2749.43   19.20
   0  -3   1 1121.49   17.00
   0  -3   1 1124.39   22.00
   0   3  -1 1093.39   13.20
  -1  -2   1   53.19    3.30
  -1  -2   1   49.50    5.30
   1   2  -1   61.29    4.10
  -2  -1   1   -1.30    2.60
   2   1  -1   -3.90    1.60
   3   0  -1  104.89    6.40
   4  -1  -1   58.99    6.00
   4  -1  -1   66.29    6.40
   5  -2  -1  149.29    8.60
   5  -2  -1  163.68   10.00
   6  -3  -1  126.19    8.80
   6  -3  -1  121.49   11.90
   7  -4  -1  290.07   13.80
   7  -4  -1  253.37   16.50
   8  -5  -1   97.69   14.00
   9  -6  -1  106.89   15.90
  10  -7  -1   23.10   10.30
   6 -10   2   20.20    7.90
   5  -9   2  144.19   15.80
   4  -8   2  161.98   15.30
   2  -6   2   99.99   10.10
   2  -6   2   98.89    4.00
   1  -5   2  765.92   18.70
  -1   5  -2  746.03   11.90
   0  -4   2 1852.41   23.90
   0  -4   2 1809.52   32.50
   0   4  -2 1866.31   21.70
  -1  -3   2  656.73    9.80
  -1  -3   2  634.54   17.30
   1   3  -2  632.74   13.60
  -2  -2   2  104.09    7.80
   2   2  -2   97.99    6.70
   3   1  -2  203.18    6.10
   3   1  -2  197.38    9.40
   4   0  -2  128.99    8.10
   4   0  -2  152.68    7.30
   5  -1  -2  598.34   17.40
   5  -1  -2  572.54   17.40
   6  -2  -2  357.06   14.70
   6  -2  -2  314.97   15.40
   7  -3  -2  246.88   13.40
   7  -3  -2  254.57   15.40
   8  -4  -2   36.90    7.00
   8  -4  -2   25.20    7.40
   9  -5  -2   64.49   12.10
  10  -6  -2   33.70   10.40
   5 -10   3    8.00    5.60
   4  -9   3   19.30    6.60
   3  -8   3  167.88   14.90
   2  -7   3  345.17   15.60
   1  -6   3   25.60    5.00
   1  -6   3   20.30    5.70
  -1   6  -3   17.30    3.20
   0  -5   3  174.58    7.90
   0  -5   3  184.98   11.70
   0   5  -3  182.08    7.90
  -1  -4   3  352.96   15.10
  -1  -4   3  372.16    7.70
   1   4  -3  362.96   11.60
  -2  -3   3  476.55   17.60
   2   3  -3  451.65   13.90
  -3  -2   3  131.19   10.70
   3   2  -3  112.79    3.90
   3   2  -3  120.29    8.30
   4   1  -3  237.28    8.50
   4   1  -3  210.18   11.30
   5   0  -3   55.99    6.60
   5   0  -3   49.20    7.20
   6  -1  -3  804.52   22.50
   6  -1  -3  816.92   23.40
   7  -2  -3  649.24   22.00
   7  -2  -3  612.74   22.70
   8  -3  -3  117.09   13.80
   8  -3  -3  118.69   12.30
   9  -4  -3   22.10    7.90
  10  -5  -3   -2.10    6.10
   5 -11   4   42.60   10.30
   4 -10   4   59.99   10.40
   3  -9   4   48.20   10.50
   3  -9   4   40.30    8.10
   2  -8   4  130.79   12.20
   2  -8   4  123.59   14.90
   1  -7   4  136.69    9.40
   1  -7   4  162.08   13.10
  -1   7  -4  150.08    8.20
   0  -6   4  569.84   22.50
   0  -6   4  588.14   14.80
   0   6  -4  562.34   15.80
  -1  -5   4   24.90    3.00
  -1  -5   4   21.00    5.70
   1   5  -4   21.40    4.60
  -2  -4   4  180.18   12.90
   2   4  -4  195.98   10.40
  -3  -3   4  178.98   12.90
   3   3  -4  171.88   10.30
   4   2  -4   15.90    4.80
   4   2  -4   11.30    2.40
   5   1  -4   79.69    7.00
   5   1  -4   65.49    8.80
   6   0  -4    8.80    4.00
   6   0  -4   12.80    5.10
   8  -2  -4  605.84   23.70
   8  -2  -4  613.64   23.10
   9  -3  -4  123.79   13.30
   9  -3  -4  133.89   15.10
  10  -4  -4    6.40    6.20
   4 -11   5   86.59   15.30
   3 -10   5   38.10    9.70
   2  -9   5    4.70    5.30
   1  -8   5  409.26   22.40
   0  -7   5  737.63   28.40
   0   7  -5  745.13   20.30
  -1  -6   5   36.90    8.30
   1   6  -5   37.20    6.20
  -2  -5   5  312.27   17.90
   2   5  -5  284.27   13.60
  -3  -4   5    0.20    5.90
   3   4  -5    8.20    4.20
  -4  -3   5    6.10    6.70
   4   3  -5   18.20    5.40
   5   2  -5   53.99    8.40
   6   1  -5   17.70    5.70
   7   0  -5   71.89   10.00
   8  -1  -5   33.30    7.40
   9  -2  -5  134.89   14.20
   3 -11   6    2.90    6.10
   2 -10   6   44.00   10.90
   1  -9   6   29.60    8.80
   0  -8   6  243.38   18.50
   0   8  -6  298.27   14.10
  -1  -7   6  454.15   23.20
   1   7  -6  463.75   18.20
  -2  -6   6  531.75   24.90
   2   6  -6  563.94   20.30
  -3  -5   6  132.89   15.70
   3   5  -6  104.89   11.40
  -4  -4   6    8.40    6.70
   4   4  -6    5.70    4.20
   5   3  -6   15.20    5.20
   6   2  -6   12.30    5.70
   7   1  -6   97.59   12.10
   8   0  -6    4.30    4.80
   9  -1  -6   60.59   10.20
   2 -11   7    8.00    7.20
   1 -10   7   24.30    9.50
   0  -9   7    7.50    6.80
  -1  -8   7  241.88   19.30
   1   8  -7  213.58   13.90
  -2  -7   7  401.36   24.20
   2   7  -7  435.66   19.40
  -3  -6   7   26.00    9.70
   3   6  -7   43.50    8.40
  -4  -5   7   67.79   12.50
   4   5  -7   32.90    7.60
   5   4  -7  150.18   14.70
   6   3  -7   -3.90    3.20
   7   2  -7  221.48   18.50
   8   1  -7   65.49   10.70
   9   0  -7   90.09   12.40
   1 -11   8   77.69   15.80
   0 -10   8   26.40   10.50
  -1  -9   8   51.39   12.60
  -2  -8   8  108.39   16.90
   2   8  -8   88.19   11.50
  -3  -7   8  206.18   21.60
   3   7  -8  209.88   18.10
  -4  -6   8  146.29   18.10
   4   6  -8  206.28   18.20
  -5  -5   8   32.90   10.00
   5   5  -8   23.70    7.30
   6   4  -8   -1.20    4.40
   7   3  -8   10.30    4.90
   8   2  -8   48.30    9.90
  -1 -10   9  131.59   20.00
  -2  -9   9   34.80   13.40
   2   9  -9   52.49   10.20
  -3  -8   9   26.60   11.60
   3   8  -9   33.90    8.50
  -4  -7   9   74.39   15.40
   4   7  -9   52.49   10.50
  -5  -6   9   95.69   16.00
   5   6  -9   87.19   13.40
   6   5  -9   23.50    8.10
   7   4  -9   13.50    6.40
   4   4 -11    7.50    5.80
   3   5 -11   15.30    7.60
   2   6 -11  107.19   15.10
   1   7 -11    9.50    6.50
   0   8 -11    0.70    5.20
   6   1 -10   71.19   12.40
   5   2 -10    9.00    6.00
   4   3 -10   12.20    6.70
   3   4 -10  215.68   18.80
   2   5 -10   -0.60    4.80
   1   6 -10  187.08   17.80
   0   7 -10  182.18   17.90
  -1   8 -10   47.20    9.40
  -2   9 -10    9.00    6.70
   6   0  -9    1.80    4.80
   5   1  -9  102.39   13.10
   4   2  -9   23.80    7.20
   3   3  -9   21.20    6.70
   2   4  -9    7.90    5.10
   1   5  -9   13.60    6.10
   0   6  -9  132.29   14.20
  -1   7  -9  670.53   26.30
  -2   8  -9  190.68   17.50
   6  -1  -8   60.09    9.60
   5   0  -8    8.40    5.00
   4   1  -8   67.09   10.10
   3   2  -8  198.38   16.70
   2   3  -8   37.30    7.90
   1   4  -8   -0.10    3.40
   0   5  -8  115.19   12.40
  -1   6  -8  200.18   13.80
   1  -6   8  193.68   13.80
  -2   7  -8  258.17   15.70
   2  -7   8  272.37   17.10
  -3   8  -8  363.46   18.60
   3  -8   8  372.46   20.70
   4  -9   8   -2.30    4.40
   5 -10   8   20.80    7.70
   7  -3  -7  275.27   19.50
   6  -2  -7  235.98   16.80
   6  -2  -7  308.47   16.00
   5  -1  -7   23.10    7.30
   5  -1  -7   21.40    5.90
   4   0  -7  134.79   12.50
   3   1  -7   23.40    6.10
   3   1  -7   24.70    5.60
   2   2  -7   98.69    9.00
   2   2  -7   87.49   10.30
   1   3  -7  343.27   16.00
   1   3  -7  332.57   13.30
  -1  -3   7  334.77   13.90
   0   4  -7   57.59    8.30
   0  -4   7   62.09    8.10
  -1   5  -7   62.89    8.60
   1  -5   7   71.19    8.50
  -2   6  -7  307.47   15.70
   2  -6   7  291.07   15.50
  -3   7  -7  281.57   15.00
   3  -7   7  271.57   16.60
   4  -8   7   52.59    9.30
   5  -9   7   36.30    8.60
   6 -10   7   14.90    7.40
   7  -4  -6   53.29   11.30
   6  -3  -6  352.36   20.70
   5  -2  -6  792.12   23.70
   5  -2  -6  757.72   27.70
   4  -1  -6  306.97   14.80
   4  -1  -6  305.87   16.30
   3   0  -6  116.19   10.60
   3   0  -6  110.69   10.40
   2   1  -6   11.30    3.90
   2   1  -6    5.10    3.80
   1   2  -6   43.40    6.00
   1   2  -6   35.80    6.10
   0   3  -6  103.79   10.10
   0   3  -6   89.19    8.20
   0  -3   6   90.29    7.70
  -1   4  -6  411.66   16.20
   1  -4   6  427.76   14.90
  -2   5  -6  109.89   10.70
   2  -5   6   94.89    9.80
  -3   6  -6  174.48   11.20
   4  -7   6  268.77   13.80
   5  -8   6   93.39   12.40
   6  -9   6    0.70    5.10
   7 -10   6   -1.80    4.90
   7  -5  -5   75.49   13.30
   6  -4  -5    7.90    6.30
   5  -3  -5  119.59   13.60
   5  -3  -5  102.99    9.80
   4  -2  -5  649.24   23.70
   4  -2  -5  634.84   18.80
   3  -1  -5  252.57   11.70
   3  -1  -5  245.98   13.40
   2   0  -5   15.00    4.30
   2   0  -5    9.70    3.80
   1   1  -5  685.53   18.70
   1   1  -5  664.53   17.20
   0   2  -5    7.50    3.30
   0   2  -5    0.30    1.00
   0  -2   5   -0.20    2.30
  -1   3  -5  585.34   17.20
   1  -3   5  589.94   14.60
  -2   4  -5  595.34   18.00
  -3   5  -5  376.96   14.70
   4  -6   5   47.00    6.80
   5  -7   5  117.49   10.70
   5  -7   5  108.69   12.60
   6  -8   5  100.39   13.70
   7  -9   5    3.80    5.60
   7  -6  -4   44.20   10.40
   6  -5  -4   -0.30    4.20
   5  -4  -4  107.79   13.10
   4  -3  -4   41.70    5.70
   4  -3  -4   34.50    8.10
   3  -2  -4   11.70    3.50
   3  -2  -4   13.00    5.20
   2  -1  -4  357.26   14.10
   2  -1  -4  350.26   12.30
   1   0  -4   33.60    4.80
   1   0  -4   18.60    4.40
   0   1  -4  144.79    7.80
   0   1  -4  137.29    7.90
  -1   2  -4   -0.60    2.10
  -1   2  -4    0.30    1.80
   1  -2   4    1.50    1.50
  -2   3  -4  658.43   16.70
  -3   4  -4 1207.48   24.50
   4  -5   4  576.64   17.70
   5  -6   4   12.10    3.90
   5  -6   4   13.10    5.20
   6  -7   4   11.10    5.40
   6  -7   4    9.60    4.20
   7  -8   4   46.00   10.00
   8  -9   4   34.60   10.00
   7  -7  -3    8.00    7.00
   6  -6  -3  104.19   14.40
   5  -5  -3  175.28   16.80
   4  -4  -3    3.40    2.40
   4  -4  -3   -2.30    3.80
   3  -3  -3  105.49   11.00
   3  -3  -3  111.49    6.30
   2  -2  -3  232.78   12.30
   2  -2  -3  220.58    8.40
   1  -1  -3   12.80    3.90
   1  -1  -3   10.40    2.80
   0   0  -3  240.28    8.80
   0   0  -3  248.78    9.50
  -1   1  -3  136.19    7.20
  -1   1  -3  124.59    6.80
  -2   2  -3    2.30    2.20
   3  -3   3  546.75   15.00
   4  -4   3  987.40   21.30
   5  -5   3  252.47   12.00
   6  -6   3   30.80    7.30
   6  -6   3   33.00    5.80
   7  -7   3   46.00    9.60
   8  -8   3   20.20    7.90
   7  -8  -2   12.10    7.70
   6  -7  -2   13.20    6.80
   5  -6  -2  312.47   18.80
   4  -5  -2  743.23   25.90
   3  -4  -2  417.66   18.00
   3  -4  -2  422.36    8.80
   2  -3  -2   20.10    2.70
   2  -3  -2   24.70    5.30
   1  -2  -2   97.49    4.70
   1  -2  -2  104.19    7.70
   0  -1  -2   81.89    6.10
   0  -1  -2   86.99    4.80
  -1   0  -2  125.39    6.20
  -1   0  -2  124.99    6.50
   2  -1   2   59.69    5.40
   3  -2   2  135.39    7.20
   4  -3   2  229.58   10.10
   5  -4   2  607.74   17.00
   6  -5   2  492.35   16.70
   6  -5   2  483.85   20.70
   7  -6   2    5.50    5.00
   7  -6   2    0.90    3.40
   8  -7   2    9.60    6.20
   9  -8   2   14.00    7.10
   7  -9  -1   -5.10    5.40
   6  -8  -1    6.60    6.00
   5  -7  -1   36.80    8.50
   4  -6  -1  453.85   20.60
   3  -5  -1 1205.68   30.00
   2  -4  -1 1056.39   25.40
   1  -3  -1    1.30    2.60
  -1   3   1    2.80    1.00
   0  -2  -1  134.89    7.10
   0   2   1  130.79    4.70
  -1  -1  -1  189.68    6.80
  -1  -1  -1  190.78    7.70
   1   1   1  189.58    6.40
  -2   0  -1   -0.90    1.90
   2   0   1    0.50    1.90
   4  -2   1  370.26   11.80
   5  -3   1  201.28    9.90
   6  -4   1  406.26   15.20
   6  -4   1  443.96   19.00
   7  -5   1  157.28   15.50
   7  -5   1  175.58   11.10
   8  -6   1   99.79   14.10
   9  -7   1   27.80    9.40
   5  -8   0   18.70    7.20
   4  -7   0   37.40    8.20
   3  -6   0  366.96   17.70
   2  -5   0  620.84   19.70
   1  -4   0  705.83   18.80
   0  -3   0   40.50    5.40
   0  -3   0   40.10    5.10
   0   3   0   47.00    3.00
  -1  -2   0  650.93   13.30
  -1  -2   0  755.62   15.80
   1   2   0  676.93   12.20
  -2  -1   0    1.50    1.80
  -2  -1   0    0.10    3.10
   2   1   0    1.60    1.90
   3   0   0 2183.38   27.90
   4  -1   0  409.26   13.00
   5  -2   0  587.04   16.40
   6  -3   0  342.77   15.90
   6  -3   0  339.37   13.70
   7  -4   0   16.80    5.60
   7  -4   0   25.50    5.80
   8  -5   0  169.08   16.80
   8  -5   0  138.29   12.20
   9  -6   0   22.00    8.40
  10  -7   0   15.20    8.40
   6 -10   1   19.80    8.10
   5  -9   1   47.40   10.10
   4  -8   1  155.18   15.50
   3  -7   1   18.80    6.00
   2  -6   1  117.59   11.10
   1  -5   1  624.44   17.80
   0  -4   1   65.59    6.20
   0  -4   1   55.39    7.10
   0   4  -1   69.39    3.90
  -1  -3   1  230.38    8.00
  -1  -3   1  245.08   11.10
   1   3  -1  233.18    8.10
  -2  -2   1   -1.00    1.50
  -2  -2   1    0.80    3.10
   2   2  -1   -2.80    1.90
  -3  -1   1   28.20    5.60
   3   1  -1   38.10    4.80
   4   0  -1 1299.67   23.70
   5  -1  -1 2247.18   33.60
   5  -1  -1 2253.57   34.20
   6  -2  -1  228.78   12.40
   6  -2  -1  239.88   12.10
   7  -3  -1   23.90    6.20
   7  -3  -1   23.80    5.60
   8  -4  -1   41.30    7.60
   8  -4  -1   35.40    8.40
   9  -5  -1    0.40    5.50
  10  -6  -1   79.29   14.60
   5 -10   2   -0.50    5.40
   4  -9   2  151.38   15.80
   3  -8   2  186.38   13.60
   2  -7   2  202.18   12.70
   1  -6   2   51.59    7.10
   1  -6   2   57.89    8.90
  -1   6  -2   49.80    3.80
   0  -5   2   99.09    7.00
   0  -5   2   94.49   10.00
   0   5  -2   96.39    5.20
  -1  -4   2 1001.00   25.00
  -1  -4   2  976.60   16.20
   1   4  -2  977.50   17.90
  -2  -3   2   63.39    3.40
  -2  -3   2   49.50    7.90
   2   3  -2   57.99    6.00
  -3  -2   2    6.40    5.20
   3   2  -2    7.80    3.30
   4   1  -2  182.58   10.20
   5   0  -2   73.29    6.80
   5   0  -2   76.69    8.40
   6  -1  -2 1217.18   28.00
   6  -1  -2 1179.08   26.40
   7  -2  -2  697.13   23.50
   7  -2  -2  739.83   22.90
   8  -3  -2    4.40    4.30
   8  -3  -2   -0.90    3.80
   9  -4  -2   45.80    8.60
   9  -4  -2   38.60    9.30
  10  -5  -2    0.30    6.00
   5 -11   3   38.70   10.00
   4 -10   3   34.00    8.80
   3  -9   3   12.60    5.80
   2  -8   3  654.03   28.20
   2  -8   3  650.63   22.50
   1  -7   3  539.15   23.40
   1  -7   3  533.95   18.10
   0  -6   3   30.50    5.10
   0  -6   3   26.60    6.40
   0   6  -3   24.70    4.10
  -1  -5   3   23.30    5.80
  -1  -5   3   22.20    3.60
   1   5  -3   27.70    4.50
  -2  -4   3   -2.90    3.80
  -2  -4   3    2.20    1.20
   2   4  -3   -1.30    2.20
  -3  -3   3  442.96   18.90
   3   3  -3  439.16   15.90
  -4  -2   3   18.40    6.30
   4   2  -3   29.90    3.20
   4   2  -3   33.20    5.80
   5   1  -3    1.00    2.20
   5   1  -3    1.60    2.80
   6   0  -3  345.97   15.90
   6   0  -3  323.27   13.50
   7  -1  -3  183.48   11.60
   7  -1  -3  150.38   13.50
   8  -2  -3  469.85   21.10
   8  -2  -3  441.46   19.50
   9  -3  -3   74.69   10.70
   9  -3  -3   74.59   12.00
  10  -4  -3   32.20    9.50
   4 -11   4   14.80    7.70
   3 -10   4    1.90    4.30
   3 -10   4    4.00    4.70
   2  -9   4  612.54   22.80
   2  -9   4  645.34   29.70
   1  -8   4  164.68   11.00
   1  -8   4  143.49   16.30
   0  -7   4  283.07   17.80
   0  -7   4  278.97   11.80
   0   7  -4  301.67   11.40
  -1  -6   4  195.78    8.10
  -1  -6   4  184.58   13.80
   1   6  -4  208.68   10.40
  -2  -5   4  182.48   14.50
   2   5  -4  182.88   10.40
  -3  -4   4    0.30    5.20
   3   4  -4    5.80    3.40
  -4  -3   4   57.49    9.60
   4   3  -4   42.30    7.20
   5   2  -4  308.37   15.90
   6   1  -4   46.60    8.20
   6   1  -4   63.69    7.20
   7   0  -4   10.70    4.40
   7   0  -4    5.40    4.50
   8  -1  -4  209.68   13.60
   8  -1  -4  223.68   15.00
   9  -2  -4   57.19   10.10
  10  -3  -4   38.90    9.70
   3 -11   5    5.00    6.40
   2 -10   5   14.60    7.30
   1  -9   5   58.89   11.80
   0  -8   5 1040.30   36.10
  -1  -7   5   58.29   10.60
   1   7  -5   42.90    6.60
  -2  -6   5   52.49   10.30
   2   6  -5   59.39    7.90
  -3  -5   5   28.00    8.90
   3   5  -5   16.80    5.20
  -4  -4   5   42.20    9.60
   4   4  -5   42.90    7.70
   5   3  -5  204.18   13.70
   6   2  -5  415.06   19.20
   7   1  -5  179.18   15.60
   8   0  -5   48.50    8.80
   9  -1  -5   -1.60    4.20
  10  -2  -5   25.80    7.40
   2 -11   6   87.99   15.60
   1 -10   6   39.50   11.50
   0  -9   6   45.70   11.10
  -1  -8   6  133.79   16.90
   1   8  -6  128.89   11.60
  -2  -7   6  675.33   29.70
   2   7  -6  666.73   22.50
  -3  -6   6  -12.20    6.60
   3   6  -6    0.60    3.70
  -4  -5   6  245.68   18.60
   4   5  -6  259.37   15.40
  -5  -4   6   57.19   11.80
   5   4  -6   79.89   11.10
   6   3  -6  101.89   12.60
   7   2  -6  365.06   19.80
   8   1  -6  305.47   18.50
   9   0  -6    8.40    5.80
  10  -1  -6   -0.20    4.50
   1 -11   7   61.29   13.70
   0 -10   7  153.08   19.90
  -1  -9   7   63.89   13.60
  -2  -8   7   36.30   11.10
   2   8  -7   54.39    9.00
  -3  -7   7   85.49   14.60
   3   7  -7   92.19   11.60
  -4  -6   7  160.08   18.70
   4   6  -7  195.88   17.00
  -5  -5   7   13.80    8.80
   5   5  -7   12.40    5.40
   6   4  -7   41.40    8.70
   7   3  -7  145.89   15.40
   8   2  -7  258.67   17.80
   9   1  -7  197.28   18.50
  -1 -10   8   88.29   16.60
  -2  -9   8   43.20   13.30
  -3  -8   8    2.80    9.50
   3   8  -8    7.10    5.00
  -4  -7   8   11.60    9.30
   4   7  -8    9.00    6.10
  -5  -6   8   70.39   14.60
   5   6  -8   62.09   11.00
   6   5  -8   57.29   11.20
   7   4  -8   -3.10    4.90
   8   3  -8   11.30    6.60
  -3  -9   9  -13.00    7.60
   3   9  -9    1.50    5.00
  -4  -8   9    5.50   10.70
   4   8  -9    4.80    5.60
  -5  -7   9   -0.70    8.50
   5   7  -9   -5.20    4.60
   6   6  -9    9.30    6.60
   7   5  -9   78.79   13.30
   4   3 -11   29.70    8.60
   3   4 -11   18.60    7.40
   2   5 -11   24.20    8.40
   1   6 -11  262.37   22.50
   0   7 -11  122.59   15.80
  -1   8 -11   17.80    8.00
   5   1 -10   40.20    8.90
   4   2 -10   65.09   11.00
   3   3 -10    6.20    5.20
   2   4 -10   -0.10    3.60
   1   5 -10  215.98   19.10
   0   6 -10  166.28   16.70
  -1   7 -10  184.58   18.00
  -2   8 -10   16.90    7.00
  -3   9 -10   29.40    8.40
   6  -1  -9    2.70    4.40
   5   0  -9   29.40    7.70
   4   1  -9   32.80    8.00
   3   2  -9   95.29   12.20
   2   3  -9   66.09   10.70
   1   4  -9   38.50    7.80
   0   5  -9   65.89   10.20
  -1   6  -9  295.87   18.20
  -2   7  -9  138.09   14.70
  -3   8  -9   14.40    6.40
   6  -2  -8  149.88   17.00
   5  -1  -8   -3.00    3.80
   5  -1  -8   -2.60    4.30
   4   0  -8   43.80    8.70
   4   0  -8   49.90    8.80
   3   1  -8   25.70    6.60
   3   1  -8   36.00    7.50
   2   2  -8   50.79    8.30
   2   2  -8   72.09    9.00
   1   3  -8  227.38   12.50
   1   3  -8  180.28   15.30
   0   4  -8  125.99   12.80
  -1   5  -8   99.99   11.70
  -2   6  -8  178.38   15.90
  -3   7  -8  175.38   15.70
   5  -9   8    4.50    5.20
   7  -4  -7    9.90    7.70
   6  -3  -7  199.68   19.70
   5  -2  -7  108.29   14.30
   5  -2  -7  112.19   12.00
   4  -1  -7    4.40    5.20
   4  -1  -7    0.20    3.50
   3   0  -7  103.29   11.40
   3   0  -7   71.49    9.40
   2   1  -7   17.60    4.80
   2   1  -7   23.20    5.80
   1   2  -7  209.08   13.00
   1   2  -7  205.88   11.60
   0   3  -7  514.15   17.50
   0   3  -7  496.65   19.20
  -1   4  -7  359.86   16.70
   1  -4   7  400.06   14.30
  -2   5  -7   88.49   10.50
   2  -5   7  103.89   10.10
  -3   6  -7   61.29    9.00
   3  -6   7   70.79    9.60
   5  -8   7   20.00    6.50
   5  -8   7   27.10    6.60
   6  -9   7    4.90    4.90
   7  -5  -6   -3.40    6.50
   6  -4  -6   42.90   10.50
   5  -3  -6   18.60    7.20
   4  -2  -6  108.99   10.60
   4  -2  -6  127.59   14.10
   3  -1  -6   37.70    6.70
   2   0  -6   72.89    9.00
   2   0  -6   80.39    8.80
   1   1  -6    2.90    3.20
   1   1  -6    6.40    3.50
   0   2  -6  481.75   17.20
   0   2  -6  456.95   15.90
  -1   3  -6  730.43   21.40
   1  -3   6  685.03   15.00
  -2   4  -6  505.65   18.60
   2  -4   6  491.35   15.50
  -3   5  -6   97.59   10.20
   4  -6   6   11.00    4.00
   5  -7   6    4.50    3.40
   6  -8   6   52.29   10.20
   7  -9   6   21.50    7.80
   7  -6  -5   56.39   12.20
   6  -5  -5   41.60   10.10
   5  -4  -5    2.00    5.20
   4  -3  -5   22.80    5.10
   4  -3  -5   24.40    7.50
   3  -2  -5   36.80    7.40
   3  -2  -5   46.00    6.10
   2  -1  -5  108.89   10.60
   2  -1  -5  123.89    8.60
   1   0  -5   90.09    8.60
   1   0  -5   60.09    7.60
   0   1  -5    8.50    3.50
   0   1  -5    0.60    2.60
  -1   2  -5   95.09    8.50
  -1   2  -5   97.29    9.00
   1  -2   5  102.19    4.70
  -2   3  -5 1398.86   27.60
  -3   4  -5  438.46   16.30
   4  -5   5    1.00    2.60
   5  -6   5   10.30    4.10
   6  -7   5   46.80    9.10
   6  -7   5   38.10    6.90
   7  -8   5   43.60    9.70
   8  -9   5  129.99   17.60
   7  -7  -4   71.49   13.90
   6  -6  -4  212.28   20.80
   5  -5  -4  204.48   18.70
   4  -4  -4   24.90    7.40
   3  -3  -4   33.80    7.50
   3  -3  -4   42.60    5.40
   2  -2  -4    6.60    4.20
   2  -2  -4   18.90    4.00
   1  -1  -4    4.20    3.10
   1  -1  -4    4.60    2.90
   0   0  -4  260.07   11.50
   0   0  -4  268.27   10.60
  -1   1  -4  109.39    7.40
  -1   1  -4  117.09    7.80
  -2   2  -4  180.48    9.40
   4  -4   4 1033.30   24.40
   5  -5   4   86.29    8.80
   6  -6   4  224.08   12.90
   7  -7   4    4.00    4.20
   8  -8   4   -0.60    4.90
   7  -8  -3   11.20    8.10
   6  -7  -3  176.98   19.20
   5  -6  -3  313.17   19.90
   4  -5  -3  369.46   20.20
   3  -4  -3   25.10    6.90
   3  -4  -3   33.60    4.00
   2  -3  -3  104.79    5.80
   2  -3  -3  109.29   11.10
   1  -2  -3  139.89    9.80
   1  -2  -3  146.09    7.00
   0  -1  -3  103.59    6.50
   0  -1  -3  104.59    4.20
   0  -1  -3  108.09    7.70
  -1   0  -3    3.60    2.20
  -1   0  -3   -0.90    2.20
  -2   1  -3 1108.99   21.40
  -2   1  -3 1126.79   21.30
   3  -2   3  417.46   13.80
   4  -3   3  480.25   15.30
   5  -4   3  291.57   13.20
   6  -5   3  131.39   11.10
   7  -6   3    2.50    4.30
   7  -6   3   13.20    4.80
   8  -7   3  146.79   17.10
   9  -8   3    7.90    6.80
   6  -8  -2    0.40    5.30
   5  -7  -2  112.49   14.70
   4  -6  -2  418.86   21.30
   3  -5  -2  294.77   16.60
   2  -4  -2   38.10    7.50
   2  -4  -2   36.00    3.20
   1  -3  -2   55.29    4.30
   1  -3  -2   58.09    7.80
   0  -2  -2  143.69    6.70
   0  -2  -2  143.79    8.60
  -1  -1  -2 1822.42   27.60
  -1  -1  -2 1839.92   21.20
   1   1   2 1850.51   24.20
  -2   0  -2 2207.98   30.00
   2   0   2 2224.78   28.60
   3  -1   2   29.40    4.50
   4  -2   2 1053.69   22.50
   5  -3   2  153.88    9.40
   6  -4   2  128.79   10.90
   7  -5   2  112.69   11.00
   7  -5   2   93.19   11.90
   8  -6   2    4.60    5.40
   9  -7   2   28.30    9.20
   6  -9  -1   76.59   13.40
   5  -8  -1   69.29   12.00
   4  -7  -1    0.10    4.80
   3  -6  -1  284.07   16.30
   2  -5  -1  348.47   16.40
   1  -4  -1    7.50    3.50
  -1   4   1   13.20    1.70
   0  -3  -1   -2.40    2.30
   0  -3  -1   -1.00    2.20
   0   3   1   -0.10    1.40
  -1  -2  -1    3.10    2.60
  -1  -2  -1    0.50    2.10
   1   2   1    2.50    1.90
  -2  -1  -1  309.47   10.10
   3   0   1 3845.62   40.80
   4  -1   1 1921.51   29.30
   5  -2   1   43.50    6.10
   6  -3   1   41.80    6.50
   7  -4   1   32.50    6.50
   7  -4   1   20.50    6.30
   8  -5   1   35.90    7.10
   8  -5   1   28.50    7.70
   9  -6   1  116.89   15.70
  10  -7   1    6.10    6.70
   6 -10   0    3.90    6.20
   5  -9   0  118.79   15.10
   4  -8   0  113.79   14.00
   3  -7   0  128.79   13.50
   2  -6   0   -3.00    3.70
   1  -5   0  285.37   13.80
   0  -4   0  382.76   13.90
   0  -4   0  415.66   15.40
   0   4   0  388.56    8.30
  -1  -3   0  138.59    8.80
  -1  -3   0  139.89    7.70
   1   3   0  154.68    6.50
  -2  -2   0   64.09    6.80
  -2  -2   0   65.39    5.60
   2   2   0   69.79    6.00
  -3  -1   0  236.38   11.40
   3   1   0  231.08    9.70
   4   0   0 1363.66   25.40
   5  -1   0 1639.64   29.30
   6  -2   0  247.78   12.70
   7  -3   0  159.38   14.10
   7  -3   0  165.38   11.30
   8  -4   0    8.90    4.70
   8  -4   0   14.40    5.70
   9  -5   0   66.19   11.70
   9  -5   0   80.09   10.60
  10  -6   0   94.29   15.20
   5 -10   1   94.39   14.30
   4  -9   1   76.49   12.10
   3  -8   1  350.76   18.90
   2  -7   1   80.29   10.20
   1  -6   1   47.70    8.40
   1  -6   1   50.39    7.50
   0  -5   1   11.40    3.90
   0  -5   1   20.10    5.20
   0   5  -1   13.50    2.40
  -1  -4   1    2.50    2.90
  -1  -4   1    2.00    3.50
   1   4  -1    7.50    2.60
  -2  -3   1  473.05   11.70
  -2  -3   1  479.65   17.60
   2   3  -1  483.65   13.40
  -3  -2   1  141.09   11.00
   3   2  -1  115.19    7.30
   4   1  -1  183.48    9.50
   5   0  -1  572.64   17.50
   6  -1  -1  714.63   21.00
   7  -2  -1  281.87   14.50
   7  -2  -1  277.67   14.60
   8  -3  -1   16.10    5.80
   8  -3  -1   23.80    6.10
   9  -4  -1   78.29   12.10
   9  -4  -1  109.59   12.40
  10  -5  -1    1.10    6.20
   4 -10   2  117.39   14.90
   3  -9   2  623.24   25.30
   2  -8   2   25.90    6.80
   2  -8   2   34.30    8.70
   1  -7   2   93.99   12.50
   1  -7   2   66.19    8.70
   0  -6   2   17.00    5.70
   0  -6   2    7.20    4.00
   0   6  -2   11.90    2.70
  -1  -5   2    4.50    2.80
  -1  -5   2    2.90    3.60
   1   5  -2    2.20    2.40
  -2  -4   2  128.99    6.20
  -2  -4   2  107.39   11.40
   2   4  -2  135.89    8.10
  -3  -3   2   20.60    7.00
   3   3  -2   23.60    4.70
  -4  -2   2  577.74   21.50
   4   2  -2  578.64   18.30
   5   1  -2   55.49    7.50
   6   0  -2  139.89    8.70
   6   0  -2  157.78   11.30
   7  -1  -2  229.88   13.90
   7  -1  -2  252.87   13.60
   8  -2  -2   75.39   10.10
   8  -2  -2   72.09    9.90
   9  -3  -2    3.30    4.70
   9  -3  -2   -1.50    4.10
  10  -4  -2   64.29   12.30
   4 -11   3   39.70    9.70
   4 -11   3   41.10   11.60
   3 -10   3   19.20    7.40
   3 -10   3    7.20    5.90
   2  -9   3  264.27   16.10
   2  -9   3  248.48   19.20
   1  -8   3  825.42   24.20
   1  -8   3  805.52   31.50
   0  -7   3   66.89    8.10
   0  -7   3  103.79   13.40
  -1  -6   3   55.49    9.30
  -1  -6   3   81.09    7.10
   1   6  -3   62.29    6.40
  -2  -5   3   10.20    5.30
  -2  -5   3    5.80    2.40
   2   5  -3    8.30    3.20
  -3  -4   3  141.19   14.10
   3   4  -3  154.08   10.00
  -4  -3   3 1009.30   29.60
   4   3  -3 1056.89   26.00
   5   2  -3  239.88    8.30
   5   2  -3  238.18   13.20
   6   1  -3  136.99    8.20
   6   1  -3  116.49   11.80
   7   0  -3   15.40    4.50
   7   0  -3   15.20    5.60
   8  -1  -3    9.80    5.20
   8  -1  -3    3.10    3.60
   9  -2  -3   21.50    7.30
   9  -2  -3   27.90    6.90
  10  -3  -3   10.60    6.10
  10  -3  -3   13.80    7.10
   3 -11   4   17.10    9.00
   2 -10   4   83.19   14.10
   1  -9   4   92.89   14.20
   0  -8   4  197.48   16.50
  -1  -7   4  310.47   19.20
   1   7  -4  360.76   13.70
  -2  -6   4  145.79   15.70
   2   6  -4  151.68    9.70
  -3  -5   4   43.30    9.70
   3   5  -4   63.19    8.30
  -4  -4   4  367.86   20.60
   4   4  -4  388.76   17.30
  -5  -3   4  665.13   27.40
   5   3  -4  681.23   24.00
   6   2  -4  866.61   27.40
   7   1  -4   78.49   10.90
   8   0  -4    1.50    4.50
   9  -1  -4    0.70    4.50
  10  -2  -4   23.60    7.50
   2 -11   5   84.89   16.10
   1 -10   5   62.19   13.20
   0  -9   5   79.59   13.60
  -1  -8   5   95.29   14.20
  -2  -7   5   60.59   11.70
   2   7  -5   60.99    8.20
  -3  -6   5   25.80    9.60
   3   6  -5   32.90    6.70
  -4  -5   5   60.09   12.30
   4   5  -5   62.19    9.40
  -5  -4   5   39.00   10.70
   5   4  -5   26.30    6.70
   6   3  -5  643.34   24.60
   7   2  -5  513.75   22.60
   8   1  -5  178.78   16.50
   9   0  -5   12.30    6.20
  10  -1  -5    1.80    4.40
   1 -11   6   93.19   17.00
   0 -10   6   19.90    9.60
  -1  -9   6    7.30    7.20
  -2  -8   6    7.70    7.90
   2   8  -6   24.90    6.10
  -3  -7   6   34.60   11.30
   3   7  -6   44.10    8.10
  -4  -6   6   64.29   13.20
   4   6  -6   51.19    8.80
  -5  -5   6    6.80    8.80
   5   5  -6   14.00    6.30
   6   4  -6   10.00    5.60
   7   3  -6  227.58   19.10
   8   2  -6  304.17   18.70
   9   1  -6  157.68   16.50
  10   0  -6    6.50    5.80
   0 -11   7  157.88   21.70
  -1 -10   7  -11.00    5.50
  -2  -9   7   17.90   10.40
  -3  -8   7    3.60    8.50
   3   8  -7    7.40    5.10
  -4  -7   7   31.30   11.60
   4   7  -7   28.30    7.70
  -5  -6   7  104.89   16.60
   5   6  -7  116.49   13.80
   6   5  -7  155.38   16.20
   7   4  -7   37.70    9.00
   8   3  -7    5.70    5.50
   9   2  -7  129.09   15.90
  -2 -10   8   33.60   13.50
  -3  -9   8   99.69   18.40
  -4  -8   8   41.90   13.70
   4   8  -8   44.80    9.70
  -5  -7   8   27.60   12.10
   5   7  -8   35.90    9.30
  -6  -6   8   90.09   16.90
   6   6  -8  100.89   14.00
   7   5  -8   99.59   14.20
   8   4  -8   47.90   10.50
   3   3 -11   28.40    8.60
   2   4 -11   56.39   10.90
   1   5 -11   72.49   12.20
   0   6 -11   99.29   14.70
  -1   7 -11   31.50    9.10
   5   0 -10   -0.50    5.00
   4   1 -10   51.49   10.50
   3   2 -10   70.49   11.40
   2   3 -10   59.79   10.50
   1   4 -10   59.39   10.50
   0   5 -10  147.49   15.90
  -1   6 -10   68.59   11.60
  -2   7 -10   14.70    6.10
  -3   8 -10   -1.30    4.40
   5  -1  -9   30.50    8.00
   4   0  -9   16.60    6.00
   3   1  -9   43.10    8.90
   2   2  -9  264.07   16.60
   1   3  -9  223.58   15.50
   0   4  -9   32.90    7.60
  -1   5  -9   51.29    9.60
  -2   6  -9  101.49   12.80
  -3   7  -9   22.40    6.80
  -4   8  -9   -3.10    4.10
   6  -3  -8   24.70    8.80
   5  -2  -8   35.40    9.10
   4  -1  -8    3.70    4.40
   4  -1  -8   -4.30    4.30
   3   0  -8   28.10    7.10
   3   0  -8   29.50    7.30
   2   1  -8   99.89   11.50
   2   1  -8   67.49    9.60
  -1   4  -8   55.89    9.20
  -2   5  -8   19.70    6.10
  -3   6  -8   -3.10    3.40
  -4   7  -8   78.59   11.40
   5  -8   8   14.90    5.50
   6  -9   8    1.70    5.00
   6  -4  -7   10.70    8.10
   5  -3  -7   11.30    7.40
   4  -2  -7   20.50    5.60
   4  -2  -7   36.80    8.80
   3  -1  -7   13.90    4.70
   3  -1  -7   22.20    7.00
   2   0  -7   20.60    6.30
   2   0  -7   19.40    5.40
   1   1  -7   36.60    6.80
   1   1  -7   39.80    7.10
   0   2  -7  284.47   14.20
   0   2  -7  310.97   15.30
  -1   3  -7  895.71   26.40
  -1   3  -7  901.41   24.90
  -2   4  -7   32.20    6.60
  -3   5  -7   85.49   10.40
   5  -7   7   14.90    5.70
   6  -8   7  223.28   15.10
   7  -9   7   34.90    9.50
   6  -5  -6    5.30    7.30
   5  -4  -6    0.10    5.20
   4  -3  -6   39.50    9.40
   3  -2  -6   -2.50    4.70
   3  -2  -6    2.00    3.30
   2  -1  -6   70.69    8.60
   2  -1  -6   80.39   10.70
   1   0  -6   56.99    7.80
   1   0  -6   40.90    7.20
   0   1  -6  174.18   11.10
   0   1  -6  171.68   10.90
  -1   2  -6  491.65   17.90
  -1   2  -6  510.15   18.40
  -2   3  -6  177.38   11.20
   2  -3   6  161.78    7.40
  -3   4  -6  351.46   16.20
   4  -5   6   12.20    4.30
   5  -6   6  215.58   13.60
   6  -7   6    2.60    3.40
   7  -8   6  107.99   15.00
   8  -9   6  278.17   25.80
   6  -6  -5  119.29   17.10
   5  -5  -5   50.49   11.00
   4  -4  -5    6.60    5.80
   3  -3  -5   11.90    6.10
   3  -3  -5   12.70    3.90
   2  -2  -5  260.97   15.00
   2  -2  -5  255.07   11.50
   1  -1  -5   47.70    6.50
   1  -1  -5   44.80    7.20
   0   0  -5  245.28   11.90
   0   0  -5  265.57   13.10
  -1   1  -5  352.26   14.10
  -1   1  -5  362.96   14.60
  -2   2  -5  322.87   13.60
  -2   2  -5  312.47   13.80
  -3   3  -5  968.80   24.90
   4  -4   5    9.10    3.90
   5  -5   5   16.20    4.80
   6  -6   5    1.20    3.10
   7  -7   5   54.59    8.70
   7  -7   5   37.10    8.70
   8  -8   5  144.99   17.40
   6  -7  -4  137.09   18.20
   5  -6  -4  186.08   19.30
   4  -5  -4   14.00    6.70
   3  -4  -4   18.10    7.20
   2  -3  -4    2.70    4.70
   2  -3  -4    3.90    2.80
   1  -2  -4   69.59    6.80
   1  -2  -4   57.89    8.00
   0  -1  -4 1790.82   28.30
   0  -1  -4 1769.72   17.00
   0  -1  -4 1805.22   33.20
  -1   0  -4  550.24   15.80
  -1   0  -4  545.25   17.20
  -2   1  -4  217.58   10.70
  -2   1  -4  203.58   10.70
   3  -2   4  314.07   12.90
   4  -3   4   44.20    6.90
   5  -4   4  490.05   17.60
   6  -5   4   -0.60    2.60
   7  -6   4    9.70    4.30
   8  -7   4   81.49   12.90
   9  -8   4   11.50    6.60
   6  -8  -3   12.40    7.80
   5  -7  -3   12.60    7.30
   4  -6  -3  134.39   15.80
   3  -5  -3   63.39   10.40
   2  -4  -3    8.40    2.70
   2  -4  -3    0.80    4.40
   1  -3  -3    0.10    3.60
   1  -3  -3    5.70    2.60
   0  -2  -3  550.34   14.00
   0  -2  -3  566.54   18.40
   0  -2  -3  556.24   12.90
  -1  -1  -3 1107.79   24.20
  -1  -1  -3 1120.39   15.20
  -2   0  -3 2242.58   34.10
   2   0   3 2255.27   32.20
   3  -1   3  205.68   10.10
   4  -2   3   42.60    6.00
   5  -3   3   48.00    7.10
   6  -4   3   18.40    5.00
   7  -5   3  343.97   16.40
   8  -6   3   70.49   11.60
   8  -6   3   64.19    9.30
   9  -7   3    1.90    4.70
   5  -8  -2   46.10   10.70
   4  -7  -2   51.59   10.50
   3  -6  -2    8.60    5.50
   2  -5  -2  129.69   13.00
   1  -4  -2    5.20    4.50
  -1   4   2   14.20    2.40
   0  -3  -2    0.30    2.20
   0  -3  -2   -2.00    2.70
   0   3   2    3.50    1.80
  -1  -2  -2   94.39    6.60
  -1  -2  -2   96.09    8.60
  -2  -1  -2 1649.83   23.80
  -2  -1  -2 1644.74   27.90
   2   1   2 1662.73   25.20
  -3   0  -2 1487.85   26.00
   4  -1   2  382.66   14.20
   5  -2   2    5.00    3.10
   6  -3   2  136.49   11.70
   7  -4   2   65.49    8.80
   8  -5   2  151.88   16.10
   8  -5   2  150.78   13.90
   9  -6   2  171.88   18.80
  10  -7   2   46.00   11.40
   5  -9  -1   83.99   13.90
   4  -8  -1   54.69   10.90
   3  -7  -1   -6.20    3.70
   2  -6  -1   73.59   10.10
   1  -5  -1    4.60    4.50
   0  -4  -1   31.20    5.60
   0  -4  -1   39.70    6.40
   0   4   1   40.70    3.90
  -1  -3  -1   42.60    6.20
   1   3   1   36.20    4.20
  -2  -2  -1   21.20    4.40
   2   2   1   28.80    4.20
  -3  -1  -1  579.54   15.30
   3   1   1  566.24   15.30
   4   0   1 1556.94   28.10
   5  -1   1  707.13   20.00
   6  -2   1   28.70    5.80
   7  -3   1  134.99   12.30
   8  -4   1   14.30    5.60
   8  -4   1    6.00    4.60
   9  -5   1   92.09   13.50
   9  -5   1  106.09   12.10
  10  -6   1  114.69   15.90
   5 -10   0  234.78   22.70
   4  -9   0   93.29   13.40
   3  -8   0   11.40    6.30
   2  -7   0   -1.00    4.30
   1  -6   0  131.09   12.40
   1  -6   0  126.69   13.30
   0  -5   0  270.47   14.50
   0  -5   0  284.87   13.60
   0   5   0  283.97    7.60
  -1  -4   0  243.98   12.60
  -1  -4   0  233.68   10.90
   1   4   0  246.68    8.60
  -2  -3   0   60.09    8.00
  -2  -3   0   53.69    6.10
  -3  -2   0  363.46   15.90
  -3  -2   0  348.87   11.70
   3   2   0  386.86   13.00
   4   1   0  179.68    9.80
   5   0   0  304.27   13.30
   6  -1   0  315.27   14.50
   7  -2   0   15.70    5.20
   8  -3   0  109.79   11.70
   8  -3   0  129.39   13.60
   9  -4   0   49.60    9.90
   9  -4   0   54.19    9.30
  10  -5   0   43.30   10.20
   4 -10   1   39.40   10.00
   3  -9   1  240.38   19.40
   3  -9   1  203.78   18.70
   2  -8   1   33.00    8.90
   2  -8   1   42.30    8.80
   1  -7   1   87.49   12.10
   1  -7   1   92.39   10.70
   0  -6   1    5.30    4.00
   0  -6   1    5.40    4.30
  -1  -5   1    8.20    4.30
  -1  -5   1    7.10    3.80
   1   5  -1    3.80    2.60
  -2  -4   1 1139.69   21.30
  -2  -4   1 1202.68   29.90
   2   4  -1 1148.69   22.30
  -3  -3   1 1385.76   21.80
  -3  -3   1 1396.16   32.40
   3   3  -1 1389.46   26.00
  -4  -2   1   23.80    6.60
   4   2  -1   29.10    5.40
   5   1  -1   52.29    7.30
   6   0  -1   15.60    4.80
   7  -1  -1   23.50    5.90
   8  -2  -1   41.40    7.90
   8  -2  -1   48.30    8.20
   9  -3  -1    1.70    4.10
   9  -3  -1    3.40    5.00
  10  -4  -1    1.50    5.40
  10  -4  -1    5.40    6.10
  11  -5  -1   21.20    9.20
   4 -11   2   14.50    7.50
   4 -11   2   19.80    8.70
   3 -10   2  193.28   18.60
   3 -10   2  191.78   21.90
   2  -9   2  155.18   18.40
   2  -9   2  132.59   14.10
   1  -8   2   61.29    9.20
   1  -8   2   47.00   10.40
   0  -7   2    2.20    4.30
   0  -7   2   -0.60    5.10
  -1  -6   2   63.99    7.60
  -1  -6   2   80.69   11.20
   1   6  -2   78.19    6.80
  -2  -5   2  232.58    9.80
  -2  -5   2  223.98   15.20
   2   5  -2  236.08   11.20
  -3  -4   2  785.92   26.20
  -3  -4   2  773.12   15.10
   3   4  -2  762.02   20.70
  -4  -3   2 1181.08   32.30
   4   3  -2 1156.68   27.10
   5   2  -2  527.45   19.00
   6   1  -2    6.00    3.80
   7   0  -2   11.10    4.20
   7   0  -2    2.20    4.10
   8  -1  -2   28.10    7.20
   8  -1  -2   37.90    7.50
   9  -2  -2   66.29   10.60
   9  -2  -2   60.79   10.00
  10  -3  -2  121.39   14.30
  10  -3  -2   80.59   13.10
  11  -4  -2   63.69   12.80
   3 -11   3   44.40   12.10
   2 -10   3    8.30    6.50
   1  -9   3  173.38   15.00
   1  -9   3  127.79   17.00
   0  -8   3  168.98   18.30
   0  -8   3  171.28   12.00
  -1  -7   3    1.50    3.70
  -1  -7   3    2.70    4.70
  -2  -6   3   46.60    5.40
  -2  -6   3   49.99   10.20
   2   6  -3   56.19    7.00
  -3  -5   3   48.30   10.40
   3   5  -3   57.39    8.00
  -4  -4   3  749.62   28.50
   4   4  -3  795.42   23.50
  -5  -3   3 1120.59   34.80
   5   3  -3 1099.89   29.10
   6   2  -3  535.65   21.60
   7   1  -3   30.10    5.50
   7   1  -3   14.30    5.70
   8   0  -3   -4.90    3.60
   8   0  -3   -4.40    2.90
   9  -1  -3    0.50    4.10
   9  -1  -3    0.80    3.40
  10  -2  -3   78.09   11.90
  11  -3  -3  143.19   16.50
   2 -11   4   25.00   10.40
   1 -10   4   10.80    7.70
   0  -9   4   -1.50    4.60
  -1  -8   4   49.99   10.50
  -2  -7   4  156.78   17.80
   2   7  -4  151.28   10.00
  -3  -6   4   40.40   10.20
   3   6  -4   37.50    6.80
  -4  -5   4    6.70    7.90
   4   5  -4    2.70    3.80
  -5  -4   4  524.35   26.20
   5   4  -4  409.36   19.60
   6   3  -4  858.41   28.20
   7   2  -4  312.67   18.00
   8   1  -4   48.40    9.30
   9   0  -4   56.49   10.40
  10  -1  -4   -0.20    5.20
   1 -11   5   31.10   10.60
   0 -10   5   25.20    9.50
  -1  -9   5    4.10    6.50
  -2  -8   5    7.60    8.00
  -3  -7   5  173.28   19.60
   3   7  -5  193.78   12.50
  -4  -6   5  246.58   19.90
   4   6  -5  267.47   15.80
  -5  -5   5   84.59   14.40
   5   5  -5  124.19   13.20
  -6  -4   5   17.50    8.30
   6   4  -5    5.90    4.40
   7   3  -5   86.59   12.10
   8   2  -5  150.88   15.70
   9   1  -5   -6.40    3.60
  10   0  -5   -0.10    4.80
   0 -11   6   19.20    9.50
  -1 -10   6   26.30   10.70
  -2  -9   6   66.59   14.10
  -3  -8   6    8.50    9.00
   3   8  -6   13.30    5.30
  -4  -7   6  151.68   19.60
   4   7  -6  169.28   15.30
  -5  -6   6  256.77   20.80
   5   6  -6  270.67   17.20
  -6  -5   6  108.39   16.50
   6   5  -6   97.09   13.00
   7   4  -6   23.50    7.50
   8   3  -6    9.70    5.80
   9   2  -6    0.90    3.70
  10   1  -6   23.60    8.00
  -2 -10   7   -4.90    8.90
  -3  -9   7   37.20   13.30
  -4  -8   7   -1.10    8.40
   4   8  -7    7.20    5.20
  -5  -7   7   86.09   16.80
   5   7  -7  104.99   13.50
  -6  -6   7  188.18   22.90
   6   6  -7  246.18   20.70
   7   5  -7  106.19   14.30
   8   4  -7    5.40    6.40
   9   3  -7    4.30    5.50
  -4  -9   8   43.40   14.30
  -5  -8   8   -0.50    9.10
   5   8  -8   11.00    6.50
  -6  -7   8   78.99   17.20
   6   7  -8   84.59   13.50
   7   6  -8  165.78   18.90
   3   2 -11  114.49   14.90
   2   3 -11   53.99   10.50
   1   4 -11    7.50    6.20
   0   5 -11   35.40    9.80
  -1   6 -11   41.20   10.20
  -2   7 -11    3.00    5.10
   4   0 -10   10.50    5.70
   3   1 -10  154.08   16.60
   2   2 -10  169.88   17.00
   1   3 -10   61.29   10.60
   0   4 -10   -0.30    4.30
  -1   5 -10    5.10    5.80
  -2   6 -10   40.20    9.10
  -3   7 -10   80.89   12.90
   5  -2  -9   17.20    7.90
   4  -1  -9    2.80    4.70
   4  -1  -9   -4.00    4.60
   3   0  -9   59.09    9.70
   3   0  -9   60.89   10.50
   2   1  -9  150.68   15.20
   2   1  -9  179.08   15.80
   1   2  -9  230.88   15.50
   1   2  -9  253.07   15.30
   0   3  -9   79.99   11.40
   0   3  -9   90.79   11.20
  -1   4  -9   19.00    6.50
  -2   5  -9   31.60    7.90
  -3   6  -9    7.60    5.00
  -4   7  -9  184.98   18.00
   5  -8   9  138.09   15.40
   5  -3  -8    3.80    6.70
   4  -2  -8   16.30    7.70
   3  -1  -8   74.69   10.20
   3  -1  -8   77.99   11.50
   2   0  -8   -4.10    4.00
   2   0  -8    2.80    3.80
   1   1  -8  333.37   17.20
   1   1  -8  329.17   16.80
   0   2  -8  392.26   19.30
   0   2  -8  411.66   18.50
  -1   3  -8   24.00    6.60
  -1   3  -8   33.90    7.20
  -2   4  -8   -0.70    3.60
  -3   5  -8  111.59   12.80
   5  -7   8   86.49   11.70
   6  -8   8  265.57   17.20
   5  -4  -7    9.10    7.70
   4  -3  -7   26.40    8.60
   3  -2  -7   66.09   11.30
   3  -2  -7   68.59    8.70
   2  -1  -7   69.99   10.60
   2  -1  -7   68.29    8.90
   1   0  -7  438.66   19.40
   1   0  -7  462.85   18.60
   0   1  -7    4.60    3.90
   0   1  -7   13.40    5.30
  -1   2  -7  375.36   17.50
  -1   2  -7  366.46   17.20
  -2   3  -7  554.64   20.90
  -3   4  -7   69.49   10.10
   4  -5   7    5.40    4.00
   5  -6   7   11.50    4.80
   6  -7   7   70.59   10.10
   5  -5  -6   26.10    9.40
   4  -4  -6   -0.40    6.30
   3  -3  -6   71.89   11.50
   2  -2  -6  288.17   13.70
   2  -2  -6  303.87   17.70
   1  -1  -6  487.55   18.00
   1  -1  -6  466.25   19.80
   0   0  -6   98.79   11.00
   0   0  -6  131.69   11.70
  -1   1  -6  418.36   17.30
  -1   1  -6  410.16   16.50
  -2   2  -6   -1.00    2.80
  -2   2  -6    2.00    3.60
  -3   3  -6   61.09    8.90
   4  -4   6  464.25   18.80
   5  -5   6   73.99    9.70
   6  -6   6   11.30    4.40
   7  -7   6  138.89   14.20
   8  -8   6  190.68   20.60
   5  -6  -5   18.70    8.80
   4  -5  -5   14.80    6.90
   3  -4  -5   48.50   10.30
   2  -3  -5   74.69    7.90
   2  -3  -5   63.29   10.20
   1  -2  -5 1072.19   23.90
   1  -2  -5 1096.69   30.80
   0  -1  -5  649.93   21.80
   0  -1  -5  649.43   18.60
  -1   0  -5  211.38   11.30
  -1   0  -5  222.88   12.60
  -2   1  -5    6.20    3.80
  -2   1  -5    9.20    4.50
   3  -2   5   63.19    7.90
   4  -3   5   11.20    4.50
   5  -4   5   51.99    7.70
   6  -5   5  512.75   20.20
   7  -6   5    5.80    4.20
   8  -7   5   61.29   11.20
   8  -7   5   52.19    8.90
   9  -8   5  163.88   19.20
   5  -7  -4    7.20    8.00
   4  -6  -4   33.70   10.00
   3  -5  -4   -4.50    3.80
   2  -4  -4   15.50    6.50
   1  -3  -4   -2.00    3.70
   1  -3  -4    4.40    2.90
   0  -2  -4  392.26   10.80
   0  -2  -4  427.56   17.80
   0  -2  -4  391.76   13.60
  -1  -1  -4 2341.67   35.20
  -1  -1  -4 2363.26   40.20
  -2   0  -4  296.07   13.70
   2   0   4  329.67   13.10
  -3   1  -4   36.10    6.20
   3  -1   4   43.60    6.80
   4  -2   4   87.49    9.40
   5  -3   4   53.49    7.50
   6  -4   4  257.67   14.50
   7  -5   4  141.39   13.10
   8  -6   4  272.47   16.30
   9  -7   4   20.40    7.20
   5  -8  -3    0.50    5.90
   4  -7  -3   -6.50    4.20
   3  -6  -3   40.40    9.90
   2  -5  -3    1.10    4.60
   1  -4  -3   14.30    6.00
  -1   4   3   14.60    3.20
   0  -3  -3   98.89    7.10
   0  -3  -3   99.99   10.30
   0   3   3   87.69    6.20
  -1  -2  -3  180.08    8.40
  -1  -2  -3  193.68   11.30
   1   2   3  184.78    9.10
  -2  -1  -3  724.83   20.70
   2   1   3  702.23   18.10
  -3   0  -3 1753.82   32.00
   3   0   3 1767.22   30.60
   4  -1   3    0.10    2.30
   5  -2   3  427.66   17.10
   6  -3   3   27.30    6.00
   7  -4   3  117.89   11.90
   8  -5   3  272.97   16.00
   9  -6   3   74.29   12.60
   9  -6   3   70.69   11.10
  10  -7   3   11.80    6.60
   5  -9  -2   -5.70    5.90
   4  -8  -2    5.00    5.50
   3  -7  -2    6.80    6.10
   2  -6  -2    1.30    4.70
   1  -5  -2  305.27   15.30
   1  -5  -2  378.26   18.30
   0  -4  -2  135.59   12.70
   0  -4  -2  126.29    9.40
   0   4   2  121.29    6.50
  -1  -3  -2  114.49    8.20
  -1  -3  -2  138.09    9.90
   1   3   2  117.09    7.00
  -2  -2  -2  361.76   13.30
  -2  -2  -2  352.66   14.70
  -3  -1  -2  182.38   10.40
   3   1   2  182.98   10.00
   4   0   2  188.78   10.60
   5  -1   2  265.07   13.00
   6  -2   2  123.29   11.70
   7  -3   2  259.27   14.50
   8  -4   2   33.80    7.60
   9  -5   2  238.08   17.70
   9  -5   2  265.37   16.50
  10  -6   2  147.69   18.10
   4  -9  -1   22.20    8.60
   3  -8  -1   53.59   10.60
   2  -7  -1   -1.40    3.50
   2  -7  -1   -0.40    4.50
   1  -6  -1   60.09    9.70
   1  -6  -1   80.69   10.70
   0  -5  -1  218.08   13.10
   0  -5  -1  220.48   13.80
  -1  -4  -1 1217.08   28.00
  -1  -4  -1 1224.28   27.90
   1   4   1 1253.37   20.80
  -2  -3  -1  296.87   13.00
  -2  -3  -1  292.37   13.90
  -3  -2  -1   12.90    3.90
  -3  -2  -1   14.20    5.30
   3   2   1   11.90    3.70
   4   1   1   66.79    7.70
   5   0   1    5.60    3.70
   6  -1   1   21.80    5.40
   7  -2   1   81.49   10.30
   8  -3   1   -4.40    2.90
   9  -4   1   17.80    6.40
   9  -4   1   13.60    5.70
  10  -5   1  229.88   16.20
  10  -5   1  247.38   22.00
   4 -10   0  115.39   16.10
   4 -10   0  113.09   17.10
   3  -9   0   55.29   11.00
   3  -9   0   65.39   12.40
   2  -8   0   -4.20    4.00
   2  -8   0    1.60    4.60
   1  -7   0   87.79   11.80
   1  -7   0   71.69   10.30
   0  -6   0   68.79   10.20
   0  -6   0   46.10    8.00
  -1  -5   0  960.70   27.60
  -1  -5   0  953.30   24.00
   1   5   0  958.70   18.20
  -2  -4   0 1134.19   29.30
  -2  -4   0 1104.09   24.10
   2   4   0 1103.09   21.90
  -3  -3   0  569.54   16.40
  -3  -3   0  600.74   21.40
   3   3   0  604.04   17.30
  -4  -2   0   19.80    4.30
  -4  -2   0   20.20    6.30
   4   2   0   25.50    5.10
   5   1   0    0.10    2.80
   6   0   0   37.30    6.90
   7  -1   0  121.29   12.30
   8  -2   0  165.58   14.90
   9  -3   0  225.48   15.90
   9  -3   0  245.48   16.00
  10  -4   0  104.29   14.40
  10  -4   0  100.49   13.50
  11  -5   0   82.59   14.30
   3 -10   1   20.40    7.70
   3 -10   1   13.70    7.60
   2  -9   1  108.29   13.60
   2  -9   1  116.89   16.30
   1  -8   1   63.69   11.60
   1  -8   1   59.59    9.80
   0  -7   1   32.70    8.20
   0  -7   1   38.10    7.50
  -1  -6   1   -1.30    3.20
  -1  -6   1   -0.20    3.90
  -2  -5   1  637.84   18.20
  -2  -5   1  685.73   25.10
   2   5  -1  634.74   17.50
  -3  -4   1 1513.35   36.70
  -3  -4   1 1521.75   26.10
   3   4  -1 1511.15   29.00
  -4  -3   1 1236.98   33.00
  -4  -3   1 1241.08   22.50
   4   3  -1 1280.97   28.00
   5   2  -1   47.20    7.70
   6   1  -1   41.00    7.00
   7   0  -1   69.29    9.60
   8  -1  -1  145.69   14.20
   8  -1  -1  148.09   11.00
   9  -2  -1  206.18   17.50
   9  -2  -1  193.58   14.30
  10  -3  -1  159.08   16.70
  10  -3  -1  133.59   15.20
  11  -4  -1   91.49   15.30
  11  -4  -1   73.69   12.20
   3 -11   2   -0.70    6.70
   3 -11   2    6.20    8.00
   2 -10   2   -3.20    4.60
   2 -10   2   -1.50    5.20
   1  -9   2    7.30    7.10
   1  -9   2   14.60    6.60
   0  -8   2   89.59   13.90
   0  -8   2   70.19    9.60
  -1  -7   2  130.19   11.30
  -1  -7   2  115.19   13.80
  -2  -6   2    7.80    4.00
  -2  -6   2   18.10    7.60
   2   6  -2    9.40    4.00
  -3  -5   2  114.69    7.50
  -3  -5   2  121.49   14.80
   3   5  -2  117.59   10.60
  -4  -4   2 1252.37   36.40
   4   4  -2 1216.08   29.10
  -5  -3   2  667.13   27.10
   5   3  -2  675.33   22.80
   6   2  -2  260.77   15.20
   7   1  -2   24.90    6.60
   8   0  -2  134.79   12.30
   8   0  -2  119.89   13.20
   9  -1  -2  185.18   16.20
   9  -1  -2  182.28   16.80
  10  -2  -2  105.09   13.50
  10  -2  -2  113.09   13.90
  11  -3  -2   56.49   11.40
  11  -3  -2   53.39   11.70
   2 -11   3   10.20    8.60
   1 -10   3    9.30    7.80
   0  -9   3   -3.80    5.10
  -1  -8   3  130.19   15.80
  -2  -7   3  275.47   19.60
  -3  -6   3  167.08   18.50
  -4  -5   3   83.49   14.10
   4   5  -3   75.49    9.80
  -5  -4   3   32.10   10.00
   5   4  -3   49.50    8.50
   6   3  -3  298.27   16.80
   7   2  -3    7.50    4.70
   8   1  -3   15.70    6.30
   9   0  -3   12.00    6.10
  10  -1  -3   15.10    7.20
  11  -2  -3  229.18   20.60
   1 -11   4   16.60    9.20
   0 -10   4   59.09   13.00
  -1  -9   4    0.50    5.70
  -2  -8   4  105.29   15.80
  -4  -6   4  293.17   21.30
   4   6  -4  284.57   15.70
  -5  -5   4   -3.00    7.60
   5   5  -4    1.00    4.20
  -6  -4   4   -3.80    5.70
   6   4  -4   -4.80    2.90
   7   3  -4    0.40    4.50
   8   2  -4   18.70    6.40
   9   1  -4    1.50    4.50
  10   0  -4   11.90    6.60
  11  -1  -4   45.60   10.70
   0 -11   5    0.70    6.70
  -1 -10   5   86.69   16.10
  -2  -9   5    7.00    8.30
  -3  -8   5  116.79   17.90
  -4  -7   5  254.77   24.50
   4   7  -5  285.77   16.20
  -5  -6   5  234.78   23.60
   5   6  -5  256.37   16.10
  -6  -5   5   82.49   15.60
   6   5  -5   71.89   11.20
   7   4  -5   40.30    9.30
   8   3  -5   -4.30    4.20
   9   2  -5   18.50    7.30
  10   1  -5   27.70    8.40
  -2 -10   6    4.10    8.90
  -3  -9   6   32.80   12.70
  -4  -8   6  126.49   19.50
   4   8  -6  129.69   13.90
  -5  -7   6  430.66   29.10
   5   7  -6  395.16   20.60
  -6  -6   6  184.28   22.10
   6   6  -6  245.48   20.80
   7   5  -6   51.39   10.10
   8   4  -6   13.20    7.30
   9   3  -6    5.90    5.20
  -3 -10   7   52.79   15.20
  -4  -9   7  100.59   19.20
  -5  -8   7   14.80   11.90
   5   8  -7   12.50    6.50
  -6  -7   7  321.97   27.00
   6   7  -7  321.97   20.40
   7   6  -7  235.08   21.40
   8   5  -7   15.10    8.50
   2   2 -11   74.19   12.60
   1   3 -11    5.20    5.40
   0   4 -11   16.30    6.70
  -1   5 -11   -3.30    4.90
  -2   6 -11   49.60   10.70
   3   0 -10    8.40    5.60
   2   1 -10  260.17   17.90
   1   2 -10   56.99   10.50
   0   3 -10    3.80    5.10
  -1   4 -10   63.29   10.50
  -2   5 -10   28.20    8.00
  -3   6 -10  132.29   16.10
   4  -2  -9    7.70    7.20
   3  -1  -9  102.39   14.10
   3  -1  -9   82.79   11.60
   2   0  -9  198.48   17.40
   2   0  -9  206.38   18.30
   1   1  -9    7.70    4.90
   1   1  -9    4.30    4.90
   0   2  -9  231.58   15.80
   0   2  -9  239.48   16.10
  -1   3  -9   42.30    8.80
  -1   3  -9   26.40    7.00
  -2   4  -9   34.40    8.40
  -3   5  -9    9.40    5.60
   5  -7   9  396.86   22.10
   6  -8   9  210.38   19.10
   4  -3  -8   71.09   13.40
   3  -2  -8  254.37   18.90
   2  -1  -8   31.10    7.30
   2  -1  -8   28.70    8.30
   1   0  -8   17.20    6.50
   1   0  -8   20.30    6.30
   0   1  -8  326.77   17.60
   0   1  -8  313.87   17.30
  -1   2  -8    5.90    3.90
  -1   2  -8    1.40    3.80
  -2   3  -8   87.49   10.90
  -3   4  -8   65.79   10.60
   4  -5   8   -0.80    3.20
   5  -6   8  101.09   12.70
   6  -7   8  159.78   16.00
   7  -8   8  364.16   20.60
   4  -4  -7    2.40    6.20
   3  -3  -7  300.37   20.90
   2  -2  -7  527.25   19.60
   2  -2  -7  430.86   22.40
   1  -1  -7  177.48   12.30
   1  -1  -7  220.88   15.50
   0   0  -7    5.90    4.70
   0   0  -7    3.20    3.60
  -1   1  -7   39.80    7.50
  -1   1  -7   30.10    7.20
  -2   2  -7  275.07   15.40
  -2   2  -7  260.57   15.00
  -3   3  -7   37.20    7.90
   4  -4   7  100.09   11.50
   5  -5   7  234.58   15.50
   6  -6   7   48.70    8.90
   7  -7   7  218.38   18.30
   5  -6  -6   -5.60    5.60
   4  -5  -6    4.00    7.00
   3  -4  -6   44.40   10.10
   2  -3  -6   71.69   11.50
   2  -3  -6   52.29    7.40
   1  -2  -6  592.44   19.10
   1  -2  -6  589.64   24.50
   0  -1  -6  591.34   19.80
   0  -1  -6  621.94   23.30
  -1   0  -6   -0.60    2.50
  -1   0  -6   -2.70    3.60
  -2   1  -6  134.49   12.90
  -2   1  -6  115.09   11.40
   3  -2   6   18.50    5.30
   4  -3   6  440.76   19.20
   5  -4   6  310.07   16.50
   6  -5   6   64.69    9.50
   7  -6   6   72.79   10.60
   8  -7   6    6.20    5.10
   5  -7  -5    6.70    7.50
   4  -6  -5   34.30   10.40
   3  -5  -5    8.00    6.90
   2  -4  -5    6.00    5.70
   1  -3  -5  225.38   16.10
   1  -3  -5  235.48   11.70
   0  -2  -5  301.27   16.60
   0  -2  -5  299.77   13.70
  -1  -1  -5  524.65   18.20
  -1  -1  -5  524.65   20.80
  -2   0  -5  186.68   12.60
   2   0   5  170.38   10.50
  -3   1  -5  242.48   14.00
   3  -1   5  224.58   12.90
   4  -2   5  131.59   12.20
   5  -3   5   30.70    6.40
   6  -4   5  385.96   18.10
   7  -5   5  221.98   15.10
   8  -6   5    7.50    5.00
   9  -7   5    4.80    5.10
   4  -7  -4   -3.10    5.50
   3  -6  -4   66.79   12.10
   2  -5  -4  194.08   18.60
   1  -4  -4   43.90    9.10
   0  -3  -4  113.19   12.70
   0   3   4   91.79    8.40
  -1  -2  -4  302.97   15.80
   1   2   4  316.87   13.10
  -2  -1  -4  101.19   10.70
   2   1   4  118.59   10.30
  -3   0  -4   83.49    9.70
   3   0   4   89.69    9.30
   4  -1   4    8.30    3.80
   5  -2   4  235.18   13.20
   6  -3   4    4.70    4.00
   7  -4   4  293.47   16.30
   8  -5   4  324.67   17.90
   9  -6   4   64.39   10.60
  10  -7   4   -1.00    4.50
   4  -8  -3   19.60    8.50
   3  -7  -3   23.20    7.60
   2  -6  -3  149.39   14.70
   2  -6  -3  140.69   15.60
   1  -5  -3  432.96   18.20
   1  -5  -3  460.55   22.20
   0  -4  -3  289.57   16.20
   0  -4  -3  323.67   14.30
   0   4   3  305.87   10.90
  -1  -3  -3    6.40    4.60
  -1  -3  -3    6.30    4.00
   1   3   3    6.80    3.10
  -2  -2  -3    9.20    4.10
  -2  -2  -3    7.80    4.60
   2   2   3   10.20    3.50
  -3  -1  -3  105.99   10.60
   3   1   3   91.59    8.70
  -4   0  -3   18.00    5.20
   4   0   3   13.20    4.40
   5  -1   3   50.49    7.80
   6  -2   3   23.20    5.80
   7  -3   3   16.30    5.40
   8  -4   3  318.27   17.70
   9  -5   3  394.16   21.00
  10  -6   3   77.19   11.70
  10  -6   3   88.59   14.10
   4  -9  -2    8.00    5.80
   4  -9  -2   -2.80    6.10
   3  -8  -2   15.70    7.70
   3  -8  -2   31.30    8.50
   2  -7  -2   -1.60    4.40
   2  -7  -2    0.00    3.70
   1  -6  -2  313.77   17.10
   1  -6  -2  274.07   17.60
   0  -5  -2  749.03   24.30
   0  -5  -2  879.61   27.10
  -1  -4  -2  740.73   21.70
  -1  -4  -2  744.23   23.90
   1   4   2  774.62   17.40
  -2  -3  -2   21.90    6.10
  -2  -3  -2   18.80    5.40
  -3  -2  -2   19.00    5.30
  -3  -2  -2   27.30    5.70
   3   2   2   25.10    5.00
  -4  -1  -2   20.60    5.30
   4   1   2   22.80    4.90
   5   0   2  254.57   13.00
   6  -1   2  206.88   12.80
   7  -2   2  352.36   17.30
   8  -3   2  300.27   17.00
   9  -4   2  140.89   14.60
  10  -5   2  178.78   18.90
  10  -5   2  190.18   18.00
   3  -9  -1   36.60   10.10
   3  -9  -1   23.30    8.90
   2  -8  -1    0.90    4.80
   2  -8  -1   -1.90    4.80
   1  -7  -1   -1.90    4.60
   1  -7  -1    4.30    5.10
   0  -6  -1  309.27   17.20
   0  -6  -1  351.96   18.90
  -1  -5  -1 1051.39   28.60
  -1  -5  -1  902.11   26.80
   1   5   1  878.21   18.70
  -2  -4  -1 1045.30   28.50
  -2  -4  -1 1027.30   26.10
   2   4   1 1024.10   22.30
  -3  -3  -1  675.03   20.40
  -3  -3  -1  661.63   22.40
   3   3   1  687.13   19.00
  -4  -2  -1   95.49    9.20
  -4  -2  -1   78.99    9.90
   4   2   1   93.09    9.40
   5   1   1   -0.20    2.20
   6   0   1  376.36   17.20
   7  -1   1  394.76   18.80
   8  -2   1  292.47   16.70
   9  -3   1  118.59   13.70
  10  -4   1   89.99   13.60
  10  -4   1   90.19   12.70
  11  -5   1   41.10   10.80
   3 -10   0   -0.30    6.00
   3 -10   0    2.80    6.10
   2  -9   0   70.29   11.70
   2  -9   0   74.09   13.60
   1  -8   0   56.79   10.90
   1  -8   0   46.90    9.20
   0  -7   0   39.60    9.10
   0  -7   0   10.50    5.60
  -1  -6   0   75.49    9.60
  -1  -6   0   65.49   10.10
  -2  -5   0 1019.70   30.70
  -2  -5   0 1066.89   26.20
   2   5   0 1015.80   22.00
  -3  -4   0 1002.10   24.00
  -3  -4   0  951.60   29.30
   3   4   0  989.40   23.60
  -4  -3   0   64.99   10.40
  -4  -3   0   55.39    7.10
   4   3   0   51.79    7.50
   5   2   0  116.19   11.30
   6   1   0  193.58   12.90
   7   0   0    0.30    3.60
   8  -1   0  498.75   22.00
   9  -2   0   67.49   10.40
  10  -3   0   63.89   10.80
  10  -3   0   67.39   11.40
  11  -4   0    0.20    5.10
  11  -4   0    2.30    5.10
   2 -10   1    0.00    5.90
   2 -10   1   -5.50    5.20
   1  -9   1   44.70    9.20
   1  -9   1   37.70   11.00
   0  -8   1  419.46   20.30
   0  -8   1  393.96   23.80
  -1  -7   1  123.89   11.80
  -1  -7   1   99.29   12.90
  -2  -6   1   39.90    6.90
  -2  -6   1   26.50    8.20
   2   6  -1   39.20    6.20
  -3  -5   1   63.49    7.70
  -3  -5   1   45.30   10.60
   3   5  -1   50.79    7.30
  -4  -4   1  286.47   19.00
  -4  -4   1  296.67   12.50
   4   4  -1  288.07   14.50
  -5  -3   1  129.99   15.30
   5   3  -1  137.79   12.60
   6   2  -1  339.77   17.00
   7   1  -1   -0.40    3.40
   8   0  -1    8.40    5.00
   9  -1  -1   45.20    9.00
   9  -1  -1   56.39    9.00
  10  -2  -1  407.86   22.50
  10  -2  -1  409.36   21.70
  11  -3  -1    0.10    5.50
  11  -3  -1    1.30    5.30
   2 -11   2   57.19   14.50
   1 -10   2    6.40    7.90
   0  -9   2   86.89   14.30
  -1  -8   2  133.89   16.30
  -2  -7   2  486.05   25.10
  -3  -6   2   30.90   10.30
   3   6  -2   31.60    6.40
  -4  -5   2   58.49   12.20
   4   5  -2   70.19    9.30
  -5  -4   2    3.90    8.00
   5   4  -2   -0.10    3.70
   6   3  -2    5.50    4.90
   7   2  -2   54.69    9.50
   8   1  -2   92.79   12.40
   9   0  -2   59.99   10.70
  10  -1  -2  244.68   21.00
  11  -2  -2   64.29   11.90
   1 -11   3   34.00   11.80
   0 -10   3   37.90   11.20
  -1  -9   3   99.89   15.80
  -2  -8   3  339.37   22.50
  -3  -7   3  151.08   18.70
   3   7  -3  155.68   11.00
  -4  -6   3  161.08   19.00
   4   6  -3  184.68   15.20
  -5  -5   3    7.70    8.00
   5   5  -3    2.60    4.40
  -6  -4   3   87.59   14.40
   6   4  -3   72.69   10.70
   7   3  -3   61.69   10.30
   8   2  -3   95.69   12.80
   9   1  -3  144.89   15.90
  10   0  -3   29.50    8.80
  11  -1  -3   73.39   12.80
   0 -11   4    0.70    7.30
  -1 -10   4    9.60    8.90
  -2  -9   4   14.60    9.10
  -3  -8   4  564.04   31.40
  -4  -7   4  542.85   30.40
   4   7  -4  548.45   21.30
  -5  -6   4   70.69   14.80
   5   6  -4   81.89   11.40
  -6  -5   4   32.60   11.30
   6   5  -4   30.70    8.50
   7   4  -4   25.40    7.50
   8   3  -4    2.70    4.90
   9   2  -4  171.18   17.80
  10   1  -4   95.49   14.40
  -2 -10   5   66.49   15.70
  -3  -9   5   67.59   15.90
  -4  -8   5  115.19   19.00
  -5  -7   5  618.64   34.10
   5   7  -5  641.44   25.70
  -6  -6   5  144.49   19.80
   6   6  -5  154.78   16.30
   7   5  -5   10.10    6.00
   8   4  -5    5.60    6.30
   9   3  -5   44.50   11.00
  10   2  -5   58.79   11.50
  -3 -10   6   42.90   13.80
  -4  -9   6   57.29   15.20
  -5  -8   6   99.29   19.20
   5   8  -6   68.49   11.30
  -6  -7   6   44.10   14.40
   6   7  -6   29.70    8.40
  -7  -6   6   81.29   17.30
   7   6  -6   88.39   13.60
   8   5  -6    6.90    6.70
   9   4  -6   46.70   10.60
   1   2 -11   35.70    9.20
   0   3 -11   16.70    7.50
  -1   4 -11    0.30    4.60
  -2   5 -11   -1.00    5.00
   2   0 -10   29.90    9.00
   2   0 -10   16.20    6.80
   1   1 -10   88.29   12.80
   1   1 -10   96.69   13.30
   0   2 -10    9.20    5.70
   0   2 -10    9.60    5.80
  -1   3 -10   34.70    8.80
  -2   4 -10    5.20    5.20
  -3   5 -10   90.59   13.90
   4  -6  10  215.78   19.80
   3  -2  -9   68.39   12.80
   2  -1  -9   63.49   12.00
   2  -1  -9   48.10    9.30
   1   0  -9   17.40    6.00
   1   0  -9   13.20    6.80
   0   1  -9   -0.50    4.00
   0   1  -9    2.90    5.00
  -1   2  -9  247.98   16.60
  -1   2  -9  244.08   16.40
  -2   3  -9  107.99   13.30
  -3   4  -9  108.09   14.20
   4  -5   9   43.00    8.70
   5  -6   9  163.38   17.10
   6  -7   9  167.58   17.50
   3  -3  -8  154.68   18.60
   2  -2  -8  257.47   15.00
   2  -2  -8  234.28   20.70
   1  -1  -8    6.60    4.40
   1  -1  -8   -2.80    4.40
   0   0  -8   13.60    5.50
   0   0  -8    7.40    5.40
  -1   1  -8    9.00    5.10
  -1   1  -8   15.20    6.20
  -2   2  -8    9.00    5.10
  -2   2  -8    4.80    4.30
  -3   3  -8  423.36   21.30
   4  -4   8  165.98   15.60
   5  -5   8   40.40    8.60
   6  -6   8    8.20    5.10
   7  -7   8   23.70    7.30
   4  -5  -7    8.30    7.50
   3  -4  -7   25.70    9.00
   2  -3  -7  187.38   19.20
   1  -2  -7  263.57   17.90
   1  -2  -7  227.58   13.60
   0  -1  -7  108.69   11.50
   0  -1  -7   92.19   12.40
  -1   0  -7  149.88   14.70
  -1   0  -7  129.19   13.00
  -2   1  -7   95.79   11.90
  -2   1  -7  109.19   12.40
  -3   2  -7   22.90    7.00
   3  -2   7   20.10    5.80
   4  -3   7  131.79   13.80
   5  -4   7  276.57   16.90
   6  -5   7   59.19    9.90
   7  -6   7    7.20    4.50
   8  -7   7   -2.30    4.10
   4  -6  -6   39.30   11.00
   3  -5  -6   52.39   11.40
   2  -4  -6   15.60    7.90
   1  -3  -6   58.89    8.10
   1  -3  -6   38.00    9.00
   0  -2  -6  137.29   12.30
   0  -2  -6  141.19   14.80
  -1  -1  -6   74.29    9.50
  -1  -1  -6   67.39   10.00
  -2   0  -6    8.30    5.00
   2   0   6    3.00    4.00
  -3   1  -6  221.98   14.30
   3  -1   6  198.48   13.10
   4  -2   6    7.40    4.40
   5  -3   6  321.57   17.00
   6  -4   6  364.56   18.30
   7  -5   6   97.09   12.30
   8  -6   6    4.10    4.70
   9  -7   6    1.60    4.60
   4  -7  -5   32.00   11.00
   3  -6  -5  124.09   16.60
   2  -5  -5  126.99   15.60
   1  -4  -5   43.30    9.60
   0  -3  -5   -5.90    3.10
   0   3   5   -3.40    2.70
  -1  -2  -5    7.90    5.20
   1   2   5    6.20    3.60
  -2  -1  -5   50.59    8.60
   2   1   5   73.79    9.10
  -3   0  -5   67.99   10.00
   3   0   5   63.69    8.90
   4  -1   5   52.59    8.30
   5  -2   5   15.00    5.10
   6  -3   5  276.77   15.90
   8  -5   5  237.98   16.10
   9  -6   5    2.50    4.70
   3  -7  -4   72.39   13.60
   2  -6  -4  314.97   20.90
   1  -5  -4  448.46   22.80
   0  -4  -4   95.89   12.30
  -1  -3  -4   -0.90    3.70
   1   3   4   -0.40    2.40
  -2  -2  -4   -0.50    4.10
   2   2   4    2.50    3.10
  -3  -1  -4   92.29   11.10
   3   1   4   94.89    9.80
  -4   0  -4  372.86   17.40
   4   0   4  372.06   16.20
   5  -1   4  360.46   17.10
   6  -2   4  343.47   17.80
   7  -3   4  237.28   15.10
   8  -4   4  265.27   16.70
   9  -5   4  134.09   15.00
  10  -6   4    0.70    5.30
  10  -6   4   -0.80    4.50
   3  -8  -3   18.50    8.30
   2  -7  -3   47.20   10.70
   1  -6  -3  628.24   26.50
   0  -5  -3  481.55   19.80
   0  -5  -3  475.75   22.70
  -1  -4  -3  289.47   16.50
  -1  -4  -3  253.37   14.20
   1   4   3  275.97   11.90
  -2  -3  -3   15.00    5.60
  -2  -3  -3    9.40    5.40
  -3  -2  -3   28.90    7.00
  -3  -2  -3   15.50    5.40
   3   2   3   25.60    5.50
  -4  -1  -3  251.67   14.00
   4   1   3  225.58   13.00
   5   0   3  397.76   17.30
   6  -1   3  472.95   19.80
   7  -2   3  247.68   15.20
   8  -3   3   61.69    9.80
   9  -4   3   44.50    9.20
  10  -5   3   15.50    7.10
  10  -5   3   17.10    7.20
   3  -9  -2   47.70   11.30
   2  -8  -2   25.10    8.60
   2  -8  -2   28.90    8.80
   1  -7  -2   26.00    7.50
   1  -7  -2   17.00    6.80
   0  -6  -2  168.18   15.70
  -1  -5  -2 1285.27   32.50
  -1  -5  -2 1266.47   33.80
  -2  -4  -2  173.48   15.00
  -2  -4  -2  148.09   13.70
   2   4   2  154.58    9.50
  -3  -3  -2   41.50    7.50
   3   3   2   37.70    6.30
  -4  -2  -2   -0.10    3.60
   4   2   2    1.50    3.10
   5   1   2   19.00    5.20
   6   0   2  470.65   20.00
   7  -1   2  195.48   13.60
   8  -2   2   44.80    8.50
   9  -3   2   44.90    9.20
  10  -4   2    3.70    4.80
  11  -5   2   12.80    7.10
   2  -9  -1   99.99   15.60
   2  -9  -1  127.79   16.60
   1  -8  -1  194.58   18.80
   1  -8  -1  195.98   20.10
   0  -7  -1   24.00    7.80
   0  -7  -1   22.80    7.10
  -1  -6  -1   44.20    8.50
  -1  -6  -1   36.60    8.60
  -2  -5  -1   14.90    7.20
  -2  -5  -1   10.20    5.20
   2   5   1   16.70    4.60
  -3  -4  -1  371.16   16.70
  -3  -4  -1  396.86   19.70
  -4  -3  -1    9.70    4.30
  -4  -3  -1    0.60    6.60
   4   3   1    7.20    3.90
   5   2   1  571.44   20.90
   6   1   1   49.10    8.40
   7   0   1  101.29   11.70
   8  -1   1  534.85   23.10
   9  -2   1  105.39   13.30
  10  -3   1   12.60    5.80
  10  -3   1   10.20    6.40
  11  -4   1   13.50    7.10
  11  -4   1   16.00    7.00
   2 -10   0   67.49   14.30
   2 -10   0   26.40    9.00
   1  -9   0  103.39   16.40
   1  -9   0   95.29   13.90
   0  -8   0  133.49   16.30
   0  -8   0  126.99   14.10
  -1  -7   0  148.89   16.00
  -1  -7   0  178.48   16.00
  -2  -6   0   39.80    7.60
  -2  -6   0   35.40    9.30
  -3  -5   0    2.90    3.90
  -3  -5   0   -1.80    6.40
   3   5   0    2.80    3.30
  -4  -4   0    7.40    4.30
  -4  -4   0    3.10    7.10
   4   4   0    7.10    4.20
  -5  -3   0   51.39   10.80
   5   3   0   60.19    8.70
   6   2   0   58.49    9.00
   7   1   0   62.99    9.80
   8   0   0  510.85   23.10
   9  -1   0  432.66   22.00
  10  -2   0  173.08   17.00
  10  -2   0  161.48   17.10
  11  -3   0   13.00    6.50
  11  -3   0   12.90    6.60
   1 -10   1    5.20    5.70
   1 -10   1   -3.00    6.70
   0  -9   1  296.97   18.10
   0  -9   1  284.27   21.50
  -1  -8   1  359.26   18.80
  -1  -8   1  272.87   19.90
  -2  -7   1   19.70    6.00
  -2  -7   1   24.10    8.70
  -3  -6   1   23.50    9.70
  -3  -6   1   59.39    8.50
   3   6  -1   40.90    6.90
  -4  -5   1   25.70    5.70
  -4  -5   1   44.90   11.20
   4   5  -1   38.40    7.40
  -5  -4   1   46.20   11.10
   5   4  -1   28.10    6.90
   6   3  -1  165.38   15.10
   7   2  -1  103.79   12.40
   8   1  -1  363.66   19.90
   9   0  -1   30.90    7.90
  10  -1  -1  228.98   16.10
  10  -1  -1  195.58   19.00
  11  -2  -1  196.88   20.00
  11  -2  -1  167.48   18.20
   0 -10   2   -3.00    6.00
  -1  -9   2  186.38   20.70
  -2  -8   2  592.14   29.90
  -3  -7   2  257.47   20.40
  -4  -6   2   -1.20    7.00
   4   6  -2    1.90    4.40
  -5  -5   2   31.20   10.20
   5   5  -2   19.20    6.30
  -6  -4   2   21.30    9.80
   6   4  -2   56.59    9.90
   7   3  -2  209.48   18.20
   8   2  -2  234.68   16.70
   9   1  -2   27.70    8.20
  10   0  -2  130.79   16.00
  11  -1  -2   14.80    7.30
  -1 -10   3   77.79   15.20
  -2  -9   3  144.79   19.50
  -3  -8   3  402.36   27.10
  -5  -6   3    4.70    8.10
   5   6  -3   -5.10    3.50
   6   5  -3   21.70    7.20
   7   4  -3   29.10    8.20
   8   3  -3  143.19   16.10
   9   2  -3  190.88   19.00
  10   1  -3   66.59   12.30
  11   0  -3    3.10    5.20
  -2 -10   4   36.80   13.30
  -3  -9   4   51.79   14.30
  -4  -8   4   85.59   16.40
   5   7  -4   56.49   10.10
  -6  -6   4   11.60    9.70
   6   6  -4   -2.90    4.10
  -7  -5   4   52.29   13.50
   7   5  -4   96.89   13.90
   8   4  -4    5.10    5.60
   9   3  -4  149.79   17.60
  10   2  -4  199.68   20.80
  -3 -10   5   88.29   18.50
  -4  -9   5   -0.70    9.70
  -5  -8   5   -0.70    9.70
  -6  -7   5   15.70   11.40
   6   7  -5   -7.40    4.20
  -7  -6   5    0.40    9.80
   7   6  -5    4.10    6.00
   8   5  -5   -0.10    5.20
   9   4  -5    1.00    6.50
  -6  -8   6    5.20   10.80
   6   8  -6    0.40    5.00
  -7  -7   6   15.00   11.80
   7   7  -6   12.60    6.60
   8   6  -6   18.20    7.90
  -1   3 -11   72.89   12.20
  -2   4 -11   54.09   11.00
   1   0 -10    1.20    4.80
   1   0 -10    2.10    5.80
   0   1 -10   17.20    7.20
   0   1 -10   10.40    5.80
  -1   2 -10   91.69   13.00
  -1   2 -10   87.79   13.10
  -2   3 -10  118.59   15.10
  -3   4 -10   37.00    9.70
   4  -5  10    9.90    5.60
   5  -6  10    7.30    6.00
   2  -2  -9   77.29   13.90
   1  -1  -9    3.60    4.60
   1  -1  -9    4.10    5.80
   0   0  -9  167.28   15.90
   0   0  -9  185.38   18.40
  -1   1  -9   -0.60    4.80
  -1   1  -9    2.30    4.30
  -2   2  -9  198.58   18.40
  -2   2  -9  190.08   17.90
   4  -4   9   27.10    7.50
   5  -5   9   -0.30    4.20
   6  -6   9    5.60    4.80
   2  -3  -8   21.70    8.40
   1  -2  -8   29.50    9.40
   1  -2  -8   16.20    5.80
   0  -1  -8    6.30    6.10
   0  -1  -8   11.60    5.20
  -1   0  -8   58.09    9.80
  -1   0  -8   56.49   10.20
  -2   1  -8   52.49    9.90
  -2   1  -8   30.20    7.70
  -3   2  -8  127.19   14.70
   3  -2   8  126.09   14.00
   4  -3   8  436.66   22.10
   5  -4   8  200.28   18.30
   6  -5   8   -1.20    4.00
   7  -6   8   -0.90    3.60
   3  -5  -7   15.10    8.70
   2  -4  -7    3.80    6.20
   1  -3  -7    9.60    6.70
   0  -2  -7   13.60    6.90
  -1  -1  -7   32.20    8.00
  -2   0  -7   68.19   11.00
   2   0   7   56.99    9.10
  -3   1  -7   23.30    7.30
   3  -1   7   30.20    7.40
   4  -2   7  180.48   16.70
   5  -3   7  539.95   23.40
   6  -4   7  260.27   16.90
   7  -5   7   70.09   11.00
   8  -6   7   18.60    6.80
   3  -6  -6  194.98   21.90
   2  -5  -6   56.69   12.30
   1  -4  -6    5.50    6.20
   0  -3  -6   16.80    7.20
  -1  -2  -6   63.79   10.90
   1   2   6   55.09    8.40
  -2  -1  -6  183.48   16.80
   2   1   6  162.98   14.20
  -3   0  -6  425.16   21.20
   3   0   6  380.26   18.50
  -4   1  -6  290.77   17.70
   4  -1   6  310.27   16.90
   5  -2   6  160.58   15.10
   6  -3   6  259.47   16.00
   7  -4   6  232.38   16.50
   8  -5   6    0.50    4.00
   9  -6   6   10.30    5.70
   3  -7  -5  158.88   19.70
   2  -6  -5  394.96   24.80
   1  -5  -5  125.39   15.90
   0  -4  -5    5.70    5.70
  -1  -3  -5   44.30    9.10
   1   3   5   50.09    7.40
  -2  -2  -5   89.79   11.80
   2   2   5  103.29   10.50
  -3  -1  -5  335.17   18.70
   3   1   5  356.06   16.60
  -4   0  -5  204.38   14.30
   4   0   5  253.17   14.40
   5  -1   5  355.76   17.70
   6  -2   5  123.19   13.30
   7  -3   5   22.60    6.50
   8  -4   5   60.69   10.10
   9  -5   5   11.10    6.00
   2  -7  -4   53.89   11.90
   1  -6  -4  185.58   19.40
   0  -5  -4  331.17   20.00
  -1  -4  -4    6.70    5.30
  -2  -3  -4   65.79   10.60
   2   3   4   61.39    8.10
  -3  -2  -4   24.90    6.70
   3   2   4   27.50    6.00
  -4  -1  -4  229.28   15.10
   4   1   4  229.38   14.00
   5   0   4  584.54   22.70
   6  -1   4   17.80    5.80
   7  -2   4   40.80    8.10
   8  -3   4   23.00    6.80
   9  -4   4   -2.90    3.60
  10  -5   4   39.60    9.70
   2  -8  -3    4.70    6.40
   1  -7  -3   11.50    6.50
   0  -6  -3   68.99   11.80
  -1  -5  -3    0.00    4.40
  -2  -4  -3   67.29   10.70
   2   4   3   79.89    8.50
  -3  -3  -3  134.09   13.80
   3   3   3  145.39   10.20
  -4  -2  -3   84.29   11.20
   4   2   3   64.99    8.70
  -5  -1  -3  164.18   14.70
   5   1   3  139.79   12.80
   6   0   3  507.65   20.90
   7  -1   3  491.65   22.10
   8  -2   3   16.90    6.30
   9  -3   3   -2.10    3.50
  10  -4   3   31.30    9.00
   2  -9  -2   50.69   11.60
   1  -8  -2  104.19   14.40
   0  -7  -2   20.10    7.40
   0  -7  -2   28.50    8.30
  -1  -6  -2   11.20    5.80
  -1  -6  -2   11.20    6.40
  -2  -5  -2   81.89   11.00
  -2  -5  -2  103.69   13.20
  -3  -4  -2  116.59   13.70
  -3  -4  -2   84.39   10.70
  -4  -3  -2   75.59   11.10
  -4  -3  -2   85.09   10.90
   4   3   2   70.49    9.00
  -5  -2  -2   68.39    9.70
   5   2   2   56.79    8.90
   6   1   2   77.69   10.20
   7   0   2  852.81   28.60
   8  -1   2  332.87   19.40
   9  -2   2   48.50    9.40
  10  -3   2  106.49   14.40
  11  -4   2    9.60    6.60
  11  -4   2    5.70    6.10
   1  -9  -1  267.07   19.70
   1  -9  -1  271.77   21.70
   0  -8  -1   67.09   11.30
   0  -8  -1   69.59   12.60
  -1  -7  -1   14.70    6.60
  -1  -7  -1   24.90    8.40
  -2  -6  -1   15.00    5.90
  -2  -6  -1   16.10    8.10
  -3  -5  -1    3.90    4.10
  -3  -5  -1    4.30    6.80
   3   5   1    0.10    3.50
  -4  -4  -1  560.24   24.80
  -4  -4  -1  605.54   22.10
   4   4   1  604.74   21.00
  -5  -3  -1   13.80    7.50
  -5  -3  -1   17.40    5.30
   5   3   1   18.10    5.80
   6   2   1  204.58   14.00
   7   1   1  451.15   21.20
   8   0   1  127.19   14.00
   9  -1   1  323.77   20.00
  10  -2   1    7.80    6.20
  11  -3   1   51.29   11.10
  11  -3   1   38.10    9.70
   1 -10   0  142.69   19.20
   1 -10   0  138.29   16.70
   0  -9   0  286.97   18.80
   0  -9   0  216.18   21.50
  -1  -8   0  236.98   19.00
  -1  -8   0  256.17   17.50
  -2  -7   0   31.30    7.70
  -2  -7   0   51.59   11.90
  -3  -6   0   13.40    9.10
  -3  -6   0   -7.00    3.10
  -4  -5   0    5.40    4.40
  -4  -5   0    1.20    7.10
   4   5   0   10.00    4.40
  -5  -4   0  131.19   11.90
  -5  -4   0  121.39   15.20
   5   4   0  122.89   12.50
   6   3   0  784.52   27.10
   7   2   0   66.89   10.60
   8   1   0   19.80    7.00
   9   0   0  140.39   15.30
  10  -1   0   15.90    7.20
  11  -2   0   31.10    9.30
  11  -2   0   49.00   10.80
   0 -10   1  102.09   16.90
  -1  -9   1  289.37   22.30
  -2  -8   1  245.28   23.80
  -3  -7   1    1.10    8.30
  -4  -6   1    5.20    8.30
   4   6  -1    6.80    4.40
  -5  -5   1   -5.10    7.10
   5   5  -1    7.90    4.90
  -6  -4   1  113.39   16.30
   6   4  -1   57.29    9.90
   7   3  -1  254.17   16.80
   8   2  -1  277.87   18.20
   9   1  -1    5.60    5.60
  10   0  -1   -1.40    5.20
  11  -1  -1   43.80   10.90
  -1 -10   2   -3.10    7.80
  -2  -9   2   39.80   12.70
  -3  -8   2   73.79   15.90
  -4  -7   2   -6.00    7.40
  -5  -6   2  115.89   17.90
   5   6  -2   89.99   11.80
  -6  -5   2    3.70    8.60
   6   5  -2    3.00    4.70
   7   4  -2  173.38   17.30
   8   3  -2  310.87   20.10
   9   2  -2  263.37   22.50
  10   1  -2   47.50   11.00
  11   0  -2    1.10    5.70
  -2 -10   3   -2.60    9.30
  -3  -9   3    9.90   10.80
  -4  -8   3    5.10    9.70
  -5  -7   3   16.20   10.10
   5   7  -3   45.40    8.90
  -6  -6   3   -1.40    8.60
   6   6  -3    8.30    5.90
  -7  -5   3    7.50    7.60
   7   5  -3   -2.30    4.80
   8   4  -3  113.19   15.10
   9   3  -3  396.26   24.30
  10   2  -3  195.18   20.50
  -3 -10   4   -6.10    9.10
  -4  -9   4   10.40   10.90
  -5  -8   4    0.60   10.00
  -6  -7   4   28.70   12.90
   6   7  -4   33.70    8.70
  -7  -6   4  119.09   20.40
   7   6  -4  141.99   17.40
   8   5  -4    3.30    6.30
   9   4  -4    5.80    7.10
  10   3  -4  148.49   18.70
  -6  -8   5    6.80   10.80
  -7  -7   5   68.99   17.70
   7   7  -5   59.09   11.50
   8   6  -5  121.29   16.70
   0   0 -10    6.40    6.80
   0   0 -10   18.40    7.70
  -1   1 -10   60.09   11.50
  -1   1 -10   61.49   12.20
  -2   2 -10  181.98   18.90
  -2   2 -10  173.88   18.30
   3  -3  10  201.58   19.70
   4  -4  10   23.30    8.30
   1  -2  -9   31.00   10.20
   0  -1  -9   49.30   11.00
   0  -1  -9   48.60    9.60
  -1   0  -9   21.60    8.00
  -1   0  -9   27.70    7.70
  -2   1  -9   58.99   11.40
   2  -1   9   71.29   11.50
   3  -2   9  467.25   23.60
   4  -3   9  232.48   20.90
   5  -4   9   16.00    6.30
   6  -5   9    5.90    5.50
   1  -3  -8   30.50    9.70
   0  -2  -8   48.00   10.80
  -1  -1  -8  143.49   16.60
   1   1   8  171.28   15.90
  -2   0  -8  217.18   19.50
   2   0   8  217.38   18.40
  -3   1  -8  143.59   16.10
   3  -1   8  161.68   16.60
   4  -2   8   96.19   13.00
   5  -3   8  250.47   17.70
   6  -4   8   19.20    6.50
   7  -5   8   63.69   11.00
   2  -5  -7    9.60    7.10
   1  -4  -7    1.70    6.20
   0  -3  -7    1.80    5.80
  -1  -2  -7  221.98   20.00
   1   2   7  219.98   14.50
  -2  -1  -7  166.18   16.70
   2   1   7  170.38   15.70
  -3   0  -7  107.59   14.10
   3   0   7  119.09   13.70
  -4   1  -7  146.19   16.10
   4  -1   7  139.79   14.70
   5  -2   7   30.70    7.50
   6  -3   7   -0.10    3.40
   7  -4   7   18.20    6.70
   8  -5   7    1.60    4.20
   2  -6  -6   74.79   14.50
   1  -5  -6    6.40    7.00
   0  -4  -6   47.30   10.50
  -1  -3  -6    1.20    5.40
  -2  -2  -6    7.30    5.70
   2   2   6    5.60    4.00
  -3  -1  -6  404.36   21.90
   3   1   6  378.76   18.60
  -4   0  -6  141.19   15.20
   4   0   6  125.09   13.50
   5  -1   6    4.00    4.10
   6  -2   6   36.00    8.20
   7  -3   6   11.30    5.50
   8  -4   6   12.20    6.30
   9  -5   6   30.50    8.30
   2  -7  -5   47.00   12.20
   1  -6  -5   19.50    8.10
   0  -5  -5    7.10    5.60
  -1  -4  -5   -5.30    3.30
  -2  -3  -5   51.79   10.20
   2   3   5   59.69    8.40
  -3  -2  -5  131.29   14.70
   3   2   5   97.29   10.90
  -4  -1  -5  306.47   18.50
   4   1   5  308.87   16.70
   6  -1   5   65.49   10.40
   7  -2   5   54.09    9.70
   8  -3   5   27.80    7.50
   9  -4   5   44.00    9.50
   1  -7  -4  127.39   17.00
   0  -6  -4   24.90    8.20
  -1  -5  -4   62.79   10.90
  -2  -4  -4   27.60    8.20
  -3  -3  -4   74.89   11.50
   3   3   4   75.59    9.70
  -4  -2  -4  113.99   13.70
   4   2   4  113.59   12.10
  -5  -1  -4  691.83   26.60
   5   1   4  681.23   24.80
   6   0   4  506.85   22.30
   7  -1   4   36.30    7.80
   8  -2   4   12.00    5.60
   9  -3   4   89.79   13.00
  10  -4   4   43.50   10.30
   1  -8  -3    6.80    6.40
   0  -7  -3   27.00    8.80
  -1  -6  -3   41.50    9.30
  -2  -5  -3  111.19   14.00
  -4  -3  -3   14.80    5.90
   4   3   3   15.90    5.40
  -5  -2  -3  275.07   16.80
   5   2   3  240.58   15.10
   6   1   3  260.07   16.30
   7   0   3  320.37   18.60
   8  -1   3   89.19   12.20
   9  -2   3   79.29   12.20
  10  -3   3   61.89   11.40
   1  -9  -2   99.29   15.60
   0  -8  -2   34.30   10.10
  -1  -7  -2    2.90    5.00
  -2  -6  -2   63.39   10.90
  -3  -5  -2   21.20    6.80
  -4  -4  -2  228.18   16.50
  -4  -4  -2  276.17   16.50
   4   4   2  273.27   15.40
  -5  -3  -2  531.35   22.10
   5   3   2  510.75   21.30
   6   2   2    9.70    5.40
   7   1   2   66.09   10.70
   8   0   2   76.99   12.40
   9  -1   2   39.30    9.10
  10  -2   2    3.30    4.70
  11  -3   2   21.20    8.60
   0  -9  -1  248.78   22.20
  -1  -8  -1    5.50    5.70
  -1  -8  -1    9.10    7.70
  -2  -7  -1   39.70    8.70
  -2  -7  -1   25.00    9.70
  -3  -6  -1    1.20    7.40
  -3  -6  -1    0.00    4.40
  -4  -5  -1  196.48   19.70
  -4  -5  -1  147.29   14.20
  -5  -4  -1  247.98   19.30
  -5  -4  -1  238.78   15.00
   5   4   1  236.58   15.30
   6   3   1  247.88   16.10
   7   2   1  154.98   15.90
   8   1   1    4.30    4.80
   9   0   1   24.60    7.50
  10  -1   1   49.99   10.60
  11  -2   1   48.50   10.90
  -1  -9   0   49.90   13.30
  -2  -8   0   18.20    7.00
  -2  -8   0   14.10   10.30
  -3  -7   0   71.39   14.80
  -3  -7   0   79.59   11.30
  -4  -6   0   64.69   13.50
  -4  -6   0   61.89    9.80
  -5  -5   0  135.59   13.10
  -5  -5   0  149.79   18.10
   5   5   0  134.29   13.80
  -6  -4   0  583.44   28.60
   6   4   0  600.54   24.40
   7   3   0  395.76   21.00
   8   2   0   93.79   13.10
   9   1   0   11.30    6.60
  10   0   0    1.90    5.30
  11  -1   0   36.10   10.30
  -1 -10   1   -4.00    7.70
  -2  -9   1   -2.80    8.30
  -3  -8   1   17.80   11.50
  -4  -7   1   20.90   11.20
  -5  -6   1   21.60   10.50
   5   6  -1   16.80    6.60
  -6  -5   1   60.59   14.00
   6   5  -1   74.29   11.80
   7   4  -1  507.55   24.40
   8   3  -1  521.25   25.70
   9   2  -1   63.89   12.20
  10   1  -1   16.50    7.60
  11   0  -1   50.39   12.10
  -2 -10   2  -11.30    8.00
  -3  -9   2   -8.10    9.30
  -4  -8   2    3.50    8.80
  -5  -7   2  106.09   18.30
  -6  -6   2  110.49   18.10
   6   6  -2   85.89   12.80
  -7  -5   2    4.30    8.40
   7   5  -2   -6.50    4.20
   8   4  -2  121.19   15.80
   9   3  -2  306.27   21.40
  10   2  -2   55.59   12.30
  -4  -9   3  -11.70    9.40
  -5  -8   3    9.00   10.50
  -6  -7   3   95.19   18.90
   6   7  -3  121.19   15.20
  -7  -6   3  101.19   18.90
   7   6  -3  116.19   15.50
   8   5  -3   46.60   11.10
   9   4  -3    1.10    6.40
  10   3  -3   28.80   10.80
  -6  -8   4   91.39   18.90
  -7  -7   4   80.59   18.10
   7   7  -4   59.49   12.10
   8   6  -4  178.48   20.00
  -2   1 -10   97.19   14.90
   2  -1  10   76.59   12.70
   3  -2  10   35.90    9.80
   4  -3  10  115.99   15.90
   0  -2  -9  150.58   18.60
  -1  -1  -9   82.49   13.80
   1   1   9   87.29   12.70
  -2   0  -9   48.10   11.00
   2   0   9   27.10    8.50
  -3   1  -9   39.40    9.80
   3  -1   9   23.90    7.70
   4  -2   9   13.70    7.00
   5  -3   9   -1.90    5.00
   6  -4   9    5.70    5.50
   0  -3  -8    6.20    7.10
  -1  -2  -8   40.30   10.50
  -2  -1  -8  134.79   16.70
   2   1   8  151.58   15.90
  -3   0  -8    9.20    6.10
   3   0   8   14.70    6.70
  -4   1  -8   -2.20    4.70
   4  -1   8   -4.10    4.10
   5  -2   8    1.10    5.10
   6  -3   8   36.90    9.10
   7  -4   8    5.80    5.10
   0  -4  -7   28.50    9.40
  -1  -3  -7    8.90    6.30
  -2  -2  -7  315.97   21.10
   2   2   7  340.87   18.30
  -3  -1  -7  162.38   17.70
   3   1   7  148.79   15.10
  -4   0  -7   58.29   10.90
   4   0   7   71.69   11.00
   5  -1   7    5.10    5.00
   6  -2   7   -1.20    3.80
   7  -3   7   30.80    8.40
   8  -4   7   58.29   11.30
   0  -5  -6    0.70    4.70
  -1  -4  -6   27.50    8.90
  -2  -3  -6   71.69   12.10
   2   3   6   72.89   10.00
  -3  -2  -6  138.69   16.00
   3   2   6  204.28   14.00
  -4  -1  -6  695.43   29.50
   4   1   6  690.43   26.10
  -5   0  -6   48.90   10.40
   5   0   6   54.99    9.80
   6  -1   6   42.90    9.60
   7  -2   6   45.10    9.80
   8  -3   6    1.40    4.80
   9  -4   6   67.89   12.10
   0  -6  -5   -5.40    4.60
  -1  -5  -5  195.48   19.90
  -2  -4  -5  130.89   16.20
  -3  -3  -5  125.29   15.70
   3   3   5  110.19   12.30
  -4  -2  -5  198.28   19.10
   4   2   5  212.68   15.00
  -5  -1  -5  122.39   14.80
   5   1   5  115.69   13.50
   7  -1   5   24.60    7.30
   8  -2   5  188.38   17.90
   9  -3   5    9.00    6.30
   0  -7  -4    2.50    5.90
  -1  -6  -4  155.28   18.00
  -2  -5  -4   66.49   11.70
  -3  -4  -4  193.58   18.80
  -4  -3  -4   71.29   11.40
   4   3   4   91.69   11.00
  -5  -2  -4   35.80    8.70
   5   2   4   31.80    7.10
   6   1   4   98.29   12.30
   7   0   4   21.80    6.80
   8  -1   4   31.00    8.30
   9  -2   4    2.90    4.30
  10  -3   4    0.60    5.40
   0  -8  -3   10.00    7.00
  -1  -7  -3    8.70    6.40
  -2  -6  -3   12.10    6.60
  -3  -5  -3  290.57   18.70
  -4  -4  -3  243.38   16.90
   4   4   3  245.88   14.90
  -5  -3  -3   51.49    9.60
   5   3   3   45.30    8.50
   6   2   3   -4.00    3.30
   7   1   3   33.30    8.20
   8   0   3   54.99   10.50
   9  -1   3   64.39   11.50
  10  -2   3   40.40   10.10
  -1  -8  -2   11.00    6.60
  -2  -7  -2   27.80    8.20
  -3  -6  -2   42.90    9.60
  -4  -5  -2  349.67   19.90
  -5  -4  -2  558.64   24.60
   5   4   2  564.44   23.10
   6   3   2  178.58   16.90
   7   2   2    5.10    5.20
   8   1   2   40.30    9.80
   9   0   2   37.40    9.80
  10  -1   2  102.39   15.10
  -1  -9  -1    4.10    5.70
  -2  -8  -1   19.70    7.60
  -3  -7  -1   -3.50    4.30
  -3  -7  -1   -2.80    8.70
  -4  -6  -1   22.40    7.40
  -4  -6  -1   29.00   10.70
  -5  -5  -1  409.36   21.00
  -5  -5  -1  378.06   23.50
   5   5   1  394.86   20.00
   6   4   1  572.94   24.70
   7   3   1  151.48   16.20
   8   2   1   10.40    6.30
   9   1   1   45.20   10.20
  10   0   1   23.80    8.30
  -2  -9   0   21.30   12.40
  -3  -8   0   28.80   12.40
  -4  -7   0   76.59   15.80
  -5  -6   0   26.90   11.40
  -6  -5   0   50.59   12.90
   6   5   0   44.70    9.30
   7   4   0  251.07   21.00
   8   3   0  122.39   15.50
   9   2   0    6.80    6.50
  10   1   0   91.89   15.10
  -3  -9   1   24.20   13.20
  -4  -8   1  141.59   21.20
  -5  -7   1  127.39   20.10
  -6  -6   1   24.70   12.10
   6   6  -1   26.40    8.10
   7   5  -1    8.70    7.00
   8   4  -1   13.10    7.10
   9   3  -1   86.39   14.00
  10   2  -1   13.10    8.20
  -4  -9   2   21.90   12.80
  -5  -8   2  138.09   22.10
  -6  -7   2  226.68   26.30
  -7  -6   2  124.09   20.40
   7   6  -2  139.59   17.10
   8   5  -2   10.10    6.50
   9   4  -2   10.90    7.90
  -7  -7   3  478.55   33.70
   7   7  -3  488.05   26.20
   8   6  -3  100.89   15.20
  -2  -1  -9   12.10    8.00
   2   1   9   11.70    6.70
  -3   0  -9    7.30    6.60
   3   0   9    3.90    5.30
   4  -1   9   -2.20    5.20
   5  -2   9    5.50    6.40
  -1  -3  -8   79.39   14.60
  -2  -2  -8  208.88   21.40
  -3  -1  -8  151.78   18.60
   3   1   8  171.68   17.40
  -4   0  -8   23.80    8.60
   4   0   8   17.60    7.20
   5  -1   8   68.29   11.80
   6  -2   8    1.90    4.80
   7  -3   8   63.19   12.40
  -1  -4  -7   30.20   10.20
  -2  -3  -7  123.19   16.90
  -3  -2  -7  124.69   16.80
   3   2   7  130.09   14.10
  -4  -1  -7   38.10   10.30
   4   1   7   64.69   11.00
   5   0   7    0.10    4.50
   6  -1   7  138.39   16.20
   7  -2   7   15.60    7.60
   8  -3   7   82.79   13.40
  -1  -5  -6   88.39   14.80
  -2  -4  -6   63.79   12.20
  -3  -3  -6   -2.00    5.00
   3   3   6    5.50    5.00
  -4  -2  -6   37.20   10.00
   4   2   6   52.69    9.90
  -5  -1  -6   66.29   12.20
   5   1   6   84.29   12.40
   6   0   6   12.50    6.20
   7  -1   6    5.30    5.20
   8  -2   6   -3.50    4.90
  -1  -6  -5   52.79   11.80
  -2  -5  -5  165.58   18.90
  -3  -4  -5  100.69   14.70
  -4  -3  -5    0.10    5.00
   4   3   5    1.40    4.60
  -5  -2  -5   -2.20    4.30
   5   2   5    6.40    4.90
   6   1   5   76.89   11.70
   7   0   5   79.09   12.30
   8  -1   5  103.89   14.60
   9  -2   5   13.00    6.60
  -1  -7  -4   25.50    9.40
  -2  -6  -4  212.78   21.30
  -3  -5  -4  353.66   22.40
  -4  -4  -4   94.69   13.80
  -5  -3  -4   20.80    7.70
   5   3   4   18.90    6.60
   6   2   4    7.00    5.50
   7   1   4   -0.90    4.40
   8   0   4  124.79   15.90
   9  -1   4   52.19   11.10
  -2  -7  -3   -0.50    5.40
  -3  -6  -3  227.48   20.50
  -4  -5  -3  447.26   24.00
  -5  -4  -3  265.97   18.80
   5   4   3  272.87   17.50
  -6  -3  -3   19.00    7.10
   6   3   3   23.50    7.40
   7   2   3   74.19   12.00
   8   1   3   12.10    6.90
   9   0   3   16.90    7.90
  10  -1   3  178.08   19.40
  -2  -8  -2   46.40   11.00
  -3  -7  -2   33.80    9.00
  -4  -6  -2   24.10    7.50
  -5  -5  -2  208.48   19.50
  -6  -4  -2  174.48   17.20
   6   4   2  144.89   15.80
   7   3   2   17.80    6.90
   8   2   2  164.18   17.90
   9   1   2   80.29   13.50
  10   0   2   86.59   14.00
  -6  -5  -1   16.40    9.00
   6   5   1   14.20    6.60
   7   4   1   92.39   13.50
   8   3   1   32.90    9.20
   9   2   1   -2.40    5.40
  10   1   1    3.10    6.20
  -4  -8   0  108.99   19.20
  -5  -7   0  223.28   24.80
  -6  -6   0    9.40   11.00
   7   5   0   24.50    8.50
   8   4   0   34.10    9.70
   9   3   0   58.79   12.10
  10   2   0   31.10   10.40
  -5  -8   1  374.36   29.30
  -6  -7   1   64.39   16.00
  -7  -6   1   66.89   16.20
   7   6  -1   52.59   11.50
   8   5  -1    2.20    6.20
   9   4  -1   26.00   10.00
  -4  -1  -8   40.40   10.90
   4   1   8   18.60    7.50
   5   0   8    2.20    5.40
   6  -1   8   16.20    8.00
  -3  -3  -7    2.10    5.60
  -4  -2  -7   55.89   12.50
   4   2   7   59.99   11.00
  -5  -1  -7   37.80   10.30
   5   1   7   27.80    8.50
   6   0   7   74.99   12.70
   7  -1   7   67.39   12.60
  -3  -4  -6    2.10    6.40
  -4  -3  -6    6.60    6.40
  -5  -2  -6   -6.90    4.30
   5   2   6    4.40    5.60
   6   1   6  118.39   15.10
   7   0   6   55.79   11.40
   8  -1   6   35.00    9.60
  -3  -5  -5  171.98   20.00
  -4  -4  -5   26.60    9.00
  -5  -3  -5  132.59   16.90
   5   3   5  133.59   15.50
   6   2   5   24.40    8.10
   7   1   5   15.20    7.00
   8   0   5  161.48   18.50
  -3  -6  -4   77.19   13.70
  -4  -5  -4  127.59   17.00
  -5  -4  -4    1.20    5.80
  -6  -3  -4    8.60    6.40
   6   3   4   11.30    6.20
   7   2   4   92.29   13.70
   8   1   4    6.70    6.30
   9   0   4  187.68   20.30
  -4  -6  -3   -5.10    5.30
  -5  -5  -3   78.79   13.70
  -6  -4  -3   68.39   12.90
   6   4   3   66.99   11.20
   7   3   3    5.30    5.90
   8   2   3   -2.80    5.10
   9   1   3    3.70    6.80
  -4  -7  -2   91.09   14.30
  -5  -6  -2    6.40    6.20
  -6  -5  -2    0.60    4.80
   7   4   2  110.69   15.00
   8   3   2   75.79   13.70
   9   2   2    2.30    6.40
   7   5   1   13.40    7.20
   8   4   1   -0.30    5.70
   9   3   1  215.98   21.50
  -6  -3  -5   29.00    9.40
   6   3   5   24.50    8.20
   7   2   5    3.00    5.90
  -6  -4  -4  165.48   19.60
   7   3   4   21.10    8.70

_computing_structure_solution     'SHELXT 2014/4 (Sheldrick, 2014)'
;
loop_
_space_group_symop_operation_xyz
'x, y, z'
'-x, -y, -z'
loop_
_atom_site_label
_atom_site_type_symbol
_atom_site_fract_x
_atom_site_fract_y
_atom_site_fract_z
_atom_site_U_iso_or_equiv
_atom_site_adp_type
_atom_site_occupancy
_atom_site_site_symmetry_order
_atom_site_calc_flag
_atom_site_refinement_flags_posn
_atom_site_refinement_flags_adp
_atom_site_refinement_flags_occupancy
_atom_site_disorder_assembly
_atom_site_disorder_group
C1 C 0.2296(4) 0.3660(4) 0.5637(4) 0.0185(6) Uani 1 1 d . . . . .
C2 C 0.2905(4) 0.5305(4) 0.5563(4) 0.0204(7) Uani 1 1 d . . . . .
C3 C 0.3197(4) 0.3216(4) 0.6662(4) 0.0175(6) Uani 1 1 d . . . . .
C4 C 0.4793(4) 0.4371(4) 0.7693(4) 0.0194(7) Uani 1 1 d . . . . .
C5 C 1.0133(4) 1.4167(4) 0.9267(4) 0.0187(7) Uani 1 1 d . . . . .
H5A H 1.006242 1.425756 0.818658 0.022 Uiso 1 1 calc R . . . .
H5B H 1.121933 1.408168 0.957223 0.022 Uiso 1 1 calc R . . . .
C6 C 0.7543(4) 1.1766(4) 0.7662(4) 0.0178(6) Uani 1 1 d . . . . .
H6 H 0.744419 1.223846 0.689105 0.021 Uiso 1 1 calc R . . . .
C7 C 0.6339(4) 1.0267(4) 0.7451(4) 0.0225(7) Uani 1 1 d . . . . .
H7 H 0.541736 0.973156 0.653955 0.027 Uiso 1 1 calc R . . . .
C8 C 0.6501(5) 0.9569(5) 0.8581(5) 0.0303(8) Uani 1 1 d . . . . .
H8 H 0.569174 0.856050 0.843959 0.036 Uiso 1 1 calc R . . . .
C9 C 0.7887(5) 1.0377(5) 0.9949(5) 0.0359(10) Uani 1 1 d . . . . .
H9 H 0.801802 0.991621 1.072584 0.043 Uiso 1 1 calc R . . . .
C10 C 0.9051(5) 1.1868(5) 1.0116(5) 0.0302(8) Uani 1 1 d . . . . .
H10 H 0.998230 1.242254 1.101628 0.036 Uiso 1 1 calc R . . . .
N1 N 0.3333(4) 0.6627(4) 0.5477(4) 0.0259(6) Uani 1 1 d . . . . .
N2 N 0.6084(4) 0.5299(4) 0.8526(4) 0.0288(7) Uani 1 1 d . . . . .
N3 N 0.8864(3) 1.2536(4) 0.9002(3) 0.0179(6) Uani 1 1 d . . . . .
Ni1 Ni 0.000000 0.000000 0.500000 0.01449(16) Uani 1 2 d S T P . .
S1 S 0.03407(10) 0.22651(11) 0.44255(10) 0.01830(19) Uani 1 1 d . . . . .
S2 S 0.24209(10) 0.11917(11) 0.67378(10) 0.01782(19) Uani 1 1 d . . . . .
loop_
_atom_site_aniso_label
_atom_site_aniso_U_11
_atom_site_aniso_U_22
_atom_site_aniso_U_33
_atom_site_aniso_U_23
_atom_site_aniso_U_13
_atom_site_aniso_U_12
Ni1 0.0123(3) 0.0143(3) 0.0144(3) 0.0067(2) 0.0002(2) 0.0007(2)
S2 0.0147(4) 0.0175(4) 0.0197(4) 0.0105(3) -0.0019(3) 0.0003(3)
S1 0.0144(4) 0.0184(4) 0.0204(4) 0.0111(3) -0.0020(3) -0.0004(3)
N3 0.0148(13) 0.0168(13) 0.0166(13) 0.0053(11) 0.0029(10) 0.0007(11)
N1 0.0212(15) 0.0237(16) 0.0358(17) 0.0193(14) 0.0025(13) 0.0026(12)
N2 0.0208(16) 0.0288(17) 0.0253(15) 0.0098(13) -0.0040(12) -0.0037(13)
C5 0.0152(15) 0.0173(16) 0.0207(15) 0.0085(13) 0.0037(12) 0.0009(13)
C4 0.0189(16) 0.0208(16) 0.0169(15) 0.0081(13) 0.0030(13) 0.0049(13)
C1 0.0134(15) 0.0184(16) 0.0172(15) 0.0051(13) 0.0026(12) 0.0004(12)
C2 0.0136(15) 0.0214(17) 0.0209(16) 0.0074(14) 0.0000(12) 0.0023(13)
C3 0.0149(15) 0.0186(16) 0.0165(14) 0.0078(13) 0.0048(12) 0.0014(12)
C6 0.0173(15) 0.0194(16) 0.0156(15) 0.0081(13) 0.0006(12) 0.0047(13)
C7 0.0133(15) 0.0194(17) 0.0247(17) 0.0050(14) 0.0011(13) -0.0007(13)
C8 0.030(2) 0.0237(19) 0.0273(18) 0.0087(16) 0.0080(16) -0.0035(15)
C10 0.032(2) 0.0258(19) 0.0226(17) 0.0110(15) -0.0086(15) -0.0033(16)
C9 0.049(3) 0.031(2) 0.030(2) 0.0235(18) -0.0010(18) 0.0012(19)
loop_
_atom_type_symbol
_atom_type_description
_atom_type_scat_dispersion_real
_atom_type_scat_dispersion_imag
_atom_type_scat_source
C C 0.0033 0.0016 'International Tables Vol C Tables 4.2.6.8 and 6.1.1.4'
H H 0.0000 0.0000 'International Tables Vol C Tables 4.2.6.8 and 6.1.1.4'
N N 0.0061 0.0033 'International Tables Vol C Tables 4.2.6.8 and 6.1.1.4'
Ni Ni 0.3393 1.1124 'International Tables Vol C Tables 4.2.6.8 and 6.1.1.4'
S S 0.1246 0.1234 'International Tables Vol C Tables 4.2.6.8 and 6.1.1.4'
loop_
_geom_angle_atom_site_label_1
_geom_angle_atom_site_label_2
_geom_angle_atom_site_label_3
_geom_angle
_geom_angle_site_symmetry_1
_geom_angle_site_symmetry_3
S2 Ni1 S2 180.0 2_556 .
S2 Ni1 S1 91.88(3) 2_556 2_556
S2 Ni1 S1 88.12(3) . 2_556
S2 Ni1 S1 88.12(3) 2_556 .
S2 Ni1 S1 91.88(3) . .
S1 Ni1 S1 180.0 2_556 .
C3 S2 Ni1 103.40(11) . .
C1 S1 Ni1 103.54(11) . .
C6 N3 C5 119.6(3) . .
C10 N3 C5 118.8(3) . .
C10 N3 C6 121.7(3) . .
N3 C5 C5 109.2(3) . 2_787
N3 C5 H5A 109.8 . .
N3 C5 H5B 109.8 . .
C5 C5 H5A 109.8 2_787 .
C5 C5 H5B 109.8 2_787 .
H5A C5 H5B 108.3 . .
N2 C4 C3 179.8(4) . .
C2 C1 S1 118.0(2) . .
C3 C1 S1 120.9(2) . .
C3 C1 C2 121.1(3) . .
N1 C2 C1 177.3(3) . .
C4 C3 S2 118.3(2) . .
C1 C3 S2 120.3(2) . .
C1 C3 C4 121.4(3) . .
N3 C6 H6 120.4 . .
N3 C6 C7 119.2(3) . .
C7 C6 H6 120.4 . .
C6 C7 H7 120.0 . .
C8 C7 C6 120.0(3) . .
C8 C7 H7 120.0 . .
C7 C8 H8 120.1 . .
C7 C8 C9 119.9(3) . .
C9 C8 H8 120.1 . .
N3 C10 H10 119.5 . .
N3 C10 C9 121.0(3) . .
C9 C10 H10 119.5 . .
C8 C9 H9 120.9 . .
C10 C9 C8 118.2(3) . .
C10 C9 H9 120.9 . .
loop_
_geom_bond_atom_site_label_1
_geom_bond_atom_site_label_2
_geom_bond_distance
_geom_bond_site_symmetry_2
Ni1 S2 2.1787(10) 2_556
Ni1 S2 2.1787(10) .
Ni1 S1 2.1798(9) .
Ni1 S1 2.1797(9) 2_556
S2 C3 1.749(3) .
S1 C1 1.736(3) .
N3 C5 1.476(4) .
N3 C6 1.350(4) .
N3 C10 1.339(4) .
N1 C2 1.151(4) .
N2 C4 1.154(4) .
C5 C5 1.512(6) 2_787
C5 H5A 0.9700 .
C5 H5B 0.9700 .
C4 C3 1.428(4) .
C1 C2 1.424(5) .
C1 C3 1.358(5) .
C6 H6 0.9300 .
C6 C7 1.383(4) .
C7 H7 0.9300 .
C7 C8 1.369(5) .
C8 H8 0.9300 .
C8 C9 1.398(5) .
C10 H10 0.9300 .
C10 C9 1.373(5) .
C9 H9 0.9300 .
loop_
_geom_torsion_atom_site_label_1
_geom_torsion_atom_site_label_2
_geom_torsion_atom_site_label_3
_geom_torsion_atom_site_label_4
_geom_torsion
_geom_torsion_site_symmetry_1
_geom_torsion_site_symmetry_2
_geom_torsion_site_symmetry_3
_geom_torsion_site_symmetry_4
Ni1 S2 C3 C4 179.3(2) . . . .
Ni1 S2 C3 C1 -1.0(3) . . . .
Ni1 S1 C1 C2 -179.5(2) . . . .
Ni1 S1 C1 C3 -1.3(3) . . . .
S1 C1 C3 S2 1.6(4) . . . .
S1 C1 C3 C4 -178.7(2) . . . .
N3 C6 C7 C8 -0.6(5) . . . .
N3 C10 C9 C8 0.1(6) . . . .
C5 N3 C6 C7 -178.3(3) . . . .
C5 N3 C10 C9 178.6(3) . . . .
C2 C1 C3 S2 179.7(2) . . . .
C2 C1 C3 C4 -0.6(5) . . . .
C6 N3 C5 C5 100.2(4) . . . 2_787
C6 N3 C10 C9 -0.8(6) . . . .
C6 C7 C8 C9 0.0(6) . . . .
C7 C8 C9 C10 0.2(6) . . . .
C10 N3 C5 C5 -79.1(4) . . . 2_787
C10 N3 C6 C7 1.0(5) . . . .
