#------------------------------------------------------------------------------
#$Date: 2022-07-05 11:40:20 +0300 (Tue, 05 Jul 2022) $
#$Revision: 276566 $
#$URL: file:///home/coder/svn-repositories/cod/cif/8/10/56/8105657.cif $
#------------------------------------------------------------------------------
#
# This file is available in the Crystallography Open Database (COD),
# http://www.crystallography.net/
#
# All data on this site have been placed in the public domain by the
# contributors.
#
data_8105657
loop_
_publ_author_name
'Fang, Bo'
'Meng, Jiang Ping'
'Luo, Yan'
_publ_section_title
;
 Crystal structure of methyl
 2-(4-(pyrazolo[1,5-a]pyrimidin-6-yl)phenyl)acetate, C15H13N3O2
;
_journal_issue                   3
_journal_name_full
'Zeitschrift f\"ur Kristallographie - New Crystal Structures'
_journal_page_first              395
_journal_page_last               396
_journal_paper_doi               10.1515/ncrs-2018-0224
_journal_volume                  234
_journal_year                    2019
_chemical_formula_sum            'C15 H13 N3 O2'
_chemical_formula_weight         267.28
_space_group_crystal_system      triclinic
_space_group_IT_number           2
_space_group_name_Hall           '-P 1'
_space_group_name_H-M_alt        'P -1'
_atom_sites_solution_hydrogens   geom
_audit_creation_method           SHELXL-2018/1
_cell_angle_alpha                115.26(4)
_cell_angle_beta                 94.81(5)
_cell_angle_gamma                96.49(5)
_cell_formula_units_Z            2
_cell_length_a                   4.6502(18)
_cell_length_b                   11.937(3)
_cell_length_c                   13.1822(19)
_cell_measurement_temperature    296(2)
_cell_volume                     650.4(4)
_computing_structure_refinement  'SHELXL-2018/1 (Sheldrick, 2018)'
_diffrn_ambient_temperature      296(2)
_diffrn_measured_fraction_theta_full 0.987
_diffrn_measured_fraction_theta_max 0.987
_diffrn_radiation_type           MoK\a
_diffrn_radiation_wavelength     0.71073
_diffrn_reflns_av_R_equivalents  0.0463
_diffrn_reflns_av_unetI/netI     0.1018
_diffrn_reflns_Laue_measured_fraction_full 0.987
_diffrn_reflns_Laue_measured_fraction_max 0.987
_diffrn_reflns_limit_h_max       5
_diffrn_reflns_limit_h_min       -5
_diffrn_reflns_limit_k_max       14
_diffrn_reflns_limit_k_min       -9
_diffrn_reflns_limit_l_max       14
_diffrn_reflns_limit_l_min       -15
_diffrn_reflns_number            3225
_diffrn_reflns_point_group_measured_fraction_full 0.987
_diffrn_reflns_point_group_measured_fraction_max 0.987
_diffrn_reflns_theta_full        24.996
_diffrn_reflns_theta_max         24.996
_diffrn_reflns_theta_min         1.931
_exptl_absorpt_coefficient_mu    0.094
_exptl_crystal_density_diffrn    1.365
_exptl_crystal_F_000             280
_exptl_crystal_size_max          0.280
_exptl_crystal_size_mid          0.250
_exptl_crystal_size_min          0.210
_refine_diff_density_max         0.266
_refine_diff_density_min         -0.233
_refine_diff_density_rms         0.062
_refine_ls_extinction_coef       .
_refine_ls_extinction_method     none
_refine_ls_goodness_of_fit_ref   1.014
_refine_ls_hydrogen_treatment    constr
_refine_ls_matrix_type           full
_refine_ls_number_parameters     181
_refine_ls_number_reflns         2261
_refine_ls_number_restraints     1
_refine_ls_restrained_S_all      1.015
_refine_ls_R_factor_all          0.1535
_refine_ls_R_factor_gt           0.0762
_refine_ls_shift/su_max          0.000
_refine_ls_shift/su_mean         0.000
_refine_ls_structure_factor_coef Fsqd
_refine_ls_weighting_details
'w=1/[\s^2^(Fo^2^)+(0.0300P)^2^+0.8000P] where P=(Fo^2^+2Fc^2^)/3'
_refine_ls_weighting_scheme      calc
_refine_ls_wR_factor_gt          0.1585
_refine_ls_wR_factor_ref         0.1794
_reflns_Friedel_coverage         0.000
_reflns_Friedel_fraction_full    .
_reflns_Friedel_fraction_max     .
_reflns_number_gt                993
_reflns_number_total             2261
_reflns_threshold_expression     'I > 2\s(I)'
_cod_data_source_file            suppl_ncrs-2018-0224_suppl.cif
_cod_data_source_block           A
_cod_database_code               8105657
_shelx_shelxl_version_number     2018/1
_shelx_space_group_comment
;
The symmetry employed for this shelxl refinement is uniquely defined
by the following loop, which should always be used as a source of
symmetry information in preference to the above space-group names.
They are only intended as comments.
;
_shelx_estimated_absorpt_t_min   0.974
_shelx_estimated_absorpt_t_max   0.981
_shelx_res_file
;
TITL A in P-1
    A.res
    created by SHELXL-2018/1 at 14:05:42 on 19-Nov-2018
CELL 0.71073   4.6502  11.9375  13.1822 115.259  94.809  96.488
ZERR    2.00   0.0018   0.0025   0.0019   0.044   0.049   0.048
LATT  1
SFAC C H N O
UNIT 30 26 6 4
LIST 6 ! automatically inserted. Change 6 to 4 for CHECKCIF!!
TEMP 23.000
OMIT 0 50
OMIT -1 1 1
OMIT -3 2 0
OMIT 0 0 1
OMIT 0 1 0
DELU 0.01 C5 C6

L.S. 20
SIZE 0.28 0.25 0.21
ACTA
BOND $H
HTAB
FMAP 2
PLAN 20

WGHT    0.030000    0.800000
FVAR       0.28264
O1    4    0.539017    0.146872   -0.133553    11.00000    0.06618    0.04404 =
         0.05926    0.01658   -0.00827    0.01121
O2    4    0.726065   -0.009966   -0.121127    11.00000    0.11346    0.04292 =
         0.10070    0.01598   -0.02693    0.01934
N1    3   -0.102434    0.679206    0.551855    11.00000    0.07564    0.04932 =
         0.06982    0.02305    0.02384    0.02230
N2    3    0.035484    0.677798    0.463835    11.00000    0.04802    0.03518 =
         0.05032    0.01421    0.00663    0.00931
N3    3    0.133809    0.794961    0.360043    11.00000    0.07323    0.04316 =
         0.07735    0.03141    0.01721    0.01937
C1    1   -0.203105    0.789578    0.588516    11.00000    0.05992    0.04443 =
         0.07264    0.01413    0.01436    0.01465
AFIX  43
H1A   2   -0.305936    0.818184    0.649841    11.00000   -1.20000
AFIX   0
C2    1   -0.141198    0.855951    0.527871    11.00000    0.06940    0.03392 =
         0.06376    0.01256    0.00713    0.00922
AFIX  43
H2A   2   -0.190943    0.933395    0.539520    11.00000   -1.20000
AFIX   0
C3    1    0.013872    0.781229    0.444292    11.00000    0.05066    0.03622 =
         0.05658    0.01875   -0.00133    0.00747
C4    1    0.276158    0.702979    0.296860    11.00000    0.07595    0.04098 =
         0.06557    0.02758    0.01751    0.01193
AFIX  43
H4A   2    0.357454    0.711280    0.237830    11.00000   -1.20000
AFIX   0
C5    1    0.313546    0.594098    0.312221    11.00000    0.04493    0.03365 =
         0.04811    0.01842    0.00147    0.00118
C6    1    0.182509    0.584851    0.397675    11.00000    0.05129    0.03156 =
         0.05633    0.01458   -0.00512    0.00778
AFIX  43
H6A   2    0.192296    0.515144    0.411541    11.00000   -1.20000
AFIX   0
C7    1    0.470500    0.496866    0.240016    11.00000    0.03913    0.03269 =
         0.04538    0.01607    0.00500    0.00380
C8    1    0.586630    0.503240    0.149423    11.00000    0.05766    0.04417 =
         0.06644    0.02750    0.00127    0.01175
AFIX  43
H8A   2    0.565289    0.571320    0.134184    11.00000   -1.20000
AFIX   0
C9    1    0.738612    0.408841    0.078169    11.00000    0.05854    0.05580 =
         0.05414    0.02488    0.01531    0.01602
AFIX  43
H9A   2    0.816233    0.417095    0.018477    11.00000   -1.20000
AFIX   0
C10   1    0.771143    0.306460    0.096827    11.00000    0.03306    0.04232 =
         0.05417    0.01525   -0.00118    0.00422
C11   1    0.661637    0.299984    0.189633    11.00000    0.06329    0.04064 =
         0.06979    0.02647    0.00745    0.01461
AFIX  43
H11A  2    0.685333    0.232334    0.205252    11.00000   -1.20000
AFIX   0
C12   1    0.515549    0.394428    0.260146    11.00000    0.07273    0.04295 =
         0.05673    0.02396    0.01852    0.01376
AFIX  43
H12A  2    0.447019    0.388152    0.322112    11.00000   -1.20000
AFIX   0
C13   1    0.918685    0.201879    0.018234    11.00000    0.04877    0.05220 =
         0.05980    0.01396    0.00090    0.01599
AFIX  23
H13A  2    1.074829    0.238814   -0.007988    11.00000   -1.20000
H13B  2    1.007457    0.162990    0.061494    11.00000   -1.20000
AFIX   0
C14   1    0.718090    0.100179   -0.084490    11.00000    0.04820    0.04787 =
         0.05694    0.01802    0.00976    0.01583
C15   1    0.346085    0.056872   -0.235234    11.00000    0.07732    0.05674 =
         0.05184    0.01418   -0.01074    0.00472
AFIX  33
H15A  2    0.226183    0.100510   -0.263780    11.00000   -1.50000
H15B  2    0.460872    0.011239   -0.291673    11.00000   -1.50000
H15C  2    0.223614   -0.000651   -0.217492    11.00000   -1.50000

AFIX   0
HKLF 4




REM  A in P-1
REM R1 =  0.0762 for     993 Fo > 4sig(Fo)  and  0.1535 for all    2261 data
REM    181 parameters refined using      1 restraints

END

WGHT      0.1313      0.0000

REM Instructions for potential hydrogen bonds
EQIV $1 -x+1, -y+1, -z
HTAB C4 O1_$1
EQIV $2 -x, -y+1, -z+1
HTAB C6 N1_$2
EQIV $3 -x+2, -y, -z
HTAB C13 O2_$3

REM Highest difference peak  0.266,  deepest hole -0.233,  1-sigma level  0.062
Q1    1   0.5230  0.6396  0.3801  11.00000  0.05    0.27
Q2    1   0.1672  0.3428  0.2590  11.00000  0.05    0.24
Q3    1   0.5476  0.5451  0.2248  11.00000  0.05    0.24
Q4    1   0.3745  0.4462  0.4166  11.00000  0.05    0.23
Q5    1   0.3158  0.5123  0.2047  11.00000  0.05    0.22
Q6    1   0.4970  0.5517  0.3388  11.00000  0.05    0.22
Q7    1   0.3191  0.4593  0.1818  11.00000  0.05    0.21
Q8    1  -0.1106  1.0208  0.6768  11.00000  0.05    0.20
Q9    1  -0.0826  0.6582  0.6608  11.00000  0.05    0.20
Q10   1   0.1064  0.0964 -0.2367  11.00000  0.05    0.20
Q11   1   1.0678  0.4180  0.1223  11.00000  0.05    0.20
Q12   1   0.0462  0.7317  0.3784  11.00000  0.05    0.19
Q13   1  -0.1573  0.4262  0.4152  11.00000  0.05    0.19
Q14   1  -0.2824  0.9408  0.7210  11.00000  0.05    0.19
Q15   1   0.6233  0.2837  0.3582  11.00000  0.05    0.19
Q16   1   0.0956  0.0934 -0.1604  11.00000  0.05    0.19
Q17   1   0.5790  0.4764  0.4416  11.00000  0.05    0.18
Q18   1   0.8660 -0.0848 -0.2069  11.00000  0.05    0.18
Q19   1   0.1316  0.8543  0.5674  11.00000  0.05    0.18
Q20   1  -0.4643  0.8225  0.5340  11.00000  0.05    0.18
;
_shelx_hkl_file
;
   1   0   0    0.29    0.13
   2   0   0    7.82    0.59
   3   0   0    0.50    0.32
   4   0   0    3.61    0.76
  -5   0   0    0.14    0.62
   5   0   0   -0.06    0.50
  -6   1   0   -0.53    0.78
   5  -1   0    0.92    0.59
  -5   1   0    1.06    0.73
   4  -1   0    3.87    0.75
   3  -1   0    2.08    0.48
   2  -1   0    0.38    0.21
   1  -1   0   32.31    0.98
   0   1   0   16.18    0.46
   1   1   0  196.22    5.08
   1   1   0  203.58    4.88
   2   1   0   17.86    0.96
   3   1   0    0.55    0.38
   4   1   0    0.19    0.44
  -5  -1   0   -0.29    0.64
   5   1   0    0.04    0.59
  -5   2   0   -0.33    0.57
   4  -2   0    0.11    0.32
   3  -2   0    0.58    0.29
   2  -2   0    5.01    0.41
   1  -2   0   20.86    0.64
  -1   2   0   20.27    0.86
   0   2   0   33.17    1.03
   0   2   0   33.61    0.90
   1   2   0  532.34   12.17
   1   2   0  519.85   12.72
   2   2   0    1.00    0.33
   2   2   0    0.49    0.36
   3   2   0    4.40    0.72
   4   2   0   -0.15    0.40
  -5  -2   0   -0.35    0.63
   5   2   0   -0.38    0.58
  -5   3   0    0.98    0.43
   4  -3   0    2.66    0.61
  -4   3   0    2.67    0.59
  -4   3   0    2.40    0.62
   3  -3   0   40.27    1.59
  -3   3   0   43.27    1.90
   2  -3   0   29.69    1.05
  -2   3   0   28.28    1.33
  -1   3   0    0.65    0.19
   0   3   0    0.68    0.23
   1   3   0    9.95    0.67
   1   3   0    9.12    0.57
   2   3   0   29.13    1.45
   2   3   0   27.62    1.34
   3   3   0    1.91    0.56
   4   3   0   -0.10    0.40
  -5  -3   0    0.02    0.70
   5   3   0    0.07    0.62
  -5   4   0    0.56    0.44
  -5   4   0    1.84    0.60
  -4   4   0    0.15    0.30
  -3   4   0   14.21    0.80
  -3   4   0   14.70    1.08
  -2   4   0    5.50    0.36
  -2   4   0    5.54    0.63
  -1   4   0    6.34    0.50
   0   4   0    0.53    0.15
   0   4   0    1.22    0.29
   1   4   0    0.48    0.25
   1   4   0    0.75    0.35
   2   4   0    1.63    0.44
   2   4   0    1.85    0.55
   3   4   0    1.74    0.64
   3   4   0    1.19    0.50
   4   4   0    0.04    0.50
  -5  -4   0    0.40    0.74
   5   4   0    0.48    0.75
  -5   5   0    1.69    0.61
  -4   5   0    0.05    0.35
  -3   5   0    1.36    0.45
  -2   5   0   23.24    1.26
  -1   5   0    8.51    0.63
   0   5   0    3.45    0.46
   0   5   0    3.36    0.28
   1   5   0    7.99    0.72
   1   5   0    8.48    0.61
   2   5   0    1.61    0.56
   2   5   0    3.09    0.59
   3   5   0    0.99    0.52
   3   5   0    0.22    0.49
   4   5   0   -0.05    0.50
  -5  -5   0    0.05    0.72
   5   5   0    0.29    0.65
  -4   6   0    0.43    0.40
  -3   6   0   14.76    1.14
  -2   6   0    0.36    0.24
  -1   6   0   11.27    0.80
   0   6   0   16.57    0.71
   0   6   0   17.46    0.95
   1   6   0    6.30    0.55
   1   6   0    5.35    0.73
   2   6   0   28.17    1.62
   2   6   0   28.45    1.46
   3   6   0    0.12    0.53
   3   6   0    0.29    0.44
   4   6   0    0.25    0.52
  -4   7   0    0.74    0.49
  -3   7   0    0.75    0.42
  -2   7   0   22.89    1.35
  -1   7   0   -0.15    0.24
   0   7   0    2.46    0.49
   0   7   0    1.92    0.34
   1   7   0    9.42    0.87
   1   7   0    9.76    0.71
   2   7   0    2.46    0.57
   2   7   0    2.58    0.72
   3   7   0    0.34    0.49
   3   7   0   -0.34    0.51
   4   7   0   -0.12    0.57
   4   7   0    0.55    0.61
  -4   8   0    2.76    0.76
  -3   8   0   -0.15    0.27
  -2   8   0   10.01    0.90
  -1   8   0   30.29    1.51
   0   8   0    2.73    0.56
   1   8   0    2.10    0.49
   1   8   0    3.75    0.73
   2   8   0    0.87    0.60
   2   8   0    0.48    0.44
   3   8   0    2.30    0.75
   3   8   0    1.05    0.73
  -4  -8   0   -0.31    0.68
   4   8   0   -0.02    0.62
   4   8   0    0.75    0.69
  -5   9   0    2.48    0.84
  -4   9   0    1.01    0.57
  -3   9   0    0.12    0.31
  -2   9   0    0.02    0.37
  -1   9   0   69.59    2.67
   0   9   0   -0.01    0.36
   1   9   0   -0.29    0.41
   2   9   0    0.16    0.56
   3   9   0    0.67    0.75
   3   9   0    0.63    0.63
  -4  -9   0   -0.09    0.71
   4   9   0    0.08    0.62
  -5  10   0    2.62    0.99
  -4  10   0    1.10    0.61
  -3  10   0    0.31    0.43
  -2  10   0    4.01    0.82
  -1  10   0    0.32    0.44
   0  10   0   22.95    1.45
   1  10   0   -0.51    0.41
   2  10   0    0.38    0.63
  -3 -10   0    0.17    0.72
   3  10   0    0.65    0.72
  -4  11   0    2.19    0.80
  -3  11   0   -0.31    0.48
  -2  11   0    1.78    0.65
  -1  11   0    2.26    0.68
   0  11   0   16.73    1.31
   1  11   0    0.31    0.59
   2  11   0    0.49    0.67
   3  11   0    0.78    0.80
  -4  12   0   -0.32    0.61
  -4  12   0    2.46    0.84
  -3  12   0   -0.06    0.60
  -2  12   0    0.37    0.56
  -1  12   0    0.43    0.52
   0  12   0    0.03    0.54
   1  12   0    0.92    0.73
   2  12   0   -0.17    0.65
  -3  13   0    1.06    0.77
  -3  13   0    3.66    1.02
  -2  13   0   -0.77    0.48
  -1  13   0    0.00    0.59
   0  13   0   -0.62    0.49
   1  13   0   -0.20    0.60
  -2  14   0    0.01    0.61
  -1  14   0   -0.02    0.61
   0  14   0    0.63    0.78
   1  14  -1   -0.07    0.67
   0  14  -1    0.71    0.73
  -1  14  -1    0.65    0.69
  -2  14  -1   -0.35    0.58
   2  13  -1    0.10    0.75
   1  13  -1    2.35    0.90
   0  13  -1    0.04    0.58
  -1  13  -1   -0.20    0.52
  -2  13  -1   -0.17    0.56
  -3  13  -1   -0.10    0.69
   2  12  -1    0.44    0.69
   1  12  -1    0.09    0.59
   0  12  -1   -0.11    0.49
  -1  12  -1   -0.28    0.46
  -2  12  -1   -0.43    0.46
  -3  12  -1   -0.38    0.54
  -4  12  -1    1.03    0.70
   3  11  -1    0.07    0.70
   2  11  -1    0.08    0.64
   1  11  -1    0.62    0.63
   0  11  -1    6.41    0.98
  -1  11  -1    0.16    0.46
  -2  11  -1   -0.21    0.44
  -3  11  -1    0.72    0.55
  -4  11  -1    0.05    0.46
   3  10  -1    0.16    0.61
   2  10  -1    1.30    0.70
   1  10  -1    0.89    0.58
   0  10  -1    0.15    0.44
  -1  10  -1    3.81    0.75
  -2  10  -1    7.02    1.02
  -3  10  -1    4.59    0.88
  -4  10  -1   -0.36    0.37
  -5  10  -1   -0.26    0.54
   4   9  -1    0.24    0.67
   4   9  -1    0.57    0.76
   3   9  -1    0.42    0.57
   3   9  -1    0.33    0.63
   2   9  -1    3.41    0.82
   2   9  -1    1.52    0.58
   1   9  -1   -0.22    0.43
   0   9  -1    1.51    0.50
  -1   9  -1    0.97    0.47
  -2   9  -1   13.94    1.15
  -3   9  -1    0.69    0.44
  -4   9  -1    0.42    0.49
  -5   9  -1    0.48    0.63
   4   8  -1    0.37    0.59
   4   8  -1   -0.46    0.53
   3   8  -1    0.48    0.62
   3   8  -1    0.22    0.47
   2   8  -1   -0.05    0.50
   2   8  -1    0.00    0.37
   1   8  -1    0.62    0.43
   1   8  -1    1.20    0.41
   0   8  -1    6.62    0.78
  -1   8  -1    2.00    0.51
  -2   8  -1    6.26    0.83
  -3   8  -1    0.04    0.30
  -4   8  -1    0.36    0.49
  -5   8  -1    0.13    0.48
   4   7  -1    0.63    0.61
   4   7  -1    0.95    0.64
   3   7  -1    1.56    0.62
   3   7  -1    1.65    0.75
   2   7  -1    4.79    0.84
   2   7  -1    2.61    0.61
   1   7  -1    2.41    0.46
   1   7  -1    3.44    0.63
   0   7  -1    9.48    0.76
   0   7  -1    9.16    0.53
  -1   7  -1    0.69    0.32
  -2   7  -1    3.73    0.62
  -3   7  -1    0.22    0.32
  -4   7  -1    2.65    0.70
  -5   7  -1    0.23    0.45
   4   6  -1    0.01    0.50
   3   6  -1    0.11    0.49
   3   6  -1    0.22    0.42
   2   6  -1    0.45    0.44
   2   6  -1    0.08    0.31
   1   6  -1   40.47    1.52
   1   6  -1   38.89    1.62
   0   6  -1    0.53    0.30
   0   6  -1    0.35    0.18
  -1   6  -1   19.11    1.06
  -2   6  -1    0.01    0.17
  -3   6  -1    6.44    0.86
  -4   6  -1    2.48    0.67
  -5   6  -1    0.26    0.47
   5   5  -1    0.53    0.73
   4   5  -1   -0.09    0.53
   3   5  -1    0.42    0.43
   3   5  -1    0.44    0.53
   2   5  -1    2.15    0.50
   2   5  -1    1.88    0.53
   1   5  -1    6.53    0.52
   1   5  -1    6.60    0.62
   0   5  -1    6.21    0.38
   0   5  -1    6.37    0.53
  -1   5  -1    0.03    0.14
  -2   5  -1   12.20    0.52
  -2   5  -1   14.56    0.96
  -3   5  -1    2.26    0.56
  -4   5  -1    0.15    0.36
  -5   5  -1    0.97    0.53
   5   4  -1    0.27    0.66
   4   4  -1    3.30    0.83
   3   4  -1    4.33    0.77
   3   4  -1    4.31    0.76
   2   4  -1    1.91    0.49
   2   4  -1    1.16    0.39
   1   4  -1    9.71    0.61
   1   4  -1    9.27    0.66
   0   4  -1   11.54    0.49
   0   4  -1   11.62    0.64
  -1   4  -1    2.91    0.40
  -1   4  -1    1.87    0.12
  -2   4  -1    8.08    0.45
  -2   4  -1    8.01    0.71
  -3   4  -1    0.30    0.30
  -3   4  -1    0.71    0.35
  -4   4  -1    1.02    0.47
  -4   4  -1    1.03    0.48
  -5   4  -1    0.63    0.37
   5   3  -1    0.48    0.67
   4   3  -1    3.00    0.76
   3   3  -1    6.58    0.87
   2   3  -1   11.26    0.78
   2   3  -1   10.33    0.83
   1   3  -1    0.09    0.16
   1   3  -1    0.10    0.23
   0   3  -1   26.83    0.97
   0   3  -1   26.52    0.81
  -1   3  -1   12.42    0.68
  -1   3  -1   10.65    0.38
  -2   3  -1    9.10    0.73
  -2   3  -1    9.44    0.54
  -3   3  -1    1.53    0.41
  -4   3  -1    0.68    0.50
   5   2  -1    0.49    0.64
   4   2  -1   -0.04    0.39
   3   2  -1    4.23    0.72
   1   2  -1  100.46    2.73
   0   2  -1   10.30    0.36
  -1   2  -1   44.65    1.53
  -1   2  -1   47.13    1.25
   2  -2   1    2.20    0.35
  -3   2  -1    7.68    0.68
   3  -2   1    7.07    0.64
  -4   2  -1    0.36    0.50
  -5   2  -1   -0.07    0.56
   5   1  -1    0.40    0.64
   4   1  -1    0.29    0.45
   3   1  -1    0.48    0.35
  -3  -1   1   -0.04    0.30
   2   1  -1    0.06    0.19
  -2  -1   1   -0.06    0.19
   1   1  -1   82.86    2.27
   0   1  -1    3.23    0.14
  -1   1  -1   70.96    1.88
   2  -1   1    1.63    0.33
   3  -1   1    1.15    0.40
  -4   1  -1    1.85    0.64
   4  -1   1    1.49    0.56
  -5   1  -1    0.97    0.76
  -6   1  -1   -0.19    0.80
  -6   0   1    0.93    0.95
   5   0  -1    0.14    0.52
   4   0  -1    0.46    0.48
   3   0  -1    0.24    0.33
  -3   0   1    0.25    0.30
   2   0  -1    0.61    0.26
  -2   0   1   -0.02    0.25
   1   0  -1   41.54    1.27
   0   0  -1    0.09    0.03
   2   0   1   41.53    1.56
   3   0   1    2.41    0.55
  -4   0  -1    0.36    0.54
   4   0   1    0.40    0.44
  -5   0  -1    1.33    0.80
   5  -1  -1   -0.07    0.45
   4  -1  -1    0.06    0.39
  -4   1   1    0.35    0.46
   3  -1  -1    3.23    0.57
   2  -1  -1   -0.09    0.13
   1  -1  -1    5.55    0.32
   0  -1  -1   65.39    1.58
   1   1   1   53.77    1.75
   1   1   1   52.93    1.61
   2   1   1    4.07    0.55
   3   1   1    1.00    0.44
  -4  -1  -1   -0.13    0.49
   4   1   1   -0.23    0.35
  -5  -1  -1    0.36    0.70
  -5   2   1   -0.57    0.58
   4  -2  -1    1.38    0.51
  -4   2   1    2.24    0.68
   3  -2  -1    7.15    0.64
   2  -2  -1    3.21    0.39
  -2   2   1    2.84    0.42
   1  -2  -1   21.47    0.68
   0  -2  -1  268.88    6.24
   0   2   1  276.30    6.65
   1   2   1    3.11    0.46
   1   2   1    2.40    0.35
   2   2   1   12.58    0.93
   2   2   1   11.91    0.81
   3   2   1    4.30    0.74
   4   2   1   -0.04    0.42
  -5  -2  -1    0.35    0.69
   4  -3  -1    0.00    0.31
  -4   3   1    0.29    0.29
  -4   3   1    0.50    0.43
   3  -3  -1    0.08    0.23
  -3   3   1    0.22    0.22
   2  -3  -1   58.93    1.73
  -1   3   1    6.72    0.46
   0   3   1    5.03    0.42
   0   3   1    4.46    0.50
   1   3   1   -0.18    0.25
   1   3   1   -0.03    0.16
   2   3   1   62.75    2.26
   3   3   1    0.50    0.43
  -4  -3  -1    0.10    0.54
   4   3   1   -0.04    0.48
  -5  -3  -1    0.44    0.78
  -5   4   1    1.31    0.76
  -4   4   1    0.37    0.36
   3  -4  -1   -0.09    0.22
  -3   4   1   -0.07    0.22
   2  -4  -1    0.18    0.13
  -2   4   1    0.79    0.28
  -1   4   1    4.22    0.41
   0  -4  -1   -0.04    0.10
   0   4   1    0.07    0.21
   1   4   1    1.75    0.36
   1   4   1    0.66    0.39
   2   4   1    1.75    0.56
   2   4   1    2.04    0.51
   3   4   1   -0.03    0.45
   3   4   1    0.18    0.39
  -4  -4  -1    0.45    0.57
   4   4   1    0.52    0.59
  -5  -4  -1    0.87    0.85
  -5   5   1    4.17    1.04
  -4   5   1    2.46    0.62
  -3   5   1    5.84    0.77
  -2   5   1    3.26    0.50
  -1   5   1   95.06    2.91
   0  -5  -1    0.02    0.13
   0   5   1   -0.15    0.21
   1   5   1    5.41    0.49
   1   5   1    5.37    0.50
   1   5   1    4.90    0.70
   2   5   1    0.08    0.30
   2   5   1   -0.05    0.36
   3   5   1    1.10    0.53
   3   5   1   -0.05    0.50
  -4  -5  -1    0.06    0.59
   4   5   1   -0.09    0.50
  -5   6   1    0.49    0.59
  -4   6   1    3.82    0.76
  -3   6   1    1.64    0.48
  -2   6   1    0.43    0.26
  -1   6   1    0.72    0.32
   0  -6  -1   -0.11    0.16
   0   6   1    0.33    0.29
   0   6   1   -0.01    0.26
   1   6   1    7.75    0.80
   1   6   1    7.43    0.61
   2   6   1    0.35    0.51
   2   6   1    0.34    0.37
   3   6   1    0.00    0.42
   3   6   1   -0.34    0.49
  -4  -6  -1    0.21    0.67
  -5   7   1    1.63    0.76
  -4   7   1    4.07    0.82
  -3   7   1    2.04    0.54
  -2   7   1    1.89    0.46
  -1   7   1   -0.02    0.25
   0  -7  -1    0.48    0.26
   0   7   1    1.84    0.51
   0   7   1    1.68    0.47
   1   7   1    3.14    0.68
   2   7   1    7.22    1.10
   2   7   1    8.86    0.83
  -3  -7  -1   -0.09    0.48
   3   7   1   -0.46    0.44
   3   7   1    0.32    0.62
  -4  -7  -1   -0.48    0.60
  -5   8   1    1.03    0.78
  -4   8   1    0.20    0.43
  -3   8   1    1.52    0.50
  -2   8   1    1.69    0.54
  -1   8   1    0.75    0.40
   0   8   1    3.78    0.75
   0   8   1    4.30    0.68
  -1  -8  -1    0.11    0.35
   1   8   1    1.86    0.61
  -2  -8  -1    0.59    0.47
   2   8   1    0.45    0.58
  -3  -8  -1   -0.04    0.56
   3   8   1    0.56    0.74
  -4  -8  -1   -0.19    0.70
   4   8   1    0.70    0.69
  -5   9   1    1.54    0.89
  -4   9   1    0.54    0.52
  -4   9   1    1.55    0.76
  -3   9   1    0.78    0.49
  -2   9   1    0.80    0.51
  -1   9   1    0.71    0.44
  -1   9   1    0.26    0.41
   0   9   1    2.13    0.62
   1   9   1    8.38    1.12
  -2  -9  -1   -0.16    0.48
   2   9   1    0.29    0.62
  -3  -9  -1   -0.48    0.56
   3   9   1    0.60    0.74
  -4  10   1    1.03    0.64
  -4  10   1    1.70    0.78
  -3  10   1   -0.38    0.39
  -2  10   1   -0.12    0.35
  -1  10   1    0.47    0.45
   0  10   1    0.48    0.50
   1  10   1    0.59    0.62
   2  10   1    0.27    0.60
   3  10   1    0.56    0.77
  -4  11   1    1.14    0.76
  -3  11   1   -0.27    0.54
  -3  11   1    1.45    0.75
  -2  11   1    1.63    0.68
  -2  11   1    0.36    0.54
  -1  11   1    8.26    1.05
   0  11   1    1.45    0.66
   1  11   1    4.84    1.02
   2  11   1    0.18    0.66
  -4  12   1    1.61    0.98
  -3  12   1    1.70    0.87
  -3  12   1   -0.26    0.52
  -2  12   1    1.28    0.70
  -2  12   1   -0.67    0.39
  -1  12   1   -0.27    0.47
   0  12   1    0.06    0.56
   1  12   1    1.08    0.76
   2  12   1    0.02    0.70
  -3  13   1    0.47    0.81
  -3  13   1   -0.34    0.58
  -2  13   1    0.56    0.62
  -2  13   1    2.57    1.08
  -1  13   1   -0.01    0.58
   0  13   1   -0.40    0.57
   1  13   1   -0.31    0.67
  -1  14   1   -0.40    0.60
   0  15  -2    0.53    0.77
  -1  15  -2    1.22    0.86
   1  14  -2    0.63    0.79
   0  14  -2   -0.46    0.54
  -1  14  -2    0.65    0.64
  -2  14  -2    0.15    0.67
  -3  14  -2   -0.22    0.71
   2  13  -2    0.34    0.76
   1  13  -2    0.45    0.67
   0  13  -2   -0.61    0.43
  -1  13  -2    0.95    0.68
  -2  13  -2   -0.18    0.55
  -3  13  -2   -0.14    0.64
  -4  13  -2    1.40    0.84
   3  12  -2    1.06    0.81
   2  12  -2    0.60    0.73
   1  12  -2    1.28    0.70
   0  12  -2   -0.10    0.47
  -1  12  -2    2.48    0.80
  -2  12  -2    0.18    0.55
  -3  12  -2   -0.14    0.50
  -4  12  -2    1.95    0.80
   3  11  -2   -0.37    0.60
   2  11  -2   -0.25    0.54
   1  11  -2    0.22    0.52
   0  11  -2    2.01    0.66
  -1  11  -2   23.83    1.56
  -2  11  -2    2.05    0.71
  -3  11  -2    0.38    0.46
  -4  11  -2    0.06    0.46
   4  10  -2    0.27    0.71
   3  10  -2    0.02    0.63
   3  10  -2   -0.29    0.59
   2  10  -2    0.01    0.55
   1  10  -2   -0.63    0.37
   0  10  -2    0.37    0.46
  -1  10  -2   21.85    1.44
  -2  10  -2    0.66    0.45
  -3  10  -2    5.71    1.00
  -4  10  -2    0.15    0.43
  -5  10  -2    0.32    0.65
   4   9  -2    0.14    0.66
   4   9  -2    0.06    0.64
   3   9  -2   -0.14    0.52
   3   9  -2    0.08    0.47
   2   9  -2    0.26    0.44
   2   9  -2   -0.14    0.50
   1   9  -2    0.40    0.44
   0   9  -2    0.91    0.48
  -1   9  -2    4.03    0.72
  -2   9  -2   33.16    1.86
  -3   9  -2    7.99    1.09
  -4   9  -2   -0.27    0.35
  -5   9  -2   -0.09    0.51
   4   8  -2    0.74    0.62
   4   8  -2    0.96    0.69
   3   8  -2    0.13    0.48
   3   8  -2   -0.35    0.50
   2   8  -2   17.31    1.30
   2   8  -2   15.20    1.08
   1   8  -2    1.05    0.38
   1   8  -2    1.25    0.47
   0   8  -2    0.22    0.22
   0   8  -2    0.12    0.31
  -1   8  -2   17.27    1.14
  -2   8  -2   77.62    3.03
  -3   8  -2   13.78    1.25
  -4   8  -2    0.12    0.39
  -5   8  -2    0.14    0.45
   4   7  -2    0.21    0.49
   4   7  -2    0.44    0.56
   3   7  -2    0.00    0.38
   3   7  -2    0.25    0.52
   2   7  -2   -0.25    0.37
   2   7  -2    0.76    0.40
   1   7  -2    2.38    0.49
   1   7  -2    2.19    0.44
   0   7  -2    0.98    0.37
   0   7  -2    0.64    0.24
  -1   7  -2    2.38    0.47
  -2   7  -2    0.20    0.24
  -3   7  -2   15.75    1.26
  -4   7  -2    0.39    0.44
  -5   7  -2    0.38    0.49
   5   6  -2    0.20    0.69
   4   6  -2   -0.26    0.47
   3   6  -2    0.46    0.41
   3   6  -2    0.06    0.48
   2   6  -2    2.49    0.54
   2   6  -2    2.71    0.62
   1   6  -2   35.83    1.41
   1   6  -2   35.41    1.45
   0   6  -2   19.17    0.80
   0   6  -2   19.67    1.01
  -1   6  -2   -0.04    0.12
  -1   6  -2    0.03    0.10
  -2   6  -2   15.38    1.08
  -2   6  -2   15.80    0.57
  -3   6  -2    0.01    0.28
  -4   6  -2    4.35    0.88
  -5   6  -2    0.17    0.41
   5   5  -2   -0.69    0.54
   4   5  -2    0.00    0.49
   3   5  -2    0.24    0.36
   3   5  -2   -0.08    0.40
   2   5  -2    2.10    0.52
   2   5  -2    1.62    0.43
   1   5  -2    1.64    0.36
   1   5  -2    1.14    0.34
   0   5  -2   56.47    1.93
   0   5  -2   59.82    1.68
  -1   5  -2   10.12    0.74
  -1   5  -2   11.22    0.41
  -2   5  -2    6.14    0.75
  -3   5  -2    4.46    0.76
  -3   5  -2    4.65    0.46
  -4   5  -2    0.43    0.38
  -5   5  -2    0.46    0.40
   5   4  -2    0.61    0.66
   4   4  -2    1.41    0.62
   3   4  -2    0.33    0.25
   3   4  -2    0.99    0.47
   2   4  -2    1.52    0.42
   2   4  -2    0.04    0.16
   1   4  -2   16.30    0.82
   1   4  -2   16.86    0.80
   0   4  -2   16.89    0.65
   0   4  -2   16.74    0.78
  -1   4  -2   13.33    0.46
  -1   4  -2   14.92    0.82
  -2   4  -2    3.79    0.59
  -2   4  -2    3.63    0.32
  -3   4  -2    8.70    0.65
  -3   4  -2    7.81    0.82
  -4   4  -2    1.16    0.52
  -4   4  -2    1.26    0.48
  -5   4  -2    1.49    0.55
   5   3  -2    0.37    0.66
   4   3  -2   -0.01    0.40
   3   3  -2    5.42    0.79
   2   3  -2    0.20    0.31
   2   3  -2    0.01    0.19
  -2  -3   2    0.05    0.18
   1   3  -2   31.28    1.11
   1   3  -2   31.78    1.17
   0   3  -2   34.39    0.99
   0   3  -2   32.58    1.13
  -1   3  -2   26.44    1.14
  -1   3  -2   25.38    0.78
  -2   3  -2    0.88    0.26
  -3   3  -2    0.07    0.29
  -4   3  -2    2.19    0.63
  -5   3  -2    2.46    0.83
   5   2  -2    0.06    0.54
   4   2  -2   -0.12    0.34
   3   2  -2    0.32    0.31
   2   2  -2    1.69    0.38
   2   2  -2    1.83    0.41
  -2  -2   2    1.44    0.30
   1   2  -2  124.98    3.26
   1   2  -2  125.27    3.22
   0   2  -2  710.39   15.94
  -1   2  -2   76.89    1.98
  -2   2  -2    0.62    0.25
  -3   2  -2    2.62    0.53
  -4   2  -2   17.27    1.24
  -5   2  -2   -0.17    0.55
   5   1  -2    0.22    0.57
   4   1  -2    2.30    0.66
   3   1  -2    0.26    0.29
  -3  -1   2   -0.19    0.28
   2   1  -2    5.38    0.52
  -2  -1   2    7.46    0.59
   1   1  -2   78.17    2.13
  -1  -1   2   76.64    2.37
   0   1  -2  143.63    3.36
  -1   1  -2   51.43    1.47
  -2   1  -2    2.66    0.42
  -3   1  -2    2.02    0.53
  -4   1  -2    0.04    0.44
  -5   1  -2    3.43    0.99
   6   0  -2    0.97    0.81
  -6   0   2    0.46    0.85
   5   0  -2    0.18    0.51
   4   0  -2    0.07    0.39
   3   0  -2    0.51    0.34
  -3   0   2    0.08    0.31
   2   0  -2   17.57    0.91
  -2   0   2   16.99    1.04
   0   0  -2    3.62    0.18
  -1   0  -2 1000.00   22.52
  -2   0  -2   23.65    1.12
  -3   0  -2   -0.24    0.29
  -4   0  -2   -0.14    0.47
  -5   0  -2    0.18    0.63
   6  -1  -2   -0.07    0.64
   5  -1  -2    0.93    0.60
   4  -1  -2    0.21    0.34
  -4   1   2    0.00    0.46
   3  -1  -2   23.56    1.22
  -3   1   2   20.61    1.44
   2  -1  -2    0.14    0.18
  -2   1   2    0.29    0.32
  -2   1   2    0.43    0.23
   1  -1  -2   13.88    0.54
   0  -1  -2    2.70    0.18
   0   1   2    3.35    0.36
   0   1   2    2.08    0.31
  -1  -1  -2  465.67   10.87
   1   1   2  471.34   11.53
  -2  -1  -2   54.87    1.99
  -3  -1  -2    1.13    0.48
  -4  -1  -2    0.72    0.58
  -5  -1  -2    0.29    0.72
   5  -2  -2    0.15    0.43
   4  -2  -2    0.37    0.36
  -4   2   2    0.45    0.28
  -4   2   2   -0.29    0.40
   3  -2  -2    1.58    0.42
  -3   2   2    1.51    0.54
  -3   2   2    1.62    0.40
  -2   2   2   12.73    0.73
  -2   2   2   12.59    1.06
   1  -2  -2    1.56    0.16
  -1   2   2    2.10    0.25
  -1   2   2    1.66    0.43
   0   2   2    5.74    0.51
   0   2   2    4.83    0.43
  -1  -2  -2   94.82    2.67
   1   2   2   96.04    2.89
  -2  -2  -2  140.67    4.11
   2   2   2  139.28    4.38
   2   2   2  147.10    4.08
  -3  -2  -2    1.38    0.55
   3   2   2    1.35    0.49
  -4  -2  -2    1.62    0.70
  -5  -2  -2    0.22    0.73
  -5   3   2    0.09    0.61
   4  -3  -2    0.07    0.31
  -4   3   2    0.28    0.51
  -4   3   2    0.20    0.30
   3  -3  -2    2.30    0.44
  -3   3   2    2.30    0.47
  -3   3   2    1.14    0.54
   2  -3  -2   69.46    1.99
  -2   3   2   68.84    2.96
  -2   3   2   67.09    2.23
  -1   3   2   10.86    0.95
  -1   3   2   11.99    0.63
   0  -3  -2    0.18    0.11
   0   3   2    0.57    0.27
   0   3   2    0.23    0.27
  -1  -3  -2    1.49    0.32
   1   3   2    2.49    0.51
  -2  -3  -2    4.53    0.67
   2   3   2    4.66    0.77
   2   3   2    6.46    0.72
  -3  -3  -2    1.98    0.64
  -4  -3  -2    0.32    0.63
  -5  -3  -2   -0.23    0.71
  -5   4   2    0.45    0.64
  -4   4   2    0.35    0.54
   3  -4  -2    0.04    0.22
  -3   4   2    0.94    0.36
  -3   4   2    0.63    0.45
   2  -4  -2    7.49    0.42
  -2   4   2    9.39    0.66
  -2   4   2    8.37    0.96
  -1   4   2   21.81    1.42
  -1   4   2   21.67    0.98
   0  -4  -2    4.20    0.30
   0   4   2    4.95    0.51
   0   4   2    5.46    0.69
   1   4   2    9.34    0.81
   1   4   2    9.87    0.56
  -2  -4  -2    0.80    0.43
   2   4   2    0.27    0.43
  -3  -4  -2    2.55    0.74
   3   4   2    2.99    0.80
  -4  -4  -2    1.37    0.72
  -5   5   2    1.29    0.79
  -4   5   2    0.74    0.63
  -3   5   2    1.51    0.61
  -3   5   2    2.06    0.49
  -2   5   2   11.39    0.79
  -1   5   2    3.51    0.71
  -1   5   2    4.96    0.56
   0  -5  -2    4.77    0.34
   0   5   2    4.42    0.59
   0   5   2    4.09    0.69
  -1  -5  -2    1.19    0.35
   1   5   2    4.77    0.72
  -2  -5  -2    0.39    0.36
   2   5   2    0.76    0.51
  -3  -5  -2    0.50    0.52
   3   5   2    0.51    0.61
  -4  -5  -2    0.09    0.64
  -5   6   2    0.70    0.68
  -4   6   2    2.38    0.82
  -3   6   2    2.24    0.74
  -3   6   2    2.04    0.50
  -2   6   2    2.82    0.52
  -2   6   2    2.25    0.69
  -1   6   2    2.29    0.62
  -1   6   2    2.21    0.47
   0  -6  -2    0.21    0.20
   0   6   2    0.01    0.34
   0   6   2   -0.14    0.27
   1   6   2    2.50    0.62
  -2  -6  -2   -0.21    0.33
   2   6   2   -0.33    0.44
  -3  -6  -2    0.84    0.57
   3   6   2    2.54    0.87
  -4  -6  -2   -0.08    0.64
  -5   7   2    0.43    0.71
  -4   7   2    3.91    1.04
  -3   7   2    1.26    0.44
  -3   7   2    1.27    0.72
  -2   7   2    1.39    0.63
  -2   7   2    0.96    0.43
  -1   7   2    0.30    0.31
  -1   7   2   -0.01    0.37
   0   7   2    0.44    0.46
   0   7   2    0.23    0.34
  -1  -7  -2    0.72    0.35
   1   7   2    1.91    0.62
  -2  -7  -2    0.01    0.38
   2   7   2    0.21    0.52
  -3  -7  -2    1.37    0.65
   3   7   2    3.25    0.96
  -4  -7  -2    0.38    0.75
  -5   8   2    0.25    0.82
  -4   8   2    0.21    0.64
  -3   8   2    0.24    0.50
  -3   8   2   -0.01    0.32
  -2   8   2    2.11    0.78
  -2   8   2    1.82    0.54
  -1   8   2   12.43    0.95
  -1   8   2   11.91    1.29
   0   8   2    7.88    0.93
   1   8   2   10.51    1.08
  -2  -8  -2   -0.13    0.40
   2   8   2    0.50    0.59
  -3  -8  -2    0.19    0.61
   3   8   2    0.48    0.72
   4   8   2    1.24    0.79
  -5   9   2    1.05    0.87
  -4   9   2    1.23    0.82
  -3   9   2    0.70    0.57
  -3   9   2    0.00    0.46
  -2   9   2    0.30    0.58
  -2   9   2   -0.15    0.36
  -1   9   2    0.09    0.40
  -1   9   2    0.17    0.40
   0   9   2   30.98    1.69
   1   9   2    2.02    0.73
   2   9   2    0.09    0.61
  -3  -9  -2   -0.65    0.64
   3   9   2    0.44    0.73
  -4  10   2   -0.04    0.71
  -3  10   2    0.59    0.71
  -3  10   2   -0.61    0.43
  -2  10   2   -0.41    0.37
  -2  10   2    0.66    0.60
  -1  10   2   -0.17    0.41
  -1  10   2    0.49    0.65
   0  10   2    2.89    0.77
   1  10   2    2.74    0.86
   2  10   2   -0.49    0.57
   3  10   2    0.06    0.73
  -4  11   2    0.58    0.86
  -3  11   2    0.30    0.57
  -3  11   2    1.75    0.96
  -2  11   2   -0.12    0.42
  -2  11   2    0.80    0.75
  -1  11   2    0.72    0.53
   0  11   2    1.11    0.66
   1  11   2   12.06    1.49
   2  11   2   -0.01    0.63
  -3  12   2    0.21    0.59
  -3  12   2    1.25    0.99
  -2  12   2    1.73    0.67
  -2  12   2    1.11    0.90
  -1  12   2    0.18    0.52
   0  12   2   -1.04    0.47
   1  12   2    0.49    0.74
  -2  13   2   -0.08    0.54
  -1  13   2    0.39    0.65
   0  13   2    0.77    0.72
   0  15  -3   -0.35    0.62
  -1  15  -3    2.22    0.90
  -2  15  -3    0.70    0.85
   1  14  -3    1.33    0.84
   0  14  -3   -0.05    0.62
  -1  14  -3    2.63    0.91
  -2  14  -3    0.25    0.69
  -3  14  -3   -0.64    0.65
   2  13  -3    0.24    0.73
   1  13  -3    0.29    0.66
   0  13  -3    2.87    0.85
  -1  13  -3   -0.04    0.55
  -2  13  -3    4.08    1.05
  -3  13  -3   -0.27    0.47
  -4  13  -3    0.31    0.61
   3  12  -3    0.51    0.74
   2  12  -3    1.55    0.79
   1  12  -3    0.21    0.57
   0  12  -3    0.79    0.58
  -1  12  -3    0.54    0.53
  -2  12  -3    1.17    0.66
  -3  12  -3    0.01    0.45
  -4  12  -3    0.12    0.55
   3  11  -3    0.15    0.68
   2  11  -3    0.40    0.57
   1  11  -3    1.86    0.66
   0  11  -3    2.15    0.67
  -1  11  -3   -0.08    0.40
  -2  11  -3    2.62    0.72
  -3  11  -3    0.17    0.39
  -4  11  -3    0.23    0.47
   4  10  -3    0.25    0.75
   4  10  -3   -0.39    0.67
   3  10  -3    0.90    0.72
   3  10  -3    0.75    0.63
   2  10  -3   -0.23    0.40
   2  10  -3   -0.06    0.50
   1  10  -3   -0.25    0.36
   0  10  -3    3.46    0.72
  -1  10  -3    1.95    0.61
  -2  10  -3    6.88    0.98
  -3  10  -3    2.11    0.68
  -4  10  -3    0.52    0.51
  -5  10  -3    0.28    0.60
   4   9  -3    0.60    0.69
   4   9  -3    0.82    0.68
   3   9  -3    1.00    0.60
   3   9  -3    0.00    0.55
   2   9  -3    0.54    0.43
   2   9  -3    0.26    0.54
   1   9  -3    0.70    0.37
   1   9  -3    1.12    0.50
   0   9  -3    1.01    0.45
  -1   9  -3    5.30    0.79
  -2   9  -3    1.75    0.53
  -3   9  -3    0.40    0.43
  -4   9  -3    4.21    0.97
  -5   9  -3    0.14    0.53
   4   8  -3    0.99    0.65
   4   8  -3    1.51    0.74
   3   8  -3   -0.25    0.49
   3   8  -3    0.21    0.46
   2   8  -3    1.42    0.50
   2   8  -3    0.97    0.54
   1   8  -3   10.34    0.84
   1   8  -3   10.27    0.75
   0   8  -3    0.03    0.26
   0   8  -3   -0.08    0.21
  -1   8  -3    0.80    0.34
  -2   8  -3    0.19    0.28
  -3   8  -3   45.61    2.39
  -4   8  -3   -0.06    0.37
  -5   8  -3   -0.12    0.48
   4   7  -3    0.56    0.41
   4   7  -3   -0.08    0.51
   3   7  -3    1.70    0.68
   3   7  -3    3.39    0.75
   2   7  -3    0.03    0.33
   2   7  -3    0.19    0.40
   1   7  -3    6.85    0.59
   1   7  -3    6.42    0.64
   0   7  -3    1.46    0.42
   0   7  -3    1.11    0.28
  -1   7  -3   -0.08    0.16
  -1   7  -3    0.04    0.13
  -2   7  -3    4.55    0.72
  -3   7  -3    2.86    0.68
  -4   7  -3    5.32    1.02
  -5   7  -3    0.24    0.48
   5   6  -3   -0.41    0.60
   4   6  -3    1.87    0.70
   3   6  -3    0.14    0.27
   3   6  -3    2.29    0.62
   2   6  -3    1.02    0.41
   2   6  -3    0.50    0.39
   1   6  -3    1.39    0.36
   1   6  -3    1.05    0.35
   0   6  -3   69.08    2.31
   0   6  -3   67.97    2.01
  -1   6  -3   17.87    0.64
  -1   6  -3   14.66    0.98
  -2   6  -3    3.71    0.29
  -2   6  -3    4.20    0.65
  -3   6  -3   -0.06    0.26
  -4   6  -3    4.20    0.88
  -5   6  -3    0.46    0.47
   5   5  -3   -0.38    0.59
   4   5  -3    4.74    0.93
   3   5  -3   -0.24    0.31
   3   5  -3    0.05    0.42
   2   5  -3   -0.20    0.22
   2   5  -3   -0.24    0.28
   1   5  -3    0.08    0.20
   1   5  -3    0.03    0.19
   0   5  -3  135.46    3.42
   0   5  -3  132.91    3.77
  -1   5  -3   44.17    1.22
  -1   5  -3   41.19    1.71
  -2   5  -3    9.44    0.53
  -2   5  -3   10.36    0.87
  -3   5  -3    0.66    0.31
  -3   5  -3    0.55    0.39
  -4   5  -3    2.63    0.67
  -5   5  -3    2.35    0.70
   5   4  -3   -0.17    0.60
   4   4  -3    0.08    0.41
   3   4  -3   26.53    1.42
   3   4  -3   23.28    1.40
   2   4  -3    0.39    0.33
   2   4  -3    0.59    0.31
   1   4  -3    0.36    0.21
   1   4  -3    0.23    0.20
   0   4  -3   22.19    0.81
   0   4  -3   21.15    0.93
  -1   4  -3   22.54    0.72
  -1   4  -3   22.37    1.11
  -2   4  -3   20.04    1.20
  -2   4  -3   18.76    0.83
  -3   4  -3    0.64    0.32
  -4   4  -3    0.27    0.44
  -6   4  -3    1.60    0.58
   5   3  -3    0.07    0.55
   4   3  -3    0.42    0.47
   3   3  -3    9.56    0.85
   2   3  -3    1.40    0.39
   2   3  -3    1.45    0.39
  -2  -3   3    1.64    0.33
   1   3  -3   10.69    0.61
   1   3  -3   11.48    0.54
   0   3  -3   14.48    0.66
  -1   3  -3   62.34    1.64
  -1   3  -3   59.87    2.05
  -2   3  -3   33.12    1.23
  -3   3  -3   -0.04    0.26
  -4   3  -3    3.25    0.69
  -5   3  -3    0.45    0.56
   5   2  -3    0.48    0.59
   4   2  -3   -0.01    0.33
   3   2  -3    3.04    0.61
  -3  -2   3    3.21    0.53
   2   2  -3   31.19    1.35
  -2  -2   3   30.75    1.27
   1   2  -3    8.94    0.52
  -1  -2   3    8.94    0.56
   0   2  -3   23.19    0.75
  -1   2  -3    0.37    0.14
  -2   2  -3    6.13    0.49
  -3   2  -3    2.87    0.56
  -4   2  -3    1.79    0.64
  -5   2  -3    1.16    0.74
   6   1  -3    0.37    0.75
   5   1  -3    0.07    0.53
   4   1  -3    0.34    0.42
   3   1  -3    4.10    0.66
  -3  -1   3    3.25    0.63
   2   1  -3    6.21    0.54
  -2  -1   3    6.32    0.60
   1   1  -3  279.85    6.62
   0   1  -3    2.94    0.20
   0  -1   3    3.28    0.37
  -1   1  -3   88.88    2.36
  -2   1  -3    4.74    0.56
  -3   1  -3    1.14    0.47
  -4   1  -3    1.89    0.69
  -5   1  -3    0.41    0.64
   6   0  -3    0.72    0.72
   5   0  -3    1.05    0.65
   4   0  -3    0.41    0.38
  -4   0   3    0.03    0.54
   3   0  -3    0.78    0.35
  -3   0   3    0.97    0.47
  -2   0   3    1.07    0.39
   0   0  -3   55.67    1.43
   0   0   3   54.23    1.82
  -1   0  -3   20.48    0.81
  -2   0  -3   27.76    1.25
  -3   0  -3    3.97    0.72
  -4   0  -3    0.43    0.55
  -5   0  -3   -0.75    0.55
   5  -1  -3    1.57    0.65
   4  -1  -3   -0.02    0.30
  -4   1   3    0.06    0.54
   3  -1  -3   -0.07    0.21
  -3   1   3    0.89    0.50
  -3   1   3    0.81    0.27
   2  -1  -3    0.25    0.20
  -2   1   3    0.36    0.18
  -2   1   3    0.05    0.33
   1  -1  -3   17.38    0.64
  -1   1   3   15.36    0.97
   0  -1  -3   17.94    0.62
   0   1   3   18.38    0.77
  -1  -1  -3   17.60    0.78
   1   1   3   18.27    0.98
  -2  -1  -3  189.76    5.12
  -3  -1  -3    5.20    0.83
  -4  -1  -3    0.61    0.55
  -5  -1  -3   -0.17    0.65
   4  -2  -3    1.65    0.53
  -4   2   3    3.82    0.95
   3  -2  -3    1.50    0.44
  -3   2   3    1.21    0.58
  -3   2   3    0.84    0.29
   2  -2  -3   32.62    1.21
  -2   2   3   30.11    1.17
  -2   2   3   29.92    1.74
   1  -2  -3    6.18    0.33
  -1   2   3    6.29    0.41
  -1   2   3    5.95    0.74
   0  -2  -3    2.01    0.19
   0   2   3    2.27    0.41
   0   2   3    1.79    0.35
  -1  -2  -3    3.30    0.41
   1   2   3    2.73    0.32
   1   2   3    2.41    0.51
  -2  -2  -3    7.15    0.67
   2   2   3    6.04    0.84
  -3  -2  -3   13.35    1.10
  -4  -2  -3    1.85    0.69
  -5  -2  -3    0.24    0.71
  -5   3   3   -0.04    0.75
  -4   3   3    2.70    0.89
   3  -3  -3    1.00    0.36
  -3   3   3    0.77    0.51
  -3   3   3    0.61    0.29
   2  -3  -3    1.50    0.31
  -2   3   3    2.81    0.38
  -2   3   3    2.62    0.65
   1  -3  -3  132.67    3.09
  -1   3   3  125.71    4.44
  -1   3   3  124.87    3.46
   0  -3  -3    0.11    0.12
   0   3   3   -0.32    0.23
  -1  -3  -3   10.80    0.66
   1   3   3   12.03    0.88
   1   3   3   11.32    0.62
  -2  -3  -3    0.19    0.31
   2   3   3    0.58    0.44
  -3  -3  -3   26.46    1.63
  -4  -3  -3    0.06    0.55
  -5  -3  -3   -0.09    0.74
  -5   4   3    1.81    0.93
  -4   4   3    1.82    0.81
  -3   4   3    0.67    0.55
  -3   4   3    0.55    0.29
  -2   4   3    6.47    1.01
  -2   4   3    6.55    0.54
   1  -4  -3   29.59    0.85
  -1   4   3   28.97    1.76
  -1   4   3   29.15    1.20
   0  -4  -3   17.46    0.70
   0   4   3   18.14    0.98
   0   4   3   17.66    1.16
  -1  -4  -3   -0.03    0.20
   1   4   3   -0.27    0.30
   1   4   3   -0.19    0.20
  -2  -4  -3   -0.10    0.27
   2   4   3    0.20    0.44
  -3  -4  -3    0.09    0.43
   3   4   3    0.18    0.50
  -4  -4  -3    1.34    0.80
  -5   5   3    1.02    0.84
  -4   5   3   13.52    1.60
  -3   5   3    3.57    0.56
  -3   5   3    2.75    0.85
  -2   5   3    8.36    0.68
  -2   5   3    7.95    1.16
  -1   5   3   15.71    0.90
  -1   5   3   18.23    1.43
   0  -5  -3   19.72    0.80
   0   5   3   21.57    1.14
   0   5   3   19.55    1.32
  -1  -5  -3    1.98    0.41
   1   5   3    2.78    0.64
  -2  -5  -3    0.33    0.38
   2   5   3    0.19    0.50
  -3  -5  -3    0.10    0.47
   3   5   3   -0.03    0.47
  -4  -5  -3    0.32    0.67
  -5   6   3    0.43    0.79
  -4   6   3    0.61    0.67
  -3   6   3    1.09    0.70
  -3   6   3    0.79    0.36
  -2   6   3    2.49    0.81
  -2   6   3    2.57    0.52
  -1   6   3    1.64    0.63
  -1   6   3    1.20    0.40
   0  -6  -3   27.00    1.00
   0   6   3   24.29    1.33
   0   6   3   26.12    1.62
  -1  -6  -3    7.83    0.66
   1   6   3    8.98    1.06
  -2  -6  -3   -0.26    0.36
   2   6   3    0.08    0.57
  -3  -6  -3   -0.54    0.46
   3   6   3    0.05    0.59
  -4  -6  -3   -0.67    0.56
  -5   7   3   -0.05    0.78
  -4   7   3   -0.34    0.64
  -3   7   3    6.76    1.29
  -3   7   3    7.79    0.90
  -2   7   3    0.07    0.34
  -2   7   3    0.41    0.56
  -1   7   3    1.63    0.47
  -1   7   3    1.19    0.67
   0   7   3   11.11    1.18
   0   7   3   12.22    0.98
  -1  -7  -3    0.05    0.31
   1   7   3   -0.37    0.45
  -2  -7  -3    1.07    0.51
   2   7   3    0.88    0.72
  -3  -7  -3    0.18    0.55
   3   7   3   -0.05    0.54
  -4  -7  -3    0.26    0.79
  -5   8   3    0.87    0.97
  -4   8   3    0.54    0.80
  -3   8   3    1.44    0.60
  -3   8   3    0.72    0.74
  -2   8   3    1.33    0.50
  -2   8   3    1.27    0.76
  -1   8   3    1.19    0.48
  -1   8   3    0.17    0.63
   0   8   3    3.99    0.76
   1   8   3   -0.30    0.47
  -2  -8  -3   -0.07    0.43
   2   8   3    0.22    0.63
  -3  -8  -3    0.18    0.62
   3   8   3   -0.11    0.67
  -5   9   3   -0.13    0.91
  -4   9   3    0.10    0.72
  -3   9   3    0.28    0.49
  -3   9   3    0.73    0.76
  -2   9   3    0.67    0.66
  -2   9   3    0.61    0.46
  -1   9   3    0.29    0.42
  -1   9   3    0.14    0.43
   0   9   3   -0.29    0.45
   1   9   3    7.77    1.19
   2   9   3    0.15    0.63
   3   9   3    0.07    0.70
  -4  10   3    0.56    0.87
  -3  10   3    0.31    0.75
  -3  10   3   -0.17    0.48
  -2  10   3    0.05    0.43
  -2  10   3    1.03    0.83
  -1  10   3    0.74    0.84
  -1  10   3   -0.25    0.45
   0  10   3    0.45    0.57
   1  10   3    1.93    0.84
   2  10   3   -0.25    0.58
  -4  11   3    0.65    1.10
  -3  11   3    0.39    0.90
  -2  11   3    0.42    0.47
  -2  11   3    0.37    0.84
  -1  11   3   -0.29    0.46
   0  11   3    1.23    0.72
   1  11   3    0.21    0.63
   2  11   3    2.79    1.04
  -3  12   3   -0.10    0.88
  -2  12   3    0.40    0.59
  -2  12   3    0.80    1.12
  -1  12   3    0.33    0.56
   0  12   3    0.04    0.61
   1  12   3   -0.44    0.65
  -1  13   3    1.11    0.77
   1  15  -4   -0.24    0.71
   0  15  -4   -0.20    0.65
  -1  15  -4    0.93    0.81
  -2  15  -4   -0.09    0.64
   2  14  -4   -0.44    0.63
   1  14  -4   -0.05    0.66
   0  14  -4    1.20    0.75
  -1  14  -4   -0.55    0.56
  -2  14  -4   -0.77    0.59
  -3  14  -4    0.22    0.69
   2  13  -4   -0.15    0.66
   1  13  -4    0.21    0.59
   0  13  -4    0.20    0.58
  -1  13  -4   -0.41    0.44
  -2  13  -4    0.22    0.57
  -3  13  -4    1.32    0.75
  -4  13  -4    0.19    0.63
   3  12  -4    0.39    0.76
   2  12  -4   -0.13    0.51
   1  12  -4   -0.56    0.40
   0  12  -4    0.29    0.51
  -1  12  -4    0.26    0.50
  -2  12  -4   -0.02    0.41
  -3  12  -4    0.85    0.58
  -4  12  -4    0.18    0.54
   3  11  -4    0.16    0.63
   3  11  -4    0.49    0.68
   2  11  -4    0.48    0.60
   1  11  -4    4.41    0.83
   0  11  -4    4.67    0.86
  -1  11  -4    1.83    0.67
  -2  11  -4   -0.12    0.32
  -3  11  -4    0.92    0.54
  -4  11  -4   -0.24    0.47
   4  10  -4    1.75    0.87
   3  10  -4   -0.01    0.55
   3  10  -4    0.43    0.63
   2  10  -4    1.28    0.64
   2  10  -4    1.13    0.53
   1  10  -4   -0.21    0.35
   0  10  -4    0.30    0.40
  -1  10  -4    3.33    0.69
  -2  10  -4   38.74    2.16
  -3  10  -4    0.09    0.39
  -4  10  -4    0.10    0.48
  -5  10  -4   -0.10    0.51
   4   9  -4    0.80    0.72
   3   9  -4   -0.11    0.46
   3   9  -4   -0.07    0.51
   2   9  -4   -0.05    0.43
   2   9  -4    0.17    0.41
   1   9  -4    0.19    0.39
   1   9  -4   -0.32    0.28
   0   9  -4    0.89    0.44
  -1   9  -4    0.14    0.24
  -2   9  -4    0.05    0.25
  -3   9  -4   16.59    1.44
  -4   9  -4   -0.06    0.42
  -5   9  -4    0.46    0.57
   4   8  -4    0.61    0.61
   3   8  -4    3.61    0.76
   3   8  -4    8.56    1.11
   2   8  -4    0.25    0.47
   2   8  -4   -0.03    0.32
   1   8  -4    0.61    0.33
   1   8  -4    0.49    0.36
   0   8  -4    0.70    0.29
   0   8  -4    1.54    0.47
  -1   8  -4    0.25    0.19
  -1   8  -4    1.19    0.40
  -2   8  -4    5.13    0.80
  -3   8  -4   15.64    1.32
  -4   8  -4   -0.31    0.36
  -5   8  -4    0.27    0.52
   4   7  -4    0.59    0.61
   3   7  -4    0.23    0.46
   3   7  -4    0.50    0.55
   2   7  -4    0.14    0.23
   2   7  -4    2.27    0.55
   1   7  -4    8.02    0.65
   1   7  -4    7.73    0.65
   0   7  -4   10.05    0.78
   0   7  -4   10.93    0.67
  -1   7  -4    1.58    0.27
  -1   7  -4    2.79    0.51
  -2   7  -4    0.69    0.22
  -2   7  -4    0.41    0.29
  -3   7  -4    4.94    0.90
  -4   7  -4    6.88    1.16
  -5   7  -4    0.01    0.42
   5   6  -4   -0.34    0.59
   4   6  -4    1.18    0.63
   3   6  -4   -0.03    0.29
   3   6  -4    0.50    0.47
   2   6  -4    0.61    0.39
   2   6  -4    0.16    0.32
   0   6  -4    5.21    0.51
   0   6  -4    5.27    0.42
  -1   6  -4   12.66    0.90
  -2   6  -4    1.15    0.25
  -2   6  -4    1.28    0.44
  -3   6  -4    3.19    0.74
  -4   6  -4    1.70    0.67
  -5   6  -4    1.63    0.63
   5   5  -4    0.34    0.68
   4   5  -4    0.02    0.42
   3   5  -4    2.50    0.62
   3   5  -4    3.14    0.68
   2   5  -4   10.08    0.76
   2   5  -4    8.91    0.75
   1   5  -4    5.10    0.48
   1   5  -4    5.88    0.48
   0   5  -4   12.10    0.72
   0   5  -4   12.22    0.62
  -1   5  -4    2.14    0.27
  -1   5  -4    1.90    0.40
  -2   5  -4    0.09    0.17
  -2   5  -4    0.03    0.22
  -3   5  -4    1.18    0.46
  -3   5  -4    0.64    0.30
  -4   5  -4    0.25    0.41
  -4   5  -4    0.19    0.36
  -5   5  -4    1.00    0.45
   5   4  -4   -0.17    0.58
   4   4  -4   -0.08    0.38
   3   4  -4    0.55    0.39
   2   4  -4    9.71    0.68
   2   4  -4    9.99    0.75
  -2  -4   4    9.43    0.63
   1   4  -4    0.65    0.22
   1   4  -4    1.26    0.31
   0   4  -4   18.36    0.86
  -1   4  -4   10.37    0.46
  -1   4  -4    9.86    0.73
  -2   4  -4    0.48    0.23
  -3   4  -4    3.20    0.51
  -4   4  -4    3.62    0.69
  -5   4  -4    0.67    0.58
   5   3  -4   -0.11    0.52
   4   3  -4    0.39    0.43
   3   3  -4    2.23    0.55
   2   3  -4    0.57    0.29
   2   3  -4    1.17    0.37
  -2  -3   4    1.12    0.33
   1   3  -4   47.63    1.55
   1   3  -4   44.97    1.31
  -1  -3   4   44.08    1.61
   0   3  -4   33.34    1.01
   0   3  -4   29.28    1.10
  -1   3  -4    2.23    0.22
  -2   3  -4    6.07    0.49
  -3   3  -4    1.49    0.45
  -4   3  -4    0.79    0.52
  -5   3  -4    0.69    0.66
   5   2  -4   -0.30    0.52
   4   2  -4    0.35    0.45
   3   2  -4    0.29    0.33
  -3  -2   4    0.20    0.32
   2   2  -4   30.81    1.33
  -2  -2   4   29.54    1.31
   1   2  -4   23.73    0.95
  -1  -2   4   24.01    1.07
   0   2  -4   12.37    0.52
  -1   2  -4   22.33    0.83
  -2   2  -4    0.59    0.26
  -3   2  -4    0.18    0.28
  -4   2  -4    0.76    0.54
  -5   2  -4    1.77    0.78
   6   1  -4    0.34    0.67
   5   1  -4    3.24    0.87
   4   1  -4    0.31    0.44
   3   1  -4    0.89    0.42
  -3  -1   4    0.29    0.40
  -2  -1   4    6.80    0.66
   1   1  -4   14.99    0.68
  -1  -1   4   14.83    0.84
   0   1  -4   29.90    0.93
  -1   1  -4   47.05    1.46
  -2   1  -4    0.87    0.32
  -3   1  -4    3.07    0.62
  -4   1  -4    1.92    0.69
  -5   1  -4    0.56    0.70
   6   0  -4   -0.30    0.65
   5   0  -4    1.61    0.71
   4   0  -4    0.70    0.47
  -4   0   4    1.10    0.72
   3   0  -4    0.53    0.32
  -3   0   4   -0.05    0.34
   2   0  -4    5.24    0.58
  -2   0   4    4.46    0.67
   0   0  -4    5.48    0.31
   0   0   4    5.42    0.42
   0   0   4    4.79    0.49
  -1   0  -4    5.84    0.41
  -2   0  -4  111.12    3.26
  -3   0  -4    5.60    0.81
  -4   0  -4    3.32    0.84
  -5   0  -4    0.25    0.64
   5  -1  -4   -0.19    0.45
   4  -1  -4   10.11    1.12
   3  -1  -4    0.46    0.35
  -3   1   4    0.01    0.44
   2  -1  -4   17.89    0.88
  -2   1   4   17.14    1.23
  -2   1   4   17.19    0.70
   1  -1  -4   35.32    1.11
  -1   1   4   32.00    1.56
   0  -1  -4    0.03    0.08
   0   1   4   -0.16    0.22
   0   1   4   -0.11    0.20
  -1  -1  -4   10.46    0.59
   1   1   4    9.34    0.75
  -2  -1  -4   43.34    1.72
  -3  -1  -4    2.50    0.63
  -4  -1  -4    2.55    0.82
  -5  -1  -4   -0.16    0.64
  -5   2   4    0.22    0.81
   4  -2  -4    1.88    0.58
  -4   2   4    2.54    0.89
   3  -2  -4    0.36    0.31
  -3   2   4    0.63    0.53
   2  -2  -4    1.23    0.32
  -2   2   4    0.88    0.21
  -2   2   4    0.91    0.51
   1  -2  -4    0.31    0.14
  -1   2   4    0.02    0.35
  -1   2   4    0.35    0.23
   0  -2  -4    0.08    0.11
   0   2   4    0.02    0.18
   0   2   4    0.14    0.28
  -1  -2  -4    9.79    0.60
   1   2   4   10.05    0.62
   1   2   4    9.51    0.83
  -2  -2  -4    0.00    0.27
   2   2   4   -0.14    0.32
  -3  -2  -4   23.06    1.47
  -4  -2  -4    0.58    0.61
  -5  -2  -4   -0.11    0.63
  -5   3   4   -0.46    0.67
  -4   3   4    0.34    0.66
   3  -3  -4    0.06    0.25
  -3   3   4    0.14    0.50
   2  -3  -4    3.12    0.43
  -2   3   4    2.94    0.41
  -2   3   4    3.47    0.81
   1  -3  -4   13.66    0.56
  -1   3   4   13.77    0.73
  -1   3   4   11.78    1.09
   0  -3  -4    0.79    0.20
   0   3   4    0.62    0.42
   0   3   4    0.39    0.35
  -1  -3  -4   10.75    0.66
   1   3   4   10.06    0.65
   1   3   4   10.90    0.90
  -2  -3  -4   11.50    0.87
   2   3   4   10.69    1.05
  -3  -3  -4    2.81    0.72
  -4  -3  -4    0.32    0.57
  -5   4   4   -0.03    0.74
  -4   4   4    0.79    0.80
  -3   4   4    1.78    0.73
  -2   4   4    0.46    0.29
  -2   4   4    0.14    0.50
   1  -4  -4    0.43    0.14
   1  -4  -4    0.48    0.16
  -1   4   4    0.65    0.51
  -1   4   4    0.49    0.29
   0  -4  -4    2.70    0.34
   0   4   4    2.04    0.57
   0   4   4    2.65    0.55
   1   4   4    3.62    0.69
   1   4   4    4.13    0.49
  -2  -4  -4    2.55    0.56
   2   4   4    2.64    0.77
  -3  -4  -4   -0.11    0.41
  -4  -4  -4    0.55    0.65
  -5   5   4    0.05    0.76
  -4   5   4    0.99    0.86
  -3   5   4    4.43    1.07
  -2   5   4    8.51    0.69
  -2   5   4    8.41    1.29
  -1   5   4   16.00    0.93
  -1   5   4   17.42    1.47
   0  -5  -4    8.97    0.53
   0   5   4    8.15    0.92
   0   5   4    7.66    0.78
  -1  -5  -4   -0.08    0.25
   1   5   4    0.17    0.43
  -2  -5  -4    0.53    0.39
   2   5   4    0.15    0.53
  -3  -5  -4    0.37    0.49
   3   5   4    0.68    0.59
  -4  -5  -4   -0.05    0.65
  -5   6   4    0.66    0.88
  -4   6   4    0.40    0.79
  -3   6   4    3.85    1.09
  -2   6   4    1.88    0.49
  -2   6   4    1.62    0.81
  -1   6   4    0.04    0.52
  -1   6   4   -0.04    0.30
   0   6   4    3.81    0.70
   0   6   4    4.01    0.84
  -1  -6  -4    8.02    0.68
   1   6   4    7.45    1.05
  -2  -6  -4    0.07    0.38
   2   6   4   -0.06    0.58
  -3  -6  -4    0.40    0.55
   3   6   4    0.78    0.68
  -4  -6  -4    0.03    0.72
  -5   7   4   -0.15    0.90
  -4   7   4    0.94    0.94
  -3   7   4    0.70    0.81
  -2   7   4    1.51    0.86
  -2   7   4    2.10    0.53
  -1   7   4    0.50    0.70
  -1   7   4    0.29    0.39
   0   7   4    4.68    0.84
   1   7   4    1.06    0.67
  -2  -7  -4   -0.20    0.39
   2   7   4   -0.15    0.54
  -3  -7  -4    0.69    0.66
   3   7   4    0.62    0.73
  -5   8   4    1.19    1.12
  -4   8   4   -0.27    0.82
  -3   8   4    0.22    0.71
  -2   8   4    3.78    0.67
  -2   8   4    3.75    1.12
  -1   8   4    1.34    0.87
  -1   8   4    2.68    0.63
   0   8   4    0.00    0.44
   1   8   4    0.19    0.59
   2   8   4    0.62    0.74
  -3  -8  -4    0.43    0.69
   3   8   4   -0.64    0.61
  -4   9   4   -0.29    0.92
  -3   9   4   -0.14    0.74
  -2   9   4    0.61    0.44
  -2   9   4    0.15    0.78
  -1   9   4   -0.41    0.54
  -1   9   4    0.55    0.49
   0   9   4    1.72    0.69
   1   9   4    5.47    1.11
   2   9   4    1.16    0.81
   3   9   4    0.29    0.76
  -4  10   4    0.53    0.99
  -3  10   4    1.21    1.02
  -2  10   4    1.39    1.02
  -2  10   4    0.59    0.52
  -1  10   4    0.01    0.47
   0  10   4    1.15    0.65
   1  10   4    2.92    0.97
   2  10   4    1.54    0.89
  -3  11   4   -0.23    0.87
  -2  11   4   -0.66    0.86
  -2  11   4   -0.14    0.49
  -1  11   4   -0.28    0.48
   0  11   4    0.06    0.62
   1  11   4   -0.54    0.63
  -2  12   4   -0.37    0.52
  -1  12   4    0.07    0.62
   0  12   4    0.06    0.64
   1  15  -5   -0.56    0.62
   0  15  -5    0.02    0.64
  -1  15  -5    0.03    0.72
  -2  15  -5    2.67    1.04
   2  14  -5    0.81    0.84
   1  14  -5   -0.40    0.53
   0  14  -5   -0.45    0.48
  -1  14  -5    0.02    0.60
  -2  14  -5    3.64    1.05
  -3  14  -5   -0.47    0.53
   2  13  -5    0.53    0.73
   1  13  -5    0.34    0.59
   0  13  -5    0.61    0.61
  -1  13  -5    0.92    0.66
  -2  13  -5    0.82    0.60
  -3  13  -5    6.18    1.22
  -4  13  -5   -0.38    0.48
   3  12  -5    0.55    0.78
   2  12  -5    0.55    0.66
   1  12  -5    2.43    0.73
   0  12  -5    4.85    0.94
  -1  12  -5   -0.40    0.43
  -2  12  -5   -0.28    0.33
  -3  12  -5    1.52    0.68
  -4  12  -5    0.01    0.49
   3  11  -5   -0.15    0.59
   3  11  -5    0.06    0.61
   2  11  -5    0.51    0.60
   1  11  -5    0.29    0.49
   0  11  -5    0.60    0.49
  -1  11  -5    2.24    0.68
  -2  11  -5    6.33    1.02
  -3  11  -5    0.12    0.41
  -4  11  -5    1.60    0.78
   4  10  -5    1.62    0.86
   3  10  -5    0.87    0.67
   3  10  -5    0.81    0.61
   2  10  -5    0.69    0.51
   2  10  -5    0.44    0.54
   1  10  -5    0.15    0.36
   1  10  -5    0.23    0.42
   0  10  -5    0.26    0.41
  -1  10  -5    0.17    0.33
  -2  10  -5    5.61    0.90
  -3  10  -5   11.68    1.44
  -4  10  -5    2.16    0.81
  -5  10  -5   -0.29    0.54
   4   9  -5    0.88    0.76
   3   9  -5    2.07    0.69
   3   9  -5    2.08    0.75
   2   9  -5    0.36    0.41
   2   9  -5    0.24    0.45
   1   9  -5    0.74    0.41
   1   9  -5    1.48    0.44
   0   9  -5    0.02    0.28
   0   9  -5    0.11    0.34
  -1   9  -5    8.40    0.85
  -2   9  -5    2.32    0.64
  -3   9  -5    3.15    0.78
  -4   9  -5    1.19    0.66
  -5   9  -5   -0.16    0.52
   4   8  -5    0.06    0.53
   3   8  -5   -0.24    0.47
   3   8  -5    0.33    0.52
   2   8  -5    1.23    0.47
   2   8  -5    1.93    0.59
   1   8  -5    0.06    0.26
   1   8  -5   -0.04    0.29
   0   8  -5    0.23    0.30
   0   8  -5    0.42    0.28
  -1   8  -5    0.88    0.27
  -1   8  -5    0.33    0.27
  -2   8  -5    3.15    0.67
  -3   8  -5   -0.12    0.27
  -4   8  -5    9.94    1.40
  -5   8  -5    0.99    0.70
   4   7  -5    0.09    0.54
   3   7  -5    0.12    0.38
   3   7  -5    0.31    0.49
   2   7  -5    2.10    0.56
   2   7  -5    1.26    0.48
   1   7  -5    2.56    0.49
   0   7  -5   45.77    1.84
   0   7  -5   44.47    1.61
  -1   7  -5    1.85    0.47
  -1   7  -5    1.44    0.26
  -2   7  -5    0.06    0.26
  -2   7  -5    0.10    0.18
  -3   7  -5    0.11    0.34
  -4   7  -5   13.39    1.41
  -5   7  -5    1.99    0.79
   5   6  -5   -0.29    0.58
   4   6  -5    0.50    0.50
   3   6  -5    2.84    0.68
   2   6  -5   -0.03    0.25
   2   6  -5    0.13    0.31
   1   6  -5    2.65    0.45
   1   6  -5    3.47    0.53
   0   6  -5    2.27    0.37
   0   6  -5    2.25    0.40
  -1   6  -5   15.55    0.99
  -1   6  -5   13.36    0.63
  -2   6  -5    6.83    0.46
  -2   6  -5    6.00    0.84
  -3   6  -5    0.54    0.32
  -3   6  -5    0.37    0.40
  -4   6  -5   -0.08    0.31
  -5   6  -5    4.10    0.95
   5   5  -5    0.71    0.71
   4   5  -5    0.13    0.45
   3   5  -5    3.72    0.72
   2   5  -5    6.93    0.80
   2   5  -5    5.85    0.63
   1   5  -5    0.40    0.25
   1   5  -5    0.85    0.30
   0   5  -5    1.92    0.32
  -1   5  -5  162.80    3.99
  -1   5  -5  160.90    4.73
  -2   5  -5    3.27    0.62
  -2   5  -5    2.13    0.33
  -3   5  -5   -0.01    0.27
  -4   5  -5    1.37    0.54
  -5   5  -5    1.71    0.64
   5   4  -5    0.33    0.63
   4   4  -5   -0.08    0.40
   3   4  -5    0.69    0.37
   2   4  -5   25.36    1.03
   2   4  -5   24.00    1.25
  -2  -4   5   24.43    1.15
   1   4  -5    2.77    0.34
   1   4  -5    2.42    0.39
   0   4  -5    8.00    0.46
   0   4  -5    7.87    0.53
  -1   4  -5   11.69    0.53
  -1   4  -5   10.65    0.79
  -2   4  -5   55.02    1.81
  -3   4  -5    1.07    0.38
  -4   4  -5    1.79    0.58
  -5   4  -5   -0.11    0.54
   5   3  -5    0.24    0.55
   4   3  -5    0.07    0.39
   3   3  -5    2.02    0.54
  -3  -3   5    1.63    0.46
   2   3  -5   94.54    2.97
   2   3  -5   95.95    2.61
  -2  -3   5   92.58    3.10
   1   3  -5   30.89    1.18
  -1  -3   5   26.78    1.23
   0   3  -5    8.78    0.47
   0   3  -5    8.29    0.52
  -1   3  -5    5.54    0.37
  -2   3  -5    3.77    0.48
  -3   3  -5    0.67    0.35
  -4   3  -5    0.34    0.44
  -5   3  -5   -0.35    0.52
   5   2  -5    0.42    0.58
   4   2  -5   -0.04    0.40
   3   2  -5    0.92    0.42
  -3  -2   5    0.82    0.40
   2   2  -5    7.13    0.62
  -2  -2   5    8.65    0.70
   1   2  -5    2.57    0.36
  -1  -2   5    3.34    0.48
   0   2  -5   12.86    0.58
  -1   2  -5    3.61    0.32
  -2   2  -5    4.65    0.46
  -3   2  -5   10.36    0.83
  -4   2  -5    0.21    0.46
  -5   2  -5    0.30    0.61
   6   1  -5   -0.03    0.66
   5   1  -5    2.98    0.86
   4   1  -5    0.15    0.38
  -4  -1   5   -0.03    0.57
   3   1  -5    4.30    0.70
  -3  -1   5    5.33    0.78
   2   1  -5    2.37    0.43
  -2  -1   5    5.07    0.64
   1   1  -5   34.46    1.24
  -1  -1   5   33.15    1.47
   0   1  -5   14.92    0.61
   0  -1   5   13.66    0.80
  -1   1  -5   20.22    0.85
  -2   1  -5    9.37    0.68
  -3   1  -5    3.86    0.68
  -4   1  -5    2.28    0.71
  -5   1  -5   -0.14    0.59
   5   0  -5    0.65    0.57
   4   0  -5    3.27    0.72
  -4   0   5    3.61    0.91
   3   0  -5    0.27    0.29
  -3   0   5    0.17    0.43
  -2   0   5   14.32    1.06
  -1   0   5    4.89    0.61
   0   0  -5   18.51    0.70
   0   0   5   18.29    0.99
   0   0   5   18.26    0.83
  -1   0  -5   17.04    0.79
  -2   0  -5    0.49    0.31
  -3   0  -5    4.72    0.76
  -4   0  -5    2.14    0.72
  -5   0  -5    0.05    0.63
   4  -1  -5    0.34    0.40
  -4   1   5    1.67    0.82
   3  -1  -5    0.15    0.28
  -3   1   5    0.17    0.45
   2  -1  -5    0.03    0.19
  -2   1   5    0.12    0.37
  -2   1   5   -0.12    0.16
   1  -1  -5    3.22    0.31
  -1   1   5    3.68    0.37
  -1   1   5    3.35    0.61
   0   1   5   25.77    1.26
   0   1   5   25.66    1.10
  -1  -1  -5    0.97    0.27
   1   1   5    0.96    0.39
  -2  -1  -5    0.25    0.27
  -3  -1  -5   48.60    2.15
  -4  -1  -5    0.12    0.52
  -5  -1  -5    0.00    0.66
  -5   2   5   -0.23    0.73
  -4   2   5    0.44    0.69
   3  -2  -5    1.28    0.43
   2  -2  -5    6.63    0.53
  -2   2   5    8.10    1.04
  -2   2   5    7.62    0.50
   1  -2  -5   18.80    0.76
  -1   2   5   17.24    1.24
  -1   2   5   19.76    0.86
   0  -2  -5    2.97    0.28
   0   2   5    3.29    0.51
  -1  -2  -5    0.48    0.22
   1   2   5    0.54    0.28
   1   2   5    0.34    0.37
  -2  -2  -5    0.01    0.25
  -3  -2  -5    2.22    0.63
  -4  -2  -5    1.88    0.73
  -5   3   5   -0.42    0.72
  -4   3   5   -0.04    0.67
  -3   3   5    2.40    0.85
   2  -3  -5    0.01    0.21
  -2   3   5   -0.08    0.48
  -2   3   5    0.35    0.26
   1  -3  -5    0.30    0.15
  -1   3   5    0.44    0.49
  -1   3   5    0.54    0.31
   0  -3  -5   20.94    0.83
   0   3   5   20.34    1.22
   0   3   5   20.20    1.12
  -1  -3  -5    0.13    0.21
   1   3   5    0.05    0.35
   1   3   5    0.26    0.27
  -2  -3  -5   -0.29    0.24
   2   3   5    0.15    0.42
  -3  -3  -5    0.76    0.51
  -4  -3  -5    5.30    1.08
  -5   4   5   -0.15    0.82
  -4   4   5    0.29    0.78
  -3   4   5    1.37    0.79
  -2   4   5   -0.09    0.24
  -2   4   5    0.14    0.54
   1  -4  -5    0.18    0.17
  -1   4   5    0.03    0.30
  -1   4   5    0.09    0.53
   0  -4  -5   53.41    1.65
   0   4   5   52.07    2.11
   0   4   5   54.49    2.32
   1   4   5    3.40    0.74
  -2  -4  -5    0.15    0.33
   2   4   5    0.53    0.57
  -3  -4  -5    0.14    0.48
  -4  -4  -5    0.12    0.62
  -5   5   5    0.46    0.95
  -4   5   5    0.27    0.75
  -3   5   5    6.79    1.32
  -2   5   5   -0.24    0.51
  -2   5   5    0.44    0.34
  -1   5   5    1.77    0.79
  -1   5   5    1.93    0.49
   0  -5  -5   14.24    0.72
   0   5   5   13.89    1.07
   0   5   5   16.08    1.22
  -1  -5  -5   15.44    0.91
   1   5   5   15.35    1.26
  -2  -5  -5   -0.17    0.33
   2   5   5    0.28    0.61
  -3  -5  -5   -0.17    0.41
   3   5   5    0.69    0.69
  -4  -5  -5   -0.20    0.67
  -5   6   5    1.25    1.04
  -4   6   5    0.53    0.86
  -3   6   5    4.74    1.24
  -2   6   5    0.05    0.64
  -2   6   5    0.08    0.33
  -1   6   5    0.09    0.36
  -1   6   5   -0.23    0.61
   0   6   5   -0.27    0.48
   0   6   5    0.31    0.49
  -1  -6  -5    2.93    0.56
   1   6   5    2.09    0.77
  -2  -6  -5    0.08    0.41
   2   6   5    0.49    0.67
  -3  -6  -5   -0.14    0.48
   3   6   5    0.58    0.69
  -5   7   5   -0.08    1.00
  -4   7   5    0.16    0.82
  -3   7   5    1.24    0.95
  -2   7   5    7.09    1.40
  -2   7   5    5.06    0.74
  -1   7   5    2.53    0.63
  -1   7   5    2.16    0.93
   0   7   5    4.61    0.87
   1   7   5    0.28    0.59
  -2  -7  -5    0.44    0.47
   2   7   5    0.66    0.74
  -3  -7  -5   -0.08    0.60
   3   7   5    1.03    0.81
  -4   8   5   -0.01    0.93
  -3   8   5   -0.37    0.76
  -2   8   5    2.08    0.59
  -2   8   5    2.47    1.05
  -1   8   5   -0.17    0.41
  -1   8   5    0.22    0.75
   0   8   5    2.73    0.77
   1   8   5   -0.10    0.56
   2   8   5    0.52    0.71
   3   8   5    0.81    0.87
  -4   9   5   -0.29    0.96
  -3   9   5    0.30    0.93
  -2   9   5   -0.65    0.80
  -2   9   5    0.39    0.47
  -1   9   5   -0.20    0.44
  -1   9   5   -0.68    0.57
   0   9   5    0.12    0.53
   1   9   5    1.20    0.77
   2   9   5    0.53    0.78
  -3  10   5    0.25    1.04
  -2  10   5    0.32    0.93
  -1  10   5    0.07    0.52
   0  10   5   -0.17    0.60
   1  10   5    0.43    0.73
   2  10   5    1.95    1.04
  -3  11   5    1.25    1.21
  -2  11   5   -0.09    0.96
  -1  11   5   -0.18    0.57
   0  11   5   -0.43    0.60
   1  11   5   -0.51    0.69
   1  15  -6   -0.59    0.60
   0  15  -6    0.67    0.68
  -1  15  -6    0.32    0.67
  -2  15  -6   -0.52    0.64
   2  14  -6    0.15    0.70
   1  14  -6   -0.22    0.52
   0  14  -6    0.43    0.60
  -1  14  -6   -0.32    0.49
  -2  14  -6    0.47    0.69
  -3  14  -6    0.88    0.73
   2  13  -6   -0.31    0.61
   1  13  -6    3.12    0.85
   0  13  -6    0.33    0.55
  -1  13  -6    7.00    1.18
  -2  13  -6    0.21    0.46
  -3  13  -6    0.09    0.48
  -4  13  -6    0.93    0.70
   2  12  -6   -0.25    0.53
   1  12  -6   -0.45    0.39
   0  12  -6    3.50    0.81
  -1  12  -6   -0.37    0.40
  -2  12  -6    0.14    0.37
  -3  12  -6    0.41    0.52
  -4  12  -6   -0.26    0.51
   3  11  -6    0.02    0.58
   2  11  -6    0.64    0.53
   2  11  -6    0.28    0.58
   1  11  -6    1.46    0.58
   0  11  -6    1.48    0.59
  -1  11  -6    0.17    0.39
  -2  11  -6    3.37    0.79
  -3  11  -6    1.36    0.68
  -4  11  -6    0.08    0.56
   4  10  -6    2.22    0.96
   3  10  -6    9.61    1.30
   2  10  -6    2.32    0.67
   2  10  -6    0.74    0.51
   1  10  -6   -0.19    0.32
   1  10  -6    0.26    0.38
   0  10  -6    1.62    0.57
  -1  10  -6    1.09    0.46
  -2  10  -6    0.72    0.48
  -3  10  -6    2.45    0.78
  -4  10  -6    0.14    0.52
  -5  10  -6   -0.23    0.60
   4   9  -6    0.02    0.56
   3   9  -6   12.06    1.15
   2   9  -6    1.19    0.57
   2   9  -6    1.97    0.61
   1   9  -6    1.01    0.45
   1   9  -6    1.56    0.49
   0   9  -6    0.63    0.34
   0   9  -6    2.14    0.55
  -1   9  -6    1.04    0.32
  -1   9  -6    1.06    0.43
  -2   9  -6   10.70    1.22
  -3   9  -6    0.84    0.52
  -4   9  -6    1.16    0.67
  -5   9  -6    0.49    0.63
   4   8  -6    0.34    0.56
   3   8  -6    0.95    0.58
   2   8  -6   18.17    1.24
   2   8  -6   19.07    1.22
   1   8  -6    3.42    0.56
   1   8  -6    4.18    0.65
   0   8  -6    0.07    0.21
   0   8  -6   -0.07    0.20
  -1   8  -6    0.96    0.29
  -1   8  -6    1.34    0.43
  -2   8  -6    0.65    0.28
  -2   8  -6    1.54    0.51
  -3   8  -6    1.85    0.67
  -4   8  -6    5.13    1.09
  -5   8  -6    0.51    0.62
   4   7  -6    1.18    0.71
   3   7  -6    0.15    0.46
   2   7  -6    8.28    0.95
   2   7  -6    8.15    0.77
   1   7  -6    7.18    0.67
   1   7  -6    8.04    0.68
   0   7  -6    0.91    0.29
   0   7  -6    1.63    0.39
  -1   7  -6    0.16    0.18
  -2   7  -6    1.43    0.51
  -2   7  -6    0.88    0.28
  -3   7  -6    0.10    0.32
  -3   7  -6    0.03    0.30
  -4   7  -6    0.29    0.48
  -5   7  -6    0.36    0.53
   5   6  -6    0.71    0.72
   4   6  -6    0.10    0.47
   3   6  -6    1.07    0.55
   2   6  -6    1.81    0.52
   2   6  -6    1.31    0.41
   1   6  -6   12.04    0.76
   1   6  -6   12.68    0.84
   0   6  -6    1.94    0.36
   0   6  -6    0.81    0.27
  -1   6  -6    3.46    0.33
  -1   6  -6    3.54    0.56
  -2   6  -6    0.13    0.26
  -2   6  -6   -0.06    0.17
  -3   6  -6    1.03    0.51
  -3   6  -6    1.08    0.38
  -4   6  -6    0.19    0.41
  -4   6  -6   -0.11    0.39
  -5   6  -6    1.29    0.60
   5   5  -6    0.50    0.73
   4   5  -6   -0.07    0.43
   3   5  -6    0.26    0.37
   2   5  -6    0.56    0.35
   2   5  -6    0.44    0.31
   1   5  -6   21.49    1.08
   1   5  -6   20.90    0.91
   0   5  -6    1.20    0.29
   0   5  -6    1.77    0.31
  -1   5  -6    2.28    0.47
  -1   5  -6    2.29    0.32
  -2   5  -6    6.97    0.90
  -2   5  -6    7.77    0.55
  -3   5  -6    0.49    0.36
  -4   5  -6    0.12    0.45
  -5   5  -6   -0.17    0.55
   5   4  -6    0.49    0.58
   4   4  -6    0.29    0.41
   3   4  -6    3.83    0.72
   2   4  -6    4.54    0.66
  -2  -4   6    6.57    0.62
   1   4  -6    1.14    0.29
   1   4  -6    1.88    0.30
   0   4  -6    0.12    0.16
   0   4  -6    0.27    0.15
  -1   4  -6    1.14    0.24
  -2   4  -6   -0.01    0.20
  -3   4  -6    3.48    0.58
  -4   4  -6   -0.44    0.36
  -5   4  -6    0.55    0.61
   5   3  -6    0.66    0.63
   4   3  -6    0.19    0.39
   3   3  -6    0.02    0.29
  -3  -3   6    0.12    0.33
   2   3  -6    2.04    0.44
  -2  -3   6    2.77    0.50
   1   3  -6   81.71    2.56
  -1  -3   6   88.96    2.92
   0   3  -6   19.70    0.84
   0   3  -6   23.98    0.97
  -1   3  -6   28.56    1.03
  -2   3  -6    1.81    0.38
  -3   3  -6    0.95    0.43
  -4   3  -6    1.06    0.56
  -5   3  -6   -0.33    0.51
   5   2  -6    0.95    0.65
   4   2  -6    0.12    0.39
   3   2  -6    0.18    0.27
  -3  -2   6   -0.14    0.35
   2   2  -6    2.62    0.49
   1   2  -6    2.31    0.38
  -1  -2   6    2.15    0.47
   0   2  -6   14.00    0.65
  -1   2  -6    1.58    0.27
  -2   2  -6    0.82    0.31
  -3   2  -6   12.50    0.94
  -4   2  -6    2.25    0.67
  -5   2  -6   -0.06    0.63
   6   1  -6    0.01    0.71
   5   1  -6   -0.24    0.45
   4   1  -6    6.51    0.98
   3   1  -6    0.81    0.42
  -3  -1   6    0.52    0.45
   2   1  -6   19.97    1.06
  -2  -1   6   21.53    1.24
   1   1  -6    4.48    0.41
  -1  -1   6    4.95    0.63
   0   1  -6   19.11    0.77
   0  -1   6   17.65    1.00
  -1   1  -6    0.72    0.23
  -2   1  -6    5.29    0.53
  -3   1  -6    2.97    0.64
  -4   1  -6   -0.28    0.39
  -5   1  -6    0.21    0.61
   5   0  -6    0.04    0.51
   3   0  -6    0.40    0.33
  -3   0   6    0.11    0.44
  -2   0   6    3.92    0.67
   1   0  -6   16.94    0.79
  -1   0   6   15.86    1.06
   0   0  -6   19.83    0.79
   0   0   6   19.51    1.11
  -1   0  -6   29.22    1.15
  -2   0  -6    2.50    0.48
  -3   0  -6    3.16    0.68
  -4   0  -6    0.03    0.47
   4  -1  -6    0.08    0.34
  -4   1   6   -0.53    0.55
   3  -1  -6   45.89    1.93
  -3   1   6   50.39    2.55
   2  -1  -6   -0.11    0.22
  -2   1   6   -0.20    0.35
   1  -1  -6    0.42    0.19
  -1   1   6    0.96    0.27
  -1   1   6    0.85    0.43
   0  -1  -6    4.08    0.33
   0   1   6    3.90    0.53
   0   1   6    4.14    0.60
  -1  -1  -6   11.43    0.68
   1   1   6   10.68    0.86
  -2  -1  -6    1.54    0.42
  -3  -1  -6    7.76    1.00
  -4  -1  -6    0.13    0.50
  -5   2   6    0.18    0.84
  -4   2   6    1.05    0.82
   3  -2  -6   11.97    0.89
  -3   2   6   13.09    1.38
   2  -2  -6    8.66    0.63
  -2   2   6    9.74    1.09
   1  -2  -6    0.74    0.22
  -1   2   6    1.24    0.36
  -1   2   6    1.47    0.55
   0  -2  -6    3.55    0.32
   0   2   6    4.41    0.59
   0   2   6    3.90    0.61
  -1  -2  -6    8.38    0.60
   1   2   6    7.02    0.65
   1   2   6    7.27    0.87
  -2  -2  -6    3.03    0.58
  -3  -2  -6    0.10    0.39
  -4  -2  -6    0.67    0.66
  -5   3   6   -0.68    0.77
  -4   3   6   -0.06    0.71
  -3   3   6    0.65    0.70
  -2   3   6    2.87    0.84
   1  -3  -6    0.25    0.18
   1  -3  -6    0.23    0.18
  -1   3   6    0.03    0.48
  -1   3   6    0.03    0.31
   0  -3  -6   -0.07    0.16
   0   3   6    0.47    0.37
   0   3   6    0.08    0.30
  -1  -3  -6    1.61    0.38
   1   3   6    1.13    0.39
   1   3   6    1.61    0.59
  -2  -3  -6    1.36    0.47
   2   3   6    0.43    0.49
  -3  -3  -6    0.72    0.51
  -4  -3  -6    1.04    0.71
  -5   4   6   -0.38    0.81
  -4   4   6   -0.32    0.71
  -3   4   6    1.29    0.84
  -2   4   6    0.00    0.67
  -1   4   6   -0.17    0.34
  -1   4   6    0.03    0.49
   0  -4  -6    0.44    0.23
   0   4   6    0.07    0.40
   0   4   6    0.14    0.42
  -1  -4  -6    0.18    0.24
   1   4   6    0.54    0.54
  -2  -4  -6    0.07    0.35
   2   4   6   -0.20    0.44
  -3  -4  -6   -0.22    0.42
  -4  -4  -6    0.42    0.69
  -5   5   6    1.17    1.11
  -4   5   6    0.53    0.88
  -3   5   6    1.58    0.85
  -2   5   6    2.89    1.03
  -1   5   6    0.99    0.72
  -1   5   6    0.07    0.41
   0   5   6    0.40    0.51
   0   5   6    0.32    0.53
  -1  -5  -6    0.03    0.30
   1   5   6    0.62    0.63
  -2  -5  -6    0.67    0.47
   2   5   6    0.30    0.61
  -3  -5  -6    0.33    0.53
  -5   6   6   -0.82    0.90
  -4   6   6   -0.70    0.77
  -3   6   6    0.25    0.80
  -2   6   6    8.07    1.48
  -1   6   6   16.65    1.20
  -1   6   6   16.97    1.64
   0   6   6    3.72    0.86
   0   6   6    3.96    0.90
   1   6   6    0.38    0.60
  -2  -6  -6    1.48    0.57
   2   6   6    0.16    0.65
  -3  -6  -6    0.26    0.61
   3   6   6    0.31    0.68
  -5   7   6   -0.49    0.96
  -4   7   6   -0.30    0.90
  -3   7   6    0.37    0.90
  -2   7   6    0.53    0.88
  -1   7   6   10.59    1.04
  -1   7   6   10.86    1.56
   0   7   6    0.13    0.56
   1   7   6    0.61    0.64
   2   7   6    0.08    0.70
  -3  -7  -6    0.54    0.68
   3   7   6    0.83    0.80
  -4   8   6   -0.07    1.06
  -3   8   6    0.54    0.99
  -2   8   6    0.59    0.91
  -1   8   6    2.35    1.01
  -1   8   6    4.56    0.88
   0   8   6   -0.14    0.55
   1   8   6    1.15    0.75
   2   8   6    0.73    0.82
  -4   9   6    0.60    1.14
  -3   9   6    0.25    1.04
  -2   9   6   -0.28    0.86
  -1   9   6    0.03    0.51
   0   9   6   -0.33    0.51
   1   9   6    0.64    0.75
   2   9   6   -0.15    0.72
  -3  10   6    0.22    1.05
  -2  10   6    0.56    1.05
  -1  10   6    0.03    0.61
   0  10   6    0.31    0.67
   1  10   6    0.23    0.77
  -1  11   6    0.03    0.64
   0  11   6   -0.20    0.68
  -1  16  -7    0.57    0.83
   1  15  -7   -0.05    0.62
   0  15  -7    0.61    0.69
  -1  15  -7   -0.10    0.60
  -2  15  -7   -0.29    0.62
   2  14  -7   -0.46    0.65
   1  14  -7    0.07    0.57
   0  14  -7    0.44    0.61
  -1  14  -7    0.02    0.57
  -2  14  -7    0.09    0.55
  -3  14  -7    1.16    0.76
   2  13  -7    0.21    0.62
   1  13  -7    0.33    0.55
   0  13  -7    0.02    0.49
  -1  13  -7    0.19    0.54
  -2  13  -7    2.05    0.71
  -3  13  -7    1.56    0.77
  -4  13  -7    3.18    1.06
   3  12  -7    0.52    0.75
   2  12  -7   -0.11    0.48
   1  12  -7    0.45    0.52
   0  12  -7    0.75    0.55
  -1  12  -7   -0.24    0.34
  -2  12  -7    0.03    0.31
  -3  12  -7    0.07    0.42
  -4  12  -7    0.83    0.75
   3  11  -7   -0.14    0.62
   2  11  -7    0.81    0.56
   2  11  -7   -0.32    0.27
   1  11  -7    2.76    0.67
   1  11  -7    1.47    0.54
   0  11  -7    8.71    1.10
  -1  11  -7    9.76    1.15
  -2  11  -7    0.39    0.42
  -3  11  -7    0.55    0.57
  -4  11  -7    0.22    0.58
   4  10  -7    0.01    0.69
   3  10  -7    0.99    0.69
   2  10  -7   -0.30    0.41
   2  10  -7   -0.15    0.47
   1  10  -7    2.28    0.60
   1  10  -7    3.52    0.67
   0  10  -7   -0.10    0.31
   0  10  -7    0.16    0.34
  -1  10  -7    3.23    0.69
  -2  10  -7    0.41    0.40
  -3  10  -7    0.86    0.57
  -4  10  -7    1.28    0.75
  -5  10  -7    0.36    0.68
   4   9  -7    0.13    0.58
   3   9  -7    1.99    0.76
   2   9  -7    1.17    0.58
   2   9  -7    1.64    0.61
   1   9  -7    1.42    0.51
   1   9  -7    1.74    0.55
   0   9  -7    0.21    0.28
   0   9  -7    0.02    0.25
  -1   9  -7    2.08    0.52
  -1   9  -7    2.67    0.46
  -2   9  -7    0.94    0.46
  -3   9  -7    0.86    0.50
  -4   9  -7    3.06    0.96
  -5   9  -7    0.21    0.68
   4   8  -7   -0.06    0.58
   3   8  -7   -0.13    0.41
   2   8  -7    2.19    0.61
   1   8  -7    0.65    0.39
   1   8  -7    0.30    0.36
   0   8  -7    1.67    0.41
   0   8  -7    2.58    0.49
  -1   8  -7    0.41    0.23
  -1   8  -7    0.40    0.32
  -2   8  -7    0.07    0.27
  -2   8  -7    0.07    0.31
  -3   8  -7    0.20    0.37
  -4   8  -7    0.37    0.58
  -5   8  -7    2.90    0.99
   4   7  -7    0.26    0.54
   3   7  -7    1.80    0.61
   2   7  -7    0.21    0.36
   1   7  -7    3.79    0.63
   1   7  -7    4.85    0.62
   0   7  -7    1.37    0.37
   0   7  -7    2.04    0.42
  -1   7  -7   16.46    0.77
  -1   7  -7   13.42    1.00
  -2   7  -7    0.20    0.23
  -2   7  -7    0.04    0.30
  -3   7  -7   -0.18    0.32
  -3   7  -7   -0.05    0.31
  -4   7  -7    1.50    0.70
  -5   7  -7    2.95    0.92
   5   6  -7    0.19    0.66
   4   6  -7    0.34    0.50
   3   6  -7    1.28    0.54
   2   6  -7    1.02    0.41
   1   6  -7    1.54    0.42
   1   6  -7    1.25    0.37
   0   6  -7    0.54    0.25
   0   6  -7    0.29    0.21
  -1   6  -7    0.40    0.27
  -1   6  -7    0.09    0.19
  -2   6  -7   11.03    1.05
  -2   6  -7   11.70    0.69
  -3   6  -7   -0.02    0.31
  -3   6  -7    0.09    0.36
  -4   6  -7    0.00    0.41
  -4   6  -7    0.55    0.48
   5   5  -7    0.12    0.65
   4   5  -7    0.78    0.55
   3   5  -7    0.95    0.51
   2   5  -7   10.87    0.89
   1   5  -7    7.88    0.57
   1   5  -7    8.17    0.66
   0   5  -7    0.00    0.15
   0   5  -7   -0.06    0.12
  -1   5  -7    6.12    0.64
  -1   5  -7    5.55    0.43
  -2   5  -7    9.35    0.63
  -3   5  -7    0.62    0.38
  -4   5  -7   -0.05    0.41
  -5   5  -7   -0.07    0.53
   5   4  -7    0.02    0.56
   4   4  -7    0.14    0.42
   3   4  -7    0.42    0.40
  -3  -4   7    0.15    0.38
   2   4  -7    3.09    0.58
  -2  -4   7    4.89    0.63
   1   4  -7   10.53    0.55
   0   4  -7    2.02    0.35
   0   4  -7    1.98    0.31
  -1   4  -7    2.75    0.36
  -2   4  -7    5.42    0.50
  -3   4  -7   14.85    1.01
  -4   4  -7   -0.17    0.41
  -5   4  -7   -0.26    0.51
   5   3  -7    0.00    0.54
   4   3  -7    0.15    0.43
   3   3  -7    0.79    0.42
  -3  -3   7    0.78    0.44
   2   3  -7    0.56    0.35
  -2  -3   7    0.60    0.35
   1   3  -7   36.06    1.52
  -1  -3   7   44.74    1.81
   0   3  -7    0.57    0.20
  -1   3  -7    3.39    0.32
  -2   3  -7   10.83    0.73
  -3   3  -7    7.95    0.76
  -4   3  -7    1.66    0.63
  -5   3  -7    0.00    0.58
   5   2  -7    0.25    0.51
   4   2  -7    0.10    0.39
  -4  -2   7    0.56    0.53
   3   2  -7    1.47    0.51
  -3  -2   7    1.48    0.50
   2   2  -7    2.37    0.50
  -2  -2   7    4.13    0.63
   1   2  -7    9.34    0.64
  -1  -2   7   10.04    0.83
   0   2  -7   12.65    0.66
  -1   2  -7    1.02    0.24
  -2   2  -7    0.67    0.30
  -3   2  -7    1.52    0.54
  -4   2  -7    0.35    0.45
  -5   2  -7   -0.18    0.56
   5   1  -7    0.40    0.54
   4   1  -7    1.75    0.59
  -4  -1   7    3.02    0.83
   3   1  -7   -0.18    0.24
  -3  -1   7    0.08    0.41
   2   1  -7    0.96    0.36
  -2  -1   7    0.14    0.35
   1   1  -7   11.97    0.72
  -1  -1   7   12.86    0.96
   0   1  -7    1.06    0.25
   0  -1   7    1.35    0.42
  -1   1  -7    1.78    0.33
  -2   1  -7    1.20    0.39
  -3   1  -7    9.99    0.89
  -4   1  -7    0.12    0.46
   5   0  -7    0.04    0.45
   4   0  -7    1.11    0.50
  -4   0   7    1.34    0.72
  -3   0   7   -0.56    0.39
   1   0  -7    0.33    0.20
  -1   0   7    0.28    0.37
   0   0  -7    7.64    0.49
   0   0   7    7.24    0.74
  -1   0  -7    0.45    0.24
  -2   0  -7    3.22    0.57
  -3   0  -7   -0.01    0.34
  -4   0  -7    0.50    0.53
  -5   1   7   -1.03    0.71
   4  -1  -7    0.90    0.46
  -4   1   7    2.71    0.91
  -3   1   7    0.14    0.52
   2  -1  -7    2.57    0.47
  -2   1   7    3.67    0.76
   1  -1  -7    0.52    0.23
  -1   1   7    0.39    0.25
  -1   1   7    0.65    0.45
   0  -1  -7    0.48    0.20
   0   1   7    0.19    0.34
   0   1   7    0.73    0.34
  -1  -1  -7   -0.10    0.18
  -2  -1  -7    0.35    0.31
  -4  -1  -7    5.55    1.08
  -5   2   7    0.34    0.89
  -4   2   7    0.09    0.78
  -3   2   7    2.62    0.90
   2  -2  -7    1.79    0.40
  -2   2   7    2.83    0.79
   1  -2  -7    0.69    0.25
  -1   2   7    0.69    0.49
  -1   2   7    1.38    0.39
   0   2   7   15.96    1.02
   0   2   7   18.47    1.21
  -1  -2  -7    1.08    0.34
   1   2   7    0.43    0.41
  -2  -2  -7    0.27    0.34
  -3  -2  -7    0.37    0.45
  -4  -2  -7    2.37    0.86
  -5   3   7    0.12    0.89
  -4   3   7    0.68    0.84
  -3   3   7   -0.09    0.66
  -2   3   7    0.16    0.61
   1  -3  -7    0.37    0.23
   1  -3  -7    0.34    0.23
  -1   3   7    0.74    0.44
  -1   3   7    0.95    0.59
   0  -3  -7    2.47    0.37
   0   3   7    1.84    0.56
  -1  -3  -7    0.34    0.28
   1   3   7    0.90    0.42
   1   3   7    0.72    0.52
  -2  -3  -7    0.48    0.38
  -3  -3  -7   -0.04    0.43
  -4  -3  -7    0.43    0.67
  -5   4   7    1.21    1.07
  -4   4   7    0.24    0.90
  -3   4   7    1.23    0.86
  -2   4   7    1.12    0.82
  -1   4   7    1.03    0.52
  -1   4   7    1.49    0.75
   0  -4  -7    0.92    0.31
   0   4   7   -0.13    0.46
   0   4   7    0.60    0.51
   1   4   7   10.46    1.27
  -2  -4  -7    1.23    0.52
   2   4   7    1.11    0.67
  -3  -4  -7    0.10    0.49
  -5   5   7   -0.42    0.91
  -4   5   7   -0.55    0.76
  -3   5   7    0.21    0.80
  -2   5   7    6.57    1.36
  -1   5   7    1.51    0.81
  -1   5   7    0.11    0.49
   0   5   7    1.31    0.68
   0   5   7    1.73    0.69
  -1  -5  -7    0.92    0.42
   1   5   7    0.60    0.64
  -2  -5  -7    2.17    0.65
   2   5   7    1.75    0.79
  -3  -5  -7   -0.17    0.51
  -5   6   7   -1.20    0.99
  -4   6   7    0.40    0.99
  -3   6   7   -0.22    0.87
  -2   6   7    2.82    1.16
  -1   6   7   -0.20    0.43
  -1   6   7   -0.61    0.60
   0   6   7    3.65    0.88
   1   6   7    0.06    0.62
  -2  -6  -7    3.12    0.76
   2   6   7    2.55    0.90
  -3  -6  -7    0.02    0.59
  -4   7   7    0.86    1.09
  -3   7   7   -0.66    0.86
  -2   7   7   -0.34    0.79
  -1   7   7   -0.18    0.47
  -1   7   7    0.12    0.74
   0   7   7   -0.48    0.48
   1   7   7    0.94    0.74
   2   7   7    0.97    0.83
  -4   8   7    0.87    1.15
  -3   8   7   -0.85    0.88
  -2   8   7   -0.68    0.81
  -1   8   7    4.67    1.17
   0   8   7   -0.32    0.58
   1   8   7   -0.11    0.66
   2   8   7    0.29    0.83
  -3   9   7    1.00    1.22
  -2   9   7   -0.42    0.94
   0   9   7   -0.24    0.63
   1   9   7    1.86    0.91
  -2  10   7   -0.64    0.94
   0  10   7    0.32    0.75
  -1  16  -8   -0.83    0.53
   1  15  -8   -0.28    0.59
   0  15  -8   -0.44    0.52
  -1  15  -8    0.12    0.71
  -2  15  -8   -0.28    0.62
   1  14  -8   -0.40    0.49
   0  14  -8   -0.29    0.49
  -1  14  -8   -0.93    0.48
  -2  14  -8    0.07    0.50
  -3  14  -8   -0.31    0.46
   1  13  -8    0.83    0.62
   0  13  -8    0.47    0.56
  -1  13  -8    0.14    0.52
  -2  13  -8    0.77    0.59
  -3  13  -8   -0.07    0.44
  -4  13  -8    1.06    0.78
   3  12  -8    0.43    0.74
   2  12  -8    0.14    0.61
   1  12  -8    0.41    0.47
   0  12  -8    1.65    0.66
  -1  12  -8    0.57    0.48
  -2  12  -8    1.85    0.67
  -3  12  -8    0.33    0.52
  -4  12  -8   -0.08    0.62
   3  11  -8    3.36    1.00
   2  11  -8   -0.06    0.52
   1  11  -8    0.31    0.37
   1  11  -8    0.21    0.47
   0  11  -8    1.47    0.60
  -1  11  -8   14.32    1.23
  -2  11  -8    2.81    0.78
  -3  11  -8    2.92    0.89
  -4  11  -8    0.14    0.56
   4  10  -8   -0.51    0.64
   3  10  -8    2.33    0.89
   2  10  -8    8.23    1.13
   1  10  -8    1.55    0.59
   1  10  -8    1.42    0.58
   0  10  -8    0.58    0.41
   0  10  -8    0.94    0.44
  -1  10  -8    0.52    0.38
  -1  10  -8    0.03    0.28
  -2  10  -8    0.38    0.41
  -3  10  -8   -0.04    0.41
  -4  10  -8    0.59    0.67
   4   9  -8   -0.20    0.61
   3   9  -8    0.06    0.52
   2   9  -8   30.70    1.80
   1   9  -8   -0.10    0.33
   1   9  -8   -0.33    0.32
   0   9  -8    6.38    0.79
   0   9  -8    6.90    0.68
  -1   9  -8    0.29    0.34
  -1   9  -8    0.10    0.24
  -2   9  -8    1.58    0.58
  -2   9  -8    0.23    0.32
  -3   9  -8    0.53    0.49
  -4   9  -8    0.40    0.57
  -5   9  -8    0.19    0.63
   4   8  -8    0.25    0.53
   3   8  -8    2.15    0.76
   2   8  -8   10.36    0.99
   1   8  -8   37.01    1.79
   1   8  -8   39.52    1.68
   0   8  -8    1.69    0.43
   0   8  -8    2.55    0.50
  -1   8  -8    0.28    0.25
  -1   8  -8    0.54    0.34
  -2   8  -8    0.10    0.30
  -2   8  -8    0.26    0.29
  -3   8  -8    2.88    0.81
  -3   8  -8    1.09    0.44
  -4   8  -8    0.63    0.59
  -5   8  -8    0.79    0.66
   4   7  -8   -0.36    0.49
   3   7  -8    0.13    0.41
   2   7  -8    3.75    0.70
   1   7  -8   24.24    1.33
   1   7  -8   23.45    1.18
   0   7  -8    1.45    0.39
   0   7  -8    1.36    0.37
  -1   7  -8    0.20    0.23
  -1   7  -8    0.09    0.23
  -2   7  -8    0.78    0.48
  -2   7  -8    0.75    0.31
  -3   7  -8    0.05    0.30
  -3   7  -8    0.27    0.35
  -4   7  -8    0.55    0.50
  -4   7  -8   -0.06    0.44
  -5   7  -8    1.33    0.67
   5   6  -8   -0.31    0.66
   4   6  -8   -0.23    0.46
   3   6  -8    4.33    0.87
   2   6  -8    1.82    0.56
   1   6  -8    4.68    0.58
   1   6  -8    2.33    0.47
   0   6  -8   39.31    1.62
   0   6  -8   38.65    1.47
  -1   6  -8    0.14    0.22
  -1   6  -8    0.11    0.20
  -2   6  -8    0.56    0.30
  -2   6  -8    1.06    0.50
  -3   6  -8    0.18    0.36
  -3   6  -8    0.21    0.34
  -4   6  -8    0.97    0.53
  -4   6  -8   -0.17    0.43
   5   5  -8    0.08    0.64
   4   5  -8    0.78    0.58
   3   5  -8    1.86    0.63
  -3  -5   8    1.96    0.57
   2   5  -8    0.19    0.29
   1   5  -8    0.57    0.28
   0   5  -8   10.24    0.71
   0   5  -8   10.21    0.63
  -1   5  -8    1.29    0.40
  -1   5  -8    1.28    0.30
  -2   5  -8    3.26    0.48
  -3   5  -8    0.31    0.35
  -4   5  -8   -0.03    0.45
  -5   5  -8    0.21    0.57
   5   4  -8    0.52    0.62
   4   4  -8    0.22    0.46
   3   4  -8    0.13    0.37
  -3  -4   8    0.29    0.39
   2   4  -8    0.84    0.38
  -2  -4   8    0.08    0.30
   1   4  -8    1.77    0.40
   0   4  -8    0.80    0.27
   0   4  -8    0.65    0.23
  -1   4  -8    0.00    0.15
  -2   4  -8    5.95    0.54
  -3   4  -8    4.41    0.69
  -4   4  -8    0.46    0.48
  -5   4  -8   -0.01    0.54
   5   3  -8    0.19    0.56
   4   3  -8    0.03    0.41
   3   3  -8    3.38    0.73
  -3  -3   8    3.73    0.72
   2   3  -8    4.48    0.68
  -2  -3   8    4.68    0.68
   1   3  -8    1.00    0.33
  -1  -3   8    1.27    0.45
   0   3  -8   17.64    0.85
  -1   3  -8    1.32    0.29
  -2   3  -8    2.80    0.48
  -3   3  -8    2.12    0.56
  -4   3  -8    1.57    0.64
   5   2  -8    0.02    0.47
   4   2  -8    1.09    0.55
  -4  -2   8    5.15    0.90
   3   2  -8    1.69    0.56
  -3  -2   8    1.13    0.55
   2   2  -8    2.16    0.52
  -2  -2   8    2.41    0.56
   1   2  -8    0.20    0.21
  -1  -2   8   -0.17    0.28
   0   2  -8   26.14    1.07
  -1   2  -8    0.77    0.26
  -2   2  -8    9.58    0.72
  -3   2  -8    0.06    0.33
  -4   2  -8   -0.01    0.44
   5   1  -8   -0.11    0.45
   4   1  -8    1.70    0.61
  -4  -1   8    2.18    0.75
   3   1  -8   21.01    1.34
  -3  -1   8   23.36    1.54
   2   1  -8    0.07    0.26
  -2  -1   8   -0.02    0.34
   1   1  -8    0.10    0.19
  -1  -1   8    0.07    0.34
   0   1  -8    5.60    0.45
   0  -1   8    5.97    0.75
  -1   1  -8   12.68    0.72
  -2   1  -8    0.38    0.30
  -3   1  -8    0.01    0.35
  -4   1  -8    0.49    0.57
   4   0  -8    0.51    0.47
  -4   0   8    0.53    0.64
   2   0  -8    0.93    0.36
  -2   0   8    1.22    0.53
   1   0  -8    6.30    0.53
  -1   0   8    6.26    0.83
   0   0  -8    0.55    0.22
   0   0   8    0.96    0.45
  -1   0  -8    9.69    0.64
  -2   0  -8    4.89    0.68
  -3   0  -8   -0.02    0.37
  -4   0  -8    0.49    0.57
  -5   1   8   -0.12    0.76
  -4   1   8    0.44    0.69
   3  -1  -8    0.20    0.34
  -3   1   8    0.20    0.59
   2  -1  -8   40.44    1.69
  -2   1   8   41.90    2.21
   1  -1  -8    1.21    0.32
  -1   1   8    2.24    0.62
   0  -1  -8    1.91    0.34
   0   1   8    1.84    0.56
   0   1   8    3.40    0.54
  -1  -1  -8    0.14    0.21
  -2  -1  -8    0.40    0.34
  -3  -1  -8   -0.26    0.38
  -4  -1  -8    0.30    0.59
  -5   2   8    0.51    0.89
  -4   2   8   -0.06    0.70
  -3   2   8    3.05    0.96
   2  -2  -8   27.83    1.33
  -2   2   8   28.77    1.91
   1  -2  -8    1.87    0.38
  -1   2   8    4.86    0.86
   0  -2  -8    0.02    0.18
   0   2   8    0.69    0.41
   0   2   8    0.64    0.48
  -1  -2  -8    0.20    0.23
   1   2   8   -0.01    0.31
  -2  -2  -8    0.02    0.31
  -3  -2  -8    0.05    0.44
  -4  -2  -8   -0.31    0.57
  -5   3   8   -0.01    0.93
  -4   3   8   -0.22    0.72
  -3   3   8    0.71    0.78
  -2   3   8    0.58    0.68
   1  -3  -8   23.26    1.07
  -1   3   8   23.40    1.69
   0  -3  -8    1.46    0.36
   0   3   8    1.31    0.59
   0   3   8    0.22    0.39
  -1  -3  -8    0.34    0.27
   1   3   8   -0.22    0.41
  -2  -3  -8    0.16    0.33
  -3  -3  -8    0.34    0.54
  -5   4   8    0.67    1.05
  -4   4   8    0.15    0.82
  -3   4   8    0.65    0.84
  -2   4   8    1.51    0.86
  -1   4   8    2.80    0.88
   0  -4  -8    0.78    0.32
   0   4   8    0.88    0.57
   0   4   8    0.10    0.56
  -1  -4  -8    0.41    0.31
   1   4   8    1.06    0.62
  -2  -4  -8    2.38    0.65
  -3  -4  -8   -0.43    0.49
  -5   5   8   -0.24    0.92
  -4   5   8    1.66    1.11
  -3   5   8   -0.51    0.78
  -2   5   8    0.40    0.80
  -1   5   8    5.19    1.13
   0   5   8   -0.37    0.52
   0   5   8    0.23    0.56
   1   5   8    0.00    0.54
  -2  -5  -8    0.18    0.45
   2   5   8    0.03    0.60
  -3  -5  -8    0.29    0.62
  -4   6   8    1.45    1.19
  -3   6   8   -0.19    0.90
  -2   6   8    0.79    0.94
  -1   6   8    5.50    1.19
   0   6   8    0.38    0.62
   1   6   8   -0.11    0.57
   2   6   8    0.65    0.74
  -4   7   8   -0.30    1.01
  -3   7   8    0.36    1.02
  -2   7   8   -0.03    0.86
  -1   7   8   -0.56    0.68
   0   7   8   -0.23    0.57
   1   7   8    0.80    0.79
   2   7   8    0.83    0.81
  -3   8   8   -0.57    0.96
  -2   8   8   -0.76    0.84
   0   8   8    4.43    1.09
   1   8   8   -0.12    0.77
  -2   9   8   -0.06    0.98
   0   9   8   -0.31    0.67
   1  15  -9   -0.10    0.61
   0  15  -9    0.07    0.60
  -1  15  -9    0.12    0.67
  -2  15  -9    0.32    0.66
   1  14  -9   -0.29    0.50
   0  14  -9    0.03    0.52
  -1  14  -9   -0.01    0.53
  -2  14  -9    0.09    0.47
  -3  14  -9    0.05    0.58
   1  13  -9    0.01    0.49
   0  13  -9    3.27    0.84
  -1  13  -9    0.01    0.48
  -2  13  -9    0.18    0.46
  -3  13  -9    0.20    0.51
   3  12  -9    0.02    0.73
   2  12  -9    0.19    0.66
   1  12  -9   -0.17    0.31
   0  12  -9    0.28    0.51
  -1  12  -9    0.25    0.35
  -2  12  -9    0.12    0.44
  -3  12  -9    0.02    0.50
  -4  12  -9    0.77    0.72
   3  11  -9   -0.17    0.66
   2  11  -9    0.30    0.61
   1  11  -9    2.80    0.78
   1  11  -9    2.67    0.71
   0  11  -9    0.15    0.42
   0  11  -9    0.33    0.42
  -1  11  -9    2.40    0.66
  -2  11  -9    0.01    0.39
  -3  11  -9    0.33    0.55
  -4  11  -9   -0.17    0.47
   3  10  -9   -0.14    0.59
   2  10  -9   -0.10    0.51
   1  10  -9    0.06    0.44
   1  10  -9    0.16    0.46
   0  10  -9    1.27    0.47
   0  10  -9    0.51    0.41
  -1  10  -9    2.98    0.67
  -1  10  -9    2.27    0.50
  -2  10  -9   -0.08    0.30
  -3  10  -9    0.35    0.45
  -4  10  -9    0.38    0.59
   4   9  -9   -0.04    0.64
   3   9  -9    1.21    0.71
   2   9  -9    0.16    0.47
   1   9  -9   10.01    0.95
   0   9  -9    4.81    0.71
   0   9  -9    2.71    0.57
  -1   9  -9    3.16    0.51
  -1   9  -9    3.72    0.71
  -2   9  -9    0.02    0.35
  -2   9  -9    0.24    0.34
  -3   9  -9    0.15    0.44
  -4   9  -9    0.47    0.60
   4   8  -9    0.30    0.62
   3   8  -9    0.87    0.66
   2   8  -9    0.42    0.48
   1   8  -9    0.69    0.46
   0   8  -9    0.06    0.23
   0   8  -9    0.02    0.26
  -1   8  -9    2.36    0.43
  -1   8  -9    2.40    0.55
  -2   8  -9    0.41    0.34
  -2   8  -9    1.08    0.55
  -3   8  -9    0.47    0.43
  -3   8  -9    0.37    0.49
  -4   8  -9    0.70    0.59
   4   7  -9    0.37    0.56
   3   7  -9    0.44    0.52
   2   7  -9    0.97    0.51
   1   7  -9    0.32    0.32
   0   7  -9   13.10    0.84
   0   7  -9   13.97    0.94
  -1   7  -9    3.50    0.64
  -2   7  -9    0.42    0.30
  -2   7  -9    0.49    0.41
  -3   7  -9    0.30    0.38
  -3   7  -9    0.72    0.50
  -4   7  -9    0.34    0.50
  -4   7  -9    0.79    0.52
  -5   7  -9    2.19    0.69
   4   6  -9    0.14    0.56
   3   6  -9    0.19    0.39
   2   6  -9    6.04    0.90
   1   6  -9    2.03    0.47
   0   6  -9    3.71    0.50
   0   6  -9    5.93    0.64
  -1   6  -9    5.17    0.49
  -2   6  -9    0.20    0.27
  -2   6  -9   -0.14    0.30
  -3   6  -9    0.52    0.39
  -4   6  -9    0.02    0.43
  -5   6  -9    0.37    0.61
   5   5  -9   -0.02    0.67
   4   5  -9   -0.14    0.52
   3   5  -9    1.15    0.58
  -3  -5   9    1.30    0.53
   2   5  -9    0.46    0.43
   1   5  -9    0.39    0.28
   0   5  -9   -0.03    0.13
   0   5  -9    0.06    0.21
  -1   5  -9    0.05    0.19
  -2   5  -9    0.78    0.30
  -3   5  -9    2.46    0.55
  -4   5  -9   -0.06    0.45
   5   4  -9   -0.40    0.53
   4   4  -9    0.25    0.53
   3   4  -9    5.77    0.97
  -3  -4   9    5.78    0.83
   2   4  -9    2.46    0.61
  -2  -4   9    1.03    0.46
   1   4  -9    0.45    0.27
   0   4  -9    0.84    0.27
   0   4  -9    0.72    0.25
  -1   4  -9    0.27    0.20
  -2   4  -9    0.30    0.27
  -3   4  -9    0.11    0.34
  -4   4  -9    1.34    0.59
   5   3  -9    0.17    0.52
   4   3  -9    0.03    0.42
   3   3  -9    0.19    0.42
  -3  -3   9    0.42    0.47
   2   3  -9    4.34    0.71
  -2  -3   9    2.95    0.62
   1   3  -9    1.22    0.36
  -1  -3   9    1.21    0.48
   0   3  -9    5.21    0.48
  -1   3  -9    2.83    0.41
  -2   3  -9    2.69    0.48
  -3   3  -9    0.36    0.40
  -4   3  -9    1.12    0.58
   5   2  -9    0.15    0.49
   4   2  -9   -0.33    0.34
  -4  -2   9   -0.53    0.43
   3   2  -9   -0.34    0.34
  -3  -2   9    0.18    0.47
   2   2  -9    0.39    0.33
  -2  -2   9    0.41    0.44
   1   2  -9    0.20    0.23
  -1  -2   9   -0.08    0.31
   0   2  -9    1.06    0.29
  -1   2  -9    0.67    0.25
  -2   2  -9    9.37    0.74
  -3   2  -9    0.75    0.46
  -4   2  -9    0.11    0.47
   5   1  -9    0.48    0.62
   4   1  -9    0.68    0.46
  -4  -1   9    0.07    0.58
   3   1  -9    0.22    0.41
  -3  -1   9    0.27    0.51
   2   1  -9    0.74    0.41
  -2  -1   9    0.60    0.49
   1   1  -9    0.05    0.22
  -1  -1   9    0.46    0.43
   0   1  -9    0.11    0.17
   0  -1   9    0.17    0.37
  -1   1  -9    0.38    0.24
  -2   1  -9    1.77    0.46
  -3   1  -9    0.24    0.37
  -4   1  -9   -0.48    0.45
  -5   0   9   -0.03    0.77
   4   0  -9    0.16    0.43
  -4   0   9   -0.62    0.53
   3   0  -9   -0.01    0.33
  -3   0   9    2.18    0.74
  -2   0   9    5.47    0.92
   1   0  -9    1.18    0.33
  -1   0   9    1.80    0.60
   0   0  -9    6.52    0.54
   0   0   9    7.17    0.82
  -1   0  -9    1.27    0.35
  -2   0  -9    0.03    0.28
  -3   0  -9    0.15    0.42
  -4   0  -9    1.35    0.72
  -5   1   9    0.04    0.78
  -4   1   9    0.11    0.67
   3  -1  -9    0.25    0.42
  -3   1   9    0.60    0.62
   2  -1  -9   -0.03    0.33
  -2   1   9    0.45    0.53
   1  -1  -9    0.03    0.22
  -1   1   9   -0.02    0.44
   0  -1  -9    5.01    0.47
   0   1   9    4.99    0.82
  -1  -1  -9    0.14    0.24
  -2  -1  -9    0.15    0.36
  -3  -1  -9   -0.13    0.41
  -5   2   9    0.41    0.89
  -4   2   9   -0.10    0.75
  -3   2   9    6.30    1.19
  -2   2   9    0.68    0.62
   1  -2  -9   19.63    1.04
  -1   2   9   20.55    1.56
   0  -2  -9    0.03    0.20
   0   2   9    0.19    0.36
   0   2   9    0.27    0.50
  -1  -2  -9    1.84    0.41
  -2  -2  -9    0.07    0.34
  -3  -2  -9    0.04    0.48
  -5   3   9    0.75    1.00
  -4   3   9   -0.13    0.76
  -3   3   9   -0.75    0.63
  -2   3   9   -0.19    0.62
  -1   3   9    5.74    1.06
   0  -3  -9    0.61    0.31
   0   3   9    0.93    0.54
   0   3   9    0.35    0.55
  -1  -3  -9    0.62    0.34
   1   3   9    0.66    0.53
  -2  -3  -9    0.82    0.47
  -3  -3  -9    0.19    0.52
  -4   4   9    1.57    1.09
  -3   4   9    0.37    0.84
  -2   4   9    0.31    0.73
  -1   4   9    0.90    0.74
   0   4   9    2.11    0.74
   0   4   9    2.51    0.75
  -1  -4  -9   -0.08    0.27
   1   4   9    0.44    0.54
  -2  -4  -9    1.35    0.58
  -3  -4  -9    0.36    0.56
  -4   5   9    0.41    0.98
  -3   5   9   -0.51    0.79
  -2   5   9    1.88    0.96
  -1   5   9    0.58    0.73
   0   5   9    0.42    0.59
   1   5   9    0.01    0.57
  -2  -5  -9    0.10    0.47
  -4   6   9    0.12    1.07
  -3   6   9    1.59    1.15
  -2   6   9    1.98    1.06
  -1   6   9    4.08    1.10
   1   6   9    0.18    0.68
   2   6   9    1.66    0.86
  -3   7   9   -0.49    0.94
  -2   7   9    0.08    0.87
  -1   7   9   -0.23    0.73
   1   7   9    0.84    0.85
  -3   8   9   -0.39    1.05
  -2   8   9   -1.33    0.87
   0  15 -10    0.87    0.68
  -1  15 -10    0.52    0.76
  -2  15 -10    0.34    0.60
   0  14 -10   -0.45    0.48
  -1  14 -10   -0.34    0.45
  -2  14 -10    1.14    0.67
  -3  14 -10    0.97    0.73
   0  13 -10   -0.55    0.42
  -1  13 -10    1.76    0.68
  -2  13 -10    0.44    0.53
  -3  13 -10    0.04    0.53
   3  12 -10    0.19    0.79
   2  12 -10    0.37    0.66
   1  12 -10   -0.05    0.56
   0  12 -10    0.27    0.53
  -1  12 -10    0.04    0.43
  -2  12 -10    0.88    0.55
  -3  12 -10   -0.14    0.49
  -4  12 -10   -0.41    0.62
   3  11 -10   -0.30    0.63
   2  11 -10    1.86    0.84
   1  11 -10   -0.19    0.43
   0  11 -10    0.31    0.36
   0  11 -10    2.67    0.67
  -1  11 -10    0.13    0.32
  -2  11 -10    3.07    0.88
  -3  11 -10   -0.23    0.46
  -4  11 -10    0.59    0.73
   3  10 -10    0.21    0.68
   2  10 -10    3.87    0.96
   1  10 -10    2.87    0.77
   0  10 -10    1.60    0.52
   0  10 -10    1.79    0.52
  -1  10 -10    0.59    0.38
  -1  10 -10    0.50    0.35
  -2  10 -10    2.17    0.72
  -3  10 -10    2.13    0.84
  -4  10 -10    0.52    0.72
   4   9 -10   -0.21    0.67
   3   9 -10    0.08    0.61
   2   9 -10   -0.07    0.43
   1   9 -10   33.64    1.82
   0   9 -10    0.34    0.34
   0   9 -10    0.34    0.34
  -1   9 -10    1.27    0.39
  -1   9 -10    1.45    0.50
  -2   9 -10    0.75    0.53
  -2   9 -10    0.57    0.41
  -3   9 -10    0.11    0.52
  -4   9 -10    0.17    0.56
   4   8 -10   -0.21    0.61
   3   8 -10    0.38    0.56
   2   8 -10    1.77    0.65
   1   8 -10   20.60    1.32
   0   8 -10   20.10    1.17
   0   8 -10   15.22    1.02
  -1   8 -10    0.24    0.26
  -1   8 -10    0.19    0.29
  -2   8 -10   -0.14    0.31
  -2   8 -10    0.26    0.38
  -3   8 -10    0.70    0.54
  -3   8 -10    1.01    0.50
  -4   8 -10    1.23    0.66
   4   7 -10    0.12    0.55
   3   7 -10    0.47    0.53
   2   7 -10   -0.12    0.40
   1   7 -10    3.58    0.65
   0   7 -10   18.62    1.10
   0   7 -10   16.20    0.97
  -1   7 -10    0.69    0.37
  -1   7 -10    0.41    0.29
  -2   7 -10    1.11    0.37
  -2   7 -10    0.64    0.49
  -3   7 -10   -0.15    0.32
  -3   7 -10    0.10    0.41
  -4   7 -10    0.00    0.46
  -4   7 -10    0.80    0.49
   4   6 -10    0.27    0.62
   3   6 -10    0.03    0.45
   2   6 -10    2.70    0.70
   1   6 -10    1.66    0.47
   0   6 -10    3.11    0.49
   0   6 -10    4.06    0.56
  -1   6 -10    1.70    0.38
  -1   6 -10    0.63    0.30
  -2   6 -10    0.59    0.42
  -2   6 -10    1.02    0.39
  -3   6 -10    0.45    0.44
  -4   6 -10    0.16    0.48
   4   5 -10   -0.12    0.53
   3   5 -10    2.03    0.67
  -3  -5  10    7.22    0.96
   2   5 -10    0.12    0.36
   1   5 -10    1.14    0.41
   0   5 -10    1.60    0.35
   0   5 -10    1.60    0.38
  -1   5 -10    2.91    0.46
  -2   5 -10    5.32    0.65
  -3   5 -10    0.21    0.34
  -4   5 -10   -0.07    0.45
   5   4 -10   -0.17    0.55
   4   4 -10    0.65    0.63
   3   4 -10    0.13    0.47
  -3  -4  10    0.15    0.45
   2   4 -10    1.30    0.54
  -2  -4  10    1.69    0.56
   1   4 -10    2.47    0.51
   0   4 -10    0.11    0.17
   0   4 -10    0.43    0.23
  -1   4 -10    2.50    0.42
  -2   4 -10    0.03    0.26
  -3   4 -10    0.42    0.36
  -4   4 -10    0.93    0.60
   5   3 -10    0.29    0.54
   4   3 -10    0.09    0.44
  -4  -3  10   -0.51    0.48
   3   3 -10    0.13    0.45
  -3  -3  10    0.33    0.50
   2   3 -10    0.98    0.47
  -2  -3  10    0.14    0.43
   1   3 -10    0.08    0.23
  -1  -3  10    0.55    0.44
   0   3 -10    0.16    0.20
  -1   3 -10   14.34    0.82
  -2   3 -10    1.23    0.41
  -3   3 -10    0.20    0.40
  -4   3 -10   -0.54    0.41
   5   2 -10    0.18    0.58
   4   2 -10    0.15    0.49
  -4  -2  10    0.28    0.56
   3   2 -10    0.30    0.50
  -3  -2  10    1.88    0.64
   2   2 -10    0.61    0.41
  -2  -2  10    0.07    0.45
   1   2 -10    0.22    0.24
  -1  -2  10    0.55    0.43
   0   2 -10    0.06    0.19
  -1   2 -10    9.98    0.68
  -2   2 -10    1.51    0.43
  -3   2 -10    0.17    0.39
  -4   2 -10    0.84    0.65
   4   1 -10    0.29    0.47
  -4  -1  10   -0.56    0.51
   3   1 -10    0.46    0.48
  -3  -1  10    0.43    0.53
   2   1 -10    3.34    0.69
  -2  -1  10    2.24    0.70
   1   1 -10    1.12    0.36
  -1  -1  10    0.37    0.50
   0   1 -10   -0.08    0.16
   0  -1  10    0.19    0.47
  -1   1 -10    0.43    0.26
  -2   1 -10    1.71    0.46
  -3   1 -10    0.44    0.44
  -5   0  10   -0.21    0.74
  -4   0  10    0.30    0.65
   3   0 -10   -0.20    0.39
  -3   0  10    0.17    0.54
   2   0 -10   27.41    1.52
  -2   0  10   27.93    1.81
   1   0 -10    0.20    0.29
  -1   0  10    0.46    0.52
   0   0 -10    0.50    0.25
   0   0  10    0.30    0.47
  -1   0 -10    0.08    0.23
  -2   0 -10    4.94    0.72
  -3   0 -10    0.32    0.45
  -5   1  10   -0.63    0.73
  -4   1  10    0.23    0.69
  -3   1  10    0.06    0.56
   2  -1 -10    3.26    0.70
  -2   1  10    3.92    0.92
   0  -1 -10    0.09    0.20
   0   1  10   -0.13    0.43
  -1  -1 -10    0.12    0.25
  -2  -1 -10    0.29    0.36
  -3  -1 -10    0.92    0.57
  -5   2  10   -0.38    0.84
  -4   2  10    0.05    0.73
  -3   2  10   -0.03    0.67
  -2   2  10    8.84    1.31
   1  -2 -10   14.05    0.93
  -1   2  10   16.11    1.44
   0  -2 -10    0.27    0.26
   0   2  10    0.92    0.60
  -1  -2 -10    0.16    0.27
  -2  -2 -10    1.07    0.49
  -3  -2 -10    0.15    0.52
  -4   3  10    0.27    0.91
  -3   3  10   -0.11    0.70
  -2   3  10   -0.27    0.64
  -1   3  10    3.13    0.92
   0  -3 -10    3.15    0.56
  -1  -3 -10    1.29    0.45
  -2  -3 -10    0.22    0.42
  -3  -3 -10    0.29    0.56
  -4   4  10    0.68    0.97
  -3   4  10    0.53    0.84
  -2   4  10    0.06    0.76
  -1   4  10    1.00    0.77
   0   4  10    0.49    0.53
   1   4  10    1.25    0.61
  -2  -4 -10    0.76    0.52
  -4   5  10   -0.03    0.88
  -3   5  10    0.76    0.97
  -2   5  10    0.18    0.82
  -1   5  10   -0.03    0.74
   1   5  10    0.03    0.61
  -3   6  10   -0.82    0.83
  -2   6  10    0.22    0.83
  -1   6  10   -0.82    0.68
   1   6  10    0.24    0.68
  -3   7  10   -0.45    0.94
  -2   7  10   -0.34    0.90
   1   7  10    0.91    0.87
  -1  15 -11   -0.76    0.55
  -2  15 -11    1.67    0.79
  -1  14 -11    0.01    0.52
  -2  14 -11    0.50    0.58
   2  13 -11    0.84    0.87
   0  13 -11   -0.64    0.45
  -1  13 -11    0.24    0.41
  -2  13 -11    0.05    0.46
  -3  13 -11   -0.13    0.55
   3  12 -11   -0.19    0.77
   2  12 -11    0.22    0.67
   1  12 -11    0.77    0.69
  -1  12 -11    0.65    0.48
  -2  12 -11    0.11    0.48
  -3  12 -11    0.28    0.61
   3  11 -11    0.34    0.71
   2  11 -11   -0.40    0.58
   1  11 -11    0.06    0.55
   0  11 -11    0.17    0.42
  -1  11 -11    1.66    0.57
  -1  11 -11    1.06    0.48
  -2  11 -11    1.04    0.62
  -3  11 -11   -0.30    0.47
  -4  11 -11   -0.20    0.65
   3  10 -11    0.19    0.64
   2  10 -11   -0.36    0.49
   1  10 -11   -0.02    0.45
   0  10 -11    0.53    0.41
  -1  10 -11   -0.41    0.26
  -1  10 -11   -0.02    0.28
  -2  10 -11    0.21    0.44
  -2  10 -11    0.76    0.45
  -3  10 -11    0.68    0.63
  -4  10 -11   -0.11    0.63
   3   9 -11    1.01    0.77
   2   9 -11   -0.29    0.50
   1   9 -11    2.11    0.66
   0   9 -11    3.07    0.59
  -1   9 -11    2.86    0.52
  -1   9 -11    4.37    0.78
  -2   9 -11    0.06    0.37
  -2   9 -11   -0.05    0.41
  -3   9 -11    0.40    0.51
  -3   9 -11    0.23    0.54
  -4   9 -11    0.26    0.62
   4   8 -11   -0.49    0.67
   3   8 -11   -0.10    0.57
   2   8 -11    0.15    0.46
   1   8 -11    1.32    0.52
   0   8 -11    7.18    0.70
  -1   8 -11    0.12    0.25
  -1   8 -11    0.73    0.34
  -2   8 -11   -0.13    0.34
  -2   8 -11    0.38    0.41
  -3   8 -11   -0.22    0.39
  -3   8 -11    0.45    0.49
  -4   8 -11    0.65    0.57
  -4   8 -11    0.91    0.58
   4   7 -11    0.25    0.61
   3   7 -11   -0.08    0.48
   2   7 -11    0.14    0.39
   1   7 -11    0.03    0.27
   0   7 -11    0.04    0.24
  -2   7 -11    1.74    0.46
  -2   7 -11    2.56    0.70
  -3   7 -11    0.11    0.41
  -3   7 -11    0.47    0.43
  -4   7 -11    1.32    0.60
  -4   7 -11    0.16    0.50
   4   6 -11    0.03    0.63
   3   6 -11    0.60    0.59
   2   6 -11    0.53    0.48
   1   6 -11    1.36    0.46
   0   6 -11    0.02    0.21
  -1   6 -11    5.97    0.87
  -2   6 -11    1.13    0.42
  -2   6 -11    1.17    0.49
  -3   6 -11   -0.06    0.35
  -4   6 -11    0.09    0.49
   4   5 -11   -0.11    0.56
   3   5 -11    0.20    0.53
  -3  -5  11    0.07    0.45
   2   5 -11    3.09    0.76
   1   5 -11    0.04    0.21
   0   5 -11    0.25    0.21
  -1   5 -11    1.85    0.42
  -2   5 -11   12.24    0.87
  -3   5 -11    0.15    0.38
  -4   5 -11    0.29    0.48
   4   4 -11    0.21    0.53
   3   4 -11    0.15    0.50
  -3  -4  11    0.29    0.47
   2   4 -11    7.67    1.05
  -2  -4  11    7.05    0.96
   1   4 -11    0.27    0.29
   0   4 -11    0.05    0.19
  -1   4 -11    2.16    0.44
  -2   4 -11    0.36    0.32
  -3   4 -11    0.40    0.40
  -4   4 -11    0.16    0.49
   5   3 -11    0.67    0.70
   4   3 -11   -0.05    0.42
  -4  -3  11   -0.14    0.54
   3   3 -11    0.29    0.53
  -3  -3  11    0.61    0.48
   2   3 -11    0.11    0.36
  -2  -3  11    0.03    0.43
   1   3 -11    0.49    0.34
  -1  -3  11    1.13    0.57
   0   3 -11    0.07    0.23
  -1   3 -11    0.17    0.23
  -2   3 -11    1.71    0.48
  -3   3 -11    0.14    0.38
   5   2 -11    0.06    0.63
   4   2 -11    0.12    0.51
  -4  -2  11    0.81    0.63
   3   2 -11   -0.04    0.48
  -3  -2  11   -0.18    0.47
   2   2 -11   -0.01    0.35
  -2  -2  11   -0.04    0.46
   1   2 -11    2.13    0.48
  -1  -2  11    2.92    0.72
   0   2 -11    0.06    0.23
  -1   2 -11    2.28    0.45
  -2   2 -11    0.40    0.36
  -3   2 -11    0.07    0.39
   4   1 -11    0.01    0.46
  -4  -1  11    0.74    0.67
   3   1 -11    0.21    0.49
  -3  -1  11    0.19    0.52
   2   1 -11   -0.03    0.38
  -2  -1  11    0.07    0.50
   1   1 -11    0.98    0.39
  -1  -1  11    1.70    0.66
   0   1 -11    0.08    0.23
  -1   1 -11    0.06    0.25
  -2   1 -11   -0.13    0.25
  -3   1 -11    0.03    0.39
  -5   0  11   -0.40    0.73
  -4   0  11   -1.13    0.52
   3   0 -11    0.07    0.50
  -3   0  11   -0.64    0.50
   2   0 -11   -0.31    0.37
  -2   0  11    0.12    0.51
   1   0 -11    8.74    0.76
  -1   0  11   10.98    1.18
   0   0 -11    0.09    0.24
   0   0  11   -0.11    0.50
  -1   0 -11    1.44    0.41
  -2   0 -11    0.21    0.34
  -3   0 -11    0.64    0.56
  -4   1  11    0.34    0.77
  -3   1  11    0.80    0.69
  -2   1  11   -0.21    0.53
  -1   1  11    5.14    1.00
   0  -1 -11    0.10    0.25
   0   1  11    0.17    0.54
  -1  -1 -11    0.39    0.33
  -2  -1 -11   -0.17    0.33
  -3  -1 -11    0.74    0.59
  -4   2  11   -0.68    0.63
  -3   2  11   -0.22    0.70
  -2   2  11    0.11    0.64
  -1   2  11    0.49    0.68
   0  -2 -11   12.18    0.90
   0   2  11   15.81    1.35
  -1  -2 -11    1.40    0.46
  -2  -2 -11   -0.25    0.37
  -4   3  11    1.17    0.98
  -3   3  11    1.05    0.84
  -2   3  11    3.25    1.04
  -1   3  11   -0.47    0.64
   0   3  11    4.90    0.96
  -1  -3 -11    1.67    0.49
  -2  -3 -11    0.16    0.45
  -4   4  11    0.31    0.91
  -3   4  11   -0.35    0.85
  -2   4  11    0.97    0.91
  -1   4  11   -0.09    0.69
  -3   5  11    2.65    1.23
  -2   5  11    0.60    0.89
  -1   5  11    0.29    0.76
  -3   6  11   -0.31    0.89
  -2   6  11    0.79    1.04
  -1  15 -12   -0.17    0.63
  -1  14 -12   -0.05    0.49
  -2  14 -12    0.14    0.52
   2  13 -12   -0.18    0.78
  -1  13 -12   -0.19    0.38
  -2  13 -12   -0.10    0.45
  -3  13 -12    0.14    0.61
   2  12 -12    1.06    0.87
   1  12 -12    0.15    0.60
   0  12 -12    0.63    0.60
  -1  12 -12    0.27    0.43
  -2  12 -12    0.46    0.60
  -3  12 -12   -0.07    0.59
   3  11 -12    0.48    0.84
   2  11 -12   -0.13    0.63
   1  11 -12    0.32    0.58
   0  11 -12    0.27    0.46
  -1  11 -12   -0.08    0.38
  -1  11 -12   -0.22    0.31
  -2  11 -12    0.63    0.58
  -3  11 -12    0.81    0.72
   3  10 -12    0.52    0.77
   2  10 -12    0.05    0.60
   1  10 -12    1.38    0.66
   0  10 -12    0.44    0.46
  -1  10 -12    0.27    0.35
  -1  10 -12    0.27    0.36
  -2  10 -12   -0.12    0.39
  -2  10 -12    0.19    0.46
  -3  10 -12    0.54    0.62
   3   9 -12   -0.43    0.59
   2   9 -12    0.09    0.53
   1   9 -12    0.19    0.44
   0   9 -12    2.17    0.56
  -1   9 -12    0.46    0.40
  -1   9 -12    0.43    0.37
  -2   9 -12    0.61    0.58
  -2   9 -12    0.34    0.42
  -3   9 -12    0.01    0.51
  -3   9 -12    0.13    0.53
  -4   9 -12    0.27    0.60
   3   8 -12   -0.08    0.58
   2   8 -12    0.48    0.59
   1   8 -12    0.27    0.43
   0   8 -12    3.44    0.60
  -1   8 -12    1.16    0.52
  -1   8 -12    1.16    0.43
  -2   8 -12    0.07    0.44
  -2   8 -12    0.01    0.38
  -3   8 -12    0.60    0.51
  -3   8 -12    0.40    0.46
  -4   8 -12    0.91    0.64
  -4   8 -12    0.30    0.59
   4   7 -12    0.69    0.79
   3   7 -12    0.80    0.63
   2   7 -12    1.01    0.60
   1   7 -12    0.14    0.37
   0   7 -12    0.10    0.26
  -1   7 -12   15.70    0.99
  -2   7 -12    0.32    0.38
  -2   7 -12    0.67    0.48
  -3   7 -12    1.39    0.62
  -3   7 -12    0.42    0.45
  -4   7 -12    1.39    0.59
  -4   7 -12    0.09    0.48
   4   6 -12   -0.37    0.64
   3   6 -12    0.39    0.62
   2   6 -12   -0.35    0.40
   1   6 -12    0.15    0.31
   0   6 -12    6.84    0.64
  -1   6 -12    1.79    0.58
  -2   6 -12    1.07    0.44
  -3   6 -12    0.21    0.38
   4   5 -12   -0.20    0.60
   3   5 -12    0.29    0.60
  -3  -5  12    0.43    0.53
   2   5 -12    1.11    0.61
   1   5 -12    0.06    0.26
   0   5 -12    0.31    0.27
  -1   5 -12    0.17    0.26
  -2   5 -12    0.22    0.31
  -3   5 -12    0.12    0.39
   4   4 -12    0.24    0.61
  -4  -4  12    1.24    0.68
   3   4 -12    0.39    0.60
  -3  -4  12   -0.20    0.44
   2   4 -12    1.00    0.54
  -2  -4  12    0.87    0.58
   1   4 -12    0.46    0.34
   0   4 -12    1.38    0.39
  -1   4 -12   -0.08    0.21
  -2   4 -12    0.37    0.33
  -3   4 -12    0.28    0.40
   4   3 -12    0.09    0.55
  -4  -3  12    0.14    0.58
   3   3 -12    0.28    0.60
  -3  -3  12    0.18    0.51
  -2  -3  12    1.18    0.58
   1   3 -12    0.25    0.33
   0   3 -12    0.16    0.25
  -1   3 -12    1.38    0.41
  -2   3 -12    0.20    0.31
  -3   3 -12    0.22    0.40
   4   2 -12    0.94    0.68
  -4  -2  12    0.44    0.68
   3   2 -12    0.19    0.58
  -3  -2  12   -0.06    0.49
   2   2 -12   -0.03    0.35
  -2  -2  12   -0.13    0.45
   1   2 -12    0.08    0.30
  -1  -2  12    0.27    0.53
   0   2 -12    0.09    0.26
  -1   2 -12    1.07    0.38
  -2   2 -12    4.22    0.68
  -3   2 -12   -0.30    0.40
  -4  -1  12    0.03    0.63
   3   1 -12    0.10    0.59
  -3  -1  12    0.29    0.61
   2   1 -12    0.50    0.54
  -2  -1  12    0.44    0.55
   1   1 -12    0.34    0.37
  -1  -1  12    0.59    0.58
   0   1 -12    0.08    0.25
  -1   1 -12    0.09    0.28
  -2   1 -12    0.00    0.33
  -3   1 -12    1.00    0.56
  -4   0  12    0.53    0.74
  -3   0  12   -0.03    0.61
   2   0 -12    1.24    0.63
  -2   0  12    1.76    0.75
   1   0 -12    2.19    0.56
  -1   0  12    4.93    0.98
   0   0 -12    0.24    0.30
  -1   0 -12    0.07    0.26
  -2   0 -12    0.30    0.39
  -4   1  12    0.39    0.77
  -3   1  12   -0.04    0.66
  -2   1  12    0.12    0.62
  -1   1  12    2.82    0.88
   0  -1 -12    1.17    0.42
   0   1  12    3.32    0.88
  -1  -1 -12   -0.05    0.30
  -2  -1 -12    0.02    0.39
  -4   2  12    0.09    0.79
  -3   2  12   -0.11    0.73
  -2   2  12   -0.61    0.61
  -1   2  12    1.37    0.75
   0   2  12    5.26    1.03
  -1  -2 -12    0.17    0.37
  -2  -2 -12    0.67    0.49
  -3   3  12    0.54    0.86
  -2   3  12    0.36    0.79
  -1   3  12    1.16    0.84
   0   3  12    1.42    0.69
  -2  -3 -12   -0.15    0.42
  -3   4  12    0.01    0.84
  -2   4  12   -0.01    0.81
  -1   4  12   -0.48    0.70
  -2   5  12   -0.85    0.83
  -1   5  12    0.35    0.85
  -2  14 -13    0.55    0.64
   2  13 -13    0.22    0.89
   1  13 -13   -0.29    0.75
  -2  13 -13    0.18    0.55
   2  12 -13    0.31    0.79
   1  12 -13    1.03    0.76
   0  12 -13    0.59    0.60
  -2  12 -13    0.00    0.50
  -3  12 -13   -0.08    0.62
   2  11 -13   -0.24    0.64
   1  11 -13   -0.20    0.50
   0  11 -13   -0.03    0.46
  -1  11 -13    0.10    0.42
  -2  11 -13   -0.10    0.48
  -3  11 -13    0.18    0.66
   3  10 -13    0.88    0.87
   2  10 -13    1.50    0.83
   1  10 -13    0.12    0.49
   0  10 -13    0.23    0.45
  -1  10 -13    0.31    0.38
  -2  10 -13    1.01    0.54
  -2  10 -13    0.69    0.62
  -3  10 -13    0.45    0.66
   3   9 -13    0.01    0.68
   2   9 -13    0.34    0.61
   1   9 -13   -0.17    0.43
   0   9 -13   -0.08    0.35
  -1   9 -13    1.26    0.47
  -2   9 -13   -0.12    0.42
  -2   9 -13    0.93    0.63
  -3   9 -13    0.58    0.60
  -3   9 -13    0.03    0.51
   3   8 -13   -0.42    0.60
   2   8 -13   -0.23    0.52
   1   8 -13   -0.15    0.40
   0   8 -13    0.06    0.33
  -1   8 -13    7.66    0.72
  -2   8 -13    0.08    0.42
  -2   8 -13    0.32    0.47
  -3   8 -13    0.56    0.53
  -3   8 -13    0.84    0.57
   3   7 -13    0.24    0.72
   2   7 -13    0.55    0.54
   1   7 -13   -0.15    0.29
   0   7 -13    0.16    0.30
  -1   7 -13    3.14    0.59
  -3   7 -13    1.58    0.59
  -3   7 -13    0.60    0.51
   4   6 -13   -0.07    0.77
   3   6 -13    0.27    0.62
   2   6 -13    3.75    0.91
   1   6 -13    0.05    0.32
   0   6 -13   -0.03    0.22
  -1   6 -13    0.27    0.35
  -2   6 -13    2.23    0.56
  -3   6 -13    0.72    0.48
   4   5 -13   -0.67    0.62
   3   5 -13   -0.37    0.61
  -3  -5  13    0.50    0.56
   2   5 -13    0.17    0.43
   1   5 -13    0.64    0.40
   0   5 -13    2.12    0.47
  -1   5 -13   -0.07    0.28
  -2   5 -13    0.58    0.42
  -3   5 -13    3.14    0.69
   4   4 -13    0.18    0.68
  -4  -4  13    0.13    0.55
   3   4 -13    0.01    0.65
  -3  -4  13   -0.20    0.45
   2   4 -13    0.05    0.42
  -2  -4  13    0.02    0.48
   1   4 -13    1.81    0.54
   0   4 -13    2.81    0.53
  -1   4 -13   -0.12    0.26
  -2   4 -13    0.24    0.37
  -3   4 -13    1.28    0.55
   4   3 -13    0.17    0.65
  -4  -3  13    0.06    0.55
   3   3 -13   -0.13    0.62
  -3  -3  13    0.01    0.52
   2   3 -13    0.73    0.58
  -2  -3  13    0.77    0.58
   1   3 -13    0.08    0.33
   0   3 -13    2.64    0.53
  -1   3 -13    0.32    0.34
  -2   3 -13    0.17    0.37
  -3   3 -13    0.10    0.43
  -4  -2  13    0.31    0.70
   3   2 -13   -0.29    0.63
  -3  -2  13   -0.39    0.51
   2   2 -13   -0.23    0.43
  -2  -2  13   -0.20    0.47
   1   2 -13   -0.01    0.31
  -1  -2  13    0.10    0.52
   0   2 -13    0.25    0.30
  -1   2 -13   -0.04    0.28
  -2   2 -13   -0.35    0.32
  -4  -1  13    0.69    0.73
   3   1 -13    1.05    0.76
  -3  -1  13    1.11    0.71
   2   1 -13    0.15    0.52
  -2  -1  13   -0.42    0.49
   1   1 -13   -0.22    0.33
  -1  -1  13    0.36    0.59
   0   1 -13    0.18    0.32
  -1   1 -13    0.07    0.30
  -2   1 -13    0.04    0.36
  -4   0  13    0.37    0.78
  -3   0  13   -0.13    0.66
  -2   0  13    0.26    0.65
   1   0 -13   -0.13    0.37
  -1   0  13   -0.08    0.56
   0   0 -13    0.63    0.39
  -1   0 -13    0.12    0.33
  -2   0 -13    0.08    0.39
  -4   1  13   -0.24    0.73
  -3   1  13    0.68    0.78
  -2   1  13    0.04    0.65
  -1   1  13    0.12    0.64
   0  -1 -13    0.17    0.34
  -1  -1 -13    0.22    0.35
  -2  -1 -13    0.60    0.48
  -3   2  13    0.42    0.81
  -2   2  13   -0.51    0.68
  -1   2  13    0.45    0.74
   0   2  13    0.17    0.66
  -1  -2 -13    3.67    0.72
  -3   3  13    0.66    0.87
  -2   3  13   -0.35    0.77
  -1   3  13   -0.11    0.73
  -2   4  13    0.69    1.00
  -1   4  13   -0.13    0.79
   1  13 -14    0.72    0.81
  -2  13 -14    0.05    0.57
   2  12 -14   -0.04    0.81
   1  12 -14    0.25    0.67
   0  12 -14    0.17    0.56
  -1  12 -14    0.11    0.51
  -2  12 -14   -0.13    0.54
   2  11 -14   -0.25    0.66
   1  11 -14    0.84    0.71
   0  11 -14   -0.52    0.44
  -1  11 -14    0.33    0.48
  -2  11 -14    0.42    0.58
  -2  11 -14   -0.07    0.49
   2  10 -14    0.39    0.71
   1  10 -14    0.33    0.55
   0  10 -14   -0.11    0.42
  -1  10 -14    0.58    0.44
  -2  10 -14    0.07    0.57
  -2  10 -14   -0.13    0.42
  -3  10 -14    0.59    0.71
  -3  10 -14    0.31    0.63
   3   9 -14   -0.37    0.69
   2   9 -14    0.18    0.57
   1   9 -14    0.80    0.61
   0   9 -14    0.33    0.44
  -1   9 -14    0.85    0.47
  -2   9 -14   -0.10    0.44
  -2   9 -14    0.33    0.54
  -3   9 -14   -0.17    0.53
  -3   9 -14    0.06    0.59
   3   8 -14   -0.36    0.65
   2   8 -14   -0.25    0.53
   1   8 -14    0.06    0.45
   0   8 -14    0.14    0.38
  -1   8 -14    0.47    0.39
  -2   8 -14    0.27    0.47
  -2   8 -14    0.76    0.51
  -3   8 -14    1.07    0.64
  -3   8 -14    0.05    0.52
   3   7 -14    0.00    0.63
   2   7 -14    0.00    0.60
   1   7 -14    0.01    0.39
   0   7 -14   -0.02    0.29
  -1   7 -14   -0.05    0.32
  -2   7 -14    0.40    0.45
  -3   7 -14   -0.10    0.50
  -3   7 -14    1.56    0.56
   3   6 -14   -0.15    0.69
   2   6 -14   -0.12    0.46
   1   6 -14   -0.16    0.32
   0   6 -14    0.24    0.33
  -1   6 -14   -0.13    0.33
  -2   6 -14    0.49    0.42
   3   5 -14   -0.39    0.68
   2   5 -14   -0.31    0.42
   1   5 -14   -0.03    0.33
   0   5 -14    0.38    0.33
  -1   5 -14    0.54    0.38
  -2   5 -14    0.21    0.41
   4   4 -14    0.56    0.73
  -4  -4  14    0.73    0.69
   3   4 -14   -0.58    0.70
  -3  -4  14   -0.18    0.53
   2   4 -14    0.28    0.51
   1   4 -14   -0.02    0.33
   0   4 -14    0.17    0.30
  -1   4 -14    0.50    0.38
  -2   4 -14   -0.10    0.36
   4   3 -14   -0.12    0.69
  -4  -3  14   -0.04    0.63
   3   3 -14    0.34    0.76
  -3  -3  14   -0.04    0.54
   2   3 -14    0.05    0.52
  -2  -3  14    0.00    0.49
   1   3 -14    0.02    0.37
   0   3 -14    1.30    0.45
  -1   3 -14   -0.22    0.27
  -2   3 -14   -0.16    0.36
  -4  -2  14    0.09    0.66
   3   2 -14    0.16    0.71
  -3  -2  14    0.39    0.64
   2   2 -14    0.39    0.61
  -2  -2  14    0.55    0.62
   1   2 -14   -0.15    0.39
   0   2 -14    0.25    0.35
  -1   2 -14    0.47    0.39
  -2   2 -14    0.11    0.38
  -3  -1  14    1.33    0.81
   2   1 -14    1.01    0.74
  -2  -1  14    0.63    0.67
   1   1 -14   -0.19    0.41
  -1  -1  14   -0.26    0.57
   0   1 -14    0.05    0.31
  -1   1 -14    0.08    0.33
  -2   1 -14    0.03    0.45
  -3   0  14    0.54    0.76
  -2   0  14    0.41    0.68
   1   0 -14    0.50    0.53
  -1   0  14   -0.63    0.54
   0   0 -14    0.11    0.37
  -1   0 -14    0.17    0.34
  -3   1  14   -0.08    0.76
  -2   1  14    0.86    0.77
  -1   1  14   -0.74    0.58
  -1  -1 -14   -0.12    0.37
  -2   2  14   -0.04    0.79
  -1   2  14    0.11    0.72
  -2   3  14   -0.59    0.79
  -1   3  14    0.33    0.82
   0  13 -15    0.00    0.66
   1  12 -15    0.83    0.73
   0  12 -15    0.13    0.59
  -1  12 -15   -0.07    0.58
   1  11 -15   -0.10    0.59
   0  11 -15    0.49    0.58
  -1  11 -15   -0.07    0.47
  -2  11 -15   -0.11    0.51
   2  10 -15    0.62    0.75
   1  10 -15   -0.01    0.50
   0  10 -15    0.29    0.51
  -1  10 -15   -0.10    0.42
  -2  10 -15   -0.13    0.48
   2   9 -15    0.36    0.72
   1   9 -15    0.44    0.58
   0   9 -15   -0.28    0.39
  -1   9 -15    0.13    0.42
  -2   9 -15    0.21    0.53
   2   8 -15    0.29    0.63
   1   8 -15    0.02    0.45
   0   8 -15    0.14    0.35
  -1   8 -15   -0.14    0.35
  -2   8 -15    0.17    0.49
   3   7 -15   -0.13    0.78
   2   7 -15   -0.52    0.53
   1   7 -15    0.09    0.44
   0   7 -15    0.11    0.36
  -1   7 -15    0.17    0.34
  -2   7 -15   -0.26    0.41
   3   6 -15   -0.26    0.75
   2   6 -15    0.43    0.59
   1   6 -15   -0.13    0.38
   0   6 -15    0.37    0.37
  -1   6 -15    0.14    0.39
  -2   6 -15   -0.15    0.41
   3   5 -15    0.40    0.82
   2   5 -15   -0.19    0.49
   1   5 -15    0.34    0.46
   0   5 -15    0.63    0.43
  -1   5 -15    0.38    0.42
  -2   5 -15    0.14    0.40
   3   4 -15   -0.04    0.84
  -3  -4  15   -0.12    0.59
   1   4 -15    0.12    0.38
   0   4 -15    2.42    0.56
  -1   4 -15   -0.18    0.35
  -2   4 -15    0.09    0.39
   3   3 -15    0.08    0.79
  -3  -3  15    0.20    0.61
   2   3 -15   -0.37    0.54
  -2  -3  15    0.44    0.67
   1   3 -15   -0.08    0.37
   0   3 -15    0.20    0.35
  -1   3 -15    0.23    0.37
  -3  -2  15   -0.09    0.63
   2   2 -15   -0.27    0.54
  -2  -2  15    0.54    0.64
   1   2 -15   -0.03    0.42
   0   2 -15   -0.19    0.31
  -1   2 -15    0.45    0.45
  -3  -1  15    0.16    0.69
  -2  -1  15    0.17    0.61
   1   1 -15   -0.33    0.43
   0   1 -15   -0.19    0.33
  -1   1 -15   -0.12    0.35
  -2   0  15   -0.09    0.69
  -1   0  15    0.73    0.79
   0   0 -15   -0.05    0.39
  -1   0 -15   -0.19    0.38
  -2   1  15    1.01    0.90
  -1   1  15    0.19    0.76
   0  11 -16   -0.14    0.54
  -1  11 -16   -0.34    0.52
   1  10 -16    1.06    0.69
   0  10 -16   -0.20    0.50
  -1  10 -16    0.16    0.48
   1   9 -16    0.88    0.66
   0   9 -16    0.67    0.53
  -1   9 -16    0.03    0.43
   2   8 -16    0.11    0.66
   1   8 -16    0.12    0.52
   0   8 -16    0.23    0.45
  -1   8 -16    0.03    0.40
   2   7 -16    0.10    0.64
   1   7 -16   -0.17    0.46
   0   7 -16    0.24    0.42
  -1   7 -16   -0.06    0.39
   2   6 -16    0.49    0.66
   1   6 -16    0.23    0.51
   0   6 -16   -0.37    0.32
  -1   6 -16   -0.11    0.38
   2   5 -16   -0.23    0.60
   1   5 -16    0.23    0.50
   0   5 -16    0.22    0.40
  -1   5 -16   -0.31    0.39
   1   4 -16    0.12    0.48
   0   4 -16   -0.12    0.33
  -1   4 -16    0.29    0.51
   2   3 -16   -0.43    0.60
   1   3 -16    0.37    0.51
   0   3 -16    0.29    0.40
   2   2 -16    0.15    0.71
  -2  -2  16    0.69    0.78
   1   2 -16   -0.05    0.53
   0   2 -16    0.17    0.40
  -2  -1  16    0.94    0.82
   1   1 -16    0.28    0.62
   0   1 -16   -0.11    0.42
   1   6 -17   -0.02    0.53
   1   5 -17    0.27    0.54
   0   0   0    0.00    0.00
;
loop_
_space_group_symop_operation_xyz
'x, y, z'
'-x, -y, -z'
loop_
_atom_site_label
_atom_site_type_symbol
_atom_site_fract_x
_atom_site_fract_y
_atom_site_fract_z
_atom_site_U_iso_or_equiv
_atom_site_adp_type
_atom_site_occupancy
_atom_site_site_symmetry_order
_atom_site_calc_flag
_atom_site_refinement_flags_posn
_atom_site_refinement_flags_adp
_atom_site_refinement_flags_occupancy
_atom_site_disorder_assembly
_atom_site_disorder_group
O1 O 0.5390(7) 0.1469(3) -0.1336(3) 0.0596(10) Uani 1 1 d . . . . .
O2 O 0.7261(9) -0.0100(3) -0.1211(3) 0.0934(14) Uani 1 1 d . . . . .
N1 N -0.1024(10) 0.6792(4) 0.5519(4) 0.0642(12) Uani 1 1 d . . . . .
N2 N 0.0355(8) 0.6778(3) 0.4638(3) 0.0460(10) Uani 1 1 d . . . . .
N3 N 0.1338(10) 0.7950(4) 0.3600(4) 0.0616(12) Uani 1 1 d . . . . .
C1 C -0.2031(11) 0.7896(5) 0.5885(4) 0.0623(15) Uani 1 1 d . . . . .
H1A H -0.305936 0.818184 0.649841 0.075 Uiso 1 1 calc R U . . .
C2 C -0.1412(11) 0.8560(4) 0.5279(4) 0.0590(14) Uani 1 1 d . . . . .
H2A H -0.190943 0.933395 0.539520 0.071 Uiso 1 1 calc R U . . .
C3 C 0.0139(11) 0.7812(4) 0.4443(4) 0.0490(13) Uani 1 1 d . . . . .
C4 C 0.2762(11) 0.7030(4) 0.2969(4) 0.0587(14) Uani 1 1 d . . . . .
H4A H 0.357454 0.711280 0.237830 0.070 Uiso 1 1 calc R U . . .
C5 C 0.3135(10) 0.5941(4) 0.3122(4) 0.0429(11) Uani 1 1 d . U . . .
C6 C 0.1825(10) 0.5849(4) 0.3977(4) 0.0488(13) Uani 1 1 d . U . . .
H6A H 0.192296 0.515144 0.411541 0.059 Uiso 1 1 calc R U . . .
C7 C 0.4705(10) 0.4969(4) 0.2400(4) 0.0397(11) Uani 1 1 d . . . . .
C8 C 0.5866(11) 0.5032(4) 0.1494(4) 0.0552(14) Uani 1 1 d . . . . .
H8A H 0.565289 0.571320 0.134184 0.066 Uiso 1 1 calc R U . . .
C9 C 0.7386(10) 0.4088(4) 0.0782(4) 0.0549(13) Uani 1 1 d . . . . .
H9A H 0.816233 0.417095 0.018477 0.066 Uiso 1 1 calc R U . . .
C10 C 0.7711(10) 0.3065(4) 0.0968(4) 0.0460(12) Uani 1 1 d . . . . .
C11 C 0.6616(11) 0.3000(4) 0.1896(4) 0.0568(14) Uani 1 1 d . . . . .
H11A H 0.685333 0.232334 0.205252 0.068 Uiso 1 1 calc R U . . .
C12 C 0.5155(11) 0.3944(4) 0.2601(4) 0.0558(14) Uani 1 1 d . . . . .
H12A H 0.447019 0.388152 0.322112 0.067 Uiso 1 1 calc R U . . .
C13 C 0.9187(10) 0.2019(4) 0.0182(4) 0.0572(14) Uani 1 1 d . . . . .
H13A H 1.074829 0.238814 -0.007988 0.069 Uiso 1 1 calc R U . . .
H13B H 1.007457 0.162990 0.061494 0.069 Uiso 1 1 calc R U . . .
C14 C 0.7181(11) 0.1002(5) -0.0845(4) 0.0520(13) Uani 1 1 d . . . . .
C15 C 0.3461(12) 0.0569(4) -0.2352(4) 0.0673(16) Uani 1 1 d . . . . .
H15A H 0.226183 0.100510 -0.263780 0.101 Uiso 1 1 calc R U . . .
H15B H 0.460872 0.011239 -0.291673 0.101 Uiso 1 1 calc R U . . .
H15C H 0.223614 -0.000651 -0.217492 0.101 Uiso 1 1 calc R U . . .
loop_
_atom_site_aniso_label
_atom_site_aniso_U_11
_atom_site_aniso_U_22
_atom_site_aniso_U_33
_atom_site_aniso_U_23
_atom_site_aniso_U_13
_atom_site_aniso_U_12
O1 0.066(2) 0.044(2) 0.059(2) 0.0166(17) -0.0083(18) 0.0112(18)
O2 0.113(4) 0.043(2) 0.101(3) 0.016(2) -0.027(3) 0.019(2)
N1 0.076(3) 0.049(3) 0.070(3) 0.023(2) 0.024(3) 0.022(2)
N2 0.048(3) 0.035(2) 0.050(2) 0.0142(19) 0.007(2) 0.0093(19)
N3 0.073(3) 0.043(3) 0.077(3) 0.031(2) 0.017(3) 0.019(2)
C1 0.060(4) 0.044(3) 0.073(4) 0.014(3) 0.014(3) 0.015(3)
C2 0.069(4) 0.034(3) 0.064(3) 0.013(3) 0.007(3) 0.009(3)
C3 0.051(3) 0.036(3) 0.057(3) 0.019(3) -0.001(3) 0.007(2)
C4 0.076(4) 0.041(3) 0.066(3) 0.028(3) 0.018(3) 0.012(3)
C5 0.045(3) 0.034(3) 0.048(3) 0.018(2) 0.001(2) 0.001(2)
C6 0.051(3) 0.032(3) 0.056(3) 0.015(2) -0.005(3) 0.008(2)
C7 0.039(3) 0.033(3) 0.045(3) 0.016(2) 0.005(2) 0.004(2)
C8 0.058(4) 0.044(3) 0.066(3) 0.028(3) 0.001(3) 0.012(3)
C9 0.059(4) 0.056(3) 0.054(3) 0.025(3) 0.015(3) 0.016(3)
C10 0.033(3) 0.042(3) 0.054(3) 0.015(2) -0.001(2) 0.004(2)
C11 0.063(4) 0.041(3) 0.070(4) 0.026(3) 0.007(3) 0.015(3)
C12 0.073(4) 0.043(3) 0.057(3) 0.024(3) 0.019(3) 0.014(3)
C13 0.049(3) 0.052(3) 0.060(3) 0.014(3) 0.001(3) 0.016(3)
C14 0.048(3) 0.048(3) 0.057(3) 0.018(3) 0.010(3) 0.016(3)
C15 0.077(4) 0.057(3) 0.052(3) 0.014(3) -0.011(3) 0.005(3)
loop_
_atom_type_symbol
_atom_type_description
_atom_type_scat_dispersion_real
_atom_type_scat_dispersion_imag
_atom_type_scat_source
C C 0.0033 0.0016 'International Tables Vol C Tables 4.2.6.8 and 6.1.1.4'
H H 0.0000 0.0000 'International Tables Vol C Tables 4.2.6.8 and 6.1.1.4'
N N 0.0061 0.0033 'International Tables Vol C Tables 4.2.6.8 and 6.1.1.4'
O O 0.0106 0.0060 'International Tables Vol C Tables 4.2.6.8 and 6.1.1.4'
loop_
_geom_angle_atom_site_label_1
_geom_angle_atom_site_label_2
_geom_angle_atom_site_label_3
_geom_angle
_geom_angle_site_symmetry_1
_geom_angle_site_symmetry_3
C14 O1 C15 116.3(4) . .
C1 N1 N2 102.4(4) . .
N1 N2 C3 113.1(4) . .
N1 N2 C6 126.0(4) . .
C3 N2 C6 120.9(4) . .
C3 N3 C4 116.5(4) . .
N1 C1 C2 114.4(5) . .
N1 C1 H1A 122.8 . .
C2 C1 H1A 122.8 . .
C1 C2 C3 104.7(4) . .
C1 C2 H2A 127.6 . .
C3 C2 H2A 127.6 . .
N3 C3 N2 121.3(4) . .
N3 C3 C2 133.3(5) . .
N2 C3 C2 105.4(4) . .
N3 C4 C5 125.9(5) . .
N3 C4 H4A 117.0 . .
C5 C4 H4A 117.0 . .
C6 C5 C4 114.5(4) . .
C6 C5 C7 122.2(4) . .
C4 C5 C7 123.3(4) . .
C5 C6 N2 120.7(4) . .
C5 C6 H6A 119.6 . .
N2 C6 H6A 119.6 . .
C8 C7 C12 116.2(4) . .
C8 C7 C5 121.7(4) . .
C12 C7 C5 122.1(4) . .
C7 C8 C9 122.2(4) . .
C7 C8 H8A 118.9 . .
C9 C8 H8A 118.9 . .
C10 C9 C8 120.7(5) . .
C10 C9 H9A 119.7 . .
C8 C9 H9A 119.7 . .
C9 C10 C11 117.9(4) . .
C9 C10 C13 121.3(5) . .
C11 C10 C13 120.8(4) . .
C10 C11 C12 120.9(4) . .
C10 C11 H11A 119.6 . .
C12 C11 H11A 119.6 . .
C7 C12 C11 122.0(5) . .
C7 C12 H12A 119.0 . .
C11 C12 H12A 119.0 . .
C14 C13 C10 115.1(4) . .
C14 C13 H13A 108.5 . .
C10 C13 H13A 108.5 . .
C14 C13 H13B 108.5 . .
C10 C13 H13B 108.5 . .
H13A C13 H13B 107.5 . .
O2 C14 O1 122.8(5) . .
O2 C14 C13 124.8(5) . .
O1 C14 C13 112.3(4) . .
O1 C15 H15A 109.5 . .
O1 C15 H15B 109.5 . .
H15A C15 H15B 109.5 . .
O1 C15 H15C 109.5 . .
H15A C15 H15C 109.5 . .
H15B C15 H15C 109.5 . .
loop_
_geom_bond_atom_site_label_1
_geom_bond_atom_site_label_2
_geom_bond_distance
_geom_bond_site_symmetry_2
O1 C14 1.321(5) .
O1 C15 1.452(5) .
O2 C14 1.198(5) .
N1 C1 1.350(5) .
N1 N2 1.367(5) .
N2 C3 1.377(5) .
N2 C6 1.380(5) .
N3 C3 1.345(6) .
N3 C4 1.347(6) .
C1 C2 1.370(6) .
C1 H1A 0.9300 .
C2 C3 1.403(7) .
C2 H2A 0.9300 .
C4 C5 1.425(6) .
C4 H4A 0.9300 .
C5 C6 1.363(6) .
C5 C7 1.467(6) .
C6 H6A 0.9300 .
C7 C8 1.378(6) .
C7 C12 1.391(6) .
C8 C9 1.428(6) .
C8 H8A 0.9300 .
C9 C10 1.367(6) .
C9 H9A 0.9300 .
C10 C11 1.392(6) .
C10 C13 1.520(6) .
C11 C12 1.408(6) .
C11 H11A 0.9300 .
C12 H12A 0.9300 .
C13 C14 1.519(6) .
C13 H13A 0.9700 .
C13 H13B 0.9700 .
C15 H15A 0.9600 .
C15 H15B 0.9600 .
C15 H15C 0.9600 .
