#------------------------------------------------------------------------------
#$Date: 2022-07-05 10:56:50 +0300 (Tue, 05 Jul 2022) $
#$Revision: 276560 $
#$URL: file:///home/coder/svn-repositories/cod/cif/8/10/56/8105651.cif $
#------------------------------------------------------------------------------
#
# This file is available in the Crystallography Open Database (COD),
# http://www.crystallography.net/
#
# All data on this site have been placed in the public domain by the
# contributors.
#
data_8105651
loop_
_publ_author_name
'Wang, Li'
'Yu, Meng'
'Liu, Ling-Zhi'
'Ma, Jin-Xia'
'Dong, Wen-Kui'
_publ_section_title
;
 Crystal structure of
 bis[2-(((3-aminopropyl)imino)methyl)-4-nitro-phenolato-\k3
 N,N&#x2032;,O]nickel(II), C20H24N6NiO6
;
_journal_issue                   3
_journal_name_full
'Zeitschrift f\"ur Kristallographie - New Crystal Structures'
_journal_page_first              377
_journal_page_last               378
_journal_paper_doi               10.1515/ncrs-2017-0390
_journal_volume                  234
_journal_year                    2019
_chemical_formula_moiety         'C20 H24 N6 Ni O6'
_chemical_formula_sum            'C20 H24 N6 Ni O6'
_chemical_formula_weight         503.16
_space_group_crystal_system      triclinic
_space_group_IT_number           2
_space_group_name_Hall           '-P 1'
_space_group_name_H-M_alt        'P -1'
_atom_sites_solution_hydrogens   geom
_atom_sites_solution_primary     direct
_cell_angle_alpha                65.236(3)
_cell_angle_beta                 81.959(3)
_cell_angle_gamma                79.882(3)
_cell_formula_units_Z            1
_cell_length_a                   5.3944(6)
_cell_length_b                   10.1144(12)
_cell_length_c                   10.9297(12)
_cell_measurement_reflns_used    3161
_cell_measurement_temperature    173(2)
_cell_measurement_theta_max      27.60
_cell_measurement_theta_min      2.35
_cell_volume                     531.61(11)
_computing_cell_refinement       'Bruker SAINT'
_computing_data_collection       'Bruker APEX2'
_computing_data_reduction        'Bruker SAINT'
_computing_molecular_graphics    'Olex2 (Dolomanov et al., 2009)'
_computing_publication_material  'Olex2 (Dolomanov et al., 2009)'
_computing_structure_refinement  'ShelXL (Sheldrick, 2008)'
_computing_structure_solution    'ShelXS-1997 (Sheldrick, 2008)'
_diffrn_ambient_temperature      173.15
_diffrn_measured_fraction_theta_full 0.987
_diffrn_measured_fraction_theta_max 0.987
_diffrn_measurement_device_type  'Bruker APEX-II CCD'
_diffrn_measurement_method       '\f and \w scans'
_diffrn_radiation_type           MoK\a
_diffrn_radiation_wavelength     0.71073
_diffrn_reflns_av_R_equivalents  0.0188
_diffrn_reflns_av_unetI/netI     0.0305
_diffrn_reflns_Laue_measured_fraction_full 0.987
_diffrn_reflns_Laue_measured_fraction_max 0.987
_diffrn_reflns_limit_h_max       5
_diffrn_reflns_limit_h_min       -6
_diffrn_reflns_limit_k_max       12
_diffrn_reflns_limit_k_min       -10
_diffrn_reflns_limit_l_max       13
_diffrn_reflns_limit_l_min       -13
_diffrn_reflns_number            3509
_diffrn_reflns_point_group_measured_fraction_full 0.987
_diffrn_reflns_point_group_measured_fraction_max 0.987
_diffrn_reflns_theta_full        25.008
_diffrn_reflns_theta_max         25.008
_diffrn_reflns_theta_min         2.237
_exptl_absorpt_coefficient_mu    0.965
_exptl_crystal_density_diffrn    1.572
_exptl_crystal_description
;
;
_exptl_crystal_F_000             262
_exptl_crystal_size_max          0.22
_exptl_crystal_size_mid          0.19
_exptl_crystal_size_min          0.16
_refine_diff_density_max         0.360
_refine_diff_density_min         -0.294
_refine_diff_density_rms         0.050
_refine_ls_extinction_coef       .
_refine_ls_extinction_method     none
_refine_ls_goodness_of_fit_ref   1.089
_refine_ls_hydrogen_treatment    constr
_refine_ls_matrix_type           full
_refine_ls_number_parameters     151
_refine_ls_number_reflns         1852
_refine_ls_number_restraints     0
_refine_ls_restrained_S_all      1.089
_refine_ls_R_factor_all          0.0285
_refine_ls_R_factor_gt           0.0262
_refine_ls_shift/su_max          0.000
_refine_ls_shift/su_mean         0.000
_refine_ls_structure_factor_coef Fsqd
_refine_ls_weighting_details
'w=1/[\s^2^(Fo^2^)+(0.0226P)^2^+0.3514P] where P=(Fo^2^+2Fc^2^)/3'
_refine_ls_weighting_scheme      calc
_refine_ls_wR_factor_gt          0.0636
_refine_ls_wR_factor_ref         0.0649
_reflns_Friedel_coverage         0.000
_reflns_Friedel_fraction_full    .
_reflns_Friedel_fraction_max     .
_reflns_number_gt                1754
_reflns_number_total             1852
_reflns_threshold_expression     'I > 2\s(I)'
_cod_data_source_file            suppl_ncrs-2017-0390_suppl.cif
_cod_data_source_block           2
_cod_database_code               8105651
_shelx_space_group_comment
;
The symmetry employed for this shelxl refinement is uniquely defined
by the following loop, which should always be used as a source of
symmetry information in preference to the above space-group names.
They are only intended as comments.
;
_shelx_estimated_absorpt_t_max   0.861
_shelx_estimated_absorpt_t_min   0.816
_olex2_refinement_description
;
1. Fixed Uiso
 At 1.2 times of:
  All C(H) groups, All C(H,H) groups, All N(H,H) groups
2.a Secondary CH2 refined with riding coordinates:
 C8(H8A,H8B), C9(H9A,H9B), C10(H10A,H10B), N3(H3A,H3B)
2.b Aromatic/amide H refined with riding coordinates:
 C2(H2), C3(H3), C6(H6), C7(H7)
;
_shelx_res_file
;
TITL 20180610LZ1_0m_a.res in P-1
    20180610lz1_0m_a.res
    created by SHELXL-2017/1 at 16:48:46 on 24-Oct-2018
CELL 0.71073 5.3944 10.1144 10.9297 65.236 81.959 79.882
ZERR 1 0.0006 0.0012 0.0012 0.003 0.003 0.003
LATT 1
SFAC C H N Ni O
UNIT 20 24 6 1 6

L.S. 10
PLAN  20
SIZE 0.22 0.19 0.16
TEMP -100
BOND $H
LIST 6
fmap 2
acta
OMIT -3 50.02
OMIT 0 1 1
REM <olex2.extras>
REM <HklSrc "%.\\20180610LZ1_0m_a.hkl">
REM </olex2.extras>

WGHT    0.022600    0.351400
FVAR       1.35054
C1    1    0.338880    0.177105    0.542731    11.00000    0.02133    0.02036 =
         0.01571   -0.00323   -0.00004   -0.00355
C2    1    0.511127    0.269876    0.535491    11.00000    0.02794    0.02507 =
         0.01960   -0.00889   -0.00551   -0.00587
AFIX  43
H2    2    0.547524    0.277142    0.614855    11.00000   -1.20000
AFIX   0
C3    1    0.625866    0.349696    0.412506    11.00000    0.02425    0.02588 =
         0.02308   -0.00729   -0.00405   -0.01130
AFIX  43
H3    2    0.743526    0.411483    0.408278    11.00000   -1.20000
AFIX   0
C4    1    0.575319    0.343482    0.290815    11.00000    0.01489    0.01721 =
         0.01888   -0.00482   -0.00281   -0.00179
C5    1    0.404970    0.242785    0.302675    11.00000    0.01608    0.01606 =
         0.01812   -0.00444   -0.00175   -0.00240
C6    1    0.291379    0.161158    0.429112    11.00000    0.01786    0.01865 =
         0.02088   -0.00619   -0.00043   -0.00536
AFIX  43
H6    2    0.180625    0.094181    0.436945    11.00000   -1.20000
AFIX   0
C7    1    0.373609    0.207266    0.189990    11.00000    0.01483    0.01667 =
         0.02136   -0.00624    0.00062   -0.00590
AFIX  43
H7    2    0.312284    0.117283    0.210417    11.00000   -1.20000
AFIX   0
C8    1    0.435776    0.224433   -0.033798    11.00000    0.01899    0.02035 =
         0.01967   -0.00928   -0.00134   -0.00642
AFIX  23
H8A   2    0.331454    0.290631   -0.109262    11.00000   -1.20000
H8B   2    0.368184    0.129066    0.009263    11.00000   -1.20000
AFIX   0
C9    1    0.710488    0.201711   -0.088176    11.00000    0.01991    0.01914 =
         0.02141   -0.01004   -0.00170   -0.00278
AFIX  23
H9A   2    0.814677    0.141730   -0.010963    11.00000   -1.20000
H9B   2    0.719484    0.145651   -0.144655    11.00000   -1.20000
AFIX   0
C10   1    0.822552    0.343815   -0.171569    11.00000    0.01435    0.02234 =
         0.01880   -0.00966   -0.00022   -0.00238
AFIX  23
H10A  2    0.993078    0.320713   -0.210498    11.00000   -1.20000
H10B  2    0.716016    0.405812   -0.247291    11.00000   -1.20000
AFIX   0
N1    3    0.218528    0.092978    0.671918    11.00000    0.02484    0.02372 =
         0.01913   -0.00690    0.00177   -0.00422
N2    3    0.422836    0.288708    0.065538    11.00000    0.01271    0.01723 =
         0.01850   -0.00717   -0.00086   -0.00428
N3    3    0.840825    0.427227   -0.089596    11.00000    0.01486    0.02012 =
         0.02050   -0.00737   -0.00047   -0.00546
AFIX  23
H3A   2    0.918194    0.507404   -0.143334    11.00000   -1.20000
H3B   2    0.943674    0.369786   -0.022393    11.00000   -1.20000
AFIX   0
NI1   4    0.500000    0.500000    0.000000    10.50000    0.01283    0.01610 =
         0.01466   -0.00504   -0.00024   -0.00512
O1    5    0.057667    0.017004    0.676985    11.00000    0.04658    0.05259 =
         0.02564   -0.01267    0.00852   -0.03429
O2    5    0.279320    0.098204    0.774174    11.00000    0.03767    0.03087 =
         0.01629   -0.00889   -0.00045   -0.00656
O3    5    0.680592    0.425539    0.176934    11.00000    0.01745    0.02123 =
         0.01665   -0.00374   -0.00164   -0.00856
HKLF 4




REM  20180610LZ1_0m_a.res in P-1
REM R1 =  0.0262 for    1754 Fo > 4sig(Fo)  and  0.0285 for all    1852 data
REM    151 parameters refined using      0 restraints

END

WGHT      0.0226      0.3511

REM Highest difference peak  0.360,  deepest hole -0.294,  1-sigma level  0.050
Q1    1   0.4973  0.3857  0.0275  11.00000  0.05    0.36
Q2    1   0.5067  0.4738 -0.0798  11.00000  0.05    0.30
Q3    1   0.7445  0.2816 -0.1338  11.00000  0.05    0.29
Q4    1   0.5798  0.2087 -0.0600  11.00000  0.05    0.24
Q5    1   0.9895  0.4782 -0.1219  11.00000  0.05    0.23
Q6    1   0.5020  0.2777  0.2965  11.00000  0.05    0.22
Q7    1   0.4207  0.1813  0.3673  11.00000  0.05    0.22
Q8    1   0.3882  0.2400  0.2451  11.00000  0.05    0.21
Q9    1   0.4549  0.1984  0.5386  11.00000  0.05    0.19
Q10   1   0.8546  0.4003 -0.0115  11.00000  0.05    0.19
Q11   1   0.4300  0.2537  0.0191  11.00000  0.05    0.18
Q12   1   0.6525  0.3237  0.3487  11.00000  0.05    0.16
Q13   1   0.2854  0.2054  0.4844  11.00000  0.05    0.16
Q14   1   0.3216  0.1471  0.5890  11.00000  0.05    0.16
Q15   1   0.5605  0.3575  0.3513  11.00000  0.05    0.16
Q16   1   0.3795  0.1375  0.4976  11.00000  0.05    0.15
Q17   1   0.8124  0.3744 -0.1252  11.00000  0.05    0.15
Q18   1   0.4066  0.1048  0.2190  11.00000  0.05    0.15
Q19   1   0.6029  0.2800  0.4657  11.00000  0.05    0.14
Q20   1   0.3388  0.5658 -0.0356  11.00000  0.05    0.14
;
_shelx_hkl_file
;
  -2   0   0    9.10    1.40
  -2   0   0   10.30    1.50
  -2   0   0    6.50    1.40
   2   0   0    7.40    1.40
   2   0   0    6.40    1.90
  -3   0   0   84.79    4.30
   3   0   0   69.29    4.00
  -4   0   0  175.18    9.00
  -4   0   0  161.68    7.10
  -5   0   0  115.99   10.10
  -6   0   0  114.89   13.70
  -6   1   0  233.48   13.80
  -6   1   0  249.58   16.20
  -5   1   0  247.18   11.50
  -5   1   0  247.58   13.30
  -4   1   0   47.30    5.40
  -4   1   0   49.30    6.30
  -3   1   0 1987.80   56.89
  -3   1   0 2054.09   56.39
  -2   1   0 5156.28  141.39
  -2   1   0 5327.17  141.29
   1  -1   0 4747.33  124.69
  -1   1   0 4576.14  124.79
  -1   1   0 4647.14  124.99
   0   1   0  707.03   19.30
   0   1   0  728.53   19.30
  -1  -1   0 1111.19   30.10
  -1  -1   0 1091.79   30.60
   1   1   0 1122.79   30.60
   1   1   0 1116.59   30.20
  -2  -1   0    9.00    1.70
  -2  -1   0    7.80    1.40
   2   1   0    8.20    1.30
   2   1   0    4.60    1.70
  -3  -1   0  649.43   20.40
   3   1   0  642.74   19.00
  -4  -1   0    8.70    3.40
  -5  -1   0   23.40    5.60
  -6  -1   0  502.15   21.90
  -6   2   0  354.56   18.50
  -6   2   0  314.57   16.30
  -5   2   0  712.33   24.50
  -5   2   0  678.13   24.90
  -4   2   0  559.44   19.90
  -4   2   0  584.74   19.60
  -3   2   0  675.73   21.30
  -3   2   0  675.13   21.40
  -2   2   0   85.29    4.50
  -2   2   0   96.59    4.90
   0   2   0  361.96   10.00
   0   2   0  357.56   10.10
  -1  -2   0 2202.68   60.29
   1   2   0 2188.68   59.89
   1   2   0 2227.58   59.79
   1   2   0 2277.07   60.29
  -2  -2   0  958.80   27.90
  -2  -2   0  986.10   27.10
   2   2   0  966.20   27.10
  -3  -2   0  470.85   15.70
   3   2   0  464.35   14.30
  -4  -2   0  670.73   22.40
   4   2   0  676.33   20.60
  -5  -2   0  284.67   14.00
  -6  -2   0  290.37   16.40
  -6   3   0  216.38   16.10
  -6   3   0  195.38   16.20
  -5   3   0 1045.00   34.00
  -5   3   0 1012.70   33.70
  -4   3   0  109.39    9.80
  -4   3   0  121.79    8.50
  -3   3   0  511.75   17.00
  -3   3   0  503.75   17.70
  -2   3   0  837.82   24.70
  -2   3   0  853.61   25.70
   1  -3   0  550.84   15.30
  -1   3   0  530.85   15.60
  -1   3   0  537.15   16.70
   0   3   0  943.01   25.70
   0   3   0  929.11   25.60
  -1  -3   0 3583.74   97.69
   1   3   0 3671.43   97.89
  -2  -3   0  227.78    8.20
   2   3   0  229.68    7.60
   2   3   0  237.08    7.50
  -3  -3   0 1400.26   41.00
   3   3   0 1436.56   39.80
  -4  -3   0 1226.38   37.10
   4   3   0 1219.88   35.20
  -5  -3   0  274.57   13.60
  -6  -3   0  230.18   14.60
  -6   4   0   -5.30    9.50
  -6   4   0  -15.40    9.90
  -5   4   0   78.09    9.70
  -5   4   0   57.79    8.30
  -4   4   0  322.27   14.10
  -4   4   0  338.57   15.90
  -3   4   0 1199.78   35.60
  -3   4   0 1194.88   36.90
  -2   4   0 4715.63  129.49
  -2   4   0 4848.42  131.19
   1  -4   0  228.28    7.90
  -1   4   0  279.07    8.30
   0   4   0  338.37    9.90
   0   4   0  333.17   10.00
  -1  -4   0 3176.78   78.79
   1   4   0 2641.94   78.99
  -2  -4   0 2812.32   76.49
   2   4   0 2717.03   75.69
   2   4   0 2844.42   75.99
  -3  -4   0   80.49    5.70
   3   4   0   73.99    4.40
  -4  -4   0  104.49    7.60
   4   4   0  113.09    6.50
  -5  -4   0  322.17   14.90
   5   4   0  300.77   12.40
  -6  -4   0  124.29   12.40
  -5   5   0  155.38   15.70
  -5   5   0  141.39   13.80
  -4   5   0 1420.06   45.10
  -4   5   0 1420.06   43.20
  -3   5   0 2040.50   56.99
  -3   5   0 1792.22   54.59
  -2   5   0  727.63   23.90
  -2   5   0  697.83   21.60
  -1   5   0  701.93   20.90
  -1   5   0  748.03   23.30
   0   5   0  165.38    5.60
  -1  -5   0  647.24   18.70
  -2  -5   0  318.17   10.70
   2   5   0  311.17   10.50
  -3  -5   0  216.78    9.70
   3   5   0  244.18    9.00
  -4  -5   0  124.69    8.50
   4   5   0  129.09    7.70
  -5  -5   0   -1.50    4.40
   5   5   0   -0.70    4.20
  -6  -5   0  224.88   15.10
  -5   6   0  182.08   18.40
  -5   6   0  229.38   16.10
  -4   6   0   81.79   10.70
  -4   6   0   74.69    9.80
  -3   6   0   66.59    9.60
  -2   6   0  563.04   20.60
  -2   6   0  547.35   17.90
  -1   6   0  370.16   11.90
  -1   6   0  366.36   14.50
   0   6   0  150.68    5.60
  -1  -6   0   37.30    2.80
  -2  -6   0  659.63   20.00
  -3  -6   0  331.17   12.50
   3   6   0  341.77   12.10
  -4  -6   0   76.69    7.50
   4   6   0   62.79    6.80
  -5  -6   0   73.99    9.90
   5   6   0   87.19    8.80
  -6  -6   0   33.50    8.30
   6   6   0   38.00    6.50
  -5   7   0    7.40   12.40
  -5   7   0   15.30    9.20
  -4   7   0   11.70    8.70
  -4   7   0   -1.10    6.30
  -3   7   0  141.49   12.30
  -3   7   0  143.59    9.90
  -2   7   0  112.69    7.70
  -2   7   0  126.29   10.70
  -1   7   0  205.48    8.10
  -1   7   0  186.28   11.10
   0   7   0  365.16   11.60
   1   7   0 1180.48   33.20
  -2  -7   0  333.77   11.60
  -3  -7   0  179.18    8.80
   3   7   0  169.88    8.90
  -4  -7   0  510.05   18.50
   4   7   0  510.25   17.90
  -5  -7   0   13.80    6.10
   5   7   0   16.70    5.70
  -6  -7   0   -3.40    7.60
   6   7   0    1.60    6.30
  -4   8   0  142.09   18.30
  -4   8   0  141.69   14.30
  -3   8   0  152.38   14.50
  -3   8   0  163.28   11.60
  -2   8   0  373.16   14.50
  -2   8   0  371.66   18.30
  -1   8   0  218.08   13.00
  -1   8   0  210.28    9.30
   0   8   0   78.99    5.40
   1   8   0  177.78    7.30
  -2  -8   0  920.01   27.10
  -3  -8   0  759.52   24.30
   3   8   0  801.82   25.00
  -4  -8   0  181.38   10.70
   4   8   0  197.98   10.90
  -5  -8   0   70.29    7.70
   5   8   0   66.49    7.70
  -3   9   0   22.90    7.20
  -3   9   0   52.39   10.50
  -2   9   0  137.29   14.60
  -2   9   0  149.29   10.50
  -1   9   0  148.79   12.70
  -1   9   0  133.39    8.40
   0   9   0   -3.80    3.10
   0   9   0    2.20    5.30
   1   9   0  236.38    9.30
  -3  -9   0  188.38    9.60
   3   9   0  193.68   11.50
  -4  -9   0  697.23   23.60
   4   9   0  691.23   24.20
  -5  -9   0  318.67   16.40
   5   9   0  314.27   16.20
  -3  10   0   -8.90   11.50
  -3  10   0   20.00    8.80
  -2  10   0   28.50    7.30
  -2  10   0   29.40   10.90
  -1  10   0  339.27   19.50
  -1  10   0  352.26   14.50
   0  10   0  171.08    8.90
   0  10   0  175.38   14.60
   1  10   0    8.80    6.70
   1  10   0    7.90    3.80
   2  10   0   30.00    4.60
  -3 -10   0  208.38   10.20
   3  10   0  193.38   13.00
  -4 -10   0  314.07   13.90
   4  10   0  286.67   17.30
   4  10   0  304.77   16.10
  -1  11   0  179.38   12.00
  -1  11   0  155.68   18.30
   0  11   0   23.50    5.60
   0  11   0   13.30    9.30
   1  11   0   12.40    8.30
   1  11   0    1.40    4.10
   2  11   0  163.88    9.40
   2  11   0  155.88   16.20
   3  11   0    5.00    7.90
   3  11   0   10.30    9.30
   3  11   0    3.90    5.40
   2  11  -1   70.89    8.20
   2  11  -1   84.99   12.30
   1  11  -1   60.79   11.70
   1  11  -1   61.99    7.80
   0  11  -1  467.55   24.90
   0  11  -1  471.95   17.60
  -1  11  -1  643.94   30.70
  -1  11  -1  564.84   21.70
   4  10  -1   27.20    9.20
  -4 -10   1   19.90    5.80
   3  10  -1   51.99    9.10
   3  10  -1   48.40    8.30
  -3 -10   1   52.19    5.50
   2  10  -1   50.39    5.30
   2  10  -1   69.19    9.40
   1  10  -1  867.41   31.90
   1  10  -1  856.11   25.80
   0  10  -1  502.55   17.10
   0  10  -1  504.55   24.20
  -1  10  -1  343.27   14.20
  -1  10  -1  346.27   20.60
  -2  10  -1   96.69   12.90
  -2  10  -1   98.59   12.10
   4   9  -1  129.39   12.50
   4   9  -1  145.89   12.80
  -4  -9   1  143.79   10.10
   3   9  -1  161.88   12.40
   3   9  -1  166.88   11.40
  -3  -9   1  160.68    9.00
   2   9  -1  231.28   13.90
   1   9  -1   13.00    3.30
   1   9  -1   14.80    6.80
   0   9  -1   -3.20    6.30
   0   9  -1    4.80    3.20
  -1   9  -1  216.68   10.30
  -1   9  -1  230.38   15.60
  -2   9  -1  425.06   21.60
  -2   9  -1  410.66   16.50
  -3   9  -1   28.20   11.90
  -3   9  -1   22.50    7.50
   5   8  -1  379.16   17.60
  -5  -8   1  396.36   18.00
   4   8  -1  735.13   25.90
   4   8  -1  779.12   25.90
  -4  -8   1  805.22   25.90
   3   8  -1  124.19    9.90
   3   8  -1  130.09    9.60
  -3  -8   1  125.19    7.80
   2   8  -1  145.79   10.40
  -2  -8   1  144.09    6.90
   1   8  -1   40.50    4.60
   1   8  -1   38.40    6.30
   0   8  -1  112.69   10.30
   0   8  -1  108.49    6.10
  -1   8  -1  153.78   12.10
  -1   8  -1  163.18    8.40
  -2   8  -1   95.19    8.20
  -2   8  -1   88.69   11.70
  -3   8  -1  160.38   16.20
  -3   8  -1  156.88   11.70
  -4   8  -1  132.89   14.40
  -4   8  -1  155.98   17.30
   5   7  -1  571.44   21.30
  -5  -7   1  586.04   22.30
   4   7  -1  480.95   17.90
  -4  -7   1  489.75   18.10
   3   7  -1  122.29    8.50
  -3  -7   1  115.49    7.50
  -2  -7   1  933.91   27.50
   1   7  -1  314.77   13.40
   1   7  -1  320.07   10.30
   0   7  -1  168.68   10.40
   0   7  -1  173.88    6.50
  -1   7  -1   83.89    5.40
  -1   7  -1   81.09    8.90
  -2   7  -1  304.57   12.40
  -2   7  -1  303.87   15.70
  -3   7  -1  124.89   13.40
  -3   7  -1  152.58   10.30
  -4   7  -1  109.79   12.50
  -4   7  -1   86.89   12.30
   6   6  -1   -6.20    6.30
  -6  -6   1  -10.90    7.00
   5   6  -1   11.00    5.60
  -5  -6   1    8.30    5.30
   4   6  -1  792.72   25.30
  -4  -6   1  802.32   26.20
   3   6  -1 2643.54   72.19
  -3  -6   1 2526.75   72.19
  -2  -6   1  457.85   14.60
  -1  -6   1  105.89    4.50
   0   6  -1   63.69    7.00
   0   6  -1   75.29    3.50
  -1   6  -1  926.31   26.60
  -1   6  -1  935.71   30.10
  -2   6  -1  350.76   12.30
  -2   6  -1  325.17   15.00
  -3   6  -1   28.70    7.00
  -3   6  -1   26.40    4.80
  -4   6  -1   43.20    9.20
  -4   6  -1   55.49    7.70
  -5   6  -1   50.09   12.10
  -5   6  -1   44.70    8.90
   6   5  -1   -5.00    5.90
  -6  -5   1   -6.60    7.00
   5   5  -1   50.89    6.20
  -5  -5   1   48.60    7.00
   4   5  -1  437.06   15.70
  -4  -5   1  446.56   17.00
   3   5  -1   16.60    3.50
   3   5  -1   25.70    3.80
  -3  -5   1   28.50    4.00
   2   5  -1 1187.98   33.90
  -2  -5   1 1159.48   33.60
  -1  -5   1  966.60   27.20
   0   5  -1  320.77    8.90
   0   5  -1  246.08    9.20
   0   5  -1  306.17   11.50
  -1   5  -1   40.50    5.60
  -1   5  -1   38.20    3.00
  -2   5  -1  722.03   24.80
  -2   5  -1  752.82   22.20
  -3   5  -1  363.76   13.90
  -3   5  -1  341.67   16.00
  -4   5  -1  157.58   10.60
  -4   5  -1  121.29   13.40
  -5   5  -1  151.88   16.20
  -5   5  -1  172.58   14.30
  -6  -4   1  113.89   12.70
   5   4  -1    5.50    4.40
  -5  -4   1   -6.50    4.70
   4   4  -1    1.80    3.10
  -4  -4   1    7.20    3.70
   3   4  -1  550.14   17.30
  -3  -4   1  539.95   18.10
   2   4  -1  532.65   16.20
  -2  -4   1  516.55   16.20
   1   4  -1 2818.52   78.19
  -1  -4   1 2934.01   77.89
   0   4  -1  147.69    5.10
   0   4  -1  149.99    4.80
   0   4  -1  145.19    6.60
  -1   4  -1 1011.80   28.90
  -1   4  -1 1049.09   31.30
   1  -4   1 1056.29   28.60
  -2   4  -1 1297.97   36.40
  -2   4  -1 1266.37   38.60
  -3   4  -1  387.46   16.10
  -3   4  -1  411.56   14.50
  -4   4  -1  296.07   15.60
  -4   4  -1  313.07   13.60
  -5   4  -1  159.68   13.00
  -5   4  -1  188.88   15.10
  -6   4  -1   25.40   10.80
  -6   4  -1    4.20    9.10
  -6  -3   1   55.49    8.70
   5   3  -1   -1.80    3.80
  -5  -3   1   -5.30    4.40
   4   3  -1 1346.07   38.60
  -4  -3   1 1304.87   39.90
   3   3  -1  655.43   19.90
  -3  -3   1  660.73   21.00
   2   3  -1  290.77    9.50
  -2  -3   1  283.67    9.90
   1   3  -1 1205.18   34.10
  -1  -3   1 1250.17   34.00
   0   3  -1 4209.78  114.29
   0   3  -1 4156.58  112.69
   0   3  -1 4283.37  112.89
  -1   3  -1  173.38    5.90
  -1   3  -1  175.58    7.40
   1  -3   1  182.88    5.50
  -2   3  -1 1473.25   41.10
  -2   3  -1 1459.75   42.70
  -3   3  -1  952.20   30.10
  -3   3  -1  945.61   28.60
  -4   3  -1    2.60    4.60
  -4   3  -1   -4.00    3.90
  -5   3  -1   26.30    6.50
  -5   3  -1   22.90    7.50
  -6   3  -1   18.90    9.20
  -6   3  -1    4.30    8.30
  -6  -2   1  664.03   25.70
  -5  -2   1  331.07   15.20
   4   2  -1  103.59    6.60
  -4  -2   1   95.49    7.70
   3   2  -1 2261.87   62.69
  -3  -2   1 2290.67   63.99
   2   2  -1  673.63   19.60
  -2  -2   1  671.93   20.10
   1   2  -1 1065.59   29.50
   1   2  -1 1078.49   29.60
  -1  -2   1 1050.09   29.50
   0   2  -1   92.69    4.10
   0   2  -1  100.09    3.10
  -1   2  -1   26.50    1.70
  -1   2  -1   22.80    2.50
   1  -2   1   20.40    2.90
   1  -2   1   26.90    1.50
  -2   2  -1 1587.54   45.40
  -2   2  -1 1631.94   44.30
   2  -2   1 1553.44   43.90
  -3   2  -1  968.10   30.20
  -3   2  -1 1005.20   29.50
  -4   2  -1  149.19    9.70
  -4   2  -1  141.69    8.50
  -5   2  -1  355.36   15.70
  -5   2  -1  333.97   15.90
  -6   2  -1  673.03   25.60
  -6   2  -1  682.33   27.10
  -6  -1   1  770.62   28.90
  -5  -1   1  101.49    9.90
   4   1  -1  193.28    8.80
  -4  -1   1  210.18   10.20
   3   1  -1  346.97   11.50
  -3  -1   1  358.16   12.70
   2   1  -1  195.88    6.80
  -2  -1   1  196.38    6.90
  -2  -1   1  199.38    7.40
   1   1  -1  388.26   11.40
   1   1  -1  372.06   11.20
  -1  -1   1  385.26   11.40
  -1  -1   1  397.26   11.20
   0   1  -1 4191.98  116.49
   0  -1   1 4496.05  116.49
  -1   1  -1 1148.99   31.40
  -1   1  -1 1135.39   32.30
   1  -1   1 1169.58   32.20
   1  -1   1 1137.39   31.30
  -2   1  -1  178.98    7.20
  -2   1  -1  169.68    6.60
   2  -1   1  180.68    6.50
   2  -1   1  175.68    7.10
  -3   1  -1 3661.33   99.69
  -3   1  -1 3603.64   99.79
  -4   1  -1 2565.64   72.79
  -4   1  -1 2593.04   72.69
  -5   1  -1 1101.29   35.60
  -5   1  -1 1130.69   35.00
  -6   1  -1  288.17   17.30
  -6   1  -1  276.67   15.00
  -6   0   1  103.29   12.50
  -5   0   1  359.86   16.10
  -4   0   1    2.60    3.40
  -3   0   1  596.44   19.20
   2   0  -1  731.23   21.10
  -2   0   1  755.22   21.80
  -2   0   1  725.83   21.10
   1   0  -1 1929.71   53.69
   1   0  -1 2083.09   53.99
  -1   0   1 1943.81   53.99
  -1   0   1 1999.60   53.69
  -1   0  -1  243.88    7.60
  -1   0  -1  252.27    8.00
   1   0   1  256.87    7.60
   1   0   1  262.17    8.00
  -2   0  -1  292.57    9.60
  -2   0  -1  278.17    9.60
   2   0   1  296.67    9.60
   2   0   1  286.97    9.60
  -3   0  -1 1689.93   45.30
  -3   0  -1 1618.44   44.80
   3   0   1 1450.15   44.50
  -4   0  -1  735.03   22.60
  -4   0  -1  715.43   23.60
  -5   0  -1    9.00    4.30
  -5   0  -1    9.30    4.90
  -6   0  -1   82.59    8.40
  -6   0  -1   80.99    9.90
  -6   1   1  108.09   13.40
  -5   1   1  142.39   10.90
  -4   1   1  183.18    7.60
  -4   1   1  149.49    9.10
  -3   1   1 1813.02   49.40
  -3   1   1 1739.23   50.59
  -2   1   1 8480.35  232.38
  -2   1   1 8839.22  231.68
   1  -1  -1  144.49    4.80
  -1   1   1  136.69    4.90
  -1   1   1  144.39    4.70
   0   1   1 1930.51   51.99
  -2  -1  -1  371.26   11.70
  -2  -1  -1  371.96   10.70
  -2  -1  -1  372.16   11.30
   2   1   1  349.17   11.60
   2   1   1  367.16   11.30
  -3  -1  -1  424.26   14.10
  -3  -1  -1  415.86   13.20
   3   1   1  400.96   13.30
  -4  -1  -1  115.69    7.50
  -4  -1  -1  119.69    6.20
  -5  -1  -1   42.40    6.50
  -5  -1  -1   50.99    5.70
  -6  -1  -1   97.69   12.50
  -6   2   1  151.98   14.70
  -5   2   1  803.02   28.20
  -5   2   1  842.72   26.60
  -4   2   1  196.38   10.20
  -4   2   1  183.98    8.90
  -3   2   1  154.38    6.90
  -3   2   1  153.38    7.70
  -2   2   1 2084.69   56.49
  -2   2   1 2008.60   56.59
  -1  -2  -1    2.40    0.80
  -1  -2  -1    2.80    0.80
   1   2   1    4.30    0.80
   1   2   1    3.30    0.90
   1   2   1    4.50    0.60
  -2  -2  -1  907.71   26.50
  -2  -2  -1  946.01   25.50
  -2  -2  -1  947.61   25.90
   2   2   1  920.31   26.10
   2   2   1  899.81   25.50
  -3  -2  -1   28.70    2.90
  -3  -2  -1   31.40    3.90
   3   2   1   28.60    3.60
   3   2   1   34.00    2.60
  -4  -2  -1 1614.14   44.20
  -4  -2  -1 1541.15   46.20
  -5  -2  -1  342.67   15.10
  -6  -2  -1  377.36   18.70
  -7  -2  -1  252.07   20.20
  -6   3   1  125.69   15.20
  -6   3   1  107.49   13.60
  -5   3   1  312.57   15.60
  -5   3   1  338.37   16.30
  -4   3   1  141.49    9.30
  -4   3   1  131.99    9.20
  -3   3   1   30.10    4.10
  -3   3   1   42.70    4.80
  -2   3   1 1095.59   31.80
  -2   3   1 1089.79   31.40
   1  -3  -1   46.60    2.40
  -1   3   1   46.90    2.70
   0   3   1   64.09    2.50
  -1  -3  -1 5270.17  144.29
   1   3   1 5352.56  144.39
   1   3   1 5533.65  144.59
  -2  -3  -1 3394.86   91.79
  -2  -3  -1 3299.47   90.79
   2   3   1 3454.85   91.29
   2   3   1 3336.87   90.69
  -3  -3  -1 1909.41   52.49
  -3  -3  -1 1918.81   54.19
   3   3   1 1849.11   52.99
   3   3   1 2002.10   52.69
  -4  -3  -1  619.94   21.00
   4   3   1  625.64   18.80
  -5  -3  -1 1004.70   32.50
  -6  -3  -1  281.77   16.00
  -6   4   1   15.50   10.00
  -6   4   1   15.60    9.70
  -5   4   1  130.99   12.00
  -5   4   1  117.49   12.80
  -4   4   1  336.67   14.70
  -4   4   1  343.37   15.10
  -3   4   1    4.00    3.00
  -3   4   1    5.80    3.50
  -2   4   1 1267.47   36.80
  -2   4   1 1314.07   37.80
  -1   4   1  120.09    4.90
   0   4   1 3673.23   98.49
   0   4   1 3655.03   98.39
  -1  -4  -1 8128.39  215.68
   1   4   1 7995.70  215.88
  -2  -4  -1 3130.39   84.39
   2   4   1 3105.29   83.49
   2   4   1 3038.70   83.99
  -3  -4  -1    5.90    2.50
   3   4   1    5.80    2.90
   3   4   1    5.20    1.80
  -4  -4  -1  336.27   13.60
   4   4   1  346.57   11.60
  -5  -4  -1   89.89    8.60
  -6  -4  -1  262.67   15.30
  -5   5   1  132.89   14.90
  -5   5   1  154.68   13.80
  -4   5   1   95.49    9.40
  -4   5   1   80.89   10.70
  -3   5   1   10.70    3.70
  -3   5   1    4.50    4.10
  -2   5   1  641.14   21.20
  -2   5   1  619.64   19.60
  -1   5   1 1587.84   44.10
   0   5   1  268.87    8.50
  -1  -5  -1   47.00    2.70
  -2  -5  -1  117.49    5.50
   2   5   1  119.69    5.00
  -3  -5  -1  681.03   21.20
   3   5   1  663.43   19.90
  -4  -5  -1   17.10    4.00
   4   5   1   27.50    3.40
  -5  -5  -1   43.50    6.60
   5   5   1   46.50    5.10
  -6  -5  -1   53.79    8.80
  -5   6   1  175.08   17.30
  -5   6   1  191.18   16.50
  -4   6   1  563.84   23.80
  -4   6   1  584.24   21.70
  -3   6   1 1587.64   48.10
  -3   6   1 1553.44   46.10
  -2   6   1  768.82   25.80
  -2   6   1  784.82   24.10
  -1   6   1    1.30    1.90
   0   6   1    3.50    1.30
  -2  -6  -1  631.84   19.20
  -3  -6  -1   32.10    3.90
   3   6   1   34.70    4.00
  -4  -6  -1  621.64   21.60
   4   6   1  648.94   20.00
  -5  -6  -1  103.19   10.00
   5   6   1  110.69    8.40
  -6  -6  -1  145.39   14.00
  -5   7   1  379.76   21.00
  -5   7   1  327.37   22.50
  -4   7   1 1011.20   34.10
  -4   7   1 1043.90   36.70
  -3   7   1  256.47   14.90
  -3   7   1  253.97   12.50
  -2   7   1   53.79    6.80
  -2   7   1   50.79    5.90
  -1   7   1  204.28    8.50
   0   7   1  461.45   14.20
   1   7   1 1214.78   34.10
  -2  -7  -1  257.47    9.60
  -3  -7  -1  307.17   11.90
   3   7   1  313.77   11.50
  -4  -7  -1  132.39    8.90
   4   7   1  134.49    8.70
  -5  -7  -1  319.87   15.20
   5   7   1  324.27   13.60
  -6  -7  -1  108.99   12.80
   6   7   1   98.09   10.40
  -4   8   1    4.80    7.60
  -4   8   1   -1.70    9.90
  -3   8   1   69.79    7.90
  -3   8   1   88.39   12.50
  -2   8   1  692.93   25.50
  -2   8   1  665.83   22.40
  -1   8   1  482.25   15.90
   0   8   1   11.10    2.70
   1   8   1  176.08    7.10
  -2  -8  -1 1053.99   30.70
  -3  -8  -1   27.10    4.00
   3   8   1   43.00    4.90
  -4  -8  -1  131.79    9.00
   4   8   1  132.69    9.00
  -5  -8  -1   71.09    9.60
   5   8   1   97.49    9.50
  -4   9   1   31.00    9.60
  -4   9   1   67.79   13.10
  -3   9   1   86.39    9.10
  -3   9   1   69.99   10.90
  -2   9   1   67.59    9.10
  -2   9   1   88.09    9.40
  -1   9   1  208.48   13.70
  -1   9   1  205.98    9.90
   0   9   1   75.39    5.80
   1   9   1  144.79    7.00
  -3  -9  -1  373.26   14.00
   3   9   1  381.26   14.90
  -4  -9  -1   91.49    8.40
   4   9   1  118.09    9.60
  -5  -9  -1  166.98   12.20
   5   9   1  142.49   11.80
  -3  10   1   12.80   11.60
  -3  10   1    2.50    8.40
  -2  10   1   12.40    6.10
  -2  10   1    3.20    8.50
  -1  10   1  312.27   13.30
  -1  10   1  306.57   18.30
   0  10   1  318.07   12.40
   1  10   1  103.99    7.10
   2  10   1  846.62   25.70
  -3 -10  -1  240.18   11.00
   3  10   1  243.38   13.10
  -4 -10  -1   67.19    7.00
   4  10   1   57.09    7.60
  -2  11   1   85.79   14.10
  -2  11   1  102.39   10.20
  -1  11   1  102.69   10.90
  -1  11   1   94.59   12.70
   0  11   1  153.98   15.10
   0  11   1  181.08    9.90
   1  11   1   90.59    7.60
   2  11   1  134.39    8.40
   3  11   1  274.07   15.30
  -4 -11  -1   11.80    5.60
   4  11   1   18.70    7.90
   0  12   1   32.50   11.20
   0  12   1   19.90    6.70
   1  12   1   84.49   12.10
   1  12   1   67.19    7.10
   2  12   1   -4.00   10.20
   2  12   1    6.20    5.40
   1  11  -2  223.88   20.90
   0  11  -2   -4.60   12.30
   3  10  -2   30.40    8.40
   3  10  -2   21.30    9.50
   2  10  -2   71.09    7.50
   2  10  -2  123.39   15.40
   1  10  -2   32.70    4.40
   1  10  -2   28.80    9.80
   0  10  -2   23.50    9.00
   0  10  -2   28.20    5.10
  -1  10  -2  188.48   19.20
  -2  10  -2  221.98   23.20
   4   9  -2   17.60    8.60
  -4  -9   2    6.40    5.50
   3   9  -2   70.89    9.50
   3   9  -2   68.19    8.40
  -3  -9   2   60.19    7.20
   2   9  -2   66.19    5.90
   2   9  -2   49.99    8.90
   1   9  -2  844.72   24.70
   1   9  -2  827.92   30.50
   0   9  -2 1112.19   38.40
   0   9  -2 1102.89   32.20
  -1   9  -2  445.86   16.20
  -1   9  -2  440.26   22.40
  -2   9  -2   60.29   11.70
  -2   9  -2   56.39    6.80
  -3   9  -2    5.90   11.90
   5   8  -2   40.80    8.30
  -5  -8   2   24.20    7.20
   4   8  -2   66.79    7.90
  -4  -8   2   66.99    7.00
   3   8  -2   47.60    7.20
   3   8  -2   30.70    6.10
  -3  -8   2   39.40    5.10
   2   8  -2 1097.49   35.40
  -2  -8   2 1106.19   31.80
   1   8  -2 1363.46   37.70
   1   8  -2 1313.97   42.40
   0   8  -2  392.06   18.30
   0   8  -2  403.26   13.00
  -1   8  -2   60.49    6.10
  -1   8  -2   50.89    8.00
  -2   8  -2   87.19   11.70
  -2   8  -2  101.69    9.50
  -3   8  -2  173.28   17.30
  -3   8  -2  179.58   11.90
  -4   8  -2  131.99   16.40
  -4   8  -2  132.89   14.60
   5   7  -2  477.55   20.20
  -5  -7   2  515.75   20.60
   4   7  -2  508.75   19.40
  -4  -7   2  515.85   18.90
   3   7  -2  427.96   17.00
   3   7  -2  461.05   17.00
  -3  -7   2  435.46   15.60
   2   7  -2   39.50    5.70
  -2  -7   2   56.19    5.10
   1   7  -2   95.99    8.50
   1   7  -2   99.09    4.80
   0   7  -2   81.79    8.80
   0   7  -2   78.39    4.20
  -1   7  -2  845.22   29.40
  -1   7  -2  842.92   24.60
  -2   7  -2  407.16   14.50
  -2   7  -2  412.06   19.10
  -3   7  -2   14.00    5.00
  -3   7  -2   -0.80    7.00
  -4   7  -2  115.69   16.60
  -4   7  -2  128.09   13.00
   5   6  -2  397.46   17.40
  -5  -6   2  402.46   18.20
   4   6  -2  480.45   17.90
  -4  -6   2  487.75   18.30
   3   6  -2  300.67   11.70
   3   6  -2  298.37   12.50
  -3  -6   2  321.17   12.20
   2   6  -2  289.37   12.00
   2   6  -2  286.67   11.70
  -2  -6   2  306.27   10.50
   1   6  -2   34.70    5.20
  -1  -6   2   32.90    2.70
   0   6  -2  302.47   13.10
   0   6  -2  299.87    9.30
  -1   6  -2  349.67   15.10
  -1   6  -2  343.37   11.20
  -2   6  -2  240.88   13.70
  -2   6  -2  256.77    9.70
  -3   6  -2   86.99    8.80
  -3   6  -2   75.89   11.00
  -4   6  -2   26.00    8.80
  -4   6  -2   29.50    6.50
  -5   6  -2  122.79   14.70
  -5   6  -2  106.49   14.60
   6   5  -2   42.00    7.90
  -6  -5   2   60.09    8.80
   5   5  -2   30.20    5.90
  -5  -5   2   41.20    7.00
   4   5  -2    2.40    3.90
  -4  -5   2    8.70    4.30
   3   5  -2  745.13   23.50
  -3  -5   2  760.62   23.70
   2   5  -2 1042.80   30.60
   2   5  -2 1045.40   30.80
  -2  -5   2 1023.90   30.00
   1   5  -2  935.51   28.40
  -1  -5   2  932.21   26.30
   0   5  -2    7.60    1.30
   0   5  -2    3.40    1.90
   0   5  -2   13.20    3.30
  -1   5  -2   45.10    3.00
  -1   5  -2   50.59    3.20
  -1   5  -2   33.70    5.50
  -2   5  -2 1248.88   35.60
  -2   5  -2 1255.57   39.30
  -3   5  -2  280.47   15.40
  -3   5  -2  325.37   12.40
  -4   5  -2   92.59    9.70
  -4   5  -2   73.49    9.60
  -5   5  -2  128.99   13.40
  -5   5  -2  137.49   17.00
   6   4  -2    0.80    6.00
  -6  -4   2   -6.30    7.20
   5   4  -2  125.69    9.80
  -5  -4   2  111.19   10.40
   4   4  -2 3953.20  107.49
  -4  -4   2 3844.22  108.39
   3   4  -2 2801.32   77.19
  -3  -4   2 2762.32   77.59
   2   4  -2  248.58    9.60
   2   4  -2  258.27    9.10
  -2  -4   2  263.57    9.30
   1   4  -2  550.14   17.40
   1   4  -2  530.65   16.40
  -1  -4   2  563.44   16.00
   0   4  -2 1895.51   51.09
   0   4  -2 1918.21   51.39
   0   4  -2 1865.01   53.79
  -1   4  -2 1107.29   30.60
  -1   4  -2 1100.89   33.60
  -2   4  -2  579.54   20.60
  -2   4  -2  580.14   17.60
  -3   4  -2  524.75   20.50
  -3   4  -2  532.45   17.50
  -4   4  -2   56.59    6.20
  -4   4  -2   44.30    7.80
  -5   4  -2  245.68   14.40
  -5   4  -2  214.48   17.30
  -6   4  -2   78.79   13.50
  -6   4  -2   85.49   10.90
  -6  -3   2  269.57   16.90
   5   3  -2  549.85   19.60
  -5  -3   2  567.94   21.40
   4   3  -2  460.05   15.80
  -4  -3   2  440.36   17.00
   3   3  -2 1595.54   45.40
  -3  -3   2 1603.24   46.10
   2   3  -2  428.56   13.50
  -2  -3   2  412.66   13.50
   1   3  -2 1562.94   43.10
   1   3  -2 1521.05   42.40
  -1  -3   2 1531.95   42.20
   0   3  -2 1967.90   52.59
   0   3  -2 1964.90   52.89
   0   3  -2 1941.61   54.89
  -1   3  -2    6.00    2.30
  -1   3  -2    8.30    1.20
   1  -3   2    7.20    0.90
  -2   3  -2 1296.07   35.80
  -2   3  -2 1273.77   38.20
   2  -3   2 1245.58   35.10
  -3   3  -2  526.45   17.40
  -3   3  -2  553.74   20.00
  -4   3  -2    5.70    3.90
  -4   3  -2    9.00    5.60
  -5   3  -2   16.20    7.70
  -5   3  -2   15.40    6.40
  -6   3  -2  146.09   17.20
  -6   3  -2  137.59   15.60
  -6  -2   2  247.68   16.10
   5   2  -2  362.26   14.70
  -5  -2   2  358.16   16.50
   4   2  -2   37.20    4.30
  -4  -2   2   37.50    5.60
   3   2  -2 1677.13   47.10
  -3  -2   2 1662.43   48.00
   2   2  -2 1846.42   51.59
  -2  -2   2 1884.71   51.99
   1   2  -2  130.19    5.10
   1   2  -2  129.29    5.00
   1   2  -2  137.99    5.00
  -1  -2   2  133.99    4.80
   0   2  -2   77.89    4.00
   0  -2   2   76.09    4.00
  -1   2  -2  376.86   13.00
  -1   2  -2  377.76   11.00
   1  -2   2  393.76   10.70
  -2   2  -2   77.49    4.00
  -2   2  -2   91.49    5.80
   2  -2   2   85.89    4.00
  -3   2  -2 1338.67   40.30
  -3   2  -2 1343.77   38.60
  -4   2  -2   35.50    4.90
  -4   2  -2   43.40    6.10
  -5   2  -2   10.40    6.30
  -5   2  -2    3.20    5.40
  -6   2  -2  149.19   15.60
  -6   2  -2  152.98   15.60
  -6  -1   2   17.70    7.50
  -5  -1   2  193.58   12.00
   4   1  -2   16.80    3.10
  -4  -1   2    5.40    3.90
   3   1  -2  309.17   11.00
  -3  -1   2  321.07   11.80
   2   1  -2  131.69    5.20
  -2  -1   2  107.99    5.30
   1   1  -2  150.98    5.10
   1   1  -2  140.09    5.10
  -1  -1   2  142.59    5.00
  -1  -1   2  135.59    5.10
   0   1  -2 4685.53  127.99
   0  -1   2 4824.92  127.89
  -1   1  -2   96.49    4.60
  -1   1  -2   91.59    3.30
   1  -1   2   91.09    4.60
   1  -1   2   95.69    3.20
  -2   1  -2  308.57    9.90
  -2   1  -2  306.77   11.10
   2  -1   2  304.87    9.80
  -3   1  -2 1489.35   44.00
  -3   1  -2 1526.15   43.00
  -4   1  -2 1403.96   38.30
  -4   1  -2 1077.79   36.60
  -5   1  -2  116.99   10.20
  -5   1  -2  127.89   10.50
  -6   1  -2  210.58   15.60
  -6   1  -2  189.28   14.30
  -6   0   2  515.95   22.60
  -5   0   2  518.45   20.30
  -4   0   2   56.29    6.50
   3   0  -2  531.75   16.60
  -3   0   2  523.95   17.50
   2   0  -2 3664.83   99.09
  -2   0   2 3654.93   99.59
   1   0  -2  170.58    5.70
   1   0  -2  170.18    5.70
  -1   0   2  168.48    5.70
  -1   0   2  171.58    5.80
   0   0  -2  488.55   14.40
   0   0  -2  510.85   13.50
   0   0   2  507.65   14.50
   0   0   2  491.15   13.60
  -1   0  -2 9183.98  249.58
   1   0   2 9460.95  249.58
  -2   0  -2  904.81   25.60
  -2   0  -2  875.21   26.30
   2   0   2  882.21   26.40
   2   0   2  918.31   25.60
  -3   0  -2 2352.66   67.39
  -3   0  -2 2480.85   67.19
  -4   0  -2  925.01   26.50
  -4   0  -2  722.23   25.80
  -5   0  -2  330.07   14.60
  -5   0  -2  305.37   14.60
  -6   0  -2   55.99    8.70
  -6   0  -2   50.69    7.20
  -6   1   2  146.49   14.90
  -5   1   2  303.47   15.10
  -4   1   2  186.18    9.90
  -3   1   2  925.51   28.20
   2  -1  -2 3215.28   86.89
  -2   1   2 3190.28   87.49
   1  -1  -2  533.85   14.60
   1  -1  -2  487.95   14.60
  -1   1   2  493.15   14.70
  -1   1   2  509.25   14.10
  -1   1   2  497.85   14.50
   0  -1  -2  544.85   15.80
   0  -1  -2  570.84   16.20
   0  -1  -2  584.94   15.70
   0   1   2  601.04   16.30
   0   1   2  563.94   15.80
   0   1   2  566.34   15.70
  -1  -1  -2  525.15   15.60
  -1  -1  -2  538.95   15.00
   1   1   2  546.05   15.00
   1   1   2  513.15   15.60
  -2  -1  -2 1012.70   28.70
  -2  -1  -2 1034.00   29.00
   2   1   2  996.60   28.70
   2   1   2 1000.40   29.10
  -3  -1  -2  529.75   16.60
  -3  -1  -2  494.75   16.30
  -4  -1  -2 1202.58   35.20
  -4  -1  -2 1120.89   34.20
  -5  -1  -2   58.39    6.90
  -5  -1  -2   64.19    6.50
  -6  -1  -2   71.89    7.90
  -6  -1  -2   56.69    8.30
  -6   2   2   60.29    9.80
  -5   2   2  357.66   16.60
  -4   2   2  276.87   12.60
  -4   2   2  290.37   10.90
  -3   2   2   13.10    2.50
  -3   2   2    8.90    3.30
   1  -2  -2 4081.09  107.49
  -1   2   2 3989.80  107.59
  -1   2   2 3928.31  107.69
   0  -2  -2 1192.68   31.70
   0  -2  -2 1154.28   32.00
   0   2   2 1141.09   31.70
   0   2   2 1181.98   32.10
   0   2   2 1170.28   31.70
  -1  -2  -2   26.80    1.70
  -1  -2  -2   26.40    2.00
   1   2   2   27.20    2.10
   1   2   2   30.10    1.80
  -2  -2  -2  172.78    6.30
  -2  -2  -2  169.58    6.30
   2   2   2  160.98    6.50
  -3  -2  -2  690.03   19.80
  -3  -2  -2  696.53   21.40
  -3  -2  -2  694.93   20.90
  -4  -2  -2  402.16   15.00
  -4  -2  -2  412.96   14.00
  -5  -2  -2  393.16   16.80
  -5  -2  -2  412.66   14.40
  -6  -2  -2   57.69    8.10
  -6  -2  -2   58.59    6.20
  -7  -2  -2   38.40   10.50
  -6   3   2   39.30    9.80
  -5   3   2  220.78   12.20
  -5   3   2  199.48   13.40
  -4   3   2  543.55   18.10
  -4   3   2  498.05   19.00
  -3   3   2  461.55   15.40
  -3   3   2  456.55   16.20
  -2   3   2  563.04   17.50
  -1   3   2  353.16   10.90
   0  -3  -2 2930.41   78.49
   0   3   2 2905.31   78.89
   0   3   2 2924.21   78.49
  -1  -3  -2  288.27    9.00
  -1  -3  -2  298.07    9.20
   1   3   2  301.57    9.30
   1   3   2  293.27    9.40
  -2  -3  -2   19.30    2.30
  -2  -3  -2   19.40    2.20
   2   3   2   21.70    3.20
  -3  -3  -2  155.58    6.20
  -3  -3  -2  150.18    7.00
  -3  -3  -2  155.18    5.60
  -4  -3  -2  843.72   24.70
  -4  -3  -2  815.62   26.20
  -5  -3  -2  530.25   20.10
  -5  -3  -2  544.85   17.20
  -6  -3  -2  178.38   13.90
  -7  -3  -2   27.10   10.00
  -6   4   2  135.79   16.50
  -5   4   2  102.49   11.50
  -5   4   2  135.79   12.30
  -4   4   2  232.18   12.70
  -4   4   2  285.57   13.60
  -3   4   2   67.39    6.30
  -3   4   2   67.79    6.00
  -2   4   2  699.53   21.40
  -1   4   2 4450.95  120.09
   0   4   2 1172.98   32.30
  -1  -4  -2 1482.25   40.80
  -2  -4  -2   67.29    3.70
  -2  -4  -2   61.09    3.30
  -3  -4  -2  926.61   27.60
  -3  -4  -2  913.71   26.30
   3   4   2  910.51   25.70
  -4  -4  -2  361.06   14.10
  -4  -4  -2  358.86   11.80
  -5  -4  -2  374.86   12.40
  -5  -4  -2  361.16   15.60
  -6  -4  -2  338.97   17.10
  -5   5   2   39.10    8.40
  -5   5   2   35.20    9.10
  -4   5   2   -0.80    5.50
  -4   5   2    4.00    5.00
  -3   5   2   97.89    7.60
  -3   5   2   99.59    8.30
  -2   5   2  782.12   23.90
  -1   5   2  563.14   17.00
   0   5   2 1749.12   47.90
  -1  -5  -2 2210.58   60.29
  -2  -5  -2 2536.65   70.29
   2   5   2 2585.44   69.39
  -3  -5  -2  202.88    8.50
   3   5   2  181.98    6.70
   4   5   2  625.44   18.70
  -5  -5  -2  327.47   14.70
  -6  -5  -2  166.88   13.50
  -5   6   2  152.38   15.20
  -5   6   2  134.09   16.30
  -4   6   2  184.18   12.20
  -4   6   2  176.68   14.00
  -3   6   2   13.40    5.30
  -3   6   2    1.50    4.00
  -2   6   2   34.00    4.10
  -1   6   2  942.11   27.40
   0   6   2 1943.41   53.39
  -2  -6  -2   42.10    3.60
  -3  -6  -2   71.49    5.30
   3   6   2   63.19    4.20
  -4  -6  -2  345.07   14.00
   4   6   2  349.47   11.70
  -5  -6  -2  378.46   16.20
   5   6   2  378.16   13.40
  -6  -6  -2  109.59   12.70
  -5   7   2  191.68   20.00
  -5   7   2  197.58   18.00
  -4   7   2  230.58   14.70
  -4   7   2  242.18   16.50
  -3   7   2   81.29   10.60
  -3   7   2   65.99    8.70
  -2   7   2  305.87   12.20
  -1   7   2  183.78    8.20
   0   7   2   13.20    2.20
   1   7   2   94.19    4.80
  -2  -7  -2 1285.17   36.70
  -3  -7  -2   -0.10    2.50
   3   7   2   -0.10    2.30
  -4  -7  -2    9.00    3.70
   4   7   2    8.40    3.20
  -5  -7  -2  155.48   10.70
   5   7   2  125.59    9.20
  -6  -7  -2   37.00    7.90
  -4   8   2  597.04   26.60
  -4   8   2  582.84   24.60
  -3   8   2  481.65   21.70
  -3   8   2  510.45   19.40
  -2   8   2   12.00    5.40
  -2   8   2   14.00    4.40
  -1   8   2    6.30    3.00
   0   8   2    4.30    2.20
   1   8   2  369.86   12.10
  -2  -8  -2  494.85   15.90
  -3  -8  -2   97.09    6.70
   3   8   2  102.59    6.70
  -4  -8  -2   -0.60    4.00
   4   8   2    7.00    3.80
  -5  -8  -2  161.98   11.60
   5   8   2  161.78   10.20
  -6  -8  -2  141.79   13.80
  -4   9   2  190.18   17.50
  -4   9   2  227.38   21.00
  -3   9   2   12.30    8.90
  -3   9   2    1.70    6.70
  -2   9   2    5.10    5.00
  -2   9   2    9.00    6.30
  -1   9   2  412.06   15.00
   0   9   2  507.65   16.50
   1   9   2    7.30    2.80
  -3  -9  -2  518.15   17.80
   3   9   2  539.45   18.20
  -4  -9  -2  229.38   11.00
   4   9   2  188.28   10.80
  -5  -9  -2  466.05   19.00
   5   9   2  465.75   17.40
  -3  10   2  335.07   22.00
  -3  10   2  344.07   19.10
  -2  10   2  162.38   14.80
  -2  10   2  148.79   11.80
  -1  10   2  168.28   10.40
   0  10   2  266.57   11.20
   1  10   2  468.55   15.90
   2  10   2  633.04   20.10
  -3 -10  -2  567.34   19.10
   3  10   2  570.94   19.90
  -4 -10  -2   39.20    5.80
   4  10   2   44.30    6.40
  -5 -10  -2   58.69    8.00
  -2  11   2  123.89   13.90
  -2  11   2   97.39   13.70
  -1  11   2   54.49    7.00
  -1  11   2   57.09   10.00
   0  11   2  366.36   14.40
   1  11   2   95.19    7.70
   2  11   2   89.09    7.70
   3  11   2  162.08   11.90
  -4 -11  -2    3.90    5.20
   4  11   2    7.10    6.70
  -1  12   2   51.59   13.20
  -1  12   2   50.79    8.60
   0  12   2   21.10   10.50
   0  12   2   22.30    6.30
   1  12   2    0.80    5.10
   2  12   2   -1.90    4.80
   3  12   2  123.29   13.20
   3  12   2  130.79   10.30
   2  10  -3   68.79    9.90
   2  10  -3   52.69   11.60
   2  10  -3   52.69    7.10
   1  10  -3   12.00   10.00
   0  10  -3   18.20   11.00
  -1  10  -3   -5.20   11.20
   3   9  -3   16.80    9.00
   3   9  -3    2.90    7.70
  -3  -9   3   -0.60    4.30
   2   9  -3   39.30    8.70
   2   9  -3   45.50    5.90
   2   9  -3   40.20    7.60
   1   9  -3  118.09   12.50
   1   9  -3  109.19    6.90
   0   9  -3   20.50    8.50
   0   9  -3   31.80    4.40
  -1   9  -3   80.69   12.30
  -2   9  -3  210.48   19.20
   4   8  -3   -2.00    7.60
  -4  -8   3    4.30    5.60
   3   8  -3   75.79    8.90
   3   8  -3   75.99    8.70
  -3  -8   3   70.89    7.40
   2   8  -3  471.65   18.40
   2   8  -3  453.05   19.60
  -2  -8   3  459.65   14.80
   1   8  -3  637.24   19.00
   1   8  -3  637.04   24.60
   0   8  -3  664.53   25.60
   0   8  -3  646.14   19.50
  -1   8  -3  250.37    9.80
  -1   8  -3  236.78   16.70
  -2   8  -3   33.80    9.70
  -2   8  -3   38.70    5.50
  -3   8  -3    3.20   10.70
   5   7  -3  157.98   13.80
  -5  -7   3  121.59   12.40
   4   7  -3  690.43   25.30
  -4  -7   3  709.83   24.00
   3   7  -3  462.65   18.30
   3   7  -3  456.85   17.80
  -3  -7   3  469.05   16.30
   2   7  -3  419.96   16.70
   2   7  -3  427.96   17.20
  -2  -7   3  448.76   14.40
   1   7  -3 1259.97   40.20
   1   7  -3 1312.47   35.80
   0   7  -3  439.56   18.80
   0   7  -3  432.76   13.20
  -1   7  -3   81.29   10.40
  -1   7  -3   73.19    5.40
  -2   7  -3   27.40    7.90
  -3   7  -3    9.20    6.00
  -3   7  -3    7.10    8.70
  -4   7  -3   48.00   12.50
  -4   7  -3   32.00    7.40
   5   6  -3  299.67   15.70
  -5  -6   3  288.97   16.00
   4   6  -3  214.18   12.20
  -4  -6   3  207.98   11.40
   3   6  -3  143.39    8.50
   3   6  -3  128.59    9.20
  -3  -6   3  149.99    8.30
   2   6  -3  184.88    9.70
   2   6  -3  188.68   10.20
  -2  -6   3  204.78    8.00
   1   6  -3  111.29    8.60
   0   6  -3   29.90    2.70
   0   6  -3   26.90    3.50
   0   6  -3   33.50    5.90
  -1   6  -3   39.60    4.30
  -1   6  -3   45.40    6.30
  -1   6  -3   45.70    4.00
  -2   6  -3  900.41   26.00
  -2   6  -3  861.71   31.10
  -3   6  -3  274.07   11.90
  -3   6  -3  270.17   16.70
  -4   6  -3  158.58   15.80
  -4   6  -3  154.78   11.80
  -5   6  -3  398.46   25.90
   5   5  -3    4.70    6.00
  -5  -5   3   -2.40    6.10
   4   5  -3   18.90    5.10
  -4  -5   3   20.40    5.30
   3   5  -3   18.30    4.10
  -3  -5   3   11.20    3.30
   2   5  -3  507.85   17.20
   2   5  -3  508.55   16.90
  -2  -5   3  497.25   15.90
   1   5  -3  242.48   10.90
  -1  -5   3  256.87    8.10
   0   5  -3 1480.45   40.90
   0   5  -3 1449.35   40.30
   0   5  -3 1528.75   44.60
  -1   5  -3 1748.63   51.79
  -1   5  -3 1715.63   47.30
  -2   5  -3  661.83   24.90
  -2   5  -3  722.93   20.70
  -3   5  -3  531.65   22.20
  -3   5  -3  529.45   17.70
  -4   5  -3  113.39   10.00
  -4   5  -3  117.09   13.80
  -5   5  -3  231.28   14.90
  -5   5  -3  254.47   20.00
   6   4  -3   29.50    7.30
  -6  -4   3   51.69    9.10
   5   4  -3  124.39   10.40
  -5  -4   3  105.49   10.90
   4   4  -3   82.19    8.00
  -4  -4   3   94.39    8.40
   3   4  -3   29.70    4.20
  -3  -4   3   26.30    4.10
   2   4  -3   61.29    4.70
   2   4  -3   49.90    5.30
  -2  -4   3   55.89    4.10
   1   4  -3 1103.79   32.20
   1   4  -3 1034.80   30.60
  -1  -4   3 1115.19   30.30
   0   4  -3 3997.00  110.39
  -1   4  -3  172.28    9.70
  -2   4  -3  277.27   13.60
  -2   4  -3  311.37   10.20
   2  -4   3  309.77    9.30
  -3   4  -3  121.09   10.20
  -3   4  -3  119.59    6.90
  -4   4  -3    9.70    4.70
  -4   4  -3    4.10    6.70
  -5   4  -3   67.19   12.10
  -5   4  -3   65.59    8.40
   6   3  -3  357.56   16.90
  -6  -3   3  350.06   19.50
   5   3  -3  281.97   13.30
  -5  -3   3  267.37   14.50
   4   3  -3 1003.10   31.30
  -4  -3   3 1037.40   32.20
   3   3  -3 5085.89  136.39
  -3  -3   3 4927.61  136.69
   2   3  -3  923.31   27.40
  -2  -3   3  927.11   27.10
   1   3  -3  205.08    7.90
   1   3  -3  196.68    7.00
  -1  -3   3  202.18    6.80
   0   3  -3  152.28    7.10
  -1   3  -3  773.02   24.80
  -2   3  -3  187.48   10.10
  -2   3  -3  187.28    6.80
   2  -3   3  185.18    6.20
  -3   3  -3  290.47   14.00
  -3   3  -3  321.47   11.20
  -4   3  -3   22.50    6.40
  -4   3  -3   11.50    4.20
  -5   3  -3   10.80    7.50
  -5   3  -3    0.60    5.80
  -6   3  -3  171.28   19.60
  -6   3  -3  167.48   16.50
  -6  -2   3  389.56   19.80
   5   2  -3 1498.95   44.40
  -5  -2   3 1476.95   46.10
   4   2  -3 1257.47   37.10
  -4  -2   3 1238.38   38.20
   3   2  -3  859.31   26.30
  -3  -2   3  878.91   26.90
   2   2  -3  141.59    6.30
  -2  -2   3  135.49    6.20
   1   2  -3  726.63   21.50
   1   2  -3  748.73   20.90
   1   2  -3  722.13   21.40
  -1  -2   3  718.73   20.80
   0   2  -3 1860.21   52.29
  -1   2  -3  468.05   15.90
  -2   2  -3  366.26   13.80
  -2   2  -3  353.76   11.10
   2  -2   3  354.66   10.80
  -3   2  -3  843.52   25.10
  -3   2  -3  843.42   27.90
  -4   2  -3  336.27   16.00
  -4   2  -3  380.46   14.30
  -5   2  -3   19.70    6.00
  -5   2  -3   12.30    7.20
  -6   2  -3  169.88   16.50
  -6   2  -3  143.59   14.70
  -6  -1   3   88.79   10.40
   5   1  -3  216.58   11.50
  -5  -1   3  242.88   13.50
   4   1  -3   66.09    6.40
  -4  -1   3   64.49    7.50
   3   1  -3  141.09    7.00
  -3  -1   3  138.19    7.60
   2   1  -3 2193.58   60.09
  -2  -1   3 2158.18   60.29
   1   1  -3 3239.98   91.19
   1   1  -3 3275.77   90.89
   1   1  -3 3526.35   90.89
  -1  -1   3 3466.15   90.89
  -1  -1   3 3321.57   90.89
   0   1  -3  158.78    6.40
   0  -1   3  167.58    6.40
  -1   1  -3 3480.15   95.49
  -2   1  -3  609.54   19.90
  -2   1  -3  613.14   17.80
   2  -1   3  605.54   17.60
  -3   1  -3 1485.15   44.40
  -3   1  -3 1500.25   42.40
  -4   1  -3 1089.49   34.80
  -4   1  -3 1109.39   33.40
  -5   1  -3  216.78   12.50
  -5   1  -3  232.88   13.60
  -6   1  -3  120.59   13.50
  -6   1  -3  108.09   14.30
  -6   0   3  328.07   18.90
  -5   0   3   40.50    6.70
   4   0  -3  357.76   13.30
  -4   0   3  338.67   14.20
   3   0  -3 2039.20   57.09
   2   0  -3 4253.17  115.19
  -2   0   3 4247.67  115.49
   1   0  -3  203.18    6.90
   1   0  -3  196.98    6.30
   1   0  -3  213.08    6.70
  -1   0   3  193.18    6.50
  -1   0   3  190.48    6.90
  -1   0   3  201.78    6.80
   0   0  -3  643.24   19.30
   0   0  -3  655.43   18.70
   0   0  -3  673.03   17.90
   0   0   3  666.33   18.10
   0   0   3  665.93   19.30
  -1   0  -3 2788.42   76.29
  -1   0  -3 2885.21   78.29
   1   0   3 2874.71   76.49
   1   0   3 2860.01   78.19
  -2   0  -3 2186.88   61.19
  -2   0  -3 2157.78   59.59
   2   0   3 2202.88   59.59
  -3   0  -3  580.84   17.90
  -3   0  -3  557.14   19.00
  -4   0  -3  378.06   15.50
  -4   0  -3  410.26   15.00
  -5   0  -3  100.79    9.60
  -5   0  -3   87.79    9.00
  -6   0  -3   61.29    8.40
  -6   0  -3   45.80    8.20
  -6   1   3   24.70    8.90
  -5   1   3  489.35   19.90
  -4   1   3  336.97   14.00
   3  -1  -3   36.00    4.50
  -3   1   3   31.70    4.50
   2  -1  -3  521.35   15.90
  -2   1   3  515.15   16.30
   1  -1  -3 3573.54   98.09
   1  -1  -3 3827.12   98.59
   1  -1  -3 3601.34   98.69
  -1   1   3 3800.92   98.39
  -1   1   3 3539.75   98.69
  -1   1   3 3605.64   98.69
   0  -1  -3  372.56   11.40
   0  -1  -3  358.56   10.70
   0  -1  -3  380.56   10.40
   0   1   3  375.06   11.40
   0   1   3  373.96   10.50
   0   1   3  362.46   10.70
  -1  -1  -3  366.26   10.20
  -1  -1  -3  348.37   11.50
   1   1   3  364.56   10.40
   1   1   3  345.47   11.50
  -2  -1  -3  413.36   13.40
  -2  -1  -3  404.36   12.40
   2   1   3  393.96   12.50
  -3  -1  -3  797.02   23.90
  -3  -1  -3  794.82   24.60
  -4  -1  -3  341.87   13.50
  -4  -1  -3  344.87   13.40
  -5  -1  -3   21.20    5.60
  -5  -1  -3   22.10    5.50
  -6  -1  -3    8.60    6.00
  -6  -1  -3   10.10    6.60
  -6   2   3  448.46   22.30
  -5   2   3   65.59    8.20
  -4   2   3   30.20    5.60
  -3   2   3   18.40    3.50
   2  -2  -3 2372.56   66.19
  -2   2   3 2372.36   66.69
  -2   2   3 2492.15   65.29
   1  -2  -3  800.42   23.10
   1  -2  -3  806.02   23.00
  -1   2   3  812.92   23.30
  -1   2   3  835.02   22.90
  -1   2   3  821.22   23.20
   0  -2  -3  996.90   27.70
   0  -2  -3  990.30   27.00
   0  -2  -3  949.11   27.10
   0   2   3  972.50   27.10
   0   2   3 1036.80   27.90
   0   2   3  990.20   27.10
  -1  -2  -3   68.89    3.60
  -1  -2  -3   70.59    2.80
   1   2   3   68.49    3.00
   1   2   3   70.69    3.80
  -2  -2  -3  879.11   25.80
  -2  -2  -3  876.61   25.10
  -3  -2  -3  754.42   23.20
  -3  -2  -3  743.03   22.90
  -3  -2  -3  777.92   21.40
  -4  -2  -3  690.33   22.20
  -4  -2  -3  691.33   22.40
  -5  -2  -3  234.58   12.40
  -5  -2  -3  273.27   12.20
  -6  -2  -3   88.59    9.80
  -6  -2  -3  104.59    9.20
  -6   3   3   35.60    9.30
  -5   3   3   83.89    9.50
  -4   3   3  802.22   27.40
  -4   3   3  842.12   25.40
  -3   3   3 1091.39   31.00
  -3   3   3 1031.70   32.20
  -2   3   3  112.49    5.80
  -1   3   3 1931.91   53.59
  -1   3   3 1970.30   53.39
   0  -3  -3  915.91   25.90
   0  -3  -3  930.41   25.40
   0   3   3  913.61   25.40
   0   3   3  921.91   25.50
   0   3   3  921.21   26.20
  -1  -3  -3 2141.59   59.69
  -1  -3  -3 2155.68   58.99
   1   3   3 2232.98   59.29
  -2  -3  -3  192.18    7.20
  -2  -3  -3  183.38    6.80
  -3  -3  -3  710.93   21.70
  -3  -3  -3  700.83   21.50
  -4  -3  -3 1091.59   32.00
  -4  -3  -3 1069.49   32.70
  -5  -3  -3  499.55   17.50
  -5  -3  -3  519.25   19.20
  -6  -3  -3  359.66   15.50
  -6  -3  -3  460.55   19.10
  -7  -3  -3   69.39   11.20
  -6   4   3  234.68   19.40
  -5   4   3  319.67   16.30
  -5   4   3  298.27   16.80
  -4   4   3  241.18   11.50
  -4   4   3  220.88   12.20
  -3   4   3  175.88    8.40
  -3   4   3  172.68    9.00
  -2   4   3 1661.53   47.10
   0   4   3   16.20    1.60
  -1  -4  -3   80.49    4.00
  -1  -4  -3   85.19    3.60
  -2  -4  -3  561.14   16.90
  -2  -4  -3  556.74   17.00
  -3  -4  -3  634.24   19.30
  -3  -4  -3  627.64   19.80
  -4  -4  -3  761.72   23.20
  -5  -4  -3  224.48   12.10
  -5  -4  -3  234.58    9.90
  -6  -4  -3   24.20    5.40
  -6  -4  -3   19.70    6.90
  -5   5   3   45.90    8.70
  -5   5   3   56.69    9.10
  -4   5   3   31.50    6.20
  -4   5   3   29.10    6.40
  -3   5   3  137.69    8.70
  -3   5   3  142.89    9.20
  -2   5   3  117.09    7.00
  -1   5   3 1297.07   36.70
   0   5   3  121.99    4.80
  -2  -5  -3   57.19    3.70
  -2  -5  -3   59.29    3.70
  -3  -5  -3   84.09    5.50
  -3  -5  -3   74.39    4.50
  -4  -5  -3  637.94   19.70
  -4  -5  -3  632.24   21.10
  -5  -5  -3  101.59    6.50
  -5  -5  -3   86.19    9.00
  -6  -5  -3   43.20    5.80
  -6  -5  -3   32.10    7.20
  -5   6   3   57.19   10.70
  -5   6   3   67.79   10.20
  -4   6   3  159.08   12.40
  -4   6   3  167.08   12.90
  -3   6   3   31.40    5.00
  -3   6   3   26.60    5.50
  -2   6   3  546.35   18.10
  -1   6   3 1903.41   53.09
   0   6   3 1504.25   41.80
   1   6   3  457.75   13.90
  -2  -6  -3  423.76   13.70
  -3  -6  -3   43.90    4.70
  -4  -6  -3  375.86   14.60
  -5  -6  -3 1589.24   47.90
  -6  -6  -3  101.39   11.70
  -5   7   3   40.80   10.00
  -5   7   3   19.70   11.20
  -4   7   3  261.27   15.20
  -4   7   3  245.48   16.30
  -3   7   3  425.46   17.30
  -3   7   3  437.36   18.60
  -2   7   3  245.48   11.00
  -1   7   3  972.20   28.80
   0   7   3  605.24   18.30
   1   7   3 1067.89   30.50
  -2  -7  -3 1263.77   36.10
  -3  -7  -3  123.99    6.70
  -4  -7  -3  247.78   11.40
  -5  -7  -3  345.67   15.30
  -6  -7  -3  127.59   12.90
  -4   8   3  146.49   14.70
  -4   8   3  188.98   16.70
  -3   8   3   34.30    6.20
  -3   8   3   20.20    7.60
  -2   8   3    7.20    4.40
  -1   8   3  402.86   14.30
   0   8   3  787.22   23.50
   1   8   3   36.00    4.00
  -2  -8  -3  296.57   10.70
  -3  -8  -3  203.98    9.50
   3   8   3  220.78    8.40
  -4  -8  -3   38.60    5.10
  -5  -8  -3  245.28   13.10
  -6  -8  -3  325.57   17.70
  -4   9   3   28.40   11.70
  -4   9   3   39.70    9.80
  -3   9   3   34.90    9.60
  -3   9   3   52.19    8.00
  -2   9   3   12.30    5.20
  -1   9   3   40.70    5.20
   0   9   3  197.18    8.60
   1   9   3   49.40    4.80
   2   9   3   47.80    5.10
  -3  -9  -3   68.39    6.10
   3   9   3   58.99    6.50
  -4  -9  -3   94.09    8.00
   4   9   3   82.29    7.50
  -5  -9  -3  306.27   14.80
  -3  10   3  266.27   16.80
  -3  10   3  233.68   19.60
  -2  10   3   -7.50    7.30
  -2  10   3    4.40    5.90
  -1  10   3    3.50    4.50
   0  10   3  441.56   15.60
   1  10   3  433.46   15.10
   2  10   3  249.18   10.20
  -3 -10  -3  629.44   20.60
   3  10   3  628.14   20.90
  -4 -10  -3   38.30    5.50
   4  10   3   35.40    6.40
  -5 -10  -3   52.49    7.20
  -2  11   3  294.87   16.70
  -2  11   3  337.37   21.00
  -1  11   3  176.88   11.80
   0  11   3  255.57   11.80
   1  11   3  433.16   15.50
   2  11   3  439.06   15.80
   3  11   3  263.17   12.10
   3  11   3  279.57   13.00
  -4 -11  -3   17.60    5.30
  -1  12   3   22.10   11.80
  -1  12   3   53.99    8.10
   0  12   3  136.09   10.90
   1  12   3  158.88   10.40
   2  12   3    2.40    4.60
   3  12   3   42.70    7.40
   3  12   3   43.40    6.50
   3   9  -4   24.00    9.90
   3   9  -4   -2.60    8.40
  -3  -9   4    2.70    4.40
   2   9  -4  163.08   11.30
   2   9  -4  181.88   14.40
   2   9  -4  164.18   16.90
   1   9  -4   54.19   10.50
   0   9  -4   11.70    9.10
  -1   9  -4   18.30   10.80
  -2   9  -4  125.89   17.00
   4   8  -4   40.30    9.60
  -4  -8   4   40.40    6.70
   3   8  -4  175.08   14.40
   3   8  -4  159.98   13.50
  -3  -8   4  156.08    9.50
   2   8  -4   90.09   11.10
   2   8  -4  125.59   13.60
   1   8  -4  515.25   16.00
   1   8  -4  542.75   22.80
   0   8  -4  308.77   18.10
  -1   8  -4  322.17   19.90
  -2   8  -4  253.97   19.90
  -3   8  -4  161.38   20.40
   4   7  -4  535.85   22.00
  -4  -7   4  541.05   20.00
   3   7  -4  232.08   14.40
   3   7  -4  212.68   13.00
  -3  -7   4  200.38   10.20
   2   7  -4  451.55   18.30
   2   7  -4  469.25   19.40
  -2  -7   4  479.95   15.30
   1   7  -4  604.84   23.10
   1   7  -4  588.04   17.30
   0   7  -4  349.47   17.60
  -1   7  -4   55.59    9.30
  -2   7  -4   98.99   14.00
  -3   7  -4    7.60    9.40
  -4   7  -4   -8.70   12.60
   5   6  -4  104.49   13.30
  -5  -6   4  102.69   12.30
   4   6  -4   97.09   10.90
  -4  -6   4   98.29    9.50
   3   6  -4  609.84   21.60
  -3  -6   4  603.54   20.10
   2   6  -4  105.89   10.30
   2   6  -4   91.39    8.40
  -2  -6   4   89.59    5.70
   1   6  -4  316.17   14.40
   0   6  -4   10.50    5.30
  -1   6  -4   52.99    8.00
  -2   6  -4   20.30    7.50
  -3   6  -4  148.39   15.00
  -3   6  -4  145.89    8.40
  -4   6  -4   35.80   10.90
   5   5  -4   36.40    7.60
  -5  -5   4   36.30    7.40
   4   5  -4  127.79   10.10
  -4  -5   4   95.49    9.20
   3   5  -4   -0.60    4.20
  -3  -5   4    0.40    3.40
   2   5  -4   22.10    4.10
   2   5  -4   25.50    4.70
  -2  -5   4   25.80    3.20
   1   5  -4  201.78   10.80
  -1  -5   4  198.08    6.70
   0   5  -4 1050.29   33.40
  -1   5  -4   31.00    6.30
  -2   5  -4  133.89   11.20
  -3   5  -4  638.04   19.30
  -3   5  -4  584.24   24.80
  -4   5  -4  216.88   11.90
  -4   5  -4  240.68   17.60
  -5   5  -4  299.07   22.90
  -5   5  -4  294.67   16.20
   5   4  -4  106.29   11.00
  -5  -4   4   90.99    9.50
   4   4  -4    2.90    4.50
  -4  -4   4    5.50    4.80
   3   4  -4  524.65   18.30
  -3  -4   4  524.25   17.80
   2   4  -4  181.78    8.90
   2   4  -4  178.38    8.30
  -2  -4   4  189.28    7.60
   1   4  -4  931.61   28.40
   1   4  -4  887.81   26.10
  -1  -4   4  919.21   25.60
   0   4  -4 2471.05   70.59
  -1   4  -4 2063.49   60.49
  -2   4  -4  348.17   15.70
  -3   4  -4  449.36   14.30
  -3   4  -4  409.86   19.00
  -4   4  -4  364.26   15.00
  -4   4  -4  363.16   19.40
  -5   4  -4  157.28   13.30
  -5   4  -4  166.98   17.90
   6   3  -4  138.79   13.60
  -6  -3   4  132.09   15.80
   5   3  -4  124.09   10.80
  -5  -3   4  117.99   11.80
   4   3  -4  244.18   11.60
  -4  -3   4  217.68   11.90
   3   3  -4  500.95   17.70
  -3  -3   4  527.65   17.70
   2   3  -4  917.81   29.30
  -2  -3   4 1051.19   28.90
   1   3  -4  219.48    9.00
   1   3  -4  216.08    7.70
   1   3  -4  226.78    8.90
  -1  -3   4  214.18    7.30
   0   3  -4 3053.89   85.29
  -1   3  -4 1421.66   42.70
  -2   3  -4   39.90    6.00
  -3   3  -4  171.68   11.60
  -3   3  -4  203.68    8.00
  -4   3  -4   18.10    6.80
  -4   3  -4   17.00    4.90
  -5   3  -4   -0.30    6.10
  -5   3  -4   12.20    9.00
  -6   3  -4  215.08   16.40
  -6   3  -4  209.88   21.40
   6   2  -4  243.48   15.00
  -6  -2   4  258.47   17.40
   5   2  -4 1124.69   35.70
  -5  -2   4 1162.98   37.40
   4   2  -4   22.50    4.30
  -4  -2   4   22.70    5.10
   3   2  -4  105.49    6.90
  -3  -2   4  115.69    7.60
   2   2  -4  248.28    9.70
  -2  -2   4  243.18    9.10
   1   2  -4  458.25   15.00
   1   2  -4  464.75   14.90
   1   2  -4  477.05   14.00
  -1  -2   4  475.45   14.90
  -1  -2   4  459.65   13.90
   0   2  -4    5.80    2.20
  -1   2  -4  358.16   13.50
  -2   2  -4   29.60    4.70
  -3   2  -4   21.20    5.20
  -3   2  -4   18.60    2.80
  -4   2  -4  242.48   14.00
  -4   2  -4  260.67   11.60
  -5   2  -4  117.69   10.40
  -5   2  -4  138.99   13.80
  -6   2  -4  216.08   16.00
  -6   2  -4  221.58   19.10
  -6  -1   4  102.69   11.80
   5   1  -4  475.25   18.30
  -5  -1   4  468.25   19.80
   4   1  -4  780.62   24.80
  -4  -1   4  754.52   25.70
   3   1  -4   37.40    4.00
  -3  -1   4   56.29    6.20
   2   1  -4   53.69    4.40
  -2  -1   4   56.19    4.00
   1   1  -4  973.70   28.10
   1   1  -4  947.41   27.90
   1   1  -4 1004.70   27.40
  -1  -1   4  981.00   27.90
  -1  -1   4  965.70   27.50
   0   1  -4  172.88    7.20
  -1   1  -4 2830.82   78.89
  -2   1  -4  371.66   11.20
  -2   1  -4  374.66   14.30
   2  -1   4  379.06   11.20
  -3   1  -4  151.88    9.40
  -3   1  -4  148.49    6.60
  -4   1  -4  216.58   12.30
  -4   1  -4  215.08   10.20
  -5   1  -4  182.68   11.20
  -5   1  -4  173.88   13.60
  -6   1  -4   77.89    9.70
  -6   1  -4   77.79   10.80
  -6   0   4   11.90    8.40
  -5   0   4  535.55   21.30
   4   0  -4  741.83   23.50
  -4   0   4  705.23   24.50
   3   0  -4  403.96   14.00
  -3   0   4  399.96   14.80
   2   0  -4  134.89    6.40
  -2   0   4  147.19    6.40
   1   0  -4 1372.56   36.70
   1   0  -4 1321.07   36.90
   1   0  -4 1308.27   37.20
  -1   0   4 1309.27   36.90
  -1   0   4 1325.27   37.00
   0   0  -4  825.82   22.30
   0   0  -4  824.72   24.20
   0   0  -4  829.32   23.40
   0   0   4  807.72   22.50
   0   0   4  820.32   24.20
  -1   0  -4 3765.22  103.19
  -2   0  -4 4080.69  110.39
  -2   0  -4 4119.49  112.89
   2   0   4 4110.89  110.59
  -3   0  -4  352.56   14.00
  -3   0  -4  345.57   11.70
  -4   0  -4  144.99    9.70
  -4   0  -4  160.98    8.90
  -5   0  -4   26.90    5.60
  -5   0  -4   36.20    6.70
  -6   0  -4  131.39   14.10
  -6   0  -4  125.79   12.80
  -6   1   4   53.59   10.10
  -5   1   4   10.70    6.20
   4  -1  -4  441.96   16.00
  -4   1   4  437.46   17.20
   3  -1  -4  814.72   24.10
  -3   1   4  752.72   24.70
   2  -1  -4 4720.73  127.59
  -2   1   4 4693.53  127.89
   1  -1  -4 1073.79   30.00
   1  -1  -4 1085.59   30.10
   1  -1  -4 1069.49   30.50
  -1   1   4 1084.79   30.30
  -1   1   4 1076.49   30.30
   0  -1  -4   99.29    4.00
   0  -1  -4  106.89    4.80
   0  -1  -4  105.59    3.50
   0   1   4  110.89    3.70
   0   1   4  102.99    5.00
  -1  -1  -4 1897.01   54.09
  -1  -1  -4 1940.41   51.99
   1   1   4 1956.40   52.29
  -2  -1  -4 2262.47   63.09
  -2  -1  -4 2252.37   61.09
   2   1   4 2218.18   61.39
  -3  -1  -4 1838.02   51.59
  -3  -1  -4 1858.31   53.29
  -4  -1  -4  357.46   13.30
  -4  -1  -4  326.37   14.60
  -5  -1  -4   75.19    7.70
  -5  -1  -4   86.09    9.80
  -6  -1  -4   10.90    6.80
  -6  -1  -4   -9.30    6.60
  -6   2   4    8.10    8.60
  -5   2   4   58.69    8.10
  -4   2   4  748.23   25.60
   3  -2  -4 1125.19   32.60
  -3   2   4 1092.49   33.50
   2  -2  -4    4.00    1.90
  -2   2   4    8.60    1.80
  -2   2   4    8.10    2.30
   1  -2  -4  430.36   13.30
   1  -2  -4  434.26   12.90
  -1   2   4  446.96   13.40
  -1   2   4  432.06   13.40
   0  -2  -4  735.43   20.50
   0  -2  -4  742.93   21.60
   0  -2  -4  738.13   20.80
   0   2   4  721.33   20.80
   0   2   4  754.22   21.80
   0   2   4  741.63   20.60
  -1  -2  -4 1003.40   27.50
  -1  -2  -4  968.30   29.00
   1   2   4 1032.00   27.90
  -2  -2  -4 1387.76   38.50
  -2  -2  -4 1384.76   40.00
  -3  -2  -4  392.16   13.10
  -3  -2  -4  392.06   14.20
  -4  -2  -4  594.34   19.80
  -4  -2  -4  613.74   20.80
  -5  -2  -4   83.29    8.50
  -5  -2  -4   87.49    8.50
  -6  -2  -4  155.98   11.80
  -6  -2  -4  146.19   12.30
  -6   3   4  127.29   16.90
  -5   3   4   75.39    9.00
  -4   3   4  126.39   10.10
  -3   3   4   66.59    6.20
  -2   3   4 1040.10   30.70
   1  -3  -4  643.54   18.80
  -1   3   4  645.64   19.10
  -1   3   4  641.24   19.00
   0  -3  -4   35.00    2.20
   0  -3  -4   35.10    2.60
   0   3   4   32.80    2.10
   0   3   4   29.90    2.10
  -1  -3  -4  523.35   15.80
   1   3   4  482.95   14.80
  -2  -3  -4   65.29    3.40
  -2  -3  -4   58.29    4.20
  -3  -3  -4  418.96   14.40
  -3  -3  -4  407.36   13.70
  -4  -3  -4  262.27   11.10
  -4  -3  -4  250.47   10.90
  -5  -3  -4  408.56   16.40
  -5  -3  -4  399.46   15.60
  -6  -3  -4   84.09    9.60
  -6  -3  -4   90.39   11.20
  -6   4   4  138.69   18.70
  -5   4   4   16.20    7.00
  -4   4   4   39.80    5.40
  -4   4   4   38.00    6.20
  -3   4   4  938.61   29.40
  -2   4   4 1004.20   30.00
  -1   4   4  308.97   10.30
   0  -4  -4  358.76   11.30
   0   4   4  347.57   10.70
   0   4   4  342.87   10.60
  -1  -4  -4   16.90    2.30
  -2  -4  -4 1459.45   41.40
  -2  -4  -4 1455.85   40.60
  -3  -4  -4  364.86   12.70
  -3  -4  -4  374.26   13.10
  -4  -4  -4  906.61   28.60
  -4  -4  -4  943.41   28.40
  -5  -4  -4   96.89    7.90
  -5  -4  -4  113.39    9.10
  -6  -4  -4  175.38   13.60
  -6  -4  -4  154.08   10.30
  -5   5   4  187.08   15.50
  -5   5   4  222.38   14.40
  -4   5   4  329.27   15.40
  -4   5   4  380.56   16.60
  -3   5   4    1.90    3.70
  -2   5   4  163.38    8.00
  -1   5   4 1807.32   50.49
   0   5   4  408.16   12.50
  -1  -5  -4  509.05   16.10
   1   5   4  529.25   15.30
  -2  -5  -4  818.32   23.60
  -2  -5  -4  797.12   24.00
  -3  -5  -4  873.91   26.90
  -3  -5  -4  926.61   27.00
  -4  -5  -4  503.35   16.80
  -4  -5  -4  481.85   17.20
  -5  -5  -4  869.21   28.20
  -5  -5  -4  844.02   26.50
  -6  -5  -4   -3.50    4.60
  -6  -5  -4    4.00    5.90
  -5   6   4   33.30    9.40
  -5   6   4   41.70    9.60
  -4   6   4   54.69    7.80
  -4   6   4   32.30    7.00
  -3   6   4  183.28   10.80
  -2   6   4  436.36   15.50
  -1   6   4 1683.83   47.50
   0   6   4 1127.69   31.90
   1   6   4  184.78    6.80
  -2  -6  -4 1599.74   44.60
  -2  -6  -4 1583.34   45.10
  -3  -6  -4  187.48    8.30
  -3  -6  -4  181.38    8.00
  -4  -6  -4  389.66   13.80
  -4  -6  -4  376.66   14.60
  -5  -6  -4  113.79    7.50
  -5  -6  -4  125.09    9.60
  -6  -6  -4    4.10    6.40
  -6  -6  -4   25.30    5.10
  -5   7   4    4.40    9.50
  -4   7   4  306.37   17.00
  -4   7   4  302.37   17.30
  -3   7   4  586.44   21.30
  -2   7   4  229.08   10.70
  -1   7   4  687.03   21.40
   0   7   4  373.06   12.30
   1   7   4   49.50    3.90
  -2  -7  -4  187.68    7.50
  -3  -7  -4  409.26   14.20
  -4  -7  -4   31.00    4.70
  -5  -7  -4  276.57   13.50
  -6  -7  -4  195.58   14.00
  -4   8   4   36.40    8.70
  -4   8   4   32.70    9.90
  -3   8   4  127.69   11.10
  -3   8   4  115.49   12.30
  -2   8   4   78.39    8.10
  -1   8   4  358.66   13.40
   0   8   4  547.45   17.30
   1   8   4   72.29    4.80
  -3  -8  -4  307.07   11.80
  -4  -8  -4  643.64   21.50
  -5  -8  -4  308.67   14.50
  -6  -8  -4   50.59    8.50
  -4   9   4  -22.00   10.30
  -4   9   4    0.00    9.10
  -3   9   4   69.09    8.60
  -3   9   4   57.59    9.40
  -2   9   4   10.70    5.00
  -1   9   4   62.99    7.00
   0   9   4  732.43   22.70
   1   9   4  506.45   16.50
   2   9   4   37.00    4.90
  -3  -9  -4  868.31   26.60
  -4  -9  -4  237.88   11.30
  -5  -9  -4  195.68   12.00
  -3  10   4   76.69   11.80
  -3  10   4   77.79   10.30
  -2  10   4  125.69   11.40
  -1  10   4  102.19    8.80
   0  10   4  670.53   21.70
   1  10   4  609.54   19.60
   2  10   4  194.68    8.90
   3  10   4   15.30    4.20
  -4 -10  -4  136.29    9.30
  -5 -10  -4  344.17   16.00
  -2  11   4  248.88   15.20
  -1  11   4   64.69    7.50
   0  11   4   47.90    5.70
   1  11   4  151.98    8.60
   2  11   4    0.50    3.60
   3  11   4  122.59    9.50
   3  11   4  101.19    8.30
  -4 -11  -4  177.88   10.80
  -1  12   4   24.70    7.80
   0  12   4   71.39    9.40
   1  12   4  136.09    9.70
   2  12   4  112.99    9.00
   3  12   4    0.80    5.10
   1  13   4  366.26   16.30
   1   9  -5   59.19   12.40
   0   9  -5   12.50   12.10
   3   8  -5   15.20    8.80
  -3  -8   5   13.20    4.90
   2   8  -5   16.70    7.00
   2   8  -5    7.00    8.90
   1   8  -5  112.89   15.10
   0   8  -5   96.29   12.80
  -1   8  -5   62.99   11.40
  -2   8  -5  207.28   20.20
   4   7  -5   -4.20    8.00
  -4  -7   5    3.70    5.80
   3   7  -5  406.66   18.00
   3   7  -5  420.76   19.00
  -3  -7   5  416.76   15.10
   2   7  -5  239.98   14.10
   2   7  -5  238.28   15.30
  -2  -7   5  238.88    9.30
   1   7  -5  269.57   16.20
   0   7  -5  147.89   14.10
  -1   7  -5   12.20    7.70
  -2   7  -5  109.49   14.90
  -3   7  -5   54.79   11.80
   4   6  -5  241.78   15.10
  -4  -6   5  259.47   13.50
   3   6  -5  533.95   20.50
  -3  -6   5  499.55   17.70
   2   6  -5  383.36   16.60
   2   6  -5  371.66   16.20
  -2  -6   5  390.16   12.80
   1   6  -5  249.88   14.20
   0   6  -5  185.18   12.90
  -1   6  -5   10.10    6.00
  -2   6  -5   17.00    7.10
  -3   6  -5  254.17   18.20
  -4   6  -5   37.10   12.90
   5   5  -5  555.54   23.10
  -5  -5   5  540.55   22.00
   4   5  -5    5.30    5.90
  -4  -5   5   10.50    5.30
   3   5  -5  172.68   11.40
  -3  -5   5  177.58    9.30
   2   5  -5  170.58   10.00
   2   5  -5  150.28    9.60
  -2  -5   5  143.99    7.00
   1   5  -5  233.68    9.40
   1   5  -5  250.37   12.50
  -1  -5   5  239.68    7.70
   0   5  -5  655.53   23.90
  -1   5  -5   99.89   10.30
  -2   5  -5   34.40    6.70
  -3   5  -5  368.76   19.50
  -4   5  -5  478.35   24.70
   5   4  -5   15.70    7.10
  -5  -4   5   29.30    7.10
   4   4  -5   10.40    5.30
  -4  -4   5   15.30    5.10
   3   4  -5  168.08   10.30
  -3  -4   5  167.28    8.70
   2   4  -5  445.06   16.70
   2   4  -5  462.95   16.00
  -2  -4   5  458.65   14.80
   1   4  -5  118.09    8.10
   1   4  -5   94.79    5.80
   1   4  -5  118.89    7.30
  -1  -4   5  102.69    4.40
   0   4  -5  547.65   20.00
  -1   4  -5  999.00   33.00
  -2   4  -5  144.59   11.10
  -3   4  -5  405.76   19.70
  -4   4  -5   79.09   11.50
  -4   4  -5   94.69    8.30
  -5   4  -5   -1.70    6.30
  -5   4  -5   19.00   11.40
   5   3  -5  325.97   16.10
  -5  -3   5  337.97   17.40
   4   3  -5   10.00    5.00
  -4  -3   5   -0.80    4.90
   3   3  -5  136.79    9.20
  -3  -3   5  159.88    8.40
   2   3  -5  766.82   23.10
   2   3  -5  745.03   24.00
  -2  -3   5  769.72   22.90
   1   3  -5  608.24   20.20
   1   3  -5  609.34   18.00
   1   3  -5  616.64   19.80
  -1  -3   5  629.84   17.90
   0   3  -5  654.93   22.20
  -1   3  -5  520.65   19.30
  -2   3  -5   92.29    9.20
  -3   3  -5    7.50    6.00
  -4   3  -5  292.67   17.20
  -4   3  -5  320.57   12.50
  -5   3  -5  103.29   13.40
  -5   3  -5  123.79   11.00
   6   2  -5  205.18   15.20
  -6  -2   5  180.08   17.90
   5   2  -5  398.56   17.40
  -5  -2   5  384.46   18.40
   4   2  -5  192.18   10.40
  -4  -2   5  166.98   10.90
   3   2  -5   28.20    4.30
  -3  -2   5   30.20    4.40
   2   2  -5  987.30   30.00
  -2  -2   5 1013.40   29.40
   1   2  -5 1348.47   39.00
   1   2  -5 1330.47   39.10
   1   2  -5 1359.76   37.50
  -1  -2   5 1377.36   37.60
   0   2  -5  359.16   13.60
  -1   2  -5  548.15   19.50
  -2   2  -5    3.00    3.80
  -3   2  -5  421.16   18.30
  -3   2  -5  455.55   13.80
  -4   2  -5 1058.49   31.20
  -4   2  -5 1025.20   35.70
  -5   2  -5  294.77   18.50
  -5   2  -5  267.07   13.60
  -6   2  -5   12.50    7.70
  -6   2  -5    6.20   11.30
  -6  -1   5   30.00    9.60
   5   1  -5  469.35   18.60
  -5  -1   5  450.65   19.90
   4   1  -5  577.14   20.10
  -4  -1   5  552.04   20.70
   3   1  -5  126.09    7.60
  -3  -1   5  124.99    7.80
   2   1  -5  105.29    6.20
  -2  -1   5   85.69    5.30
   1   1  -5  412.56   12.20
   1   1  -5  419.66   13.20
   1   1  -5  399.26   13.20
  -1  -1   5  419.06   12.40
  -1  -1   5  341.67   13.20
   0   1  -5 1228.28   36.10
  -1   1  -5 1076.99   32.90
  -2   1  -5 1536.75   46.00
  -3   1  -5    4.50    2.10
  -3   1  -5   -5.10    3.70
  -4   1  -5  107.49    7.30
  -4   1  -5   93.69   10.30
  -5   1  -5  429.86   17.00
  -5   1  -5  448.26   20.60
  -6   1  -5  681.53   29.50
  -6   1  -5  678.33   25.30
  -6   0   5  173.28   17.70
   5   0  -5  124.49   10.40
  -5   0   5  128.39   11.90
   4   0  -5  278.27   12.50
  -4   0   5  289.67   13.60
   3   0  -5   42.70    5.30
  -3   0   5   41.40    5.60
   2   0  -5  177.38    7.90
  -2   0   5  176.18    7.50
   1   0  -5  667.63   19.90
   1   0  -5  684.73   20.20
   1   0  -5  678.33   19.30
  -1   0   5  660.53   19.60
  -1   0   5  650.23   20.00
   0   0  -5  423.36   11.90
   0   0  -5  429.06   13.30
   0   0  -5  433.46   14.30
   0   0   5  421.36   12.20
  -1   0  -5 1505.85   43.80
  -2   0  -5    7.60    3.20
  -2   0  -5    2.30    1.10
   2   0   5    1.10    1.60
  -3   0  -5    1.60    3.80
  -3   0  -5    5.20    2.00
  -4   0  -5  115.19    7.50
  -4   0  -5  105.59    9.80
  -5   0  -5  509.85   18.80
  -5   0  -5  522.55   22.00
  -6   0  -5  380.56   17.80
  -6   0  -5  347.17   20.40
  -6   1   5   77.09   11.80
  -5   1   5  156.18   12.70
   4  -1  -5  230.08   11.10
  -4   1   5  230.98   12.20
   3  -1  -5  182.38    8.70
  -3   1   5  187.48    9.20
   2  -1  -5   77.89    5.00
  -2   1   5   69.29    5.00
   1  -1  -5   67.09    4.10
   1  -1  -5   72.69    3.90
  -1   1   5   73.59    3.80
  -1   1   5   63.29    4.50
   0  -1  -5  612.74   18.00
   0  -1  -5  624.04   18.90
   0  -1  -5  595.14   17.00
   0   1   5  617.54   17.40
  -1  -1  -5   45.40    4.30
   1   1   5   48.00    2.50
   1   1   5   50.59    2.10
  -2  -1  -5 1203.48   33.10
  -2  -1  -5 1206.18   35.90
   2   1   5 1176.28   33.50
  -3  -1  -5  416.46   16.00
  -3  -1  -5  407.36   13.20
  -4  -1  -5  247.88   12.60
  -4  -1  -5  244.38   10.60
  -5  -1  -5    1.60    4.30
  -5  -1  -5   -5.70    5.70
  -6  -1  -5   26.90    8.40
  -6  -1  -5   13.90    6.90
  -6   2   5   71.59   12.20
  -5   2   5  263.27   15.80
  -4   2   5  593.94   21.80
   3  -2  -5  184.78    8.70
  -3   2   5  184.08    9.30
   2  -2  -5   30.10    3.90
  -2   2   5   26.70    3.40
  -2   2   5   28.20    3.80
   1  -2  -5  755.42   22.30
   1  -2  -5  768.62   22.00
  -1   2   5  756.22   22.30
  -1   2   5  763.92   22.50
   0  -2  -5 1187.98   32.70
   0  -2  -5 1125.19   32.10
   0  -2  -5 1215.08   33.70
   0   2   5 1192.58   32.40
   0   2   5 1142.29   32.60
  -1  -2  -5 9589.64  260.67
  -1  -2  -5 9712.23  262.67
   1   2   5 9999.00  260.87
  -2  -2  -5 2139.19   60.69
  -2  -2  -5 2140.29   58.29
  -3  -2  -5  151.28    6.50
  -3  -2  -5  162.98    8.70
  -4  -2  -5    0.70    2.90
  -4  -2  -5    0.90    3.80
  -5  -2  -5   40.00    6.50
  -5  -2  -5   33.80    5.80
  -6  -2  -5   16.10    6.50
  -6  -2  -5   22.10    7.50
  -6   3   5   25.60   11.50
  -5   3   5   84.59    9.90
  -4   3   5  463.15   18.60
  -3   3   5 1339.47   40.20
   2  -3  -5 1689.43   47.30
  -2   3   5 1662.93   47.80
   1  -3  -5  871.41   24.70
   1  -3  -5  841.82   24.80
  -1   3   5  867.31   25.10
   0  -3  -5 1980.90   53.79
   0  -3  -5 1957.60   52.89
   0   3   5 1933.51   52.89
   0   3   5 1876.91   52.89
  -1  -3  -5 1659.03   48.00
   1   3   5 1732.73   46.20
  -2  -3  -5 2108.59   58.59
  -2  -3  -5 2035.20   56.69
  -3  -3  -5   84.79    5.00
  -3  -3  -5   76.99    6.40
  -4  -3  -5  297.47   11.70
  -4  -3  -5  302.07   13.00
  -5  -3  -5   71.89    8.20
  -5  -3  -5   74.69    8.70
  -6  -3  -5   14.70    6.60
  -6  -3  -5    9.40    6.40
  -5   4   5  128.29   13.40
  -4   4   5  596.24   22.80
  -4   4   5  637.24   20.40
  -3   4   5  560.04   19.60
  -2   4   5  401.66   14.20
  -1   4   5  589.34   18.10
   0  -4  -5 1546.25   42.90
   0   4   5 1540.55   42.20
   0   4   5 1496.65   42.10
  -1  -4  -5    2.20    1.70
   1   4   5    1.30    1.00
  -2  -4  -5 1310.77   36.90
  -2  -4  -5 1328.67   38.40
  -3  -4  -5 1285.07   37.70
  -3  -4  -5 1259.07   36.50
  -4  -4  -5  363.96   14.50
  -4  -4  -5  383.36   14.00
  -5  -4  -5  474.75   18.00
  -5  -4  -5  467.05   18.00
  -6  -4  -5  159.58   12.00
  -6  -4  -5  140.79   12.90
  -5   5   5   28.20    9.20
  -5   5   5   38.90    8.10
  -4   5   5   43.30    7.10
  -4   5   5   55.69    7.50
  -3   5   5   -0.70    4.10
  -2   5   5   -2.30    2.80
  -1   5   5    8.40    2.50
   0   5   5   30.10    2.90
  -1  -5  -5   63.09    4.30
   1   5   5   64.59    3.50
  -2  -5  -5 2080.19   57.19
  -2  -5  -5 2069.39   58.29
  -3  -5  -5  807.02   24.00
  -3  -5  -5  709.43   22.90
  -4  -5  -5  884.71   27.40
  -4  -5  -5  866.51   27.20
  -5  -5  -5  776.92   25.70
  -5  -5  -5  802.92   26.30
  -6  -5  -5   87.69    9.00
  -6  -5  -5   90.19    9.80
  -5   6   5   44.70    9.90
  -5   6   5   46.80    9.40
  -4   6   5   78.39    9.10
  -4   6   5   75.99    8.60
  -3   6   5  363.16   15.50
  -2   6   5   25.20    4.10
  -1   6   5  989.90   29.30
   0   6   5  937.61   27.10
   1   6   5  546.05   16.50
  -2  -6  -5  872.51   26.40
  -2  -6  -5  867.81   25.40
  -3  -6  -5  870.11   28.00
  -3  -6  -5  976.50   27.60
  -4  -6  -5    8.00    3.60
  -4  -6  -5   15.80    3.80
  -5  -6  -5  123.19    9.60
  -5  -6  -5  120.49    8.60
  -6  -6  -5  223.38   14.10
  -6  -6  -5  223.28   12.20
  -5   7   5   39.40   10.80
  -5   7   5   44.10   11.10
  -4   7   5  122.19   13.30
  -4   7   5  154.68   13.50
  -3   7   5  849.52   28.50
  -2   7   5 1322.27   39.70
  -1   7   5 1099.89   32.60
   1   7   5    3.30    1.80
  -3  -7  -5  237.38   10.10
  -4  -7  -5    7.60    4.00
  -4  -7  -5    4.20    3.20
  -5  -7  -5   31.00    5.20
  -5  -7  -5   28.90    5.60
  -6  -7  -5   71.89    8.60
  -6  -7  -5   70.59    9.00
  -4   8   5   74.59   10.20
  -4   8   5   48.30    9.50
  -3   8   5  530.55   21.00
  -2   8   5  316.77   13.80
  -1   8   5  217.98   10.10
   0   8   5  203.48    8.50
   1   8   5    5.40    2.20
   2   8   5   56.09    4.60
  -3  -8  -5  663.43   21.10
  -4  -8  -5  295.37   12.40
  -5  -8  -5   19.50    5.30
  -6  -8  -5  223.48   14.60
  -4   9   5    4.70    9.90
  -4   9   5   13.10    9.40
  -3   9   5  -13.50    6.40
  -2   9   5    5.40    5.10
  -1   9   5    3.60    4.00
   0   9   5  411.06   14.60
   1   9   5  367.76   13.10
   2   9   5  182.78    8.20
  -3  -9  -5  290.27   11.50
  -4  -9  -5  414.76   15.70
  -5  -9  -5  333.47   14.90
  -3  10   5   13.50    9.70
  -3  10   5    1.00    8.10
  -2  10   5  271.47   14.90
  -1  10   5  224.48   11.80
   0  10   5  237.08   10.70
   1  10   5  690.83   21.90
   2  10   5  189.28    9.10
  -4 -10  -5  492.45   17.80
  -5 -10  -5   21.60    5.90
  -2  11   5  388.26   18.80
  -1  11   5  283.07   14.40
   0  11   5  174.08   10.10
   1  11   5   90.39    7.40
   2  11   5  111.59    7.80
   3  11   5  106.79    8.10
  -4 -11  -5   90.79    8.60
  -1  12   5   51.49    8.50
   0  12   5   76.09    9.60
   1  12   5  107.59    8.80
   2  12   5    0.00    4.50
   3  12   5    1.20    4.70
   1  13   5   68.79    7.80
   2  13   5   93.49   10.10
   2   8  -6  112.29   11.50
   2   8  -6  133.79   17.30
   1   8  -6  147.09   14.00
   1   8  -6  129.09   14.70
   0   8  -6  532.45   26.80
  -1   8  -6  301.77   22.20
   3   7  -6  729.63   26.70
  -3  -7   6  606.24   21.00
   2   7  -6  101.09   12.20
   2   7  -6  116.99   15.10
   1   7  -6   70.49   10.70
   1   7  -6   57.29    7.30
   0   7  -6   60.39   10.00
  -1   7  -6   43.40    9.90
  -2   7  -6  182.28   18.40
   4   6  -6   -5.00    8.00
  -4  -6   6   -0.80    5.80
   3   6  -6  120.59   12.50
  -3  -6   6  113.99    8.50
   2   6  -6  188.28   13.20
   2   6  -6  172.78   12.10
  -2  -6   6  157.68    7.50
   1   6  -6    4.40    4.60
   1   6  -6   15.70    6.90
   0   6  -6   28.50    7.40
  -1   6  -6    3.20    7.20
  -2   6  -6   34.70    9.50
  -3   6  -6  156.48   18.00
   4   5  -6    1.70    6.60
  -4  -5   6    3.80    6.00
   3   5  -6  237.08   14.00
  -3  -5   6  240.18   11.00
   2   5  -6  176.18   11.10
   2   5  -6  198.68   12.60
  -2  -5   6  183.28    7.90
   1   5  -6   43.90    5.80
   1   5  -6   47.70    7.40
   0   5  -6   38.10    7.20
  -1   5  -6  120.79   11.70
  -2   5  -6    2.70    6.70
  -3   5  -6  195.58   16.90
  -4   5  -6  370.76   23.50
   5   4  -6  217.58   15.40
  -5  -4   6  221.68   15.00
   4   4  -6  176.28   13.00
  -4  -4   6  186.38   11.60
   3   4  -6  268.07   13.60
  -3  -4   6  278.37   11.70
   2   4  -6 1065.29   33.50
   2   4  -6 1054.69   32.80
  -2  -4   6 1114.99   31.40
   1   4  -6  169.88   10.90
   1   4  -6  172.38    9.40
   0   4  -6  221.78   12.70
  -1   4  -6  352.86   16.60
  -2   4  -6  334.77   17.20
  -3   4  -6  113.29   13.30
  -4   4  -6  136.79   15.60
  -5   4  -6   42.20   13.00
   5   3  -6  238.88   15.00
  -5  -3   6  216.38   15.10
   4   3  -6   20.90    6.20
  -4  -3   6   15.10    5.80
   3   3  -6  176.18   10.50
  -3  -3   6  172.58    9.40
   2   3  -6  975.80   30.60
   2   3  -6  963.00   29.40
  -2  -3   6 1010.10   29.00
   1   3  -6 1469.55   43.90
   1   3  -6 1533.35   44.50
   0   3  -6  165.58   10.00
  -1   3  -6  579.54   21.90
  -2   3  -6   93.79   10.20
  -3   3  -6   95.29   11.40
  -4   3  -6  193.28   16.10
  -4   3  -6  185.78    8.70
  -5   3  -6   17.10   11.20
   5   2  -6   49.30    7.60
  -5  -2   6   45.20    8.40
   4   2  -6  174.08   11.30
  -4  -2   6  165.88   11.50
   3   2  -6   13.00    4.00
  -3  -2   6   13.00    3.90
   2   2  -6  620.94   21.00
  -2  -2   6  651.23   19.90
   1   2  -6  637.84   20.60
   1   2  -6  608.44   18.20
   1   2  -6  634.04   20.30
  -1  -2   6  646.74   18.50
   0   2  -6  734.33   24.20
  -1   2  -6   98.89    8.10
  -2   2  -6  296.37   14.20
  -3   2  -6   50.99    7.90
  -4   2  -6  150.08   13.90
  -4   2  -6  161.68    8.20
  -5   2  -6  206.48   11.60
  -5   2  -6  180.08   17.60
   5   1  -6  147.99   11.40
  -5  -1   6  125.89   13.70
   4   1  -6  195.28   11.20
  -4  -1   6  218.98   12.60
   3   1  -6  113.79    8.30
  -3  -1   6  110.09    7.70
   2   1  -6   38.50    4.30
  -2  -1   6   31.30    3.70
   1   1  -6  720.03   21.10
   1   1  -6  754.12   22.90
   1   1  -6  747.73   22.90
   0   1  -6  176.78    7.60
   0   1  -6  176.98    8.70
  -1   1  -6  829.22   27.10
  -2   1  -6  268.77   12.70
  -3   1  -6  161.08    6.20
  -3   1  -6  168.98   11.30
  -4   1  -6  554.24   17.80
  -4   1  -6  539.95   22.70
  -5   1  -6  334.97   19.10
  -5   1  -6  319.67   14.10
  -6   1  -6    9.30    7.50
  -6   1  -6   12.40   11.40
   5   0  -6   84.99   10.20
  -5   0   6   96.29   12.30
   4   0  -6  151.38   10.00
  -4   0   6  162.28   10.80
   3   0  -6  101.59    7.50
  -3   0   6  120.89    7.80
   2   0  -6  681.03   21.30
  -2   0   6  656.93   20.90
   1   0  -6  266.47   10.00
   1   0  -6  257.37    9.80
  -1   0   6  259.57    8.90
   0   0  -6  699.63   22.00
   0   0  -6  687.83   20.90
  -1   0  -6   61.19    5.80
  -2   0  -6  860.71   27.50
   2   0   6  799.02   23.30
  -3   0  -6  969.70   27.60
  -3   0  -6  970.90   32.00
  -4   0  -6  305.07   11.60
  -4   0  -6  288.27   15.60
  -5   0  -6   13.10    5.20
  -5   0  -6   21.90    7.60
  -6   0  -6   34.90    7.70
  -6   0  -6   36.10   10.60
   5  -1  -6  307.47   15.00
  -5   1   6  306.57   16.80
   4  -1  -6  171.18   10.20
  -4   1   6  187.98   11.20
   3  -1  -6  131.49    8.00
  -3   1   6  133.59    8.40
   2  -1  -6   49.50    5.10
  -2   1   6   50.79    4.90
   1  -1  -6 1309.77   37.20
   1  -1  -6 1309.17   37.30
  -1   1   6 1297.37   36.80
   0  -1  -6  270.57    8.30
   0  -1  -6  288.77    9.60
   0  -1  -6  275.67   10.50
   0   1   6  281.97    8.80
  -1  -1  -6 1329.07   37.80
  -1  -1  -6 1352.36   40.10
   1   1   6 1333.97   37.00
   1   1   6 1401.86   36.80
  -2  -1  -6  109.59    4.00
  -2  -1  -6  111.49    7.60
   2   1   6  100.69    4.90
  -3  -1  -6    0.90    3.30
  -3  -1  -6    0.50    1.70
  -4  -1  -6  443.06   18.80
  -4  -1  -6  469.95   15.90
  -5  -1  -6 1169.68   36.00
  -5  -1  -6 1196.58   39.30
  -6  -1  -6  914.81   33.40
  -6  -1  -6  889.01   30.50
  -5   2   6  157.78   13.70
   4  -2  -6  277.07   12.70
  -4   2   6  264.67   14.00
   3  -2  -6   22.90    4.10
  -3   2   6   15.40    4.30
  -2   2   6  316.97   11.40
  -2   2   6  316.97   12.00
   1  -2  -6  550.44   17.30
   1  -2  -6  564.64   17.10
  -1   2   6  547.65   17.00
   0  -2  -6 1821.12   49.99
   0  -2  -6 1795.52   50.99
   0   2   6 1805.32   49.50
  -1  -2  -6  421.36   12.40
  -1  -2  -6  407.26   14.50
   1   2   6  387.86   12.20
   1   2   6  411.76   11.90
  -2  -2  -6   99.89    7.10
  -2  -2  -6   88.69    3.80
  -3  -2  -6  111.89    5.30
  -3  -2  -6  106.39    8.00
  -4  -2  -6 1093.49   33.80
  -4  -2  -6  983.90   30.80
  -5  -2  -6 1093.79   36.30
  -5  -2  -6 1086.09   33.80
  -6  -2  -6   45.10    7.60
  -6  -2  -6   52.59    9.40
  -5   3   6   85.89   10.40
  -4   3   6  314.87   15.30
   3  -3  -6  513.25   17.60
  -3   3   6  504.55   18.40
   2  -3  -6  147.59    7.60
  -2   3   6  188.68    8.70
   1  -3  -6 1426.66   40.40
   1  -3  -6 1453.05   40.70
  -1   3   6 1441.46   40.80
   0  -3  -6  107.89    4.70
   0  -3  -6  110.39    5.50
   0   3   6  101.39    4.60
  -1  -3  -6 1429.16   41.60
  -1  -3  -6 1443.56   39.40
   1   3   6 1435.16   39.40
  -2  -3  -6 2685.43   73.39
  -2  -3  -6 2723.83   76.09
  -3  -3  -6   39.30    3.80
  -3  -3  -6   25.60    4.40
  -4  -3  -6  323.37   12.10
  -4  -3  -6  315.07   14.60
  -5  -3  -6  133.29    9.30
  -5  -3  -6  116.89   11.20
  -6  -3  -6   28.40    7.60
  -6  -3  -6   24.50    6.90
  -5   4   6  195.48   16.30
  -4   4   6  498.25   20.30
  -3   4   6  155.58    9.80
  -2   4   6  243.78   10.30
   1  -4  -6  642.04   19.50
  -1   4   6  647.94   19.90
   0  -4  -6 1988.10   53.99
   0  -4  -6 1947.51   54.99
   0   4   6 1974.60   54.19
  -1  -4  -6  465.75   15.70
   1   4   6  471.55   13.90
  -2  -4  -6  281.27    9.30
  -2  -4  -6  286.37   11.50
  -3  -4  -6  199.78   10.20
  -3  -4  -6  219.98    8.40
  -4  -4  -6  237.78   10.30
  -4  -4  -6  247.88   12.00
  -5  -4  -6  247.18   13.30
  -5  -4  -6  254.27   12.10
  -6  -4  -6  108.19   11.70
  -6  -4  -6  105.89   11.40
  -5   5   6   64.49    9.80
  -4   5   6  259.07   15.40
  -4   5   6  304.27   13.60
  -3   5   6  409.46   16.60
  -2   5   6   18.80    4.10
  -1   5   6  517.95   16.90
   0  -5  -6  511.85   16.30
   0   5   6  496.35   15.50
  -1  -5  -6    3.60    2.40
   1   5   6    3.00    1.50
  -2  -5  -6  821.02   24.20
  -2  -5  -6  850.61   26.00
  -3  -5  -6 1917.51   54.59
  -3  -5  -6 1867.71   52.89
  -4  -5  -6  996.60   30.20
  -4  -5  -6  988.80   31.20
  -5  -5  -6  402.36   15.60
  -5  -5  -6  374.36   16.20
  -6  -5  -6  361.96   16.80
  -6  -5  -6  363.26   16.50
  -5   6   6   15.70    9.60
  -4   6   6  112.09   12.90
  -4   6   6  102.89   10.80
  -3   6   6  357.06   15.40
  -2   6   6   16.80    4.10
  -1   6   6  178.68    8.40
   0   6   6  445.56   14.40
  -1  -6  -6 1850.01   52.49
   1   6   6 1852.41   51.29
  -2  -6  -6 4387.66  120.29
  -3  -6  -6 3297.67   91.69
  -3  -6  -6 3296.67   90.49
  -4  -6  -6  129.19    7.80
  -4  -6  -6  129.89    8.70
  -5  -6  -6  176.18   10.80
  -5  -6  -6  181.48   10.50
  -6  -6  -6  170.78   12.40
  -6  -6  -6  147.29   11.40
  -4   7   6    2.50    7.20
  -3   7   6  396.06   17.10
  -2   7   6  184.48   10.10
  -1   7   6  189.88    9.00
   0   7   6  979.70   28.80
   1   7   6  604.74   18.30
   1   7   6  591.64   17.60
  -2  -7  -6  128.79    7.30
  -3  -7  -6  327.67   12.90
  -3  -7  -6  323.77   11.90
  -4  -7  -6  192.98    9.10
  -4  -7  -6  161.38    9.60
  -5  -7  -6   33.40    5.90
  -5  -7  -6   31.40    5.80
  -6  -7  -6   45.30    7.30
  -6  -7  -6   32.20    6.70
  -4   8   6   78.29   10.90
  -4   8   6   78.59   10.70
  -3   8   6  312.87   16.30
  -2   8   6  898.11   29.10
  -1   8   6  196.68    9.80
   0   8   6   35.80    4.80
   1   8   6  145.69    7.00
   2   8   6  283.67   10.50
  -3  -8  -6  109.69    6.60
  -4  -8  -6  113.89    8.70
  -4  -8  -6  101.09    7.70
  -5  -8  -6  119.39    9.30
  -5  -8  -6  115.29    9.50
  -6  -8  -6  217.18   14.20
  -6  -8  -6  180.68   12.30
  -4   9   6  105.49   13.10
  -4   9   6  111.79   12.60
  -3   9   6  278.87   16.00
  -2   9   6  232.48   13.10
  -1   9   6    4.60    3.90
   0   9   6   18.10    4.20
   1   9   6  162.88    7.80
   2   9   6  141.99    7.40
  -4  -9  -6  743.33   24.30
  -5  -9  -6  289.37   14.10
  -3  10   6   -5.90    8.20
  -2  10   6  165.08   12.70
  -1  10   6  229.68   12.40
   0  10   6  337.07   13.40
   2  10   6  614.94   19.90
  -4 -10  -6  165.78    9.50
  -5 -10  -6   40.50    6.50
  -2  11   6  297.57   17.30
  -1  11   6  796.52   27.20
   0  11   6  430.26   16.70
   1  11   6  180.68    9.60
   2  11   6  102.59    7.90
   3  11   6   16.10    4.40
  -1  12   6   51.79    8.60
   0  12   6   46.50    7.10
   1  12   6   19.20    5.20
   2  12   6    8.50    4.70
   3  12   6   75.19    8.90
   1  13   6   87.29   10.20
   2  13   6  208.48   12.60
   2   7  -7  267.77   18.30
   2   7  -7  275.67   18.00
   1   7  -7   11.40    6.90
   1   7  -7    6.70    9.50
   0   7  -7  244.78   19.60
  -1   7  -7  332.07   22.90
   3   6  -7  192.28   15.90
   2   6  -7   85.19    9.80
   2   6  -7   97.89   12.30
   1   6  -7  119.09   14.00
   1   6  -7  141.19   11.30
   0   6  -7  351.26   20.10
  -1   6  -7  287.97   19.50
  -2   6  -7    1.90    9.80
  -3   6  -7   37.80   13.00
   4   5  -7  234.18   16.40
  -4  -5   7  207.38   13.00
   3   5  -7   66.89    8.80
  -3  -5   7   55.49    6.00
   2   5  -7  302.67   15.00
   2   5  -7  317.57   15.40
  -2  -5   7  318.17   11.10
   1   5  -7    0.30    6.50
   1   5  -7    3.10    4.60
   0   5  -7   15.10    7.10
  -1   5  -7  284.17   17.50
  -2   5  -7  539.35   25.40
  -3   5  -7  469.35   25.30
   4   4  -7   66.79    9.20
  -4  -4   7   67.99    7.80
   3   4  -7  207.88   13.30
  -3  -4   7  221.98   10.80
   2   4  -7   59.89    7.30
   2   4  -7   58.29    6.60
  -2  -4   7   47.90    5.40
   1   4  -7   -3.90    5.30
   1   4  -7    1.30    4.30
   0   4  -7   -4.20    5.70
  -1   4  -7  621.84   24.70
  -2   4  -7  645.24   26.30
  -3   4  -7  138.79   15.00
  -4   4  -7  234.28   20.10
   4   3  -7  157.08   12.50
  -4  -3   7  166.88   11.60
   3   3  -7    2.40    5.20
  -3  -3   7   12.00    4.60
   2   3  -7  512.75   19.00
   2   3  -7  519.75   18.20
  -2  -3   7  530.95   16.90
   1   3  -7  457.05   17.60
   1   3  -7  429.56   16.50
   0   3  -7   64.59    8.70
  -1   3  -7   12.00    5.40
  -2   3  -7   22.80    7.30
  -3   3  -7  233.38   16.20
  -4   3  -7  132.49   15.60
  -5   3  -7   30.10   12.00
   5   2  -7  111.39   13.60
  -5  -2   7  111.09   14.10
   4   2  -7  177.28   12.30
  -4  -2   7  169.68   12.20
   3   2  -7  655.63   22.70
  -3  -2   7  630.94   21.70
   2   2  -7  653.13   20.80
   2   2  -7  652.53   22.40
  -2  -2   7  662.33   20.60
   1   2  -7  858.91   26.90
   1   2  -7  821.22   26.40
   0   2  -7   46.20    5.10
   0   2  -7   38.50    5.70
  -1   2  -7   47.30    6.60
  -2   2  -7  157.38   11.90
  -3   2  -7   11.20    6.20
  -4   2  -7  124.99   14.20
  -5   2  -7  133.69   17.50
   5   1  -7   17.10    7.90
  -5  -1   7   38.40    8.20
   4   1  -7  489.95   19.40
  -4  -1   7  501.45   19.60
   3   1  -7  503.95   18.50
  -3  -1   7  492.65   18.00
   2   1  -7  913.21   28.80
  -2  -1   7  924.91   27.70
   1   1  -7  540.55   17.70
   1   1  -7  543.05   17.90
   1   1  -7  455.55   15.20
  -1  -1   7  538.05   15.80
   0   1  -7  763.02   24.70
   0   1  -7  719.23   23.00
  -1   1  -7  342.07   14.70
  -2   1  -7  112.39    9.80
  -3   1  -7  278.67   15.30
  -4   1  -7  192.48   14.70
  -4   1  -7  191.18    8.10
  -5   1  -7  107.19    9.20
  -5   1  -7  107.89   15.50
   5   0  -7  148.59   12.60
  -5   0   7  139.39   14.30
   4   0  -7    4.20    4.80
  -4   0   7   12.10    5.50
   3   0  -7  109.09    8.40
  -3   0   7  121.49    8.70
   2   0  -7  346.47   13.30
  -2   0   7  338.77   12.60
   1   0  -7 1230.48   35.70
   1   0  -7 1189.58   35.60
  -1   0   7 1218.78   34.50
   0   0  -7  280.57   10.60
   0   0  -7  284.37   11.90
   0   0   7  283.37    8.80
  -1   0  -7  200.68   10.60
  -2   0  -7  718.03   25.00
  -3   0  -7  294.37   14.80
  -3   0  -7  271.97    8.90
  -4   0  -7  288.07   16.30
  -4   0  -7  287.67   10.70
  -5   0  -7   50.59    6.00
  -5   0  -7   48.00   10.00
  -6   0  -7   -2.40    7.20
  -6   0  -7    4.70   10.70
   5  -1  -7   17.40    6.90
  -5   1   7   19.50    8.60
   4  -1  -7    3.80    4.90
  -4   1   7    6.80    5.80
   3  -1  -7   75.89    7.60
  -3   1   7   58.59    7.90
   2  -1  -7  149.69    6.30
   2  -1  -7  163.58    8.50
  -2   1   7  161.78    8.40
   1  -1  -7  456.55   15.30
   1  -1  -7  467.25   15.70
  -1   1   7  458.95   14.60
   0  -1  -7  674.13   21.20
   0  -1  -7  650.33   19.80
   0  -1  -7  605.64   18.00
   0   1   7  647.14   18.70
  -1  -1  -7  792.52   26.40
  -1  -1  -7  825.52   23.90
   1   1   7  786.42   22.70
   1   1   7  844.72   22.60
  -2  -1  -7   81.39    7.30
   2   1   7   82.59    4.80
  -3  -1  -7  162.88   10.70
  -3  -1  -7  152.58    6.00
  -4  -1  -7  489.95   21.20
  -4  -1  -7  506.65   16.50
  -5  -1  -7  333.17   18.40
  -5  -1  -7  333.67   13.80
  -6  -1  -7   26.50    9.80
  -6  -1  -7   34.40    7.10
  -5   2   7   49.10    9.30
   4  -2  -7  153.78   10.50
  -4   2   7  145.29   11.80
   3  -2  -7  129.49    8.60
  -3   2   7  126.99    9.30
   2  -2  -7   29.20    4.30
   2  -2  -7   28.90    3.00
  -2   2   7   33.90    4.60
   1  -2  -7  911.21   26.80
   1  -2  -7  897.71   26.60
  -1   2   7  872.81   26.30
   0  -2  -7  616.54   20.10
   0  -2  -7  617.54   18.90
   0   2   7  626.94   18.30
  -1  -2  -7  199.48    9.50
  -1  -2  -7  200.78    7.10
   1   2   7  158.68    6.70
   1   2   7  195.98    6.20
  -2  -2  -7 1541.05   46.20
  -3  -2  -7  266.97   13.20
  -3  -2  -7  270.77    9.10
  -4  -2  -7  313.57   11.80
  -4  -2  -7  313.37   15.60
  -5  -2  -7  366.96   15.00
  -5  -2  -7  401.46   19.00
  -6  -2  -7  260.17   14.50
  -6  -2  -7  285.17   19.30
  -5   3   7  205.58   16.70
  -4   3   7  585.74   23.00
   3  -3  -7  265.47   12.10
  -3   3   7  282.97   13.20
   2  -3  -7  377.06   13.60
  -2   3   7  363.96   13.70
   1  -3  -7  768.42   23.10
   1  -3  -7  765.22   22.80
  -1   3   7  747.13   23.00
   0  -3  -7  576.74   17.50
   0  -3  -7  578.34   18.80
   0   3   7  575.64   17.30
  -1  -3  -7  617.44   17.80
  -1  -3  -7  606.24   20.20
   1   3   7  603.24   17.60
  -2  -3  -7  393.46   15.40
  -3  -3  -7  262.47    9.20
  -3  -3  -7  257.87   12.80
  -4  -3  -7  144.59    7.60
  -4  -3  -7  145.19   11.10
  -5  -3  -7 1318.27   42.40
  -5  -3  -7 1327.67   39.70
  -6  -3  -7  263.97   17.20
  -6  -3  -7  261.67   14.40
  -5   4   7  170.68   16.40
  -4   4   7  191.28   13.30
  -3   4   7  369.76   15.80
   2  -4  -7   56.49    5.80
  -2   4   7   60.89    6.50
   1  -4  -7  901.61   26.90
   1  -4  -7  896.51   26.80
  -1   4   7  922.51   27.30
   0  -4  -7 1302.77   37.70
   0  -4  -7 1295.87   36.50
   0   4   7 1290.17   36.60
  -1  -4  -7  252.27    8.20
  -1  -4  -7  263.97   10.90
   1   4   7  248.08    8.40
  -2  -4  -7   37.30    4.80
  -3  -4  -7  278.47   10.10
  -3  -4  -7  275.87   12.70
  -4  -4  -7  337.87   12.50
  -4  -4  -7  320.47   14.90
  -5  -4  -7   70.39    7.80
  -5  -4  -7   60.19    8.70
  -6  -4  -7  130.89   12.30
  -6  -4  -7  134.69   14.00
  -5   5   7   21.20   10.20
  -4   5   7  180.38   14.30
  -3   5   7  257.27   13.30
  -2   5   7   11.40    4.10
  -1   5   7   21.00    3.40
   0  -5  -7  572.44   18.60
   0   5   7  584.44   17.90
  -1  -5  -7  613.64   20.30
   1   5   7  629.04   18.50
  -2  -5  -7   78.09    6.40
   2   5   7   85.39    4.60
  -3  -5  -7   56.69    4.40
  -3  -5  -7   61.79    6.90
  -4  -5  -7  354.76   15.40
  -4  -5  -7  347.17   12.90
  -5  -5  -7  163.18   12.10
  -5  -5  -7  162.38   10.00
  -6  -5  -7 1139.39   36.00
  -6  -5  -7 1100.59   36.80
  -4   6   7   11.70    7.00
  -3   6   7  335.17   15.70
  -2   6   7   85.69    8.00
  -1   6   7   18.90    3.80
   0  -6  -7 2123.69   58.59
   0   6   7 2026.90   57.69
  -1  -6  -7 1105.09   30.60
   1   6   7  910.61   28.80
  -2  -6  -7  130.09    8.00
   2   6   7  130.59    5.80
  -3  -6  -7   25.80    4.80
  -3  -6  -7   27.50    3.50
  -4  -6  -7  320.27   14.30
  -4  -6  -7  329.47   12.60
  -5  -6  -7  110.19   10.00
  -5  -6  -7  123.09    9.10
  -6  -6  -7  236.28   14.50
  -6  -6  -7  241.78   14.20
  -4   7   7   19.00    8.30
  -3   7   7  158.58   12.20
  -2   7   7  581.24   20.70
  -1   7   7  317.57   12.80
   0   7   7  315.47   11.60
  -1  -7  -7  873.21   27.30
   1   7   7  892.61   26.10
  -2  -7  -7  922.21   28.60
   2   7   7  919.21   27.00
  -3  -7  -7 2330.77   65.09
  -3  -7  -7 2340.57   66.69
  -4  -7  -7  159.18    8.60
  -4  -7  -7  167.28   10.30
  -5  -7  -7  143.59   10.30
  -5  -7  -7  117.99    9.30
  -6  -7  -7   23.70    6.40
  -6  -7  -7   24.20    7.00
  -4   8   7   95.29   11.60
  -4   8   7   94.59   11.90
  -3   8   7   94.89   11.80
  -2   8   7  147.89   10.50
  -1   8   7    2.10    3.70
   0   8   7  394.66   14.20
   1   8   7 1594.84   45.30
  -2  -8  -7 1070.79   33.00
   2   8   7 1079.79   31.50
  -3  -8  -7    4.90    2.80
  -3  -8  -7    4.90    4.10
  -4  -8  -7   58.09    7.90
  -4  -8  -7   48.80    5.30
  -5  -8  -7   28.10    5.70
  -5  -8  -7   30.30    6.30
  -6  -8  -7  121.79   11.80
  -6  -8  -7   89.39    9.50
  -3   9   7   35.70    8.60
  -2   9   7   73.59    8.10
  -1   9   7   52.69    6.10
   0   9   7   10.00    3.70
   1   9   7   78.19    6.10
   2   9   7    2.10    2.90
  -4  -9  -7  489.35   17.50
  -5  -9  -7  372.66   16.00
  -3  10   7  118.59   15.00
  -2  10   7  255.37   15.00
  -1  10   7    4.80    5.30
   0  10   7  203.08   10.50
   1  10   7   55.39    6.10
   2  10   7  563.34   18.70
   3  10   7  643.44   21.10
  -4 -10  -7  367.36   14.60
  -5 -10  -7   64.19    7.50
  -2  11   7   30.80    8.70
  -1  11   7   78.89    8.50
   0  11   7  217.68   12.00
   1  11   7  389.06   15.00
   2  11   7   38.40    5.00
   3  11   7   78.09    7.60
  -1  12   7  456.15   20.40
   0  12   7  449.86   18.60
   1  12   7   95.59    9.40
   2  12   7   27.50    5.70
   3  12   7   18.00    5.10
   1  13   7   97.79   11.00
   2  13   7  105.49   10.60
   2   6  -8  173.68   15.90
   2   6  -8  200.38   15.60
   1   6  -8   92.49   11.60
   1   6  -8   97.29   12.30
   0   6  -8   62.29   11.50
  -1   6  -8  147.59   18.60
  -2   6  -8   37.40   12.70
   3   5  -8   66.19   10.50
   2   5  -8  101.89   11.90
   2   5  -8   69.39    9.20
   1   5  -8   90.09   10.60
   1   5  -8   64.79    9.50
   0   5  -8  244.18   16.70
  -1   5  -8  574.94   26.40
  -2   5  -8   61.59   11.40
  -3   5  -8  197.58   21.50
   3   4  -8   62.59    8.50
  -3  -4   8   59.89    6.30
   2   4  -8  168.98   11.90
   2   4  -8  191.88   12.80
  -2  -4   8  191.58    8.20
   1   4  -8  332.17   15.40
   1   4  -8  338.47   16.40
   0   4  -8   82.09   11.60
   0   4  -8   89.59    9.20
  -1   4  -8   73.29    9.90
  -2   4  -8  112.99   15.50
  -3   4  -8  297.87   21.30
  -4   4  -8  189.18   21.80
   4   3  -8  112.49   13.40
  -4  -3   8   99.89   11.70
   3   3  -8   77.39    8.90
  -3  -3   8  106.79    8.90
   2   3  -8   37.60    6.30
   2   3  -8   56.29    7.10
  -2  -3   8   51.29    5.90
   1   3  -8    8.30    4.70
   1   3  -8   17.70    5.70
   0   3  -8   32.80    6.60
   0   3  -8   23.10    4.70
  -1   3  -8  427.76   19.70
  -2   3  -8 1968.30   61.39
  -3   3  -8  689.43   29.00
  -4   3  -8  146.49   17.80
   4   2  -8  163.28   13.40
  -4  -2   8  179.78   12.90
   3   2  -8   63.59    7.20
  -3  -2   8   57.99    6.40
   2   2  -8   -2.70    4.50
   2   2  -8   -0.90    4.20
  -2  -2   8    3.80    3.40
   1   2  -8   86.19    7.60
   1   2  -8   75.89    8.70
   0   2  -8  632.14   23.00
   0   2  -8  617.34   21.10
  -1   2  -8 1257.87   40.70
  -2   2  -8  149.19   12.40
  -3   2  -8   79.89   11.50
  -4   2  -8  142.89   15.90
  -5   2  -8  101.39   14.30
   4   1  -8  139.79   11.90
  -4  -1   8  162.88   12.70
   3   1  -8  620.14   22.20
  -3  -1   8  603.14   21.20
   2   1  -8 1133.79   35.50
   2   1  -8 1150.18   33.90
  -2  -1   8 1173.28   34.10
   1   1  -8  445.36   17.00
   1   1  -8  496.05   17.90
  -1  -1   8  481.05   14.70
   0   1  -8   14.00    3.70
   0   1  -8   16.30    4.40
  -1   1  -8  364.36   16.30
  -2   1  -8  105.29   10.70
  -3   1  -8  161.28   13.50
  -4   1  -8  139.09   14.90
  -5   1  -8   24.50   10.80
   5   0  -8  189.08   15.00
  -5   0   8  196.68   16.70
   4   0  -8  516.45   20.60
  -4   0   8  537.55   21.30
   3   0  -8  784.02   26.20
  -3   0   8  780.52   25.80
   2   0  -8  599.34   20.80
   2   0  -8  603.94   19.10
  -2   0   8  614.24   20.00
   1   0  -8   22.60    4.40
   1   0  -8   26.90    4.60
  -1   0   8   32.80    4.20
   0   0  -8  397.36   14.40
   0   0  -8  420.86   16.30
  -1   0  -8   53.09    7.60
  -1   0  -8   37.50    4.40
  -2   0  -8  104.69    9.80
  -3   0  -8  118.49   11.40
  -4   0  -8  164.08    7.30
  -4   0  -8  173.88   14.40
  -5   0  -8  236.98   18.10
  -5   0  -8  232.18   10.80
   5  -1  -8  130.29   13.50
  -5   1   8  172.68   16.50
   4  -1  -8  129.19   10.80
  -4   1   8  141.49   12.50
   3  -1  -8    2.30    4.80
  -3   1   8    0.10    4.70
   2  -1  -8   25.30    4.60
   2  -1  -8   27.80    3.50
  -2   1   8   39.30    5.00
   1  -1  -8  888.31   27.40
   1  -1  -8  881.01   27.30
  -1   1   8  894.01   26.30
   0  -1  -8 1822.42   53.59
   0  -1  -8 1876.01   52.09
   0   1   8 1817.12   50.59
  -1  -1  -8   62.79    7.10
  -1  -1  -8   72.09    5.30
  -2  -1  -8  400.36   17.20
  -3  -1  -8  233.38    7.70
  -3  -1  -8  225.18   13.70
  -4  -1  -8  480.35   21.20
  -4  -1  -8  466.85   15.20
  -5  -1  -8  349.37   20.60
  -5  -1  -8  360.16   14.00
  -5   2   8  105.29   12.10
   4  -2  -8    8.00    5.50
  -4   2   8   -1.90    6.80
   3  -2  -8  119.29    8.90
  -3   2   8  114.39   10.10
   2  -2  -8  787.22   23.20
   2  -2  -8  795.82   25.10
  -2   2   8  778.62   25.10
   1  -2  -8 2776.62   76.99
   1  -2  -8 2756.62   76.89
  -1   2   8 2776.52   76.49
   0  -2  -8  696.33   23.10
   0  -2  -8  714.43   21.70
   0   2   8  704.53   20.80
  -1  -2  -8  792.32   23.50
  -1  -2  -8  768.12   26.00
   1   2   8  812.62   22.40
  -2  -2  -8 1139.29   37.30
  -2  -2  -8 1194.08   33.70
   2   2   8 1218.78   32.70
  -3  -2  -8  530.95   15.60
  -3  -2  -8  514.05   20.80
  -4  -2  -8    5.20    3.20
  -4  -2  -8   11.00    6.80
  -5  -2  -8  241.58   16.50
  -5  -2  -8  222.58   11.00
  -6  -2  -8   95.19   11.00
  -6  -2  -8  114.49   13.80
  -5   3   8   14.60    9.20
   4  -3  -8  148.69   10.90
  -4   3   8  131.09   12.70
   3  -3  -8  667.93   22.70
  -3   3   8  668.93   23.80
   2  -3  -8  368.26   14.40
  -2   3   8  395.66   14.90
   1  -3  -8  276.57   11.10
   1  -3  -8  290.37   11.10
  -1   3   8  289.17   11.00
   0  -3  -8 1656.03   46.40
   0  -3  -8 1653.83   47.90
   0   3   8 1632.04   46.00
  -1  -3  -8   15.30    4.20
  -1  -3  -8   14.20    2.40
   1   3   8   17.30    2.10
  -2  -3  -8  185.88    6.80
  -2  -3  -8  173.68   10.50
   2   3   8  186.98    6.40
  -3  -3  -8  314.97   10.30
  -3  -3  -8  289.17   14.80
  -4  -3  -8  108.89    6.40
  -4  -3  -8   96.39   10.80
  -5  -3  -8   29.70    5.00
  -5  -3  -8   43.70    8.90
  -6  -3  -8   22.50    8.90
  -6  -3  -8   -0.40    6.10
  -5   4   8  424.36   23.40
  -4   4   8  140.19   13.60
   3  -4  -8   32.20    5.30
  -3   4   8   30.10    5.70
   2  -4  -8   51.09    6.40
  -2   4   8   61.99    7.20
   1  -4  -8  203.48    9.10
   1  -4  -8  234.38    9.20
  -1   4   8  192.38    9.20
   0  -4  -8  245.18    9.20
   0  -4  -8  245.08   10.80
   0   4   8  246.28    9.20
  -1  -4  -8   16.30    3.60
  -1  -4  -8   11.80    2.20
   1   4   8   12.70    2.10
  -2  -4  -8    0.40    3.80
   2   4   8    3.10    1.70
  -3  -4  -8  712.63   25.50
  -3  -4  -8  746.83   21.80
  -4  -4  -8  124.19    7.00
  -4  -4  -8  123.39   10.80
  -5  -4  -8  150.18   12.90
  -5  -4  -8  113.59    8.90
  -6  -4  -8  294.87   18.10
  -6  -4  -8  286.97   15.10
  -4   5   8   -3.00    6.70
  -3   5   8   78.59    9.90
  -2   5   8   71.19    7.80
   1  -5  -8   47.80    5.50
   1  -5  -8   45.10    4.70
  -1   5   8   59.49    5.90
   0  -5  -8 1058.49   30.60
   0  -5  -8 1031.90   31.90
   0   5   8 1101.99   31.20
  -1  -5  -8  647.74   18.40
  -1  -5  -8  624.94   21.10
   1   5   8  627.14   19.00
  -2  -5  -8  123.19    8.40
   2   5   8  129.09    5.90
  -3  -5  -8  185.08    7.60
  -3  -5  -8  174.88   10.90
  -4  -5  -8  743.93   26.30
  -4  -5  -8  738.83   23.20
  -5  -5  -8  692.23   25.90
  -5  -5  -8  678.23   22.80
  -6  -5  -8  404.16   17.30
  -6  -5  -8  379.06   19.90
  -4   6   8   29.20    8.90
  -3   6   8  388.96   17.40
  -2   6   8  475.35   18.00
  -1   6   8  346.17   13.50
   0  -6  -8  348.57   13.00
   0   6   8  338.37   12.30
  -1  -6  -8  586.84   19.70
   1   6   8  574.94   17.80
  -2  -6  -8   84.19    7.20
   2   6   8   84.89    5.00
  -3  -6  -8  717.73   24.80
  -3  -6  -8  738.93   22.10
  -4  -6  -8  451.75   15.90
  -4  -6  -8  467.95   18.50
  -5  -6  -8   65.49    8.40
  -5  -6  -8   56.79    7.70
  -6  -6  -8  369.26   17.00
  -6  -6  -8  348.67   18.30
  -4   7   8  182.58   16.50
  -3   7   8   71.49    9.30
  -2   7   8  625.84   22.40
  -1   7   8  148.89    9.10
   0   7   8  295.87   11.40
  -1  -7  -8  394.86   14.70
   1   7   8  372.66   13.00
  -2  -7  -8  151.18    9.30
   2   7   8  149.39    7.00
  -3  -7  -8   25.80    5.50
  -4  -7  -8   28.40    5.80
  -4  -7  -8   22.70    4.00
  -5  -7  -8  195.88   12.60
  -5  -7  -8  170.48   10.60
  -6  -7  -8  130.89   11.60
  -6  -7  -8  155.98   13.10
  -4   8   8   80.29   12.80
  -3   8   8   13.90    7.70
  -2   8   8   22.00    5.70
  -1   8   8  245.48   11.80
   0   8   8  425.46   15.20
   1   8   8  501.95   16.60
  -2  -8  -8    4.40    3.90
   2   8   8   12.80    3.20
  -3  -8  -8    4.90    4.50
  -4  -8  -8   98.59    7.50
  -4  -8  -8  111.79    9.40
  -5  -8  -8   29.00    6.80
  -5  -8  -8   29.40    5.40
  -3   9   8   44.30    8.90
  -2   9   8  180.48   12.70
  -1   9   8  123.59    9.70
   0   9   8   89.89    7.90
   1   9   8  412.56   14.50
   2   9   8 1192.68   35.00
  -3  -9  -8  323.77   14.30
   3   9   8  312.37   12.20
  -4  -9  -8   10.30    4.20
  -4  -9  -8   12.50    5.40
  -5  -9  -8    0.40    6.40
  -5  -9  -8    1.30    5.00
  -3  10   8   88.89   13.20
  -2  10   8   34.70    8.50
  -1  10   8   64.49    7.60
   0  10   8  211.28   11.00
   1  10   8  763.12   24.30
   2  10   8  341.67   13.30
   3  10   8  186.58    9.70
  -5 -10  -8  110.39   10.40
  -2  11   8    2.50    8.40
  -1  11   8   37.80    7.50
   0  11   8   75.79    8.90
   1  11   8    2.60    4.10
   2  11   8   73.89    7.60
   3  11   8  492.45   17.90
   4  11   8  499.25   18.60
  -1  12   8   -1.40    7.90
   0  12   8   49.00    7.70
   1  12   8  180.88   11.30
   2  12   8  387.76   15.80
   3  12   8   56.89    7.10
   2   5  -9   57.29    9.90
   2   5  -9   44.70   12.20
   1   5  -9  124.69   15.70
   1   5  -9  178.98   13.90
   0   5  -9  104.89   12.40
   0   5  -9  110.59   13.20
  -1   5  -9  215.08   19.20
  -2   5  -9   76.79   13.50
   3   4  -9  126.39   15.40
   2   4  -9  302.17   16.60
   2   4  -9  271.97   15.60
   1   4  -9  200.28   15.20
   1   4  -9  224.38   13.70
   0   4  -9   99.09   10.70
   0   4  -9  107.29   13.70
  -1   4  -9   19.10    9.10
  -2   4  -9   92.49   14.00
  -3   4  -9  -19.70   11.10
   3   3  -9   97.19   12.50
  -3  -3   9   97.89    9.50
   2   3  -9    3.00    5.80
   2   3  -9   -2.10    5.70
   1   3  -9  117.99   12.00
   1   3  -9  125.09   10.40
   0   3  -9  173.08   11.10
   0   3  -9  156.78   13.40
  -1   3  -9  164.68   14.50
  -2   3  -9    7.50    8.20
  -3   3  -9   13.00    9.90
   4   2  -9   75.79   10.30
  -4  -2   9   78.79    9.30
   3   2  -9   15.00    6.80
  -3  -2   9   28.10    5.60
   2   2  -9   72.89    8.20
   2   2  -9   69.99    7.90
  -2  -2   9   70.79    7.10
   1   2  -9   91.89    9.10
   1   2  -9  108.59   10.70
   0   2  -9  417.96   16.40
   0   2  -9  412.36   18.50
  -1   2  -9  362.06   18.00
  -2   2  -9  787.62   30.40
  -3   2  -9  467.05   23.20
  -4   2  -9  122.79   17.30
   4   1  -9  108.79   12.80
  -4  -1   9   93.49   12.50
   3   1  -9  383.56   16.80
  -3  -1   9  338.27   15.30
   2   1  -9  229.38   11.00
   2   1  -9  223.38   12.40
  -2  -1   9  220.98   10.70
   1   1  -9  285.67   13.30
   1   1  -9  290.17   13.60
  -1  -1   9  313.57   10.40
   0   1  -9  190.78   10.30
   0   1  -9  196.18   12.20
  -1   1  -9 2028.30   61.79
  -1   1  -9 2070.69   58.89
  -2   1  -9 1587.74   50.59
  -3   1  -9   40.00    8.80
  -4   1  -9   34.20   10.00
   4   0  -9  486.25   20.80
  -4   0   9  481.95   20.90
   3   0  -9  100.99   10.70
  -3   0   9   91.59    9.90
   2   0  -9  149.29   10.20
   2   0  -9  154.98    8.80
  -2   0   9  158.98    9.30
   1   0  -9  262.27   12.00
   1   0  -9  260.87   12.60
  -1   0   9  254.37    9.70
   0   0  -9  432.56   15.90
   0   0  -9  438.06   17.70
  -1   0  -9   17.20    4.00
  -1   0  -9   15.10    5.90
  -2   0  -9    6.40    5.60
  -3   0  -9   72.29    9.70
  -4   0  -9  227.58   17.50
  -5   0  -9  307.17   21.40
   4  -1  -9  182.38   13.40
  -4   1   9  183.68   14.40
   3  -1  -9  266.57   13.60
  -3   1   9  273.37   14.10
   2  -1  -9    8.80    4.50
   2  -1  -9    2.40    3.60
  -2   1   9    4.70    4.00
   1  -1  -9    4.10    3.50
   1  -1  -9    4.80    4.50
  -1   1   9    2.90    2.90
   0  -1  -9  793.62   26.30
   0  -1  -9  796.72   24.80
   0   1   9  774.52   22.80
  -1  -1  -9  193.58   11.50
  -1  -1  -9  181.58    8.80
  -2  -1  -9  769.92   28.40
  -2  -1  -9  819.82   24.70
  -3  -1  -9  955.80   33.80
  -4  -1  -9  208.38    8.10
  -4  -1  -9  194.98   15.50
  -5  -1  -9  241.78   10.40
  -5  -1  -9  223.88   18.80
   4  -2  -9  128.09   12.00
  -4   2   9  128.69   14.10
   3  -2  -9  340.27   15.50
  -3   2   9  386.46   16.40
   2  -2  -9   17.70    5.00
   2  -2  -9   16.50    4.00
   1  -2  -9   97.59    7.30
  -1   2   9   86.59    6.70
   0  -2  -9  700.83   21.80
   0  -2  -9  668.13   23.10
   0   2   9  686.03   20.50
  -1  -2  -9  824.02   27.30
  -1  -2  -9  792.42   24.30
   1   2   9  781.72   22.80
  -2  -2  -9  779.02   28.80
  -2  -2  -9  873.81   25.10
   2   2   9  855.61   23.60
  -3  -2  -9  478.95   20.70
   3   2   9  492.85   14.40
  -4  -2  -9   12.20    7.70
  -4  -2  -9   14.80    3.60
  -5  -2  -9   94.19    7.60
  -5  -2  -9  102.99   12.00
   4  -3  -9    8.10    5.90
  -4   3   9  -11.60    7.50
   3  -3  -9  546.85   20.00
  -3   3   9  538.75   21.00
   2  -3  -9 1087.29   34.00
   2  -3  -9 1132.49   32.30
  -2   3   9 1090.49   34.00
   1  -3  -9 3587.24   98.49
   1  -3  -9 3476.75   98.39
  -1   3   9 3632.94   98.29
   0  -3  -9 1802.22   49.99
   0  -3  -9 1727.33   51.39
   0   3   9 1746.13   49.30
  -1  -3  -9    2.50    4.20
  -1  -3  -9    4.30    2.80
   1   3   9    5.50    2.00
  -2  -3  -9    6.10    2.40
  -2  -3  -9   11.50    4.80
   2   3   9   10.00    1.90
  -3  -3  -9  586.74   23.10
  -4  -3  -9  128.99    6.90
  -4  -3  -9  122.89   12.50
  -5  -3  -9   11.80    4.40
  -5  -3  -9   21.50    8.70
  -4   4   9   71.59    9.90
   3  -4  -9  897.51   29.50
  -3   4   9  915.21   30.90
   2  -4  -9 1839.02   52.69
  -2   4   9 1796.12   53.19
   1  -4  -9   94.09    7.40
   1  -4  -9   98.49    7.30
  -1   4   9  119.59    7.60
   0  -4  -9  154.18    8.70
   0  -4  -9  139.09    7.60
   0   4   9  146.29    7.60
  -1  -4  -9  103.69    8.40
  -1  -4  -9  112.69    5.60
   1   4   9  111.69    5.50
  -2  -4  -9    4.90    4.20
   2   4   9    9.20    2.20
  -3  -4  -9  233.88   13.50
  -4  -4  -9  147.59    7.50
  -4  -4  -9  138.39   12.70
  -5  -4  -9  173.08   15.10
  -5  -4  -9  155.48    9.30
  -6  -4  -9  115.59   16.40
  -4   5   9   28.30    9.30
  -3   5   9   21.00    6.50
   2  -5  -9   66.19    7.70
  -2   5   9   51.49    6.80
   1  -5  -9    8.80    3.40
   1  -5  -9    8.40    3.50
  -1   5   9   14.30    4.00
   0  -5  -9  473.45   15.20
   0  -5  -9  457.95   16.60
   0   5   9  446.96   15.30
  -1  -5  -9  707.43   23.80
  -1  -5  -9  725.53   20.90
   1   5   9  693.33   21.20
  -2  -5  -9   45.10    6.50
   2   5   9   51.49    4.30
  -3  -5  -9  199.08   12.50
  -4  -5  -9  730.23   26.70
  -4  -5  -9  711.43   22.40
  -5  -5  -9  123.89   13.70
  -5  -5  -9  111.59    8.70
  -6  -5  -9  222.58   13.00
  -6  -5  -9  212.08   17.60
  -4   6   9   95.69   12.30
  -3   6   9  234.78   15.10
  -2   6   9  378.86   16.00
  -1   6   9  375.66   14.60
   0  -6  -9  159.28    8.80
   0   6   9  158.68    8.30
  -1  -6  -9  287.37   12.60
   1   6   9  292.57   10.60
  -2  -6  -9  383.96   15.80
   2   6   9  383.06   12.80
  -3  -6  -9  510.15   19.80
   3   6   9  513.45   16.30
  -4  -6  -9  223.08   10.00
  -4  -6  -9  240.28   13.50
  -5  -6  -9  136.39    9.40
  -5  -6  -9  123.29   13.10
  -4   7   9   98.99   12.60
  -3   7   9  128.69   13.10
  -2   7   9  281.77   14.20
  -1   7   9  292.97   13.00
   0  -7  -9  261.97   11.70
   0   7   9  253.97   11.10
  -1  -7  -9  347.37   14.10
   1   7   9  335.67   12.20
  -2  -7  -9   81.39    7.90
   2   7   9   69.99    5.40
  -3  -7  -9   18.10    5.10
  -4  -7  -9  534.95   17.90
  -4  -7  -9  522.45   20.90
  -5  -7  -9  156.58   13.40
  -5  -7  -9  161.78   10.40
  -3   8   9   83.19   10.50
  -2   8   9   34.40    7.10
  -1   8   9  145.39   10.00
   0   8   9  197.28   10.20
  -1  -8  -9  154.08    9.50
   1   8   9  157.38    8.10
  -2  -8  -9   64.59    7.90
   2   8   9   77.29    6.00
  -3  -8  -9  171.48   10.90
   3   8   9  178.08    8.50
  -4  -8  -9   59.69    7.60
  -4  -8  -9   69.49    6.80
  -5  -8  -9  277.67   13.00
  -5  -8  -9  261.27   15.00
  -3   9   9   75.29   11.00
  -2   9   9  135.69   13.00
  -1   9   9  116.99   10.30
   0   9   9   88.39    8.00
   1   9   9  295.67   11.90
  -2  -9  -9  176.38   10.80
   2   9   9  174.58    8.90
  -3  -9  -9   -1.30    4.80
   3   9   9    4.20    3.80
  -4  -9  -9  121.79   11.10
  -5  -9  -9  146.59   12.80
  -5  -9  -9  130.29    9.90
  -2  10   9  119.59   13.60
  -1  10   9  243.38   13.80
   0  10   9  253.57   12.90
   1  10   9   93.49    7.80
   2  10   9    3.90    4.10
   3  10   9   76.79    7.40
   4  10   9   72.79    8.40
  -1  11   9   32.20    8.00
   0  11   9   56.49    7.40
   1  11   9  332.37   14.30
   2  11   9  358.56   14.60
   3  11   9  -11.50    4.50
   4  11   9   20.40    6.50
   0  12   9  132.09   13.10
   1  12   9  551.14   20.70
   2  12   9  343.87   14.80
   3  12   9   87.09    9.70
   1   4 -10  122.19   13.60
   1   4 -10  116.29   15.30
   0   4 -10   18.50    9.80
   0   4 -10   25.60    7.40
  -1   4 -10   46.30    8.90
  -1   4 -10   51.69   12.00
  -2   4 -10   59.99   13.10
   2   3 -10   30.50    8.30
   2   3 -10   17.80    8.70
   1   3 -10   57.79    8.00
   1   3 -10   62.99    9.80
   0   3 -10  223.28   16.20
   0   3 -10  206.38   13.00
  -1   3 -10   81.89   11.50
  -1   3 -10   85.09    9.00
  -2   3 -10    4.80    9.80
  -3   3 -10   31.30   11.80
   3   2 -10   92.89   10.60
  -3  -2  10   80.99   10.40
   2   2 -10   78.29   10.50
   2   2 -10   72.79    9.00
   1   2 -10  208.08   14.20
   1   2 -10  212.88   13.30
   0   2 -10   76.79    9.20
   0   2 -10   59.49    8.80
  -1   2 -10  215.98   15.80
  -1   2 -10  206.48   12.40
  -2   2 -10  348.97   20.50
  -3   2 -10   28.50   10.00
   3   1 -10  133.99   13.30
  -3  -1  10   85.19   11.10
   2   1 -10  200.28   12.60
   2   1 -10  186.38   11.30
  -2  -1  10  187.08   11.10
   1   1 -10  248.98   13.20
   1   1 -10  246.78   13.60
   0   1 -10  360.66   15.20
   0   1 -10  353.96   17.60
  -1   1 -10  264.37   16.00
  -1   1 -10  245.68   12.40
  -2   1 -10  126.99   14.20
  -3   1 -10   35.90   10.50
  -4   1 -10   13.60   10.60
   3   0 -10  145.09   12.70
  -3   0  10  149.09   11.90
   2   0 -10   43.80    6.70
   2   0 -10   44.10    6.80
  -2   0  10   48.70    5.60
   1   0 -10  603.74   21.30
   1   0 -10  592.44   21.60
  -1   0  10  585.84   18.50
   0   0 -10  368.16   17.10
   0   0 -10  389.26   15.40
  -1   0 -10    9.70    6.40
  -1   0 -10   -0.50    4.20
  -2   0 -10  221.28   11.40
  -2   0 -10  198.08   15.00
  -3   0 -10   19.50    8.50
  -4   0 -10   44.10   12.20
   4  -1 -10  181.88   15.20
  -4   1  10  194.18   15.90
   3  -1 -10  229.78   13.50
  -3   1  10  234.58   13.60
   2  -1 -10    0.40    5.10
   2  -1 -10    6.70    4.80
  -2   1  10    7.60    4.80
   1  -1 -10   -1.10    4.20
   1  -1 -10    3.10    4.50
  -1   1  10   -3.50    3.50
   0  -1 -10  305.67   14.80
   0  -1 -10  314.57   13.40
   0   1  10  303.67   10.50
  -1  -1 -10  579.24   19.30
  -1  -1 -10  556.94   22.60
  -2  -1 -10  203.98   10.30
  -2  -1 -10  193.58   14.10
  -3  -1 -10  160.18   14.50
  -4  -1 -10    9.60    8.30
  -5  -1 -10  370.86   23.80
   4  -2 -10   19.50    7.60
  -4   2  10   25.90    8.90
   3  -2 -10  192.78   12.70
  -3   2  10  213.38   13.90
   2  -2 -10    7.90    4.70
   2  -2 -10    3.30    4.70
  -2   2  10    2.30    4.80
   1  -2 -10   27.60    5.10
   1  -2 -10   28.10    5.10
  -1   2  10   28.40    5.10
   0  -2 -10  451.55   16.40
   0  -2 -10  467.55   18.00
   0   2  10  443.46   14.70
  -1  -2 -10  122.49    7.60
  -1  -2 -10  111.59   10.70
   1   2  10  126.39    5.80
  -2  -2 -10  639.54   24.60
  -2  -2 -10  662.23   20.80
   2   2  10  630.14   18.60
  -3  -2 -10 1560.64   43.70
  -3  -2 -10 1503.95   49.00
   3   2  10 1480.65   41.60
  -4  -2 -10  534.45   24.50
  -5  -2 -10   22.10   10.00
   4  -3 -10    6.60    7.00
  -4   3  10    6.00    9.00
   3  -3 -10  214.38   12.80
  -3   3  10  205.78   14.30
   2  -3 -10  483.75   17.00
   2  -3 -10  487.75   18.60
  -2   3  10  492.15   18.80
   1  -3 -10    6.90    4.70
   1  -3 -10   10.30    4.30
  -1   3  10   10.30    3.80
   0  -3 -10    7.70    4.70
   0  -3 -10    5.00    3.90
   0   3  10    9.60    3.30
  -1  -3 -10  552.24   21.30
  -1  -3 -10  580.04   18.70
   1   3  10  549.85   17.20
  -2  -3 -10  410.26   18.40
  -2  -3 -10  411.96   14.10
   2   3  10  417.06   12.90
  -3  -3 -10  730.83   28.20
  -3  -3 -10  754.92   22.60
   3   3  10  769.22   21.90
  -4  -3 -10   25.90    9.10
  -5  -3 -10   13.60    9.70
  -5  -3 -10    9.20    4.40
  -4   4  10  170.08   17.00
   3  -4 -10  363.76   16.60
  -3   4  10  386.26   18.50
   2  -4 -10  177.28   10.60
  -2   4  10  166.98   11.70
   1  -4 -10   14.40    4.50
   1  -4 -10   13.40    4.50
  -1   4  10   15.00    4.20
   0  -4 -10  442.86   16.70
   0  -4 -10  447.36   15.10
   0   4  10  391.16   14.70
  -1  -4 -10  204.58    8.80
  -1  -4 -10  185.38   11.70
   1   4  10  205.68    8.40
  -2  -4 -10   39.40    4.70
  -2  -4 -10   27.90    6.10
   2   4  10   35.90    4.30
  -3  -4 -10   46.00    7.70
   3   4  10   49.50    4.60
  -4  -4 -10  163.68   14.00
  -5  -4 -10   17.70    8.80
  -5  -4 -10   -2.90    4.10
  -4   5  10  107.09   13.00
  -3   5  10  162.58   14.60
   2  -5 -10 1066.09   33.20
  -2   5  10 1065.99   34.10
   1  -5 -10  486.25   17.50
   1  -5 -10  511.65   17.70
  -1   5  10  491.35   18.10
   0  -5 -10   35.90    5.60
   0  -5 -10   29.70    4.40
   0   5  10   41.30    4.70
  -1  -5 -10    8.20    3.10
  -1  -5 -10    9.30    4.70
   1   5  10   11.70    3.10
  -2  -5 -10   50.59    7.00
   2   5  10   54.79    4.60
  -3  -5 -10  522.95   21.30
   3   5  10  526.35   16.50
  -4  -5 -10  269.17   15.80
  -5  -5 -10  106.49    8.60
  -5  -5 -10  108.79   14.60
  -3   6  10  170.58   14.10
  -2   6  10  509.15   20.20
  -1   6  10   99.19    9.10
   0  -6 -10   81.49    7.80
   0   6  10   89.79    7.40
  -1  -6 -10  410.96   16.20
   1   6  10  371.56   13.60
  -2  -6 -10  800.62   27.20
   2   6  10  784.22   23.80
  -3  -6 -10  251.47   13.90
   3   6  10  245.88    9.80
  -4  -6 -10  554.44   22.90
  -5  -6 -10  202.88   15.70
  -5  -6 -10  192.68   10.70
  -3   7  10   37.60    9.20
  -2   7  10    4.70    6.20
  -1   7  10  775.12   25.90
   0  -7 -10  777.02   25.30
   0   7  10  756.92   24.60
  -1  -7 -10  274.87   12.90
   1   7  10  258.27   10.90
  -2  -7 -10    1.30    4.80
   2   7  10    5.50    3.10
  -3  -7 -10  268.57   14.10
   3   7  10  256.87   10.50
  -4  -7 -10  315.47   16.60
  -5  -7 -10  178.28   14.90
  -5  -7 -10  199.98   10.70
  -3   8  10    5.30    9.20
  -2   8  10  239.48   14.70
  -1   8  10  128.49   10.50
   0   8  10   47.70    5.90
  -1  -8 -10   73.19    8.30
   1   8  10   60.59    6.60
  -2  -8 -10  248.48   13.00
   2   8  10  264.07   10.60
  -3  -8 -10   34.50    6.30
   3   8  10   35.40    4.50
  -4  -8 -10   65.89    8.10
   4   8  10   65.39    7.50
  -5  -8 -10   58.29    6.80
  -5  -8 -10   58.09    8.90
  -2   9  10   28.70    8.10
  -1   9  10   17.00    6.20
   0   9  10   85.29    9.20
   1   9  10  319.67   13.00
  -2  -9 -10   18.70    6.00
   2   9  10   25.00    4.40
  -3  -9 -10   88.49   10.10
   3   9  10   97.49    7.60
  -4  -9 -10  124.79   11.90
   4   9  10  138.19    8.80
  -5  -9 -10   43.70    8.70
  -2  10  10   74.79   10.50
  -1  10  10  328.17   16.70
   0  10  10  187.28   11.70
   1  10  10   23.30    5.70
   2  10  10   64.49    7.50
  -3 -10 -10   11.40    6.70
   3  10  10   16.90    4.50
  -4 -10 -10  212.28   14.40
   4  10  10  235.08   11.70
  -1  11  10   61.59    9.40
   0  11  10    1.10    6.50
   1  11  10  225.28   12.40
   2  11  10   90.79    8.70
   3  11  10    5.50    4.80
   0  12  10   63.19    9.60
   1  12  10   47.50    8.00
   2  12  10  350.76   15.50
   1   3 -11  263.77   18.50
   1   3 -11  240.58   17.30
   0   3 -11  145.89   14.00
   0   3 -11  146.39   17.30
  -1   3 -11   -4.90    7.00
  -1   3 -11   -6.00    9.60
   2   2 -11  121.09   14.30
   1   2 -11   42.90    8.90
   1   2 -11   60.39    8.90
   0   2 -11   24.90    9.20
   0   2 -11   18.70    7.10
  -1   2 -11  192.08   13.10
  -1   2 -11  165.68   17.00
  -2   2 -11  170.28   18.00
  -2   2 -11  139.49   13.10
   2   1 -11   -1.20    7.00
   1   1 -11  257.77   16.00
   1   1 -11  279.07   14.60
   0   1 -11  524.15   22.70
   0   1 -11  516.35   20.70
  -1   1 -11    3.00    8.30
  -1   1 -11    8.80    5.90
  -2   1 -11  145.19   16.40
  -2   1 -11  130.89   11.70
  -3   1 -11  146.99   18.90
   3   0 -11  105.39   13.60
  -3   0  11  120.09   12.10
   2   0 -11   73.49   10.00
   2   0 -11  110.19   11.60
  -2   0  11   86.19    9.30
   1   0 -11  284.47   15.30
   1   0 -11  292.87   15.10
   0   0 -11  209.68   12.50
   0   0 -11  206.68   14.20
  -1   0 -11  135.39   10.60
  -1   0 -11  136.49   13.60
  -2   0 -11   38.10    9.90
  -2   0 -11   30.10    6.10
  -3   0 -11   84.29   12.20
  -4   0 -11    0.60   11.20
   3  -1 -11  358.26   18.00
  -3   1  11  363.36   18.00
   2  -1 -11   25.90    5.70
   2  -1 -11   25.00    6.60
  -2   1  11   36.00    6.20
   1  -1 -11    5.70    5.30
   1  -1 -11   -2.30    5.80
  -1   1  11    8.30    4.50
   0  -1 -11  532.75   22.00
   0  -1 -11  551.74   20.00
  -1  -1 -11  119.39   12.40
  -1  -1 -11  124.29    9.50
  -2  -1 -11   29.50    8.30
  -2  -1 -11   15.70    5.10
  -3  -1 -11   75.79   11.70
  -3  -1 -11   80.09    7.60
  -4  -1 -11   57.79   11.50
   3  -2 -11   69.69    8.80
  -3   2  11   59.39    9.10
   2  -2 -11  130.89    9.20
   2  -2 -11  105.49   10.90
  -2   2  11  134.59   11.20
   1  -2 -11   97.89   10.00
   1  -2 -11  113.89    9.60
  -1   2  11   90.29    8.40
   0  -2 -11   55.69    7.70
   0  -2 -11   59.39    6.70
   0   2  11   64.09    6.30
  -1  -2 -11  344.57   13.90
  -1  -2 -11  333.77   16.80
  -2  -2 -11  130.89    9.10
  -2  -2 -11  119.39   13.00
  -3  -2 -11  392.06   20.70
  -3  -2 -11  409.26   15.00
  -4  -2 -11   99.99   13.00
  -4  -2 -11   86.79    9.60
   3  -3 -11   46.20    7.90
  -3   3  11   38.50    8.50
   2  -3 -11  247.08   11.90
   2  -3 -11  254.87   14.00
  -2   3  11  257.67   13.90
   1  -3 -11    9.90    4.90
   1  -3 -11   13.20    5.10
  -1   3  11    8.10    4.90
   0  -3 -11  564.24   20.00
   0  -3 -11  587.64   21.80
   0   3  11  578.34   19.20
  -1  -3 -11  761.32   24.10
  -1  -3 -11  750.92   27.30
   1   3  11  755.62   22.80
  -2  -3 -11  189.38   14.10
  -2  -3 -11  174.28    9.80
   2   3  11  176.08    7.50
  -3  -3 -11   41.80    5.30
  -3  -3 -11   42.20   10.40
   3   3  11   49.80    4.80
  -4  -3 -11  167.48   16.40
   4   3  11  156.98    7.30
   3  -4 -11   46.40    7.80
  -3   4  11   59.19   10.00
   2  -4 -11  101.29   10.20
  -2   4  11   85.09    8.70
   1  -4 -11  271.97   13.10
   1  -4 -11  262.47   12.40
  -1   4  11  255.77   12.60
   0  -4 -11  100.99    8.40
   0  -4 -11   95.99    9.70
   0   4  11  112.89    7.70
  -1  -4 -11  532.35   21.20
  -1  -4 -11  507.55   17.60
   1   4  11  535.45   17.30
  -2  -4 -11  135.69   12.20
  -2  -4 -11  152.98    8.50
   2   4  11  161.98    7.60
  -3  -4 -11  109.39   12.50
   3   4  11   89.99    5.60
  -4  -4 -11  121.29   14.60
   4   4  11  104.49    6.50
  -5  -4 -11   69.09   12.60
  -3   5  11  145.69   15.00
   2  -5 -11  339.27   15.70
  -2   5  11  353.56   16.70
   1  -5 -11    5.60    4.90
   1  -5 -11    2.60    4.80
  -1   5  11    6.40    5.30
   0  -5 -11   -5.00    4.30
   0  -5 -11    0.10    4.90
   0   5  11    5.00    4.00
  -1  -5 -11  219.38   10.00
  -1  -5 -11  184.08   11.90
   1   5  11  193.38    9.20
  -2  -5 -11  697.73   25.80
   2   5  11  677.83   20.90
  -3  -5 -11  133.89   12.70
   3   5  11  156.38    7.40
  -4  -5 -11   78.29   10.90
   4   5  11   65.79    6.50
  -5  -5 -11   38.10    9.90
  -3   6  11   94.89   11.70
  -2   6  11   17.90    7.50
   1  -6 -11  221.28   11.30
  -1   6  11  200.28   12.10
   0  -6 -11   46.30    6.70
   0  -6 -11   47.00    5.20
   0   6  11   39.50    5.40
  -1  -6 -11   58.69    6.50
  -1  -6 -11   59.79    7.70
   1   6  11   60.49    6.60
  -2  -6 -11   27.90    6.60
   2   6  11   31.70    4.00
  -3  -6 -11  182.48   13.70
   3   6  11  189.38    8.70
  -4  -6 -11  123.59   13.30
   4   6  11  124.79    7.70
  -5  -6 -11   -4.70    9.20
  -3   7  11   72.09   11.50
  -2   7  11  268.37   16.00
  -1   7  11  163.58   11.80
   0  -7 -11   35.20    5.90
   0   7  11   37.40    5.50
  -1  -7 -11   11.70    5.40
   1   7  11    6.10    4.10
  -2  -7 -11  139.09   11.10
   2   7  11  159.58    8.10
  -3  -7 -11  136.09   12.30
   3   7  11  157.68    8.10
  -4  -7 -11  112.99   12.60
   4   7  11  114.99    8.30
  -5  -7 -11   89.49   11.40
  -2   8  11  115.89   13.90
  -1   8  11   56.79    8.30
   0   8  11   86.59    9.10
  -1  -8 -11  530.65   20.40
   1   8  11  539.75   18.60
  -2  -8 -11  271.27   14.30
   2   8  11  260.47   11.10
  -3  -8 -11  217.78   13.60
   3   8  11  223.08   10.30
  -4  -8 -11  467.85   21.20
   4   8  11  476.65   17.10
  -2   9  11  220.78   17.20
  -1   9  11  561.94   22.10
   0   9  11  253.77   13.20
   1   9  11   66.39    8.30
  -2  -9 -11  219.28   13.00
   2   9  11  221.98   10.50
  -3  -9 -11  303.47   16.00
   3   9  11  314.27   13.00
  -4  -9 -11  289.57   16.30
   4   9  11  267.97   12.70
  -1  10  11  196.28   14.70
   0  10  11   10.30    6.20
   1  10  11   70.39    8.60
   2  10  11   25.40    4.80
  -3 -10 -11   17.10    6.80
   3  10  11   10.50    5.10
  -4 -10 -11   29.00    8.50
   4  10  11   38.20    6.30
   0  11  11   47.30    8.20
   1  11  11    0.40    6.10
   2  11  11    3.30    5.00
   3  11  11   -0.80    5.10
   1   1 -12  637.94   25.10
   1   1 -12  593.84   25.40
   0   1 -12  128.99   14.20
   0   1 -12  150.68   13.90
  -1   1 -12    8.80    7.60
  -1   1 -12   15.80   10.20
  -2   1 -12    6.80   11.10
  -2   1 -12   10.80    7.40
   2   0 -12   14.80    7.70
   1   0 -12   41.40    8.30
   1   0 -12   41.60    8.20
   0   0 -12  245.88   17.50
   0   0 -12  253.97   15.00
  -1   0 -12   31.90    7.40
  -1   0 -12   37.30    9.70
  -2   0 -12   38.40   10.30
  -2   0 -12   46.50    7.20
  -3   0 -12   -1.00    6.70
  -3   0 -12    3.10   10.90
   2  -1 -12   -1.50    7.40
  -2   1  12    4.10    6.60
   1  -1 -12   91.29   11.40
   1  -1 -12   81.49    9.50
   0  -1 -12  164.18   14.00
   0  -1 -12  178.28   12.40
  -1  -1 -12  161.38   12.00
  -1  -1 -12  137.99   15.60
  -2  -1 -12    3.50    8.70
  -2  -1 -12   15.60    6.30
  -3  -1 -12   67.69    7.40
  -3  -1 -12   76.49   12.40
   2  -2 -12  662.43   22.60
   2  -2 -12  676.93   25.20
  -2   2  12  640.14   24.10
   1  -2 -12   78.09    8.80
   1  -2 -12   67.89    8.60
  -1   2  12   85.49    8.90
   0  -2 -12  177.18   11.90
   0  -2 -12  166.88   13.30
   0   2  12  170.78    9.20
  -1  -2 -12  541.75   23.10
  -1  -2 -12  514.85   19.60
  -2  -2 -12  221.18   16.60
  -2  -2 -12  217.38   12.30
  -3  -2 -12  197.58   18.00
  -3  -2 -12  207.58   12.10
  -4  -2 -12  242.28   21.20
   2  -3 -12    4.40    7.00
   2  -3 -12   17.20    5.80
  -2   3  12   36.40    7.70
   1  -3 -12  205.18   12.90
   1  -3 -12  222.08   12.90
  -1   3  12  202.88   12.00
   0  -3 -12  304.47   14.40
   0  -3 -12  301.07   16.00
   0   3  12  313.67   13.20
  -1  -3 -12  466.75   20.60
  -1  -3 -12  458.45   17.40
   1   3  12  459.25   15.60
  -2  -3 -12   78.49   10.40
  -2  -3 -12  109.39    9.20
   2   3  12   95.29    6.30
  -3  -3 -12   20.50    8.60
  -3  -3 -12   16.00    5.30
  -4  -3 -12  205.68   19.20
   2  -4 -12  130.99   10.40
   2  -4 -12  114.99   11.80
  -2   4  12  111.19   12.90
   1  -4 -12   56.09    7.50
   1  -4 -12   59.89    7.40
  -1   4  12   80.99   10.20
   0  -4 -12   19.50    5.60
   0  -4 -12    9.70    6.30
   0   4  12   23.10    5.40
  -1  -4 -12  180.38   10.60
  -1  -4 -12  203.08   13.90
   1   4  12  171.08    9.20
  -2  -4 -12  151.38   14.60
  -2  -4 -12  177.08    9.90
   2   4  12  176.08    8.80
  -3  -4 -12   23.50    9.30
   3   4  12   17.10    3.50
  -4  -4 -12   12.50    9.40
   4   4  12    2.20    3.60
   2  -5 -12   39.30    7.40
  -2   5  12   48.00    8.70
   1  -5 -12  103.89   10.20
   1  -5 -12   73.59    9.40
  -1   5  12   84.69   10.50
   0  -5 -12   60.19    7.80
   0  -5 -12   62.69    6.80
   0   5  12   55.19    6.20
  -1  -5 -12  154.58   12.60
  -1  -5 -12  167.18    9.60
   1   5  12  175.98    9.30
  -2  -5 -12  207.08   10.10
  -2  -5 -12  190.68   15.10
   2   5  12  209.18    9.30
  -3  -5 -12   44.30    9.20
   3   5  12   43.30    4.50
  -4  -5 -12   67.89   10.50
   4   5  12   53.89    5.40
  -2   6  12   95.39   10.80
   1  -6 -12  251.87   13.10
   1  -6 -12  241.08   13.00
  -1   6  12  208.78   13.90
   0  -6 -12  156.08   10.20
   0  -6 -12  154.98   11.50
   0   6  12  172.78   10.90
  -1  -6 -12  108.79   11.10
  -1  -6 -12  101.29    8.20
   1   6  12   84.29    8.50
  -2  -6 -12  101.29   12.30
   2   6  12  114.29    7.80
  -3  -6 -12  245.08   16.20
   3   6  12  248.68   10.60
  -4  -6 -12  178.78   15.90
   4   6  12  168.88    9.20
  -2   7  12   34.60    9.20
  -1   7  12    1.70    6.60
   0  -7 -12   38.50    7.20
   0   7  12   34.70    6.50
  -1  -7 -12  320.67   16.10
   1   7  12  331.27   13.70
  -2  -7 -12  287.77   15.80
   2   7  12  314.17   12.40
  -3  -7 -12   26.30    7.30
   3   7  12   33.90    4.60
  -4  -7 -12   69.89   10.90
   4   7  12   62.49    6.00
  -2   8  12   54.69   10.10
  -1   8  12   57.59    8.10
   0  -8 -12   26.20    7.60
   0   8  12   12.40    6.10
  -1  -8 -12  123.29   11.60
   1   8  12  126.19    9.70
  -2  -8 -12  168.98   13.00
   2   8  12  157.88    9.60
  -3  -8 -12   92.79   12.30
   3   8  12   77.99    7.80
  -4  -8 -12    2.80    8.20
   4   8  12    3.20    4.80
  -1   9  12  289.47   17.30
   0   9  12   -1.20    5.90
  -1  -9 -12   10.20    7.10
   1   9  12    7.90    5.60
  -2  -9 -12  306.27   16.10
   2   9  12  282.37   13.20
  -3  -9 -12  136.49   12.80
   3   9  12  144.89    9.40
   0  10  12  138.29   12.80
   1  10  12   79.59   10.50
  -2 -10 -12  179.48   13.80
   2  10  12  194.48   11.50
  -3 -10 -12  195.18   15.50
   3  10  12  199.38   11.70
   1  11  12    0.20    6.60
   1  -1 -13   25.10    8.50
   0  -1 -13  -18.30    8.60
   0  -1 -13    3.10    7.20
  -1  -1 -13   77.49   11.90
  -1  -1 -13   61.49    8.90
  -2  -1 -13    3.60    7.20
  -2  -1 -13  -14.80    9.50
   1  -2 -13   64.59    9.30
   1  -2 -13   62.79    8.80
   0  -2 -13   75.69    9.10
   0  -2 -13   61.89   10.10
  -1  -2 -13   12.80    7.10
  -1  -2 -13    5.40    8.30
  -2  -2 -13    4.50    9.00
  -2  -2 -13    0.20    6.70
   1  -3 -13  334.97   16.90
   1  -3 -13  337.77   17.00
  -1   3  13  342.47   15.70
   0  -3 -13  103.29   13.10
   0  -3 -13  137.29   12.30
  -1  -3 -13  185.78   12.70
  -1  -3 -13  232.08   16.20
  -2  -3 -13   37.40    6.90
  -2  -3 -13   41.90   10.40
  -3  -3 -13   -1.50    9.80
   1  -4 -13  104.89   12.70
   1  -4 -13   91.99   11.40
  -1   4  13   91.19   11.70
   0  -4 -13  352.36   15.80
   0  -4 -13  335.97   17.70
   0   4  13  336.77   14.80
  -1  -4 -13  440.66   17.30
  -1  -4 -13  413.86   20.90
   1   4  13  423.36   15.60
  -2  -4 -13  349.47   20.20
  -2  -4 -13  360.06   14.80
  -3  -4 -13   13.20   10.30
   1  -5 -13  380.36   17.70
   1  -5 -13  375.76   17.00
  -1   5  13  372.66   17.60
   0  -5 -13  256.07   13.60
   0  -5 -13  232.08   14.90
   0   5  13  223.68   13.40
  -1  -5 -13  184.28   11.70
  -1  -5 -13  227.68   15.20
   1   5  13  213.68   11.00
  -2  -5 -13   64.19   10.00
  -2  -5 -13   61.39    6.40
  -3  -5 -13  152.98   16.10
   3   5  13  159.98    8.80
   1  -6 -13   11.00    7.00
   1  -6 -13    9.50    6.90
  -1   6  13   35.80    8.20
   0  -6 -13   35.40    7.00
   0  -6 -13   48.10    9.00
   0   6  13   41.00    7.40
  -1  -6 -13   45.90    8.20
  -1  -6 -13   41.90    5.70
   1   6  13   35.40    6.20
  -2  -6 -13   84.49   11.30
   2   6  13   87.29    8.40
  -3  -6 -13   22.70    9.30
   3   6  13   16.80    4.50
  -1   7  13   -2.40    7.30
   0  -7 -13   15.30    6.90
   0   7  13    5.40    6.40
  -1  -7 -13  232.78   14.70
   1   7  13  204.28   12.10
  -2  -7 -13   92.59   13.20
   2   7  13   93.29    8.80
  -3  -7 -13   23.40    9.20
   3   7  13    8.10    4.80
  -1   8  13  199.68   16.70
   0  -8 -13   63.99    9.00
   0   8  13   58.39    8.00
  -1  -8 -13   64.59    9.10
   1   8  13   54.49    7.50
  -2  -8 -13  417.16   20.00
   2   8  13  403.96   16.20
  -3  -8 -13   84.49   10.80
   3   8  13   92.89    8.90
   0   9  13  106.19   13.00
  -1  -9 -13  122.49   13.10
   1   9  13  140.59   11.90
  -2  -9 -13  188.98   15.00
   2   9  13  182.98   11.90
   0  -4 -14    5.50    7.90
   0  -4 -14   12.30    8.70
  -1  -4 -14   17.00    7.30
  -1  -4 -14   24.50    9.80
   0  -5 -14  438.86   18.60
   0  -5 -14  366.16   19.70
   0   5  14  384.86   17.70
  -1  -5 -14  198.68   13.30
  -1  -5 -14  177.98   16.50
   1   5  14  179.88   12.40
  -2  -5 -14   14.90    9.80
   0  -6 -14  275.17   15.60
   0  -6 -14  276.67   17.40
   0   6  14  281.77   16.30
  -1  -6 -14  104.89   11.70
  -1  -6 -14  122.29   14.60
   1   6  14  139.49   11.30
  -2  -6 -14   13.00    9.80
   2   6  14    7.50    6.00
  -1  -7 -14   49.40    9.40
   1   7  14   61.39    7.70
  -2  -7 -14  293.77   19.10
   0   0   0    0.00    0.00

_computing_structure_solution     'SHELXT 2014/5 (Sheldrick, 2014)'
;
loop_
_space_group_symop_operation_xyz
'x, y, z'
'-x, -y, -z'
loop_
_atom_site_label
_atom_site_type_symbol
_atom_site_fract_x
_atom_site_fract_y
_atom_site_fract_z
_atom_site_U_iso_or_equiv
_atom_site_adp_type
_atom_site_occupancy
_atom_site_site_symmetry_order
_atom_site_calc_flag
_atom_site_refinement_flags_posn
_atom_site_refinement_flags_adp
_atom_site_refinement_flags_occupancy
_atom_site_disorder_assembly
_atom_site_disorder_group
C1 C 0.3389(4) 0.1771(2) 0.54273(18) 0.0206(4) Uani 1 1 d . . . . .
C2 C 0.5111(4) 0.2699(2) 0.53549(19) 0.0235(4) Uani 1 1 d . . . . .
H2 H 0.547524 0.277142 0.614855 0.028 Uiso 1 1 calc R . . . .
C3 C 0.6259(4) 0.3497(2) 0.41251(19) 0.0240(4) Uani 1 1 d . . . . .
H3 H 0.743526 0.411483 0.408278 0.029 Uiso 1 1 calc R . . . .
C4 C 0.5753(3) 0.3435(2) 0.29081(18) 0.0177(4) Uani 1 1 d . . . . .
C5 C 0.4050(3) 0.2428(2) 0.30268(18) 0.0175(4) Uani 1 1 d . . . . .
C6 C 0.2914(4) 0.1612(2) 0.42911(19) 0.0195(4) Uani 1 1 d . . . . .
H6 H 0.180625 0.094181 0.436945 0.023 Uiso 1 1 calc R . . . .
C7 C 0.3736(3) 0.2073(2) 0.18999(18) 0.0178(4) Uani 1 1 d . . . . .
H7 H 0.312284 0.117283 0.210417 0.021 Uiso 1 1 calc R . . . .
C8 C 0.4358(3) 0.2244(2) -0.03380(19) 0.0188(4) Uani 1 1 d . . . . .
H8A H 0.331454 0.290631 -0.109262 0.023 Uiso 1 1 calc R . . . .
H8B H 0.368184 0.129066 0.009263 0.023 Uiso 1 1 calc R . . . .
C9 C 0.7105(4) 0.2017(2) -0.08818(19) 0.0195(4) Uani 1 1 d . . . . .
H9A H 0.814677 0.141730 -0.010963 0.023 Uiso 1 1 calc R . . . .
H9B H 0.719484 0.145651 -0.144655 0.023 Uiso 1 1 calc R . . . .
C10 C 0.8226(3) 0.3438(2) -0.17157(18) 0.0181(4) Uani 1 1 d . . . . .
H10A H 0.993078 0.320713 -0.210498 0.022 Uiso 1 1 calc R . . . .
H10B H 0.716016 0.405812 -0.247291 0.022 Uiso 1 1 calc R . . . .
N1 N 0.2185(3) 0.09298(18) 0.67192(16) 0.0234(4) Uani 1 1 d . . . . .
N2 N 0.4228(3) 0.28871(17) 0.06554(15) 0.0159(3) Uani 1 1 d . . . . .
N3 N 0.8408(3) 0.42723(17) -0.08960(15) 0.0184(3) Uani 1 1 d . . . . .
H3A H 0.918194 0.507404 -0.143334 0.022 Uiso 1 1 calc R . . . .
H3B H 0.943674 0.369786 -0.022393 0.022 Uiso 1 1 calc R . . . .
Ni1 Ni 0.500000 0.500000 0.000000 0.01459(12) Uani 1 2 d S T P . .
O1 O 0.0577(3) 0.01700(19) 0.67698(15) 0.0402(4) Uani 1 1 d . . . . .
O2 O 0.2793(3) 0.09820(16) 0.77417(13) 0.0284(3) Uani 1 1 d . . . . .
O3 O 0.6806(2) 0.42554(14) 0.17693(12) 0.0189(3) Uani 1 1 d . . . . .
loop_
_atom_site_aniso_label
_atom_site_aniso_U_11
_atom_site_aniso_U_22
_atom_site_aniso_U_33
_atom_site_aniso_U_23
_atom_site_aniso_U_13
_atom_site_aniso_U_12
C1 0.0213(10) 0.0204(10) 0.0157(9) -0.0032(8) 0.0000(8) -0.0035(8)
C2 0.0279(11) 0.0251(11) 0.0196(10) -0.0089(9) -0.0055(8) -0.0059(9)
C3 0.0243(11) 0.0259(11) 0.0231(10) -0.0073(9) -0.0040(8) -0.0113(9)
C4 0.0149(9) 0.0172(9) 0.0189(9) -0.0048(8) -0.0028(7) -0.0018(7)
C5 0.0161(9) 0.0161(9) 0.0181(9) -0.0044(8) -0.0018(7) -0.0024(7)
C6 0.0179(10) 0.0187(10) 0.0209(10) -0.0062(8) -0.0004(8) -0.0054(8)
C7 0.0148(9) 0.0167(9) 0.0214(10) -0.0062(8) 0.0006(7) -0.0059(7)
C8 0.0190(10) 0.0203(10) 0.0197(9) -0.0093(8) -0.0013(8) -0.0064(8)
C9 0.0199(10) 0.0191(9) 0.0214(10) -0.0100(8) -0.0017(8) -0.0028(8)
C10 0.0144(9) 0.0223(10) 0.0188(9) -0.0097(8) -0.0002(7) -0.0024(8)
N1 0.0248(9) 0.0237(9) 0.0191(9) -0.0069(7) 0.0018(7) -0.0042(7)
N2 0.0127(8) 0.0172(8) 0.0185(8) -0.0072(7) -0.0009(6) -0.0043(6)
N3 0.0149(8) 0.0201(8) 0.0205(8) -0.0074(7) -0.0005(6) -0.0055(6)
Ni1 0.01283(18) 0.01610(19) 0.01466(18) -0.00504(14) -0.00024(12) -0.00512(13)
O1 0.0466(10) 0.0526(11) 0.0256(8) -0.0127(8) 0.0085(7) -0.0343(9)
O2 0.0377(9) 0.0309(8) 0.0163(7) -0.0089(6) -0.0004(6) -0.0066(7)
O3 0.0175(7) 0.0212(7) 0.0167(7) -0.0037(6) -0.0016(5) -0.0086(5)
loop_
_atom_type_symbol
_atom_type_description
_atom_type_scat_dispersion_real
_atom_type_scat_dispersion_imag
_atom_type_scat_source
C C 0.0033 0.0016 'International Tables Vol C Tables 4.2.6.8 and 6.1.1.4'
H H 0.0000 0.0000 'International Tables Vol C Tables 4.2.6.8 and 6.1.1.4'
N N 0.0061 0.0033 'International Tables Vol C Tables 4.2.6.8 and 6.1.1.4'
Ni Ni 0.3393 1.1124 'International Tables Vol C Tables 4.2.6.8 and 6.1.1.4'
O O 0.0106 0.0060 'International Tables Vol C Tables 4.2.6.8 and 6.1.1.4'
loop_
_geom_angle_atom_site_label_1
_geom_angle_atom_site_label_2
_geom_angle_atom_site_label_3
_geom_angle
_geom_angle_site_symmetry_1
_geom_angle_site_symmetry_3
C2 C1 N1 119.18(17) . .
C6 C1 C2 121.08(17) . .
C6 C1 N1 119.69(17) . .
C1 C2 H2 120.4 . .
C3 C2 C1 119.12(18) . .
C3 C2 H2 120.4 . .
C2 C3 H3 118.8 . .
C2 C3 C4 122.41(17) . .
C4 C3 H3 118.8 . .
C3 C4 C5 116.96(16) . .
O3 C4 C3 119.90(16) . .
O3 C4 C5 123.14(16) . .
C4 C5 C7 121.88(16) . .
C6 C5 C4 119.82(17) . .
C6 C5 C7 117.73(16) . .
C1 C6 C5 120.49(17) . .
C1 C6 H6 119.8 . .
C5 C6 H6 119.8 . .
C5 C7 H7 117.7 . .
N2 C7 C5 124.62(16) . .
N2 C7 H7 117.7 . .
H8A C8 H8B 108.2 . .
C9 C8 H8A 109.7 . .
C9 C8 H8B 109.7 . .
N2 C8 H8A 109.7 . .
N2 C8 H8B 109.7 . .
N2 C8 C9 109.75(14) . .
C8 C9 H9A 108.8 . .
C8 C9 H9B 108.8 . .
H9A C9 H9B 107.7 . .
C10 C9 C8 113.97(16) . .
C10 C9 H9A 108.8 . .
C10 C9 H9B 108.8 . .
C9 C10 H10A 109.2 . .
C9 C10 H10B 109.2 . .
H10A C10 H10B 107.9 . .
N3 C10 C9 112.08(15) . .
N3 C10 H10A 109.2 . .
N3 C10 H10B 109.2 . .
O1 N1 C1 118.96(16) . .
O2 N1 C1 119.07(16) . .
O2 N1 O1 121.97(16) . .
C7 N2 C8 117.97(15) . .
C7 N2 Ni1 123.18(12) . .
C8 N2 Ni1 118.79(11) . .
C10 N3 H3A 107.9 . .
C10 N3 H3B 107.9 . .
C10 N3 Ni1 117.61(11) . .
H3A N3 H3B 107.2 . .
Ni1 N3 H3A 107.9 . .
Ni1 N3 H3B 107.9 . .
N2 Ni1 N2 180.0 2_665 .
N2 Ni1 N3 85.16(6) . .
N2 Ni1 N3 94.84(6) . 2_665
N2 Ni1 N3 85.16(6) 2_665 2_665
N2 Ni1 N3 94.84(6) 2_665 .
N2 Ni1 O3 94.13(5) 2_665 .
N2 Ni1 O3 85.87(5) . .
N2 Ni1 O3 85.87(5) 2_665 2_665
N2 Ni1 O3 94.13(5) . 2_665
N3 Ni1 N3 180.0 2_665 .
O3 Ni1 N3 87.93(6) 2_665 2_665
O3 Ni1 N3 92.07(6) . 2_665
O3 Ni1 N3 92.07(6) 2_665 .
O3 Ni1 N3 87.93(6) . .
O3 Ni1 O3 180.0 . 2_665
C4 O3 Ni1 120.62(11) . .
loop_
_geom_bond_atom_site_label_1
_geom_bond_atom_site_label_2
_geom_bond_distance
_geom_bond_site_symmetry_2
C1 C2 1.405(3) .
C1 C6 1.380(3) .
C1 N1 1.439(2) .
C2 H2 0.9500 .
C2 C3 1.369(3) .
C3 H3 0.9500 .
C3 C4 1.423(3) .
C4 C5 1.443(3) .
C4 O3 1.290(2) .
C5 C6 1.397(3) .
C5 C7 1.458(3) .
C6 H6 0.9500 .
C7 H7 0.9500 .
C7 N2 1.279(2) .
C8 H8A 0.9900 .
C8 H8B 0.9900 .
C8 C9 1.533(3) .
C8 N2 1.470(2) .
C9 H9A 0.9900 .
C9 H9B 0.9900 .
C9 C10 1.522(3) .
C10 H10A 0.9900 .
C10 H10B 0.9900 .
C10 N3 1.487(2) .
N1 O1 1.238(2) .
N1 O2 1.232(2) .
N2 Ni1 2.0494(15) .
N3 H3A 0.9100 .
N3 H3B 0.9100 .
N3 Ni1 2.1227(15) .
Ni1 O3 2.0749(12) 2_665
Ni1 O3 2.0749(12) .
