#------------------------------------------------------------------------------
#$Date: 2022-06-24 09:52:44 +0300 (Fri, 24 Jun 2022) $
#$Revision: 276218 $
#$URL: file:///home/coder/svn-repositories/cod/cif/8/10/54/8105487.cif $
#------------------------------------------------------------------------------
#
# This file is available in the Crystallography Open Database (COD),
# http://www.crystallography.net/
#
# All data on this site have been placed in the public domain by the
# contributors.
#
data_8105487
loop_
_publ_author_name
'Hanifa, Bibi'
'Sirajuddin, Muhammad'
'Lo, Kong Mun'
'Tiekink, Edward R.T.'
_publ_section_title
;
 Crystal structure of 4-[(4-methoxy-2-nitrophenyl)carbamoyl]butanoic acid,
 C12H14N2O6
;
_journal_issue                   6
_journal_name_full
'Zeitschrift f\"ur Kristallographie - New Crystal Structures'
_journal_page_first              1435
_journal_page_last               1437
_journal_paper_doi               10.1515/ncrs-2020-0350
_journal_volume                  235
_journal_year                    2020
_chemical_formula_moiety         'C12 H14 N2 O6'
_chemical_formula_sum            'C12 H14 N2 O6'
_chemical_formula_weight         282.25
_space_group_crystal_system      triclinic
_space_group_IT_number           2
_space_group_name_Hall           '-P 1'
_space_group_name_H-M_alt        'P -1'
_atom_sites_solution_hydrogens   mixed
_atom_sites_solution_primary     direct
_atom_sites_solution_secondary   difmap
_audit_creation_method           SHELXL-2018/3
_cell_angle_alpha                76.135(5)
_cell_angle_beta                 82.693(6)
_cell_angle_gamma                87.379(7)
_cell_formula_units_Z            2
_cell_length_a                   4.8835(4)
_cell_length_b                   9.2111(7)
_cell_length_c                   14.6655(7)
_cell_measurement_reflns_used    5658
_cell_measurement_temperature    293(1)
_cell_measurement_theta_max      76.3260
_cell_measurement_theta_min      4.9240
_cell_volume                     635.19(8)
_computing_cell_refinement       'CrysAlisPro [1]'
_computing_data_collection       'CrysAlisPro [1]'
_computing_data_reduction        'CrysAlisPro [1]'
_computing_molecular_graphics    'ORTEP-3 for Windows [4]'
_computing_publication_material  'SHELXL-2018/3 [3]'
_computing_structure_refinement  'SHELXL-2018/3 [3]'
_computing_structure_solution    'SHELXT 2014/5 [2]'
_diffrn_ambient_temperature      293(1)
_diffrn_detector_area_resol_mean 5.2558
_diffrn_measured_fraction_theta_full 1.000
_diffrn_measured_fraction_theta_max 1.000
_diffrn_measurement_device_type  'XtaLAB Synergy, Dualflex, AtlasS2'
_diffrn_measurement_method       '\w scans'
_diffrn_radiation_type           CuK\a
_diffrn_radiation_wavelength     1.54184
_diffrn_reflns_av_R_equivalents  0.0408
_diffrn_reflns_av_unetI/netI     0.0192
_diffrn_reflns_Laue_measured_fraction_full 1.000
_diffrn_reflns_Laue_measured_fraction_max 1.000
_diffrn_reflns_limit_h_max       5
_diffrn_reflns_limit_h_min       -5
_diffrn_reflns_limit_k_max       10
_diffrn_reflns_limit_k_min       -10
_diffrn_reflns_limit_l_max       17
_diffrn_reflns_limit_l_min       -17
_diffrn_reflns_number            14803
_diffrn_reflns_point_group_measured_fraction_full 1.000
_diffrn_reflns_point_group_measured_fraction_max 1.000
_diffrn_reflns_theta_full        67.077
_diffrn_reflns_theta_max         67.077
_diffrn_reflns_theta_min         3.126
_diffrn_source                   'micro-focus sealed X-ray tube'
_exptl_absorpt_coefficient_mu    1.026
_exptl_absorpt_correction_T_max  1.000
_exptl_absorpt_correction_T_min  0.758
_exptl_absorpt_correction_type   gaussian
_exptl_absorpt_process_details   'CrysAlisPro [1]'
_exptl_crystal_colour            pale-yellow
_exptl_crystal_density_diffrn    1.476
_exptl_crystal_description       prism
_exptl_crystal_F_000             296
_exptl_crystal_size_max          0.131
_exptl_crystal_size_mid          0.091
_exptl_crystal_size_min          0.058
_refine_diff_density_max         0.255
_refine_diff_density_min         -0.222
_refine_diff_density_rms         0.049
_refine_ls_extinction_coef       .
_refine_ls_extinction_method     none
_refine_ls_goodness_of_fit_ref   1.043
_refine_ls_hydrogen_treatment    mixed
_refine_ls_matrix_type           full
_refine_ls_number_parameters     188
_refine_ls_number_reflns         2267
_refine_ls_number_restraints     2
_refine_ls_restrained_S_all      1.043
_refine_ls_R_factor_all          0.0507
_refine_ls_R_factor_gt           0.0449
_refine_ls_shift/su_max          0.000
_refine_ls_shift/su_mean         0.000
_refine_ls_structure_factor_coef Fsqd
_refine_ls_weighting_details
'w=1/[\s^2^(Fo^2^)+(0.0744P)^2^+0.1557P] where P=(Fo^2^+2Fc^2^)/3'
_refine_ls_weighting_scheme      calc
_refine_ls_wR_factor_gt          0.1229
_refine_ls_wR_factor_ref         0.1297
_reflns_Friedel_coverage         0.000
_reflns_Friedel_fraction_full    .
_reflns_Friedel_fraction_max     .
_reflns_number_gt                1969
_reflns_number_total             2267
_reflns_threshold_expression     'I > 2\s(I)'
_cod_data_source_file            suppl_ncrs-2020-0350_suppl.cif
_cod_data_source_block           shelx
_cod_database_code               8105487
_shelx_shelxl_version_number     2018/3
_shelx_space_group_comment
;
The symmetry employed for this shelxl refinement is uniquely defined
by the following loop, which should always be used as a source of
symmetry information in preference to the above space-group names.
They are only intended as comments.
;
_shelx_estimated_absorpt_t_min   0.877
_shelx_estimated_absorpt_t_max   0.943
_shelx_res_file
;
TITL exp_1369
    shelx.res
    created by SHELXL-2018/3 at 00:31:55 on 07-Jul-2020
CELL  1.54184   4.8835   9.2111  14.6655   76.135   82.693   87.379
ZERR     2.00   0.0004   0.0007   0.0007    0.005    0.006    0.007
LATT   1
SFAC   C    H    N    O
UNIT   24   28   4    12
MERG   2
FMAP   2
PLAN   5
SIZE   0.058   0.091   0.131
ACTA
BOND   $H
CONF
DFIX  0.82 0.01 O1 H1o
DFIX  0.86 0.01 N1 H1n
L.S.  18
TEMP    20.00
WGHT    0.074400    0.155700
FVAR       6.13546
O1    4    0.700048    0.579689    0.054053    11.00000    0.07603    0.09204 =
         0.03614    0.01298    0.00281    0.03685
H1O   2    0.798925    0.582942    0.003231    11.00000   -1.50000
O2    4    0.996999    0.403966    0.112522    11.00000    0.05599    0.08265 =
         0.03755   -0.00005    0.00172    0.02549
O3    4    0.860110    0.194356    0.474371    11.00000    0.04014    0.09968 =
         0.04520    0.01155    0.00002    0.01477
O4    4    0.497109   -0.151203    0.908261    11.00000    0.06728    0.07091 =
         0.03622    0.00726    0.00310    0.02672
O5    4    0.005285    0.339830    0.633090    11.00000    0.06962    0.06691 =
         0.04690    0.00039   -0.00597    0.02847
O6    4   -0.098659    0.273575    0.781960    11.00000    0.08291    0.08632 =
         0.05252   -0.00417    0.01535    0.04296
N1    3    0.424708    0.211633    0.547968    11.00000    0.03721    0.06736 =
         0.03429    0.00210    0.00006    0.01217
H1N   2    0.269314    0.256881    0.539754    11.00000   -1.20000
N2    3    0.042264    0.259559    0.709755    11.00000    0.04524    0.04699 =
         0.04328   -0.00478   -0.00122    0.00969
C1    1    0.788243    0.478351    0.122751    11.00000    0.04282    0.05581 =
         0.03478   -0.00221   -0.00553    0.00714
C2    1    0.605719    0.461933    0.214189    11.00000    0.04128    0.05845 =
         0.03570   -0.00138   -0.00151    0.00889
AFIX  23
H2A   2    0.430617    0.421954    0.207848    11.00000   -1.20000
H2B   2    0.569303    0.560231    0.226627    11.00000   -1.20000
AFIX   0
C3    1    0.723910    0.361652    0.298182    11.00000    0.03948    0.05412 =
         0.03390   -0.00244   -0.00147    0.00765
AFIX  23
H3A   2    0.761780    0.263015    0.286435    11.00000   -1.20000
H3B   2    0.896825    0.402060    0.306255    11.00000   -1.20000
AFIX   0
C4    1    0.525356    0.348889    0.387677    11.00000    0.04283    0.05853 =
         0.03556   -0.00137   -0.00028    0.01040
AFIX  23
H4A   2    0.495603    0.447298    0.400506    11.00000   -1.20000
H4B   2    0.349208    0.314741    0.377520    11.00000   -1.20000
AFIX   0
C5    1    0.624723    0.243358    0.473061    11.00000    0.03721    0.05395 =
         0.03575   -0.00490   -0.00205    0.00389
C6    1    0.444075    0.125603    0.639371    11.00000    0.03567    0.04873 =
         0.03527   -0.00479   -0.00276    0.00180
C7    1    0.648298    0.013400    0.658126    11.00000    0.03778    0.05278 =
         0.03774   -0.00716    0.00220    0.00638
AFIX  43
H7    2    0.777368   -0.001931    0.608823    11.00000   -1.20000
AFIX   0
C8    1    0.661314   -0.074006    0.747623    11.00000    0.04185    0.04840 =
         0.04340   -0.00504   -0.00193    0.00897
AFIX  43
H8    2    0.800277   -0.146443    0.757922    11.00000   -1.20000
AFIX   0
C9    1    0.470312   -0.056127    0.823168    11.00000    0.04576    0.04907 =
         0.03656   -0.00242   -0.00263    0.00730
C10   1    0.269987    0.053770    0.807623    11.00000    0.04371    0.05050 =
         0.03567   -0.00615    0.00141    0.00787
AFIX  43
H10   2    0.141883    0.067954    0.857474    11.00000   -1.20000
AFIX   0
C11   1    0.259171    0.143773    0.717172    11.00000    0.03534    0.04261 =
         0.03911   -0.00587   -0.00194    0.00502
C12   1    0.281389   -0.148970    0.983416    11.00000    0.07703    0.07411 =
         0.04044    0.00537    0.00951    0.02231
AFIX 137
H12A  2    0.280685   -0.054918    1.000853    11.00000   -1.50000
H12B  2    0.311520   -0.228699    1.037008    11.00000   -1.50000
H12C  2    0.106920   -0.161791    0.962920    11.00000   -1.50000

AFIX   0
HKLF    4




REM  exp_1369
REM wR2 = 0.1297, GooF = S = 1.043, Restrained GooF = 1.043 for all data
REM R1 = 0.0449 for 1969 Fo > 4sig(Fo) and 0.0507 for all 2267 data
REM 188 parameters refined using 2 restraints

END

WGHT      0.0724      0.1654

REM Highest difference peak  0.255,  deepest hole -0.222,  1-sigma level  0.049
Q1    1   0.8146  0.2791  0.4933  11.00000  0.05    0.25
Q2    1   0.7288  0.1327  0.4569  11.00000  0.05    0.25
Q3    1   0.8494  0.3657  0.1016  11.00000  0.05    0.22
Q4    1   0.1831  0.3884  0.6379  11.00000  0.05    0.20
Q5    1   0.9909  0.4920  0.1234  11.00000  0.05    0.17
;
_shelx_hkl_file
;
   0   0   1 1718.61 89.6799  35
   0   0   2 13961.6 305.713  36
   0   0  -2 13009.4 264.251  37
   0   0   3 52.6059 36.7095  35
   0   0  -3 55.3526 35.4383  38
   0   0  -3 51.7584 26.2012  37
   0   0   4 2282.00 214.318  35
   0   0  -4 1785.39 135.560  37
   0   0  -4 1912.89 170.283  38
   0   0  -5 4118.55 227.127  37
   0   0  -5 4540.28 292.392  38
   0   0   6-11.0680 17.0295   2
   0   0   6 32.5797 16.7684  41
   0   0  -6-8.92982 52.4621  37
   0   0   6-4.81587 60.5984  34
   0   0  -6 40.8816 61.1111  38
   0   0   7 15791.3 255.710   2
   0   0   7 15644.9 728.383  34
   0   0   7 15781.1 256.978  41
   0   0  -7 14269.7 502.023  37
   0   0  -7 15123.0 666.775  38
   0   0   8 1849.44 89.6152   2
   0   0   8 1863.95 90.4952  41
   0   0  -8 1836.73 251.732  38
   0   0   8 1595.12 255.903  34
   0   0   9 1076.88 135.260  24
   0   0   9 1034.48 74.1033  41
   0   0   9 1015.38 70.1575   9
   0   0   9 939.921 224.708  34
   0   0   9 961.940 65.5791  11
   0   0  -9 813.682 186.838  38
   0   0   9 957.815 65.5405  25
   0   0   9 901.071 65.1557  33
   0   0   9 851.027 68.5459  21
   0   0   9 1009.66 69.8500   2
   0   0   9 931.260 63.6752  31
   0   0  10 2459.70 111.432  33
   0   0 -10 2307.84 342.719  38
   0   0  10 2223.71 106.768  11
   0   0  10 2495.70 113.104   9
   0   0  10 2362.44 105.096  31
   0   0  10 2484.69 115.468   2
   0   0  10 2077.29 113.610  21
   0   0  10 2264.61 108.469  25
   0   0  10 2273.12 100.011  30
   0   0  10 2566.41 121.115  41
   0   0  10 2221.27 341.573  34
   0   0  10 2346.22 106.792  27
   0   0  11 7934.90 212.787   9
   0   0  11 7937.22 216.674   2
   0   0  11 7496.20 192.296  30
   0   0  11 7716.36 655.294  34
   0   0  11 7580.15 203.466  27
   0   0  11 7809.68 209.842  33
   0   0 -11 7163.68 637.454  38
   0   0  11 7770.53 202.525  25
   0   0  11 8034.12 201.546  31
   0   0  11 7888.25 204.053  11
   0   0  11 8131.02 227.111  41
   0   0  11 7668.78 211.192  28
   0   0  12 14460.8 306.294   2
   0   0  12 13243.6 264.782  30
   0   0  12 14242.6 282.546  31
   0   0  12 14441.5 290.275  25
   0   0  12 13728.8 286.211  27
   0   0  12 14692.9 321.915  41
   0   0 -12 12866.0 899.947  38
   0   0  12 14162.3 300.169  28
   0   0  12 14398.5 297.306  33
   0   0  12 13892.7 290.831   9
   0   0  12 14553.0 292.585  11
   0   0  12 12765.1 868.580  34
   0   0  13-12.5680 24.4049  31
   0   0  13 19.3675 30.0639  33
   0   0  13 4.76810 27.3019  11
   0   0  13-7.15393 25.8051   9
   0   0  13-15.2758 28.2540  41
   0   0  13 37.1137 28.8295  25
   0   0  13 28.0282 23.1516  27
   0   0  13-29.2104 84.5169  34
   0   0  13-4.32192 25.8273  28
   0   0  13 31.0946 22.0274  30
   0   0  13 4.38263 26.4412   2
   0   0 -13 16.0670 112.932  38
   0   0  14 51.5739 29.1918  41
   0   0  14 31.3461 29.0181  33
   0   0  14 11.9383 22.2991  31
   0   0  14 36.6484 23.0536   2
   0   0  14 12.3264 28.6536  25
   0   0  14 53.8184 27.7720  28
   0   0  14 8.43109 18.0598  27
   0   0  14 49.7346 26.2078   9
   0   0  14 2.27196 29.0778  11
   0   0  15-4.11316 20.9299  41
   0   0  15-25.0562 23.6483  31
   0   0  15 20.3146 23.8680  11
   0   0  15 8.92961 24.7596  25
   0   0  15 18.4341 22.2838  33
   0   0  15 17.9634 23.2186  28
   0   0  16 211.439 31.4029  11
   0   0  16 170.386 29.2141  25
   0   0  16 152.324 26.8855  33
   0   0  16 185.357 28.0235  28
   0  -1  16 196.888 25.6710  33
   0  -1  16 215.229 26.1995  28
   0  -1  16 202.611 27.2637  25
   0  -1  16 259.763 30.6827  11
   0  -1  15-19.9382 19.5778  33
   0  -1  15 45.3853 22.5191  25
   0  -1  15 16.0555 18.0569  28
   0  -1  15 6.12873 18.1996  31
   0  -1  15 25.3857 22.3916  11
   0  -1  14 356.039 47.8231  11
   0  -1  14 390.259 45.5380  33
   0  -1  14 351.260 46.3511  25
   0  -1  14 313.759 42.7802  31
   0  -1  14 262.429 32.3554  30
   0  -1  14 344.661 44.0937  28
   0  -1  14 353.158 45.6481   2
   0  -1  13 11213.1 252.617  28
   0  -1  13 11301.9 261.058   2
   0  -1  13 10946.8 241.776  31
   0   1 -13 9012.77 770.443  38
   0  -1  13 8850.04 736.794  34
   0  -1  13 10512.8 223.032  30
   0  -1  13 10903.8 246.788   9
   0  -1  13 11193.0 253.738  11
   0  -1  13 11281.4 281.564  41
   0  -1  13 11288.5 249.500  25
   0  -1  13 10995.4 247.349  33
   0  -1  12 3901.06 148.099  28
   0  -1  12 3921.15 146.389  11
   0  -1  12 4022.35 163.466  41
   0  -1  12 3737.47 135.029  30
   0   1 -12 3813.84 491.842  38
   0  -1  12 3840.26 146.366  33
   0  -1  12 3899.28 144.623  31
   0  -1  12 3957.69 151.154   2
   0  -1  12 3577.10 472.999  34
   0  -1  12 3812.32 145.640   9
   0  -1  12 3886.84 142.779  25
   0  -1  11 25694.0 1242.43  34
   0  -1  11 26219.2 410.566  33
   0  -1  11 25409.2 395.904  25
   0   1 -11 24891.5 1237.50  38
   0  -1  11 26225.9 414.114   9
   0  -1  11 26060.5 403.723  11
   0  -1  11 26941.3 404.718  31
   0  -1  11 25622.9 389.960  30
   0  -1  11 26357.0 411.846  28
   0  -1  11 26293.5 415.752   2
   0  -1  11 27212.0 442.158  41
   0  -1  10 1505.07 85.8949  31
   0   1 -10 1768.33 307.385  38
   0  -1  10 1560.10 301.667  34
   0  -1  10 1493.06 94.0468  41
   0  -1  10 1461.59 88.9801   9
   0  -1  10 1467.88 85.9792  28
   0  -1  10 1471.25 85.1493  11
   0  -1  10 1342.76 80.2105  25
   0  -1  10 1546.51 84.8112  30
   0  -1  10 1563.96 87.9064  33
   0  -1  10 1612.59 90.6946   2
   0  -1  10 1341.01 92.1275  21
   0  -1   9 2.11990 15.5015  25
   0  -1   9-18.9800 19.4046  30
   0  -1   9 13.7356 18.3907  33
   0  -1   9 4.17107 17.3035   2
   0  -1   9 20.9526 23.9098  31
   0  -1   9-12.0828 23.0207   9
   0  -1   9-0.52337 21.8528  41
   0  -1   9 17.6910 31.1773  24
   0  -1   9 20.9453 20.6016  28
   0   1  -9 68.3040 75.5362  38
   0  -1   9 5.70983 19.8525  11
   0  -1   9-51.0503 107.444  34
   0  -1   9 0.64147 29.0022  21
   0  -1   8 3991.24 129.958  24
   0   1  -8 3952.18 397.005  38
   0   1  -8 3746.95 326.549  37
   0  -1   8 3847.51 124.249  31
   0  -1   8 3923.10 133.411  41
   0  -1   8 3868.09 127.692   2
   0  -1   8 3673.82 407.986  34
   0  -1   8 3551.90 117.819  25
   0  -1   8 3582.36 124.623  33
   0  -1   8 3585.18 119.773  11
   0  -1   7 983.951 63.1751  41
   0  -1   7 957.543 217.057  34
   0  -1   7 949.023 61.7513   2
   0   1  -7 1038.69 197.611  38
   0   1  -7 921.370 155.107  37
   0  -1   6 249.305 30.9449  41
   0  -1   6 270.872 31.9518   2
   0  -1   6 215.089 99.4227  34
   0   1  -6 192.722 80.8514  37
   0  -1   5 3477.91 299.956  34
   0  -1   5 3764.20 101.912  41
   0   1  -5 3568.55 266.466  37
   0   1  -4 13807.3 321.767   1
   0  -1   4 15199.3 556.872  34
   0   1  -3 23060.4 471.789   1
   0  -1   2 14170.6 370.506   4
   0  -1   1 38235.5 637.130   4
   0  -1   0 1851.88 128.098   4
   0  -1   0 1934.11 97.3613  34
   0  -1   0 1916.08 80.8797  39
   0   1   0 1853.60 110.796  36
   0  -1  -1 231.437 42.7286  38
   0  -1  -1 196.631 24.8264  39
   0   1   1 215.047 45.6403  36
   0  -1  -1 226.905 49.6138   4
   0   1   2 47066.3 778.178  36
   0  -1  -2 47089.4 675.490  38
   0   1   3 28882.6 658.143  36
   0  -1  -3 26913.9 422.110  37
   0  -1  -3 29092.0 542.208   4
   0  -1  -3 28697.1 580.609  38
   0   1   4 16942.7 369.559   1
   0  -1  -4 16040.1 488.555  38
   0   1   4 16782.5 552.112  36
   0  -1  -5 554.729 105.673  38
   0   1   5 457.591 100.746  36
   0   1   5 617.547 127.264  35
   0   1   5 420.322 47.0185   1
   0   1   6 63333.7 604.515   2
   0  -1  -6 63244.1 1250.10  38
   0   1   6 62356.6 1306.88  36
   0   1   6 64298.0 600.834  41
   0   1   7 2545.89 96.7701   2
   0   1   7 2512.16 96.0144  41
   0   1   7 2610.35 318.064  35
   0  -1  -7 2624.93 268.883  38
   0   1   8 35.0541 73.1889  35
   0   1   8 24.0199 21.3110   2
   0   1   8 7.92639 74.0425  34
   0  -1  -8 14.9100 54.4773  38
   0   1   8 4.13267 18.5667  41
   0  -1  -9 320.910 116.602  38
   0   1   9 181.521 103.020  34
   0   1   9 395.117 45.7435   2
   0   1   9 340.669 46.9888  41
   0   1   9 290.937 41.9617  11
   0   1  10 785.888 68.3348  41
   0   1  10 697.318 216.914  34
   0   1  10 690.876 55.7052  30
   0   1  10 709.713 69.3729  11
   0   1  10 810.389 65.7599   9
   0  -1 -10 718.233 189.389  38
   0   1  10 790.808 66.2266   2
   0   1  10 802.492 61.1765  31
   0  -1 -11 2219.54 352.311  38
   0   1  11 2485.66 113.143  11
   0   1  11 2376.52 111.293  25
   0   1  11 2443.37 115.569  33
   0   1  11 2653.47 380.555  34
   0   1  11 2570.57 126.398  41
   0   1  11 2434.81 113.806   9
   0   1  11 2491.68 107.335  31
   0   1  11 2240.02 100.135  30
   0   1  11 2686.72 126.794   2
   0   1  12 17125.3 321.723  25
   0   1  12 16811.1 328.271  33
   0   1  12 13689.5 883.776  34
   0   1  12 16417.1 330.064  27
   0   1  12 16835.7 301.027  31
   0   1  12 18128.2 363.624  41
   0  -1 -12 13483.8 917.320  38
   0   1  12 18754.0 361.084   2
   0  -1 -12 16262.0 362.309  15
   0   1  12 16392.8 320.666   9
   0   1  12 17183.6 316.803  11
   0   1  13 18584.4 339.207  25
   0   1  13 18612.0 372.971  41
   0   1  13 19531.2 372.505   2
   0   1  13 12072.3 840.577  34
   0  -1 -13 13638.9 957.149  38
   0   1  13 16840.8 303.672  31
   0   1  13 17718.1 344.706  27
   0   1  13 18260.2 353.044  28
   0   1  13 18740.6 334.875  11
   0   1  13 18199.1 345.370  33
   0   1  13 17085.8 324.541   9
   0   1  14 58.7065 24.4333  27
   0   1  14 31.9561 23.1712   9
   0   1  14 47.4262 26.2117  11
   0   1  14 34.1464 26.4255  25
   0   1  14 63.4953 31.5193  41
   0   1  14 52.8764 31.4487   2
   0   1  14-0.95936 23.0470  31
   0   1  14 65.4760 29.0923  28
   0   1  14 34.5357 24.6026  33
   0  -1 -14 15.7977 139.237  38
   0   1  15 45.6848 28.5087  25
   0   1  15 87.2258 24.4186  27
   0   1  15 85.2951 28.0533  33
   0   1  15 28.2796 19.2973  31
   0   1  15 37.9994 22.8124   9
   0   1  15 66.5929 29.9756  28
   0   1  15 67.5724 31.2646  41
   0   1  15 56.7911 24.5609  11
   0   1  16 305.382 42.5443  41
   0   1  16 372.324 39.8921  11
   0   1  16 336.673 37.4630  33
   0   1  16 331.044 37.3847  25
   0   1  16 321.585 40.4112  28
   0   1  17 487.941 37.5045  28
   0   1  17 481.604 36.9629  33
   0   1  17 497.886 35.4554  11
   0   1  17 531.485 39.9342  25
   0  -2  15 542.558 42.7984  31
   0  -2  15 557.084 41.0973  28
   0  -2  15 549.195 42.5753  33
   0  -2  15 557.874 43.5901  25
   0  -2  15 584.699 46.2717  11
   0  -2  14-3.41744 18.7243  33
   0  -2  14 37.9456 21.4612  28
   0  -2  14 6.56440 20.0405  25
   0  -2  14 10.8281 16.3118  30
   0  -2  14 11.3949 22.8428  31
   0  -2  14 38.8189 25.1228  11
   0  -2  13 335.255 43.5220  33
   0  -2  13 370.066 48.8032  25
   0  -2  13 344.304 46.6954  31
   0  -2  13 452.897 48.1153  28
   0  -2  13 407.627 50.6800  11
   0  -2  13 269.847 36.5119   2
   0  -2  13 306.749 39.4260  30
   0  -2  12 747.438 60.5875  30
   0  -2  12 589.845 193.888  34
   0  -2  12 696.146 61.7917  31
   0  -2  12 722.494 61.9365   2
   0  -2  12 701.250 61.1878  25
   0  -2  12 734.898 64.2311   9
   0  -2  12 739.674 62.4452  33
   0  -2  12 766.466 63.1806  28
   0   2 -12 720.482 221.547  38
   0  -2  12 787.570 66.0711  11
   0  -2  11 9465.11 227.754   2
   0  -2  11 8868.41 224.154  31
   0  -2  11 10380.7 239.619  25
   0  -2  11 9244.89 232.915   9
   0  -2  11 10127.8 235.401  33
   0  -2  11 8851.94 731.448  34
   0  -2  11 9443.27 250.657  41
   0  -2  11 11129.8 325.035  24
   0   2 -11 9296.27 776.620  38
   0  -2  11 9808.64 228.544  28
   0  -2  11 9604.41 223.232  30
   0  -2  11 9168.91 228.686  11
   0  -2  10 2297.38 116.719  41
   0  -2  10 2355.02 109.185  31
   0  -2  10 2448.03 108.874   2
   0  -2  10 2304.77 114.951  21
   0  -2  10 2238.78 100.897  32
   0  -2  10 2483.61 103.681  24
   0  -2  10 2323.18 103.870  30
   0  -2  10 2439.71 109.005  11
   0  -2  10 2298.80 111.570   9
   0  -2  10 2225.21 103.918  33
   0  -2  10 2395.92 107.726  28
   0   2 -10 2331.22 369.642  38
   0  -2  10 2444.30 373.499  34
   0  -2  10 2328.10 106.022  25
   0  -2   9 3470.59 124.833  32
   0  -2   9 3685.10 136.424   9
   0  -2   9 3872.48 132.147   2
   0  -2   9 3659.75 130.255  30
   0  -2   9 3529.44 128.175  25
   0  -2   9 3781.64 134.618  31
   0   2  -9 3972.46 459.546  38
   0  -2   9 3618.91 129.047  28
   0  -2   9 3857.80 451.966  34
   0  -2   9 3988.60 143.116  24
   0  -2   9 3569.11 129.989  33
   0  -2   9 3745.90 143.112  41
   0  -2   9 3741.45 140.683  21
   0  -2   9 3540.59 129.136  11
   0  -2   8 1608.45 82.4231  33
   0  -2   8 1641.13 83.6927   2
   0  -2   8 1649.31 84.1754  31
   0  -2   8 1727.99 281.840  34
   0  -2   8 1623.40 82.4794  28
   0  -2   8 1488.41 80.6203  11
   0   2  -8 1610.20 278.735  38
   0  -2   8 1654.73 81.3689  25
   0  -2   8 1853.91 91.2964  24
   0  -2   8 1543.95 81.9740  32
   0  -2   8 1625.53 82.8987  30
   0  -2   8 1744.99 88.1212   9
   0  -2   8 1692.81 90.2733  41
   0   2  -8 1724.80 269.891  37
   0  -2   8 1718.25 91.5355  21
   0  -2   7 292.689 36.2806  11
   0  -2   7 273.624 38.9056  41
   0  -2   7 326.838 35.9666  33
   0   2  -7 281.042 106.786  37
   0  -2   7 114.478 85.3850  34
   0  -2   7 229.631 32.8201   2
   0  -2   6 18151.0 802.895  34
   0  -2   6 17229.4 261.592   2
   0   2  -6 17498.1 785.852  37
   0  -2   6 18200.6 278.766  41
   0  -2   5 58028.9 568.481  41
   0  -2   5 57119.2 1340.60  34
   0   2  -5 55348.3 1026.36   1
   0  -2   4 17849.3 671.501  34
   0  -2   4 18667.2 252.191  41
   0  -2   3 3125.03 254.357  34
   0   2  -3 2806.82 232.229   1
   0   2  -2 490.746 85.6030  36
   0  -2   2 546.011 105.169  34
   0  -2   2 551.588 109.153   4
   0  -2   1 45504.7 818.780  34
   0  -2   1 44661.4 942.679   4
   0   2   0 5997.47 293.104  36
   0  -2   0 6257.98 251.710  34
   0  -2   0 6306.27 338.413   4
   0  -2  -1 149088. 1915.71   4
   0   2   1 148906. 1819.18  36
   0  -2  -1 153848. 1280.04  39
   0  -2  -1 153880. 1709.31  38
   0  -2  -2 81879.8 876.579  39
   0   2   2 83083.6 1319.04  36
   0  -2  -2 81852.4 1336.70   4
   0  -2  -3 5419.23 319.902   4
   0  -2  -3 5525.94 289.804  38
   0   2   3 5384.66 331.608  36
   0   2   4 47379.0 1100.79  36
   0  -2  -4 47393.6 1012.49   4
   0  -2  -4 48462.3 957.233  38
   0  -2  -5 2160.04 209.875  38
   0   2   5 2467.00 265.711  35
   0   2   5 2102.22 243.971  36
   0   2   5 2216.80 199.241   1
   0   2   6 9778.89 185.289   2
   0   2   6 10688.6 197.201  41
   0   2   6 9958.90 399.252   1
   0   2   6 10777.1 602.800  35
   0   2   6 10524.7 574.193  36
   0  -2  -6 10531.4 499.072  38
   0   2   7 5617.97 148.056   2
   0  -2  -7 5568.49 399.595  38
   0   2   7 5942.54 457.165  36
   0   2   7 6066.33 483.882  35
   0   2   7 5817.54 155.720  41
   0  -2  -8 844.438 166.307  38
   0   2   8 826.733 60.8591   2
   0   2   8 801.779 188.965  36
   0   2   8 718.859 60.1168  41
   0   2   8 674.547 185.154  35
   0   2   9 1353.18 273.843  35
   0   2   9 1477.86 88.4729   8
   0   2   9 1316.32 244.495  34
   0   2   9 1232.94 78.7433  11
   0   2   9 1387.45 83.9999   2
   0  -2  -9 1333.51 232.717  38
   0   2   9 1235.58 81.6869  41
   0   2  10 191.008 141.255  35
   0   2  10 189.186 38.1835  41
   0   2  10 133.916 111.800  34
   0   2  10 196.800 35.0366  11
   0   2  10 255.648 42.5522   2
   0   2  10 183.320 35.6659   9
   0  -2 -10 115.715 103.933  38
   0   2  11 476.382 61.1439   2
   0   2  11 448.967 55.0880  41
   0   2  11 421.107 50.4722   9
   0  -2 -11 325.295 144.217  38
   0   2  11 386.823 43.5771  31
   0   2  11 407.920 49.3384  11
   0   2  11 292.198 93.6604  34
   0   2  12 4452.19 155.285  11
   0   2  12 3978.98 158.097  33
   0   2  12 3898.99 134.113  31
   0   2  12 4004.06 149.693   9
   0  -2 -12 3356.61 449.886  38
   0   2  12 4429.80 174.766   2
   0   2  12 3956.99 163.687  41
   0   2  12 3230.02 408.866  34
   0   2  13 16823.6 332.623  33
   0   2  13 15374.6 305.934   9
   0  -2 -13 13031.6 942.656  38
   0   2  13 17182.8 348.083  27
   0   2  13 14706.8 276.334  31
   0  -2 -13 16597.3 386.712  15
   0   2  13 18512.3 372.663   2
   0   2  13 16458.7 351.121  41
   0   2  13 17626.1 331.377  25
   0   2  13 17647.4 321.905  11
   0  -2 -14 633.585 73.5709  15
   0   2  14 696.335 71.6341   2
   0   2  14 654.060 65.1370  25
   0  -2 -14 151.514 92.3469  39
   0  -2 -14 118.572 143.954  38
   0   2  14 570.573 65.8758  41
   0   2  14 632.528 65.7795  28
   0   2  14 681.406 62.3769  11
   0   2  14 720.865 68.5157  27
   0   2  14 587.462 56.8663   9
   0   2  14 707.610 66.2681  33
   0   2  15 24.9793 25.1713  11
   0   2  15 20.5234 28.0419  25
   0   2  15-30.1983 24.0414  27
   0   2  15 6.06378 23.4230  41
   0   2  15 16.2567 23.2888  33
   0   2  15 38.5278 28.1467  28
   0  -2 -15 60.4635 32.5921  15
   0   2  16 845.468 66.2946  41
   0   2  16 1033.42 68.1839  25
   0   2  16 1034.07 64.2781  33
   0   2  16 1086.85 64.7376  11
   0   2  16 1081.26 71.2215  28
   0   2  16 1116.59 67.8352  27
   0  -2 -17 132.933 31.0561  14
   0   2  17 108.177 20.8074  11
   0   2  17 89.9487 23.7512  41
   0   2  17 108.028 22.5592  28
   0   2  17 114.599 22.0305  25
   0   2  17 88.4856 19.1460  33
   0  -3  15 453.406 33.3108  33
   0  -3  15 456.632 34.6349  25
   0  -3  15 446.503 34.1670  31
   0  -3  14 1232.86 63.9926  33
   0  -3  14 1306.42 67.6129  31
   0  -3  14 1345.46 70.6623  11
   0  -3  14 1282.39 66.4551  25
   0  -3  14 1150.60 59.1430  30
   0  -3  14 1197.70 58.9505  28
   0  -3  13 23.2788 25.2463  31
   0  -3  13 21.9526 17.6519  30
   0  -3  13 8.33525 22.9656  11
   0  -3  13-6.61457 19.8571  33
   0  -3  13-3.65562 20.4563  25
   0  -3  13-10.6939 18.7522  28
   0  -3  12 1021.48 71.5715  11
   0  -3  12 1136.23 76.1413  31
   0  -3  12 1051.19 68.3627  25
   0  -3  12 921.733 61.0900  32
   0  -3  12 1088.57 70.1598  33
   0  -3  12 1110.88 69.5772  30
   0  -3  12 1064.22 68.6365  28
   0   3 -11 344.355 115.969  38
   0  -3  11 330.313 42.1847  30
   0  -3  11 290.247 40.1574  28
   0  -3  11 269.602 39.2583  25
   0  -3  11 285.018 43.9466  31
   0  -3  11 369.581 174.815  34
   0  -3  11 256.388 38.5065  32
   0  -3  11 322.734 43.6281  33
   0  -3  11 298.615 44.2390  11
   0  -3  10 4213.62 143.805  33
   0  -3  10 3904.73 139.682  32
   0  -3  10 4070.24 142.815  30
   0  -3  10 3868.35 487.319  34
   0  -3  10 4684.01 158.821  24
   0  -3  10 3936.96 135.191  28
   0  -3  10 4149.05 151.061  21
   0   3 -10 4395.52 544.856  38
   0  -3  10 4196.74 148.816  31
   0  -3  10 4085.49 145.205  11
   0  -3  10 4111.75 142.988  25
   0  -3   9 9778.93 219.951  33
   0  -3   9 9870.53 224.021  32
   0  -3   9 9532.48 223.331  11
   0  -3   9 9537.71 226.565  29
   0  -3   9 10081.1 233.446  21
   0   3  -9 9682.31 773.022  38
   0  -3   9 9478.33 722.724  34
   0  -3   9 10149.1 229.798  31
   0  -3   9 9749.71 220.672  25
   0  -3   9 9858.65 224.058  30
   0  -3   9 9588.42 212.537  28
   0  -3   9 9712.81 232.815   9
   0  -3   9 10913.0 247.511  24
   0  -3   8 64.2425 24.7099  25
   0  -3   8 48.1584 29.0741  29
   0  -3   8 61.0825 22.6011  28
   0  -3   8 44.1877 24.4090  32
   0  -3   8 34.4452 19.4232  11
   0  -3   8 54.3063 29.3016  21
   0  -3   8 60.8063 27.2948  31
   0  -3   8 74.8939 21.8521  33
   0  -3   8 69.9851 28.2663   9
   0  -3   8 66.5198 22.3534   2
   0  -3   8 88.3761 31.5631  24
   0  -3   8 69.9432 24.8345  30
   0   3  -8 107.615 115.604  37
   0  -3   8 161.048 104.694  34
   0  -3   7 15170.1 272.074  21
   0  -3   7 14458.5 255.233   2
   0  -3   7 14963.2 259.751  33
   0  -3   7 14942.7 813.578  34
   0  -3   7 14702.9 264.891  31
   0  -3   7 14844.5 264.292  30
   0  -3   7 14836.5 283.012  12
   0  -3   7 15190.5 272.065  32
   0   3  -7 16408.5 892.834  37
   0  -3   7 14681.1 279.456  29
   0  -3   7 14563.7 262.301  11
   0  -3   7 14868.8 273.827   9
   0  -3   7 14533.1 249.205  28
   0  -3   7 16434.6 287.881  24
   0  -3   7 15157.7 259.915  25
   0  -3   6 923.605 59.5688  11
   0  -3   6 882.901 57.7799  31
   0  -3   6 902.985 57.9382  30
   0  -3   6 910.023 57.1681  25
   0   3  -6 778.072 201.396  37
   0  -3   6 852.647 58.3607   9
   0  -3   6 832.769 54.1988  33
   0  -3   6 778.291 179.012  34
   0   3  -5 16898.4 701.758   1
   0  -3   5 16777.9 758.431  34
   0  -3   4 26029.6 890.334  34
   0   3  -4 26388.5 914.733   1
   0   3  -3 589.149 109.121  36
   0   3  -3 288.326 100.411   1
   0  -3   3 493.845 112.724  34
   0  -3   2 9700.89 450.727  34
   0  -3   2 8882.23 518.852   4
   0   3  -2 8869.53 419.638  36
   0  -3   1 8784.05 403.641  34
   0   3  -1 7773.78 415.107  36
   0  -3   1 8163.06 494.475   4
   0  -3   0 2869.52 284.595   4
   0  -3   0 2729.57 214.805  34
   0   3   0 2389.08 236.704  36
   0   3   1 87672.1 1567.83  36
   0  -3  -1 86897.8 1675.89   4
   0   3   2 78950.6 1504.08  36
   0  -3  -2 81103.1 1348.17  38
   0  -3  -2 74902.8 1540.70   4
   0  -3  -3 50757.8 718.925  39
   0  -3  -3 48410.8 1229.91   4
   0  -3  -3 50011.4 1067.08  38
   0  -3  -4 8737.52 449.898  38
   0  -3  -4 8441.73 516.486   4
   0  -3  -4 8400.22 326.964  39
   0   3   4 8156.26 508.872  36
   0  -3  -5 8604.35 470.249  38
   0   3   5 8694.22 496.961   1
   0   3   5 8316.05 543.396  36
   0   3   5 7451.32 151.774   2
   0   3   6 19257.7 294.010  41
   0  -3  -6 20149.2 767.187  38
   0   3   6 18153.4 274.549   2
   0   3   6 19786.1 875.024  36
   0   3   6 20203.6 763.576   1
   0   3   7 3388.54 125.729  41
   0   3   7 3840.80 315.485   1
   0   3   7 3747.24 124.275   2
   0   3   7 3715.58 404.875  35
   0  -3  -7 3499.74 343.789  38
   0   3   7 4053.23 418.646  36
   0   3   8 350.687 163.684  36
   0   3   8 219.020 35.3135   2
   0   3   8 196.121 37.5598  41
   0   3   8 155.218 100.333  35
   0  -3  -8 186.671 108.339  38
   0   3   9 39.6830 23.6838   9
   0   3   9 18.5788 25.6019   2
   0   3   9 94.5483 97.8531  36
   0   3   9 11.3075 19.7710  16
   0   3   9 43.6510 27.5342  41
   0   3   9-65.1648 103.999  35
   0  -3  -9 68.8256 92.9497  38
   0   3   9 42.3861 22.1389  11
   0  -3  -9-14.9821 26.7431  10
   0   3   9-6.24564 24.2512   8
   0   3  10 4123.24 425.316  34
   0   3  10 4349.01 145.286  11
   0  -3 -10 4201.65 170.332  10
   0   3  10 4218.08 150.453  16
   0   3  10 3831.31 138.714   9
   0   3  10 3654.20 498.437  35
   0   3  10 4231.19 156.647  41
   0   3  10 4411.06 163.779   2
   0  -3 -10 3970.35 447.314  38
   0   3  10 4565.53 168.068   8
   0   3  11 2484.03 115.328   9
   0   3  11 2943.43 143.820   2
   0  -3 -11 2327.14 379.182  38
   0   3  11 2249.02 323.261  34
   0   3  11 2677.36 122.651  16
   0   3  11 2938.34 136.831  41
   0  -3 -11 2793.23 139.045  10
   0   3  11 2391.86 433.649  35
   0   3  11 2848.41 121.495  11
   0   3  12 310.176 52.7217   2
   0   3  12 235.636 40.5808   9
   0   3  12 308.042 52.0142  41
   0   3  12 256.054 44.3947  11
   0  -3 -12 252.052 57.0392  15
   0  -3 -12 324.016 162.135  38
   0   3  13 24.5382 30.3500  11
   0   3  13 2.13291 30.3425  41
   0  -3 -13 161.207 139.993  38
   0   3  13-2.47549 24.2720  33
   0  -3 -13 44.8655 42.6141  15
   0   3  13 25.4413 32.7369   2
   0  -3 -13 52.9279 89.5922  39
   0   3  13-14.4467 25.2208   9
   0   3  14 2990.74 131.520  25
   0   3  14 2784.94 139.625  41
   0   3  14 2591.68 112.308   9
   0  -3 -14 3003.91 160.431  15
   0   3  14 2753.70 128.789  33
   0   3  14 2927.68 122.301  11
   0   3  14 3055.08 140.948  27
   0   3  15-24.3491 25.0033  11
   0   3  15 20.7021 23.1951  27
   0   3  15 13.6087 22.3872  33
   0   3  15 35.5189 26.2178  41
   0   3  15 78.2188 34.2647  28
   0   3  15 54.2043 29.1627  25
   0  -3 -15-8.91921 29.3720  15
   0   3  16 251.774 36.6729  28
   0  -3 -16 307.086 48.6977  15
   0   3  16 313.043 40.1471  27
   0   3  16 246.928 35.1711  33
   0   3  16 208.834 35.0019  41
   0   3  16 273.633 36.7187  25
   0   3  16 309.547 38.1576  11
   0   3  17 348.916 35.0303  28
   0   3  17 309.127 37.2986  41
   0   3  17 317.841 33.2214  25
   0   3  17 337.085 33.7733  27
   0   3  17 294.310 30.3896  33
   0  -3 -17 299.455 42.5152  14
   0  -4  14 64.4163 18.7569  31
   0  -4  14 67.9820 18.1185  25
   0  -4  14 91.4584 19.0238  33
   0  -4  13 148.012 28.6524  31
   0  -4  13 143.351 26.5336  33
   0  -4  13 117.428 23.3907  25
   0  -4  13 149.231 26.5448  30
   0  -4  12 522.180 47.4152  32
   0  -4  12 583.208 55.7556  31
   0  -4  12 614.494 49.6900  33
   0  -4  12 624.304 50.2069  30
   0  -4  12 637.125 48.3618  28
   0  -4  12 570.358 49.2253  25
   0  -4  12 620.757 54.8162  11
   0  -4  11 9282.27 216.245  11
   0  -4  11 9444.90 214.331  30
   0  -4  11 8605.94 191.094  28
   0  -4  11 9275.60 207.564  33
   0  -4  11 9244.48 208.690  25
   0  -4  11 8739.22 205.095  32
   0  -4  11 9455.30 218.224  31
   0  -4  10 1969.70 99.7499  29
   0   4 -10 1942.68 372.339  38
   0  -4  10 2158.76 102.290  30
   0  -4  10 2171.27 99.9008  33
   0  -4  10 2049.54 102.700  32
   0  -4  10 2181.73 108.863  24
   0  -4  10 2099.16 103.848  31
   0  -4  10 2036.73 93.0348  28
   0  -4  10 2028.62 100.039  11
   0  -4  10 2172.11 101.432  25
   0  -4  10 1962.06 341.282  34
   0  -4   9 1392.63 84.1836  30
   0  -4   9 1194.93 83.0536  29
   0  -4   9 1310.04 271.889  34
   0  -4   9 1439.89 87.1757  31
   0  -4   9 1322.36 79.0820  33
   0  -4   9 1239.20 72.8003  28
   0  -4   9 1430.08 83.4672  25
   0  -4   9 1262.84 81.2674  32
   0  -4   9 1409.00 87.5615  11
   0   4  -9 1150.80 285.230  38
   0  -4   9 1320.15 81.6485  21
   0  -4   9 1365.41 86.6351  24
   0  -4   8 2867.55 117.133  31
   0  -4   8 2792.90 115.521  30
   0  -4   8 3105.28 126.641  24
   0  -4   8 2637.46 103.134  28
   0  -4   8 2701.19 115.334  11
   0  -4   8 2938.68 128.825  29
   0  -4   8 2731.42 111.580  33
   0   4  -8 2753.17 427.916  37
   0  -4   8 2770.03 122.145  32
   0  -4   8 2683.97 110.832  25
   0  -4   8 3002.89 415.040  34
   0  -4   7 481.120 45.2121  28
   0  -4   7 607.467 59.7161  24
   0  -4   7 561.308 51.1410  30
   0  -4   7 521.383 48.4115  25
   0  -4   7 513.870 50.1574  11
   0  -4   7 467.333 56.9167  29
   0  -4   7 581.894 190.872  34
   0  -4   7 536.528 52.6719  31
   0   4  -7 631.523 232.404  37
   0  -4   7 455.950 51.6933  32
   0  -4   7 498.488 45.8840  33
   0  -4   6 1791.21 93.8616  24
   0  -4   6 1599.75 94.3509  29
   0  -4   6 1593.03 78.8026  33
   0  -4   6 1614.19 87.4381  32
   0  -4   6 1583.59 80.9319  30
   0  -4   6 1622.32 83.6232  31
   0  -4   6 1691.39 85.0019  11
   0  -4   6 1713.45 276.988  34
   0   4  -6 1608.91 315.045  37
   0  -4   6 1633.00 80.3809  25
   0  -4   6 1685.71 76.2929  28
   0  -4   5 6015.22 167.378  24
   0  -4   5 5470.14 150.015  30
   0   4  -5 6003.29 496.241   1
   0  -4   5 5652.40 171.727  29
   0  -4   5 5545.27 150.431  31
   0  -4   5 5737.72 147.216  25
   0  -4   5 5631.28 145.455  33
   0  -4   5 5601.67 150.533  11
   0  -4   5 5765.31 158.379  32
   0  -4   5 5524.97 472.670  34
   0  -4   4 15098.3 256.689   3
   0   4  -4 16142.3 825.854   1
   0  -4   4 16317.0 754.898  34
   0  -4   3 34137.6 1038.99  34
   0   4  -3 32966.9 912.867  36
   0  -4   3 31135.7 399.091   3
   0   4  -3 33276.4 1190.21   1
   0  -4   2 7906.98 463.479  34
   0   4  -2 7402.10 448.121  36
   0  -4   2 7052.00 166.520   3
   0   4  -2 7260.01 544.802   1
   0   4  -1 22375.9 960.998   1
   0   4  -1 23255.5 836.105  36
   0  -4   1 23883.9 766.227  34
   0  -4   0 1849.88 84.3239   3
   0   4   0 1928.51 246.659  36
   0  -4   0 1908.85 282.542   4
   0  -4   0 2063.86 216.771  34
   0  -4  -1 96.4300 91.0261   4
   0   4   1 154.009 86.1114  36
   0  -4  -1 181.701 28.9781   3
   0   4   2 634.258 164.028  36
   0  -4  -2 596.117 49.2963   3
   0  -4  -2 666.059 174.434   4
   0   4   3 14995.6 758.908  36
   0  -4  -3 15425.4 792.691   4
   0  -4  -3 15123.0 253.564   3
   0  -4  -3 15405.5 679.680  38
   0  -4  -4 5748.40 228.069  39
   0  -4  -4 6436.57 518.178   4
   0   4   4 6176.91 502.123  36
   0  -4  -4 6531.21 452.980  38
   0  -4  -4 6229.48 158.148   3
   0   4   4 6847.32 521.876   1
   0  -4  -5 2056.41 91.5532   3
   0   4   5 2369.75 312.326   1
   0  -4  -5 2173.64 277.278  38
   0  -4  -5 1951.72 168.981  39
   0   4   5 2004.04 297.705  36
   0   4   6 3624.67 120.707   2
   0   4   6 4120.05 449.797  36
   0   4   6 4245.22 414.641   1
   0  -4  -6 4354.08 292.181  39
   0  -4  -6 4228.72 386.886  38
   0  -4  -6 3738.79 126.641   3
   0  -4  -7 532.161 48.2362   3
   0  -4  -7 663.095 128.057  39
   0  -4  -7 563.420 168.155  38
   0   4   7 610.160 164.671   1
   0   4   7 598.519 54.3090   2
   0   4   7 567.622 57.5772  41
   0   4   7 617.794 192.278  36
   0  -4  -8 28527.4 983.625  39
   0  -4  -8 29100.4 476.032  10
   0   4   8 30236.1 447.409   8
   0   4   8 27676.1 1262.71  35
   0   4   8 31188.3 1082.52   1
   0   4   8 30741.9 427.967   2
   0   4   8 30841.6 1341.27  36
   0  -4  -8 27956.3 1131.63  38
   0   4   8 28388.6 431.273  41
   0   4   9 3198.58 446.965  36
   0   4   9 3141.12 134.451  16
   0   4   9 2548.66 111.602   9
   0   4   9 3039.13 442.604  35
   0  -4  -9 3110.82 151.280  10
   0  -4  -9 2774.96 371.608  38
   0  -4  -9 2898.27 333.957  39
   0   4   9 3252.63 139.999   8
   0   4   9 3495.14 141.258   2
   0   4   9 3094.50 133.192  41
   0  -4 -10 373.112 145.477  39
   0   4  10 198.063 37.1646  11
   0   4  10 288.781 49.0754   8
   0   4  10 265.558 45.6551   2
   0  -4 -10 287.233 51.5668  10
   0   4  10 367.813 182.356  35
   0   4  10 290.847 44.5969  16
   0  -4 -10 47.2389 89.9452  38
   0   4  10 120.794 105.461  36
   0   4  10 299.209 47.6083  41
   0   4  10 228.688 38.8953   9
   0  -4 -11 947.382 270.469  38
   0   4  11 896.787 76.5944  41
   0   4  11 817.948 71.7494  11
   0   4  11 953.977 79.4842  16
   0   4  11 989.888 297.088  35
   0  -4 -11 986.721 92.3013  10
   0   4  11 1003.54 86.6322   2
   0   4  11 774.847 67.9218   9
   0   4  11 1047.88 85.1956   8
   0  -4 -12-18.1681 32.0399  10
   0   4  12 17.9617 25.7716   9
   0   4  12 69.7598 29.8723  16
   0  -4 -12 60.1362 45.1855  15
   0  -4 -12 147.099 126.111  38
   0   4  12 26.1459 23.3277  11
   0   4  12 64.4786 33.2822  41
   0   4  12 70.3724 132.746  35
   0   4  12 14.2324 27.5232   2
   0   4  13-14.7394 22.9319   9
   0   4  13-8.52482 27.0345  41
   0  -4 -13-17.0310 30.7498  10
   0  -4 -13 6.78653 33.0831  15
   0   4  13-15.6684 27.9228  11
   0  -4 -14 188.121 51.8607  15
   0   4  14 141.805 34.9730  33
   0   4  14 182.290 41.4958  41
   0   4  14 168.288 42.4104  27
   0   4  14 118.847 30.5860  11
   0  -4 -15 5331.39 204.385  15
   0   4  15 4514.77 139.606  11
   0   4  15 4444.05 166.823  41
   0   4  15 5046.27 157.520  25
   0   4  15 5337.54 177.065  27
   0   4  15 4583.76 162.562  28
   0   4  15 4462.14 149.682  33
   0   4  16 252.130 36.5519  33
   0   4  16 274.802 40.0745  41
   0  -4 -16 357.490 50.2141  15
   0   4  16 343.816 39.5285  25
   0   4  16 349.312 42.3134  28
   0   4  16 419.622 48.4270  27
   0   4  17 144.076 24.7345  33
   0   4  17 218.547 29.0189  28
   0  -4 -17 254.396 33.8791  15
   0  -4 -17 215.948 36.8300  14
   0   4  17 193.291 25.0426  25
   0   4  17 262.236 31.1179  27
   0  -5  13 38.6299 14.6538  25
   0  -5  13 41.2002 17.0607  31
   0  -5  13-5.79292 11.7369  33
   0  -5  12-4.26405 16.5564  33
   0  -5  12 18.1265 18.2845  32
   0  -5  12 5.48163 21.9009  25
   0  -5  12 23.5481 20.3800  31
   0  -5  11 363.168 40.5424  33
   0  -5  11 306.173 38.7215  32
   0  -5  11 356.908 39.1139  25
   0  -5  11 329.874 40.0133  31
   0  -5  11 344.120 39.4985  30
   0  -5  10 754.361 61.2480  29
   0  -5  10 721.214 50.3744  24
   0  -5  10 793.254 64.7468  31
   0  -5  10 735.730 60.8020  32
   0  -5  10 857.899 64.1368  30
   0  -5  10 856.432 60.9147  25
   0  -5  10 870.778 63.4011  33
   0  -5   9 4033.23 146.317  32
   0   5  -9 3229.19 489.080  38
   0  -5   9 3992.05 141.834  11
   0  -5   9 4091.72 142.896  30
   0  -5   9 4245.47 153.581  24
   0  -5   9 3374.83 451.936  34
   0  -5   9 3916.65 147.426  29
   0  -5   9 3704.17 119.100  28
   0  -5   9 3987.68 135.515  33
   0  -5   9 3968.20 141.644  31
   0  -5   9 4009.44 135.237  25
   0   5  -8 2045.58 401.575  37
   0  -5   8 2515.47 124.217  29
   0  -5   8 2502.94 117.297  24
   0  -5   8 2340.78 109.731  11
   0  -5   8 2578.61 120.547  32
   0  -5   8 2103.68 356.945  34
   0  -5   8 2359.23 95.9840  28
   0  -5   8 2374.89 107.026  25
   0  -5   8 2354.25 105.487  33
   0  -5   8 2486.25 110.118  31
   0  -5   8 2430.28 113.787  30
   0  -5   7 480.075 69.2907  29
   0   5  -7 199.899 151.824  37
   0  -5   7 381.130 49.0789  24
   0  -5   7 434.310 51.3974  30
   0  -5   7 335.730 42.7673  25
   0  -5   7 362.124 136.426  34
   0  -5   7 393.739 50.5317  32
   0  -5   7 404.105 47.1086  33
   0  -5   7 347.122 46.8445  11
   0  -5   7 398.558 46.8697  31
   0  -5   6 82.7070 26.6292  25
   0  -5   6 41.5805 26.1911  20
   0  -5   6 88.2113 30.8635  31
   0  -5   6 87.4904 33.6735  29
   0  -5   6-1.53432 92.6751  34
   0  -5   6 61.2204 25.3885  33
   0  -5   6 54.3642 35.8990  24
   0  -5   6 75.1503 29.5944  11
   0  -5   6 85.4284 31.2718  32
   0  -5   6 64.1103 27.5199  30
   0   5  -6-25.7645 149.799  37
   0  -5   5 13059.2 253.987  31
   0  -5   5 12407.6 251.783  30
   0  -5   5 12681.1 284.361  20
   0  -5   5 12760.3 246.558  25
   0  -5   5 13663.4 279.736  24
   0  -5   5 13382.1 266.179  32
   0  -5   5 13024.2 242.699  33
   0  -5   5 13225.7 292.414  29
   0  -5   5 13558.2 791.055  34
   0   5  -5 13601.5 850.693   1
   0  -5   5 12608.3 254.449  11
   0  -5   4 2299.43 107.935  24
   0  -5   4 2249.35 95.5188  25
   0   5  -4 2526.51 375.319   1
   0  -5   4 2203.75 96.7347  31
   0  -5   4 2200.17 93.3956  33
   0  -5   4 2212.62 305.490  34
   0  -5   4 2188.40 98.7640  30
   0  -5   4 2116.26 101.525  32
   0  -5   4 2200.00 114.664  20
   0  -5   4 2223.19 113.185  29
   0  -5   3 1569.18 92.1870   3
   0  -5   3 1603.95 94.2693  20
   0  -5   3 1642.26 84.1388  32
   0  -5   3 1702.69 253.940  34
   0  -5   3 1555.61 78.4974  33
   0  -5   3 1565.51 77.1782  25
   0  -5   3 1535.11 81.0934  30
   0   5  -3 1563.33 303.576   1
   0  -5   3 1684.44 92.8006  24
   0  -5   3 1627.85 93.8690  29
   0  -5   3 1667.96 80.1844  31
   0  -5   2 6770.76 189.823   3
   0   5  -2 7118.47 504.003  36
   0  -5   2 6437.42 160.092  33
   0  -5   2 7307.03 504.883  34
   0   5  -2 7379.80 638.830   1
   0  -5   2 6857.17 188.217  29
   0  -5   2 6837.53 165.980  30
   0  -5   2 7023.68 198.709  20
   0  -5   2 6996.82 174.831  32
   0   5  -1 1015.17 200.712  36
   0  -5   1 1036.74 75.3309   3
   0   5  -1 1077.21 252.497   1
   0  -5   1 1079.84 181.562  34
   0  -5   0 1543.52 89.1673   3
   0   5   0 1625.96 316.900   1
   0   5   0 1629.54 258.624  36
   0   5   1 83.7243 101.307   1
   0  -5  -1 103.666 31.6616   3
   0   5   1 107.066 101.034  36
   0   5   2 27173.9 1130.02  36
   0   5   2 28656.6 1227.77   1
   0  -5  -2 25033.3 379.243   3
   0  -5  -3 171.056 33.9035   3
   0   5   3 90.5090 110.602   1
   0   5   3 173.380 123.422  36
   0   5   4 3304.16 420.300  36
   0   5   4 3626.52 438.177   1
   0  -5  -4 3119.94 125.843   3
   0  -5  -5 196.161 36.3233   3
   0   5   5 162.867 108.742  36
   0   5   5 168.250 123.832   1
   0  -5  -5 165.661 104.133  38
   0   5   6 532.607 53.5705   8
   0  -5  -6 445.778 51.6446   3
   0  -5  -6 418.425 143.845  38
   0  -5  -6 460.260 56.1950  10
   0   5   6 400.014 151.272   1
   0   5   6 536.545 192.831  36
   0  -5  -7 1232.46 82.7426  19
   0  -5  -7 1174.33 247.486  38
   0   5   7 1221.22 83.2405   8
   0  -5  -7 1146.56 89.6065  10
   0   5   7 1298.14 274.097   1
   0  -5  -7 1177.99 82.4881   3
   0   5   7 1074.45 270.464  36
   0   5   8 625.078 64.2910   8
   0   5   8 748.938 248.054  36
   0  -5  -8 595.606 69.4792  10
   0  -5  -8 596.751 197.749  38
   0   5   8 773.806 203.845   1
   0   5   8 682.325 66.2508  41
   0   5   8 445.403 183.086  35
   0   5   9 3058.98 141.458  16
   0  -5  -9 2731.01 402.519  38
   0   5   9 3121.07 144.627   8
   0   5   9 3012.45 472.145  36
   0   5   9 2535.89 416.874  35
   0  -5  -9 3146.86 161.008  10
   0   5   9 2847.65 134.278  41
   0   5  10 168.750 40.9047  41
   0   5  10 179.324 35.4735  16
   0   5  10 119.392 150.760  36
   0  -5 -10 142.807 42.4680  10
   0   5  10 118.660 139.565  35
   0   5  10 105.431 28.7729   9
   0  -5 -10 172.604 137.150  38
   0   5  10 271.300 48.7469   8
   0  -5 -10 240.439 49.8912  15
   0  -5 -11 652.719 82.6585  15
   0   5  11 712.666 73.6181   8
   0   5  11 488.179 60.8818  41
   0   5  11 538.529 230.275  35
   0   5  11 450.194 51.7993   9
   0   5  11 562.118 61.1536  11
   0  -5 -11 508.055 189.900  38
   0  -5 -11 635.035 76.9326  10
   0   5  11 539.279 64.7027  16
   0   5  12 90.2077 27.6659   9
   0  -5 -12 89.3989 37.9949  15
   0   5  12 59.0016 28.5258  11
   0   5  12 86.6264 103.458  35
   0  -5 -12 127.409 40.7281  10
   0  -5 -12 2.47779 80.2199  38
   0   5  12 97.1459 29.1063  16
   0   5  12 94.2214 35.1910  41
   0   5  13 12.9073 20.6341  16
   0  -5 -13-31.6982 28.4691  10
   0   5  13 73.9147 34.9635  41
   0   5  13 142.415 131.896  35
   0   5  13 35.9948 28.5424  11
   0  -5 -13-69.4619 142.571  38
   0  -5 -13 64.5995 40.4477  15
   0   5  14-20.8806 21.9311  11
   0   5  14 12.9802 24.8262  27
   0  -5 -14 31.3283 40.8932  15
   0   5  14 8.63211 24.5190  41
   0   5  14 28.3200 18.0765  16
   0  -5 -14 20.8110 23.9260  10
   0   5  15 86.9914 28.0803  41
   0   5  15 84.9262 26.0361  28
   0  -5 -15 113.054 35.9082  15
   0   5  15 104.225 33.3833  27
   0   5  15 155.741 31.9400  25
   0   5  15 97.8890 27.7041  33
   0   5  16 92.2601 25.0207  25
   0   5  16 169.104 32.6850  27
   0   5  16 94.4517 26.1271  33
   0   5  16 97.9758 25.7605  28
   0   5  16 89.6826 23.6715  41
   0  -5 -16 103.571 30.7810  15
   0  -6  11 661.759 46.9530  32
   0  -6  11 648.720 45.5278  25
   0  -6  11 804.007 48.8883  33
   0  -6  11 678.980 49.0159  31
   0  -6  10 353.138 37.9289  25
   0  -6  10 401.896 43.4778  31
   0  -6  10 286.979 34.7012  29
   0  -6  10 425.822 42.2653  33
   0  -6  10 426.173 45.2240  32
   0  -6   9 291.452 39.1611  25
   0  -6   9 329.962 43.4795  31
   0  -6   9 325.963 43.5012  32
   0  -6   9 293.068 38.7976  33
   0  -6   9 201.635 32.5927  24
   0  -6   9 274.492 41.9992  29
   0  -6   9 323.938 45.6466  30
   0  -6   8 3109.38 122.222  31
   0  -6   8 3058.97 136.110  29
   0  -6   8 2936.38 115.189  25
   0  -6   8 3009.33 126.162  30
   0  -6   8 3188.80 131.917  32
   0  -6   8 3071.78 128.342  24
   0  -6   8 2916.03 119.106  33
   0  -6   7 54.8145 28.9519  30
   0  -6   7 116.206 35.9630  32
   0   6  -7 11.9812 152.559  37
   0  -6   7 131.467 32.7314  25
   0  -6   7-51.5664 76.5238  34
   0  -6   7 61.4190 27.5609  33
   0  -6   7 73.1932 32.6945  29
   0  -6   7 71.3515 32.4959  24
   0  -6   7 49.7564 25.0540  31
   0  -6   7 67.6285 30.1796  20
   0  -6   6 7.62635 22.1352  33
   0  -6   6-3.69787 21.1709  25
   0  -6   6 35.5268 85.9655  34
   0  -6   6 38.5935 30.4463  32
   0  -6   6 18.6383 33.2063  29
   0  -6   6 32.9175 31.5179  24
   0  -6   6-8.12403 24.2424  30
   0  -6   6 49.4287 28.9014  20
   0  -6   6 20.8135 21.4209  31
   0  -6   5 23.1525 29.4150  32
   0  -6   5-21.1626 20.2484  31
   0  -6   5 17.0664 21.6648  33
   0  -6   5-77.5669 33.7404  24
   0  -6   5-57.7843 94.3950  34
   0   6  -5 112.965 157.770  37
   0  -6   5 20.7481 34.5021  29
   0  -6   5 34.9145 22.2377  25
   0  -6   5 11.5059 23.1422  30
   0  -6   5 2.15588 24.7900  20
   0  -6   4 1885.86 99.8156  30
   0  -6   4 1804.06 105.750  19
   0  -6   4 1880.91 115.947  29
   0  -6   4 1861.79 103.466  24
   0  -6   4 1761.06 111.508  20
   0  -6   4 1753.77 93.1577  25
   0  -6   4 1937.36 103.383  32
   0   6  -4 1694.34 353.576   1
   0  -6   4 1612.81 302.450  34
   0  -6   4 1808.69 93.8326  33
   0  -6   4 1983.00 95.7774  31
   0  -6   3 581.905 67.1907  20
   0  -6   3 493.362 51.6919  25
   0   6  -3 504.893 196.453   1
   0  -6   3 590.196 55.9519  33
   0  -6   3 561.072 66.7533  29
   0  -6   3 668.442 65.4099  24
   0  -6   3 560.783 53.2007  31
   0  -6   3 539.558 57.4771  30
   0  -6   3 550.077 176.450  34
   0  -6   3 633.583 60.1148  32
   0  -6   3 581.456 63.7501  19
   0  -6   2 113.066 30.2073  24
   0  -6   2 116.351 32.6704  33
   0  -6   2 179.416 35.1503  32
   0  -6   2 138.913 41.6459  20
   0  -6   2 145.901 34.8429  30
   0  -6   2 106.880 27.2425  25
   0   6  -2 225.889 147.807   1
   0  -6   2 109.595 28.4664  31
   0  -6   2 145.846 43.4498  29
   0  -6   2 114.654 36.0132   3
   0  -6   1 4.91587 25.0450  20
   0  -6   1 29.2755 15.9033  25
   0   6  -1 52.1532 92.0611   1
   0  -6   1 18.4976 25.2656  29
   0  -6   1 0.13748 20.4419  32
   0  -6   1-38.9172 28.6468  24
   0  -6   1 6.60563 26.4898   3
   0  -6   1 1.09584 16.9485  31
   0   6  -1 82.9530 112.564  36
   0   6   0 28.3341 70.8454  36
   0  -6   0 22.3091 22.4497  24
   0  -6   0 1.44095 26.1014   3
   0  -6   0 24.0417 23.4533  29
   0  -6   0 58.8446 22.5032  32
   0   6   0 108.063 86.6515   1
   0  -6   0 12.3502 25.3874   6
   0  -6   0 19.7440 23.3991  20
   0  -6  -1 4833.01 179.419  20
   0  -6  -1 5241.13 181.625   3
   0  -6  -1 4570.73 163.051  24
   0   6   1 4998.14 592.804   1
   0  -6  -1 5240.10 151.886  32
   0   6   1 5033.58 526.082  36
   0  -6  -1 5183.39 182.338   6
   0  -6  -1 4923.37 162.642  29
   0  -6  -2 4721.08 171.524   3
   0   6   2 4814.07 535.375  36
   0  -6  -2 4665.06 170.672  20
   0   6   2 5008.30 588.183   1
   0  -6  -2 4596.84 170.469   6
   0  -6  -2 4779.63 153.228  29
   0  -6  -3 12329.7 276.105  10
   0  -6  -3 12900.7 289.624  19
   0  -6  -3 12825.1 289.179   3
   0   6   3 13688.5 926.718  36
   0  -6  -3 12965.9 291.293  20
   0  -6  -3 12533.0 291.073   6
   0  -6  -4 12199.3 283.413   3
   0  -6  -4 12276.5 286.388  19
   0   6   4 12630.0 917.803  36
   0  -6  -4 12043.7 283.291  10
   0   6   4 13701.3 978.069   1
   0  -6  -4 12570.1 286.535  20
   0  -6  -4 11881.7 283.147   6
   0   6   5 10.4876 94.5064   1
   0  -6  -5 62.7923 28.1279   3
   0   6   5 26.0829 104.193  36
   0  -6  -5 87.5294 32.8996  15
   0  -6  -5 88.6502 32.2631  10
   0   6   5 73.4594 23.3741   8
   0  -6  -5 120.355 33.2152  20
   0  -6  -5 103.610 33.7265  19
   0   6   6 1517.94 96.1668   8
   0  -6  -6 1538.26 101.359  19
   0   6   6 1422.11 338.044  36
   0  -6  -6 1522.63 103.096   3
   0  -6  -6 1510.99 95.0386  20
   0   6   6 1824.83 364.476   1
   0  -6  -6 1550.20 105.921  15
   0  -6  -6 1498.86 106.212  10
   0  -6  -7 89.8164 37.1339  15
   0   6   7-17.4499 107.641  36
   0  -6  -7 48.8095 30.2333   3
   0   6   7 56.6959 29.7660   8
   0  -6  -7 23.8931 23.2667  19
   0   6   7 150.073 149.034   1
   0  -6  -7-17.7742 109.556  38
   0  -6  -7 78.4808 34.7736  10
   0  -6  -8 55.6447 37.9639  15
   0   6   8-103.947 78.6772   1
   0   6   8-3.91595 100.097  36
   0  -6  -8-28.6203 33.6668  10
   0  -6  -8 91.1303 118.455  38
   0   6   8-10.1803 26.9748  41
   0   6   8 30.8739 25.9773   8
   0  -6  -8 36.0673 24.4699  19
   0   6   9-5.69418 100.438  36
   0  -6  -9 166.902 146.847  38
   0   6   9 28.0597 35.9091  16
   0   6   9-31.6350 26.2595   8
   0   6   9-17.4589 26.6600  41
   0  -6  -9-6.39134 41.1274  15
   0   6   9-56.7077 173.473  35
   0  -6  -9 13.4176 31.4955  10
   0   6  10 1784.72 392.406  35
   0  -6 -10 2294.44 147.328  15
   0   6  10 2369.41 132.577   8
   0  -6 -10 1773.24 382.710  38
   0   6  10 2175.30 129.474  16
   0  -6 -10 2292.12 146.526  10
   0   6  10 1981.71 119.203  41
   0   6  10 1514.26 94.5363   9
   0   6  10 1817.39 413.422  36
   0   6  11-32.2755 90.2883  36
   0  -6 -11 23.3365 42.1040  15
   0   6  11 54.7447 32.4424   8
   0   6  11-5.30873 30.7847  41
   0   6  11 24.6287 30.5343  16
   0  -6 -11 161.062 110.012  38
   0   6  11 84.9280 164.012  35
   0   6  11 10.6041 24.8732  11
   0  -6 -11 47.7173 41.8409  10
   0   6  11 39.1185 28.9046   9
   0  -6 -12 193.848 178.119  38
   0   6  12 273.456 43.8271  11
   0   6  12 242.618 42.3798   9
   0  -6 -12 311.389 57.4818  10
   0  -6 -12 365.968 65.6119  15
   0   6  12 363.740 56.1863  16
   0   6  12 252.201 49.4133  41
   0   6  12 252.209 175.296  35
   0   6  13 46.3099 26.2960  16
   0  -6 -13 122.364 48.2770  15
   0  -6 -13 70.9854 35.2237  10
   0   6  13 31.0175 31.0298  41
   0   6  13 41.1431 21.6001  11
   0   6  14 56.2350 23.1228  16
   0  -6 -14 12.1177 33.0127  15
   0   6  14 66.1162 30.9522  27
   0   6  14 117.194 35.2047  41
   0  -6 -14 93.7553 37.6641  10
   0  -6 -15 136.738 43.4647  15
   0   6  15 87.4424 24.3515  41
   0   6  15 81.7367 23.7909  33
   0   6  15 118.892 27.9144  27
   0   6  15 83.1311 25.5613  28
   0  -6 -15 135.587 30.0305  10
   0   6  15 90.1293 25.7862  25
   0   6  16 391.843 39.7183  27
   0  -6 -16 507.124 54.6791  14
   0  -6 -16 477.824 53.2816  15
   0   6  16 204.446 28.9469  33
   0   6  16 305.571 33.3836  28
   0   6  16 303.695 31.5459  25
   0  -7  10 11.0758 15.3916  32
   0  -7  10 28.1241 12.5776  25
   0  -7  10 39.2133 18.1195  31
   0  -7   9 23.0182 20.3072  31
   0  -7   9 3.56195 19.7769  29
   0  -7   9 50.7935 23.1000  32
   0  -7   9 18.0404 14.6654  25
   0  -7   8 20.6419 24.7211  29
   0  -7   8 31.2094 20.0728  31
   0  -7   8 8.54018 26.6237  32
   0  -7   8-3.30539 18.2453  25
   0  -7   8 7.89224 21.0753  24
   0  -7   7 261.606 43.0842  32
   0  -7   7 261.876 46.1326  29
   0  -7   7 239.000 38.6203  31
   0  -7   7 177.664 34.1298  20
   0  -7   7 181.911 36.6432  24
   0  -7   7 244.901 37.8110  25
   0  -7   6 2.68178 19.0243  25
   0  -7   6 23.8906 25.4007  24
   0  -7   6 67.9271 33.9254  32
   0  -7   6 5.07262 32.0248  29
   0  -7   6 11.7692 21.8143  31
   0  -7   6 45.3050 26.9537  20
   0  -7   5 15.2216 27.9512  20
   0   7  -5 143.916 152.531  37
   0  -7   5 30.7467 33.9663  29
   0  -7   5 69.0733 26.7667  25
   0  -7   5 45.3435 32.5187  32
   0  -7   5 17.3226 23.9188  31
   0  -7   5 53.7459 27.8945  24
   0  -7   4 56.3500 44.6266  20
   0  -7   4 72.4498 32.0045  17
   0  -7   4-3.34530 26.6328  24
   0   7  -4-10.0465 109.919  37
   0  -7   4 17.7947 26.4794  19
   0  -7   4 12.7223 21.1167  31
   0  -7   4 8.73708 20.5510  25
   0  -7   4 0.49230 34.2598  29
   0  -7   4 20.4715 26.9339  32
   0  -7   3 1362.63 103.151  20
   0  -7   3 1160.31 83.6949  25
   0  -7   3 1390.47 91.1484  24
   0  -7   3 1444.67 107.502  29
   0   7  -3 1149.87 352.085   1
   0  -7   3 1367.91 94.6560  19
   0  -7   3 1592.20 99.3869  32
   0  -7   3 1256.41 81.5042  31
   0  -7   2 279.807 52.0721  20
   0  -7   2 274.423 51.9594  29
   0  -7   2 215.562 46.8403  19
   0  -7   2 210.727 37.6845  31
   0  -7   2 271.660 43.2135  32
   0   7  -2 181.557 139.470   1
   0  -7   2 253.995 45.9833  24
   0  -7   1 5879.40 203.308  19
   0  -7   1 5757.28 193.784  29
   0  -7   1 5564.16 186.316  24
   0  -7   1 5928.03 180.436  32
   0  -7   1 6081.21 210.764  20
   0   7  -1 5949.43 730.334   1
   0  -7   0-21.5768 32.0388  29
   0  -7   0-8.33344 30.7359   3
   0   7   0 120.288 162.897   1
   0  -7   0 13.2279 24.2477  32
   0  -7   0 6.19534 29.1659  19
   0  -7   0-20.8975 27.6308  20
   0  -7   0 39.4053 27.2402  24
   0  -7  -1 518.382 71.4175  20
   0  -7  -1 579.531 64.3952  24
   0   7   1 558.784 217.906  36
   0  -7  -1 661.103 66.8178  29
   0  -7  -1 556.844 64.9743  19
   0  -7  -1 594.705 58.5893  32
   0   7   1 713.796 277.308   1
   0  -7  -1 697.161 78.4744   3
   0  -7  -2 112.091 33.3556  24
   0  -7  -2 173.916 43.9232  20
   0   7   2 372.185 222.966   1
   0  -7  -2 214.486 52.4444   3
   0  -7  -2 168.503 37.5404  29
   0  -7  -2 160.771 32.6199  32
   0   7   2 208.451 147.231  36
   0  -7  -2 152.935 42.5944  19
   0   7   3 3963.11 564.339  36
   0  -7  -3 3720.97 172.980  20
   0  -7  -3 3893.35 170.383  19
   0   7   3 3984.88 594.569   1
   0  -7  -3 3663.06 156.692  10
   0  -7  -3 4036.90 177.782   3
   0  -7  -4 8.86647 25.4794  20
   0  -7  -4-5.41859 35.0294   3
   0  -7  -4 4.92758 25.8877  19
   0  -7  -4 29.3651 29.6928  10
   0   7   4 51.5020 146.795   1
   0   7   5 1306.37 87.5509   8
   0  -7  -5 1436.14 109.637   3
   0  -7  -5 1424.81 104.659  10
   0   7   5 1625.77 398.756   1
   0  -7  -5 1497.32 108.135  20
   0   7   5 1227.75 343.594  36
   0  -7  -5 1527.18 108.044  19
   0  -7  -6 563.866 64.9381  15
   0   7   6 739.533 268.344   1
   0  -7  -6 577.865 66.0575  20
   0  -7  -6 532.317 69.4017   3
   0   7   6 694.461 264.739  36
   0   7   6 551.208 60.7695   8
   0  -7  -6 654.314 77.1479  19
   0  -7  -6 636.446 70.4186  10
   0  -7  -7 180.537 47.1911  10
   0  -7  -7 104.957 35.0519  15
   0   7   7 198.566 154.528   1
   0   7   7 203.620 159.026  36
   0  -7  -7 202.115 40.8950  20
   0   7   7 138.909 33.8628   8
   0  -7  -7 172.902 42.0781  19
   0  -7  -8 292.998 52.9157  19
   0   7   8 282.073 50.6828   8
   0  -7  -8 311.428 54.3861  15
   0   7   8 78.9012 156.559  36
   0   7   8 245.671 48.5151  41
   0  -7  -8 234.875 51.3649  10
   0   7   8 366.347 229.095   1
   0   7   8 227.863 51.7824  16
   0   7   9 598.505 70.8054  41
   0  -7  -9 752.357 73.7155  19
   0  -7  -9 765.664 75.8197  17
   0   7   9 715.012 253.799  36
   0   7   9 707.421 78.9723  16
   0  -7  -9 679.749 81.5389  15
   0   7   9 791.658 77.4977   8
   0   7   9 773.127 274.968  35
   0  -7  -9 833.569 90.7411  10
   0  -7 -10 68.6247 37.0364  15
   0   7  10 178.269 114.359  36
   0  -7 -10 17.7281 31.2079  10
   0   7  10-6.75646 29.2109  16
   0   7  10 12.9507 24.4187   9
   0   7  10-36.4706 137.987  35
   0   7  10 54.1340 29.1859   8
   0   7  10-1.08429 27.6794  41
   0  -7 -11 236.638 55.9931  15
   0   7  11 173.089 161.021  36
   0   7  11 205.931 47.7070  16
   0   7  11 164.454 41.2291  41
   0   7  11 153.286 35.6409   9
   0  -7 -11 251.848 57.1116  10
   0   7  11 328.442 58.7672   8
   0   7  11 248.988 138.009  35
   0  -7 -12 182.672 46.3210  10
   0  -7 -12 180.856 47.9046  15
   0   7  12 107.440 33.8934  41
   0   7  12 145.024 41.0926  16
   0   7  13 11.4815 20.8809  41
   0  -7 -13 2.28365 31.6227  10
   0  -7 -13 40.4603 35.2622  15
   0   7  13 9.95213 23.8503  16
   0   7  13-7.04486 21.5269  27
   0   7  14 501.837 54.9397  27
   0   7  14 420.219 46.7587  16
   0   7  14 352.555 45.9308  41
   0  -7 -14 555.512 68.3388  15
   0  -7 -14 506.281 58.7004  10
   0   7  15 67.5349 18.1033  28
   0   7  15 91.4602 22.0675  25
   0  -7 -15 122.257 32.3576  14
   0   7  15 78.4612 20.0671  33
   0  -7 -15 226.641 42.2154  15
   0   7  15 174.395 31.6393  27
   0  -7 -15 147.111 30.2629  10
   0  -8   8-5.26311 17.9986  29
   0  -8   8 41.6640 19.7830  32
   0  -8   8 26.3660 16.1992  31
   0  -8   7 80.8526 27.6214  32
   0  -8   7 58.4431 20.9650  31
   0  -8   7 81.9954 28.4617  29
   0  -8   6-23.2997 19.2310  20
   0  -8   6-41.2278 26.7116  32
   0  -8   6-13.0937 27.3046  29
   0  -8   6-14.5816 18.4026  31
   0  -8   5 1804.97 107.395  20
   0  -8   5 1618.50 85.2246  24
   0  -8   5 1826.58 86.4417  31
   0  -8   5 1935.51 98.2517  32
   0  -8   4 158.811 41.2705  20
   0  -8   4 202.415 46.9865  29
   0  -8   4 200.825 37.4340  17
   0  -8   4 175.793 31.0618  31
   0  -8   4 185.342 41.1458  32
   0  -8   4 213.147 37.3737  19
   0  -8   4 144.238 34.4268  24
   0  -8   3 6241.13 202.774  17
   0  -8   3 7070.10 196.920  32
   0  -8   3 6532.14 174.489  31
   0  -8   3 6736.18 218.581  29
   0   8  -3 6291.70 778.629  37
   0  -8   3 6030.97 186.835  24
   0  -8   3 6713.27 225.408  20
   0  -8   3 6707.02 204.388  19
   0  -8   2-31.0904 28.1958  24
   0  -8   2-4.54805 32.2033  29
   0  -8   2 7.94884 26.1647  19
   0   8  -2-129.363 190.818  37
   0  -8   2-5.33855 33.0396  20
   0  -8   2 28.3055 27.9369  17
   0  -8   2 23.9175 28.5668  32
   0  -8   2 119.270 40.5154  23
   0  -8   1 3411.52 163.451  20
   0  -8   1 3493.89 140.580  32
   0  -8   1 3331.48 149.917  29
   0  -8   1 3280.66 154.607  19
   0   8  -1 2769.36 526.628   1
   0  -8   1 2732.90 130.104  24
   0  -8   0 407.151 54.6695  29
   0  -8   0 453.965 65.6456  20
   0  -8   0 305.793 47.2845  24
   0  -8   0 428.287 53.2533  32
   0   8   0 382.218 224.422   1
   0  -8   0 366.873 59.9236  19
   0  -8  -1 153.878 45.2979  20
   0  -8  -1 263.386 51.3899  19
   0  -8  -1 128.366 32.0067  24
   0  -8  -1 271.536 44.4735  32
   0  -8  -1 185.969 43.5683  29
   0   8   1 234.083 179.477   1
   0  -8  -2 268.999 50.9330  19
   0   8   2 227.949 211.293   1
   0   8   2 236.179 217.971  36
   0  -8  -2 272.725 42.6830  32
   0  -8  -2 132.565 36.3762  29
   0  -8  -2 233.035 47.0584  24
   0  -8  -2 294.259 59.5658  20
   0  -8  -3 5.13640 22.8382  10
   0  -8  -3-3.83646 28.8188  20
   0   8   3 20.8487 136.952  36
   0   8   3 196.416 196.351   1
   0  -8  -3 17.8218 32.5417  19
   0  -8  -3-0.23256 27.1529  24
   0  -8  -4 185.354 51.0153  19
   0  -8  -4 142.309 38.4130  10
   0  -8  -4 112.987 42.9964  20
   0   8   4 91.3345 101.408  36
   0  -8  -4 66.7258 32.5651  24
   0  -8  -5 1120.63 98.5655  19
   0   8   5 898.951 322.538   1
   0  -8  -5 1046.42 93.2292  20
   0   8   5 802.862 296.604  36
   0  -8  -5 1046.80 88.9460  10
   0   8   6 6.06063 113.618   1
   0  -8  -6 142.433 42.0190  20
   0  -8  -6 145.409 45.8962  19
   0  -8  -6 101.103 37.6648  10
   0  -8  -7 236.476 54.5043  17
   0   8   7 195.575 47.4340  16
   0  -8  -7 189.549 42.6549  15
   0   8   7 185.482 45.8791  41
   0  -8  -7 232.184 51.5833  10
   0  -8  -7 268.277 52.9832  19
   0  -8  -7 222.391 44.5562  20
   0   8   7 9.20620 123.240  36
   0   8   7 310.007 214.218   1
   0   8   7 204.065 39.0216   8
   0   8   8 576.708 70.0921  41
   0  -8  -8 696.592 74.2106  15
   0   8   8 722.727 80.3254  16
   0  -8  -8 744.179 77.2209  19
   0   8   8 624.887 286.376  36
   0   8   8 733.557 70.3316   8
   0  -8  -8 672.935 81.2764  10
   0  -8  -8 629.764 73.9886  17
   0  -8  -9 28.9652 33.3903  10
   0   8   9 3.35312 30.6105  16
   0   8   9 9.86161 98.0852  35
   0   8   9 53.0021 31.4902  41
   0   8   9-13.0580 24.9917   8
   0  -8  -9 15.3545 24.5533  15
   0  -8  -9 19.7527 24.9369  19
   0   8   9-65.9333 181.321  36
   0  -8  -9 37.1609 31.1748  17
   0   8  10 22.9681 27.6879  41
   0   8  10 96.2129 33.3369   8
   0   8  10 119.731 39.4644  16
   0  -8 -10 82.8920 32.1502  15
   0  -8 -10 137.539 45.7102  10
   0   8  10 40.2641 21.8202   9
   0   8  11 213.839 43.0319  41
   0   8  11 333.792 53.6741  16
   0  -8 -11 234.901 51.5346  10
   0  -8 -11 194.046 46.1551  15
   0  -8 -12 1560.49 108.964  15
   0  -8 -12 1744.07 103.809  18
   0   8  12 1513.62 90.0435  27
   0   8  12 1335.90 88.0537  41
   0   8  12 1716.71 104.244  16
   0  -8 -12 1627.65 110.044  10
   0   8  13 140.042 29.5727  27
   0   8  13 136.373 33.1075  16
   0  -8 -13 167.046 38.7632  15
   0  -8 -13 160.845 32.6205  18
   0   8  13 81.7582 27.8107  41
   0  -8 -13 139.059 37.4525  10
   0  -8 -14-12.2981 22.3001  15
   0  -8 -14 23.5318 21.1763  10
   0   8  14 31.9069 17.9420  16
   0   8  14 3.26382 14.6220  27
   0  -9   6 119.301 24.2886  32
   0  -9   6 73.0527 23.4991  29
   0  -9   5 237.321 34.3929  20
   0  -9   5 264.726 37.7519  32
   0  -9   5 205.250 34.9948  29
   0  -9   4 511.255 54.7958  29
   0  -9   4 472.873 51.6583  20
   0  -9   4 489.380 48.7663  32
   0  -9   3 1848.94 91.9032  19
   0  -9   3 2175.64 106.800  29
   0  -9   3 2170.57 100.840  32
   0  -9   3 1792.78 90.4616  17
   0  -9   3 2147.44 114.558  20
   0  -9   2 1563.65 93.8736  19
   0  -9   2 1527.57 94.7092  17
   0  -9   2 1666.97 97.3427  29
   0   9  -2 1510.88 98.8243  40
   0  -9   2 1819.43 112.111  20
   0  -9   2 1783.59 92.6228  32
   0  -9   1 2368.22 130.686  20
   0  -9   1 2300.38 121.983  19
   0  -9   1 2444.94 128.399  17
   0  -9   1 2548.91 110.644  32
   0  -9   1 2441.12 117.745  29
   0  -9   0 220.987 52.3204  20
   0  -9   0 209.136 49.4148  17
   0  -9   0 104.211 36.2889  19
   0  -9   0 149.247 35.5937  32
   0  -9   0 150.418 35.5148  29
   0  -9  -1 711.086 75.2842  19
   0  -9  -1 672.408 59.3491  32
   0  -9  -1 419.833 52.0422  24
   0  -9  -1 616.101 74.4633  17
   0  -9  -1 657.705 65.2882  29
   0  -9  -1 675.436 78.8522  20
   0  -9  -2-47.6611 30.0922  24
   0   9   2-22.6291 22.2994  16
   0  -9  -2-12.1045 33.9971  17
   0  -9  -2-83.1027 30.5350  32
   0  -9  -2 20.6665 31.5433  20
   0  -9  -2 10.4960 29.1507  19
   0  -9  -2 6.60739 26.7462  29
   0  -9  -3-9.93242 25.2700  24
   0  -9  -3 26.4183 33.8435  17
   0  -9  -3 32.3529 36.9670  19
   0   9   3 28.8992 25.5273  16
   0  -9  -3 26.3059 33.6546  20
   0  -9  -4 24.4394 30.5563  20
   0  -9  -4 18.9416 18.2242  10
   0   9   4-13.2250 30.2694  16
   0  -9  -4-24.2367 30.6910  24
   0  -9  -4-11.0052 32.3821  19
   0  -9  -4-24.2973 37.8712  17
   0  -9  -5-33.7490 35.9203  19
   0  -9  -5-7.28428 27.1270  20
   0  -9  -5 42.7433 37.9312  17
   0   9   5 47.0758 31.6781  16
   0  -9  -5-1.28160 21.2920  10
   0  -9  -5-8.49194 30.7352  24
   0   9   6-50.6194 31.3086  16
   0  -9  -6-2.54383 25.3265  24
   0  -9  -6 24.5106 28.8566  10
   0  -9  -6-14.0169 30.6936  17
   0  -9  -6 56.8396 29.9217  20
   0  -9  -6-3.77798 29.8310  19
   0   9   6 21.8822 26.7604  41
   0  -9  -7 742.866 74.1866  10
   0   9   7 526.099 63.5979  41
   0  -9  -7 755.865 74.2905  20
   0  -9  -7 401.228 58.4851  24
   0   9   7 690.778 74.3346  16
   0  -9  -7 676.803 74.5317  17
   0  -9  -7 822.131 82.3575  19
   0  -9  -8 389.027 59.8960  17
   0   9   8 441.021 57.9287  40
   0   9   8 323.107 53.9874  41
   0  -9  -8 405.197 57.5600  19
   0  -9  -8 416.988 58.8433  10
   0   9   8 473.562 61.1884  16
   0  -9  -9 187.291 41.5283  17
   0  -9  -9 223.328 46.7960  10
   0   9   9 134.467 32.2840  41
   0   9   9 206.097 44.5797  16
   0   9   9 184.606 37.2358  40
   0  -9 -10 1165.96 79.6899  15
   0   9  10 1371.82 96.1323  16
   0  -9 -10 1474.63 101.213  10
   0  -9 -11 269.411 46.2258  18
   0  -9 -11 302.411 48.8464  10
   0   9  11 349.348 50.0384  16
   0  -9 -11 250.803 39.0773  15
   0  -9 -12 218.008 40.0963  10
   0  -9 -12 207.273 37.3054  18
   0   9  12 204.433 36.0044  16
   0  -9 -12 138.421 28.6509  15
   0  -9 -13 38.6720 21.9418  10
   0  -9 -13-2.13544 18.9982  15
   0   9  13 16.0486 14.4561  16
   0 -10   3 102.607 23.9712  20
   0 -10   3 72.3277 20.4964  32
   0 -10   3 94.8660 23.2180  29
   0 -10   2 528.209 46.5562  29
   0 -10   2 528.808 42.0623  32
   0 -10   2 597.324 53.1836  20
   0 -10   1 446.399 45.5874  17
   0 -10   1 465.013 44.3257  29
   0 -10   1 552.883 49.1844  19
   0 -10   1 558.970 55.2464  20
   0  10  -1 478.594 49.8797  40
   0 -10   1 464.819 41.5715  32
   0  10   0 1236.80 85.1102  40
   0 -10   0 1310.66 82.8605  17
   0 -10   0 1359.92 83.2299  19
   0 -10   0 1522.86 91.3667  20
   0 -10   0 1332.08 72.7446  29
   0 -10  -1 624.438 62.4087  20
   0 -10  -1 367.692 47.7207  23
   0  10   1 487.155 58.3610  40
   0 -10  -1 454.181 42.8851  29
   0 -10  -1 538.799 58.7371  17
   0 -10  -1 541.346 57.0045  19
   0 -10  -2 144.613 37.8744  17
   0 -10  -2 127.392 29.9597  18
   0 -10  -2 153.383 38.2270  19
   0 -10  -2 122.918 35.5291  20
   0  10   2 188.309 42.2512  40
   0 -10  -3 25.2817 26.9507  17
   0  10   3-22.8871 24.9850  40
   0 -10  -3-36.6924 28.9150  19
   0 -10  -3-25.0179 30.9045  20
   0  10   4-6.71960 20.6469  16
   0 -10  -4-3.31233 24.0128  20
   0 -10  -4 12.1515 28.9199  19
   0  10   4 17.4596 26.2336  40
   0 -10  -4 1.41455 29.0304  17
   0 -10  -5 126.965 40.1641  17
   0 -10  -5 180.609 42.6305  19
   0  10   5 164.013 38.9209  40
   0  10   5 160.306 36.0859  16
   0 -10  -5 102.708 29.8619  20
   0  10   6-35.7590 20.7692  16
   0 -10  -6 28.7936 26.0208  17
   0 -10  -6 59.8612 26.5158  20
   0 -10  -6-5.07828 26.0870  19
   0  10   6 44.0388 29.2397  40
   0 -10  -7 39.0453 19.3201  10
   0  10   7 127.789 34.9765  40
   0 -10  -7 74.9747 34.4872  17
   0 -10  -7 63.0006 29.8880  19
   0  10   7 48.8093 27.4776  16
   0 -10  -7 55.2870 23.6086  20
   0 -10  -8 56.7382 24.6423  17
   0 -10  -8 0.80292 18.6150  10
   0  10   8 17.0458 19.3144  40
   0  10   8-7.62524 22.1276  16
   0  10   9 1522.93 86.9446  16
   0 -10  -9 1384.78 80.7710  10
   0 -10  -9 1335.46 75.6005  17
   0 -10  -9 1343.22 85.6885  18
   0 -10 -10 571.269 54.4399  18
   0 -10 -10 567.698 51.4724  10
   0  10  10 557.513 51.6793  16
   1 -10  -9 16.2131 17.3080  10
   1 -10  -9 48.8703 19.5347  18
   1 -10  -9 15.8491 19.0205  24
  -1  10   9 19.0323 16.4727  16
   1 -10  -8 88.8132 26.1953  24
   1 -10  -8 105.003 29.3320  17
  -1  10   8 78.8102 24.8544  16
   1 -10  -8 70.1929 24.5144  18
   1 -10  -8 104.077 25.4778  10
   1 -10  -7 42.4005 23.3775  20
  -1  10   7 37.7933 20.3171  16
  -1  10   7-6.17290 20.4027  41
   1 -10  -7 31.4538 21.5560  18
   1 -10  -7 13.1694 21.9311  17
   1 -10  -7 78.1701 28.6535  24
  -1  10   6 85.6264 22.7312  16
  -1  10   6 92.1867 28.8062  41
   1 -10  -6 88.4702 27.6487  20
   1 -10  -6 82.8239 29.2611  17
   1 -10  -6 58.7328 30.0715  18
   1 -10  -6 81.6122 26.6562  24
   1 -10  -5-25.0375 23.9081  18
  -1  10   5-9.22214 17.2938  16
   1 -10  -5-1.71313 20.6281  24
   1 -10  -5 33.3471 27.4407  17
   1 -10  -4 70.8817 31.9892  24
   1 -10  -4 32.4924 29.0991  20
   1 -10  -4 11.8088 27.8667  17
   1 -10  -4 16.1187 20.8226  18
   1 -10  -3 438.668 50.3574  24
   1 -10  -3 633.489 63.4182  17
   1 -10  -3 420.954 47.6474  18
   1 -10  -3 606.428 61.4885  23
   1 -10  -3 545.481 56.1041  20
   1 -10  -2 31.1488 27.2839  17
   1 -10  -2 30.6299 24.5209  20
   1 -10  -2 17.8243 25.0885  23
   1 -10  -2-6.03650 21.3759  24
   1 -10  -1 314.493 41.9607  20
   1 -10  -1 262.478 41.6911  23
   1 -10  -1 339.680 46.9893  17
   1 -10  -1 380.277 40.6343  29
   1 -10  -1 238.425 37.5674  24
   1 -10   0 448.443 43.9100  24
   1 -10   0 532.161 52.5258  23
   1 -10   0 562.106 44.3817  29
   1 -10   0 714.675 59.9236  20
   1 -10   0 668.661 59.1817  17
   1 -10   1 152.411 28.4113  29
   1 -10   1 209.193 32.8295  17
   1 -10   1 242.487 37.1401  20
   1 -10   2 127.296 26.0859  20
   1 -10   2 114.139 26.0781  29
  -1   9  12 479.782 44.2667  16
   1  -9 -12 405.144 41.4415  15
   1  -9 -12 432.339 45.6864  10
   1  -9 -12 327.531 35.3762  18
   1  -9 -11 2375.94 103.562  15
   1  -9 -11 2543.99 115.429  10
   1  -9 -11 2428.95 108.747  18
  -1   9  11 2489.59 107.155  16
  -1   9  10 54.1891 28.2166  16
   1  -9 -10-4.69595 20.5031  15
   1  -9 -10 5.77097 25.9137  10
  -1   9  10 51.8919 28.8503  41
   1  -9 -10 56.6292 25.9178  18
   1  -9  -9 2496.65 126.071  10
   1  -9  -9 2572.99 129.977  18
  -1   9   9 2495.64 125.483  16
  -1   9   9 2014.13 117.398  41
   1  -9  -9 2234.62 108.709  17
   1  -9  -9 2193.00 105.847  15
   1  -9  -8 30.9562 30.8635  10
   1  -9  -8 38.0120 28.3795  18
   1  -9  -8 13.6684 27.9901  17
  -1   9   8 16.4109 26.1946  41
   1  -9  -8-6.83831 21.2842  20
  -1   9   8 38.2022 27.3458  16
   1  -9  -7 343.104 56.1868  18
   1  -9  -7 311.101 47.5879  10
   1  -9  -7 304.253 50.3166  20
  -1   9   7 311.715 51.0504  16
  -1   9   7 280.238 52.3478  41
   1  -9  -7 341.565 54.4672  17
   1  -9  -6 134.113 44.6126  18
  -1   9   6 77.1017 33.6996  16
   1  -9  -6 60.6402 27.4731  10
   1  -9  -6 80.1522 38.9532  17
   1  -9  -6 114.504 37.4087  20
   1  -9  -6 62.8060 35.8455  24
   1  -9  -5-4.32462 29.2517  20
   1  -9  -5 44.3716 34.5613  18
   1  -9  -5 29.6491 31.0636  17
   1  -9  -5 25.9832 27.9745  24
  -1   9   5 33.8051 25.9910  16
   1  -9  -5 20.3275 24.7045  10
   1  -9  -4 38.6432 40.4292   3
   1  -9  -4 73.5018 42.0261  17
   1  -9  -4-18.5426 35.2783  24
   1  -9  -4 32.0494 24.1740  10
   1  -9  -4 4.61852 27.7097  20
  -1   9   4-8.38132 20.3050  16
   1  -9  -4-16.1993 31.8533  19
   1  -9  -4 20.7111 31.8537  18
   1  -9  -3 141.409 43.1490  19
   1  -9  -3 103.848 39.6099   3
   1  -9  -3 106.351 40.3255  20
   1  -9  -3 99.3790 43.7008  17
   1  -9  -3 69.6017 27.0812  18
   1  -9  -3 124.729 39.0293  24
   1  -9  -2 4.26187 23.0364  29
   1  -9  -2-31.2361 33.5983  19
   1  -9  -2 13.9342 30.2225   3
   1  -9  -2 20.1667 35.3647  17
   1  -9  -2 12.1741 34.0958  20
   1  -9  -2-10.7164 25.1671  18
   1  -9  -2-39.2720 29.7739  24
   1  -9  -1 601.341 67.4817  19
   1  -9  -1 610.670 71.2145  20
   1  -9  -1 633.758 73.6900  17
   1  -9  -1 568.058 56.1463  29
   1  -9  -1 500.781 63.2067  24
   1  -9  -1 506.400 56.5367  18
   1  -9   0 1940.84 115.183  17
   1  -9   0 1768.67 113.184  23
   1  -9   0 1554.99 104.757  24
   1  -9   0 1909.06 115.536  20
   1  -9   0 1870.78 99.5629  29
   1  -9   0 1787.08 108.137  19
   1  -9   1 306.970 50.1326  24
   1  -9   1 320.515 51.0265  23
   1  -9   1 339.115 49.3898  17
   1  -9   1 394.152 51.1058  29
   1  -9   1 368.964 53.9272  20
   1  -9   1 373.668 47.1259  32
   1  -9   2 154.343 38.3975  20
   1  -9   2 162.403 35.4809  32
   1  -9   2 85.1228 26.9171  23
   1  -9   2 153.370 35.3267  17
   1  -9   2 131.027 37.2998  29
   1  -9   2 103.962 36.4587  24
   1  -9   3 257.770 40.6702  32
   1  -9   3 264.268 39.2231  17
   1  -9   3 225.656 40.2996  24
   1  -9   3 289.969 43.3761  29
   1  -9   3 247.222 40.3029  20
   1  -9   4 169.802 36.1203  29
   1  -9   4 126.486 29.9077  20
   1  -9   4 158.591 30.8971  24
   1  -9   4 142.624 30.4842  32
   1  -9   5 0.40689 17.0640  24
   1  -9   5-8.84971 22.3714  29
   1  -9   5-9.63815 19.5082  32
   1  -9   6 149.521 24.4171  32
   1  -9   6 195.398 29.2609  29
  -1   8  13 19.1699 12.9761  27
  -1   8  13-13.7477 17.5823  16
  -1   8  13 15.7684 19.0569  41
   1  -8 -13-8.97338 19.4277  10
   1  -8 -13-47.5919 28.5682  15
   1  -8 -12 267.671 44.1585  10
  -1   8  12 207.357 30.1615  27
   1  -8 -12 298.001 49.8365  15
  -1   8  12 196.719 38.9955  41
  -1   8  12 321.499 45.8962  16
   1  -8 -12 237.703 37.8033  18
   1  -8 -11 589.973 67.8112  10
  -1   8  11 478.721 57.8045  41
  -1   8  11 374.149 49.2482  11
  -1   8  11 610.585 65.2591  16
   1  -8 -11 558.912 61.3029  18
   1  -8 -11 596.563 67.2388  15
   1  -8 -10 1538.32 106.869  18
  -1   8  10 1252.19 98.0050  41
  -1   8  10 1334.96 99.1602  16
   1  -8 -10 1354.13 100.226  15
   1  -8 -10 1349.87 103.963  10
   1  -8  -9 3646.35 172.762  10
   1  -8  -9 3454.83 167.127  18
  -1   8   9 3379.73 159.750  16
   1  -8  -9 3397.33 158.582  15
   1  -8  -9 3351.86 142.718  17
  -1   8   8 2307.24 134.213  16
  -1   8   8 1960.09 128.483  41
   1  -8  -8 2381.42 139.057  10
   1  -8  -8 2127.74 125.895  15
   1  -8  -8 2227.56 115.356  20
   1  -8  -8 2248.08 128.063  17
   1  -8  -8 2268.32 140.554  18
  -1   8   7 4766.08 674.754   1
   1  -8  -7 4878.16 199.066  17
   1  -8  -7 4228.20 173.882  15
  -1   8   7 4837.44 195.050  16
   1  -8  -7 4976.84 202.930   3
   1  -8  -7 4909.89 198.807  10
  -1   8   7 3997.53 649.714  36
   1  -8  -7 4917.25 183.123  20
   1  -8  -6 48.9884 33.5965  17
   1  -8  -6 62.7103 27.5491  15
   1  -8  -6 42.2735 37.2910   3
   1  -8  -6 17.8387 30.0658  19
   1  -8  -6 103.261 43.1357  10
  -1   8   6-6.73249 123.185  36
   1  -8  -6 38.1145 28.5624  20
  -1   8   6 7.53344 25.6496  16
   1  -8  -5 22.5672 39.8149  17
   1  -8  -5 17.8180 26.7841  10
  -1   8   5-67.5892 133.049   1
   1  -8  -5 33.7015 41.2332   3
  -1   8   5 16.4027 104.757  36
  -1   8   5-15.6765 27.6505  16
   1  -8  -5-29.9551 31.5881  20
   1  -8  -5 33.5825 31.5405  19
   1  -8  -4 154.281 39.2159  10
   1  -8  -4 202.360 53.1953  20
  -1   8   4 178.647 40.8002  16
   1  -8  -4 227.405 45.6680  19
  -1   8   4 278.520 219.830   1
   1  -8  -4 218.031 52.3274  17
   1  -8  -4 170.415 51.0944   3
  -1   8   4 287.192 107.841  36
   1  -8  -3 468.529 63.2922  24
   1  -8  -3 401.904 66.2757  20
   1  -8  -3 473.976 71.6374  17
  -1   8   3 358.949 54.9203  16
   1  -8  -3 414.881 56.1707  10
  -1   8   3 270.627 205.613   1
   1  -8  -3 298.346 60.3177   3
   1  -8  -3 436.735 67.4051  19
  -1   8   3 104.443 140.380  36
   1  -8  -2-17.7302 34.1247  17
   1  -8  -2-2.20025 32.2046  20
   1  -8  -2 15.5068 23.3528  29
   1  -8  -2 33.5136 42.0234   3
  -1   8   2 65.3242 185.479  36
  -1   8   2 149.632 145.249   1
   1  -8  -2-10.5192 33.0867  24
   1  -8  -2-8.46193 31.1212  19
  -1   8   1 62.2783 188.295  36
   1  -8  -1 121.175 50.6489   3
   1  -8  -1 75.3831 35.1029  17
  -1   8   1 42.4312 151.403   1
   1  -8  -1 83.0654 30.6708  29
   1  -8  -1 76.6548 33.4762  18
   1  -8  -1 42.9002 35.1175  19
   1  -8  -1 62.1196 35.2719  20
   1  -8  -1 55.8014 36.4258  24
   1  -8  -1 124.312 37.9982  32
  -1   8   0 578.274 284.078   1
   1  -8   0 590.380 74.7368   3
   1  -8   0 536.611 61.6682  18
   1  -8   0 581.065 68.1530  19
   1  -8   0 488.454 68.6969  17
   1  -8   0 607.298 63.0378  32
   1  -8   0 586.389 72.9959  20
   1  -8   0 631.902 64.1786  29
   1  -8   0 490.712 63.8705  24
   1  -8   1 2099.97 131.068  23
   1  -8   1 2078.25 120.936  19
   1  -8   1 2091.68 127.076  17
   1  -8   1 2232.52 118.141  29
  -1   8  -1 1970.43 466.452   1
   1  -8   1 2231.01 130.120  20
   1  -8   1 2157.66 111.040  32
   1  -8   1 1997.15 122.185  24
   1  -8   1 2242.61 137.381   3
   1  -8   2 5047.63 191.964  24
   1  -8   2 5698.08 179.537  32
   1  -8   2 5525.03 200.334  17
   1  -8   2 5268.53 185.063  19
   1  -8   2 5258.58 196.412  23
   1  -8   2 5507.97 206.107   3
   1  -8   2 5853.35 204.513  20
   1  -8   2 5709.50 189.100  29
   1  -8   3 541.968 61.9604  23
   1  -8   3 554.619 56.0262  19
   1  -8   3 487.118 62.6104  24
   1  -8   3 624.272 65.8918  17
   1  -8   3 530.952 64.1274  20
   1  -8   3 652.609 62.4365  32
   1  -8   3 695.196 68.7985  29
   1  -8   4 1102.42 85.5564  24
   1  -8   4 848.272 72.5772  23
   1  -8   4 1119.36 86.3590  20
   1  -8   4 1217.30 86.0254  29
   1  -8   4 1199.55 80.5559  32
   1  -8   4 1036.42 73.9634  17
   1  -8   5 662.596 62.6409  24
   1  -8   5 846.555 68.7379  20
   1  -8   5 836.391 72.0079  29
   1  -8   5 717.965 64.5970  32
   1  -8   5 659.982 57.9911  31
   1  -8   6 357.007 48.3030  29
   1  -8   6 388.791 47.2469  32
   1  -8   6 271.880 41.8989  24
   1  -8   6 234.962 36.2557  31
   1  -8   7 44.1656 20.8086  24
   1  -8   7 84.9641 25.4737  29
   1  -8   7 84.1573 24.9494  32
   1  -8   8 70.0847 18.9347  24
   1  -8   8 74.7178 21.2169  32
   1  -8   8 106.924 25.7262  29
   1  -7 -14 281.753 40.9127  14
  -1   7  14 240.141 33.8896  27
  -1   7  14 258.638 38.8667  41
   1  -7 -14 254.352 37.9709  10
  -1   7  14 279.269 36.3122  16
   1  -7 -14 247.239 43.8030  15
  -1   7  13 104.515 31.3696  41
   1  -7 -13 139.451 42.6554  15
  -1   7  13 131.571 30.4249  11
  -1   7  13 135.439 31.0793  27
   1  -7 -13 128.594 31.0508  14
  -1   7  13 129.587 30.6183  16
   1  -7 -13 133.306 36.0448  10
  -1   7  12-33.7046 25.6337  11
   1  -7 -12-6.90585 26.9256  10
  -1   7  12 24.7196 29.5904  16
   1  -7 -12-9.89284 24.1375  14
   1  -7 -12-1.41466 32.8802  15
   1  -7 -12-20.7870 21.9694  18
  -1   7  12-8.97317 26.7996  41
  -1   7  12-7.71667 19.6468  27
   1  -7 -11 62.2547 28.9161  14
   1  -7 -11 9.02093 36.3619  15
  -1   7  11 84.8149 35.5355  16
   1  -7 -11 62.7464 30.4984  10
   1  -7 -11 127.455 40.6508  18
  -1   7  11 86.8264 30.3120  27
  -1   7  11 46.2551 28.1113  41
   1  -7 -10 884.129 89.8964  15
   1  -7 -10 916.810 93.9013  10
  -1   7  10 905.579 86.9975  16
   1  -7 -10 910.403 85.7536  18
   1  -7 -10 834.168 74.4994  14
  -1   7  10 825.720 73.2287  27
  -1   7  10 727.408 253.403  36
  -1   7  10 875.314 84.3203  41
  -1   7   9 877.273 87.3072  41
  -1   7   9 848.263 72.4452  27
   1  -7  -9 931.687 91.9142  18
  -1   7   9 727.441 276.449  35
  -1   7   9 909.458 283.611  36
   1  -7  -9 934.423 94.3920  10
   1  -7  -9 995.710 94.7731  15
  -1   7   9 967.203 91.4989  16
   1  -7  -9 856.481 75.5765  14
  -1   7   8 4978.06 201.149  41
  -1   7   8 5259.89 673.009   1
  -1   7   8 5490.77 209.691  16
   1  -7  -8 5580.96 201.728  17
   1  -7  -8 5549.04 184.939  20
   1  -7  -8 5460.89 201.521   3
   1  -7  -8 5664.05 222.992  10
   1  -7  -8 5390.15 214.515  15
  -1   7   8 5105.39 717.750  36
   1  -7  -7 383.878 55.6959  20
  -1   7   7 447.793 240.436  36
   1  -7  -7 319.028 56.9231  15
  -1   7   7 183.274 46.3106  16
   1  -7  -7 450.528 68.6121  10
   1  -7  -7 512.502 68.3595  17
  -1   7   7 420.632 211.265   1
   1  -7  -7 375.737 56.1876   3
   1  -7  -6 392.015 60.6204  17
  -1   7   6 405.217 245.652   1
   1  -7  -6 362.455 54.6403  20
  -1   7   6 297.505 55.7744  16
   1  -7  -6 303.808 55.3886   3
  -1   7   6 200.624 174.859  36
   1  -7  -6 362.837 60.6802  10
   1  -7  -6 297.417 51.7531  15
   1  -7  -6 342.371 57.8859  19
   1  -7  -5 1997.59 124.051  20
   1  -7  -5 2027.88 133.296   3
  -1   7   5 2013.26 122.723  16
   1  -7  -5 1959.83 128.136  17
   1  -7  -5 1889.18 115.228  15
  -1   7   5 2288.49 481.072   1
   1  -7  -5 1996.10 125.951  10
  -1   7   5 2037.31 442.379  36
   1  -7  -5 2098.84 128.454  19
  -1   7   4 85.3844 159.410  36
   1  -7  -4 76.9403 36.1854   3
  -1   7   4 129.902 138.467   1
   1  -7  -4 102.146 36.0267  10
   1  -7  -4 64.8163 34.9797  20
   1  -7  -4 49.6578 28.5536  15
   1  -7  -4 80.5328 35.1344  17
   1  -7  -4 69.9697 33.9213  19
  -1   7   4 83.8918 32.0961  16
   1  -7  -3 78.4026 35.9652  20
   1  -7  -3 33.0867 30.1945  17
   1  -7  -3 82.8612 37.1348   3
  -1   7   3 17.8057 138.570   1
  -1   7   3 207.872 184.703  36
   1  -7  -3 58.1209 32.6962  19
   1  -7  -3 63.6970 32.3705  10
  -1   7   3 63.4448 27.5379  16
   1  -7  -2 412.997 54.3003  32
   1  -7  -2 531.798 70.5635   3
  -1   7   2 609.152 232.884   1
   1  -7  -2 531.087 60.2899  10
  -1   7   2 433.406 56.8409  16
  -1   7   2 666.189 245.584  36
   1  -7  -2 586.336 258.646   4
   1  -7  -2 391.606 63.1835  20
   1  -7  -2 469.848 66.5768  17
   1  -7  -2 551.975 68.9719  24
   1  -7  -2 512.011 66.5472  19
   1  -7  -2 490.549 55.3535  29
   1  -7  -1 68.8444 36.2928  17
   1  -7  -1 131.253 41.0745  19
   1  -7  -1 117.393 36.8000  32
  -1   7   1 137.040 106.909  36
   1  -7  -1 98.1028 33.6641  29
   1  -7  -1 123.200 39.1667   3
  -1   7   1 29.8798 108.213   1
   1  -7  -1 104.340 37.3037  24
   1  -7  -1 71.1343 33.0864  20
   1  -7   0 142.631 43.9095  17
   1  -7   0 48.1589 31.0463  20
   1  -7   0 101.649 39.7784   3
  -1   7   0 192.349 155.537  36
   1  -7   0 111.564 37.6038  29
   1  -7   0 105.209 32.8536  32
  -1   7   0 272.272 188.722   1
   1  -7   0 127.985 38.5625  19
   1  -7   0 98.4797 36.6731  24
   1  -7   1 2513.07 137.781  20
   1  -7   1 2204.97 134.470   3
   1  -7   1 2397.56 119.869  18
   1  -7   1 2546.80 134.352  24
   1  -7   1 2476.98 118.675  32
   1  -7   1 2450.48 124.875  29
   1  -7   1 2405.25 137.782  17
   1  -7   1 2435.82 131.305  19
  -1   7  -1 2409.24 483.755   1
  -1   7  -1 1837.91 372.677  36
   1  -7   2 1603.48 109.813  20
   1  -7   2 1385.26 107.539  23
  -1   7  -2 1913.24 425.438   1
   1  -7   2 1536.18 103.289  19
   1  -7   2 1594.18 112.590  17
   1  -7   2 1560.58 96.3552  32
   1  -7   2 1607.69 105.595  29
   1  -7   2 1584.40 106.124  24
   1  -7   2 1604.17 113.522   3
   1  -7   2 1371.71 85.8759  31
   1  -7   3 6329.29 217.872  23
  -1   7  -3 6683.04 783.860   1
   1  -7   3 6422.65 202.919  19
   1  -7   3 6438.05 213.521  17
   1  -7   3 6649.48 222.236   3
   1  -7   3 7245.73 216.743  24
   1  -7   3 6770.87 197.699  32
   1  -7   3 6635.64 186.853  31
   1  -7   3 6768.38 224.402  20
   1  -7   3 6567.62 213.564  29
   1  -7   4 5645.48 168.613  25
   1  -7   4 5821.82 174.396  31
   1  -7   4 5579.13 195.518  23
   1  -7   4 6101.45 207.894  20
   1  -7   4 5476.53 188.283  17
   1  -7   4 5925.32 198.414  29
   1  -7   4 5655.67 181.276  32
   1  -7   4 6398.00 200.367  24
   1  -7   4 5546.34 195.805   3
   1  -7   5 7384.46 221.671  29
   1  -7   5 7496.14 206.863  32
   1  -7   5 7135.90 192.330  31
   1  -7   5 7045.64 216.293  20
   1  -7   5 6737.17 181.443  25
   1  -7   5 7315.11 195.455  30
   1  -7   5 7329.86 216.314  24
   1  -7   6 637.621 57.7254  31
   1  -7   6 613.140 54.0971  25
   1  -7   6 749.420 71.6943  29
   1  -7   6 617.595 60.2934  20
   1  -7   6 757.738 60.2067  30
   1  -7   6 681.571 64.5527  32
   1  -7   6 659.381 68.1625  24
   1  -7   7 1649.12 86.6938  30
   1  -7   7 1424.80 83.4600  31
   1  -7   7 1576.06 94.0689  29
   1  -7   7 1394.97 79.8137  25
   1  -7   7 1402.01 89.4775  24
   1  -7   7 1528.33 91.5650  32
   1  -7   8 217.792 32.9240  25
   1  -7   8 227.292 34.0885  31
   1  -7   8 257.281 41.3431  29
   1  -7   8 292.794 41.5771  32
   1  -7   8 225.196 36.9880  24
   1  -7   9 23.2037 21.0023  31
   1  -7   9-17.9024 20.1099  29
   1  -7   9 15.8461 16.6724  25
   1  -7   9 28.2910 22.3230  32
   1  -7   9 9.45382 19.8773  24
   1  -7  10 87.3263 20.6714  32
   1  -7  10 95.2053 21.4777  31
   1  -7  10 89.9999 19.0842  29
  -1   6  15 6.06777 19.7641  41
  -1   6  15 5.28854 17.9412  25
  -1   6  15 0.47432 15.8281  27
   1  -6 -15 1.17711 21.9917  14
   1  -6 -15 38.8382 27.7568  15
  -1   6  15 4.52868 16.8003  11
  -1   6  14 969.644 70.9783  27
  -1   6  14 791.457 58.6909  11
  -1   6  14 861.063 70.2479  41
   1  -6 -14 968.216 84.5093  15
   1  -6 -14 1025.23 75.2631  10
   1  -6 -14 1026.97 82.0613  14
  -1   6  14 955.313 67.8290  16
  -1   6  13-17.7931 26.7513  16
  -1   6  13-5.98561 27.8500  41
  -1   6  13-1.09587 23.7913  27
  -1   6  13 21.2530 25.7908  11
   1  -6 -13 35.5594 34.1641  14
   1  -6 -13 37.6322 36.6998  15
   1  -6 -13 7.12507 23.7853  10
   1  -6 -12-11.0813 38.6157  15
  -1   6  12 4.96423 26.6360  27
  -1   6  12 35.0050 28.2288  11
   1  -6 -12-2.61547 29.2272  14
  -1   6  12 22.7752 24.1269  16
  -1   6  12 12.3030 26.1922  41
   1  -6 -12 23.6206 27.3493  10
   1  -6 -11 762.491 244.931  38
   1  -6 -11 1119.87 104.921  15
  -1   6  11 1078.12 91.1731  41
   1  -6 -11 1118.33 91.8160  18
  -1   6  11 796.476 267.177  36
  -1   6  11 1092.02 88.4319  27
   1  -6 -11 1237.92 103.209  10
  -1   6  11 1209.42 97.7045  16
  -1   6  10 7876.23 236.025  27
   1  -6 -10 5951.05 668.669  38
  -1   6  10 8197.55 252.221  16
   1  -6 -10 8154.22 269.076  10
  -1   6  10 5208.51 641.460  35
  -1   6  10 6341.34 752.061  36
   1  -6 -10 8181.00 255.051  18
   1  -6 -10 7943.13 273.433  15
  -1   6  10 7377.44 241.065  41
   1  -6  -9 461.908 201.867  38
   1  -6  -9 597.577 76.0120  15
   1  -6  -9 510.898 69.5294  10
  -1   6   9 509.608 66.6787  16
  -1   6   9 729.496 273.445  36
  -1   6   9 240.366 164.288  35
  -1   6   9 490.008 64.7115  41
  -1   6   8 939.324 88.6334  16
  -1   6   8 576.789 226.098  35
   1  -6  -8 1084.80 86.2162  17
  -1   6   8 965.041 271.217   1
   1  -6  -8 737.732 225.265  38
   1  -6  -8 951.023 90.6621  15
   1  -6  -8 921.931 91.7382  10
   1  -6  -8 937.863 82.5921   3
  -1   6   8 766.986 277.764  36
   1  -6  -7 1.89600 27.2681   3
   1  -6  -7-75.5178 103.391  38
   1  -6  -7 9.90255 25.0839  14
  -1   6   7-69.1966 123.562   1
   1  -6  -7-28.6838 29.0443  17
   1  -6  -7 2.67533 27.8406  10
   1  -6  -7 38.1524 30.4774  15
  -1   6   7 36.3591 27.3575  16
  -1   6   7 13.0059 112.169  36
   1  -6  -7 9.87019 24.6813  20
  -1   6   6 5301.48 659.946  36
  -1   6   6 5466.54 180.260   8
   1  -6  -6 5398.31 198.581  19
   1  -6  -6 4511.16 522.790  38
   1  -6  -6 5360.65 204.818  10
   1  -6  -6 5091.97 652.945   4
  -1   6   6 5364.04 193.168  16
   1  -6  -6 5244.96 200.772  15
   1  -6  -6 5535.31 196.944   3
   1  -6  -6 5657.54 191.992  20
   1  -6  -6 5452.12 200.899  17
   1  -6  -5 738.008 76.8705  17
   1  -6  -5 772.554 261.635   4
  -1   6   5 650.448 244.378  36
   1  -6  -5 694.052 71.9570  15
  -1   6   5 718.604 72.0740  16
   1  -6  -5 825.232 78.1487  10
   1  -6  -5 790.685 75.4579  20
   1  -6  -5 801.010 76.5511  19
   1  -6  -5 803.571 77.1800   3
   1  -6  -4 1646.25 101.334  15
   1  -6  -4 1597.33 104.095  19
  -1   6   4 1553.12 100.953  16
  -1   6   4 1817.56 375.514  36
   1  -6  -4 1728.30 112.731  17
   1  -6  -4 1646.12 107.009  10
   1  -6  -4 2034.70 411.531   4
   1  -6  -4 1774.55 109.856  20
   1  -6  -4 1797.60 111.419   3
  -1   6   3 1239.35 89.4448  16
   1  -6  -3 1312.49 95.2233  19
   1  -6  -3 1465.52 358.024   4
   1  -6  -3 1390.27 98.3687  20
   1  -6  -3 1255.37 80.6039  32
   1  -6  -3 1378.15 101.450  17
   1  -6  -3 1227.41 85.5713  15
  -1   6   3 1222.28 320.506  36
   1  -6  -3 1303.86 92.6342  10
   1  -6  -3 1396.05 96.1044   3
   1  -6  -2 170.518 42.5221  17
   1  -6  -2 247.806 45.4482   3
  -1   6   2 301.739 158.262  36
   1  -6  -2 197.493 38.3088  29
  -1   6   2 176.329 35.6740  16
   1  -6  -2 217.625 42.3661  20
   1  -6  -2 170.122 42.7155  19
   1  -6  -2 204.539 112.501   4
   1  -6  -2 189.720 37.7192  32
   1  -6  -2 176.584 38.0779  10
   1  -6  -1 698.207 61.7981  32
   1  -6  -1 746.054 74.4917  20
   1  -6  -1 876.179 77.9252   3
  -1   6   1 1021.19 270.300  36
   1  -6  -1 792.602 79.7836  17
   1  -6  -1 811.549 67.2737  29
   1  -6  -1 917.426 286.687   4
   1  -6  -1 793.324 68.5863  10
   1  -6  -1 737.665 73.6832  19
   1  -6   0 650.192 71.3783  24
   1  -6   0 469.678 50.6546  31
   1  -6   0 606.589 60.6311  32
   1  -6   0 633.083 68.9188  17
   1  -6   0 564.588 61.1235  19
   1  -6   0 643.527 261.795   4
   1  -6   0 613.450 67.5578   3
   1  -6   0 589.265 66.1446  20
   1  -6   0 667.660 72.6593  29
  -1   6   0 636.533 251.972  36
   1  -6   1 1201.85 73.6843  30
  -1   6  -1 1138.72 305.123  36
   1  -6   1 1159.30 72.9663  25
   1  -6   1 1201.62 308.800   4
   1  -6   1 1320.92 93.8624   3
   1  -6   1 1276.22 81.7924  32
   1  -6   1 1241.19 92.9923  20
   1  -6   1 1191.26 77.0428  31
   1  -6   1 1337.77 87.5445  29
   1  -6   1 1294.42 89.4014  19
   1  -6   1 1290.33 95.3448  17
   1  -6   1 1357.04 95.9975  24
   1  -6   2 2678.98 130.311  19
   1  -6   2 2603.05 135.736  17
   1  -6   2 2692.56 467.974   4
   1  -6   2 2605.49 117.460  32
   1  -6   2 2639.02 107.965  30
   1  -6   2 2526.26 106.877  25
   1  -6   2 2808.40 131.969  29
   1  -6   2 2612.36 130.978  20
  -1   6  -2 2493.98 416.305  36
   1  -6   2 2600.12 132.867   3
   1  -6   2 2766.38 135.249  24
   1  -6   2 2542.70 111.611  31
   1  -6   3 8140.87 237.010   3
   1  -6   3 8179.69 237.266  20
   1  -6   3 8091.16 227.849  29
   1  -6   3 8961.60 236.853  24
   1  -6   3 8380.83 199.026  30
   1  -6   3 7827.56 233.686  17
   1  -6   3 8049.59 209.926  32
   1  -6   3 7675.65 176.911  33
   1  -6   3 8293.01 202.199  31
  -1   6  -3 7125.76 664.048  36
   1  -6   3 7878.98 237.337  23
   1  -6   3 7787.51 219.705  19
   1  -6   3 7763.33 194.142  25
  -1   6  -3 8063.76 798.042   1
   1  -6   4 89.2934 24.3769  33
   1  -6   4 80.1657 35.9270  23
   1  -6   4 76.1764 31.1535  32
   1  -6   4 66.2182 29.1827  17
   1  -6   4 117.011 41.1062  24
   1  -6   4 106.156 31.5973  31
   1  -6   4 64.0855 26.3880  25
  -1   6  -4 90.2689 123.608   1
   1  -6   4 95.2064 38.2386  29
   1  -6   4 40.4594 25.6338   3
   1  -6   4 63.0642 26.3424  20
   1  -6   4 81.3381 29.0549  30
   1  -6   5 19208.0 303.825  33
   1  -6   5 20129.6 335.382  30
   1  -6   5 19246.4 371.357  20
   1  -6   5 19902.1 335.023  31
   1  -6   5 20173.1 381.680  29
   1  -6   5 20365.8 353.534  32
   1  -6   5 18920.1 356.042   3
   1  -6   5 21216.2 377.623  24
   1  -6   5 19199.1 322.513  25
   1  -6   5 19494.6 367.868  23
   1  -6   6 1204.06 95.1494  29
   1  -6   6 1065.87 81.3387  23
   1  -6   6 1241.49 80.8596  31
   1  -6   6 1175.68 68.8481  33
   1  -6   6 1212.66 83.6114  32
   1  -6   6 1109.60 83.3384  20
   1  -6   6 1384.28 93.4365  24
   1  -6   6 1276.60 77.8371  25
   1  -6   6 1255.86 80.2670  30
   1  -6   7 2457.92 99.2802  33
   1  -6   7 2528.63 116.885  32
   1  -6   7 2643.15 125.705  24
   1  -6   7 2342.99 110.615  31
   1  -6   7 2620.62 113.013  30
   1  -6   7 2499.03 126.758  29
   1  -6   7 2360.63 103.891  25
   1  -6   8 266.041 44.0269  32
   1  -6   8 270.637 42.4447  31
   1  -6   8 267.538 37.0947  25
   1  -6   8 310.573 43.6791  30
   1  -6   8 248.547 33.5383  33
   1  -6   8 301.326 46.3786  29
   1  -6   8 281.385 49.8211  24
   1  -6   9 31.4889 26.9356  29
   1  -6   9 60.6987 27.1175  30
   1  -6   9 51.2996 26.5768  31
   1  -6   9 41.1627 21.1450  33
   1  -6   9 102.707 32.3779  32
   1  -6   9 54.3020 22.6701  25
   1  -6   9 59.8681 31.2737  24
   1  -6  10 6.01355 21.4543  31
   1  -6  10 11.1356 16.6497  25
   1  -6  10 16.5724 24.0767  32
   1  -6  10-1.21168 13.4332  33
   1  -6  10 33.1719 24.6410  30
   1  -6  10-18.3278 19.5102  29
   1  -6  10 15.6549 24.1233  24
   1  -6  11 868.373 48.4375  32
   1  -6  11 882.271 52.4683  31
   1  -6  11 922.162 46.6533  33
   1  -6  11 985.412 54.9029  30
   1  -6  11 840.214 49.0263  25
  -1   5  16 115.445 25.1635  41
   1  -5 -16 198.617 34.4941  14
   1  -5 -16 173.148 33.5285  15
  -1   5  16 155.914 26.1021  27
  -1   5  16 194.530 28.6645  25
  -1   5  16 198.581 23.4236  28
  -1   5  16 225.497 27.1271  11
  -1   5  15 152.642 29.9470  11
  -1   5  15 156.253 33.0676  41
   1  -5 -15 223.549 44.1478  14
  -1   5  15 218.790 35.7521  27
  -1   5  15 213.372 30.4005  28
  -1   5  15 197.163 34.5796  25
   1  -5 -15 209.823 43.5428  15
  -1   5  14 2455.02 118.415  27
  -1   5  14 2282.63 104.625  16
  -1   5  14 2185.00 118.268  41
   1  -5 -14 2610.67 144.130  15
   1  -5 -14 2654.92 139.490  14
  -1   5  14 2319.55 108.129  11
  -1   5  14 2183.40 100.551  28
  -1   5  13 414.580 52.2450  16
  -1   5  13 300.440 47.8653  11
   1  -5 -13 411.999 71.4751  15
   1  -5 -13 344.896 55.1225  10
  -1   5  13 290.080 47.9760  41
  -1   5  13 428.224 56.4927  27
  -1   5  13 353.972 46.8472  28
  -1   5  12 681.524 65.7049  28
  -1   5  12 769.403 70.6761  11
  -1   5  12 938.651 81.3524  16
   1  -5 -12 548.616 230.462  38
   1  -5 -12 949.931 98.7816  15
  -1   5  12 851.772 78.2786  41
  -1   5  12 877.142 80.9610  27
   1  -5 -12 835.836 83.7756  10
   1  -5 -11 186.352 48.1847  10
   1  -5 -11 253.065 84.6325  15
   1  -5 -11 234.214 175.750  38
  -1   5  11 350.703 163.577  36
  -1   5  11 249.767 47.2469  27
  -1   5  11 168.148 40.3596  41
  -1   5  11 238.342 43.6927  11
  -1   5  11 194.419 42.9535   2
  -1   5  11 235.944 50.7884  16
  -1   5  10 2235.26 127.433  16
  -1   5  10 2084.46 124.297  41
  -1   5  10 2003.54 116.799   2
   1  -5 -10 1670.35 340.144  38
  -1   5  10 2113.85 122.472  27
  -1   5  10 1874.94 394.903  36
  -1   5  10 1666.35 365.162  35
   1  -5 -10 2180.31 124.422  18
   1  -5 -10 2128.40 134.480  10
   1  -5 -10 2022.33 136.865  15
  -1   5   9 1197.71 86.1329   2
   1  -5  -9 1249.30 104.353  10
   1  -5  -9 1275.68 105.879  15
  -1   5   9 1248.02 318.327  36
   1  -5  -9 1025.58 257.592  38
  -1   5   9 1145.75 289.740  35
  -1   5   9 1222.99 95.5270  41
  -1   5   9 1295.01 96.4212  16
  -1   5   8 582.128 65.2352  16
  -1   5   8 497.700 205.171  36
  -1   5   8 460.618 167.238  35
   1  -5  -8 569.805 67.7461  10
  -1   5   8 542.316 55.0943   2
  -1   5   8 466.801 187.251   1
   1  -5  -8 558.575 58.6380   3
   1  -5  -8 494.698 67.0314  15
  -1   5   8 538.157 61.4922  41
   1  -5  -8 533.757 188.546  38
  -1   5   7 2470.07 126.606  16
  -1   5   7 2822.06 452.647  36
   1  -5  -7 2284.41 356.283  38
   1  -5  -7 2586.99 140.308  15
   1  -5  -7 2739.35 126.244  17
  -1   5   7 2496.55 122.041   8
   1  -5  -7 2677.84 124.519   3
  -1   5   7 2646.23 111.319   2
   1  -5  -7 2516.09 137.384  10
   1  -5  -7 2315.09 390.586   4
   1  -5  -6 151.295 119.298  38
   1  -5  -6 190.227 36.2798   3
   1  -5  -6 144.859 35.3030  10
   1  -5  -6 268.821 169.291   4
  -1   5   6 211.248 141.123  36
   1  -5  -6 164.806 40.9413  15
  -1   5   6 224.954 40.6508  16
   1  -5  -6 141.819 33.3085  20
   1  -5  -6 169.758 36.7053  19
  -1   5   6 188.322 36.5779   8
   1  -5  -6 223.347 39.0165  17
   1  -5  -5 3106.99 134.133  19
   1  -5  -5 2931.99 129.722   3
   1  -5  -5 3029.00 446.427   4
   1  -5  -5 3101.67 142.109  10
   1  -5  -5 2805.55 373.592  38
   1  -5  -5 3163.96 136.340  17
  -1   5   5 3189.22 453.864  36
   1  -5  -5 2965.26 137.506  15
  -1   5   5 2988.08 131.597  16
   1  -5  -5 3122.56 129.744  20
   1  -5  -4 2107.79 111.206  17
   1  -5  -4 2171.52 375.671   4
  -1   5   4 1962.65 102.099  16
   1  -5  -4 2148.57 108.387   3
   1  -5  -4 1935.85 291.323  38
   1  -5  -4 2038.64 107.263  19
   1  -5  -4 2079.62 111.262  10
  -1   5   4 2142.11 374.346  36
   1  -5  -4 2116.69 106.257  20
   1  -5  -3 13553.7 289.452  17
   1  -5  -3 13299.0 278.384  19
   1  -5  -3 13422.8 273.576   3
   1  -5  -3 13865.3 929.606   4
   1  -5  -3 13182.2 274.336  20
  -1   5   3 13805.1 902.629  36
  -1   5   2 3041.58 419.383  36
   1  -5  -2 2653.23 115.854   3
   1  -5  -2 2876.56 127.718  17
   1  -5  -2 3216.96 448.021   4
   1  -5  -2 2875.45 123.346  19
   1  -5  -1 8880.33 735.188   4
  -1   5   1 8690.05 702.353  36
   1  -5  -1 8587.38 212.302   3
   1  -5  -1 8532.44 217.430  20
   1  -5   0 140.041 32.0856  17
   1  -5   0 128.475 28.5065  32
   1  -5   0 138.046 32.1570  20
  -1   5   0 182.750 112.775  36
   1  -5   0 40.2644 79.3882   4
   1  -5   0 106.806 27.7133  25
   1  -5   0 127.305 31.3887   3
   1  -5   1 1070.04 78.0608  20
   1  -5   1 984.047 62.6119  31
   1  -5   1 992.267 75.6232  17
   1  -5   1 990.406 65.7144  32
   1  -5   1 1066.26 71.5401  29
   1  -5   1 964.225 72.9876   3
  -1   5  -1 974.655 250.828  36
   1  -5   1 942.224 60.8231  25
   1  -5   1 1057.47 77.9971  24
   1  -5   1 929.854 256.100   4
   1  -5   2 366.548 48.7975   3
   1  -5   2 471.389 55.1646  17
   1  -5   2 395.051 43.7404  32
   1  -5   2 403.630 41.9298  31
   1  -5   2 426.470 172.723   4
  -1   5  -2 488.605 172.540  36
   1  -5   2 378.896 39.1426  30
   1  -5   2 351.610 39.0755  25
   1  -5   2 430.638 48.2340  19
   1  -5   2 388.373 49.5876  24
   1  -5   2 375.722 46.8396  29
   1  -5   2 372.433 45.1105  20
   1  -5   3 18221.3 331.414   3
   1  -5   3 18505.5 349.926  23
   1  -5   3 17109.2 285.155  25
   1  -5   3 18398.1 337.404  20
   1  -5   3 18050.4 306.192  32
   1  -5   3 17879.8 319.807  19
   1  -5   3 18071.5 295.794  31
   1  -5   3 18849.6 340.075  24
   1  -5   3 18329.1 290.192  30
  -1   5  -3 18491.0 1000.78  36
   1  -5   3 17806.6 267.113  33
   1  -5   3 18593.3 1078.29   4
   1  -5   3 17912.5 327.063  29
   1  -5   3 16978.8 314.741  21
   1  -5   3 17913.3 336.627  17
   1  -5   4 2032.36 85.2491  33
   1  -5   4 2135.75 92.3991  25
   1  -5   4 2239.82 103.279  32
   1  -5   4 2251.38 116.969  23
   1  -5   4 2295.86 113.447  29
   1  -5   4 2214.81 96.3277  30
   1  -5   4 1994.47 102.868  21
   1  -5   4 2206.91 98.8986  31
   1  -5   4 2143.20 110.133  17
   1  -5   4 2268.07 377.453   4
  -1   5  -4 2264.74 350.862  36
   1  -5   4 2225.32 108.941   3
   1  -5   4 2324.26 115.572  24
   1  -5   4 2147.82 111.129  20
   1  -5   5 1944.92 101.030  32
   1  -5   5 1915.43 313.599  34
  -1   5  -5 1719.17 328.573   1
   1  -5   5 1772.54 82.6487  33
   1  -5   5 1887.68 88.9152  25
   1  -5   5 1969.79 107.495  24
   1  -5   5 1916.01 93.0622  30
   1  -5   5 2010.08 96.8015  31
   1  -5   5 2021.11 110.502  29
   1  -5   5 1919.08 100.246   3
   1  -5   5 1832.02 100.518  21
   1  -5   5 1859.06 103.505  20
   1  -5   5 2015.22 111.113  23
   1  -5   6 247.118 43.6145  29
   1  -5   6 303.862 42.0966  31
   1  -5   6 180.372 125.045  34
   1  -5   6 287.487 35.2358  33
   1  -5   6 327.191 46.1170  21
   1  -5   6 291.067 46.0492  23
   1  -5   6 272.135 36.7373  25
   1  -5   6 261.425 41.7005  32
   1  -5   6 347.086 50.8189  24
   1  -5   6 319.796 41.2351  30
   1  -5   7 48.7873 25.7819  31
   1  -5   7 71.5078 28.7492  30
   1  -5   7 86.9119 36.1999  32
   1  -5   7 62.9640 33.9382  29
   1  -5   7 56.9782 18.6719  33
   1  -5   7 87.8008 28.7380  25
   1  -5   7 95.2781 32.7854  21
   1  -5   7 50.2094 31.7029  23
   1  -5   7 82.1122 36.4175  24
   1  -5   7 168.291 127.103  34
   1  -5   8 53.1104 27.5820  31
   1  -5   8 62.3450 32.3362  29
   1  -5   8 38.0261 30.8779  24
   1  -5   8 71.2774 24.8224  30
   1  -5   8 68.1683 29.4978  32
   1  -5   8 37.9402 18.9604  33
   1  -5   8 113.940 136.781  34
   1  -5   8 73.9126 29.5450  25
   1  -5   8 62.1426 33.3578  21
   1  -5   9 60.0370 22.4611  33
   1  -5   9 57.1659 38.1323  21
   1  -5   9 79.7176 29.1086  30
   1  -5   9 56.2414 30.6526  32
   1  -5   9-45.1597 82.8580  34
   1  -5   9 82.4443 33.5180  24
   1  -5   9 94.0903 31.9605  29
   1  -5   9 100.514 31.7924  25
   1  -5   9 79.1280 31.4206  31
   1  -5  10 67.0382 29.9975  21
   1  -5  10 21.6417 22.0113  32
   1  -5  10 20.8189 17.8895  33
   1  -5  10 25.1475 25.4300  31
   1  -5  10 24.0490 24.4677  30
   1  -5  10 17.6102 23.1726  29
   1  -5  10 3.31303 20.1467  25
   1  -5  11-16.9252 20.3991  32
   1  -5  11 30.1244 23.1167  30
   1  -5  11 16.4982 24.1253  21
   1  -5  11 20.0054 22.4988  31
   1  -5  11 21.1193 19.9953  25
   1  -5  11 10.2628 16.3993  33
   1  -5  11-47.0001 35.5300  24
   1  -5  12 10.5831 18.5929  31
   1  -5  12-6.19246 18.4340  30
   1  -5  12-3.35903 12.9931  33
   1  -5  12 11.5797 16.7950  25
   1  -5  13 19.6178 12.6972  33
   1  -5  13 3.82872 14.0290  30
   1  -5  13 47.8942 16.2511  31
   1  -5  13 3.07007 14.0896  25
  -1   4  16 121.497 24.5008  11
   1  -4 -16 110.526 30.0407  15
  -1   4  16 81.1326 24.5790  41
  -1   4  16 81.8944 23.1187  25
   1  -4 -16 125.926 34.1218  14
  -1   4  16 125.839 22.8015  28
  -1   4  16 108.902 24.6076  27
  -1   4  15 65.7602 23.6779  11
   1  -4 -15 124.027 36.2868  14
  -1   4  15 75.4281 26.7259  27
   1  -4 -15 87.3790 47.5157  15
  -1   4  15 81.2510 27.8864  25
  -1   4  15 56.2449 21.6216  28
  -1   4  15 90.1820 29.0613  41
  -1   4  14 517.267 61.7329   2
  -1   4  14 562.168 55.7433  28
   1  -4 -14 524.928 66.2443  15
  -1   4  14 371.709 42.6150  33
  -1   4  14 503.010 58.1917  27
  -1   4  14 363.286 52.1472  41
  -1   4  14 464.887 53.8797  11
  -1   4  13 248.300 44.3133  28
  -1   4  13 236.164 46.6479  11
  -1   4  13 183.120 38.3918  16
  -1   4  13 137.648 43.7878  41
  -1   4  13 207.106 44.4097   2
  -1   4  13 129.393 29.3479  31
  -1   4  13 137.315 34.3833  27
   1  -4 -13 216.883 48.4443  15
  -1   4  13 152.051 29.8712  33
   1  -4 -12 424.093 216.550  38
  -1   4  12 355.151 51.6440  16
  -1   4  12 351.394 50.9032  11
  -1   4  12 283.409 50.7405   2
  -1   4  12 277.124 51.3783  41
  -1   4  12 222.787 38.0232  33
  -1   4  12 314.453 51.8539  27
   1  -4 -12 311.284 51.3599  10
  -1   4  12 259.800 42.1038  28
   1  -4 -12 365.748 64.3389  15
  -1   4  11 592.769 64.5172  11
  -1   4  11 606.587 69.9929  41
   1  -4 -11 663.449 86.2453  15
  -1   4  11 643.099 67.9992  16
   1  -4 -11 592.671 70.9739  10
   1  -4 -11 575.123 218.949  38
  -1   4  11 571.460 69.2241   2
  -1   4  11 303.868 119.679  35
  -1   4  11 633.232 71.9977  27
  -1   4  11 502.971 186.799  36
  -1   4  10 833.691 230.220  35
   1  -4 -10 1399.43 104.884  10
  -1   4  10 1424.55 316.094  36
   1  -4 -10 1399.96 112.611  15
   1  -4 -10 963.149 253.898  38
  -1   4  10 1302.70 95.1873  27
  -1   4  10 1364.54 97.4837  41
  -1   4  10 1360.46 96.0331   2
  -1   4  10 1492.38 99.3562  16
   1  -4  -9 264.437 44.5614  18
  -1   4   9 212.511 42.4521  41
   1  -4  -9 204.782 47.7314  15
  -1   4   9 261.471 134.590  36
  -1   4   9 222.730 40.5848  16
  -1   4   9 36.4294 68.9471  35
   1  -4  -9 206.319 42.1347  10
   1  -4  -9 230.505 140.562  38
  -1   4   9 223.052 40.5232   2
   1  -4  -8 5321.53 515.101  38
  -1   4   8 6219.70 530.529   1
  -1   4   8 6247.74 192.739  41
  -1   4   8 4931.10 529.010  35
  -1   4   8 6584.17 185.220   2
   1  -4  -8 5986.78 214.369  15
  -1   4   8 6057.66 192.374  16
  -1   4   8 6449.84 610.144  36
   1  -4  -8 5964.42 207.916  10
  -1   4   7 500.945 175.971  36
   1  -4  -7 363.764 51.8155  15
   1  -4  -7 342.020 40.9768   3
  -1   4   7 407.115 50.2677   8
  -1   4   7 395.622 47.4431  16
   1  -4  -7 364.317 50.3141  10
   1  -4  -7 353.046 142.930   4
   1  -4  -7 430.471 156.941  38
  -1   4   7 327.831 133.497  35
  -1   4   7 333.903 42.3968   2
   1  -4  -6 469.901 53.8063  10
   1  -4  -6 534.520 50.4723   3
   1  -4  -6 492.560 54.3910  15
   1  -4  -6 489.301 140.928  38
  -1   4   6 472.573 49.1312  16
  -1   4   6 542.447 45.8858   2
  -1   4   6 617.192 196.661  36
   1  -4  -6 738.816 199.057   4
  -1   4   5 164.023 27.5073   2
   1  -4  -5 176.934 106.460  38
   1  -4  -5 131.289 25.3412   3
   1  -4  -5 147.619 106.555   4
  -1   4   5 243.347 121.616  36
   1  -4  -4 7973.13 188.880   3
   1  -4  -4 7984.13 523.861  38
  -1   4   4 8305.07 621.737  36
   1  -4  -4 8748.86 644.726   4
   1  -4  -3 41.0465 23.0715   3
  -1   4   3 122.887 96.3586  36
   1  -4  -3-39.5387 69.1808  38
   1  -4  -3 47.2965 73.5374   4
  -1   4   2 24460.9 1051.50  36
   1  -4  -2 26195.0 919.895  38
   1  -4  -2 24034.1 1065.21   4
   1  -4  -2 26697.5 366.133   3
   1  -4  -1 37076.9 449.143   3
  -1   4   1 38293.2 1304.16  36
   1  -4   0 5195.98 145.760   3
  -1   4   0 5604.85 494.724  36
   1  -4   0 5261.83 498.209   4
  -1   4  -1 22944.2 1001.00  36
   1  -4   1 22129.2 329.390   3
   1  -4   1 23863.0 1060.62   4
   1  -4   2 361.769 41.7575   3
  -1   4  -2 448.054 128.750  36
   1  -4   2 284.877 123.543   4
   1  -4   3 1836.64 87.8022   3
  -1   4  -3 1702.96 268.761  36
   1  -4   3 1728.83 247.380  34
   1  -4   3 2022.08 312.918   4
  -1   4  -4 370.289 141.326  36
   1  -4   4 356.164 41.0450  29
   1  -4   4 388.030 141.453   4
   1  -4   4 365.008 38.0041  31
   1  -4   4 301.026 37.0818   3
   1  -4   4 337.415 35.3500  25
   1  -4   4 257.649 123.666  34
   1  -4   4 370.027 37.9310  30
   1  -4   4 381.886 41.0306  32
   1  -4   4 298.705 41.6452  24
   1  -4   5 101.034 22.4378  33
   1  -4   5 104.228 26.5213   3
   1  -4   5 72.0898 31.7766  23
  -1   4  -5 160.726 94.9768  36
   1  -4   5 65.0892 25.3233  21
   1  -4   5 84.9015 102.393  34
   1  -4   5 92.4155 25.4378   9
   1  -4   5 122.776 30.9276  32
   1  -4   5 86.9294 25.4242  11
   1  -4   5 91.6242 24.4988  31
   1  -4   5 101.332 24.7064  30
   1  -4   5 86.5627 65.9694   4
   1  -4   5 70.3194 28.9029  29
   1  -4   5 106.894 25.5128  25
   1  -4   5 74.8226 30.1265  24
   1  -4   6 3313.54 134.968  23
   1  -4   6 3384.11 121.933  11
   1  -4   6 3441.75 126.800  32
   1  -4   6 3358.24 119.769  31
   1  -4   6 3365.85 123.546  30
   1  -4   6 3231.11 109.432  33
   1  -4   6 3339.06 131.386  21
   1  -4   6 3387.56 126.041   9
   1  -4   6 3552.78 136.221  29
   1  -4   6 3286.32 115.624  25
   1  -4   6 3395.26 134.924  24
   1  -4   6 3449.38 389.112  34
   1  -4   7 1081.63 243.442  34
   1  -4   7 1095.18 75.3167   9
   1  -4   7 1078.68 79.1276  21
   1  -4   7 1037.95 76.6447  23
   1  -4   7 1053.72 64.5993  33
   1  -4   7 1085.34 72.2646  31
   1  -4   7 1119.56 73.1779  30
   1  -4   7 1111.47 78.0555  29
   1  -4   7 1096.26 69.5102  11
   1  -4   7 1083.26 67.3526  25
   1  -4   7 1106.66 80.2927  24
   1  -4   7 1119.86 73.7177  32
   1  -4   8 60.8302 27.4129  11
   1  -4   8 60.5312 22.5108  25
   1  -4   8 50.8320 18.9405  33
   1  -4   8 40.3062 30.3575  29
   1  -4   8 26.9375 23.0280  31
   1  -4   8 12.8408 22.4633  32
   1  -4   8 26.8069 70.1539  34
   1  -4   8 27.3660 32.2330  21
   1  -4   8 48.7020 31.6416  24
   1  -4   8 41.8728 23.9070  30
   1  -4   9 1558.07 97.1214  21
   1  -4   9 1432.14 90.5097  29
   1  -4   9 1488.38 295.147  34
   1  -4   9 1495.50 80.0511  33
   1  -4   9 1450.55 84.9372  32
   1  -4   9 1540.68 88.9624  30
   1  -4   9 1632.74 89.9313  31
   1  -4   9 1524.02 82.3515  25
   1  -4   9 1565.22 86.9550  11
   1  -4   9 1797.15 99.9581  24
   1  -4  10 5914.76 182.249  21
   1  -4  10 5405.52 560.481  34
   1  -4  10 5621.46 158.241  33
   1  -4  10 6482.63 187.968  24
   1  -4  10 5467.38 164.391  32
   1  -4  10 5515.88 169.892  29
   1  -4  10 5806.15 173.071  30
   1  -4  10 6116.20 175.808  31
   1  -4  10 5853.60 163.444  25
   1  -4  10 5798.99 169.945  11
   1  -4  11-12.1852 27.2124  30
   1  -4  11 7.95543 19.6538  32
   1  -4  11-21.8772 33.6555  21
   1  -4  11 5.47307 25.4567  31
   1  -4  11 1.00865 18.3018  33
   1  -4  11 12.4735 23.3853  25
   1  -4  11-9.22469 30.5103  24
   1  -4  12-10.7414 22.3095  31
   1  -4  12-20.2869 27.1276  21
   1  -4  12 33.6429 21.6121  25
   1  -4  12-14.4935 22.2187  30
   1  -4  12 28.7641 20.9438  33
   1  -4  13 641.673 43.5221  33
   1  -4  13 648.997 45.0802  25
   1  -4  13 639.800 47.2659  30
   1  -4  13 648.607 49.6892  31
   1  -4  14 204.837 22.6299  33
   1  -4  14 211.786 25.1982  31
   1  -4  14 210.185 24.4648  30
   1  -4  14 212.724 24.8988  25
  -1   3  16 870.409 55.6227  11
  -1   3  16 787.502 53.3947  28
  -1   3  16 649.264 56.6279  41
   1  -3 -16 795.354 66.6953  14
  -1   3  16 809.926 56.0746  25
  -1   3  15-18.5019 25.1922  41
  -1   3  15 6.61192 22.9400  11
  -1   3  15 13.3343 20.1628  27
  -1   3  15 24.2904 23.1734  25
  -1   3  15 31.0836 25.4600   2
  -1   3  15 3.84102 16.2658  33
   1  -3 -15-11.4405 23.5982  15
   1  -3 -15 10.0085 27.9300  14
  -1   3  15 4.24680 21.1939  28
  -1   3  14 526.897 51.7150  33
  -1   3  14 638.974 67.4630  41
  -1   3  14 554.007 50.6647  31
  -1   3  14 684.760 64.4727  11
  -1   3  14 614.029 63.6189  25
  -1   3  14 666.940 60.4792  28
  -1   3  14 577.213 67.7011   2
  -1   3  14 727.544 69.5537  27
   1  -3 -14 631.774 70.9740  15
   1  -3 -13 434.660 65.5492  15
  -1   3  13 511.248 63.9860  41
   1  -3 -13 226.136 123.584  38
  -1   3  13 551.983 63.3359  11
  -1   3  13 572.384 67.6971   2
  -1   3  13 364.617 43.9720  33
  -1   3  13 406.372 47.2484  31
  -1   3  13 502.379 52.4009  16
  -1   3  13 485.375 56.1285  28
  -1   3  13 589.946 65.1533  27
  -1   3  12 140.116 34.1414  28
   1  -3 -12 121.118 40.0381  15
  -1   3  12 136.054 39.4713   2
  -1   3  12 89.9873 33.9828  11
  -1   3  12-50.7712 93.0345  34
  -1   3  12 108.953 34.9743  41
   1  -3 -12 74.1874 77.3106  38
  -1   3  12 40.1280 24.5112  33
  -1   3  12 135.107 39.5933  27
  -1   3  12 154.829 36.5383  16
  -1   3  11 31.4004 25.6137  11
  -1   3  11 53.5451 25.0385  16
  -1   3  11 26.0819 28.5712  41
  -1   3  11 62.1205 28.2991   2
  -1   3  11 55.9604 28.6210  27
   1  -3 -11 11.8873 29.7714  15
  -1   3  11 13.8060 19.8903  33
  -1   3  10 1107.50 85.8544   2
  -1   3  10 1090.61 81.3367  11
   1  -3 -10 1066.12 84.6719  10
  -1   3  10 1089.66 82.9302  16
  -1   3  10 996.948 81.7930  27
   1  -3 -10 1067.10 95.9568  15
  -1   3  10 787.051 206.246  36
   1  -3 -10 882.996 240.843  38
  -1   3  10 890.647 253.256  35
  -1   3  10 1098.54 85.0037  41
   1  -3  -9 5023.90 498.949  38
   1  -3  -9 5922.06 212.263  15
  -1   3   9 6182.62 189.621  16
  -1   3   9 6081.68 188.117   2
  -1   3   9 6160.87 194.169  41
  -1   3   9 4980.13 538.375  35
  -1   3   9 5579.78 536.942  36
   1  -3  -9 5990.93 198.791  10
  -1   3   8 73.8819 22.1558  41
  -1   3   8 163.860 120.359  36
  -1   3   8 108.865 30.2179  16
   1  -3  -8 60.0503 81.9501  38
   1  -3  -8 76.9103 25.3799  10
   1  -3  -8 43.0464 27.4246  15
  -1   3   8 55.0313 85.2259  35
  -1   3   8 107.992 28.4443   2
  -1   3   7 10125.0 669.578  36
   1  -3  -7 9340.00 586.904  38
  -1   3   7 10326.9 606.427   5
  -1   3   7 9414.78 225.007  41
  -1   3   7 9892.63 217.197   2
   1  -3  -7 10563.0 637.580   4
  -1   3   7 8582.74 611.503  35
  -1   3   6 6473.24 518.638  36
   1  -3  -6 5915.37 442.519  38
  -1   3   6 6001.08 155.909   2
   1  -3  -6 6427.80 500.557   4
   1  -3  -5 3419.01 323.173  38
   1  -3  -5 4003.36 117.579   3
  -1   3   5 3883.05 112.428   2
  -1   3   5 4321.48 407.093  36
   1  -3  -5 4203.37 397.916   4
   1  -3  -4 3017.22 99.8995   3
   1  -3  -4 3038.12 280.756  38
   1  -3  -4 3288.08 350.489   4
  -1   3   4 3369.40 349.780  36
   1  -3  -3 1361.22 66.2384   3
   1  -3  -3 1503.69 236.042   4
  -1   3   3 1442.38 227.527  36
   1  -3  -3 1501.15 188.154  38
   1  -3  -2 1971.06 79.8671   3
   1  -3  -2 2236.79 228.889  38
  -1   3   2 2156.75 277.887  36
   1  -3  -2 2076.74 276.230   4
   1  -3  -1 8417.21 427.074  38
   1  -3  -1 8287.62 529.964   4
   1  -3  -1 7928.68 165.046   3
  -1   3   1 8058.92 513.996  36
  -1   3   0 68190.5 1554.53  36
   1  -3   0 66615.1 632.812   3
   1  -3   1 1667.83 72.4458   3
   1  -3   1 1915.51 262.853   4
   1  -3   2 685.653 46.9988   3
   1  -3   2 703.374 167.469   4
   1  -3   2 638.449 124.319  34
   1  -3   3 5508.42 445.888   4
   1  -3   3 5184.12 130.664   3
   1  -3   3 5123.86 379.550  34
   1  -3   4 17416.8 735.828  34
   1  -3   4 17730.3 809.478   4
   1  -3   4 16618.3 253.627   3
   1  -3   5 2349.87 293.566  34
   1  -3   5 2815.43 319.982   4
   1  -3   6 7686.42 174.993  31
  -1   3  -6 7603.53 516.601   5
   1  -3   6 7562.63 182.729   9
   1  -3   6 7598.34 181.296  30
   1  -3   6 7380.92 501.977   4
   1  -3   6 7661.56 170.780  25
   1  -3   6 7512.51 187.901  29
   1  -3   6 7569.78 542.475  34
   1  -3   6 7754.89 191.180  24
   1  -3   6 7584.67 190.811  21
   1  -3   6 7628.07 173.455  11
   1  -3   7 28659.4 411.175  29
   1  -3   7 28199.8 385.942  32
   1  -3   7 28213.7 403.423   9
   1  -3   7 27098.4 367.496  33
   1  -3   7 28929.1 403.417  30
   1  -3   7 28327.3 379.985  25
   1  -3   7 29242.2 1134.89  34
   1  -3   7 28099.4 415.929  23
   1  -3   7 28329.5 418.414  21
   1  -3   7 28797.3 389.727  31
   1  -3   7 29259.2 419.421  24
   1  -3   7 28587.9 387.016  11
   1  -3   8 766.211 65.4760  21
   1  -3   8 727.763 61.0003   9
   1  -3   8 649.353 183.842  34
   1  -3   8 709.927 59.4320  30
  -1   3  -8 682.751 178.503  38
   1  -3   8 665.575 54.3552  33
   1  -3   8 716.539 57.5693  32
   1  -3   8 765.972 65.1014  29
   1  -3   8 760.406 58.5681  25
   1  -3   8 797.678 61.2718  31
   1  -3   8 683.290 63.1509  24
   1  -3   8 747.232 60.1261  11
   1  -3   9 2888.32 123.655  30
   1  -3   9 2856.88 128.055  21
   1  -3   9 2825.97 120.299  29
   1  -3   9 2760.67 120.593   9
   1  -3   9 2946.21 117.337  31
   1  -3   9 2812.33 113.757  32
   1  -3   9 2813.53 384.029  34
   1  -3   9 3007.87 128.641  24
  -1   3  -9 2762.18 368.658  38
   1  -3   9 3013.27 118.499  11
   1  -3   9 2756.24 111.928  33
   1  -3   9 2920.55 114.380  25
   1  -3  10 388.674 46.9432  11
   1  -3  10 380.017 45.3696  25
   1  -3  10 374.072 43.9556  32
   1  -3  10 368.706 52.5086  21
   1  -3  10 410.243 54.1445  24
   1  -3  10 413.364 172.234  34
   1  -3  10 439.269 50.0173  31
   1  -3  10 377.537 49.3717  30
   1  -3  10 460.995 47.5731  33
   1  -3  10 415.050 52.3248   9
   1  -3  11 2303.45 120.013  21
   1  -3  11 2384.23 117.648  24
   1  -3  11 2300.69 104.662  25
   1  -3  11 1958.06 348.621  34
   1  -3  11 2276.66 112.035   9
   1  -3  11 2290.68 109.700  30
   1  -3  11 2329.02 107.530  31
   1  -3  11 2153.63 99.2945  33
   1  -3  11 2261.27 106.433  11
   1  -3  12 971.741 76.7092  21
   1  -3  12 932.299 64.1868  25
   1  -3  12 1017.80 68.5657  11
   1  -3  12 992.993 71.1403  30
   1  -3  12 921.840 66.8125  31
   1  -3  12 922.672 64.9245  33
   1  -3  13 1056.51 65.0587  31
   1  -3  13 1038.06 63.9297  25
   1  -3  13 1021.12 66.7865  30
   1  -3  13 1019.75 62.2023  33
   1  -3  13 1080.31 68.1002  11
   1  -3  14 253.613 31.8761  31
   1  -3  14 205.757 28.4968  33
   1  -3  14 206.928 27.3273  25
   1  -3  14 228.234 30.8210  30
   1  -3  15 262.845 25.6870  33
   1  -3  15 261.313 26.1554  30
   1  -3  15 284.965 27.0792  25
   1  -3  15 249.610 25.4615  31
  -1   2  16 45.7100 18.9688  11
  -1   2  16 50.0046 21.0935  28
  -1   2  16 40.8936 13.7232  33
   1  -2 -16 55.5089 27.8287  14
  -1   2  16 31.9879 19.4140  41
  -1   2  16 68.5370 23.6681  25
  -1   2  15 51.3155 26.3088  11
  -1   2  15 3.19518 22.3790  41
  -1   2  15-5.02228 21.6777  25
  -1   2  15 14.8288 18.9902  31
  -1   2  15 3.28349 20.4948   2
   1  -2 -15 11.3987 28.4174  14
  -1   2  15 21.2118 20.5447  28
  -1   2  15-13.3490 19.9206  27
  -1   2  15 0.31978 15.7189  33
  -1   2  14 393.405 54.5761  41
  -1   2  14 527.409 58.1556  27
  -1   2  14 384.612 42.8193  31
  -1   2  14 492.308 57.1491  11
  -1   2  14 486.799 52.7163  28
  -1   2  14 417.594 46.7783  33
  -1   2  14 511.953 62.3456   2
  -1   2  14 422.934 54.3785  25
  -1   2  13 8830.46 233.757  11
   1  -2 -13 6247.01 665.160  38
  -1   2  13 8690.02 228.097  28
  -1   2  13 9192.96 251.874   2
  -1   2  13 7406.96 202.176  33
  -1   2  13 5245.74 583.595  34
  -1   2  13 8051.10 204.707  31
  -1   2  13 8889.77 242.505  27
   1  -2 -13 8062.87 247.142  15
  -1   2  13 8488.42 228.565  25
  -1   2  13 8347.21 246.221  41
  -1   2  12 41.7210 24.5002  33
  -1   2  12 50.6788 29.8790  11
  -1   2  12 30.2695 32.6341   2
  -1   2  12-2.21729 97.2488  34
   1  -2 -12-76.4114 87.4658  38
   1  -2 -12 32.0890 30.8412  15
  -1   2  12 30.3665 25.3748  28
  -1   2  12 11.2222 25.1658  27
  -1   2  12 30.2172 27.1035  31
  -1   2  12 6.05547 28.4076  41
  -1   2  11 68.2388 29.9727  11
  -1   2  11 70.6595 21.3516  16
  -1   2  11 127.265 31.2230  33
   1  -2 -11 90.5466 408.966  38
  -1   2  11 115.759 37.6178   2
   1  -2 -11 110.812 43.0720  15
  -1   2  11 3.23247 91.3511  34
  -1   2  11 118.758 33.8564  27
  -1   2  11 113.954 39.0972  41
  -1   2  11 126.594 37.0988  28
  -1   2  10 28.0056 29.1420  11
  -1   2  10 12.3312 22.4073  16
   1  -2 -10-1.41070 68.8594  38
  -1   2  10 33.3149 25.4879  27
  -1   2  10 6.22643 28.4154  41
   1  -2 -10 28.7968 31.3166  15
  -1   2  10-28.5496 22.0708  33
  -1   2  10 10.2958 24.2661   2
  -1   2   9 236.066 39.8573   2
   1  -2  -9 222.297 44.3503  15
  -1   2   9 210.849 38.4071  11
  -1   2   9 276.602 41.7661  27
  -1   2   9 214.314 35.9299  16
  -1   2   9 340.059 137.539  35
   1  -2  -9 183.166 120.580  38
  -1   2   9 195.746 103.638  36
  -1   2   9 263.887 44.3876  41
  -1   2   8 233.417 110.388  35
   1  -2  -8 384.599 114.167  37
  -1   2   8 383.444 46.7446   2
  -1   2   8 357.592 48.1951  41
  -1   2   8 491.486 137.661  36
   1  -2  -8 297.662 45.4410  15
   1  -2  -8 270.980 109.759  38
   1  -2  -7 13716.5 675.327  38
   1  -2  -7 12633.1 605.529  37
  -1   2   7 12864.9 700.540  35
  -1   2   7 14227.0 574.584   5
  -1   2   7 13466.7 685.492  36
   1  -2  -7 14738.3 605.490   4
  -1   2   7 13094.7 255.186   2
  -1   2   7 14105.3 264.132  41
   1  -2  -6 121653. 1986.47   4
   1  -2  -6 121181. 1986.24  38
  -1   2   6 121529. 1949.33   5
  -1   2   6 116490. 1024.39   2
  -1   2   6 117162. 2071.13  35
  -1   2   6 116726. 1031.23  41
   1  -2  -6 113604. 1900.99  37
  -1   2   6 120199. 2101.15  36
   1  -2  -5 2069.34 230.883  38
  -1   2   5 2101.70 83.6664   2
  -1   2   5 2182.08 257.425  36
  -1   2   5 2222.13 246.347  35
   1  -2  -5 2026.72 242.536   4
   1  -2  -5 2012.37 221.124  37
   1  -2  -4 1112.06 153.408  38
   1  -2  -4 1069.05 156.913  37
   1  -2  -4 1114.47 181.191   4
  -1   2   4 1011.55 171.565  36
   1  -2  -3 216.100 89.4723   4
  -1   2   3 241.171 89.9191  36
   1  -2  -3 356.236 86.9564  38
   1  -2  -3 284.324 92.0465  37
   1  -2  -2 3735.20 318.686   4
  -1   2   2 4068.60 319.992  36
   1  -2  -2 4381.55 264.819  38
   1  -2  -1 30782.7 697.635  38
  -1   2   1 30049.2 875.009  36
   1  -2  -1 29661.5 902.782   4
   1  -2   0 7291.96 320.199  38
   1  -2   0 7483.40 445.268   4
   1  -2   1 500.607 123.672   4
   1  -2   2 28934.6 896.405   4
   1  -2   2 29225.9 759.344  34
   1  -2   3 11973.1 513.954  34
   1  -2   3 11877.4 566.336   4
   1  -2   4 46904.1 1161.09   4
   1  -2   4 46260.6 1111.57  34
  -1   2  -5 49092.6 1200.98   5
   1  -2   5 49290.2 1182.92   4
   1  -2   5 49284.0 1229.81  34
   1  -2   6 24662.7 783.443   4
   1  -2   6 23784.7 901.572  34
   1  -2   6 23069.2 334.309  41
  -1   2  -6 23615.0 767.538   5
   1  -2   7 11966.8 221.321  11
   1  -2   7 11472.5 235.417  41
   1  -2   7 12342.3 686.926  34
   1  -2   7 12219.9 225.329  31
   1  -2   7 12089.6 245.748  21
   1  -2   7 11818.8 234.087  30
   1  -2   7 12009.4 238.294   9
   1  -2   7 12013.7 219.022  25
   1  -2   7 11856.2 238.781  24
   1  -2   8 970.498 69.7381  41
   1  -2   8 974.050 70.4415  21
   1  -2   8 984.657 214.896  34
   1  -2   8 979.561 68.2513  30
   1  -2   8 911.646 65.2346   9
   1  -2   8 941.311 63.9328  31
   1  -2   8 958.174 61.9560  25
  -1   2  -8 952.752 195.861  38
   1  -2   8 984.618 65.2649  11
   1  -2   8 979.948 70.1885  24
   1  -2   8 969.762 63.3155  33
   1  -2   9 2189.97 110.902  21
   1  -2   9 2137.30 107.484   9
  -1   2  -9 2153.49 306.260  38
   1  -2   9 2457.97 348.623  34
   1  -2   9 2291.65 101.943  31
   1  -2   9 2162.01 100.700  33
   1  -2   9 2252.46 106.335  30
   1  -2   9 2286.63 101.785  11
   1  -2   9 2107.92 92.6450  28
   1  -2   9 2252.67 100.622  25
   1  -2   9 2167.32 109.586  24
   1  -2  10 1326.79 79.9602  25
   1  -2  10 1299.11 91.3087  21
  -1   2 -10 1296.88 239.508  38
   1  -2  10 1306.92 80.9570  31
   1  -2  10 1237.73 73.7258  28
   1  -2  10 1228.92 275.012  34
   1  -2  10 1262.44 82.7236  30
   1  -2  10 1246.02 84.1857   9
   1  -2  10 1222.40 76.7399  11
   1  -2  10 1333.80 80.4617  33
   1  -2  10 1224.63 82.0683  24
   1  -2  11 3063.27 126.638  11
   1  -2  11 3239.40 125.887  25
   1  -2  11 3155.53 126.979  33
   1  -2  11 2932.64 130.473  30
   1  -2  11 2895.07 120.952  31
   1  -2  11 2948.94 115.829  28
   1  -2  11 3183.99 144.742  21
   1  -2  11 2961.74 132.997   9
   1  -2  11 2907.71 134.076  24
   1  -2  11 2889.15 410.056  34
   1  -2  12 1562.66 92.8287  30
   1  -2  12 1442.58 80.0971  28
   1  -2  12 1524.54 87.4490  33
   1  -2  12 1446.14 291.349  34
   1  -2  12 1699.95 105.288  21
   1  -2  12 1528.69 87.1841  31
   1  -2  12 1537.37 86.0185  25
   1  -2  12 1558.91 96.4326   9
   1  -2  12 1624.08 89.2125  11
   1  -2  13 6742.59 198.690  21
   1  -2  13 6249.89 173.190  33
   1  -2  13 6586.89 188.976   9
   1  -2  13 6403.80 180.629  30
   1  -2  13 6525.08 174.950  25
   1  -2  13 6525.72 172.728  31
   1  -2  13 6788.59 179.332  11
   1  -2  14 361.972 38.9296  31
   1  -2  14 360.222 40.7723  33
   1  -2  14 450.828 44.4356  25
   1  -2  14 363.827 36.1010  28
   1  -2  14 419.016 45.1879  30
   1  -2  14 427.858 45.3763  11
   1  -2  15 160.664 25.7932  25
   1  -2  15 133.176 23.6143  33
   1  -2  15 146.971 22.9609  31
   1  -2  15 155.997 25.5238  30
  -1   1  16 16.7399 19.8679  11
  -1   1  16 19.9177 13.0496  33
  -1   1  16 14.0624 18.1863  41
  -1   1  16 2.01708 15.9425  25
   1  -1 -16 15.8318 18.1022  14
  -1   1  16 18.9834 16.7032  28
  -1   1  15 972.057 67.9037  11
  -1   1  15 671.145 62.8042  41
   1  -1 -15 860.513 71.8106  14
  -1   1  15 915.521 72.8507   2
  -1   1  15 849.233 65.9669  25
  -1   1  15 909.813 64.3593  28
  -1   1  15 755.653 55.7180  31
  -1   1  15 896.780 56.5205  33
  -1   1  14 813.991 68.7545  11
  -1   1  14 732.545 62.1135  31
  -1   1  14 704.596 54.3607  33
  -1   1  14 773.005 64.3083  28
  -1   1  14 879.665 77.6678   2
  -1   1  14 785.200 66.8978  27
   1  -1 -14 756.473 73.9248  14
  -1   1  14 747.519 68.7132  25
  -1   1  14 694.847 70.0575  41
  -1   1  13 76.1482 29.3548  28
  -1   1  13 125.620 41.2395  11
   1  -1 -13-40.9689 108.726  38
  -1   1  13 88.2793 34.5133  25
  -1   1  13 113.138 30.3475  33
  -1   1  13 82.0806 27.3706   2
  -1   1  13 101.503 29.5488  31
  -1   1  13 135.591 39.6015  41
  -1   1  13 125.274 81.9290  34
  -1   1  13 87.5140 29.7033  27
  -1   1  12 4813.89 169.226  28
  -1   1  12 4863.63 171.495  11
  -1   1  12 4710.27 167.424  25
  -1   1  12 5349.06 191.150   2
  -1   1  12 4681.13 183.783  41
  -1   1  12 3891.72 513.406  34
   1  -1 -12 4025.85 522.768  38
  -1   1  12 4933.80 178.901  27
  -1   1  12 4771.51 164.721  31
  -1   1  12 4557.31 155.795  33
  -1   1  11 1537.20 95.1584  11
  -1   1  11 1621.43 96.2016  28
  -1   1  11 1497.67 86.4183  33
  -1   1  11 1568.01 307.852  34
   1  -1 -11 1242.24 284.163  38
  -1   1  11 1557.09 98.6970  27
  -1   1  11 1562.30 102.141   2
  -1   1  11 1488.50 98.9014  41
  -1   1  10 737.229 67.3609  11
  -1   1  10 740.749 60.3497  33
  -1   1  10 864.550 68.9383  28
   1  -1 -10 821.943 75.7765  15
  -1   1  10 787.015 235.321  34
  -1   1  10 793.261 72.2769   2
   1  -1 -10 707.201 196.974  38
  -1   1  10 906.973 73.9440  27
  -1   1  10 755.429 68.6484  41
  -1   1   9 13268.9 276.440  11
   1  -1  -9 13657.1 794.967  38
  -1   1   9 14531.9 291.990   2
   1  -1  -9 13594.6 301.699  15
  -1   1   9 13808.5 275.154  28
  -1   1   9 13903.9 260.711  33
  -1   1   9 14149.5 283.335  27
  -1   1   9 14640.8 291.073  41
  -1   1   9 13831.8 266.608  16
   1  -1  -8 4388.38 375.172  37
  -1   1   8 5015.81 151.424  11
   1  -1  -8 5023.87 442.950  38
  -1   1   8 5031.34 161.000   2
  -1   1   8 5125.52 156.368  27
  -1   1   8 5196.06 157.330  41
  -1   1   7 8411.60 191.755  41
  -1   1   7 7707.79 444.998  36
   1  -1  -7 7254.07 455.808  37
  -1   1   7 7791.34 191.759   2
   1  -1  -7 8300.17 525.216  38
  -1   1   7 7632.01 527.759  35
  -1   1   6-10.9062 67.9635  35
  -1   1   6-38.8327 62.3199   5
   1  -1  -6 51.5227 55.9323  37
   1  -1  -6 24.9693 60.0389  38
   1  -1  -6-2.85620 50.8460   4
  -1   1   6-3.16520 46.5210  36
  -1   1   6-12.7318 23.1648   2
  -1   1   6 5.52458 18.2809  41
  -1   1   5 6157.38 369.608  35
  -1   1   5 6164.28 362.853  36
  -1   1   5 6779.48 148.436  41
  -1   1   5 6260.93 339.587   5
   1  -1  -5 5977.70 354.986   4
  -1   1   5 5540.44 140.637   2
   1  -1  -5 6186.59 372.584  38
   1  -1  -5 5809.84 359.274  37
  -1   1   4 55438.8 1038.22  35
  -1   1   4 53033.0 1095.30   5
   1  -1  -4 53479.0 1085.35  37
   1  -1  -4 55344.3 1069.17  38
   1  -1  -4 54027.6 1151.28   4
  -1   1   4 55462.2 1094.87  36
   1  -1  -3 27.4302 55.7188   4
  -1   1   3 100.451 58.2843   5
   1  -1  -3 42.8240 51.4203  37
   1  -1  -3 33.5265 36.3891  38
  -1   1   3 69.6035 53.4707  36
   1  -1  -2 3681.97 213.765  38
  -1   1   2 3616.54 257.443  36
   1  -1  -2 3624.83 280.835   4
   1  -1  -2 3589.95 245.923  37
  -1   1   2 3647.18 265.744   5
  -1   1   2 3565.65 223.375  39
   1  -1  -1 67154.8 1105.31  37
   1  -1  -1 63316.6 1220.83   4
  -1   1   1 65111.9 928.256  39
  -1   1   0 87122.7 1060.55  39
   1  -1   0 88210.0 1457.18   4
   1  -1   0 86493.3 997.761  38
  -1   1  -1 115049. 1353.30  39
   1  -1   1 114552. 1700.54   4
  -1   1  -2 1315.10 158.970   5
   1  -1   2 1548.89 146.427  34
   1  -1   2 1397.84 175.522   4
  -1   1  -2 1554.99 151.705  39
   1  -1   3 7847.22 359.611  34
   1  -1   3 7842.46 408.476   4
  -1   1  -3 7941.08 395.405   5
   1  -1   4 8809.89 420.354  34
  -1   1  -4 8463.76 411.751   5
   1  -1   4 8793.88 427.786   4
   1  -1   5 9210.35 465.530  34
  -1   1  -5 8473.59 405.542   5
   1  -1   5 9074.13 418.736   4
   1  -1   5 8914.83 170.297  41
   1  -1   6 46273.4 493.240  41
  -1   1  -6 44574.8 905.807   5
   1  -1   6 48178.5 1188.57  34
  -1   1  -6 46660.2 1053.65  38
   1  -1   6 45597.8 904.424   4
   1  -1   6 44160.5 449.109   2
   1  -1   7 24043.2 342.314  41
   1  -1   7 25646.9 917.193  34
  -1   1  -7 25417.1 841.310  38
   1  -1   7 23739.0 313.696   2
   1  -1   8 6247.74 158.524  25
   1  -1   8 6126.37 156.208  11
   1  -1   8 6591.39 173.281  30
   1  -1   8 6133.60 154.960   2
   1  -1   8 6467.39 178.287  21
   1  -1   8 6402.93 172.373   9
  -1   1  -8 6308.79 448.548  38
   1  -1   8 6629.98 499.853  34
   1  -1   8 6159.40 170.907  41
   1  -1   8 6283.77 162.931  33
   1  -1   8 6187.33 169.631  24
   1  -1   9 2977.48 125.398  21
  -1   1  -9 3127.00 338.879  38
   1  -1   9 2873.46 119.823  30
   1  -1   9 2805.78 109.949  25
   1  -1   9 2888.26 122.963   9
   1  -1   9 2796.18 114.098  33
   1  -1   9 3000.73 356.167  34
   1  -1   9 2769.70 108.703  11
   1  -1   9 2923.45 111.256  31
   1  -1   9 2862.56 122.449  41
   1  -1   9 2729.00 119.151  24
   1  -1   9 2816.51 121.562  23
   1  -1   9 2903.91 111.528   2
   1  -1  10 1711.70 89.8178  11
   1  -1  10 1709.21 98.8335   9
   1  -1  10 1625.45 96.2793  41
   1  -1  10 1708.91 100.637  21
  -1   1 -10 1874.55 279.753  38
   1  -1  10 1620.12 284.536  34
   1  -1  10 1780.20 98.0513  30
   1  -1  10 1651.75 87.2417   2
   1  -1  10 1655.42 92.4465  33
   1  -1  10 1593.95 88.5914  25
   1  -1  10 1681.13 87.9334  31
   1  -1  10 1526.62 94.7209  24
   1  -1  11 3292.69 128.495  11
   1  -1  11 3295.22 144.149  21
   1  -1  11 3243.62 141.076  41
   1  -1  11 2957.42 403.734  34
   1  -1  11 3223.05 140.859   9
   1  -1  11 3195.45 137.709  30
   1  -1  11 2934.33 125.113  28
   1  -1  11 3156.56 132.518  33
   1  -1  11 3074.96 126.012  25
   1  -1  11 2694.30 118.305  24
   1  -1  11 3174.23 124.388  31
   1  -1  12 1116.16 92.4955  21
   1  -1  12 1041.99 77.4119  33
   1  -1  12 1063.58 85.8392  41
   1  -1  12 961.160 70.5777  31
   1  -1  12 821.565 232.734  34
   1  -1  12 1063.22 79.2134  30
   1  -1  12 1062.75 74.6075  25
   1  -1  12 1007.49 71.8478  28
   1  -1  12 1003.97 72.6186  11
   1  -1  12 1123.14 84.4557   9
   1  -1  13 702.156 61.5605  11
   1  -1  13 745.241 65.6044  33
   1  -1  13 791.190 77.5785  21
   1  -1  13 720.702 68.0358   9
   1  -1  13 743.669 59.7229  31
  -1   1 -13 731.143 268.082  39
   1  -1  13 732.988 65.2657  30
   1  -1  13 678.021 58.2969  28
   1  -1  13 732.517 61.4120  25
   1  -1  13 673.057 211.887  34
   1  -1  14 228.262 37.1088  30
   1  -1  14 208.938 34.6222  11
   1  -1  14 252.751 37.5718  25
   1  -1  14 172.014 32.7903  33
   1  -1  14 228.044 35.4660  31
   1  -1  14 207.267 35.5493  28
   1  -1  14 158.271 35.4427   9
   1  -1  15 251.921 34.8216  11
   1  -1  15 280.848 36.2525  33
   1  -1  15 259.854 37.4706   9
   1  -1  15 227.100 32.1264  30
   1  -1  15 218.695 30.9476  28
   1  -1  15 253.996 34.7837  25
   1  -1  16 255.623 29.2830  33
   1  -1  16 221.407 24.3384  30
   1  -1  16 220.429 26.1464  25
  -1   0  16 421.632 33.9292  31
  -1   0  16 433.061 31.9814  33
  -1   0  16 518.956 39.4697  28
  -1   0  16 448.865 38.4320  25
  -1   0  16 566.699 41.5980  11
  -1   0  15 80.6609 26.4626  41
  -1   0  15 165.265 30.0160  28
  -1   0  15 176.969 32.8754  11
  -1   0  15 112.665 24.0876  33
  -1   0  15 125.895 28.0776   2
  -1   0  15 121.962 29.3798  31
  -1   0  15 126.130 27.8601  25
  -1   0  14 1374.53 86.3608  11
  -1   0  14 1214.24 78.2736  31
  -1   0  14 1252.33 81.7360  28
  -1   0  14 1110.51 84.1955  41
   1   0 -14 1267.83 83.1939  14
  -1   0  14 1280.47 87.5047   2
  -1   0  14 1165.32 80.2567  25
  -1   0  14 1259.70 70.8991  33
  -1   0  13 134.221 39.7224  41
  -1   0  13 127.955 29.0727  33
  -1   0  13 145.265 35.8611   2
   1   0 -13 146.429 37.8931  14
  -1   0  13 184.810 43.1057  11
  -1   0  13 142.592 37.9045  28
  -1   0  13 5.92444 83.3687  34
  -1   0  13 177.101 36.8290  25
   1   0 -13 156.287 90.0984  38
  -1   0  13 159.668 39.4152  31
  -1   0  12 1852.15 104.918  11
  -1   0  12 1671.07 107.572  41
  -1   0  12 1791.87 95.6174  33
  -1   0  12 1863.24 103.821  25
  -1   0  12 1839.94 103.469  31
  -1   0  12 1920.48 112.924   2
   1   0 -12 1529.12 319.897  38
  -1   0  12 1419.68 326.685  34
  -1   0  12 1780.93 101.059  28
  -1   0  12 1740.21 102.797  27
  -1   0  11 22500.2 365.161  33
  -1   0  11 22074.5 386.572  27
  -1   0  11 22058.1 377.768  11
  -1   0  11 20968.9 1173.47  34
  -1   0  11 22319.8 377.760  28
  -1   0  11 20445.2 393.652  41
   1   0 -11 21492.7 1188.12  38
  -1   0  11 22355.2 377.849  25
  -1   0  11 22814.4 376.169  31
  -1   0  10 8551.05 723.180  34
   1   0 -10 8426.26 695.719  38
  -1   0  10 8440.99 208.542  33
  -1   0  10 8285.17 220.892  27
  -1   0  10 8424.48 213.792  31
  -1   0  10 8946.19 234.704   2
  -1   0  10 8411.72 215.485  11
  -1   0  10 8372.76 213.230  28
  -1   0  10 8623.40 231.941  41
  -1   0  10 8281.95 210.119  25
  -1   0   9 124.649 33.8409   2
  -1   0   9 145.813 32.9915  11
   1   0  -9-12.5581 85.6199  37
  -1   0   9 106.672 33.1835  41
  -1   0   9 147.393 30.3632  33
  -1   0   9 89.8786 29.2941  28
  -1   0   9 109.950 24.1184  27
   1   0  -9 136.185 120.520  38
  -1   0   9 108.917 109.225  34
   1   0  -8 1472.39 250.083  38
   1   0  -8 1313.89 224.072  37
  -1   0   8 1429.63 78.7875  11
  -1   0   8 1318.65 77.3091  28
  -1   0   8 1408.66 84.5685   2
  -1   0   8 1443.31 74.7832  33
  -1   0   8 1442.44 81.0637  27
  -1   0   8 1415.01 82.2143  41
  -1   0   7 7934.03 196.639   2
   1   0  -7 7932.01 531.932  38
  -1   0   7 7870.79 186.163  41
   1   0  -7 7394.13 482.748  37
   1   0  -6 16403.6 698.309  38
  -1   0   6 15846.8 259.540  42
  -1   0   6 16173.3 254.086  41
   1   0  -6 15266.2 658.260  37
  -1   0   6 15514.8 270.242   2
  -1   0   5 42681.3 855.985   5
  -1   0   5 46215.9 459.997  41
   1   0  -5 42700.5 1035.50  37
   1   0  -5 42041.2 917.857   4
  -1   0   5 43989.5 469.836  42
   1   0  -5 44854.2 1081.18  38
  -1   0   5 41297.5 775.537  36
   1   0  -4 193.754 66.1858  37
   1   0  -4 184.750 73.7606  38
  -1   0   4 178.353 56.5423   5
  -1   0   4 197.363 58.5899  36
   1   0  -3 12543.8 474.056  37
   1   0  -3 12472.0 454.997  38
  -1   0   3 12826.5 385.854  36
  -1   0   3 12539.2 455.417   5
  -1   0   2 16594.6 525.578   5
   1   0  -2 16095.1 455.850  38
   1   0  -2 15798.2 496.158  37
  -1   0   2 16150.0 525.024  39
   1   0  -1 29643.3 539.220  38
   1   0  -1 31218.3 749.507   1
   1   0  -1 30444.1 656.150  37
  -1   0   1 31711.6 725.359   5
  -1   0   1 31596.7 662.884  39
  -1   0   0 27073.5 571.600  39
   1   0   0 26362.1 396.436  38
   1   0   0 25806.5 667.553   1
  -1   0  -1 64177.2 961.358  39
   1   0   1 65082.8 1100.55   1
   1   0   2 72.4815 40.5307  37
  -1   0  -2 63.3592 48.2882   5
  -1   0  -2 60.2220 46.5996  39
  -1   0  -3 19579.7 571.337   5
  -1   0  -3 19618.9 345.188  38
   1   0   3 21539.9 661.297  35
   1   0   3 20497.7 492.581  34
  -1   0  -3 21034.8 603.293  39
  -1   0  -4 1589.99 159.866   5
  -1   0  -4 1440.08 116.963  38
   1   0   4 1613.65 150.624  34
  -1   0  -5 77.1344 51.1620   5
   1   0   5 41.4993 53.2177  34
   1   0   5 63.8387 43.3575   4
  -1   0  -5 9.01851 30.0266  38
  -1   0  -6 9289.95 410.699  38
  -1   0  -6 8674.96 360.156   5
   1   0   6 8821.93 352.579   4
   1   0   6 9421.14 181.390  41
   1   0   6 9186.23 168.491   2
   1   0   7 52129.2 557.849  41
   1   0   7 51553.2 534.473   2
  -1   0  -8 13602.9 623.836  38
   1   0   8 13407.4 254.752  41
   1   0   8 14496.9 687.522  34
   1   0   8 13372.1 243.068   2
   1   0   9 224.849 35.7924  22
   1   0   9 214.664 34.8849  11
   1   0   9 226.156 39.8224  41
   1   0   9 165.163 35.3795   9
  -1   0  -9 182.389 93.7930  38
   1   0   9 206.903 35.9544  30
   1   0   9 302.516 113.337  34
   1   0   9 199.681 32.5667   2
   1   0   9 194.459 38.6933  21
   1   0   9 197.361 33.0379  25
   1   0   9 244.584 42.2974  24
   1   0  10 488.547 50.3758   2
   1   0  10 447.296 55.6485   9
   1   0  10 473.009 53.9957  22
   1   0  10 474.547 53.2968  33
  -1   0 -10 619.672 152.080  38
   1   0  10 413.587 57.2401  23
   1   0  10 503.075 169.381  34
   1   0  10 489.579 55.5107  30
   1   0  10 436.291 58.3369  21
   1   0  10 487.688 48.8234  11
   1   0  10 436.004 46.8417  31
   1   0  10 439.148 48.7192  25
   1   0  10 456.375 54.1507  41
   1   0  10 302.217 56.9721  24
   1   0  11 3705.26 134.515  11
   1   0  11 3680.89 144.935   2
   1   0  11 3714.31 153.523  21
   1   0  11 3646.99 151.673   9
   1   0  11 3669.17 149.318  41
   1   0  11 3698.07 128.608  31
   1   0  11 3566.84 415.172  34
  -1   0 -11 3089.69 372.111  38
   1   0  11 3594.43 137.042  25
   1   0  11 3780.05 148.503  30
   1   0  11 3586.93 142.308  33
   1   0  12 2865.41 119.661  11
   1   0  12 2764.00 139.240  21
   1   0  12 2685.22 112.186  31
   1   0  12 2264.67 342.613  34
   1   0  12 2717.52 127.392  33
   1   0  12 2719.50 127.836  30
   1   0  12 2799.23 134.602   9
   1   0  12 2712.85 121.791  25
   1   0  12 2753.35 133.509  41
   1   0  13 3691.33 139.493  25
   1   0  13 3574.23 145.035  33
   1   0  13 3682.75 156.711  41
   1   0  13 3826.21 154.562   9
  -1   0 -13 3539.00 538.984  39
   1   0  13 3364.75 123.236  31
   1   0  13 3694.57 136.627  11
   1   0  13 3538.97 142.515  28
   1   0  13 3580.37 144.017  30
   1   0  14 89.4887 29.2571  11
   1   0  14 95.7457 27.9109  30
   1   0  14 66.2815 27.2346  33
   1   0  14 117.098 29.7057  25
   1   0  14 53.6722 27.3234  41
   1   0  14 20.5768 17.7606  31
   1   0  14 40.0047 25.4511  28
   1   0  14 75.2077 28.1502   9
   1   0  15 54.9283 20.1208  11
   1   0  15 83.9081 24.6501   9
   1   0  15 73.4910 25.4100  33
   1   0  15 61.1446 20.1259  30
   1   0  15 98.9943 28.1303  28
   1   0  15 69.4839 25.4997  25
   1   0  16 71.9570 24.5608  33
   1   0  16 77.2606 20.1238  11
   1   0  16 54.4709 20.5324  25
   1   0  16 45.0666 16.6971  30
   1   0  16 52.9064 21.3433   9
   1   0  16 76.8577 19.4510  28
  -1  -1  15 354.860 39.3165  11
  -1  -1  15 295.617 29.9250  33
  -1  -1  15 344.446 36.8988  31
  -1  -1  15 276.291 35.3383   2
  -1  -1  15 418.330 40.3645  28
  -1  -1  15 334.846 37.1807  25
  -1  -1  14 1199.86 75.1327  28
  -1  -1  14 1246.54 76.3609  11
  -1  -1  14 1169.44 66.8251  33
  -1  -1  14 1091.97 71.1253  31
  -1  -1  14 1190.91 73.2793  25
  -1  -1  14 1144.78 78.1320   2
  -1  -1  13 1072.20 79.9496  11
  -1  -1  13 891.795 78.3745  41
  -1  -1  13 1054.08 75.7639  28
  -1  -1  13 1002.31 68.4858  33
  -1  -1  13 1011.16 77.6005  31
  -1  -1  13 967.072 73.6704  25
  -1  -1  13 1015.93 78.1697   2
  -1  -1  12 1668.72 89.6041  33
  -1  -1  12 1338.02 311.853  34
  -1  -1  12 1743.41 103.385   2
  -1  -1  12 1674.17 99.5904  11
  -1  -1  12 1695.96 97.2087  25
  -1  -1  12 1706.96 97.1270  28
  -1  -1  12 1687.81 101.354  31
   1   1 -12 1487.91 331.743  38
  -1  -1  12 1471.70 99.5273  41
  -1  -1  11 23666.6 390.959  11
  -1  -1  11 23217.1 366.726  33
   1   1 -11 21026.3 1199.93  38
  -1  -1  11 19816.9 1160.36  34
  -1  -1  11 22261.3 393.582   2
  -1  -1  11 20192.0 384.294  41
  -1  -1  11 22308.2 373.695  28
  -1  -1  11 23376.2 386.225  25
  -1  -1  11 21760.8 373.011  31
  -1  -1  10 15160.9 296.090  11
  -1  -1  10 15356.7 286.526  33
  -1  -1  10 15178.7 972.773  34
  -1  -1  10 15685.6 316.218   2
   1   1 -10 15200.2 967.949  38
  -1  -1  10 14896.1 292.886  25
  -1  -1  10 15256.7 294.755  28
  -1  -1  10 15309.2 316.356  41
  -1  -1  10 14730.3 294.673  27
  -1  -1  10 15684.9 299.790  31
  -1  -1   9 3639.37 134.428  27
  -1  -1   9 3896.38 137.353  28
   1   1  -9 4270.10 490.451  38
  -1  -1   9 3750.47 137.615  11
  -1  -1   9 3630.00 138.290  31
  -1  -1   9 3915.18 147.272   2
  -1  -1   9 3928.48 476.589  34
  -1  -1   9 3740.81 130.570  33
  -1  -1   9 3682.69 134.092  25
  -1  -1   9 3707.40 143.197  41
   1   1  -9 3168.81 371.252  37
   1   1  -8 622.164 168.498  37
   1   1  -8 884.735 214.140  38
  -1  -1   8 884.867 69.6869   2
  -1  -1   8 621.500 179.803  34
  -1  -1   8 824.372 58.3934  33
  -1  -1   8 824.488 63.3532  25
  -1  -1   8 817.719 62.5244  11
  -1  -1   8 781.789 60.9711  28
  -1  -1   8 892.200 62.7660  27
  -1  -1   8 815.434 64.4844  41
   1   1  -7 294.391 127.964  38
   1   1  -7 277.311 122.360  37
  -1  -1   7 247.022 35.1216  41
  -1  -1   7 320.741 132.816  34
  -1  -1   7 280.927 39.5407   2
  -1  -1   7 318.515 38.9776  28
   1   1  -6 1269.32 217.140  38
  -1  -1   6 1316.31 69.6551  41
  -1  -1   6 1343.61 73.0501  42
   1   1  -6 1175.25 204.944  37
  -1  -1   5 13379.2 215.940  41
   1   1  -5 13193.7 611.800  37
  -1  -1   5 13763.6 230.253  42
  -1  -1   4 80581.6 1368.14   5
   1   1  -4 78892.1 1413.11   1
   1   1  -4 81436.1 1510.33  37
  -1  -1   3 2438.24 219.526   5
   1   1  -3 2619.18 234.322   1
   1   1  -3 2384.64 228.580  37
  -1  -1   2 20691.6 640.682   5
   1   1  -2 19882.7 621.256  37
   1   1  -2 20272.0 631.770   1
   1   1  -1 26267.0 707.827   1
  -1  -1   1 27390.8 714.809   5
   1   1  -1 27070.0 668.145  37
   1   1   0 19953.8 522.559  37
  -1  -1   0 21125.3 541.921  39
   1   1   1 44.6156 50.2780   1
   1   1   1 18.0625 35.8324  37
  -1  -1  -1 27.2457 45.5321  39
  -1  -1  -2 8392.16 348.280  39
   1   1   2 8076.15 267.991  37
   1   1   2 8102.09 335.358  35
  -1  -1  -2 7803.80 372.764   5
   1   1   2 7578.95 359.791   1
  -1  -1  -3 32381.0 797.349   5
  -1  -1  -3 34632.9 784.187  39
   1   1   3 34457.6 822.810  35
  -1  -1  -3 32806.4 540.662  38
   1   1   3 31008.0 528.442  37
   1   1   3 30520.9 752.239   1
   1   1   4 17091.4 551.756   1
  -1  -1  -4 18498.5 614.920  39
   1   1   4 16800.1 396.940  34
  -1  -1  -4 18545.4 445.779  38
   1   1   4 18174.0 660.496  35
  -1  -1  -4 17697.1 592.921   5
   1   1   5 1514.61 61.7382   2
   1   1   5 1567.89 169.412   1
  -1  -1  -5 1513.14 179.536   5
   1   1   5 1697.79 225.983  35
   1   1   5 1435.34 139.090  34
  -1  -1  -5 1535.71 145.203  38
   1   1   6 22391.6 293.788   2
   1   1   6 22565.9 295.253  41
   1   1   6 23554.6 654.112  34
   1   1   6 23445.7 917.494  35
  -1  -1  -6 23448.7 651.621  38
   1   1   7 825.340 57.6882   2
   1   1   7 1001.49 213.060  35
   1   1   7 924.670 59.1214  41
  -1  -1  -7 871.121 150.232  38
   1   1   7 1076.42 167.901  34
   1   1   8 380.537 42.9613   2
   1   1   8 371.261 165.957  35
  -1  -1  -8 276.861 91.1069  38
   1   1   8 360.515 42.0966  41
   1   1   8 326.606 92.9478  34
   1   1   9 6104.32 170.052   2
   1   1   9 5968.12 173.260  22
   1   1   9 5912.90 170.216  21
   1   1   9 5980.80 175.379   9
   1   1   9 5870.17 170.434  30
  -1  -1  -9 5607.96 431.129  38
   1   1   9 5620.65 191.651  24
   1   1   9 5740.53 442.039  34
   1   1   9 5610.85 153.272  25
   1   1   9 6162.83 175.130  41
   1   1  10 699.236 57.2100  11
   1   1  10 780.039 68.4805  22
   1   1  10 748.562 69.9385  21
   1   1  10 699.706 72.6623  23
   1   1  10 758.093 65.7535  30
  -1  -1 -10 790.406 184.798  38
   1   1  10 681.222 60.2487  25
   1   1  10 723.937 61.9239   8
   1   1  10 680.461 155.828  34
   1   1  10 714.743 65.1059   2
   1   1  10 744.667 68.7671   9
   1   1  10 749.897 66.4682  41
   1   1  11 892.121 76.4603  22
   1   1  11 925.165 75.1838   2
   1   1  11 893.370 83.9256  21
   1   1  11 931.059 68.8117  11
   1   1  11 946.090 80.9005   9
   1   1  11 842.323 192.587  34
   1   1  11 1026.83 81.9285  41
   1   1  11 1007.80 76.4022  30
  -1  -1 -11 843.795 201.411  38
   1   1  11 927.920 71.8037  25
   1   1  11 842.579 79.0511  23
   1   1  12 1.49963 22.7380  11
   1   1  12-6.42152 26.2045  41
   1   1  12 51.0555 38.0932  23
   1   1  12-6.50513 24.5421  30
   1   1  12 5.81493 24.8753  33
  -1  -1 -12-6.57693 134.576  39
   1   1  12 51.2326 43.5507  21
   1   1  12 0.94369 22.1114  25
   1   1  12-10.8328 27.5708   9
   1   1  13 6899.31 186.717  11
   1   1  13 6877.62 214.946  41
   1   1  13 6998.93 212.049   9
   1   1  13 6890.72 204.720  33
   1   1  13 6544.62 197.836  30
   1   1  13 6229.32 189.894  27
   1   1  13 6860.41 194.415  25
   1   1  14 2375.89 106.094  11
   1   1  14 2311.94 123.565  41
  -1  -1 -14 2688.10 480.763  39
   1   1  14 2558.94 113.028  25
   1   1  14 2286.94 117.679  28
   1   1  14 2055.74 102.035  27
   1   1  14 2443.36 120.578   9
   1   1  14 2108.96 104.254  30
   1   1  14 2485.00 119.398  33
   1   1  15 4217.02 129.420  11
   1   1  15 3660.52 148.711  41
   1   1  15 4346.90 146.699  33
   1   1  15 3604.58 125.518  30
   1   1  15 4046.99 144.979  28
   1   1  15 4039.43 143.840   9
   1   1  15 4299.88 136.930  25
   1   1  16 77.5287 23.2083  28
   1   1  16 114.460 25.7452  33
   1   1  16 95.9249 20.9252  30
   1   1  16 134.655 26.0197  25
   1   1  16 126.270 27.7220   9
   1   1  17 23.4251 13.8999  28
   1   1  17 27.2421 16.5684   9
   1   1  17 15.6499 15.8664  33
   1   1  17 9.17653 13.0008  25
  -1  -2  15 2295.00 74.0649  33
  -1  -2  15 2574.64 85.0795  31
  -1  -2  15 2573.36 83.3549  28
  -1  -2  15 2239.16 77.8492  25
  -1  -2  15 2450.01 85.5019  11
  -1  -2  14 356.678 36.5090  33
  -1  -2  14 404.501 41.2153  25
  -1  -2  14 401.413 43.7738  11
  -1  -2  14 415.419 42.8052  31
  -1  -2  14 445.191 41.6318  28
  -1  -2  14 324.920 39.7333   2
  -1  -2  13-11.7657 25.4840  11
  -1  -2  13-5.11005 18.3295  33
  -1  -2  13 32.3054 27.5372  31
  -1  -2  13 28.4073 23.7884  28
  -1  -2  13 5.63407 20.0066  25
  -1  -2  13 21.8980 17.9554   2
  -1  -2  12-10.9496 30.7603  11
   1   2 -12-95.6213 90.8089  38
  -1  -2  12-34.4093 27.3946  32
  -1  -2  12 4.43145 23.3619   2
  -1  -2  12 0.70647 27.8990  31
  -1  -2  12 22.9302 83.0069  34
  -1  -2  12 11.7410 23.2158  28
  -1  -2  12-38.6992 21.2107  33
  -1  -2  12-20.4113 27.9388  25
  -1  -2  11 98.7271 33.8190  11
   1   2 -11 123.135 115.738  38
  -1  -2  11 88.7280 28.1336   2
  -1  -2  11 92.4062 30.1470  33
  -1  -2  11 122.690 99.3970  34
  -1  -2  11 29.8291 25.3926  41
  -1  -2  11 93.2071 35.3544  31
  -1  -2  11 56.3723 25.6384  25
  -1  -2  11 107.071 35.7680  28
  -1  -2  11 105.883 33.8251  32
  -1  -2  10 13274.0 278.873  11
  -1  -2  10 12361.8 282.614  41
  -1  -2  10 12174.3 269.756  12
  -1  -2  10 13178.8 264.226  33
  -1  -2  10 13077.7 273.115  32
   1   2 -10 13907.3 968.626  38
  -1  -2  10 13708.1 281.869  31
  -1  -2  10 13946.9 294.961   2
  -1  -2  10 13405.7 276.039  28
  -1  -2  10 13090.7 915.743  34
  -1  -2  10 13477.3 273.633  25
  -1  -2   9 16997.9 310.159  11
  -1  -2   9 16868.5 274.650  30
  -1  -2   9 17073.7 323.110  41
  -1  -2   9 17496.9 319.012  32
  -1  -2   9 17318.3 309.645  28
  -1  -2   9 17059.9 1015.88  34
  -1  -2   9 16914.8 299.205  33
  -1  -2   9 16853.1 308.009  31
  -1  -2   9 17618.6 332.017   2
   1   2  -9 15284.3 899.899  37
   1   2  -9 18097.5 1063.87  38
  -1  -2   9 16663.4 316.566  12
  -1  -2   9 17021.7 305.287  25
  -1  -2   8 25.8525 22.1825  31
  -1  -2   8 14.2031 98.4165  34
  -1  -2   8 13.7192 20.3769   2
  -1  -2   8-0.58717 19.9692  33
   1   2  -8 26.9673 99.7201  38
  -1  -2   8 30.1588 16.6444  30
  -1  -2   8-3.40024 26.2287  12
  -1  -2   8 2.10950 18.7883  11
  -1  -2   8 2.05826 18.0211  41
  -1  -2   8 14.3163 21.9577  28
  -1  -2   8 40.0518 23.8838  25
   1   2  -8-41.8619 61.9809  37
  -1  -2   7 7691.69 183.001  11
  -1  -2   7 7600.05 203.120   2
   1   2  -7 8178.36 644.143  38
   1   2  -7 8475.63 622.736  37
  -1  -2   7 7777.89 628.173  34
  -1  -2   7 7468.78 185.557  31
  -1  -2   7 7929.50 180.336  33
  -1  -2   7 8098.51 196.086  41
  -1  -2   7 7919.28 186.863  28
  -1  -2   7 7412.84 176.395  25
  -1  -2   7 8021.43 200.053  12
   1   2  -6-16.7157 59.2869  37
  -1  -2   6 39.8724 18.5732  41
  -1  -2   6 38.5390 75.6019  34
  -1  -2   6 37.3163 18.2995  42
   1   2  -5 604.247 125.583   1
  -1  -2   5 781.411 55.3720  42
   1   2  -5 669.812 167.947  37
  -1  -2   5 639.425 48.6760  41
  -1  -2   5 683.005 170.036  34
  -1  -2   4 13219.4 642.779  34
   1   2  -4 12866.3 641.123  37
  -1  -2   4 14473.2 237.091  42
   1   2  -4 12664.7 584.768   1
  -1  -2   3-10.8630 13.3574  42
   1   2  -3 54.5644 59.1217   1
   1   2  -3 42.9787 62.8272  37
  -1  -2   3-58.2914 80.6457  34
  -1  -2   2 1519.95 210.492   5
   1   2  -2 1648.23 211.285  37
  -1  -2   2 1781.45 202.278  34
   1   2  -2 1702.52 211.035   1
   1   2  -1 8774.73 445.692  37
  -1  -2   1 9245.31 385.660  34
  -1  -2   1 9612.64 439.043  39
   1   2  -1 8321.04 454.640   1
  -1  -2   0 45247.8 769.622  34
   1   2   0 48079.3 997.746  37
   1   2   0 44523.3 1078.41   1
  -1  -2   0 45471.8 1104.06   5
  -1  -2  -1 4323.20 264.720  39
  -1  -2  -1 3578.30 155.657  34
   1   2   1 3627.63 242.911  37
   1   2   1 3837.71 311.650   1
   1   2   2 975319. 7295.29  37
  -1  -2  -2 999999. 8037.81   5
  -1  -2  -2 994724. 7509.95  39
   1   2   3 1096.91 171.447   1
  -1  -2  -3 1195.24 145.030  39
  -1  -2  -3 1048.02 114.319  38
   1   2   3 1007.10 165.204  36
  -1  -2  -3 1076.15 168.277   5
   1   2   3 1219.61 112.038  37
   1   2   4 1279.25 187.555  35
  -1  -2  -4 1284.24 142.979  38
   1   2   4 1244.97 178.044   1
   1   2   4 1122.05 88.2015  37
  -1  -2  -4 1262.89 171.349  39
  -1  -2  -5 1346.45 157.348  38
   1   2   5 1059.77 89.5241  34
   1   2   5 1204.17 199.110  35
   1   2   5 1425.12 185.735   1
  -1  -2  -5 1360.80 190.471  39
  -1  -2  -6 22.3842 51.3265  38
  -1  -2  -6-3.43574 65.5234  39
   1   2   6-4.12623 17.6356  41
   1   2   6 62.4090 78.6674  35
   1   2   6 27.1579 59.9812   1
   1   2   7 3507.35 282.839   1
   1   2   7 3980.49 120.866  41
  -1  -2  -7 3724.90 313.707  38
   1   2   7 3684.63 251.559  34
   1   2   7 4027.05 415.951  35
   1   2   7 3576.39 121.845   2
  -1  -2  -7 3609.15 383.168  39
  -1  -2  -8 2297.66 306.299  39
   1   2   8 2136.82 98.9837   2
   1   2   8 2077.71 322.337  35
  -1  -2  -8 2114.21 258.431  38
   1   2   8 2191.08 95.4501  41
   1   2   9 8603.66 214.666  22
   1   2   9 8649.15 206.872  21
  -1  -2  -9 8667.75 653.064  39
   1   2   9 8859.89 214.807   2
  -1  -2  -9 7306.91 508.461  38
   1   2   9 8355.24 700.935  35
   1   2   9 8515.02 209.353   8
   1   2   9 8276.47 209.833   9
   1   2   9 8947.06 212.132  41
   1   2   9 8598.57 218.717  23
   1   2  10 2270.51 113.640   2
   1   2  10 2116.42 111.042  21
  -1  -2 -10 2509.36 407.247  39
   1   2  10 2312.48 112.570  41
   1   2  10 1996.82 365.223  35
   1   2  10 2186.69 113.180  22
   1   2  10 2287.25 112.157   8
   1   2  10 2067.88 109.771   9
   1   2  10 2054.54 105.581  30
  -1  -2 -10 1965.12 282.645  38
   1   2  10 2180.34 117.680  23
   1   2  11 291.883 49.7590  23
   1   2  11 311.523 52.8040   9
   1   2  11 310.844 53.9910  22
  -1  -2 -11 411.111 196.332  39
   1   2  11 306.769 47.6236  41
  -1  -2 -11 167.593 102.134  38
   1   2  11 237.873 38.1890  11
   1   2  11 254.101 47.3866  30
   1   2  11 358.226 50.7704   8
   1   2  11 252.567 41.6683  25
   1   2  12 2365.50 107.800  11
  -1  -2 -12 2794.67 448.829  39
   1   2  12 2605.71 131.180  41
   1   2  12 2250.56 117.997  30
   1   2  12 2445.65 116.282  25
   1   2  12 2277.82 127.459   9
   1   2  13 1152.28 87.2405  33
   1   2  13 1155.07 77.2878  11
   1   2  13 1162.63 88.0104   9
   1   2  13 1052.71 81.7850  30
   1   2  13 1144.77 90.0285  41
   1   2  13 1140.19 80.3509  25
  -1  -2 -13 1070.87 298.061  39
   1   2  14 4065.48 135.778  11
   1   2  14 4410.31 163.458  33
   1   2  14 4132.46 167.342  41
   1   2  14 3792.18 141.449  30
   1   2  14 4244.97 159.681   9
  -1  -2 -14 3780.07 557.130  39
   1   2  14 4570.47 151.591  25
  -1  -2 -15 207.835 45.7583  15
   1   2  15 161.322 26.1512  11
   1   2  15 210.417 39.0820   9
   1   2  15 139.714 31.8186  33
   1   2  15 128.405 28.6918  30
   1   2  15 171.510 36.2176  28
   1   2  15 128.544 30.0349  27
   1   2  15 180.626 41.1653  41
   1   2  15 160.023 33.5067  25
   1   2  16 54.8743 25.6140  28
  -1  -2 -16-9.69417 26.0069  15
   1   2  16-4.13777 21.4643  41
   1   2  16-37.4886 25.1601  33
   1   2  16 22.6167 17.6082  30
   1   2  16-1.40924 16.2094  25
   1   2  16-15.4417 21.2620   9
   1   2  17 59.3820 17.9754   9
   1   2  17 66.6032 19.1522  33
   1   2  17 54.5054 18.2957  28
   1   2  17 87.2326 19.2773  25
  -1  -3  14 18.5036 18.5707  11
  -1  -3  14 33.7890 14.8110  33
  -1  -3  14 32.7151 14.8265  28
  -1  -3  14 71.7513 23.0098  31
  -1  -3  14 20.1869 15.9615  25
  -1  -3  13 83.1037 29.8563  11
  -1  -3  13 53.1427 19.7429  28
  -1  -3  13 91.3941 28.8301  31
  -1  -3  13 58.3701 20.4943  33
  -1  -3  13 55.8374 22.7999  25
  -1  -3  12 13.4280 23.2796  11
  -1  -3  12 32.5374 21.9985  32
  -1  -3  12 29.8460 16.9622   2
  -1  -3  12 53.7901 25.6237  28
  -1  -3  12 19.4780 26.5753  31
  -1  -3  12 28.0763 23.6289  33
  -1  -3  12 53.8973 23.3804  25
  -1  -3  11 6007.23 179.553  32
   1   3 -11 5982.10 665.474  38
  -1  -3  11 6614.67 190.141  11
  -1  -3  11 6681.22 193.057  31
  -1  -3  11 6716.16 166.005  30
  -1  -3  11 6778.94 184.628  25
  -1  -3  11 5624.99 600.285  34
  -1  -3  11 6784.81 185.415  28
  -1  -3  11 6633.21 179.430  33
  -1  -3  11 6395.96 186.820   2
  -1  -3  10 3547.66 140.532  11
  -1  -3  10 3715.89 125.007  30
  -1  -3  10 3655.00 142.608  32
  -1  -3  10 3238.89 455.412  34
  -1  -3  10 3544.03 141.678   2
  -1  -3  10 3716.32 138.736  28
  -1  -3  10 3531.20 131.550  33
   1   3 -10 4071.68 548.453  38
  -1  -3  10 3621.64 142.977  31
  -1  -3  10 3260.36 135.652  12
  -1  -3  10 3620.77 136.288  25
  -1  -3   9 21088.4 357.513  11
  -1  -3   9 20918.6 327.469  30
   1   3  -9 21528.3 1227.54  38
  -1  -3   9 19941.4 1127.82  34
  -1  -3   9 20854.0 341.125  33
  -1  -3   9 21916.4 372.172  32
  -1  -3   9 21238.7 359.579  31
  -1  -3   9 21182.7 366.735   2
  -1  -3   9 20853.5 347.828  28
  -1  -3   9 20543.4 371.727  12
  -1  -3   9 21108.0 345.539  25
  -1  -3   8 953.128 62.3152  26
  -1  -3   8 995.505 72.6656  11
  -1  -3   8 970.066 69.9877  28
  -1  -3   8 999.135 75.2910   2
  -1  -3   8 959.788 78.1162  32
  -1  -3   8 949.568 67.2954  33
   1   3  -8 624.731 223.131  37
  -1  -3   8 925.966 75.9182  12
  -1  -3   8 935.239 71.8773  31
  -1  -3   8 742.794 72.3196  29
  -1  -3   8 958.747 65.5666  30
   1   3  -8 1063.21 277.439  38
  -1  -3   8 972.099 260.063  34
  -1  -3   8 903.281 66.7286  25
  -1  -3   7 15.1171 20.1403  11
  -1  -3   7 2.72270 20.5356   2
  -1  -3   7 43.2739 19.1385  30
   1   3  -7-5.81279 103.998  37
  -1  -3   7-44.2525 73.6473  34
  -1  -3   7 11.3557 27.8470  32
  -1  -3   7 6.65973 15.8791  33
  -1  -3   7-3.41121 17.8351  28
  -1  -3   7 3.04820 24.0592  29
  -1  -3   7 60.3746 24.5063  26
  -1  -3   7 27.1127 24.4174  31
  -1  -3   7 6.37886 18.2214  25
  -1  -3   7 30.4780 21.4607  12
  -1  -3   7-11.5978 30.8957  24
  -1  -3   6 3910.86 128.811  11
  -1  -3   6 3634.07 130.532  41
  -1  -3   6 3810.73 430.510  34
  -1  -3   6 3748.80 116.909  30
  -1  -3   6 4028.49 123.544  33
  -1  -3   6 3647.84 127.052  31
  -1  -3   6 3696.48 140.501  12
  -1  -3   6 3987.24 125.728  28
  -1  -3   6 3587.43 116.991  25
   1   3  -6 4125.76 467.310  37
  -1  -3   5 3.72564 89.7652  34
   1   3  -5 40.1081 72.4311   1
   1   3  -5 85.4178 103.147  37
  -1  -3   5 181.781 30.4649  42
   1   3  -4 147.366 95.1094   1
   1   3  -4 188.245 102.433  37
  -1  -3   4 199.159 115.040  34
   1   3  -4 250.831 32.1691  40
  -1  -3   4 243.194 32.2826  42
   1   3  -3 8856.08 178.718  40
  -1  -3   3 10210.9 541.599  34
   1   3  -3 8137.49 550.271  37
   1   3  -3 10050.3 588.259   1
  -1  -3   3 10882.6 198.223  42
  -1  -3   2 119.773 22.1634  42
   1   3  -2 66.8737 67.2528  37
  -1  -3   2 136.413 61.3598  34
   1   3  -2 110.987 83.8748   1
   1   3  -1 19440.5 806.539   1
  -1  -3   1 17980.7 609.709  34
   1   3  -1 20483.3 784.579  37
  -1  -3   1 19832.2 723.723  39
   1   3   0 121.989 59.0631  36
   1   3   0 109.351 72.4071  37
  -1  -3   0 67.4879 56.1452  39
  -1  -3   0 120.846 50.6192  34
   1   3   0 165.019 86.7961   1
   1   3   1 11427.1 520.115  36
  -1  -3  -1 10046.9 310.495  34
   1   3   1 11141.3 612.461   1
  -1  -3  -1 12304.8 508.116  39
  -1  -3  -2 48.5270 56.3680  39
   1   3   2 73.1613 84.4263   1
   1   3   2 70.2444 95.1422  36
   1   3   2 13.6102 60.2292  37
  -1  -3  -3 304.567 88.4638  39
   1   3   3 370.977 88.8626  37
   1   3   3 240.780 104.689  36
   1   3   3 320.853 130.348   1
   1   3   4 49357.6 1326.07  36
  -1  -3  -4 45923.1 1069.42  38
   1   3   4 49182.6 1302.17   1
  -1  -3  -4 53552.1 1135.31  39
   1   3   4 51685.4 900.091  37
  -1  -3  -5 1322.53 199.325  39
  -1  -3  -5 1197.88 176.662  38
   1   3   5 1229.23 204.861   1
   1   3   5 1265.61 227.177  36
   1   3   5 1256.64 61.2317  40
  -1  -3  -6 731.637 146.354  39
  -1  -3  -6 480.103 118.664  38
   1   3   6 649.341 186.116  36
   1   3   6 595.038 171.109  35
   1   3   6 595.679 140.425   1
   1   3   6 604.720 43.3661  40
   1   3   6 618.608 45.8670  41
  -1  -3  -7 1582.54 236.684  39
   1   3   7 1368.37 70.6954  41
  -1  -3  -7 1172.26 196.306  38
   1   3   7 1517.87 267.947  35
   1   3   7 1332.36 203.295   1
   1   3   8 5077.61 158.631  22
   1   3   8 4617.28 498.262  35
  -1  -3  -8 4337.32 395.632  38
  -1  -3  -8 4971.18 452.132  39
   1   3   8 4584.83 140.584  41
   1   3   8 4456.42 357.690   1
   1   3   9 252.764 45.6033  23
   1   3   9 167.105 35.0591  22
  -1  -3  -9 258.628 91.7847  38
   1   3   9 165.254 33.0903  41
  -1  -3  -9 190.165 79.7228  39
   1   3   9 171.463 118.135  35
   1   3   9 165.375 32.6680   9
   1   3   9 276.449 42.4523   8
  -1  -3  -9 212.450 47.0014  10
   1   3  10 141.807 34.5867  22
   1   3  10-0.51059 81.6928  35
  -1  -3 -10 121.518 78.8781  38
  -1  -3 -10 145.636 39.3476  10
   1   3  10 142.767 34.2229   8
   1   3  10 107.560 33.3261   9
  -1  -3 -10 220.091 91.6813  39
   1   3  10 117.343 33.0727  41
   1   3  11 276.284 51.7540  22
  -1  -3 -11 295.956 52.5292  10
   1   3  11 242.935 45.9030  41
  -1  -3 -11 127.709 88.3143  38
   1   3  11 249.852 45.8275   8
   1   3  11 189.019 41.3519   9
   1   3  11 209.201 39.6360  30
   1   3  11 333.990 182.936  35
  -1  -3 -11 143.522 119.941  39
   1   3  12 1282.86 95.9446   9
  -1  -3 -12 1199.73 286.070  39
  -1  -3 -12 1334.70 100.936  10
   1   3  12 1172.26 316.088  35
  -1  -3 -12 1252.69 267.148  38
   1   3  12 1504.40 101.948   8
   1   3  12 1393.23 85.2707  25
   1   3  12 1132.55 85.5595  30
   1   3  12 1398.06 97.5818  41
   1   3  13 2134.57 116.686   9
   1   3  13 1812.06 104.246  30
   1   3  13 2316.11 111.311  25
  -1  -3 -13 1687.89 340.913  39
   1   3  13 2085.55 119.149  41
  -1  -3 -14 4310.36 558.402  39
   1   3  14 5575.63 186.805  33
   1   3  14 5496.43 182.527   9
   1   3  14 4846.47 158.589  30
   1   3  14 5873.82 170.369  25
   1   3  14 5194.02 187.850  41
  -1  -3 -15 6424.55 229.501  15
   1   3  15 5378.89 169.462   9
   1   3  15 5701.40 176.191  33
   1   3  15 4549.86 138.728  30
   1   3  15 4957.54 173.797  41
   1   3  15 5894.02 180.480  27
   1   3  15 5680.28 158.123  25
   1   3  16 5.07466 20.2685  41
   1   3  16 48.3799 25.6349  33
  -1  -3 -16 61.6884 34.9130  15
   1   3  16-0.44354 22.6920  28
   1   3  16 56.4181 24.2889  27
   1   3  16-5.03125 20.2545   9
   1   3  16 67.5920 23.9271  25
  -1  -3 -17 10.5964 18.1697  15
   1   3  17 12.0094 14.8856  33
   1   3  17 14.6327 14.3896  41
   1   3  17 0.31827 16.3587  28
   1   3  17-11.8538 17.9633   9
  -1  -4  13 73.8879 23.0908  11
  -1  -4  13 78.0342 18.8447  33
  -1  -4  13 67.3466 20.3960  31
  -1  -4  13 78.6329 18.8705  25
  -1  -4  13 127.162 22.7350  28
  -1  -4  12 57.3825 24.1979  11
  -1  -4  12 22.2860 18.2335  28
  -1  -4  12 16.8066 23.8077  31
  -1  -4  12-4.89317 19.5961  32
  -1  -4  12 15.7366 20.3650  25
  -1  -4  12-2.66810 17.8649  33
  -1  -4  11 458.341 49.2164  11
  -1  -4  11 500.925 47.3213  28
  -1  -4  11 482.333 53.5727  31
  -1  -4  11 442.490 49.3651  32
  -1  -4  11 564.280 50.4442  33
  -1  -4  11 488.221 47.1313  25
  -1  -4  10 1408.93 82.3298  28
   1   4 -10 1239.37 318.370  38
  -1  -4  10 1461.68 80.0058  30
  -1  -4  10 1402.75 81.9351  33
  -1  -4  10 1420.85 87.4870  31
  -1  -4  10 1364.97 87.6091  32
  -1  -4  10 979.297 247.792  34
  -1  -4  10 1373.04 79.9510  25
  -1  -4  10 1381.05 85.7374  11
  -1  -4   9 9879.83 232.497  11
  -1  -4   9 9777.44 220.114  30
  -1  -4   9 9656.41 222.729  33
   1   4  -9 9083.44 834.331  38
  -1  -4   9 9970.40 226.231  28
  -1  -4   9 8712.32 223.677  29
  -1  -4   9 8932.63 747.821  34
  -1  -4   9 10072.6 237.893  31
  -1  -4   9 10332.4 247.130  32
  -1  -4   9 8727.29 215.380   2
  -1  -4   9 9726.81 250.032  12
  -1  -4   9 9919.41 221.766  25
  -1  -4   8 23.7480 23.6332  11
  -1  -4   8 77.5109 26.9987   2
  -1  -4   8 37.7376 24.2528  33
   1   4  -8 10.0327 110.780  37
  -1  -4   8-101.288 127.469  34
  -1  -4   8 39.7802 34.4121  32
  -1  -4   8 42.9414 26.1683  31
  -1  -4   8 46.1122 25.5656  28
  -1  -4   8 47.5639 27.3264  29
   1   4  -8 110.715 85.5383  38
  -1  -4   8 43.6807 20.1500  25
  -1  -4   8 23.6514 30.5188  12
  -1  -4   7 45.9918 23.8702  11
  -1  -4   7 63.2136 23.5180   2
  -1  -4   7 28.3974 30.9765  29
  -1  -4   7 24.3464 114.263  34
  -1  -4   7 27.8651 26.9741  32
  -1  -4   7 38.6325 24.7626  31
   1   4  -7-95.1031 77.8152  37
  -1  -4   7 21.6115 17.9299  30
  -1  -4   7 41.0857 22.6002  28
  -1  -4   7 49.5343 20.0751  25
  -1  -4   7 99.0751 36.0974  12
  -1  -4   7 64.9505 27.5849  33
  -1  -4   6 18.2687 20.8857  11
  -1  -4   6-0.91858 16.8151   2
  -1  -4   6-16.6834 20.7505  26
  -1  -4   6 20.0542 26.5368  32
  -1  -4   6-23.3283 76.8848  34
  -1  -4   6 11.5706 18.3502  33
  -1  -4   6 7.37030 23.2328  12
  -1  -4   6-5.85552 22.0967  31
  -1  -4   6 28.7671 27.7530  29
  -1  -4   6 6.77163 18.3326  30
  -1  -4   6 27.9019 21.4096  28
  -1  -4   6-1.67236 17.8264  25
   1   4  -6-21.5009 89.4642  37
  -1  -4   5 1037.62 65.2552  11
  -1  -4   5 1153.15 240.458  34
   1   4  -5 1001.70 247.800  37
  -1  -4   5 1059.47 64.5327  33
  -1  -4   5 1001.29 65.9991  31
  -1  -4   5 1030.41 64.9566  30
  -1  -4   5 1185.35 69.1635  28
   1   4  -5 920.663 200.490   1
  -1  -4   5 1029.48 62.2780  26
  -1  -4   5 1099.30 79.9871  12
  -1  -4   5 967.617 61.1444  25
  -1  -4   5 1003.19 74.6766  32
   1   4  -4 11434.2 767.222  37
  -1  -4   4 11543.5 669.314  34
  -1  -4   4 10931.3 206.852  33
  -1  -4   4 10574.8 210.854  30
  -1  -4   4 11789.8 234.367  42
  -1  -4   4 11061.5 247.916  12
  -1  -4   4 10902.2 209.210  28
   1   4  -4 11398.0 727.158   1
   1   4  -4 10129.7 218.671  40
  -1  -4   4 10575.7 231.315  32
  -1  -4   3 3909.23 123.725  42
  -1  -4   3 3751.09 358.291  34
   1   4  -3 3426.01 123.888  40
   1   4  -3 3603.74 418.879  37
   1   4  -3 3800.94 419.731   1
  -1  -4   2 3228.24 298.418  34
   1   4  -2 3146.82 378.307  37
  -1  -4   2 3077.01 103.506  42
   1   4  -2 2920.63 368.437   1
  -1  -4   1 218.755 28.2205  42
   1   4  -1 198.941 102.653  37
  -1  -4   1 213.176 77.0782  34
   1   4  -1 97.2557 74.3328   1
  -1  -4   0 48.4630 56.3047  34
   1   4   0 36.0917 46.3860  36
  -1  -4   0 6.00693 13.0837  42
   1   4   0-31.3950 76.6327   1
  -1  -4   0 11.8752 46.4630  39
  -1  -4  -1 7668.64 430.178  39
   1   4   1 7456.47 566.428   1
   1   4   1 7477.15 476.415  36
  -1  -4  -2 296.870 91.5901  39
   1   4   2 293.637 108.680  36
   1   4   2 375.260 155.821   1
   1   4   3 42478.1 1352.10   1
  -1  -4  -3 38859.7 962.821  39
   1   4   3 39845.8 1255.93  36
   1   4   4 22182.5 969.589  36
   1   4   4 24267.6 763.696  37
   1   4   4 24935.9 1039.83   1
  -1  -4  -4 22945.7 748.802  39
  -1  -4  -5 26.6499 57.5232  38
   1   4   5 40.6885 22.3018  41
  -1  -4  -5 106.397 64.5598  39
   1   4   5 56.7752 93.6715  36
   1   4   5 49.5462 87.5440   1
   1   4   5 11.5746 42.8638  37
   1   4   6 14585.5 864.997  36
   1   4   6 13370.9 234.684  41
   1   4   6 15297.8 812.006   1
  -1  -4  -6 13010.6 695.745  38
  -1  -4  -6 14622.6 657.439  39
   1   4   7 147.734 110.026  36
   1   4   7 72.3834 88.8499   1
  -1  -4  -7-21.3731 70.0917  39
   1   4   7 42.3423 20.3280  40
   1   4   7 140.791 109.979  35
  -1  -4  -7 15.4173 55.1948  38
   1   4   7 44.5263 21.7176   8
  -1  -4  -7 42.9348 24.0742  10
   1   4   7 31.3947 19.9860  41
   1   4   8 4984.51 161.779  22
  -1  -4  -8 4552.85 178.696  10
  -1  -4  -8 4323.15 414.554  39
   1   4   8 3969.33 486.212  35
   1   4   8 4530.33 159.699   8
   1   4   8 4125.32 138.478  41
   1   4   8 4385.84 423.557   1
  -1  -4  -8 3930.05 402.617  38
   1   4   9 10.2477 25.0934  22
  -1  -4  -9-1.40221 25.8023  10
  -1  -4  -9 41.8186 82.7199  38
   1   4   9 79.5120 83.4093  35
   1   4   9-0.62435 24.9773   8
  -1  -4  -9-24.0795 65.8477  39
   1   4   9 43.0918 42.4560  41
   1   4  10 44.8222 76.0767  35
   1   4  10 301.728 54.8199  22
  -1  -4 -10 260.301 54.6723  10
   1   4  10 235.449 40.6100  41
   1   4  10 285.766 48.5277   8
   1   4  10 241.303 41.8041   9
  -1  -4 -10 300.237 150.361  38
  -1  -4 -10 299.440 146.873  39
  -1  -4 -11 64.6082 70.8721  39
   1   4  11 304.565 180.311  35
   1   4  11 232.088 43.6542  41
  -1  -4 -11 277.158 57.0690  10
  -1  -4 -11 311.535 144.866  38
   1   4  11 148.659 40.8437   9
   1   4  11 282.143 48.7419   8
   1   4  11 213.983 40.3623  16
   1   4  12 180.331 43.6320   9
  -1  -4 -12 116.422 109.046  39
  -1  -4 -12 238.487 123.324  38
   1   4  12 239.669 46.7066   8
   1   4  12 156.637 36.9427  30
  -1  -4 -12 203.781 46.8895  10
   1   4  12 214.212 39.3697  41
   1   4  12 375.219 216.473  35
   1   4  13 893.092 288.657  35
  -1  -4 -13 675.678 244.982  39
  -1  -4 -13 983.462 87.7951  10
   1   4  13 1119.30 94.2456   8
   1   4  13 705.579 64.8407  30
   1   4  13 893.592 77.2165   9
   1   4  13 809.088 68.5491  25
   1   4  13 885.915 77.5575  41
   1   4  14 501.751 58.6645  41
   1   4  14 520.948 58.8660   9
   1   4  14 404.720 45.1712  30
  -1  -4 -14 521.295 60.6823  10
   1   4  14 465.861 50.5569  25
   1   4  15 5428.46 167.284   9
   1   4  15 5396.56 172.681  33
   1   4  15 5162.39 148.637  25
   1   4  16 243.552 38.4704  41
   1   4  16 297.904 40.6738  33
  -1  -4 -16 288.298 51.6246  15
   1   4  16 297.754 39.9897  27
   1   4  16 264.078 33.4400  25
   1   4  16 293.121 36.9817   9
  -1  -4 -17 78.2892 25.6962  15
   1   4  17 47.9285 17.1529   9
   1   4  17 52.6105 20.3441  33
   1   4  17 81.4923 24.1870  28
   1   4  17 73.8711 19.4861  27
  -1  -5  12 610.643 44.5271  31
  -1  -5  12 524.362 42.6684  33
  -1  -5  12 462.245 37.5494  32
  -1  -5  12 514.895 35.7868  25
  -1  -5  12 512.062 36.5077  28
  -1  -5  11 26.8211 21.1856  28
  -1  -5  11 28.6943 18.0581  33
  -1  -5  11 23.4912 23.0323  32
  -1  -5  11 27.5081 17.3180  25
  -1  -5  11 22.3726 22.1011  31
  -1  -5  10 659.359 58.2832  32
  -1  -5  10 691.984 58.9114  31
  -1  -5  10 686.447 54.8784  33
  -1  -5  10 467.547 49.3824  29
  -1  -5  10 681.207 52.6568  28
  -1  -5  10 623.504 51.3716  25
  -1  -5  10 565.037 54.4472  11
  -1  -5   9-16.4783 24.6124  33
  -1  -5   9 22.9554 26.6920  11
  -1  -5   9-44.6772 29.1110  32
  -1  -5   9-38.3783 30.2230  31
   1   5  -9 79.8246 107.352  38
  -1  -5   9-21.7916 23.1989  25
  -1  -5   9 26.2605 23.5220  28
  -1  -5   9-3.68807 25.9843  29
   1   5  -8 1800.83 394.583  38
  -1  -5   8 2174.60 114.279  29
  -1  -5   8 2041.17 102.381  33
  -1  -5   8 2142.03 104.910  31
  -1  -5   8 2077.26 98.8424  28
  -1  -5   8 1625.75 317.687  34
  -1  -5   8 2064.22 96.0303  25
  -1  -5   8 2057.27 112.021  32
  -1  -5   8 2125.19 104.522  11
  -1  -5   7 5728.32 164.398  25
  -1  -5   7 5539.53 570.486  34
  -1  -5   7 5941.01 190.172  32
  -1  -5   7 5660.68 197.040  29
  -1  -5   7 5715.86 168.286  28
   1   5  -7 5647.93 658.526  37
  -1  -5   7 5915.33 205.782  12
  -1  -5   7 4708.06 157.357  11
  -1  -5   7 5199.99 166.858  33
  -1  -5   6 170.897 35.1175  11
  -1  -5   6 139.729 32.3022  28
  -1  -5   6 239.011 122.301  34
  -1  -5   6 156.484 35.2180  33
   1   5  -6 249.367 163.261  37
  -1  -5   6 178.782 40.3713  32
  -1  -5   6 203.244 35.8793  31
  -1  -5   6 191.045 42.7618  29
  -1  -5   6 171.836 30.1096  25
  -1  -5   6 161.177 35.7261  30
  -1  -5   6 160.425 44.5517  12
  -1  -5   5 13177.5 255.408  11
  -1  -5   5 13155.6 255.407  31
  -1  -5   5 12275.0 257.783  33
  -1  -5   5 13039.1 798.867  34
  -1  -5   5 12068.9 263.536  30
  -1  -5   5 12835.8 302.020  29
  -1  -5   5 12567.7 278.402  32
  -1  -5   5 13566.4 255.917  28
  -1  -5   5 13178.1 309.431  12
  -1  -5   5 12819.4 240.692  25
   1   5  -5 13732.2 990.101  37
  -1  -5   4 186.386 32.9068  11
   1   5  -4 183.440 35.9736  40
  -1  -5   4 316.238 38.2913  31
  -1  -5   4 132.365 30.9218  33
  -1  -5   4 273.744 126.995  34
   1   5  -4 128.815 104.479  37
  -1  -5   4 177.562 40.1609  32
   1   5  -4 276.377 145.190   1
  -1  -5   4 179.408 35.7209  30
  -1  -5   4 178.617 41.8883  29
  -1  -5   4 207.359 33.6842  28
  -1  -5   4 135.524 26.7618  25
  -1  -5   4 204.575 44.9706  12
  -1  -5   3 2497.88 305.108  34
   1   5  -3 2488.49 115.275  40
  -1  -5   3 2362.48 102.492  33
  -1  -5   3 2494.12 102.757  42
  -1  -5   3 2507.00 111.260  32
  -1  -5   3 2229.13 91.6660  31
  -1  -5   3 2436.82 99.3890  28
   1   5  -3 2884.86 414.730   1
  -1  -5   3 2279.90 120.543  12
   1   5  -3 2676.84 420.462  37
  -1  -5   3 2224.06 111.980   6
  -1  -5   2 776.336 55.7878  42
  -1  -5   2 700.928 56.1281  33
  -1  -5   2 853.230 62.9985  32
   1   5  -2 880.541 230.310   1
  -1  -5   2 891.718 181.012  34
   1   5  -2 878.268 241.796  37
  -1  -5   2 766.745 56.4398  28
  -1  -5   2 744.804 66.7040  12
  -1  -5   2 723.978 63.3441   6
   1   5  -1 1681.49 303.493  37
  -1  -5   1 1479.59 211.976  34
  -1  -5   1 1353.70 73.7777  33
  -1  -5   1 1543.47 73.2272  42
   1   5  -1 1404.45 293.484   1
  -1  -5   1 1369.94 86.9050  12
  -1  -5   1 1376.81 84.5419   6
   1   5   0 103.622 47.9183  36
   1   5   0 119.374 108.968   1
   1   5   1 524.290 182.549   1
   1   5   1 517.071 153.595  36
  -1  -5  -2-56.9590 55.4358  39
   1   5   2 43.3588 81.1041  36
   1   5   2-2.77769 86.9706   1
   1   5   3 23342.1 1047.37  36
   1   5   3 25429.6 1187.12   1
  -1  -5  -4 9049.36 484.696  39
   1   5   4 9954.00 716.727  36
   1   5   4 11076.3 775.766   1
   1   5   5 5252.26 390.778  37
  -1  -5  -5 4958.30 171.538  10
   1   5   5 5243.52 540.025  36
   1   5   5 4722.22 157.888   8
  -1  -5  -5 4753.36 163.617   7
   1   5   5 5665.40 558.342   1
  -1  -5  -5 4248.44 336.472  39
   1   5   6 843.292 61.0839  41
  -1  -5  -6 905.772 83.1830  10
  -1  -5  -6 816.465 159.716  39
   1   5   6 923.743 249.056  36
   1   5   6 973.977 75.0125   8
  -1  -5  -6 873.166 71.8583   7
   1   5   6 966.391 237.624   1
  -1  -5  -6 894.735 71.6642   6
   1   5   7 2689.23 116.246  22
   1   5   7 3211.20 428.806   1
  -1  -5  -7 2187.86 277.900  39
   1   5   7 2400.70 393.874  35
   1   5   7 2600.83 123.758   8
   1   5   7 2722.57 432.345  36
  -1  -5  -7 2662.96 128.723   7
   1   5   7 2951.59 118.379  40
  -1  -5  -7 2662.63 137.899  10
  -1  -5  -7 2663.36 122.823   6
   1   5   7 2488.93 111.011  41
   1   5   8 5402.67 625.440  36
   1   5   8 5497.33 177.774  22
  -1  -5  -8 4417.25 408.538  39
   1   5   8 5270.59 183.077   8
   1   5   8 5627.85 164.002  40
  -1  -5  -8 5324.66 204.594  10
  -1  -5  -8 5364.95 188.559   7
   1   5   8 4729.80 159.357  41
  -1  -5  -8 4794.59 496.291  38
   1   5   8 5332.66 543.550   1
   1   5   8 4689.98 564.812  35
  -1  -5  -9 173.573 102.158  39
  -1  -5  -9 235.471 51.7075  10
   1   5   9 103.707 126.291  35
   1   5   9 227.353 41.4103   8
  -1  -5  -9 311.285 159.406  38
   1   5   9 148.836 107.088   1
   1   5   9 203.341 37.4756  41
  -1  -5 -10 227.929 50.1296  10
   1   5  10 177.133 37.3188  41
   1   5  10 278.914 167.897  35
   1   5  10 194.523 43.0225   9
   1   5  10 232.393 45.7615   8
  -1  -5 -10 206.207 101.868  38
   1   5  11-19.3135 25.4261  41
   1   5  11 108.215 37.6639  16
  -1  -5 -11 128.418 115.345  38
   1   5  11 6.50396 24.8350   9
   1   5  11 26.1981 28.1748   8
   1   5  11 73.4888 113.797  35
  -1  -5 -11 18.9111 32.5007  10
   1   5  12 755.657 74.0072   9
  -1  -5 -12 863.331 93.0198  10
   1   5  12 830.683 71.3971  16
   1   5  12 659.708 253.315  35
   1   5  12 992.638 86.0720   8
   1   5  12 793.481 74.1177  41
  -1  -5 -13 281.409 55.2090  10
   1   5  13 293.143 50.0908   8
   1   5  13 259.318 46.8256  41
   1   5  13 225.547 42.9248   9
   1   5  13 171.651 73.4590  35
   1   5  13 257.676 39.5024  16
   1   5  13 123.026 29.5305  30
   1   5  14 42.7387 26.9891   9
  -1  -5 -14 16.5051 25.5197  10
  -1  -5 -14-0.90581 39.2969  15
   1   5  14 13.1746 24.0451  41
   1   5  14 1.85700 19.9001  25
   1   5  15 43.2210 23.6837  41
  -1  -5 -15 12.4189 23.7248  10
   1   5  15 18.3372 26.8664   9
  -1  -5 -15 38.5416 35.4367  15
   1   5  15 36.0227 16.2412  25
   1   5  16 801.649 59.4034  41
   1   5  16 1000.52 65.9560  33
   1   5  16 923.415 57.1640   9
   1   5  16 1253.55 75.4774  27
  -1  -5 -16 1223.74 92.6683  15
   1   5  17 80.1184 21.7925  33
  -1  -5 -17 131.919 31.1747  15
   1   5  17 107.490 21.8163  28
   1   5  17 174.368 25.6336  27
  -1  -6  11-3.85173 14.7702  32
  -1  -6  11 15.9651 18.1424  31
  -1  -6  10 681.327 49.2943  33
  -1  -6  10 634.963 50.6281  32
  -1  -6  10 609.149 47.4681  31
  -1  -6  10 611.730 41.0192  25
  -1  -6   9 3146.87 108.948  28
  -1  -6   9 3516.26 120.024  31
  -1  -6   9 3022.80 119.164  29
  -1  -6   9 3782.89 131.545  32
  -1  -6   9 3463.39 107.577  25
  -1  -6   9 3553.07 122.481  33
  -1  -6   8 2107.57 100.846  33
  -1  -6   8 2134.71 105.653  32
  -1  -6   8 2101.01 97.8784  31
  -1  -6   8 1885.39 103.400  29
  -1  -6   8 1813.76 89.8873  28
  -1  -6   8 2013.25 88.9650  25
   1   6  -7 368.314 197.076  37
  -1  -6   7 499.857 186.244  34
  -1  -6   7 876.786 65.4066  31
  -1  -6   7 949.169 76.3393  32
  -1  -6   7 806.838 67.6520  33
  -1  -6   7 769.263 60.1141  25
  -1  -6   7 678.239 68.8063  20
  -1  -6   7 803.542 76.6770  29
  -1  -6   7 734.698 61.9152  28
  -1  -6   6 545.890 60.8911  32
  -1  -6   6 468.780 63.1606  20
  -1  -6   6 346.714 129.327  34
  -1  -6   6 555.055 55.3082  31
  -1  -6   6 502.667 67.7730  29
  -1  -6   6 447.977 49.2114  28
  -1  -6   6 450.762 53.0581  33
   1   6  -6 537.406 232.611  37
  -1  -6   6 432.229 46.6198  25
  -1  -6   5 180.320 39.4518  33
   1   6  -5 247.721 194.260  37
  -1  -6   5 256.240 133.194  34
  -1  -6   5 202.210 44.3609  32
  -1  -6   5 266.605 40.7033  31
  -1  -6   5 234.235 52.5282  29
  -1  -6   5 269.373 40.6058  28
  -1  -6   5 215.252 36.8477  25
   1   6  -4 145.797 32.3662  40
  -1  -6   4 157.162 44.0814  29
  -1  -6   4 118.081 35.0081  33
  -1  -6   4 154.771 71.8805  34
  -1  -6   4 188.071 40.3574  32
  -1  -6   4 160.033 30.9049  31
  -1  -6   4 160.704 34.4609  28
   1   6  -4 38.9121 122.784   1
   1   6  -4-54.2419 86.7983  37
  -1  -6   4 138.302 30.9399  25
   1   6  -3 1972.53 112.296  40
  -1  -6   3 1992.59 299.679  34
  -1  -6   3 1636.52 97.7271  33
   1   6  -3 2017.97 393.795  37
  -1  -6   3 1713.58 113.123  29
  -1  -6   3 1978.59 103.737  32
  -1  -6   3 1914.36 95.9913  28
   1   6  -3 1955.50 393.669   1
  -1  -6   3 1758.07 108.388   6
   1   6  -2 1304.36 94.0741  40
  -1  -6   2 1177.65 227.306  34
  -1  -6   2 1414.35 85.1401  32
  -1  -6   2 1207.34 93.3782  29
  -1  -6   2 1188.18 75.0915  28
  -1  -6   2 1275.00 92.9048   6
   1   6  -2 1386.55 330.166  37
   1   6  -2 1317.93 320.047   1
  -1  -6   1 5221.07 159.724  32
  -1  -6   1 4854.32 162.878   7
  -1  -6   1 4907.20 176.320  29
  -1  -6   1 4667.58 151.469  28
   1   6  -1 5550.05 607.049  37
   1   6  -1 5690.64 647.008   1
  -1  -6   1 4810.84 179.189   6
   1   6   0 478.911 195.100   1
  -1  -6   0 336.144 52.3110   6
   1   6   0 451.877 195.444  37
  -1  -6   0 319.134 45.7754   7
  -1  -6   0 344.400 43.4319  32
  -1  -6   0 261.092 38.4908  28
   1   6   1 4172.48 547.145   1
   1   6   1 3964.58 439.845  36
   1   6   1 3676.09 139.338   8
  -1  -6  -1 3909.93 127.641  32
  -1  -6  -1 3836.41 150.052   7
  -1  -6  -1 3609.28 130.874  28
  -1  -6  -1 4075.14 160.721   6
  -1  -6  -2 41.1977 29.3181   6
   1   6   2-58.3558 97.5521  36
  -1  -6  -2-22.2591 30.7664   7
   1   6   2 135.341 114.760   1
   1   6   2-5.01833 23.8628   8
  -1  -6  -3 8.71860 23.7745   6
   1   6   3 62.3960 67.8504  36
  -1  -6  -3 7.05680 21.4228   7
  -1  -6  -3 1.43640 21.4201  10
  -1  -6  -3 6.17120 28.2006  29
   1   6   3 24.1993 136.295   1
  -1  -6  -4 1428.28 95.5899  20
   1   6   4 1428.03 269.414  37
   1   6   4 1656.37 325.405  36
  -1  -6  -4 1436.36 96.6583  10
   1   6   4 1427.34 92.7165   8
  -1  -6  -4 1433.36 94.6393   7
   1   6   4 1374.74 324.946   1
  -1  -6  -4 1421.58 97.0337   6
   1   6   5 2650.09 427.474  36
  -1  -6  -5 2714.90 136.242  10
   1   6   5 2787.77 345.474  37
   1   6   5 2800.05 129.405   8
  -1  -6  -5 2698.64 134.096   7
   1   6   5 3163.99 480.315   1
  -1  -6  -5 2808.32 138.774   6
  -1  -6  -5 2819.78 132.958  20
  -1  -6  -6 2399.51 132.045  10
   1   6   6 2481.75 433.246  36
   1   6   6 2316.37 121.260   8
  -1  -6  -6 2222.43 124.715   7
   1   6   6 2606.10 433.971   1
  -1  -6  -6 2394.45 128.139   6
  -1  -6  -7 2142.54 130.170  10
  -1  -6  -7 2318.98 122.120  19
   1   6   7 2168.24 120.060   8
  -1  -6  -7 2163.88 124.338   7
   1   6   7 1941.37 401.100  36
   1   6   7 2207.62 401.430   1
  -1  -6  -7 2188.26 122.873   6
   1   6   7 1809.22 97.4070  41
  -1  -6  -8 3160.16 164.775  10
   1   6   8 3243.10 138.690  40
   1   6   8 3295.22 151.300   8
   1   6   8 2675.14 424.499   1
   1   6   8 2767.10 125.416  41
  -1  -6  -8 3164.47 147.228   6
  -1  -6  -8 2993.62 137.133  19
   1   6   8 2898.14 505.027  36
   1   6   8 3068.31 494.399  35
   1   6   9 458.008 51.3481  40
   1   6   9 578.861 69.6186   8
   1   6   9 384.140 208.764  35
  -1  -6  -9 477.234 72.6082  10
   1   6   9 477.639 57.9061  41
   1   6  10 2471.00 465.360  35
  -1  -6 -10 3012.56 169.423  10
   1   6  10 3213.07 153.081   8
   1   6  10 2499.90 123.430  41
  -1  -6 -11 187.257 49.3116  10
   1   6  11 184.737 39.4881  41
   1   6  11 238.866 48.6645  16
   1   6  11 147.822 42.4577   9
   1   6  11 242.613 49.8874   8
   1   6  11 176.678 122.127  35
   1   6  12 183.495 37.2739  41
  -1  -6 -12 347.943 64.9312  10
   1   6  12 262.022 46.5435  16
   1   6  12 382.423 60.3782   8
   1   6  12 241.982 42.5620   9
   1   6  13 134.327 33.5701  41
  -1  -6 -13 177.401 47.2283  10
   1   6  13 127.417 33.1130   9
   1   6  13 133.232 31.0070  16
  -1  -6 -13 197.617 55.9886  15
   1   6  13 238.240 49.7907   8
   1   6  14 48.0092 23.2716   9
  -1  -6 -14 139.312 47.5468  15
   1   6  14 123.109 32.9893  41
  -1  -6 -14 123.582 36.9074  10
  -1  -6 -15 225.885 47.9804  15
  -1  -6 -15 242.904 43.4412  10
   1   6  15 185.450 31.8060   9
   1   6  16 134.987 24.0207   9
   1   6  16 86.5686 23.4353  33
  -1  -6 -16 183.567 40.6013  15
   1   6  16 129.935 25.6858  27
  -1  -7   9 32.4296 15.2358  31
  -1  -7   9 66.7652 24.4616  32
  -1  -7   9 18.5767 17.1542  29
  -1  -7   8 322.989 43.0777  32
  -1  -7   8 267.798 34.6279  31
  -1  -7   8 383.381 48.6638  29
  -1  -7   7 2674.45 117.453  20
  -1  -7   7 3299.87 125.815  32
  -1  -7   7 2961.08 107.332  31
  -1  -7   7 3301.62 135.359  29
  -1  -7   7 2577.57 97.5814  28
  -1  -7   7 3107.11 101.859  25
  -1  -7   6 2307.20 110.221  32
  -1  -7   6 1916.34 111.635  20
  -1  -7   6 2235.95 95.1707  31
  -1  -7   6 2263.41 122.778  29
  -1  -7   6 1767.39 87.1280  28
  -1  -7   6 2068.24 88.3378  25
  -1  -7   5 135.480 31.5913  19
   1   7  -5-106.901 154.084  37
  -1  -7   5 49.9101 32.9456  32
  -1  -7   5-14.9687 20.7277  31
  -1  -7   5 124.130 46.6678  29
  -1  -7   5 34.3304 26.1055  20
  -1  -7   5 38.3943 24.5602  28
  -1  -7   5 82.5255 24.2231  25
  -1  -7   4 56.9778 36.9277  29
  -1  -7   4 121.610 38.1067  32
  -1  -7   4 44.9989 23.1660  28
  -1  -7   4 88.6401 33.5675  20
   1   7  -3 788.296 259.706   1
  -1  -7   3 691.120 77.9508  20
   1   7  -3 765.131 73.4592  40
  -1  -7   3 760.551 69.4848  32
   1   7  -3 668.774 242.026  37
  -1  -7   3 606.899 74.1019  29
  -1  -7   3 467.889 54.2479  28
   1   7  -2 845.248 79.6774  40
   1   7  -2 676.487 251.738   1
  -1  -7   2 885.886 85.3901  20
   1   7  -2 921.193 281.711  37
  -1  -7   2 884.808 71.8045  32
  -1  -7   2 793.853 81.2912  29
  -1  -7   2 514.878 58.2536  28
  -1  -7   2 815.183 80.4974   6
  -1  -7   1 64.9684 31.8962   6
   1   7  -1 37.8061 33.9902  40
  -1  -7   1 15.8485 29.0378  20
   1   7  -1 81.3009 91.1730  37
  -1  -7   1-13.6714 24.8318  32
  -1  -7   1 112.217 47.3540  29
  -1  -7   1-25.9972 25.3733  28
  -1  -7   0 608.740 73.7033  20
   1   7   0 894.200 292.460  37
  -1  -7   0 785.531 65.4402  32
  -1  -7   0 630.737 67.9331   7
  -1  -7   0 748.308 71.4003  29
  -1  -7   0 702.984 77.4543   6
   1   7   0 818.024 268.052   1
  -1  -7  -1 29.8454 27.1100   7
  -1  -7  -1 58.0097 31.2512   6
   1   7   1 77.8330 82.0634  37
  -1  -7  -1 68.6595 27.8338  32
  -1  -7  -1 33.9077 26.6856  29
  -1  -7  -1 28.7439 30.5492  20
   1   7   1 55.3424 129.417   1
  -1  -7  -2-8.05511 24.9556   6
  -1  -7  -2 15.0659 31.9222  20
   1   7   2-43.1421 74.7787  36
   1   7   2 7.46321 22.5925   8
   1   7   2 17.9284 100.154  37
  -1  -7  -2-5.51456 25.2218   7
  -1  -7  -2-33.4303 28.1336  29
   1   7   2 0.65435 124.918   1
  -1  -7  -3 28.1568 29.0402   6
  -1  -7  -3 52.1963 26.1320  10
   1   7   3 69.8431 92.7156  37
   1   7   3-90.2681 154.769  36
   1   7   3 38.4035 23.9245   8
  -1  -7  -3 97.7701 35.0329  29
  -1  -7  -3 17.5037 25.4556   7
   1   7   3 37.0858 100.821   1
  -1  -7  -3 31.7130 28.4469  20
  -1  -7  -4 1854.65 112.784  10
  -1  -7  -4 1628.68 116.587  20
   1   7   4 1542.15 353.366  36
   1   7   4 1725.32 323.354  37
   1   7   4 1726.77 105.950   8
  -1  -7  -4 1889.84 116.829   7
   1   7   4 2086.70 432.596   1
  -1  -7  -4 1778.23 118.321   6
  -1  -7  -5 9.11894 29.4479   6
  -1  -7  -5 14.6383 24.7834  20
  -1  -7  -5 2.85283 27.4821  10
   1   7   5-4.83341 125.311  36
   1   7   5 11.0802 23.5371   8
  -1  -7  -5 30.4336 28.0494   7
   1   7   5-38.8171 103.615   1
  -1  -7  -6 1324.42 97.7043  20
  -1  -7  -6 1208.81 98.9044  10
   1   7   6 1065.58 308.199  36
  -1  -7  -6 1310.57 99.7359   7
   1   7   6 1310.93 95.5984   8
  -1  -7  -6 1317.34 101.399   6
  -1  -7  -6 1336.99 102.338  19
   1   7   6 1080.14 320.777   1
  -1  -7  -7 219.485 48.6505   6
  -1  -7  -7 263.473 54.2087  10
  -1  -7  -7 237.154 48.9534  19
   1   7   7 96.7279 109.185  36
  -1  -7  -7 233.315 46.5055  15
   1   7   7 199.783 42.8273   8
   1   7   7 107.622 127.498   1
   1   7   7 211.858 45.4682  40
   1   7   8 322.841 135.833   1
  -1  -7  -8 430.407 61.1341  19
   1   7   8 451.526 60.8490   8
   1   7   8 537.281 252.910  35
  -1  -7  -8 345.580 57.4894  15
  -1  -7  -8 432.450 66.5922  10
   1   7   8 405.282 55.7946  40
   1   7   9 166.038 120.956  35
   1   7   9 142.724 134.069   1
  -1  -7  -9 206.176 54.6265  10
  -1  -7  -9 178.795 40.0367  19
   1   7   9 250.317 49.3390   8
  -1  -7  -9 161.486 45.3378  15
   1   7   9 211.937 39.7820  40
   1   7  10 54.0292 31.2334   8
  -1  -7 -10 73.0372 39.2583  15
  -1  -7 -10 1.68401 37.8235  10
  -1  -7 -11 752.159 86.7250  15
   1   7  11 742.829 76.0103  16
   1   7  11 608.226 262.343  35
   1   7  11 832.024 80.1920   8
   1   7  11 531.971 61.9312   9
  -1  -7 -11 734.502 89.3410  10
   1   7  12 104.292 32.7402   9
   1   7  12 114.961 34.5041  16
   1   7  12 121.342 35.5097   8
  -1  -7 -12 153.869 46.4620  15
  -1  -7 -12 204.401 54.3852  10
   1   7  13 1.64558 22.9023   9
   1   7  13 7.22834 20.9196  16
   1   7  13 2.81371 27.2905   8
  -1  -7 -13 5.01219 33.0550  15
  -1  -7 -13 26.9524 30.7054  10
  -1  -7 -14 7.98505 28.5032  15
   1   7  14 11.9346 18.2491  16
  -1  -7 -14-5.31461 27.0291  10
   1   7  14 20.1074 22.3788   9
   1   7  15 30.4296 17.3371   9
  -1  -7 -15 8.85053 25.7941  15
  -1  -7 -15 7.49447 20.2698  10
  -1  -8   8 253.064 29.7043  32
  -1  -8   8 259.917 31.3313  29
  -1  -8   7 159.713 30.3987  32
  -1  -8   7 164.041 32.4693  29
  -1  -8   6 1311.27 81.8957  29
  -1  -8   6 1161.12 74.5520  20
  -1  -8   6 1230.54 72.8691  32
  -1  -8   5 33.9246 27.2935  20
  -1  -8   5 44.1196 30.3869  29
  -1  -8   5-32.7344 29.1091  32
  -1  -8   4-33.3715 28.5674  32
  -1  -8   4-18.1272 28.7298  20
  -1  -8   4-34.6028 36.8101  29
  -1  -8   4-48.1420 24.5968  19
  -1  -8   3 33.2575 26.5875  19
  -1  -8   3 28.5668 24.2529  32
   1   8  -3 46.4387 26.6359  40
  -1  -8   3 31.5128 32.0399  29
  -1  -8   3 0.55455 30.2397  20
   1   8  -2 252.061 48.2731  40
  -1  -8   2 280.218 50.7772  19
  -1  -8   2 288.977 54.5419  29
  -1  -8   2 304.395 45.1180  32
  -1  -8   2 309.141 55.9563  20
   1   8  -1 127.833 132.824   1
   1   8  -1 310.371 54.5529  40
  -1  -8   1 310.271 55.9542  20
  -1  -8   1 331.603 47.6923  32
   1   8  -1 326.573 190.195  37
  -1  -8   1 340.472 53.7716  29
   1   8   0 377.449 239.460   1
  -1  -8   0 132.852 42.3896  20
   1   8   0 195.686 145.770  37
  -1  -8   0 178.794 37.6705  32
  -1  -8   0 179.246 42.8384  29
   1   8   0 101.724 40.9937  40
  -1  -8  -1 216.903 49.3205   6
  -1  -8  -1 143.626 48.5764  20
   1   8   1 214.079 51.5769  40
   1   8   1 123.417 164.784  37
  -1  -8  -1 219.335 37.8312  32
  -1  -8  -1 243.631 46.3710  29
   1   8   2 38.8878 145.161   1
  -1  -8  -2 86.1298 39.4242   6
  -1  -8  -2 79.0426 39.0385  20
   1   8   2 88.8247 46.6369  40
  -1  -8  -2 55.8638 25.8485  29
   1   8   2-87.4297 154.705  37
  -1  -8  -3 475.642 68.7933   6
   1   8   3 455.377 223.540   1
   1   8   3 177.194 147.920  37
  -1  -8  -3 423.572 53.4619  29
  -1  -8  -3 453.398 68.4080  20
  -1  -8  -4 1215.82 91.9432  10
  -1  -8  -4 1156.52 102.617  20
   1   8   4 1127.76 85.0093   8
  -1  -8  -4 1225.34 103.871  19
  -1  -8  -4 1265.18 103.549   6
   1   8   4 1476.83 397.935   1
   1   8   5 2501.92 501.623   1
  -1  -8  -5 2473.20 136.102  10
   1   8   5 2865.07 153.736  40
  -1  -8  -5 2523.01 142.148  20
   1   8   5 2312.20 123.933   8
  -1  -8  -5 2857.96 155.288  19
  -1  -8  -5 2694.48 150.548   6
  -1  -8  -6 3408.15 160.814  20
   1   8   6 4364.23 183.664  40
  -1  -8  -6 3856.24 175.963  19
   1   8   6 3604.01 158.268   8
   1   8   6 4188.84 653.819   1
  -1  -8  -6 3441.63 163.833  10
   1   8   7 352.887 223.264   1
   1   8   7 206.578 42.3706   8
   1   8   7 196.428 47.4450  40
  -1  -8  -7 156.783 44.7914  10
  -1  -8  -7 132.845 35.9437  19
   1   8   8 29.0982 77.6712   1
   1   8   8 42.7506 30.8833   8
  -1  -8  -8 67.7779 31.5509  15
  -1  -8  -8-3.58959 30.8614  19
  -1  -8  -8 67.6536 37.7684  10
   1   8   8 28.0676 28.4170  40
  -1  -8  -9 8.09865 31.7966  10
   1   8   9-4.82496 25.8086   8
  -1  -8  -9-2.07298 23.7757  15
   1   8   9 60.5223 28.7748  40
  -1  -8 -10 200.984 53.0458  10
   1   8  10 175.881 43.0603   8
   1   8  10 157.645 44.4886  16
  -1  -8 -10 124.128 33.4727  15
  -1  -8 -11 26.8840 36.8263  10
   1   8  11 1.58478 26.2055   9
   1   8  11 22.9251 27.8585  16
   1   8  11 8.04617 25.3556   8
  -1  -8 -11 6.27508 24.4361  15
  -1  -8 -12 516.700 68.3612  10
  -1  -8 -12 429.579 59.4644  15
   1   8  12 500.356 58.7606  16
   1   8  12 421.074 49.4056   9
   1   8  12 587.015 64.1423   8
   1   8  13 31.5380 22.5175   9
   1   8  13-22.0123 20.0717  16
  -1  -8 -13 3.62740 27.2059  10
  -1  -8 -13-1.83697 25.0235  15
  -1  -8 -14 16.2037 22.3037  15
   1   8  14 15.8617 17.4562   9
  -1  -8 -14 31.0627 23.8074  10
   1   8  14 19.0691 16.4752  16
  -1  -9   5 296.673 35.0042  32
  -1  -9   5 356.002 40.6667  29
  -1  -9   5 308.498 35.6890  20
  -1  -9   4 79.2844 30.0201  29
  -1  -9   4 31.1782 20.5613  20
  -1  -9   4 21.2147 20.3209  32
  -1  -9   3 175.311 37.7035  20
  -1  -9   3 147.846 29.6522  19
  -1  -9   3 183.058 39.4533  29
  -1  -9   3 213.078 33.4876  32
   1   9  -2 67.7775 27.6385  40
  -1  -9   2 91.1111 35.6505  20
  -1  -9   2 17.1034 22.1650  17
  -1  -9   2 8.83416 21.7486  32
  -1  -9   2 43.9137 30.7353  29
  -1  -9   2-21.3107 24.3167  19
  -1  -9   1 263.351 47.3660  29
  -1  -9   1 306.252 54.8101  20
  -1  -9   1 278.884 47.7264  19
  -1  -9   1 275.750 37.8902  32
   1   9  -1 213.119 40.2750  40
  -1  -9   0 63.9321 32.2499  29
  -1  -9   0 59.5503 31.5601  19
  -1  -9   0 37.7159 23.9088  32
   1   9   0 117.729 38.7680  40
  -1  -9   0 109.602 37.9156  20
  -1  -9  -1 515.828 65.1247  19
   1   9   1 476.434 64.8630  40
  -1  -9  -1 450.655 63.8857  20
  -1  -9  -1 534.194 59.8815  29
   1   9   2-36.7924 35.8116  40
  -1  -9  -2 37.1709 28.6340  20
  -1  -9  -2-12.5852 34.0019  19
  -1  -9  -2-66.1568 33.8548  29
  -1  -9  -3-15.5554 27.4847  20
  -1  -9  -3-34.2745 33.8284  19
   1   9   3-8.04856 28.7358  40
  -1  -9  -3 38.0894 26.2493  29
  -1  -9  -4 120.358 39.8203  20
  -1  -9  -4 93.2905 39.4125  19
   1   9   4 37.6189 32.3069  40
  -1  -9  -5 894.466 84.8000  20
  -1  -9  -5 795.222 69.3755  10
   1   9   5 1108.49 94.0989  40
  -1  -9  -5 916.658 85.9858  19
  -1  -9  -6 99.7274 41.2665  19
  -1  -9  -6 39.7415 24.8352  10
  -1  -9  -6 64.7707 29.5183  20
   1   9   6 135.898 42.4818  40
   1   9   6 25.3447 22.5474   8
   1   9   7 90.4397 34.2039  40
  -1  -9  -7 57.3943 31.2078  10
  -1  -9  -7 67.6213 31.6723  19
   1   9   7 91.1350 36.7938   8
  -1  -9  -8 58.9360 34.2581  10
   1   9   8 55.2569 27.2521  40
   1   9   8 61.1239 25.4651   8
  -1  -9  -8 64.0333 32.3207  19
  -1  -9  -9-14.1107 27.1168  10
   1   9   9 13.0035 26.7265  16
   1   9   9 9.57682 24.2462   8
  -1  -9  -9-30.5731 26.2031  19
   1   9   9 29.9074 22.5252  40
   1   9  10 76.3216 31.2725  16
  -1  -9 -10 124.150 32.6144  17
  -1  -9 -10 108.513 35.4497  10
   1   9  10 108.136 32.7913   8
   1   9  11 147.940 32.4769   9
  -1  -9 -11 165.705 39.4953  10
   1   9  11 137.779 31.6546   8
   1   9  11 132.419 34.9610  16
   1   9  12 32.4801 22.0662  16
   1   9  12 1.07481 19.2853   9
  -1  -9 -12-18.4389 25.6482  10
  -1  -9 -13 20.0241 16.4809  18
   1   9  13 28.2460 17.3304  16
   1   9  13 27.7547 14.9317  27
  -1  -9 -13 41.6603 20.3906  10
   1   9  13-1.05572 14.4551   9
  -1 -10   2 4.13667 19.0973  29
  -1 -10   2-25.5622 18.0484  32
  -1 -10   1 1338.17 73.9537  19
  -1 -10   1 1159.61 65.9027  17
  -1 -10   1 1327.09 69.9479  29
   1  10   0-16.9141 18.2872  40
  -1 -10   0 15.2772 22.3363  19
  -1 -10   0 18.0879 20.3828  17
  -1 -10   0-8.91935 24.4824  20
  -1 -10   0 33.3100 21.4314  29
  -1 -10  -1 1118.64 79.7380  20
  -1 -10  -1 1113.67 84.6785  17
   1  10   1 908.728 73.2130  40
  -1 -10  -1 1056.29 79.1844  19
  -1 -10  -1 1044.92 64.0661  29
   1  10   2 136.064 33.7293  40
  -1 -10  -2 173.112 38.7433  20
  -1 -10  -2 108.748 34.7430  19
  -1 -10  -2 140.275 34.6299  17
  -1 -10  -2 27.7809 21.2766  29
   1  10   3 20.2127 18.9381  16
  -1 -10  -3 24.8631 31.7508  19
  -1 -10  -3 27.5225 25.4841  20
   1  10   3 15.7890 21.6725  40
   1  10   4 17.3398 20.7462  40
  -1 -10  -4-10.8353 24.4464  20
   1  10   4 15.5985 20.0923  16
  -1 -10  -4 27.6940 30.5510  19
  -1 -10  -5 53.1800 23.9969  20
   1  10   5 80.5097 28.7751  40
  -1 -10  -5 55.2344 30.9700  19
   1  10   5 68.9178 28.7775  16
   1  10   6 14.2169 30.3105  40
  -1 -10  -6-28.5894 24.7507  19
  -1 -10  -6 25.7804 28.6063  17
   1  10   6 23.7814 21.7867  16
  -1 -10  -6 31.4115 24.5367  20
   1  10   7 489.080 56.2924  40
  -1 -10  -7 439.434 55.3185  17
   1  10   7 496.169 56.4687  16
  -1 -10  -7 553.861 59.0513  19
  -1 -10  -8 42.8738 25.7047  10
  -1 -10  -8 85.5263 30.7629  17
   1  10   8 51.6176 26.7639  40
   1  10   8 11.4898 20.3776  16
  -1 -10  -8-6.28035 21.9578  19
  -1 -10  -9 66.8858 26.1899  10
  -1 -10  -9 26.1656 19.0656  17
   1  10   9 41.9550 23.4029  16
  -1 -10 -10 49.7119 20.7450  10
   1  10  10 97.5900 25.7043   9
   1  10  10 116.180 27.8964  16
   2 -10  -5 196.006 32.6539  23
   2 -10  -5 135.742 27.7427  20
   2 -10  -5 183.735 31.9026  17
   2 -10  -5 171.729 27.1851  18
   2 -10  -5 181.156 29.4417  24
   2 -10  -4 180.424 32.9030  23
   2 -10  -4 231.743 34.1048  20
   2 -10  -4 216.584 30.7411  18
   2 -10  -4 290.640 38.0113  17
   2 -10  -4 219.605 33.8373  24
   2 -10  -3 41.0764 23.5810  23
   2 -10  -3 20.1852 17.8023  20
   2 -10  -3-39.2564 21.1693  17
   2 -10  -3 15.3910 21.7065  24
   2 -10  -2 126.939 29.5598  23
   2 -10  -2 170.664 29.2953  20
   2 -10  -2 159.830 29.9152  17
   2 -10  -2 169.943 28.1160  24
   2 -10  -1 143.798 29.4560  23
   2 -10  -1 217.154 31.8884  17
   2 -10  -1 205.524 31.0851  20
   2 -10  -1 154.334 26.4685  24
  -2   9   9 78.6861 29.2147  41
   2  -9  -9 107.907 29.4745  18
  -2   9   9 91.8513 24.9895  16
   2  -9  -9 125.878 28.6056  23
   2  -9  -9 84.4012 27.1893  24
   2  -9  -8 198.073 38.4213  23
   2  -9  -8 244.275 33.7144  20
  -2   9   8 195.963 37.1253  41
   2  -9  -8 255.049 40.7840  18
  -2   9   8 224.131 35.7854  16
   2  -9  -8 173.205 32.8953  24
  -2   9   7 3.57832 22.9970  41
   2  -9  -7 92.9805 27.8213  20
   2  -9  -7 55.7183 28.2920  18
   2  -9  -7 57.0273 26.5008  17
  -2   9   7 87.5415 30.9828  16
   2  -9  -7 44.1745 27.7528  24
   2  -9  -6 80.1842 27.1245  20
   2  -9  -6 158.378 37.1703  18
  -2   9   6 173.774 32.7743  16
   2  -9  -6 154.254 37.4367   3
   2  -9  -6 162.095 40.1460  17
   2  -9  -6 174.729 39.6088  24
   2  -9  -5 128.257 38.3588  23
   2  -9  -5 134.039 34.9658   3
   2  -9  -5 201.372 38.8255  20
   2  -9  -5 201.128 42.2055  17
  -2   9   5 185.052 32.5359  16
   2  -9  -5 143.709 34.9076  18
   2  -9  -5 174.737 40.3299  24
   2  -9  -4 1118.24 93.1449  23
   2  -9  -4 1244.01 87.1359  20
   2  -9  -4 1053.86 82.1505  18
   2  -9  -4 1129.59 87.7535  17
   2  -9  -4 1060.58 89.4377   3
   2  -9  -4 1171.08 83.8300  24
   2  -9  -3 545.042 68.1496  23
   2  -9  -3 655.709 65.8070  20
   2  -9  -3 534.964 59.8486  18
   2  -9  -3 534.808 62.7763  17
   2  -9  -3 574.082 66.7521   3
   2  -9  -3 652.963 64.6364  24
   2  -9  -2 21.2619 33.2852  23
   2  -9  -2-22.5055 29.5924  17
   2  -9  -2 0.80555 25.1372   3
   2  -9  -2-12.1985 31.2014  20
   2  -9  -2 35.4005 23.6836  18
   2  -9  -2-1.37417 28.2552  24
   2  -9  -1 623.457 65.1226  17
   2  -9  -1 444.314 57.8628  23
   2  -9  -1 451.599 47.2993  18
   2  -9  -1 489.417 61.1517   3
   2  -9  -1 549.087 60.3690  20
   2  -9  -1 513.493 57.2880  24
   2  -9   0 1907.25 109.082  23
   2  -9   0 2029.59 106.716  20
   2  -9   0 1843.47 103.132  17
   2  -9   0 1833.75 88.3335  29
   2  -9   0 1872.76 111.118   3
   2  -9   0 1529.53 99.3033  24
   2  -9   1 1219.11 84.0950  23
   2  -9   1 1446.87 85.6752  20
   2  -9   1 1274.74 73.8085  29
   2  -9   1 1233.77 88.4438   3
   2  -9   1 1286.29 81.3350  17
   2  -9   1 1424.82 84.3314  24
   2  -9   2 5.76867 21.4260  23
   2  -9   2 34.3990 22.7739  29
   2  -9   2 38.0054 22.0636  17
   2  -9   2 50.6878 26.4900  20
   2  -9   2 21.3872 23.5159  24
   2  -9   3-5.77294 17.9664  23
   2  -9   3 22.5615 19.5722  20
   2  -9   3 13.7347 21.2728  29
   2  -9   3 9.53620 21.2441  24
   2  -9   4 34.2824 18.8668  23
   2  -9   4 77.9810 23.8153  29
   2  -9   4 55.0497 22.9957  24
  -2   8  11 464.354 46.1618  11
  -2   8  11 419.753 48.7007  41
   2  -8 -11 516.476 53.6029  15
  -2   8  11 478.046 47.8960  16
  -2   8  10 186.135 39.9346  41
  -2   8  10 244.397 39.7366  16
   2  -8 -10 265.715 44.2208  15
   2  -8 -10 304.931 43.5255  18
   2  -8  -9 636.032 67.2116  10
  -2   8   9 467.663 59.8436  41
   2  -8  -9 520.062 59.8459  15
   2  -8  -9 542.934 61.8850  18
  -2   8   9 538.767 58.8658  16
   2  -8  -8 100.817 29.6352  20
   2  -8  -8 157.437 39.0035  10
  -2   8   8 142.187 39.6391  41
   2  -8  -8 163.971 34.0232  17
  -2   8   8 188.960 40.0702  16
   2  -8  -8 181.020 41.7717  15
   2  -8  -8 182.492 41.1640   3
   2  -8  -8 175.106 44.6039  18
   2  -8  -7 13.6010 30.1480  10
   2  -8  -7 20.6617 26.9163  20
   2  -8  -7 51.2787 35.9313  18
   2  -8  -7 28.4661 26.3081  17
  -2   8   7-9.31483 26.5845  16
   2  -8  -7 20.6041 29.3884  15
   2  -8  -7 53.4004 32.9852   3
   2  -8  -6 304.510 49.1513  10
   2  -8  -6 217.072 41.4410  15
   2  -8  -6 244.138 54.1065  18
  -2   8   6 195.550 41.6425  16
   2  -8  -6 166.411 41.1888   3
   2  -8  -6 195.211 43.0945  17
   2  -8  -6 188.275 41.4232  20
   2  -8  -5 57.9634 30.0402  10
   2  -8  -5 110.260 43.6138  18
  -2   8   5 82.5961 32.3984  16
   2  -8  -5 10.7225 23.7930  15
   2  -8  -5 50.4362 35.5779   3
   2  -8  -5 113.750 40.8019  20
   2  -8  -5 137.949 44.7713  17
   2  -8  -4 1274.38 100.370  20
  -2   8   4 1143.96 83.2070  16
   2  -8  -4 1159.31 97.1500  18
   2  -8  -4 1248.63 103.252  17
   2  -8  -4 1398.03 106.415  24
   2  -8  -4 979.510 77.3507  15
   2  -8  -4 1264.47 106.422   3
   2  -8  -3 209.776 48.9464  18
   2  -8  -3 193.843 47.9974   3
   2  -8  -3 187.304 46.2768  17
   2  -8  -3 166.331 44.3457  20
   2  -8  -3 196.358 54.6168  24
   2  -8  -2 198.717 44.8216  20
   2  -8  -2 220.145 44.4479  18
   2  -8  -2 273.094 55.5704   3
   2  -8  -2 229.890 53.5711  17
   2  -8  -2 247.737 41.3769  29
   2  -8  -2 156.866 38.4271  21
   2  -8  -2 258.720 55.8343  24
   2  -8  -1 1577.10 119.035  23
   2  -8  -1 1146.11 81.5604  21
   2  -8  -1 1630.93 110.137  20
   2  -8  -1 1688.11 119.392   3
   2  -8  -1 1458.62 98.4275  18
   2  -8  -1 1649.64 93.0778  29
   2  -8  -1 1599.83 115.950  17
   2  -8  -1 1481.98 108.820  24
   2  -8   0-10.5957 35.0070  23
   2  -8   0 5.34194 25.3509  21
   2  -8   0 10.0486 32.9831   3
   2  -8   0 94.0077 45.9173  20
   2  -8   0 36.8713 32.7624  29
   2  -8   0-4.03337 21.4651  18
   2  -8   0 10.6270 33.7439  24
   2  -8   0-14.1828 31.1157  17
   2  -8   1 819.791 84.2403  23
   2  -8   1 894.756 84.6662   3
   2  -8   1 683.894 63.8730  21
   2  -8   1 921.794 82.9590  20
   2  -8   1 873.110 82.0505  17
   2  -8   1 854.176 71.2210  29
   2  -8   1 953.445 81.3507  24
   2  -8   2 1773.46 114.007  23
   2  -8   2 1760.53 106.105  20
   2  -8   2 1817.87 107.131  17
   2  -8   2 1701.96 110.493   3
   2  -8   2 1844.14 102.230  29
   2  -8   2 1823.16 105.834  24
   2  -8   3 1193.82 87.3887  23
   2  -8   3 1194.65 81.8104  29
   2  -8   3 1129.33 82.3530  20
   2  -8   3 1088.35 79.4574  17
   2  -8   3 1147.86 82.0755  24
   2  -8   3 1129.77 86.8998   3
   2  -8   4 471.444 54.9696  23
   2  -8   4 408.966 46.9684  20
   2  -8   4 531.253 58.1139  29
   2  -8   4 400.796 44.6512  17
   2  -8   4 455.962 54.1423  24
   2  -8   5 911.741 66.3816  29
   2  -8   5 821.078 62.8137  24
   2  -8   5 727.545 59.2250  23
   2  -8   6 420.634 44.2155  29
   2  -8   6 382.092 42.1557  24
   2  -8   7-14.6270 18.9078  29
   2  -8   7-6.78824 16.8479  24
  -2   7  13 172.184 27.3271  11
  -2   7  13 161.406 27.8444  16
  -2   7  13 154.990 28.6675  41
   2  -7 -13 161.899 33.2018  15
   2  -7 -13 226.452 31.2912  14
   2  -7 -12-27.9721 23.5321  14
  -2   7  12 26.9183 21.0499  11
  -2   7  12-8.04856 19.5498  16
   2  -7 -12 12.1406 25.0360  15
  -2   7  12-41.7598 24.1715  41
  -2   7  11 126.978 33.0786  41
   2  -7 -11 106.147 32.1710  14
   2  -7 -11 144.589 37.6348  10
  -2   7  11 169.107 37.1788  16
   2  -7 -11 124.286 39.2454  15
  -2   7  11 169.274 38.6595  11
   2  -7 -11 173.336 36.6693  18
   2  -7 -10 2431.07 126.595  18
  -2   7  10 2294.05 122.281  16
   2  -7 -10 2389.63 136.967  15
   2  -7 -10 2404.54 133.428  10
   2  -7 -10 2104.36 111.853  14
  -2   7  10 2097.27 120.633  41
   2  -7  -9 8040.60 242.497  18
  -2   7   9 7503.36 243.225  41
  -2   7   9 7750.41 233.960  16
   2  -7  -9 7700.11 251.259  15
   2  -7  -9 7744.98 247.531  10
  -2   7   8 198.692 49.2152  41
   2  -7  -8 182.178 48.5802  10
   2  -7  -8 282.226 50.5281  20
   2  -7  -8 245.857 55.5613  18
   2  -7  -8 242.011 44.2495  17
   2  -7  -8 263.525 48.5252   3
   2  -7  -8 167.873 50.1457  15
  -2   7   8 195.629 44.7324  16
   2  -7  -8 167.810 38.3997  14
  -2   7   8 176.007 36.6422  12
   2  -7  -7 6553.53 233.594  10
   2  -7  -7 6207.02 207.150  20
   2  -7  -7 6477.98 223.924   3
   2  -7  -7 6102.31 225.891  18
   2  -7  -7 6558.76 217.229  17
  -2   7   7 4945.48 666.851   5
  -2   7   7 5595.08 741.958  36
  -2   7   7 6103.90 215.591  16
   2  -7  -7 6213.24 224.465  15
  -2   7   7 6075.50 771.628   1
   2  -7  -6 69.1901 37.0426  10
   2  -7  -6 70.0149 34.7931  18
  -2   7   6 22.9279 135.562   5
  -2   7   6-107.785 189.436  36
  -2   7   6 69.4424 31.8280  16
   2  -7  -6 41.3274 29.0427   3
   2  -7  -6 96.1579 38.8322  17
   2  -7  -6 115.628 39.5379  15
   2  -7  -6 61.2735 33.6261  20
   2  -7  -5 257.166 52.8444  20
   2  -7  -5 315.439 57.6866  10
   2  -7  -5 339.911 59.0684  18
  -2   7   5 483.300 279.788  36
   2  -7  -5 288.164 55.6614   3
  -2   7   5 247.490 45.3995  16
  -2   7   5 226.031 166.922   5
   2  -7  -5 287.422 51.4498  15
   2  -7  -5 322.615 57.5787  17
   2  -7  -5 359.399 237.799   4
   2  -7  -4 65.2849 35.8837  18
   2  -7  -4 11.9132 29.8276   3
   2  -7  -4 56.5921 30.9684  20
   2  -7  -4 26.8734 27.4769  10
  -2   7   4 16.5975 165.340  36
  -2   7   4 72.4606 33.8023  16
   2  -7  -4 32.3202 29.4603  15
   2  -7  -4 73.0165 34.5321  17
   2  -7  -4 172.795 171.442   4
   2  -7  -3 65.1871 35.1479  18
   2  -7  -3 66.6057 36.4785  20
   2  -7  -3 64.4294 33.4835  10
   2  -7  -3 53.9566 33.0278  17
  -2   7   3 131.798 170.049  36
  -2   7   3 57.3795 25.9989  16
   2  -7  -3 93.3038 45.3331   3
   2  -7  -3 63.0594 30.2830  15
   2  -7  -3 1.15715 141.301   4
   2  -7  -2 480.366 66.4005  20
   2  -7  -2 467.956 65.1047  18
   2  -7  -2 409.921 65.1765   3
   2  -7  -2 427.730 65.4452  17
   2  -7  -2 524.089 55.2687  29
   2  -7  -2 325.659 167.239   4
  -2   7   2 601.981 265.738  36
   2  -7  -2 435.879 66.2219  24
   2  -7  -1 1267.54 99.9870  20
   2  -7  -1 1171.37 99.4554  17
   2  -7  -1 1150.52 93.8647  18
   2  -7  -1 1291.95 87.5923  29
   2  -7  -1 1220.39 103.002   3
  -2   7   1 1284.23 355.659  36
   2  -7  -1 1322.26 389.370   4
   2  -7  -1 1176.14 99.5980  24
   2  -7   0 21.1373 37.2539  23
   2  -7   0-15.1825 34.1375  20
   2  -7   0-12.6128 29.3752  21
   2  -7   0-28.4855 38.9092  17
  -2   7   0-13.0590 160.969  36
   2  -7   0 26.7286 35.9061   3
   2  -7   0-26.9683 23.8403  18
   2  -7   0-35.4878 30.1102  29
   2  -7   0 34.1873 143.363   4
   2  -7   0 22.0071 33.4642  24
   2  -7   1 1949.63 129.925  23
   2  -7   1 1786.11 106.277  21
   2  -7   1 2137.74 130.550   3
   2  -7   1 2127.43 125.111  20
   2  -7   1 2114.09 113.329  29
   2  -7   1 2089.96 128.605  17
  -2   7  -1 1526.97 385.725  36
  -2   7  -1 1787.64 442.637   5
   2  -7   1 1969.85 107.364  32
   2  -7   1 1806.11 106.144  18
   2  -7   1 2090.25 124.879  24
   2  -7   1 1737.98 423.106   4
   2  -7   2 8159.59 259.037  23
   2  -7   2 7387.67 215.237  21
   2  -7   2 8475.97 257.811   3
   2  -7   2 8289.29 247.476  17
  -2   7  -2 7142.08 874.772   5
   2  -7   2 7888.78 218.690  32
   2  -7   2 8323.87 231.377  29
   2  -7   2 7856.39 873.421   4
   2  -7   2 8095.29 243.881  24
   2  -7   2 8346.49 245.144  20
   2  -7   3 1013.47 90.5500  23
   2  -7   3 862.038 73.9325  21
   2  -7   3 1118.11 92.1914   3
   2  -7   3 971.481 78.7652  32
   2  -7   3 952.484 82.8641  17
  -2   7  -3 1068.75 377.732   5
  -2   7  -3 887.765 314.696   1
   2  -7   3 954.744 78.0733  29
   2  -7   3 960.553 85.5016  24
   2  -7   3 962.199 82.1545  20
   2  -7   4 894.423 81.9840  23
   2  -7   4 825.544 69.2122  21
   2  -7   4 843.236 71.3773  17
   2  -7   4 887.704 77.5536  20
   2  -7   4 912.812 74.7126  32
   2  -7   4 843.996 77.5684   3
   2  -7   4 929.629 79.0915  29
   2  -7   4 886.818 79.3797  24
   2  -7   5 473.801 58.6156  23
   2  -7   5 407.151 58.5018  29
   2  -7   5 364.845 47.6729  21
   2  -7   5 342.276 42.4151  17
   2  -7   5 359.891 48.2958  20
   2  -7   5 426.617 54.5317  32
   2  -7   5 419.057 57.2609  24
   2  -7   6 711.012 58.6317  21
   2  -7   6 871.507 68.9053  32
   2  -7   6 1007.35 75.4100  24
   2  -7   6 806.545 67.2934  23
   2  -7   6 930.282 72.5957  29
   2  -7   7 93.6121 27.0762  23
   2  -7   7 51.9847 30.4505  29
   2  -7   7 77.7124 28.0070  32
   2  -7   7 73.5686 30.1791  24
   2  -7   8 67.8595 28.8180  29
   2  -7   8 66.9298 24.3994  24
   2  -7   9 24.6567 19.2148  29
   2  -7   9-14.6421 19.9787  24
  -2   6  14 734.232 51.3443  11
   2  -6 -14 836.756 62.1411  14
   2  -6 -14 813.284 63.5039  15
  -2   6  14 811.107 51.6298  16
  -2   6  13 27.7157 25.9488  11
  -2   6  13 15.2634 20.8049  41
  -2   6  13 15.1807 18.1626  16
   2  -6 -13 22.1629 24.2696  15
   2  -6 -13 17.0110 23.6775  14
  -2   6  12 120.146 32.9354  11
  -2   6  12 125.488 33.8510  41
  -2   6  12 124.255 32.2611  16
   2  -6 -12 166.528 44.0293  15
   2  -6 -12 159.697 40.3165  14
  -2   6  12 135.814 29.5683  27
   2  -6 -11 166.877 42.8298  10
  -2   6  11 186.568 43.8316  41
  -2   6  11 167.692 34.6623  27
  -2   6  11 204.424 45.8836  16
   2  -6 -11 158.684 33.4659  18
   2  -6 -11 149.425 46.7786  15
  -2   6  11 132.919 36.6894  11
   2  -6 -11 170.652 39.6606  14
  -2   6  10 1185.49 93.7822  16
   2  -6 -10 1087.11 96.1199  10
   2  -6 -10 1096.86 101.665  15
  -2   6  10 1014.21 89.2691  41
   2  -6 -10 977.387 86.2874  14
  -2   6  10 1154.24 79.3284  27
   2  -6 -10 1184.41 90.8617  18
   2  -6  -9 1688.19 337.009  38
  -2   6   9 2370.81 132.685  16
  -2   6   9 1846.15 394.636  36
  -2   6   9 2351.25 113.745  27
   2  -6  -9 2454.15 150.244  15
   2  -6  -9 2315.30 130.574  14
  -2   6   9 2374.25 136.562  41
   2  -6  -9 2391.33 136.307  18
   2  -6  -9 2380.98 143.732  10
   2  -6  -8 3510.22 174.449  10
  -2   6   8 3432.24 166.882  41
   2  -6  -8 3495.17 147.837  20
   2  -6  -8 3788.64 157.995   3
   2  -6  -8 3756.97 172.422  18
  -2   6   8 3605.08 163.798  16
   2  -6  -8 3613.31 181.441  15
  -2   6   8 3453.11 573.971  36
   2  -6  -8 3459.61 155.558  14
   2  -6  -8 3697.18 152.266  17
  -2   6   8 3171.86 140.629  12
   2  -6  -7 14301.4 1154.49   4
   2  -6  -7 15083.8 340.085   3
  -2   6   7 14231.2 337.031  16
   2  -6  -7 15364.1 334.639  20
   2  -6  -7 14036.5 349.232  18
   2  -6  -7 13594.7 312.314  14
   2  -6  -7 16235.3 346.537  17
  -2   6   7 13890.1 1082.46   5
  -2   6   7 13749.5 1118.29  36
   2  -6  -7 14325.5 358.850  15
   2  -6  -7 13974.1 353.275  10
   2  -6  -6 4120.65 186.915  10
  -2   6   6 4209.84 610.014   5
   2  -6  -6 3861.29 605.013   4
  -2   6   6 4156.19 614.293  36
   2  -6  -6 3783.77 178.736  15
   2  -6  -6 3842.68 155.665  14
   2  -6  -6 3938.92 179.515  18
   2  -6  -6 4048.96 169.586  20
   2  -6  -6 4207.47 179.571   3
   2  -6  -6 4202.32 177.027  17
  -2   6   6 4060.55 173.215  16
  -2   6   5 8000.42 242.309  16
   2  -6  -5 8208.33 247.009  20
   2  -6  -5 7535.35 247.313  18
   2  -6  -5 8287.43 254.288  17
  -2   6   5 8387.25 874.899   5
  -2   6   5 8592.94 889.067  36
   2  -6  -5 8071.48 255.095  15
   2  -6  -5 7962.54 256.695  10
   2  -6  -5 8134.15 252.581   3
   2  -6  -5 8549.24 907.212   4
   2  -6  -4 159.003 44.2266  18
   2  -6  -4 163.098 37.6301  20
   2  -6  -4 218.898 48.4483  10
   2  -6  -4 175.930 43.4510  17
   2  -6  -4 195.329 45.2363   3
  -2   6   4 198.065 41.2802  16
   2  -6  -4 193.056 45.5933  15
   2  -6  -4 127.842 183.550   4
   2  -6  -3 7.89425 25.7336  15
   2  -6  -3 25.4802 27.7898  10
   2  -6  -3 19.2350 26.8665  18
  -2   6   3 118.818 188.049  36
  -2   6   3 27.6490 26.2383  16
   2  -6  -3 6.31667 29.1283   3
   2  -6  -3 25.5684 173.725   4
   2  -6  -3 55.6097 36.9724  20
   2  -6  -3 29.9846 26.3380  17
   2  -6  -2 553.399 70.3848   3
   2  -6  -2 545.119 68.1112  20
   2  -6  -2 568.983 67.0492  10
   2  -6  -2 499.846 67.1076  18
   2  -6  -2 538.040 68.9753  17
  -2   6   2 650.755 225.273  36
   2  -6  -2 534.873 63.3419  15
   2  -6  -2 574.692 59.1663  29
   2  -6  -2 738.998 277.233   4
  -2   6   2 573.840 61.3975  16
  -2   6   1 611.043 265.392  36
   2  -6  -1 445.581 61.2827  18
   2  -6  -1 522.144 66.6527  17
   2  -6  -1 549.427 68.3117   3
   2  -6  -1 441.315 56.2786  15
   2  -6  -1 570.117 57.7677  29
   2  -6  -1 574.610 235.334   4
   2  -6  -1 425.832 62.3253  24
   2  -6  -1 614.778 71.9321  20
   2  -6   0 36.7526 32.2730  32
   2  -6   0-14.5087 29.9052  17
   2  -6   0 13.6109 25.8804  18
   2  -6   0 25.6255 30.0767   3
   2  -6   0 46.5242 24.8599  29
   2  -6   0 97.2753 98.4939   4
   2  -6   0 42.5718 27.4978  20
  -2   6   0 116.305 139.094  36
   2  -6   0 20.7166 31.3093  24
   2  -6   1 911.634 91.1129  23
   2  -6   1 789.413 71.3374  18
   2  -6   1 855.485 80.8553   3
   2  -6   1 888.906 81.6390  20
   2  -6   1 832.471 78.4521  17
   2  -6   1 819.784 73.7027  21
  -2   6  -1 675.986 249.074  36
   2  -6   1 805.114 69.5703  32
   2  -6   1 752.196 68.6815  29
   2  -6   1 975.787 307.744   4
   2  -6   1 830.658 79.6941  24
   2  -6   2 1717.49 118.803  23
   2  -6   2 1777.24 114.975   3
   2  -6   2 1621.14 106.936  20
   2  -6   2 1598.31 110.671  17
  -2   6  -2 1682.02 396.544  36
   2  -6   2 1642.54 104.048  21
   2  -6   2 1675.77 103.163  29
   2  -6   2 1484.06 92.6420  32
   2  -6   2 1796.51 427.794   4
   2  -6   2 1564.98 106.678  24
   2  -6   3 6661.08 227.103  23
   2  -6   3 6720.33 206.947  21
   2  -6   3 6734.06 206.469  29
   2  -6   3 6590.55 216.843  17
  -2   6  -3 6367.17 776.720   5
  -2   6  -3 5515.73 698.508  36
   2  -6   3 5954.15 723.000   4
   2  -6   3 6971.16 201.120  32
   2  -6   3 6832.89 190.768  31
   2  -6   3 7029.78 223.903   3
   2  -6   3 6532.58 211.345  24
   2  -6   3 6721.14 216.653  20
   2  -6   3 6853.00 170.289  30
   2  -6   4 11756.8 302.989  23
   2  -6   4 11388.1 272.143  21
   2  -6   4 11252.1 282.274   3
   2  -6   4 11215.9 279.895  20
   2  -6   4 10980.6 275.225  17
   2  -6   4 11627.7 265.398  32
   2  -6   4 11327.1 253.337  31
  -2   6  -4 10516.9 967.316   5
   2  -6   4 11478.0 230.187  30
   2  -6   4 10595.6 949.881   4
   2  -6   4 11228.3 271.694  29
   2  -6   4 11430.1 239.001  25
   2  -6   4 11200.5 277.197  24
   2  -6   5 1.82248 31.6870  23
   2  -6   5 1.06706 23.0389  20
   2  -6   5-61.4027 37.0280  21
   2  -6   5 3.74008 23.8691  17
   2  -6   5-0.07108 24.4871   3
   2  -6   5 35.4959 34.7506  32
   2  -6   5-59.9311 28.9979  31
   2  -6   5 37.2230 24.2659  30
   2  -6   5 62.8994 40.6245  29
   2  -6   5 49.1834 28.9803  25
   2  -6   5 26.1846 35.6802  24
   2  -6   6 704.271 66.1427  21
   2  -6   6 724.946 62.4064  31
   2  -6   6 780.256 72.1346  29
   2  -6   6 703.923 64.6906  32
   2  -6   6 793.245 60.7715  30
   2  -6   6 686.571 57.5176  25
   2  -6   6 800.573 71.4603  24
   2  -6   6 740.805 73.4983  23
   2  -6   7 1223.54 83.5737  21
   2  -6   7 1219.68 83.6338  32
   2  -6   7 1265.17 80.7046  31
   2  -6   7 1383.83 76.0603  30
   2  -6   7 1224.72 74.1728  25
   2  -6   7 1412.33 90.6194  29
   2  -6   7 1327.06 89.6274  24
   2  -6   7 1192.09 85.8625  23
   2  -6   8 385.900 48.8717  21
   2  -6   8 337.775 44.8383  23
   2  -6   8 454.648 50.0119  31
   2  -6   8 454.404 44.1618  30
   2  -6   8 457.923 53.4089  29
   2  -6   8 402.755 49.6498  32
   2  -6   8 430.830 43.5312  25
   2  -6   8 527.986 57.4676  24
   2  -6   9 38.7713 29.0751  21
   2  -6   9 40.8364 24.5210  31
   2  -6   9 41.2587 19.6820  30
   2  -6   9 39.1391 28.2081  29
   2  -6   9 54.5263 23.1367  25
   2  -6   9 8.11375 20.6355  32
   2  -6   9 31.7937 27.6268  24
   2  -6  10 319.981 34.6309  30
   2  -6  10 362.681 37.4481  31
   2  -6  10 347.254 33.3441  25
   2  -6  10 391.481 41.3988  24
   2  -6  11 105.905 20.8076  30
  -2   5  14 63.2396 24.2813  11
  -2   5  14-1.07589 19.4727  41
  -2   5  14 34.2859 18.4721  16
   2  -5 -14 43.2435 22.6752  15
   2  -5 -14 52.9918 28.7506  14
  -2   5  13 241.424 39.9916  11
  -2   5  13 141.184 34.0229  41
  -2   5  13 278.678 40.5634  16
   2  -5 -13 239.624 51.3721  15
   2  -5 -13 214.307 46.7255  14
  -2   5  13 272.913 40.4676  27
  -2   5  12 399.199 55.6412  11
  -2   5  12 261.833 48.2268  41
  -2   5  12 355.822 50.4800  16
   2  -5 -12 317.266 55.3883  15
   2  -5 -12 362.816 57.0636  14
  -2   5  12 359.659 48.6628  27
   2  -5 -11 195.496 45.0578  10
  -2   5  11 247.011 47.8284  41
  -2   5  11 281.660 50.5934  16
  -2   5  11 225.129 40.1102   2
   2  -5 -11 148.466 45.7450  15
  -2   5  11 206.222 49.6274  11
   2  -5 -11 267.250 51.6446  14
  -2   5  11 259.850 44.7430  27
  -2   5  10 8.71832 22.0150   2
  -2   5  10 26.1559 34.3735  41
   2  -5 -10 2.30404 30.2446  10
   2  -5 -10-45.9052 103.888  38
   2  -5 -10 50.1575 25.2374  18
  -2   5  10 42.6739 27.8415  16
   2  -5 -10 41.3368 39.5584  15
   2  -5 -10 2.84553 30.7196  14
  -2   5  10 21.1837 21.2139  27
  -2   5   9 58.0304 32.7356  41
   2  -5  -9 115.791 39.9183  10
   2  -5  -9 10.1889 93.1622  38
  -2   5   9 198.960 114.251  36
  -2   5   9 82.5138 29.8932  16
   2  -5  -9 33.1037 36.7587  15
   2  -5  -9 95.2286 40.5715  14
   2  -5  -9 26.6966 28.2130  18
  -2   5   9 62.4216 28.3903  27
  -2   5   9 108.447 34.0545  12
  -2   5   8 3697.61 168.789  41
   2  -5  -8 3805.08 151.318  20
   2  -5  -8 3888.51 172.698  18
   2  -5  -8 2982.25 423.685  38
  -2   5   8 3755.75 166.604  16
   2  -5  -8 3857.55 186.857  15
   2  -5  -8 3908.76 171.966  14
  -2   5   8 4262.54 578.795  36
  -2   5   8 3520.60 145.993  12
   2  -5  -8 3828.70 181.403  10
  -2   5   8 3999.18 153.614  27
   2  -5  -7 2240.93 135.018  10
   2  -5  -7 2469.18 127.234   3
   2  -5  -7 2363.96 129.497  14
   2  -5  -7 2370.63 134.255  18
   2  -5  -7 2030.98 335.818  38
  -2   5   7 2143.36 426.687  36
   2  -5  -7 2412.79 122.672  17
   2  -5  -7 2430.02 144.713  15
  -2   5   7 2282.91 127.214  16
  -2   5   7 2477.99 115.851  27
   2  -5  -7 2339.10 121.051  20
   2  -5  -7 2232.36 428.313   4
  -2   5   7 2316.79 418.798   5
   2  -5  -6 9934.62 283.804  10
   2  -5  -6 10285.6 266.437   3
   2  -5  -6 10052.9 276.639  18
   2  -5  -6 10448.4 266.482  17
  -2   5   6 10423.6 903.129  36
   2  -5  -6 10196.5 262.365  20
   2  -5  -6 10003.2 289.546  15
  -2   5   6 10610.1 887.775   5
   2  -5  -6 10411.6 919.598   4
   2  -5  -6 10133.4 262.566  14
  -2   5   6 9489.75 260.757  16
   2  -5  -5 226.021 50.8875  18
   2  -5  -5 207.324 99.0701  38
   2  -5  -5 195.988 45.3703  17
   2  -5  -5 234.945 48.2231  10
  -2   5   5 255.641 176.596  36
  -2   5   5 223.327 44.2540  16
  -2   5   5 139.657 125.983   5
   2  -5  -5 168.481 47.1301  15
   2  -5  -5 185.893 40.3610  14
   2  -5  -5 216.437 42.6601  20
   2  -5  -5 245.339 44.6202   3
   2  -5  -5 145.501 95.4395   4
   2  -5  -4 359.375 53.2090   3
   2  -5  -4 329.801 53.5246  10
   2  -5  -4 340.916 50.1902  20
   2  -5  -4 295.710 50.4025  18
   2  -5  -4 287.701 140.039  38
  -2   5   4 390.672 190.474  36
  -2   5   4 312.306 50.5839  16
   2  -5  -4 303.203 50.1531  15
   2  -5  -4 320.995 51.6066  17
   2  -5  -4 328.913 48.8001  14
   2  -5  -4 310.535 183.700   4
  -2   5   3 2638.88 128.438  16
   2  -5  -3 2945.29 135.979   3
   2  -5  -3 2842.11 134.977  20
   2  -5  -3 2605.71 137.194  18
   2  -5  -3 2889.98 141.670  17
  -2   5   3 3293.97 497.954  36
   2  -5  -3 2885.96 139.343  15
   2  -5  -3 2983.70 493.717   4
   2  -5  -3 2819.34 139.234  10
   2  -5  -2 2052.40 112.984   3
   2  -5  -2 2082.83 113.646  20
  -2   5   2 1963.64 105.412  16
   2  -5  -2 2083.84 120.912  18
  -2   5   2 2082.11 390.308  36
   2  -5  -2 2038.54 114.969  15
   2  -5  -2 2143.56 402.850   4
   2  -5  -2 1914.44 95.5414  29
   2  -5  -2 2053.01 117.763  17
   2  -5  -2 2133.60 117.287  10
   2  -5  -1 1291.59 91.0838   3
   2  -5  -1 1122.74 89.5177  17
   2  -5  -1 1279.64 93.2424  20
  -2   5   1 1077.63 316.330  36
   2  -5  -1 1148.83 86.1755  15
   2  -5  -1 1167.79 78.8168  29
   2  -5  -1 1177.00 86.4663  10
   2  -5  -1 1293.34 318.015   4
   2  -5  -1 1200.71 90.5734  18
   2  -5   0 67.4968 32.8480  17
   2  -5   0 32.0011 22.0391  18
   2  -5   0 110.676 37.3577   3
  -2   5   0 99.3471 119.187  36
   2  -5   0 66.0621 22.4718  20
   2  -5   0 74.3913 21.3709  15
   2  -5   0 106.624 31.5465  32
   2  -5   0 92.0028 27.2979  29
   2  -5   0 104.383 126.063   4
   2  -5   0 93.0215 34.1628  24
   2  -5   1 67.0570 29.4068  23
   2  -5   1 98.3202 32.5525  20
   2  -5   1 113.150 33.8854  18
   2  -5   1 129.505 30.8486  29
  -2   5  -1 92.0752 117.212  36
   2  -5   1 65.7568 27.8952  32
   2  -5   1 77.1807 31.8624  17
   2  -5   1 29.0770 75.4065   4
   2  -5   1 87.5150 27.6913  24
   2  -5   1 77.4266 27.3840   3
   2  -5   2 178.510 46.3971  23
   2  -5   2 151.703 37.1490  20
   2  -5   2 115.472 31.9755  32
   2  -5   2 121.163 29.9793  18
   2  -5   2 130.765 34.7228  17
   2  -5   2 98.8139 31.4349   3
   2  -5   2 135.470 32.7442  29
   2  -5   2 107.941 24.1768  31
   2  -5   2 130.373 35.8784  21
   2  -5   2-9.69817 91.7387   4
   2  -5   2 114.557 27.7542  25
  -2   5  -2 30.3899 87.8037  36
   2  -5   2 103.704 32.2071  24
   2  -5   3 5469.93 199.969  23
   2  -5   3 5213.85 182.966   3
   2  -5   3 5223.14 173.959  29
   2  -5   3 5321.45 184.219  20
   2  -5   3 5290.20 186.332  17
  -2   5  -3 5443.53 659.037   5
   2  -5   3 5407.13 169.190  32
   2  -5   3 5202.49 160.989  31
   2  -5   3 5548.68 147.208  30
   2  -5   3 5694.35 666.534   4
   2  -5   3 5403.35 183.344  21
   2  -5   3 5325.55 154.236  25
   2  -5   3 5325.65 180.858  24
   2  -5   4 4063.32 171.948  23
   2  -5   4 3957.83 159.076   3
   2  -5   4 3978.79 156.867  21
   2  -5   4 4022.19 146.996  32
   2  -5   4 3834.06 153.481  20
  -2   5  -4 4209.50 590.450   5
   2  -5   4 3945.82 127.788  30
  -2   5  -4 3197.03 492.445  36
   2  -5   4 3752.72 135.884  31
   2  -5   4 3767.12 537.386   4
   2  -5   4 4022.02 154.093  29
   2  -5   4 3958.92 132.158  25
   2  -5   4 3737.94 151.352  24
   2  -5   4 3735.64 154.104  17
   2  -5   5 13326.0 313.537  23
   2  -5   5 13210.2 251.790  25
   2  -5   5 13325.0 293.038  21
   2  -5   5 12648.6 283.280  20
  -2   5  -5 12262.5 961.373   5
   2  -5   5 13201.9 251.034  30
   2  -5   5 12511.5 281.326  17
  -2   5  -5 12064.6 959.369  36
   2  -5   5 13121.4 265.729  31
   2  -5   5 12936.1 290.502   3
   2  -5   5 13397.6 992.263   4
   2  -5   5 13466.7 294.350  29
   2  -5   5 13205.4 277.684  32
   2  -5   5 12638.6 286.684  24
   2  -5   6 12212.1 297.336  23
   2  -5   6 12296.7 282.934  21
   2  -5   6 11718.4 263.703  32
   2  -5   6 12691.8 263.904  31
   2  -5   6 12886.5 251.026  30
   2  -5   6 12401.4 286.237  29
   2  -5   6 12049.1 242.031  25
   2  -5   6 13004.7 290.593  24
   2  -5   7 11861.3 242.361  30
   2  -5   7 11344.5 271.316  21
   2  -5   7 11403.2 258.194  32
   2  -5   7 11647.7 251.231  31
   2  -5   7 11906.5 276.833  29
   2  -5   7 11826.6 237.363  25
   2  -5   7 11365.7 267.787  24
   2  -5   7 11350.1 280.313  23
   2  -5   8 347.831 48.4282  23
   2  -5   8 295.176 45.5093  21
   2  -5   8 312.388 45.3239  32
   2  -5   8 340.638 48.1179  31
   2  -5   8 386.713 44.1670  30
   2  -5   8 312.455 50.1588  29
   2  -5   8 330.226 42.8852  25
   2  -5   8 352.254 53.3157  24
   2  -5   9 2642.65 119.091  21
   2  -5   9 2703.82 114.053  31
   2  -5   9 2791.58 109.902  30
   2  -5   9 2553.49 118.879  29
   2  -5   9 2514.94 108.890  32
   2  -5   9 2795.65 105.982  25
   2  -5   9 2650.19 121.082  24
   2  -5   9 2328.91 112.539  23
   2  -5  10 368.302 48.2761  21
   2  -5  10 320.655 38.9750  32
   2  -5  10 374.201 42.6186  31
   2  -5  10 440.454 43.7679  30
   2  -5  10 374.636 46.5064  29
   2  -5  10 357.250 39.0827  25
   2  -5  10 396.542 47.1780  24
   2  -5  11 343.692 43.3220  21
   2  -5  11 353.499 38.7821  31
   2  -5  11 358.904 35.9457  30
   2  -5  11 359.674 35.2630  25
   2  -5  11 329.336 40.7196  24
   2  -5  12 71.4515 22.5563  21
   2  -5  12 31.2818 16.4102  31
   2  -5  12 55.7281 17.3604  30
   2  -5  12 44.1754 13.8688  25
   2  -4 -15 205.733 31.6289  15
  -2   4  15 150.311 24.7598  11
  -2   4  15 145.528 24.2301  25
   2  -4 -15 183.058 34.2357  14
  -2   4  14 449.954 47.8814  11
  -2   4  14 358.401 46.4207   2
  -2   4  14 330.219 42.8768  41
  -2   4  14 384.386 38.7415  16
   2  -4 -14 368.054 49.4165  15
  -2   4  14 324.965 34.4056  31
   2  -4 -14 454.138 55.0657  14
  -2   4  14 395.408 45.0530  25
  -2   4  13-22.3287 27.7768  11
  -2   4  13-23.0282 26.1787  41
  -2   4  13-25.9672 21.0005  16
  -2   4  13-3.02111 21.3083   2
   2  -4 -13-49.3891 29.6161  15
   2  -4 -13-9.06005 33.2465  14
  -2   4  13-14.7816 25.2531  27
  -2   4  12 2483.10 125.206  11
  -2   4  12 2199.56 122.971  41
   2  -4 -12 2634.59 142.132  14
   2  -4 -12 2589.39 146.251  15
  -2   4  12 2634.95 125.770  16
  -2   4  12 2437.84 123.483  27
  -2   4  12 2064.81 120.141   2
  -2   4  11 149.536 43.3574  11
  -2   4  11 67.5152 34.7368  41
   2  -4 -11 83.7459 118.268  38
  -2   4  11 95.3135 28.9450   2
  -2   4  11 128.328 37.8183  16
   2  -4 -11 118.334 42.9990  15
   2  -4 -11 101.587 41.0997  14
  -2   4  11 76.8023 32.5654  27
  -2   4  10 84.5300 33.6990   2
   2  -4 -10 84.7738 36.3273  10
  -2   4  10 83.9734 37.3945  41
  -2   4  10 105.541 38.5059  27
  -2   4  10 74.9312 40.9053  16
   2  -4 -10 36.6636 38.6708  15
   2  -4 -10 81.4957 40.5418  14
  -2   4   9 2827.34 146.127  41
  -2   4   9 2909.87 138.659  27
   2  -4  -9 2113.96 359.701  38
  -2   4   9 3046.82 146.388  16
  -2   4   9 2128.70 372.790  36
   2  -4  -9 2895.59 162.689  15
   2  -4  -9 2977.99 153.375  14
   2  -4  -9 2891.48 153.347  10
   2  -4  -9 2912.83 141.749  18
  -2   4   9 2993.21 136.337   2
  -2   4   9 2567.57 119.765  12
   2  -4  -8 21636.0 431.082  10
   2  -4  -8 22283.1 428.279  14
  -2   4   8 21303.0 408.497  41
   2  -4  -8 21390.8 407.632  18
  -2   4   8 20545.6 1176.15  36
  -2   4   8 21983.1 407.248  16
   2  -4  -8 21401.1 442.542  15
  -2   4   8 21773.5 383.017  27
  -2   4   8 22228.9 373.012   2
  -2   4   8 19820.1 363.115  12
   2  -4  -7 1517.58 92.9270   3
   2  -4  -7 1486.47 94.2670  20
  -2   4   7 1876.63 336.110   5
   2  -4  -7 1093.70 247.452  38
   2  -4  -7 1579.57 104.961  18
  -2   4   7 1417.06 96.7653  16
  -2   4   7 1197.34 291.427  36
   2  -4  -7 1386.79 107.484  15
   2  -4  -7 1498.69 101.356  14
   2  -4  -7 1462.57 105.883  10
  -2   4   7 1412.53 98.1764  41
  -2   4   7 1507.24 90.7895  27
  -2   4   7 1577.64 88.7465   2
   2  -4  -7 1324.91 292.879   4
  -2   4   7 1325.12 87.3022  12
   2  -4  -6 2189.16 112.300   3
  -2   4   6 2063.53 358.449  36
   2  -4  -6 2045.78 108.920  20
   2  -4  -6 2013.07 120.487  10
   2  -4  -6 1930.70 112.505  14
   2  -4  -6 2018.39 115.974  18
   2  -4  -6 1798.06 291.910  38
  -2   4   6 2310.42 381.621   5
  -2   4   6 1938.91 108.973  16
   2  -4  -6 1863.61 119.419  15
   2  -4  -6 2285.04 392.483   4
   2  -4  -6 2040.52 108.560  17
  -2   4   6 2184.38 104.346  27
   2  -4  -5 759.754 67.2963   3
   2  -4  -5 842.991 247.406   4
   2  -4  -5 777.600 67.5306  20
   2  -4  -5 424.350 124.821  38
  -2   4   5 700.953 68.5208  16
  -2   4   5 802.476 226.377  36
   2  -4  -5 707.348 71.0806  15
   2  -4  -5 789.355 70.0065  14
  -2   4   5 729.384 221.880   5
   2  -4  -5 771.542 67.4527  17
   2  -4  -5 746.050 74.6706  10
   2  -4  -5 694.262 71.5338  18
   2  -4  -4 21659.4 372.077   3
  -2   4   4 20928.5 365.080  16
   2  -4  -4 21275.2 393.141  10
   2  -4  -4 21364.2 370.354  20
   2  -4  -4 21160.5 385.068  18
   2  -4  -4 21431.4 378.461  17
  -2   4   4 23361.2 1207.98   5
   2  -4  -4 21372.7 363.836  14
  -2   4   4 23007.3 1203.60  36
   2  -4  -4 20780.6 394.555  15
   2  -4  -4 23167.0 1232.79   4
   2  -4  -3 577.954 58.3643   3
   2  -4  -3 507.742 56.8793  10
   2  -4  -3 539.010 56.9184  17
   2  -4  -3 562.233 61.2964  18
   2  -4  -3 530.046 53.3477  20
  -2   4   3 618.928 204.060  36
  -2   4   3 567.697 55.0026  16
   2  -4  -3 310.324 104.329  38
   2  -4  -3 534.884 62.2962  15
   2  -4  -3 502.913 168.436   4
   2  -4  -2 6705.95 198.667  18
   2  -4  -2 6328.65 186.257  20
   2  -4  -2 6386.95 194.106  17
   2  -4  -2 6435.32 194.678  15
   2  -4  -2 6324.15 626.364   4
  -2   4   2 6692.04 638.137  36
   2  -4  -2 6496.77 198.096  10
   2  -4  -2 6316.79 186.841   3
   2  -4  -1 384.307 50.4150  17
   2  -4  -1 395.752 48.2295  10
   2  -4  -1 382.053 48.7329   3
   2  -4  -1 408.398 47.9685  20
   2  -4  -1 485.150 53.5594  18
   2  -4  -1 401.872 171.081   4
  -2   4   1 418.333 181.921  36
   2  -4   0 232.333 39.3130  17
   2  -4   0 170.879 33.7703  20
   2  -4   0 145.072 32.9207   3
  -2   4   0 277.440 146.225  36
   2  -4   0 154.605 31.0327  32
   2  -4   0 204.376 37.1223  18
   2  -4   0 143.207 26.5623  29
   2  -4   0 175.574 122.158   4
   2  -4   1 6468.55 187.177   3
   2  -4   1 6556.41 188.314  20
  -2   4  -1 6962.64 658.136  36
   2  -4   1 6490.21 170.272  32
   2  -4   1 6929.15 647.153   4
   2  -4   1 6361.41 173.804  29
   2  -4   1 6947.74 202.017  17
   2  -4   1 6541.64 183.297  24
   2  -4   2 20.0475 24.8370  23
   2  -4   2 45.7664 24.7125   3
   2  -4   2-16.5049 22.2676  17
  -2   4  -2 83.2949 119.585  36
   2  -4   2 16.2947 25.4344  20
  -2   4  -2 11.0085 89.2609   5
   2  -4   2-15.3165 22.4851  32
   2  -4   2 19.2537 17.9990  31
   2  -4   2-16.9682 22.2177  29
   2  -4   2 143.760 126.748   4
   2  -4   2-18.5531 18.3139  25
   2  -4   2 35.9300 27.4621  24
   2  -4   3 676.406 68.2223  23
   2  -4   3 777.959 67.5519   3
   2  -4   3 750.817 67.1654  21
   2  -4   3 760.518 65.8900  20
   2  -4   3 786.360 72.9197  17
  -2   4  -3 674.193 201.946  36
  -2   4  -3 868.042 252.220   5
   2  -4   3 784.105 59.8125  32
   2  -4   3 858.304 240.501   4
   2  -4   3 698.547 56.9892  31
   2  -4   3 704.189 60.3253  29
   2  -4   3 788.056 55.5544  25
   2  -4   3 870.713 69.7244  24
   2  -4   4 13173.6 303.340  23
   2  -4   4 12441.7 270.240   3
   2  -4   4 13234.3 279.572  21
   2  -4   4 12639.1 271.486  20
   2  -4   4 12551.4 277.166  17
  -2   4  -4 13039.7 924.353   5
   2  -4   4 12680.2 257.504  32
   2  -4   4 12886.5 249.802  31
   2  -4   4 13110.8 918.343   4
   2  -4   4 13315.2 238.659  30
   2  -4   4 12938.4 271.048  29
   2  -4   4 13342.0 239.092  25
   2  -4   4 12845.4 273.479  24
   2  -4   5 17091.2 353.113  23
   2  -4   5 17164.7 308.917  32
   2  -4   5 16773.9 316.768   3
   2  -4   5 17467.2 332.913  21
  -2   4  -5 17092.9 1049.48   5
   2  -4   5 16238.4 314.803  17
   2  -4   5 17507.6 301.823  31
   2  -4   5 17936.9 293.364  30
   2  -4   5 17452.2 327.529  29
   2  -4   5 17770.5 285.942  25
   2  -4   5 17685.6 1068.51   4
   2  -4   5 16805.0 324.018  24
   2  -4   6 1908.49 113.378  23
   2  -4   6 1941.58 108.506  21
   2  -4   6 1945.17 95.8608  31
   2  -4   6 2028.18 94.4397  30
   2  -4   6 1959.12 105.344  29
   2  -4   6 1902.92 88.9580  25
   2  -4   6 1926.42 100.112  32
   2  -4   6 1811.02 321.507   4
   2  -4   6 1837.13 104.313  24
   2  -4   7 17488.4 342.048  21
   2  -4   7 16826.9 310.347   9
   2  -4   7 17731.9 308.254  30
   2  -4   7 17078.2 315.134  32
   2  -4   7 17703.0 312.878  31
   2  -4   7 17582.2 334.818  29
   2  -4   7 17465.8 293.549  25
   2  -4   7 16596.3 328.118  24
   2  -4   7 17012.9 348.940  23
   2  -4   8 1803.47 107.168  21
   2  -4   8 1588.92 75.0312  33
   2  -4   8 1672.11 97.3743  32
   2  -4   8 1813.18 98.7756  31
   2  -4   8 1665.78 99.4907  29
   2  -4   8 1775.34 94.2029  30
   2  -4   8 1767.05 89.3589  25
   2  -4   8 1739.05 106.201  24
   2  -4   8 1699.08 105.707  23
   2  -4   9 2550.66 124.608  21
   2  -4   9 2352.97 91.4998  33
   2  -4   9 2293.76 107.272  32
   2  -4   9 2568.62 113.450  31
   2  -4   9 2638.17 113.346  30
   2  -4   9 2373.80 117.849  29
   2  -4   9 2590.25 106.185  25
   2  -4   9 2428.78 121.375  24
   2  -4   9 2307.63 116.895  23
   2  -4  10 260.953 40.9968  23
   2  -4  10 244.012 46.7828  21
   2  -4  10 282.129 32.0658  33
   2  -4  10 301.919 42.7096  32
   2  -4  10 319.575 43.2577  30
   2  -4  10 275.292 45.3574  29
   2  -4  10 296.354 37.5274  25
   2  -4  10 238.378 39.6910  24
   2  -4  11 100.630 27.6036  31
   2  -4  11 121.670 21.2313  33
   2  -4  11 146.064 33.4918  30
   2  -4  11 169.148 28.8716  25
   2  -4  11 141.458 40.6940  21
   2  -4  11 147.665 38.7330  24
   2  -4  12 11.7258 13.0659  33
   2  -4  12 21.7313 19.6018  31
   2  -4  12 16.2850 20.4321  30
   2  -4  12 6.91702 27.8240  21
   2  -4  12 48.8157 16.2251  25
   2  -4  13 1172.18 58.8318  30
   2  -4  13 1163.13 62.8798  21
   2  -4  13 1055.85 54.9351  31
   2  -4  13 1101.62 53.2012  25
  -2   3  15 62.7032 23.1153  11
  -2   3  15 27.4788 14.8830  31
  -2   3  15 21.1635 15.6848   2
   2  -3 -15 85.9583 29.3783  14
  -2   3  15 51.8033 14.9291  28
  -2   3  15 43.8539 19.0488  25
  -2   3  14 361.494 44.4138  11
  -2   3  14 214.131 37.1113  41
  -2   3  14 293.875 37.1127  31
  -2   3  14 277.944 40.6114   2
   2  -3 -14 393.336 44.4435  15
   2  -3 -14 381.808 53.2174  14
  -2   3  14 327.018 35.0264  28
  -2   3  14 273.275 40.1871  25
  -2   3  13 915.421 76.2418  11
  -2   3  13 765.724 71.7399  41
  -2   3  13 961.645 69.2904  16
   2  -3 -13 807.890 75.2556  15
   2  -3 -13 963.872 87.8704  14
  -2   3  13 911.188 59.8808  28
  -2   3  13 848.161 69.5423  25
  -2   3  13 940.902 78.3152   2
  -2   3  12 4331.32 166.578  11
  -2   3  12 3951.40 167.543  41
  -2   3  12 4714.46 166.329  16
   2  -3 -12 4268.85 182.942  15
   2  -3 -12 4515.39 187.293  14
  -2   3  12 4218.01 144.173  28
  -2   3  12 4474.08 167.197  27
  -2   3  12 4830.47 183.112   2
  -2   3  11 152.559 40.4810  11
  -2   3  11 218.773 44.0301  41
   2  -3 -11 147.111 84.4020  38
   2  -3 -11 209.057 50.2930  15
   2  -3 -11 244.207 56.6152  14
  -2   3  11 228.873 42.8146  16
  -2   3  11 231.922 37.0586  28
  -2   3  11 210.938 41.8325  27
  -2   3  11 216.167 39.0981   2
  -2   3  10 201.204 45.7444  11
   2  -3 -10 432.306 59.1158  10
  -2   3  10 322.939 49.0391  41
  -2   3  10 421.473 61.1598   2
   2  -3 -10 432.692 169.147  38
  -2   3  10 429.017 55.7591  16
   2  -3 -10 392.037 64.9803  15
   2  -3 -10 196.786 53.2360  14
  -2   3  10 365.799 45.4441  28
  -2   3  10 179.149 45.2287  27
   2  -3  -9 3496.15 160.556  10
  -2   3   9 3326.82 150.453  41
  -2   3   9 3321.32 129.911  28
   2  -3  -9 3147.25 416.695  38
  -2   3   9 3756.17 157.511  16
   2  -3  -9 3540.67 172.173  15
   2  -3  -9 3555.26 165.014  14
  -2   3   9 3887.62 160.898   2
  -2   3   9 3471.51 148.410  27
  -2   3   9 3360.91 135.956  12
  -2   3   8 4796.42 177.736  41
   2  -3  -8 4780.53 185.447  10
   2  -3  -8 4094.36 457.863  38
  -2   3   8 5032.52 178.964  16
  -2   3   8 4609.19 500.091  36
   2  -3  -8 4788.78 196.934  15
   2  -3  -8 4969.48 191.051  14
  -2   3   8 5035.91 174.346   2
  -2   3   8 4760.50 169.426  27
   2  -3  -8 4979.85 176.065  18
  -2   3   8 4593.78 157.167  12
  -2   3   7 270.335 127.078   5
  -2   3   7 311.724 47.9869  41
   2  -3  -7 213.601 43.5985  10
  -2   3   7 305.320 43.6164   2
   2  -3  -7 297.899 44.5074  18
   2  -3  -7 188.559 105.955  38
  -2   3   7 131.567 92.8254  36
  -2   3   7 314.344 45.9145  16
   2  -3  -7 361.777 53.6075  15
   2  -3  -7 306.206 50.7295  14
  -2   3   7 316.132 42.9314  27
   2  -3  -7 319.995 181.899   4
  -2   3   7 367.950 62.4738  12
   2  -3  -6 681.673 60.3338   3
  -2   3   6 727.542 64.6680  16
   2  -3  -6 676.127 178.842  38
  -2   3   6 772.567 222.167  36
   2  -3  -6 651.110 69.9208  15
   2  -3  -6 674.184 65.5051  14
  -2   3   6 720.832 60.7883   2
  -2   3   6 682.086 58.2039  27
   2  -3  -6 730.456 222.892   4
   2  -3  -6 633.755 67.4550  10
  -2   3   6 719.185 62.2374  12
   2  -3  -6 763.394 63.6921  20
  -2   3   6 633.061 189.964   5
   2  -3  -6 675.798 62.7339  18
   2  -3  -5 6754.54 490.853  38
   2  -3  -5 7458.34 198.837  20
  -2   3   5 8204.35 651.128   5
  -2   3   5 7228.73 197.664  16
   2  -3  -5 7603.51 211.020  14
  -2   3   5 8332.47 652.479  36
   2  -3  -5 8333.60 697.267   4
   2  -3  -5 7485.58 210.495  18
  -2   3   5 7776.08 189.774   2
   2  -3  -5 7411.80 223.097  15
   2  -3  -5 7599.72 221.823  10
   2  -3  -5 7581.43 197.693   3
   2  -3  -4 997.753 78.0070  10
   2  -3  -4 817.554 168.989  38
  -2   3   4 1147.08 233.154  36
  -2   3   4 1138.95 245.793   5
   2  -3  -4 1058.24 79.7546  15
   2  -3  -4 988.357 248.564   4
   2  -3  -4 1005.38 70.7409   3
   2  -3  -3 2882.37 299.079  38
  -2   3   3 3776.42 434.819   5
   2  -3  -3 3759.46 447.894   4
  -2   3   3 3633.72 422.585  36
   2  -3  -3 3324.67 126.426   3
  -2   3   2 3606.22 420.211  36
   2  -3  -2 2868.16 277.054  38
  -2   3   2 3706.95 430.138   5
   2  -3  -2 3895.67 454.363   4
   2  -3  -2 3390.25 125.201   3
  -2   3   1 31365.4 1251.79   5
   2  -3  -1 31285.2 1267.05   4
  -2   3   1 31401.6 1248.19  36
  -2   3   0 2977.13 384.739   5
   2  -3   0 3415.39 425.768   4
  -2   3  -1 12601.0 486.992  39
  -2   3  -1 12536.7 794.368   5
   2  -3   1 13412.7 827.860   4
   2  -3   1 12590.5 249.394   3
  -2   3  -2 1280.60 170.870  39
  -2   3  -2 1234.02 261.296   5
   2  -3   2 1416.27 277.129   4
   2  -3   2 1160.04 72.8328   3
   2  -3   3 22.1008 96.4723   4
   2  -3   3 18.3751 20.4867   3
  -2   3  -3 3.14827 82.6872   5
  -2   3  -3 20.4170 51.9395  39
   2  -3   4 191.042 35.4443  23
   2  -3   4 204.105 32.4621   3
  -2   3  -4 154.382 123.664   5
   2  -3   4 191.356 32.6902  32
   2  -3   4 225.651 33.6748  31
   2  -3   4 204.498 35.3138  29
   2  -3   4 183.351 32.4695  21
  -2   3  -4 201.127 102.709  39
   2  -3   4 259.107 144.283   4
   2  -3   4 172.748 30.8984  24
   2  -3   5 14696.9 310.029  23
   2  -3   5 14118.7 269.842   3
   2  -3   5 14548.8 289.137  21
  -2   3  -5 15105.0 778.543  39
   2  -3   5 14670.6 258.726   9
  -2   3  -5 14141.6 879.025   5
   2  -3   5 14045.9 261.459  32
   2  -3   5 14444.0 258.638  31
   2  -3   5 14888.2 897.558   4
   2  -3   5 15058.3 261.934  30
   2  -3   5 14656.3 281.292  29
   2  -3   5 15037.5 243.852  25
   2  -3   5 14624.0 280.184  24
   2  -3   6 3701.05 151.210  23
   2  -3   6 3514.15 125.810   3
  -2   3  -6 3250.04 414.434   5
   2  -3   6 3673.59 142.864  21
   2  -3   6 3713.55 128.090   9
   2  -3   6 3475.19 129.611  32
   2  -3   6 3648.84 125.548  31
   2  -3   6 3610.14 436.261   4
   2  -3   6 3814.57 130.608  30
   2  -3   6 3580.37 137.816  29
  -2   3  -6 3661.46 402.773  39
   2  -3   6 3745.02 119.507  25
   2  -3   6 3518.29 134.790  24
   2  -3   7 1716.50 101.990  21
  -2   3  -7 1634.38 287.013  39
   2  -3   7 1709.25 90.2259   9
   2  -3   7 1547.80 87.5408  32
   2  -3   7 1572.84 87.2856  31
   2  -3   7 1716.17 89.7792  30
   2  -3   7 1560.41 95.6621  29
   2  -3   7 1649.99 81.6284  25
   2  -3   7 1633.47 95.4263  24
   2  -3   7 1618.52 102.317  23
   2  -3   8 1479.61 96.9990  21
   2  -3   8 1296.09 70.2981  33
   2  -3   8 1547.87 88.8434   9
   2  -3   8 1412.39 85.0044  31
   2  -3   8 1647.02 91.2108  30
   2  -3   8 1320.12 82.9372  32
   2  -3   8 1513.38 92.0092  29
  -2   3  -8 1546.71 311.401  39
   2  -3   8 1446.14 78.6671  25
   2  -3   8 1354.91 89.7924  24
   2  -3   8 1484.57 98.7291  23
   2  -3   9 606.150 63.2600  23
  -2   3  -9 487.408 200.732  39
   2  -3   9 636.856 60.2827   9
   2  -3   9 578.092 48.8454  33
   2  -3   9 687.277 59.6375  31
   2  -3   9 763.215 63.4687  30
   2  -3   9 660.964 64.3547  29
   2  -3   9 684.235 67.7736  21
   2  -3   9 687.327 55.9631  25
   2  -3   9 697.544 67.4479  24
   2  -3  10 108.869 38.6459  23
   2  -3  10 61.2434 31.9263   9
   2  -3  10 72.5872 23.0629  33
   2  -3  10 35.6209 24.5235  31
   2  -3  10 100.051 34.9326  30
   2  -3  10 39.1783 23.7511  29
   2  -3  10 16.7187 37.5338  21
   2  -3  10 83.8126 24.7257  25
   2  -3  10 85.0481 38.2293  24
   2  -3  11 37.4657 27.7466  23
   2  -3  11 26.4828 25.3102   9
   2  -3  11 57.1008 25.4779  31
   2  -3  11 36.4604 25.3204  30
   2  -3  11 37.0306 34.1740  21
   2  -3  11 42.3098 17.3413  33
   2  -3  11 47.6971 23.0902  25
   2  -3  11 63.9825 32.3536  24
   2  -3  12-11.9860 15.9524  33
   2  -3  12-39.3646 23.0863  31
   2  -3  12 40.4210 39.3522  21
   2  -3  12 35.3481 25.8464  30
   2  -3  12-0.97613 24.0529   9
   2  -3  12-17.7164 17.5612  25
   2  -3  12-67.1072 59.4553  24
   2  -3  13 180.170 24.7882  33
   2  -3  13 132.390 26.9080  31
   2  -3  13 123.740 28.5387  30
   2  -3  13 187.148 27.6605  25
   2  -3  14-8.85021 16.9238  30
   2  -3  14 5.67363 12.5728  25
  -2   2  15 714.992 57.6715   2
  -2   2  15 748.546 52.4587  11
  -2   2  15 698.930 46.8778  31
   2  -2 -15 668.013 56.6253  14
  -2   2  15 832.349 47.9880  28
  -2   2  15 713.916 50.5988  25
  -2   2  14 278.184 38.8925  11
  -2   2  14 268.132 41.2677   2
  -2   2  14 173.192 34.2961  41
  -2   2  14 233.032 34.4095  31
   2  -2 -14 228.219 40.6709  14
  -2   2  14 263.568 33.9003  28
  -2   2  14 251.075 36.4814  25
  -2   2  13 15.4321 30.4316  11
  -2   2  13 24.6622 29.2059  41
  -2   2  13 23.2637 22.5945   2
  -2   2  13 13.0132 15.7927  16
  -2   2  13 45.7796 28.7285  31
   2  -2 -13 10.4638 29.4186  14
  -2   2  13 2.82714 18.7183  28
  -2   2  13 14.2938 22.5411  25
  -2   2  12 177.404 43.1890  11
  -2   2  12 178.112 41.0070  41
   2  -2 -12 144.281 109.663  38
  -2   2  12 235.126 45.1735   2
  -2   2  12 233.660 38.7026  16
  -2   2  12 42.4367 92.8652  34
   2  -2 -12 204.366 45.6406  15
   2  -2 -12 157.816 39.9047  14
  -2   2  12 193.845 32.6058  28
  -2   2  12 219.649 43.7037  27
  -2   2  12 178.484 39.8914  25
  -2   2  11 205.643 43.5496  11
  -2   2  11 182.842 41.8507  41
  -2   2  11 291.973 50.1264   2
   2  -2 -11 199.824 127.790  38
  -2   2  11 268.397 44.5690  16
   2  -2 -11 216.951 46.3349  15
   2  -2 -11 179.831 49.7160  14
  -2   2  11 220.452 37.5331  28
  -2   2  11 199.056 41.0224  27
  -2   2  10 606.889 61.8580  28
  -2   2  10 759.744 73.2988  11
   2  -2 -10 823.999 226.984  38
  -2   2  10 821.771 72.3674  16
   2  -2 -10 769.179 80.8141  15
   2  -2 -10 745.195 80.8566  14
  -2   2  10 830.139 77.1234   2
  -2   2  10 779.282 74.1033  27
  -2   2  10 715.909 71.8160  41
  -2   2   9 994.203 79.2909  11
   2  -2  -9 736.542 213.464  38
   2  -2  -9 669.891 195.019  37
  -2   2   9 956.417 77.3961  16
   2  -2  -9 946.428 88.1165  15
   2  -2  -9 953.782 89.0619  14
  -2   2   9 984.050 82.5249   2
  -2   2   9 823.648 68.7809  28
  -2   2   9 932.341 77.8425  27
  -2   2   9 887.381 75.6353  41
  -2   2   9 930.330 71.2053  12
   2  -2  -8 1080.13 246.573  37
  -2   2   8 1275.47 87.5824  41
   2  -2  -8 1245.10 257.109  38
  -2   2   8 1271.69 85.8079  16
   2  -2  -8 1326.66 100.890  15
   2  -2  -8 1179.53 92.4503  14
  -2   2   8 1327.10 91.5653   2
  -2   2   8 1125.31 72.9356  28
  -2   2   8 1192.04 84.2844  27
   2  -2  -8 1209.98 88.7157  10
  -2   2   8 1104.00 76.6429  12
   2  -2  -7 449.923 55.1525  10
  -2   2   7 435.060 51.8835   2
   2  -2  -7 435.069 51.4582  18
  -2   2   7 412.644 49.3178  41
   2  -2  -7 438.355 132.887  38
   2  -2  -7 348.093 150.117  37
  -2   2   7 442.650 51.4521  16
  -2   2   7 264.506 111.843  36
  -2   2   7 308.767 115.050   5
   2  -2  -7 366.214 53.2291  14
   2  -2  -7 383.705 54.5533  15
  -2   2   7 426.990 50.0961  27
  -2   2   7 368.191 45.7197  12
  -2   2   6 7569.56 563.272  36
   2  -2  -6 7487.40 214.801  10
  -2   2   6 7691.72 202.110  41
   2  -2  -6 7179.17 509.149  38
   2  -2  -6 7119.67 567.417  37
  -2   2   6 7694.18 201.848  16
   2  -2  -6 7545.36 223.461  15
   2  -2  -6 8359.76 638.328   4
  -2   2   6 7857.89 207.158   2
   2  -2  -6 6951.20 208.561  14
  -2   2   6 7761.58 194.653  27
  -2   2   6 7538.62 197.076  12
  -2   2   6 7662.76 582.996   5
   2  -2  -6 7542.78 186.066   3
  -2   2   5 2820.64 100.434  42
  -2   2   5 3153.49 380.648   5
   2  -2  -5 2878.85 295.535  38
   2  -2  -5 2590.95 326.063  37
  -2   2   5 3067.68 359.527  36
   2  -2  -5 3271.95 405.914   4
  -2   2   5 2841.58 117.636   2
   2  -2  -4 100.576 71.4224  38
   2  -2  -4 68.0205 65.3681  37
  -2   2   4 66.7435 73.0272  36
  -2   2   4 155.722 113.324   5
  -2   2   4 65.2810 21.2997  42
   2  -2  -4 54.2720 90.1005   4
   2  -2  -3 4469.18 325.940  38
  -2   2   3 4576.91 441.220   5
   2  -2  -3 4362.93 395.305  37
  -2   2   3 4616.35 440.689  36
   2  -2  -3 5003.29 485.364   4
   2  -2  -2 3725.50 356.313  37
  -2   2   2 3919.03 309.236  39
   2  -2  -2 4092.73 291.967  38
  -2   2   2 4604.98 439.726   5
   2  -2  -2 4497.65 454.620   4
  -2   2   2 4199.15 418.334  36
   2  -2  -1-24.5614 39.6446  38
   2  -2  -1 32.9336 80.2510  37
  -2   2   1 26.5888 63.1767   5
   2  -2  -1-5.85308 80.2798   4
  -2   2   1 49.4797 52.8692  39
  -2   2   0 33671.6 1197.60   5
   2  -2   0 36941.9 1281.21   4
  -2   2   0 34068.9 866.545  39
  -2   2  -1 49737.7 1100.73  39
  -2   2  -1 49114.2 1464.68   5
   2  -2   1 50895.1 1516.78   4
  -2   2  -2 321.333 150.979   5
  -2   2  -2 219.132 71.2152  39
   2  -2   2 253.461 119.850   4
  -2   2  -3 10147.2 541.940  39
  -2   2  -3 9317.42 636.619   5
   2  -2   3 10745.6 689.014   4
  -2   2  -4 62.7054 70.0727  39
  -2   2  -4-22.7287 79.2929   5
   2  -2   4-26.7428 66.1703   4
   2  -2   5 419.142 49.3828  23
   2  -2   5 459.903 51.2426  21
  -2   2  -5 553.537 151.726  39
  -2   2  -5 378.941 133.718   5
   2  -2   5 393.702 143.415   4
   2  -2   6 1207.60 81.5525  21
   2  -2   6 1154.31 231.784   4
  -2   2  -6 1189.25 232.656  39
   2  -2   6 1130.81 68.4329   9
  -2   2  -6 930.071 205.229   5
   2  -2   6 1065.25 64.4166  31
   2  -2   6 1144.06 69.4854  30
   2  -2   6 1023.32 71.1564  29
   2  -2   6 1099.39 71.4077  24
   2  -2   6 1026.19 65.1741   3
   2  -2   6 1205.95 84.1493  23
   2  -2   7 349.149 48.8880  23
  -2   2  -7 410.263 156.208  39
   2  -2   7 417.946 48.5943  30
   2  -2   7 360.894 41.5747  31
   2  -2   7 381.140 43.6653   9
   2  -2   7 351.370 50.2454  21
   2  -2   7 328.952 47.7837  29
   2  -2   7 391.841 40.3630  25
   2  -2   7 341.045 45.1410  24
   2  -2   8 4156.85 151.906  21
   2  -2   8 4339.45 131.908  25
   2  -2   8 4031.61 135.286  31
  -2   2  -8 4218.06 495.814  39
   2  -2   8 4292.15 146.631   9
   2  -2   8 4378.74 151.905  30
   2  -2   8 3750.57 143.653  29
   2  -2   8 3911.93 126.119  33
   2  -2   8 3995.86 148.330  24
   2  -2   8 4299.87 134.596  11
   2  -2   8 4060.19 158.956  23
   2  -2   9 1312.12 89.7331  21
  -2   2  -9 1213.70 296.068  39
   2  -2   9 1416.62 88.6446   9
   2  -2   9 1197.84 76.1217  31
   2  -2   9 1405.30 88.0222  30
   2  -2   9 1176.89 83.4606  29
   2  -2   9 1331.51 76.3506  25
   2  -2   9 1268.62 88.4064  24
   2  -2   9 1236.24 74.6583  33
   2  -2   9 1413.50 79.3218  11
   2  -2   9 1235.33 92.0705  23
   2  -2  10 29.4684 28.2119  23
  -2   2 -10-64.9088 84.8509  39
   2  -2  10 66.9298 32.5554   9
   2  -2  10 58.9348 24.2070  33
   2  -2  10 58.6477 35.4024  21
   2  -2  10 11.4094 21.4390  31
   2  -2  10 84.6664 34.7048  30
   2  -2  10 72.2637 24.5394  25
   2  -2  10 82.1723 37.6150  24
   2  -2  11 1794.72 108.550  21
  -2   2 -11 1734.61 379.912  39
   2  -2  11 1972.34 103.916   9
   2  -2  11 1599.05 84.5495  33
   2  -2  11 1687.31 88.8541  31
   2  -2  11 2006.21 106.891  30
   2  -2  11 1780.21 88.7034  25
   2  -2  11 1671.34 101.787  24
   2  -2  11 1663.36 103.070  23
   2  -2  12 4237.00 162.873  21
  -2   2 -12 3464.04 547.992  39
   2  -2  12 4156.91 150.159   9
   2  -2  12 3756.08 125.615  33
   2  -2  12 3814.92 129.828  31
   2  -2  12 4011.53 148.682  30
   2  -2  12 3375.51 121.713  24
   2  -2  12 3971.92 129.201  25
   2  -2  12 3825.99 147.781  23
   2  -2  13 83.0401 32.2678   9
   2  -2  13 95.8747 25.6187  33
   2  -2  13 97.9742 23.3103  31
   2  -2  13 115.255 44.3398  21
   2  -2  13 46.2381 27.1215  30
   2  -2  13 89.5431 25.3251  25
   2  -2  14 151.534 27.8315   9
   2  -2  14 213.546 27.2528  33
   2  -2  14 114.994 26.2914  30
   2  -2  14 188.764 39.6242  21
   2  -2  14 147.543 24.9977  25
   2  -2  15 73.1343 14.9056  33
   2  -2  15 76.6233 18.4870  30
   2  -2  15 67.6425 15.6325  25
  -2   1  15 145.713 27.8249  11
   2  -1 -15 156.347 28.1676  14
  -2   1  15 167.950 29.5326   2
  -2   1  15 94.7514 20.9451  31
  -2   1  15 152.425 23.7412  28
  -2   1  15 119.434 21.2724  25
  -2   1  14 1899.84 91.7223  11
  -2   1  14 1793.14 89.7475  31
   2  -1 -14 1780.66 96.5830  14
  -2   1  14 1920.63 83.7188  28
  -2   1  14 1759.99 84.5547  25
  -2   1  14 1882.99 98.7984   2
  -2   1  13 358.366 50.6185   2
  -2   1  13 314.795 49.9648  11
  -2   1  13 288.975 44.6177  41
  -2   1  13 350.815 51.6643  31
   2  -1 -13 314.051 50.7682  14
  -2   1  13 320.852 40.6934  28
  -2   1  13 294.384 41.5173  25
  -2   1  12 2253.45 117.113  11
  -2   1  12 2091.35 116.633  41
   2  -1 -12 1910.29 367.074  38
  -2   1  12 1732.96 348.674  34
  -2   1  12 2263.90 120.537  31
   2  -1 -12 2290.30 130.813  14
  -2   1  12 2443.99 107.987  28
  -2   1  12 2617.50 132.514   2
  -2   1  12 2116.53 110.673  25
  -2   1  12 2295.85 104.898  16
  -2   1  11 239.339 45.7697  11
  -2   1  11 184.555 40.9739  41
   2  -1 -11 366.761 161.351  38
  -2   1  11 161.768 33.6852  16
  -2   1  11 193.548 155.843  34
   2  -1 -11 222.968 48.7915  14
  -2   1  11 244.165 38.5528  28
  -2   1  11 252.209 46.3985   2
  -2   1  11 199.183 38.9792  25
  -2   1  10 55.4028 31.8708  11
  -2   1  10 11.9967 27.9723  41
  -2   1  10 7.93239 28.4642   2
  -2   1  10 33.9280 25.1416  16
   2  -1 -10 8.23957 31.6113  14
  -2   1  10-12.2270 23.0749  28
  -2   1  10 0.68651 23.8964  27
  -2   1  10 12.4246 23.6401  12
  -2   1   9 284.710 47.6117  11
  -2   1   9 262.658 49.5789   2
  -2   1   9 228.376 42.3892  41
   2  -1  -9 280.288 115.021  37
  -2   1   9 285.919 43.3051  16
   2  -1  -9 286.009 50.4584  15
   2  -1  -9 241.042 47.4766  14
  -2   1   9 298.941 43.6284  28
  -2   1   9 260.595 45.3598  27
   2  -1  -9 113.779 89.1892  38
  -2   1   9 241.104 38.3988  12
  -2   1   8 409.712 52.7919  11
  -2   1   8 347.737 46.2437  41
   2  -1  -8 364.136 131.213  38
   2  -1  -8 362.461 159.962  37
  -2   1   8 434.159 53.5020  16
  -2   1   8 433.654 56.5460   2
   2  -1  -8 432.425 57.3335  15
   2  -1  -8 395.097 58.9719  14
  -2   1   8 400.625 46.9270  28
  -2   1   8 301.111 43.6478  27
  -2   1   8 404.447 49.8358  12
  -2   1   7 7557.20 201.423  11
  -2   1   7 7521.08 200.202  42
   2  -1  -7 7853.50 574.263  38
   2  -1  -7 7405.35 593.957  37
  -2   1   7 8000.01 208.446  16
   2  -1  -7 7828.20 227.090  15
  -2   1   7 7808.48 219.069   2
   2  -1  -7 7495.19 224.066  14
  -2   1   7 7346.30 183.656  28
  -2   1   7 7549.83 202.041  27
  -2   1   7 7704.06 196.324  41
  -2   1   7 7697.79 201.835  12
  -2   1   6 125.784 28.1844  42
   2  -1  -6 26.4270 83.3365   4
  -2   1   6 163.035 32.0645  41
  -2   1   6 230.288 108.936  36
  -2   1   6 97.9170 98.2889   5
  -2   1   6 151.272 28.4793  16
   2  -1  -6 157.367 36.3150  14
   2  -1  -6 180.163 92.2676  38
  -2   1   6 119.967 25.3240  27
   2  -1  -6 159.219 103.777  37
  -2   1   6 189.360 34.6174  12
  -2   1   5 18912.0 300.515  41
  -2   1   5 19547.2 894.712   5
   2  -1  -5 19065.1 756.535  38
   2  -1  -5 20364.9 971.141   4
  -2   1   5 18306.6 296.856  42
  -2   1   5 19370.9 771.395  36
  -2   1   4 8689.35 525.329  36
  -2   1   4 8766.00 183.992  41
   2  -1  -4 8443.15 182.721  40
   2  -1  -4 8810.42 469.687  38
  -2   1   4 8387.97 180.838  42
   2  -1  -4 8302.35 544.426  37
   2  -1  -4 9396.18 644.977   4
  -2   1   4 9097.67 594.351   5
   2  -1  -3 336.822 119.674  37
   2  -1  -3 199.701 30.2736  40
   2  -1  -3 288.584 86.1670  38
  -2   1   3 302.642 116.088  36
  -2   1   3 192.427 114.861   5
   2  -1  -3 184.489 110.898   4
  -2   1   3 219.753 29.4594  42
  -2   1   2 10336.2 617.564   5
   2  -1  -2 9773.87 409.917  38
  -2   1   2 9783.34 520.405  39
   2  -1  -2 10152.0 640.019   4
   2  -1  -2 9996.04 542.403  37
   2  -1  -2 9405.43 187.312  40
  -2   1   2 8957.25 169.408  42
   2  -1  -1 4632.30 358.642  37
   2  -1  -1 4035.28 117.452  40
  -2   1   1 4096.91 385.396   5
   2  -1  -1 4137.99 239.451  38
   2  -1  -1 4261.15 406.068   4
  -2   1   1 4095.26 318.872  39
  -2   1   0 21601.4 717.112  39
  -2   1   0 21558.6 888.073   5
   2  -1   0 23117.8 796.832  37
   2  -1   0 20923.5 900.521   4
   2  -1   0 19636.5 280.818  40
   2  -1   1 17088.2 257.968  40
  -2   1  -1 19348.6 675.347  39
  -2   1  -1 16937.5 792.303   5
   2  -1   1 19149.5 719.529  37
   2  -1   1 17688.7 823.544   4
   2  -1   2 35694.4 411.917  40
   2  -1   2 37343.4 1216.57   4
  -2   1  -2 38396.8 999.713  39
  -2   1  -2 35651.1 1171.39   5
   2  -1   3 7409.52 544.805   4
   2  -1   3 7096.90 157.919  40
  -2   1  -3 7676.51 466.919  39
  -2   1  -3 7426.83 531.716   5
   2  -1   4 611.175 46.0303  40
  -2   1  -4 674.749 146.167  39
  -2   1  -4 622.373 175.597   5
   2  -1   4 590.297 173.666   4
  -2   1  -5 387.606 137.489   5
  -2   1  -5 357.396 131.354  39
   2  -1   5 340.023 132.952   4
  -2   1  -6 5435.75 467.147  39
  -2   1  -6 4177.91 420.421   5
   2  -1   6 4459.89 433.957   4
   2  -1   7 39.9076 27.8422  23
   2  -1   7 30.3654 26.9592  21
   2  -1   7 17.7619 18.1255   9
  -2   1  -7 99.6522 91.5755   5
   2  -1   7 46.9493 22.7947  30
   2  -1   7 24.5380 27.5804  13
   2  -1   7 15.7936 63.1231   4
   2  -1   7 38.7568 24.1071  24
   2  -1   8 6895.53 185.811  22
   2  -1   8 7267.22 201.874  21
  -2   1  -8 8022.03 667.586  39
   2  -1   8 7796.07 199.190   9
   2  -1   8 7625.03 172.524  25
   2  -1   8 7306.31 170.614  31
   2  -1   8 7690.41 201.175  30
   2  -1   8 7665.45 549.894  34
   2  -1   8 6859.55 173.448  33
   2  -1   8 7466.08 193.797  24
   2  -1   8 7297.10 212.707  23
   2  -1   8 7504.83 170.985  11
   2  -1   9 7940.41 207.587  22
   2  -1   9 8477.13 225.687  21
  -2   1  -9 9597.69 779.420  39
   2  -1   9 8918.57 223.930   9
   2  -1   9 8593.27 610.045  34
   2  -1   9 8399.85 191.549  31
   2  -1   9 8917.78 224.144  30
   2  -1   9 7976.67 197.817  33
   2  -1   9 8554.08 192.118  25
   2  -1   9 8327.06 216.948  24
   2  -1   9 8256.06 233.747  23
   2  -1   9 8731.36 193.889  11
   2  -1  10 226.286 52.3118  23
   2  -1  10 250.696 37.0164  11
   2  -1  10 228.482 35.6444  22
   2  -1  10 230.820 50.5747  21
  -2   1 -10 311.721 175.398  39
   2  -1  10 210.360 130.307  34
   2  -1  10 194.734 36.4942  33
   2  -1  10 188.974 31.5853  31
   2  -1  10 195.619 37.6219  30
   2  -1  10 244.783 41.1569  25
   2  -1  10 197.264 41.9224  24
   2  -1  10 201.248 39.1741   9
   2  -1  11 1323.74 86.4556  22
   2  -1  11 1303.47 98.8142  21
  -2   1 -11 1588.98 344.231  39
   2  -1  11 1489.31 94.1968   9
   2  -1  11 1275.78 78.5038  31
   2  -1  11 1308.84 92.2170  30
   2  -1  11 1233.14 80.8805  33
   2  -1  11 1278.28 77.1438  25
   2  -1  11 1227.69 97.0100  23
   2  -1  11 1322.47 79.0516  11
   2  -1  12 47.8899 38.3486  23
   2  -1  12 95.4439 26.2761  11
  -2   1 -12 66.9363 93.3820  39
   2  -1  12 67.5904 27.4716  33
   2  -1  12 56.6668 24.4247  31
   2  -1  12 122.306 39.7086   9
   2  -1  12 89.3469 34.5745  30
   2  -1  12 78.3573 23.1677  25
   2  -1  12 27.3289 40.2834  21
   2  -1  13 1773.65 106.683  21
   2  -1  13 1658.37 97.3005   9
   2  -1  13 1511.19 84.2573  33
   2  -1  13 1448.62 93.0397  30
   2  -1  13 1572.76 79.3405  25
   2  -1  13 1504.22 93.0786  23
   2  -1  14 1143.61 83.9798  21
   2  -1  14 1002.07 70.8966   9
   2  -1  14 1000.36 62.0648  33
   2  -1  14 996.170 70.0923  30
   2  -1  14 1034.46 59.5776  25
   2  -1  15 395.376 42.2499   9
   2  -1  15 377.413 34.0705  33
   2  -1  15 392.870 40.5614  30
   2  -1  15 369.075 31.9045  25
   2  -1  16 81.2670 14.9294  33
   2  -1  16 132.206 20.1465  30
  -2   0  15 839.587 51.1289  11
  -2   0  15 875.611 50.7374  31
  -2   0  15 914.678 48.6326  28
  -2   0  15 721.906 41.6082  25
  -2   0  14 171.978 33.4113  11
  -2   0  14 210.036 35.3994   2
  -2   0  14 182.671 32.3555  31
  -2   0  14 159.918 27.9388  28
  -2   0  14 166.327 26.0405  26
  -2   0  14 146.545 26.6809  25
  -2   0  13 235.969 41.7374  11
  -2   0  13 194.832 34.8613  41
  -2   0  13 222.300 40.4630   2
  -2   0  13 244.015 44.7036  31
   2   0 -13 240.565 41.7463  14
  -2   0  13 298.877 38.5368  28
  -2   0  13 186.622 32.8824  25
  -2   0  12 178.460 43.1198  11
  -2   0  12 111.241 33.2932  41
  -2   0  12 207.764 44.2140   2
  -2   0  12 156.195 40.7277  31
   2   0 -12 162.206 38.2332  14
  -2   0  12 256.693 42.3327  28
  -2   0  12 191.407 37.4911  25
  -2   0  11 5150.23 177.484  11
  -2   0  11 4291.32 165.095  41
   2   0 -11 3944.97 518.180  38
  -2   0  11 4013.32 544.450  34
  -2   0  11 5186.57 178.674  31
   2   0 -11 4819.45 185.559  14
  -2   0  11 5316.92 194.690   2
  -2   0  11 5350.29 165.811  28
  -2   0  11 4710.45 160.938  25
  -2   0  10 627.161 67.2049  11
  -2   0  10 495.534 59.6446  41
   2   0 -10 347.063 148.519  38
  -2   0  10 594.425 57.3150  16
  -2   0  10 590.294 231.954  34
   2   0 -10 561.501 65.2131  14
  -2   0  10 632.508 74.1103   2
  -2   0  10 599.599 57.9940  28
  -2   0  10 521.395 56.6385  25
  -2   0  10 472.449 54.0690  12
  -2   0   9-11.9353 25.2580  11
  -2   0   9 44.2698 33.7198   2
  -2   0   9 13.9268 21.0878  41
   2   0  -9 49.7569 90.3231  38
   2   0  -9 23.0559 118.103  37
  -2   0   9-10.1466 22.2200  16
   2   0  -9 37.5194 31.9114  14
  -2   0   9 36.7166 26.0394  28
  -2   0   9 29.6119 24.8511  25
  -2   0   9 9.28134 26.4008  12
  -2   0   8 119.675 33.0190  11
  -2   0   8 114.840 36.4775   2
  -2   0   8 130.885 32.2222  41
   2   0  -8 200.985 109.590  38
   2   0  -8 163.278 109.017  37
  -2   0   8 164.019 32.5281  16
   2   0  -8 84.5452 25.3378  14
  -2   0   8 147.533 28.2954  28
  -2   0   8 159.116 37.5702  12
  -2   0   7 1352.21 82.1577  11
  -2   0   7 1380.45 88.1264  42
  -2   0   7 1365.09 79.9868  41
   2   0  -7 1471.87 267.853  38
  -2   0   7 1442.06 86.4260  16
  -2   0   7 1461.57 95.9842   2
   2   0  -7 1356.02 92.6123  14
  -2   0   7 1333.36 77.5576  28
  -2   0   7 1288.49 83.3853  27
   2   0  -7 1313.44 255.554  37
  -2   0   7 1421.23 89.0625  12
  -2   0   6 2003.16 94.0335  11
  -2   0   6 1692.55 252.804   5
   2   0  -6 2125.69 288.015  38
   2   0  -6 2090.99 296.069  37
  -2   0   6 1962.99 97.0554  16
   2   0  -6 1950.33 289.566   4
   2   0  -6 1884.05 103.750  14
  -2   0   6 1994.96 99.5582  42
  -2   0   6 2055.82 88.4178  28
  -2   0   6 1947.87 96.1522  27
  -2   0   6 2077.63 101.195  12
  -2   0   6 1924.57 87.4631  41
   2   0  -5 5413.81 139.980  40
  -2   0   5 5037.05 441.612   5
   2   0  -5 5428.46 414.836  38
   2   0  -5 5068.44 444.005  37
   2   0  -5 5783.24 506.499   4
  -2   0   5 5284.11 153.643  42
  -2   0   5 5121.06 134.967  41
   2   0  -4 74513.1 1677.62  37
  -2   0   4 74623.8 733.322  42
   2   0  -4 76060.9 718.392  40
  -2   0   4 77904.2 1826.64   5
  -2   0   4 77620.9 1411.13  36
   2   0  -4 79271.0 1924.04   4
   2   0  -4 82469.4 1541.11  38
  -2   0   3 1722.08 258.750   5
  -2   0   3 1651.05 238.293  39
   2   0  -3 1670.50 190.177  38
   2   0  -3 1544.77 220.992  37
  -2   0   3 1527.71 200.802  36
  -2   0   3 1585.40 73.5429  42
   2   0  -3 1595.78 74.6938  40
   2   0  -2 1186.14 62.9070  40
  -2   0   2 1434.20 231.161   5
   2   0  -2 1271.21 193.282  37
   2   0  -2 1237.47 146.982  38
  -2   0   2 1319.67 65.6622  42
  -2   0   2 1134.32 196.487  39
   2   0  -1 509.015 41.4762  40
  -2   0   1 662.300 149.286  39
   2   0  -1 528.541 117.477  37
  -2   0   1 443.367 111.109   5
  -2   0   1 545.894 40.9368  42
   2   0  -1 516.225 85.3075  38
  -2   0   0 7008.96 489.817   5
   2   0   0 6390.55 145.167  40
  -2   0   0 7251.31 428.008  39
   2   0   0 6300.76 237.797  38
   2   0   0 7262.13 424.414  37
  -2   0   0 6645.31 140.616  42
   2   0   1 18286.7 670.313  37
   2   0   1 17010.2 250.976  40
  -2   0  -1 18288.6 680.941  39
  -2   0  -1 16503.1 756.286   5
  -2   0  -2 1721.23 209.656  39
   2   0   2 1775.31 207.266  37
  -2   0  -2 1718.80 250.515   5
   2   0   2 1509.87 68.0615  40
   2   0   3 3104.87 98.6840  40
  -2   0  -3 2969.64 336.122   5
   2   0   3 3472.23 278.945  37
  -2   0  -3 3455.42 314.574  39
   2   0   4 11080.8 196.697  40
  -2   0  -4 12111.7 609.496  39
  -2   0  -4 11426.4 657.809   5
  -2   0  -5 2064.22 287.728   5
  -2   0  -5 2403.91 287.461  39
   2   0   5 2120.13 291.337   4
   2   0   5 2064.87 81.0679  40
  -2   0  -6 20013.0 919.543   5
  -2   0  -6 22355.8 942.234  39
   2   0   6 20012.8 900.495   4
   2   0   6 20246.9 285.303  40
   2   0   7 15270.4 280.550  21
   2   0   7 16062.1 271.127  41
   2   0   7 14539.5 744.787   4
  -2   0  -7 15277.6 791.022   5
   2   0   7 15988.7 281.637  30
   2   0   7 15706.0 286.251  13
   2   0   7 15911.5 304.580  23
   2   0   8 6007.88 175.384  22
   2   0   8 5944.25 175.892  21
   2   0   8 6529.17 175.555  41
  -2   0  -8 6785.29 588.029  39
   2   0   8 6574.45 180.970   9
   2   0   8 6342.51 179.389  30
   2   0   8 6253.56 184.434  13
   2   0   8 6246.78 167.637  24
   2   0   8 6109.67 190.945  23
   2   0   9 3610.82 142.004  22
   2   0   9 3727.72 146.086  21
   2   0   9 3676.57 139.303  41
  -2   0  -9 3912.41 486.306  39
   2   0   9 3791.49 144.180   9
   2   0   9 3628.28 363.578  34
   2   0   9 3308.71 126.986  33
   2   0   9 3712.95 144.251  30
   2   0   9 3502.29 119.565  25
   2   0   9 3727.31 137.343  24
   2   0   9 3490.23 150.775  23
   2   0  10 215.502 52.5820  23
   2   0  10 184.753 38.5504  22
   2   0  10 137.117 38.3400  41
  -2   0 -10 255.631 125.389  39
   2   0  10 169.891 34.7656   9
   2   0  10 151.820 34.0570  33
   2   0  10 160.349 38.6029  30
   2   0  10 187.178 42.4704  21
   2   0  10 168.766 33.4982  25
   2   0  10 142.517 28.0621  24
   2   0  11 1230.17 87.5656  22
   2   0  11 1238.36 94.4689  21
  -2   0 -11 1277.60 312.508  39
   2   0  11 1319.82 93.0173   9
   2   0  11 1173.94 82.9053  33
   2   0  11 1213.82 90.7401  30
   2   0  11 1138.13 74.1555  25
   2   0  11 1157.74 98.5604  23
   2   0  12 147.932 49.2754  23
   2   0  12 93.1788 38.0794   9
   2   0  12 4.25619 23.6184  22
  -2   0 -12 60.6666 130.921  39
   2   0  12 40.3000 25.1666  33
   2   0  12 40.8333 33.5297  30
   2   0  12 55.9919 41.3521  21
   2   0  12 38.4281 23.2745  25
   2   0  13 3036.16 147.422  21
  -2   0 -13 2895.42 499.959  39
   2   0  13 3181.03 141.101   9
   2   0  13 3098.80 128.117  33
   2   0  13 2919.58 137.010  30
   2   0  13 2654.01 112.050  28
   2   0  13 3034.70 114.837  25
   2   0  13 2855.52 135.790  23
   2   0  14 1003.84 82.7296  21
   2   0  14 1017.91 84.0006   9
   2   0  14 1032.01 68.9135  33
   2   0  14 938.683 74.5453  30
   2   0  14 798.942 57.5492  28
   2   0  14 973.933 60.9302  25
   2   0  14 946.617 72.1049  23
   2   0  15 1304.98 76.6660   9
   2   0  15 1234.25 68.7621  33
   2   0  15 1292.10 73.6695  30
   2   0  15 1236.29 59.7117  25
   2   0  16 199.950 28.8932   9
   2   0  16 214.650 26.0200  33
   2   0  16 161.744 24.4725  30
  -2  -1  14 2.93844 17.5646  11
  -2  -1  14 14.6534 18.7219   2
  -2  -1  14 25.6340 20.1177  31
  -2  -1  14 27.2261 18.6033  28
  -2  -1  14 13.7052 15.0186  25
  -2  -1  13 1457.28 83.3627  11
  -2  -1  13 1554.74 89.1737  31
  -2  -1  13 1519.72 79.1652  28
  -2  -1  13 1416.69 75.0590  26
  -2  -1  13 1440.09 86.8006   2
  -2  -1  13 1349.17 72.2591  25
  -2  -1  12 342.587 46.4136  11
  -2  -1  12 341.926 34.5067  33
  -2  -1  12 249.403 39.5220  32
  -2  -1  12 325.004 51.0520  31
  -2  -1  12 338.059 49.5760   2
  -2  -1  12 358.869 43.2466  28
  -2  -1  12 336.387 43.7618  25
  -2  -1  11-4.42549 27.0406  11
  -2  -1  11-20.8149 19.4488  41
   2   1 -11 3.80690 89.9986  38
  -2  -1  11-2.34324 15.9929  33
  -2  -1  11 7.96574 32.8603  31
  -2  -1  11-5.03340 24.6611   2
  -2  -1  11 1.22280 23.1228  28
  -2  -1  11 23.6012 22.5648  25
  -2  -1  11 4.96592 20.4830  12
  -2  -1  10 5807.93 184.866  11
  -2  -1  10 4622.68 167.375  41
   2   1 -10 5657.72 620.805  38
  -2  -1  10 4642.38 577.949  34
  -2  -1  10 5890.10 152.893  33
   2   1 -10 5322.49 188.143  14
  -2  -1  10 6038.31 207.433   2
  -2  -1  10 5639.60 184.926  31
  -2  -1  10 5886.43 177.325  28
  -2  -1  10 5247.71 179.241  12
  -2  -1  10 5315.70 166.970  25
  -2  -1   9 1987.68 105.412  11
  -2  -1   9 1702.49 100.008  41
   2   1  -9 2111.46 367.367  38
  -2  -1   9 1986.78 101.799  16
  -2  -1   9 1778.72 352.767  34
  -2  -1   9 2127.78 89.2602  33
   2   1  -9 1934.61 369.431  37
   2   1  -9 1949.71 113.328  14
  -2  -1   9 2224.90 125.887   2
  -2  -1   9 2156.77 104.202  28
  -2  -1   9 2076.54 114.938  12
  -2  -1   9 1926.67 97.4400  25
  -2  -1   8 718.992 62.6254  11
  -2  -1   8 698.481 61.3357  41
   2   1  -8 723.090 237.244  38
  -2  -1   8 745.416 63.4884  16
  -2  -1   8 702.433 226.063  34
  -2  -1   8 737.620 70.7348   2
   2   1  -8 725.965 72.5295  14
   2   1  -8 591.204 185.217  37
  -2  -1   8 779.970 62.9570  28
  -2  -1   8 774.314 69.7305  12
  -2  -1   8 679.567 56.9451  25
  -2  -1   7 9445.34 217.070  11
  -2  -1   7 9121.41 210.668  41
   2   1  -7 10052.1 727.032  38
   2   1  -7 9059.70 704.180  37
  -2  -1   7 9387.78 221.508  16
   2   1  -7 9272.72 242.340  14
  -2  -1   7 9713.08 214.601  28
  -2  -1   7 9900.53 243.454  42
  -2  -1   7 9525.78 240.449  12
  -2  -1   6 2002.54 91.5846  11
  -2  -1   6 2092.71 103.532  42
   2   1  -6 2120.64 305.277  38
  -2  -1   6 2081.09 97.9653  16
   2   1  -6 2023.87 108.510  14
   2   1  -6 2088.92 326.235  37
  -2  -1   6 2193.28 93.9910  28
  -2  -1   6 2122.84 107.573  12
   2   1  -5 8038.28 549.022  38
   2   1  -5 7482.97 571.041  37
  -2  -1   5 6709.95 524.313   5
  -2  -1   5 7888.12 197.082  42
  -2  -1   5 8099.01 200.879  12
  -2  -1   4 43.4210 25.5248  42
   2   1  -4 18.4629 15.8973  40
   2   1  -4 85.7529 71.6033  38
  -2  -1   4 108.220 87.0559   5
   2   1  -4-21.1788 77.9566  37
  -2  -1   3 706.636 52.6066  42
   2   1  -3 719.539 52.0569  40
   2   1  -3 761.591 143.959  38
   2   1  -3 685.901 152.157  37
  -2  -1   3 718.725 166.358   5
  -2  -1   3 606.887 97.0723  36
   2   1  -2 46118.9 499.541  40
   2   1  -2 52396.6 1443.14   1
  -2  -1   2 48244.9 1283.26  39
   2   1  -2 48213.9 1060.24  38
   2   1  -2 49526.5 1254.02  37
  -2  -1   2 46973.7 509.919  42
  -2  -1   2 49907.7 1396.94   5
   2   1  -1 5123.52 132.284  40
  -2  -1   1 5672.96 412.926  39
   2   1  -1 5202.47 296.575  38
   2   1  -1 5777.19 398.760  37
  -2  -1   1 5145.63 133.473  42
  -2  -1   1 5508.60 445.185   5
   2   1  -1 5649.49 460.876   1
  -2  -1   0 1471.27 206.792  39
   2   1   0 1390.55 130.654  38
   2   1   0 1356.45 189.661  37
  -2  -1   0 1354.13 236.861   5
   2   1   0 1367.33 67.1101  40
  -2  -1   0 1306.41 65.1818  42
   2   1   0 1354.29 217.316   1
   2   1   1 11242.9 640.195   1
   2   1   1 10538.8 191.634  40
  -2  -1  -1 10539.0 618.853   5
  -2  -1  -1 11190.6 554.759  39
   2   1   1 9441.12 280.531  38
   2   1   1 11494.7 522.535  37
   2   1   2 7898.07 536.518   1
   2   1   2 8037.09 164.235  40
   2   1   2 8874.03 440.662  37
  -2  -1  -2 8164.97 549.482   5
  -2  -1  -2 8455.67 480.826  39
   2   1   3 34563.2 394.255  40
  -2  -1  -3 37682.3 1056.73  39
   2   1   3 31997.1 901.248  37
   2   1   3 34726.1 936.511  35
  -2  -1  -3 35064.9 1164.25   5
   2   1   3 35441.3 1161.80   1
   2   1   4 1232.27 209.454   1
   2   1   4 1173.26 61.3599  40
  -2  -1  -4 1234.85 203.777  39
   2   1   4 1157.88 151.967  37
  -2  -1  -4 1053.39 202.608   5
   2   1   4 1356.07 209.620  35
  -2  -1  -5 119.280 82.3715   5
   2   1   5 206.274 112.966  35
  -2  -1  -5 247.902 113.932  39
   2   1   5 146.417 25.5852  40
   2   1   6 118.589 22.2507  41
  -2  -1  -6 106.337 81.1010  39
   2   1   6 95.4687 20.9916  40
  -2  -1  -6 132.538 84.5642   5
   2   1   7 151.869 35.0018  23
   2   1   7 156.607 25.9122  41
  -2  -1  -7 193.044 80.3760  39
  -2  -1  -7 129.134 97.8156   5
   2   1   7 191.754 34.0071  13
   2   1   8 6976.31 192.230  22
   2   1   8 6816.23 183.372  21
   2   1   8 6782.90 172.532  41
  -2  -1  -8 7004.40 594.328  39
   2   1   8 7253.08 190.809   9
   2   1   8 7324.35 199.051  13
   2   1   8 6929.05 203.002  23
   2   1   9 6243.07 192.553  22
   2   1   9 6248.64 184.795  21
   2   1   9 6242.46 176.733  41
  -2  -1  -9 6401.90 603.477  39
   2   1   9 6817.33 193.886   9
   2   1   9 5814.02 182.945  30
   2   1   9 6747.74 200.588  13
   2   1   9 6262.31 204.902  23
   2   1  10 2526.13 125.018  22
   2   1  10 2462.92 122.818  21
   2   1  10 2542.75 118.449  41
  -2  -1 -10 2153.58 379.203  39
   2   1  10 2591.65 123.423   9
   2   1  10 2179.07 119.535  30
   2   1  10 2375.43 136.680  23
   2   1  11 331.778 63.0410  23
   2   1  11 313.801 48.1821  22
   2   1  11 281.253 43.8561  41
  -2  -1 -11 433.307 175.213  39
   2   1  11 342.460 52.7616   9
   2   1  11 258.753 49.6936  30
   2   1  11 282.496 54.1523  21
   2   1  11 217.456 36.1261  25
   2   1  12 518.768 71.6242  23
   2   1  12 626.246 68.1976  22
   2   1  12 584.729 73.0773  21
   2   1  12 558.561 62.1585  41
  -2  -1 -12 736.901 241.109  39
   2   1  12 521.113 64.7994   9
   2   1  12 523.413 59.0043  33
   2   1  12 619.904 67.5614  30
   2   1  12 478.627 51.9640  25
   2   1  13 466.482 63.4971  23
   2   1  13 555.840 62.5080  22
  -2  -1 -13 242.448 151.261  39
   2   1  13 497.991 65.3788   9
   2   1  13 550.507 71.5053  21
   2   1  13 483.167 67.6488  33
   2   1  13 454.233 61.5844  30
   2   1  13 410.422 46.7931  25
   2   1  14 185.381 42.0167   9
   2   1  14 174.235 35.2607  33
   2   1  14 115.048 44.0875  30
   2   1  14 150.717 27.3799  25
   2   1  15 130.175 32.4071   9
   2   1  15 134.858 30.2775  33
   2   1  15 75.8712 26.0733  28
   2   1  16 15.7612 14.8197  33
   2   1  16 20.0132 20.5816   9
   2   1  16 24.7450 16.8390  30
  -2  -2  14-2.39596 17.0087  11
  -2  -2  14 56.5104 17.9559  31
  -2  -2  14 41.2771 15.9037  28
  -2  -2  13 17.5928 24.3428  11
  -2  -2  13 25.7420 15.2498  33
  -2  -2  13-16.6089 17.5879   2
  -2  -2  13-48.4016 25.5547  31
  -2  -2  13-3.17644 18.7418  28
  -2  -2  13-13.8976 15.1285  25
  -2  -2  12 305.676 40.6871  11
  -2  -2  12 318.534 42.7559   2
  -2  -2  12 316.840 32.4102  33
  -2  -2  12 277.316 37.6009  32
  -2  -2  12 301.999 46.2958  31
  -2  -2  12 356.113 42.1004  28
  -2  -2  12 281.057 36.7799  26
  -2  -2  12 267.380 35.6166  25
  -2  -2  11 1059.48 76.2631  11
  -2  -2  11 940.844 75.3409  32
  -2  -2  11 1030.52 61.9266  33
  -2  -2  11 1024.67 82.4356  31
  -2  -2  11 1075.89 83.2668   2
  -2  -2  11 1066.22 72.9234  28
  -2  -2  11 990.557 69.6279  26
  -2  -2  11 926.252 71.5111  12
  -2  -2  11 872.194 63.6385  25
  -2  -2  10 3373.67 136.445  11
   2   2 -10 3645.20 505.883  38
  -2  -2  10 3377.02 115.926  33
  -2  -2  10 3601.26 145.608  31
  -2  -2  10 3615.79 155.897   2
  -2  -2  10 3429.13 133.888  28
  -2  -2  10 3355.06 134.201  26
  -2  -2  10 3171.22 139.426  12
  -2  -2  10 3004.64 118.969  25
   2   2  -9 9117.19 786.765  38
  -2  -2   9 8119.13 760.567  34
  -2  -2   9 9607.71 202.356  33
  -2  -2   9 9092.77 232.236  31
  -2  -2   9 8926.67 252.572   2
  -2  -2   9 9137.58 223.566  28
  -2  -2   9 8759.47 239.457  12
  -2  -2   9 7427.72 191.368  25
   2   2  -9 6872.03 688.625  37
  -2  -2   8 3730.24 138.914  11
  -2  -2   8 3930.68 125.435  33
   2   2  -8 3715.74 502.339  38
   2   2  -8 3438.12 474.751  37
  -2  -2   8 3702.89 488.201  34
  -2  -2   8 3940.21 147.639  31
  -2  -2   8 4086.86 167.616   2
  -2  -2   8 3739.71 138.369  28
  -2  -2   8 4061.97 160.028  12
  -2  -2   8 3485.35 125.459  25
  -2  -2   7 914.613 65.8200  11
   2   2  -7 958.528 247.437  38
  -2  -2   7 1081.95 273.293  34
  -2  -2   7 994.385 61.5028  33
  -2  -2   7 941.210 77.3418  42
  -2  -2   7 947.016 68.5342  28
  -2  -2   7 890.483 73.0028  12
  -2  -2   7 830.365 65.9793  16
  -2  -2   6 39.4129 20.4774  11
  -2  -2   6 25.5458 18.0783  16
  -2  -2   6-100.390 87.2744  34
   2   2  -6 39.5148 87.6352  37
  -2  -2   6 0.53122 15.0756  33
  -2  -2   6 16.5821 21.8739  42
  -2  -2   6 4.73470 16.8392  28
  -2  -2   6-5.99625 27.7930  12
   2   2  -5 834.804 207.511  38
  -2  -2   5 839.092 62.6946  16
  -2  -2   5 934.801 60.8478  28
  -2  -2   5 983.545 71.4757  42
   2   2  -5 932.070 236.290  37
  -2  -2   5 955.085 72.8578  12
  -2  -2   4 6300.10 171.033  42
  -2  -2   4 5304.22 496.199   5
   2   2  -4 5563.52 153.558  40
   2   2  -4 5789.61 507.591  37
   2   2  -4 6193.87 532.928   1
  -2  -2   4 5714.47 146.172  28
  -2  -2   4 5808.67 170.746  12
   2   2  -3 14585.7 258.779  40
   2   2  -3 16413.8 854.548   1
  -2  -2   3 15512.3 829.348   5
   2   2  -3 15066.5 771.780  37
  -2  -2   3 16168.9 276.575  42
  -2  -2   2 1108.37 66.6438  42
   2   2  -2 1045.38 64.2109  40
  -2  -2   2 1192.38 218.032  39
   2   2  -2 1218.11 238.555   1
  -2  -2   2 1012.92 218.991   5
   2   2  -2 1029.18 201.005  37
   2   2  -1 3987.94 403.580   1
   2   2  -1 3372.24 112.701  40
  -2  -2   1 3910.82 119.882  42
  -2  -2   1 3862.12 405.592   5
  -2  -2   1 3844.76 365.096  39
   2   2  -1 3935.66 365.449  37
   2   2   0 2579.82 327.830   1
   2   2   0 2113.72 87.8789  40
  -2  -2   0 2209.47 315.623   5
  -2  -2   0 2647.35 301.270  39
   2   2   0 2405.24 264.451  37
  -2  -2   0 2299.69 91.4592  42
   2   2   1 11685.7 672.474   1
  -2  -2  -1 11358.6 207.101  42
  -2  -2  -1 11670.9 697.535   5
   2   2   1 10640.8 203.086  40
   2   2   1 11979.2 566.552  37
   2   2   1 10154.9 389.958  35
  -2  -2  -1 12746.8 624.977  39
   2   2   2 1697.79 260.161   1
   2   2   2 1535.79 75.7959  40
  -2  -2  -2 1523.78 268.957   5
  -2  -2  -2 1768.38 236.132  39
   2   2   2 1716.56 206.514  37
   2   2   2 1528.83 185.625  35
   2   2   3 4339.08 408.843   1
  -2  -2  -3 3855.57 417.652   5
  -2  -2  -3 4707.69 383.412  39
   2   2   3 4609.20 310.065  37
   2   2   3 4175.29 121.701  40
   2   2   3 4037.62 321.088  35
   2   2   4 98.1537 63.6857  35
  -2  -2  -4 152.377 86.7338  39
   2   2   4 98.1753 59.4973  37
  -2  -2  -4 10.8298 77.2023   5
   2   2   4 133.769 106.439   1
   2   2   4 82.0896 21.2179  40
   2   2   5 890.090 57.2138  40
  -2  -2  -5 989.344 193.974  39
   2   2   5 809.777 112.320  37
  -2  -2  -5 1028.38 217.475   5
   2   2   5 897.991 183.670  35
   2   2   5 1152.31 220.995   1
  -2  -2  -6 723.699 175.044  39
   2   2   6 623.815 48.8938  40
  -2  -2  -6 573.273 189.754   5
   2   2   6 747.676 192.599  35
   2   2   6 729.787 179.038   1
   2   2   7 719.510 51.1575  40
  -2  -2  -7 891.836 202.118  39
   2   2   7 688.786 207.104  35
  -2  -2  -7 591.117 194.869   5
   2   2   7 606.337 56.8603   9
   2   2   7 770.678 62.0761  13
   2   2   7 680.855 166.533   1
   2   2   7 821.252 70.7543  23
   2   2   8 1246.66 82.9774  22
   2   2   8 1125.40 65.8541  41
  -2  -2  -8 1248.39 249.926  39
   2   2   8 1159.03 79.2157   9
   2   2   8 1197.92 73.8097   8
   2   2   8 1085.12 250.115  35
   2   2   8 1225.32 83.3567  13
   2   2   8 1294.45 91.1080  23
   2   2   9 11470.0 266.273  22
   2   2   9 11192.5 243.704  21
   2   2   9 10837.6 231.619  41
  -2  -2  -9 11166.4 781.061  39
   2   2   9 11438.4 256.136   9
   2   2   9 10846.0 242.288   8
   2   2   9 11037.1 263.696  13
   2   2   9 11149.6 281.436  23
   2   2  10 4516.36 171.004  22
   2   2  10 4347.49 159.074  21
   2   2  10 4047.84 146.009  41
  -2  -2 -10 4215.19 513.740  39
   2   2  10 4581.02 165.103   9
   2   2  10 4400.02 154.768   8
   2   2  10 4218.32 180.933  23
   2   2  11 141.335 52.5241  23
   2   2  11 151.660 45.2476  22
   2   2  11 109.898 35.5866  41
  -2  -2 -11 66.6570 108.104  39
   2   2  11 182.028 44.7923   9
   2   2  11 210.411 44.5659   8
   2   2  11 122.038 37.7227  30
   2   2  11 60.9711 37.9248  21
  -2  -2 -11 90.1240 33.2407  10
   2   2  12 75.8461 38.4668  23
   2   2  12 91.9999 39.0838  22
   2   2  12 42.7474 25.7721  41
  -2  -2 -12-7.68242 90.5010  39
   2   2  12 23.5484 31.4407   9
   2   2  12 43.2627 22.0624   8
   2   2  12 39.0086 32.4014  30
   2   2  13 1054.48 85.7147  22
   2   2  13 927.098 76.6211  41
  -2  -2 -13 783.567 261.089  39
   2   2  13 949.547 86.0785   9
   2   2  13 847.358 76.4699  33
   2   2  13 842.035 78.3332  30
   2   2  13 992.245 87.3832  23
   2   2  14 416.524 55.9209   9
   2   2  14 373.457 52.6304  33
   2   2  14 348.224 52.5258  30
   2   2  15 1325.55 86.3043   9
   2   2  15 1231.47 79.8389  33
   2   2  15 1127.71 79.8005  30
   2   2  16 59.1865 25.0476   9
   2   2  16 62.6991 21.0038  33
   2   2  16 52.0175 23.0822  30
   2   2  16 42.8256 19.0183  28
   2   2  17 19.2154 17.6076   9
   2   2  17 12.2883 13.0174  33
   2   2  17 29.8016 12.6700  30
   2   2  17 37.2306 13.2122  28
  -2  -3  13 144.632 25.1639  11
   2   3 -13 161.988 30.3254  13
  -2  -3  13 157.244 27.5004  31
  -2  -3  13 168.066 26.1915  28
  -2  -3  12 551.373 48.2442  32
  -2  -3  12 690.583 46.1558  33
  -2  -3  12 736.943 58.0957  31
  -2  -3  12 787.063 55.4761  28
  -2  -3  12 639.877 54.2188   2
  -2  -3  12 669.355 52.3590  11
  -2  -3  11 1476.01 83.1145  11
  -2  -3  11 1663.48 76.7078  33
  -2  -3  11 1604.34 90.6699  32
  -2  -3  11 1690.17 94.1338  31
  -2  -3  11 1849.80 90.9438  28
  -2  -3  11 1524.72 92.7206   2
  -2  -3  11 1528.95 77.7138  26
  -2  -3  11 1289.72 81.9219  12
  -2  -3  11 1397.09 69.2967  25
  -2  -3  10 1855.30 97.2665  11
  -2  -3  10 2040.64 108.832  32
  -2  -3  10 2068.90 90.8034  33
  -2  -3  10 1957.36 110.453   2
  -2  -3  10 2060.74 101.101  28
  -2  -3  10 2052.48 108.402  31
  -2  -3  10 1858.78 94.3158  26
  -2  -3  10 1765.90 104.124  12
  -2  -3  10 1745.04 82.1404  25
  -2  -3   9 10342.7 234.795  11
  -2  -3   9 10793.6 272.963  32
   2   3  -9 11409.2 906.573  38
   2   3  -9 7922.13 755.287  37
  -2  -3   9 7709.62 739.864  34
  -2  -3   9 11181.6 222.181  33
  -2  -3   9 11093.2 255.612  31
  -2  -3   9 11060.5 273.933   2
  -2  -3   9 10827.7 244.448  28
  -2  -3   9 10252.6 236.985  26
  -2  -3   9 10751.8 270.329  12
  -2  -3   9 9267.40 205.310  25
  -2  -3   8 6109.28 178.654  11
   2   3  -8 5674.45 649.476  37
  -2  -3   8 5042.25 569.436  34
  -2  -3   8 6860.52 176.862  33
  -2  -3   8 6104.83 187.361  31
  -2  -3   8 6167.74 207.814   2
  -2  -3   8 5522.99 174.216  28
  -2  -3   8 5939.17 181.566  26
  -2  -3   8 6086.21 208.806  12
   2   3  -8 6745.95 694.761  38
  -2  -3   7 2819.09 116.878  11
   2   3  -7 2844.35 453.137  38
   2   3  -7 2630.56 424.732  37
  -2  -3   7 2535.07 400.495  34
  -2  -3   7 2860.44 110.655  33
  -2  -3   7 2926.69 126.369  31
  -2  -3   7 2860.01 121.463  28
  -2  -3   7 2833.85 122.459  26
  -2  -3   7 3013.41 141.919  12
  -2  -3   7 3133.66 143.654  42
   2   3  -6 908.952 251.419  38
   2   3  -6 966.046 265.729  37
  -2  -3   6 834.792 242.182  34
  -2  -3   6 891.066 64.6717  33
  -2  -3   6 895.012 68.8467  31
  -2  -3   6 936.019 70.0827  28
  -2  -3   6 979.014 71.7816  26
  -2  -3   6 1084.59 85.1546  12
  -2  -3   6 1132.21 82.7427  42
  -2  -3   6 829.813 65.3046  16
  -2  -3   5 586.316 61.3849  42
  -2  -3   5 484.834 50.1148  16
   2   3  -5 271.321 108.254  37
  -2  -3   5 431.376 167.271  34
   2   3  -5 495.297 185.606   1
  -2  -3   5 468.970 48.0175  31
  -2  -3   5 543.043 51.2711  28
  -2  -3   5 543.163 55.5769  26
  -2  -3   5 523.696 56.3643  12
   2   3  -4 1752.52 304.602  37
   2   3  -4 1645.85 305.305   1
  -2  -3   4 1442.61 81.1419  16
  -2  -3   4 1373.99 252.506  34
  -2  -3   4 1590.12 76.8164  33
  -2  -3   4 1835.87 97.9722  42
  -2  -3   4 1318.98 74.0539  31
  -2  -3   4 1620.72 81.5895  28
   2   3  -4 1644.57 88.0938  40
  -2  -3   4 1584.82 85.8112  26
  -2  -3   4 1676.64 98.0681  12
   2   3  -3 7643.66 635.608   1
  -2  -3   3 8216.01 200.378  42
  -2  -3   3 7565.27 535.339  34
   2   3  -3 7460.76 585.980  37
   2   3  -3 7515.26 189.009  40
  -2  -3   3 7107.98 168.816  28
  -2  -3   3 7543.54 183.239  26
  -2  -3   3 7145.36 196.919  12
   2   3  -2 11315.3 758.889   1
  -2  -3   2 11518.4 232.189  42
   2   3  -2 9989.81 218.596  40
  -2  -3   2 11206.0 698.313  39
   2   3  -2 11193.0 682.475  37
  -2  -3   2 10063.0 556.643  34
  -2  -3   1 4895.55 498.165   5
   2   3  -1 4855.98 441.133  37
  -2  -3   1 4803.94 346.834  34
  -2  -3   1 5400.44 150.680  42
   2   3  -1 4564.06 144.021  40
  -2  -3   1 5142.32 453.937  39
   2   3  -1 4844.51 490.186   1
  -2  -3   0 1968.86 323.518   5
  -2  -3   0 2040.36 279.617  39
   2   3   0 1980.34 271.936  37
   2   3   0 1890.30 90.9696  40
  -2  -3   0 1561.86 194.172  34
  -2  -3   0 2188.58 92.9923  42
   2   3   0 1945.08 305.592   1
  -2  -3  -1 2950.96 392.888   5
  -2  -3  -1 3359.82 343.420  39
   2   3   1 3287.45 329.964  37
   2   3   1 2836.62 108.585  40
  -2  -3  -1 3331.49 111.247  42
   2   3   1 3268.03 387.974   1
   2   3   2 12955.4 236.348  40
  -2  -3  -2 13875.6 696.612  39
   2   3   2 13326.2 622.781  37
  -2  -3  -2 13197.6 231.721  42
   2   3   2 13718.8 789.423   1
   2   3   3 1549.67 203.558  37
  -2  -3  -3 1136.51 251.510   5
   2   3   3 1261.50 204.448  35
   2   3   3 1450.22 76.7446  40
  -2  -3  -3 1566.11 238.692  39
   2   3   3 1444.23 262.792   1
   2   3   4 507.155 46.8259  40
  -2  -3  -4 449.270 183.336   5
   2   3   4 505.194 112.203  37
   2   3   4 396.601 118.463  35
  -2  -3  -4 515.574 136.908  39
   2   3   4 491.222 156.749   1
   2   3   5 3381.03 394.458   1
  -2  -3  -5 3206.26 423.406   5
  -2  -3  -5 3985.86 393.292  39
   2   3   5 2888.55 221.373  37
   2   3   5 2796.92 339.448  35
   2   3   5 3334.80 115.130  40
   2   3   6 2165.16 324.394   1
  -2  -3  -6 1954.30 288.094  39
   2   3   6 1991.62 90.5925  40
   2   3   6 1714.44 292.679  35
   2   3   7 325.836 49.7458  23
   2   3   7 352.671 45.6960  22
   2   3   7 290.815 36.1541  40
   2   3   7 305.685 45.2012  13
   2   3   7 122.078 117.442  35
   2   3   7 344.602 45.1918   8
   2   3   7 252.201 111.021   1
  -2  -3  -7 275.175 133.436  39
   2   3   8 2877.18 128.878  22
   2   3   8 2584.09 347.672   1
   2   3   8 2751.19 106.755  40
  -2  -3  -8 2953.14 397.175  39
   2   3   8 2609.11 118.486   9
   2   3   8 3012.49 125.918   8
   2   3   8 2603.01 406.616  35
   2   3   8 2874.09 128.696  13
   2   3   8 2814.45 134.804  23
   2   3   9 160.547 44.2413  23
   2   3   9 205.900 46.5338  22
   2   3   9 112.479 30.3512   9
  -2  -3  -9 118.106 106.116  39
   2   3   9 158.039 34.6485   8
   2   3   9 160.466 39.2373  13
   2   3   9 202.351 126.059  35
   2   3  10 530.170 71.0906  23
   2   3  10 526.282 63.8172  22
   2   3  10 441.525 57.0444  21
   2   3  10 424.175 47.1099  41
  -2  -3 -10 391.663 156.800  39
   2   3  10 469.228 58.2682   9
   2   3  10 310.104 166.268  35
   2   3  10 453.019 53.4540   8
   2   3  11 2726.39 140.159  22
  -2  -3 -11 2773.18 157.656  10
   2   3  11 2469.25 116.579  41
   2   3  11 2578.67 133.109   9
   2   3  11 2818.72 132.408   8
   2   3  11 2812.83 152.748  23
   2   3  12 274.695 51.2614  22
   2   3  12 137.834 31.2559  41
   2   3  12 109.803 34.3544   8
  -2  -3 -12 153.421 44.4721  10
  -2  -3 -12 153.031 80.1575  39
   2   3  12 92.3582 37.6856   9
   2   3  12 107.530 35.6868  30
   2   3  13 736.792 77.3591  22
  -2  -3 -13 595.763 67.5938  10
   2   3  13 534.129 57.9050  41
   2   3  13 590.113 71.2617   9
   2   3  13 559.479 59.2255   8
   2   3  13 497.577 64.2049  30
   2   3  14 0.99252 22.5527  41
   2   3  14 13.8231 27.9251   9
   2   3  14 11.5196 24.2387  33
   2   3  14 14.9538 22.8481  30
   2   3  15 859.774 70.5969   9
   2   3  15 726.051 65.3303  33
   2   3  15 697.463 63.0346  30
   2   3  16 664.490 54.9932   9
   2   3  16 556.196 48.9987  33
   2   3  16 524.059 43.9532  30
   2   3  17 541.890 40.5905   9
   2   3  17 462.511 35.6103  33
  -2  -3 -17 609.077 50.5478  15
   2   3  17 365.844 28.1562  30
   2   3  17 468.283 36.4818  28
  -2  -4  12 89.1625 23.2649  32
  -2  -4  12 41.1991 19.2301  31
  -2  -4  12 49.1767 18.5672  28
  -2  -4  11 21.6815 16.4057  11
  -2  -4  11 29.7332 16.9695  33
  -2  -4  11 34.6583 25.7999  32
  -2  -4  11 27.0464 25.4694  31
  -2  -4  11 57.1491 19.9822  28
   2   4 -11 51.7780 24.1780  13
  -2  -4  10 242.873 38.1961  11
  -2  -4  10 269.850 40.6653   2
  -2  -4  10 297.674 36.3896  33
  -2  -4  10 343.781 49.2455  32
  -2  -4  10 350.934 47.6711  31
  -2  -4  10 400.817 47.2435  28
  -2  -4  10 307.514 36.3683  26
  -2  -4  10 279.388 45.4028  12
  -2  -4   9 161.038 35.7950  11
  -2  -4   9 168.240 34.8205   2
  -2  -4   9 190.418 33.4737  33
  -2  -4   9 256.792 47.5191  32
  -2  -4   9 222.279 43.0024  31
  -2  -4   9 139.925 31.8028  29
  -2  -4   9 236.424 39.3344  28
  -2  -4   9 170.615 32.3986  26
  -2  -4   9 200.684 41.9793  12
  -2  -4   8 2080.84 99.3451  11
   2   4  -8 2107.84 402.527  38
   2   4  -8 1754.99 373.313  37
  -2  -4   8 1398.86 293.222  34
  -2  -4   8 2547.53 108.683  33
  -2  -4   8 2433.64 124.157  32
  -2  -4   8 2515.34 115.796  31
  -2  -4   8 1876.26 105.610  29
  -2  -4   8 2398.75 115.593  28
  -2  -4   8 2176.22 119.380   2
  -2  -4   8 2209.59 106.117  26
  -2  -4   8 2516.74 133.070  12
  -2  -4   7 7721.80 189.862  11
   2   4  -7 8348.61 796.368  38
   2   4  -7 7173.17 737.992  37
  -2  -4   7 8780.13 211.229  33
  -2  -4   7 8225.51 239.509  32
  -2  -4   7 7702.36 228.183   2
  -2  -4   7 8693.37 217.389  31
  -2  -4   7 8094.30 214.871  28
  -2  -4   7 7867.78 207.168  26
  -2  -4   7 8327.31 251.255  12
   2   4  -6 6.24518 118.612  37
  -2  -4   6 13.6942 75.0453  34
  -2  -4   6 28.1458 21.6092  33
  -2  -4   6 21.8672 22.8100  31
  -2  -4   6 13.6743 22.1717  28
  -2  -4   6 5.73785 23.4877  26
  -2  -4   6 39.7755 25.4685  42
  -2  -4   6 22.6924 31.7054  12
  -2  -4   5 2841.85 132.468  42
   2   4  -5 2680.93 425.792  37
  -2  -4   5 2025.89 320.057  34
  -2  -4   5 2367.18 104.813  31
  -2  -4   5 2296.87 113.258  28
  -2  -4   5 2182.13 108.113  33
  -2  -4   5 2530.02 115.743  26
  -2  -4   5 2558.32 133.195  12
   2   4  -4 125.448 30.2209  40
   2   4  -4 189.944 122.584   1
   2   4  -4 65.6947 114.109  37
  -2  -4   4 30.9113 71.7266  34
  -2  -4   4 84.6956 26.4616  33
  -2  -4   4 76.4265 24.7959  31
  -2  -4   4 107.381 31.5618  42
  -2  -4   4 141.474 32.4123  28
  -2  -4   4 123.074 27.9312  26
  -2  -4   4 82.7694 30.5376  12
   2   4  -3 117.223 92.2691   1
  -2  -4   3 47.3545 27.7975   6
   2   4  -3-89.1440 121.286  37
  -2  -4   3-1.19010 82.1519  34
  -2  -4   3 51.8563 19.8156  28
  -2  -4   3 36.4681 18.1969  33
   2   4  -3 60.5504 30.0709  13
  -2  -4   3 17.2997 19.8447  26
  -2  -4   3 58.4083 29.0182  12
  -2  -4   3 14.2750 21.6345  42
  -2  -4   2 5544.67 168.238  42
   2   4  -2 4988.05 161.463  40
   2   4  -2 5532.05 549.656  37
  -2  -4   2 4656.95 395.752  34
  -2  -4   2 4257.11 138.247  33
  -2  -4   2 4748.88 153.745   7
  -2  -4   2 4886.46 146.005  28
  -2  -4   2 5088.98 154.206  26
  -2  -4   2 4822.74 166.877  12
  -2  -4   2 4593.41 157.402   6
   2   4  -2 5701.48 592.642   1
  -2  -4   1 59.5028 28.4866   6
  -2  -4   1-39.8729 73.2190  39
   2   4  -1 31.0570 88.5418  37
  -2  -4   1 58.1615 61.8183  34
   2   4  -1 119.953 133.105   1
  -2  -4   1 40.9271 21.7040  28
  -2  -4   1 36.8750 19.0609  26
  -2  -4   1 11.5440 21.5893   7
   2   4  -1 0.10713 19.3823  40
  -2  -4   1 31.9807 30.2591  12
  -2  -4   1 31.5291 23.4680  42
   2   4   0 2578.54 112.433  40
  -2  -4   0 2866.59 113.499  42
  -2  -4   0 2721.44 345.930  39
   2   4   0 2743.07 354.892  37
  -2  -4   0 2527.94 99.4680  28
  -2  -4   0 2581.02 105.691  26
   2   4   0 2641.31 392.810   1
  -2  -4   0 2569.30 114.707   6
  -2  -4  -1 4755.14 143.206  42
   2   4   1 4463.18 146.915  40
  -2  -4  -1 4500.80 429.991  39
   2   4   1 4954.71 449.570  37
  -2  -4  -1 4158.31 129.496  28
  -2  -4  -1 3995.22 133.265  26
   2   4   1 4362.65 495.983   1
  -2  -4  -2 26091.0 1029.88  39
   2   4   2 26871.6 998.712  37
   2   4   2 25391.8 379.008  40
  -2  -4  -2 26467.4 368.761  42
   2   4   2 26442.8 1209.30   1
   2   4   3 3905.49 138.154  40
  -2  -4  -3 3489.16 378.482  39
   2   4   3 3668.70 352.170  37
  -2  -4  -3 3433.82 121.543  42
   2   4   3 3796.66 464.070   1
   2   4   4 117197. 1055.23  40
  -2  -4  -4 117846. 2313.85  39
   2   4   4 121919. 1982.54  37
   2   4   4 104808. 2312.39  35
   2   4   4 113969. 1073.86   8
  -2  -4  -4 113481. 1096.45   7
   2   4   4 126874. 2735.76   1
   2   4   5 307.717 45.4960  40
  -2  -4  -5 91.7978 25.7587   6
   2   4   5 212.559 120.650  35
   2   4   5 223.487 36.4801   8
   2   4   5 145.288 91.9119   1
  -2  -4  -5 142.161 81.7231  39
  -2  -4  -5 135.316 31.4511   7
   2   4   6 1288.81 81.2629  22
   2   4   6 1345.37 79.9442  40
  -2  -4  -6 1161.76 228.042  39
   2   4   6 1306.16 262.244  35
   2   4   6 1283.69 83.8083   8
  -2  -4  -6 1247.21 86.4579   7
   2   4   6 1250.43 81.6964  13
   2   4   6 1384.73 292.143   1
  -2  -4  -6 1323.50 87.2340   6
   2   4   7 21.8686 29.9977  23
   2   4   7 123.956 102.592   1
   2   4   7 23.6105 24.0245  40
   2   4   7-5.42985 20.7041  22
  -2  -4  -7 11.2590 27.8052   6
  -2  -4  -7 24.3205 64.7898  39
   2   4   7 6.05406 91.2698  35
   2   4   7 30.2133 26.5236   8
   2   4   7 68.9113 33.2765  13
  -2  -4  -7 33.8579 23.2141   7
   2   4   8 391.149 55.1470  22
   2   4   8 322.193 124.593   1
   2   4   8 422.303 44.7292  40
  -2  -4  -8 470.843 173.775  39
   2   4   8 368.068 169.854  35
   2   4   8 422.958 51.9618   8
  -2  -4  -8 510.755 59.5797   7
   2   4   8 436.376 54.8153  13
   2   4   9 261.105 46.7166  22
  -2  -4  -9 187.995 95.8908  39
   2   4   9 246.583 43.3092   9
   2   4   9 287.202 47.3761   8
   2   4   9 108.904 91.9306  35
   2   4   9 247.544 46.5260  13
  -2  -4  -9 227.804 38.5546   7
   2   4  10 645.320 69.6016  22
  -2  -4 -10 626.437 80.9197  10
   2   4  10 612.040 65.6112   9
   2   4  10 660.280 242.011  35
   2   4  10 665.388 66.6941   8
  -2  -4 -10 433.956 185.497  39
   2   4  11 986.004 85.8583  22
  -2  -4 -11 583.588 213.212  39
  -2  -4 -11 904.046 96.8149  10
   2   4  11 683.851 73.5244   9
   2   4  11 631.719 254.672  35
   2   4  11 799.995 74.4867   8
   2   4  12 305.064 51.9351  22
  -2  -4 -12 311.306 61.4937  10
   2   4  12 239.914 47.6061   9
   2   4  12 333.823 51.2008   8
   2   4  13 151.304 40.6688  30
  -2  -4 -13 216.326 44.2034  10
   2   4  13 237.679 47.6278   9
   2   4  13 255.158 46.0168   8
  -2  -4 -14 793.958 74.7885  10
   2   4  14 766.122 71.5556   9
   2   4  14 817.416 68.9091   8
   2   4  14 658.049 67.8266  30
   2   4  15 187.528 37.5884   9
   2   4  15 181.408 37.5239  33
   2   4  15 165.449 34.9098  30
   2   4  16 1018.09 63.4418   9
   2   4  16 943.176 62.6925  33
   2   4  16 907.966 54.6169  30
   2   4  16 1046.31 60.2235  27
  -2  -5  11 263.481 31.8421  32
  -2  -5  11 213.555 26.6952  31
  -2  -5  11 246.289 32.7204  28
  -2  -5  10 60.2339 25.5669  32
  -2  -5  10 36.7822 24.9858  31
  -2  -5  10 87.0368 23.9347  28
  -2  -5   9 788.805 59.1456  33
  -2  -5   9 774.931 59.7917  31
  -2  -5   9 905.250 69.0418  32
  -2  -5   9 906.539 64.9710  28
  -2  -5   8 1709.38 101.746  32
  -2  -5   8 1650.29 86.2661  33
  -2  -5   8 1487.40 82.9409  31
  -2  -5   8 1091.32 75.3380   2
  -2  -5   8 1289.83 85.6544  29
  -2  -5   8 1574.48 90.2494  28
  -2  -5   8 1539.50 104.321  12
   2   5  -7 5473.81 648.483  38
   2   5  -7 4307.97 626.737  37
  -2  -5   7 5579.91 167.610  33
  -2  -5   7 5348.43 184.894  32
  -2  -5   7 5371.25 161.465  31
  -2  -5   7 4359.85 159.699   2
  -2  -5   7 5065.32 180.842  29
  -2  -5   7 5477.97 175.024  28
  -2  -5   7 4867.18 156.817  26
  -2  -5   7 5930.79 205.263  12
   2   5  -6-8.93766 123.693  37
  -2  -5   6 118.914 122.816  34
  -2  -5   6 85.7037 29.1946  33
  -2  -5   6 23.8515 30.2969  32
  -2  -5   6 67.7157 25.0570  31
  -2  -5   6 74.5869 42.2234  29
  -2  -5   6 130.655 35.0379  28
  -2  -5   6 89.5740 29.2755  26
  -2  -5   6 89.3306 41.8184  12
  -2  -5   5 123.556 36.1127  42
   2   5  -5 223.154 113.791  37
  -2  -5   5 103.962 77.8174  34
  -2  -5   5 127.048 33.1488  33
  -2  -5   5 141.711 43.0350  32
  -2  -5   5 146.742 29.5474  31
  -2  -5   5 148.073 40.9689  28
  -2  -5   5 201.842 38.7234  26
  -2  -5   5 178.687 47.3518  12
  -2  -5   4 900.267 76.4591  42
   2   5  -4 1234.33 315.495   1
   2   5  -4 835.018 70.5487  40
   2   5  -4 817.399 253.660  37
  -2  -5   4 459.445 150.120  34
  -2  -5   4 645.911 66.8370  33
  -2  -5   4 861.311 76.4751  32
  -2  -5   4 746.647 70.0411  28
  -2  -5   4 793.453 67.5060  26
  -2  -5   4 808.189 81.0937  12
   2   5  -3 460.192 192.934   1
   2   5  -3 633.477 217.542  37
  -2  -5   3 612.684 61.6960  42
  -2  -5   3 634.900 64.4175  32
   2   5  -3 600.321 62.6523  40
  -2  -5   3 532.622 61.5577  28
  -2  -5   3 536.134 55.2261  26
  -2  -5   3 512.610 64.2662  12
  -2  -5   3 543.947 63.9841   6
  -2  -5   2 282.342 46.2934   6
   2   5  -2 315.932 176.631  37
  -2  -5   2 294.750 44.6029  42
   2   5  -2 264.326 43.0237  40
  -2  -5   2 333.139 45.2615  32
  -2  -5   2 297.933 45.6560  28
  -2  -5   2 301.910 46.1544   7
  -2  -5   2 303.740 44.4939  26
   2   5  -2 346.019 163.308   1
  -2  -5   2 288.742 48.2907  12
  -2  -5   1 1472.39 90.2092  42
   2   5  -1 1655.21 318.747  37
  -2  -5   1 1445.47 86.1192  32
   2   5  -1 1371.88 93.7054  40
   2   5  -1 1664.09 353.815   1
  -2  -5   1 1385.70 89.7470   7
  -2  -5   1 1263.97 83.2105  28
  -2  -5   1 1317.95 94.4864  12
  -2  -5   1 1417.66 93.9995   6
  -2  -5   0 102.453 34.3126   6
   2   5   0 68.8475 115.680   1
   2   5   0 71.9168 27.6615  40
   2   5   0 47.8203 73.3134  37
  -2  -5   0 134.616 32.5414  32
  -2  -5   0 58.3829 21.1923  28
  -2  -5   0 127.920 31.2502  42
  -2  -5   0 149.787 37.2744   7
  -2  -5   0 152.465 36.1758  12
   2   5   1 3010.58 133.520  40
  -2  -5  -1 2672.26 367.953  39
   2   5   1 3214.78 411.004  37
  -2  -5  -1 2937.15 130.601   7
  -2  -5  -1 2893.42 120.815  28
  -2  -5  -1 2973.92 120.395  42
  -2  -5  -1 2762.65 129.669  12
   2   5   1 3153.70 464.382   1
  -2  -5  -1 3055.42 138.639   6
  -2  -5  -2 131.585 32.8433   6
   2   5   2 155.982 36.9577  40
  -2  -5  -2 124.067 80.3522  39
   2   5   2 187.226 141.895   1
   2   5   2 141.068 34.2624   8
  -2  -5  -2 130.008 28.2737  28
  -2  -5  -2 191.042 40.3826   7
  -2  -5  -2 104.415 28.2550  12
  -2  -5  -2 167.228 33.3956  42
   2   5   2 249.208 137.797  37
   2   5   3 2139.03 305.644  37
  -2  -5  -3 2128.12 100.529  42
  -2  -5  -3 1898.67 302.887  39
   2   5   3 2142.51 115.453   8
   2   5   3 2274.10 118.096  40
  -2  -5  -3 2248.56 119.973   7
   2   5   3 2544.91 416.437   1
  -2  -5  -3 2050.56 114.579   6
   2   5   4 576.036 62.0613  40
  -2  -5  -4 703.038 197.821  39
   2   5   4 579.543 194.818   1
   2   5   4 502.771 135.894  37
   2   5   4 552.872 60.3410   8
  -2  -5  -4 554.428 61.2499   7
  -2  -5  -4 572.067 53.2461  42
  -2  -5  -4 529.545 61.1578   6
  -2  -5  -5-52.6080 93.4270  39
  -2  -5  -5-12.8444 29.7756   6
   2   5   5-86.3680 99.4750   1
   2   5   5-74.1316 115.019  35
  -2  -5  -5-15.7564 22.8118  42
   2   5   5 16.6342 26.8143   8
   2   5   5-4.64790 23.9445  40
  -2  -5  -5 16.2824 27.2213   7
   2   5   6 8971.47 218.409  22
   2   5   6 10119.7 244.804  40
  -2  -5  -6 8237.98 630.661  39
   2   5   6 8518.97 735.204  35
   2   5   6 9391.62 245.009   8
  -2  -5  -6 9648.39 259.998   7
   2   5   6 10748.5 848.596   1
  -2  -5  -6 9521.10 257.034   6
   2   5   7-9.95687 24.4333  22
  -2  -5  -7 9.07539 27.8518   6
   2   5   7 3.92062 19.4860  40
   2   5   7-120.656 110.414  35
   2   5   7 22.5861 28.7113   8
   2   5   7 15.8947 23.2768  13
  -2  -5  -7 12.0335 25.8370   7
   2   5   7 97.7227 129.251   1
  -2  -5  -7 2.72964 78.7531  39
  -2  -5  -8-8.30833 25.6558   6
   2   5   8 34.5359 24.3999  22
  -2  -5  -8 47.7003 69.4740  39
  -2  -5  -8 27.3095 28.2641  10
   2   5   8 61.2582 25.9496  40
   2   5   8-118.540 174.961  35
   2   5   8 53.6259 26.0665   8
   2   5   8 83.8967 32.0652  13
  -2  -5  -8 39.7650 30.7746   7
   2   5   8 147.574 139.785   1
   2   5   9 533.429 63.4654  22
   2   5   9 316.344 123.759   1
   2   5   9 451.754 49.8822  40
  -2  -5  -9 542.578 75.4447  10
   2   5   9 484.150 190.104  35
   2   5   9 618.796 67.6259   8
  -2  -5  -9 533.264 66.0283   7
  -2  -5  -9 464.626 184.550  39
   2   5  10 17.3353 29.4394  22
  -2  -5 -10 50.1809 38.8665  10
  -2  -5 -10 7.11585 101.482  39
   2   5  10 7.84201 92.4061  35
   2   5  10 35.1571 31.8650   9
   2   5  10 26.9987 26.0343   8
  -2  -5 -10 77.1637 34.4598   7
   2   5  11 214.115 49.4725  22
  -2  -5 -11 127.174 45.9279  10
   2   5  11 264.144 156.923  35
   2   5  11 111.447 38.6744   9
   2   5  11 239.082 45.3505   8
  -2  -5 -11 30.4872 118.460  39
  -2  -5 -12 106.905 44.5692  10
   2   5  12 53.8827 34.6074   9
   2   5  12 246.435 166.993  35
   2   5  12 119.701 37.0349   8
  -2  -5 -13 87.2336 37.5944  10
   2   5  13 75.8615 35.9038   9
   2   5  13 42.5985 26.1539   8
   2   5  13 72.9385 32.6110  30
  -2  -5 -14 1178.49 95.3806  10
   2   5  14 997.182 78.2050   9
   2   5  14 1202.62 84.5002   8
  -2  -5 -15 1052.04 76.4092  10
   2   5  15 1106.06 73.7351   9
   2   5  15 903.665 62.3833  30
   2   5  16 998.827 61.4759   9
   2   5  16 909.210 60.6677  33
  -2  -6  10 2.99067 16.6505  32
  -2  -6  10 18.0308 20.2138  31
  -2  -6  10 37.9965 16.2899  28
  -2  -6   9 44.5849 23.6301  32
  -2  -6   9 15.9763 18.0823  31
  -2  -6   9 48.4039 19.1083  29
  -2  -6   9 52.0153 19.9948  28
  -2  -6   8 382.145 48.3065  32
  -2  -6   8 288.042 34.1261  31
  -2  -6   8 341.581 47.2415  29
  -2  -6   8 430.290 44.9234  28
  -2  -6   7 3822.44 139.833  32
  -2  -6   7 3175.00 109.406  31
  -2  -6   7 3301.77 137.853  29
  -2  -6   7 3662.09 133.653  28
  -2  -6   6-9.31521 29.8552  32
  -2  -6   6-24.0061 24.9746  31
  -2  -6   6-22.3699 31.1326  29
  -2  -6   6 24.8104 26.8049  28
  -2  -6   6-43.6713 38.1915  12
   2   6  -5-42.9228 105.843  37
  -2  -6   5-14.1990 28.4400  32
  -2  -6   5 15.4536 35.0059  29
  -2  -6   5-15.9669 28.8020  28
  -2  -6   5-27.5686 35.1435  12
  -2  -6   4 17.6846 24.3258   6
   2   6  -4-95.1265 160.545  37
  -2  -6   4 35.8170 32.9315  32
  -2  -6   4 20.4297 25.1065  28
  -2  -6   4 38.1149 36.2214  12
   2   6  -3 1107.79 315.027   1
  -2  -6   3 1026.40 79.2428  42
   2   6  -3 1206.08 325.270  37
   2   6  -3 1150.15 86.6277  40
  -2  -6   3 1175.14 84.1933  32
  -2  -6   3 1002.43 87.6372  28
  -2  -6   3 693.329 80.2686  12
  -2  -6   3 1118.86 88.2670   6
   2   6  -2 2937.84 140.343  40
  -2  -6   2 2713.35 127.556   7
   2   6  -2 2674.55 460.046  37
  -2  -6   2 3004.60 129.733  32
  -2  -6   2 2659.67 125.424  42
  -2  -6   2 2341.99 128.634  28
  -2  -6   2 2791.40 144.910  12
  -2  -6   2 2757.81 139.342   6
   2   6  -2 2893.46 511.332   1
  -2  -6   1 56.4326 31.2138   6
  -2  -6   1 9.07144 20.0145  42
   2   6  -1-21.5494 27.9593  40
  -2  -6   1 14.9022 29.2613  32
   2   6  -1 109.841 108.547   1
   2   6  -1 28.0719 30.1334   8
  -2  -6   1-25.4289 28.7833  28
  -2  -6   1 15.8900 22.8418   7
  -2  -6   1 31.7179 31.1242  12
  -2  -6   0 220.259 50.7433   6
  -2  -6   0 184.776 38.3208  42
   2   6   0 249.739 49.4580  40
   2   6   0 35.0932 116.599  37
   2   6   0 215.143 151.223   1
  -2  -6   0 243.815 46.5475  32
   2   6   0 237.004 46.0705   8
  -2  -6   0 170.500 45.2810  28
  -2  -6   0 215.226 43.3928   7
  -2  -6   0 221.767 51.9175  12
  -2  -6  -1 1059.60 73.2678  42
   2   6   1 1146.58 90.7696  40
   2   6   1 1069.25 307.992   1
   2   6   1 1182.49 300.217  37
   2   6   1 1017.33 85.1482   8
  -2  -6  -1 1009.79 84.8512   7
  -2  -6  -1 888.723 77.5364  28
  -2  -6  -1 1062.17 86.8618  12
  -2  -6  -1 1006.00 88.6208   6
  -2  -6  -2 285.993 50.0480   6
   2   6   2 240.090 46.1904  40
   2   6   2 238.313 138.014  37
   2   6   2 296.538 45.3823   8
   2   6   2 204.762 170.758   1
  -2  -6  -2 178.883 32.1739  42
  -2  -6  -2 261.026 46.1588   7
  -2  -6  -2 291.283 47.6886  12
  -2  -6  -3 18.9601 24.2655   6
   2   6   3 50.6849 83.5648  37
  -2  -6  -3 2.23719 18.2644  42
   2   6   3 22.7976 26.0842  40
   2   6   3 135.883 163.486   1
  -2  -6  -3 33.7258 26.6533  10
  -2  -6  -3-18.3066 77.2091  39
   2   6   3 3.02703 23.0491   8
  -2  -6  -3 16.8610 29.6167   7
  -2  -6  -4 607.904 54.1789  42
  -2  -6  -4 773.288 76.4787  10
   2   6   4 821.567 77.7510  40
  -2  -6  -4 528.703 172.797  39
   2   6   4 635.353 231.655   1
   2   6   4 530.719 154.230  37
   2   6   4 646.873 69.5823   8
  -2  -6  -4 639.607 70.2240   7
  -2  -6  -4 692.817 75.4542   6
   2   6   5 6280.33 205.144  40
  -2  -6  -5 5654.71 206.279  10
   2   6   5 5599.24 195.851   8
  -2  -6  -5 5487.05 198.016   7
  -2  -6  -5 5045.88 157.407  42
   2   6   5 6200.21 713.324   1
  -2  -6  -5 5346.45 200.286   6
  -2  -6  -6 4111.53 182.537  10
   2   6   6 4307.25 169.672  40
   2   6   6 3175.99 487.283  35
   2   6   6 4059.85 167.725   8
  -2  -6  -6 4069.61 176.926   7
   2   6   6 4091.63 576.290   1
  -2  -6  -6 4104.47 176.093   6
  -2  -6  -7 149.722 42.1119   6
   2   6   7-0.60358 94.7606  35
   2   6   7 136.259 39.6070   8
  -2  -6  -7 118.335 41.3826  10
  -2  -6  -7 98.0076 39.6344   7
   2   6   7 132.817 33.9080  40
   2   6   8 992.112 78.9493  22
  -2  -6  -8 1132.27 105.212  10
   2   6   8 1185.21 88.5347  40
   2   6   8 796.396 276.718  35
   2   6   8 1217.34 93.3688   8
  -2  -6  -8 1278.25 100.363   7
  -2  -6  -8 1066.60 89.7190   6
   2   6   8 1242.56 325.796   1
  -2  -6  -9 43.6447 28.9065   6
   2   6   9 4.98103 25.7695  22
   2   6   9-3.78361 109.561   1
   2   6   9 32.2149 25.1988  40
  -2  -6  -9 107.501 48.4510  10
   2   6   9-26.2338 125.046  35
   2   6   9 42.3675 32.7612   8
  -2  -6  -9 8.62437 27.6414   7
  -2  -6 -10 344.863 66.4663  10
   2   6  10 436.507 61.0523   8
  -2  -6 -11-14.8279 37.5236  10
   2   6  11 9.60091 92.4106  35
   2   6  11 10.5210 27.4938   9
   2   6  11-42.3033 33.8624   8
  -2  -6 -12 139.353 43.4515  10
   2   6  12 68.3458 36.7751   9
   2   6  12 87.8052 27.9088  16
   2   6  12 117.765 38.7421   8
   2   6  13 214.065 45.3526   9
   2   6  13 229.512 41.6162   8
   2   6  14 175.167 37.6803   9
   2   6  14 244.910 39.9340   8
   2   6  14 207.831 34.4960  30
  -2  -6 -14 213.379 45.4566  10
   2   6  15 519.395 48.3723   9
  -2  -6 -15 752.419 76.5842  15
   2   6  15 425.710 39.1247  30
  -2  -6 -15 639.978 60.2585  10
   2   6  16 6.03328 15.3941   9
   2   6  16 25.8685 16.0610  33
  -2  -6 -16 58.0396 21.4386  15
  -2  -7   8 15.4004 17.4840  32
  -2  -7   8 28.3179 19.8643  29
  -2  -7   8 27.9892 16.2983  28
  -2  -7   7 6.08665 19.7693  20
  -2  -7   7 33.2880 25.6406  32
  -2  -7   7 34.7262 27.0444  29
  -2  -7   7 10.8020 17.3544  28
  -2  -7   6 207.621 36.4275  20
  -2  -7   6 242.289 41.8020  32
  -2  -7   6 191.320 42.1443  29
  -2  -7   6 255.627 37.6015  28
  -2  -7   5 1152.48 89.9932  20
  -2  -7   5 1145.59 78.2852  32
  -2  -7   5 1191.86 89.6788  29
  -2  -7   5 1016.47 72.9632  28
  -2  -7   4 66.3735 30.8696  32
  -2  -7   4 42.8402 39.7236  29
  -2  -7   4 52.2956 25.3682  28
   2   7  -3 2775.04 131.594  40
   2   7  -3 2451.87 454.664  37
  -2  -7   3 2876.76 126.530  32
  -2  -7   3 2704.07 147.377  29
  -2  -7   3 2492.66 127.713  28
  -2  -7   3 2523.44 132.835   6
  -2  -7   2 337.516 49.4836   6
   2   7  -2 95.3882 35.2886  40
   2   7  -2-17.5422 89.0968  37
  -2  -7   2 81.8621 32.2692  32
   2   7  -2 61.8762 28.4974   8
  -2  -7   2 90.9016 43.6764  29
  -2  -7   2 55.5461 32.4920  28
   2   7  -2 332.297 182.058   1
  -2  -7   1 481.377 65.9602   6
   2   7  -1 413.623 178.352  37
  -2  -7   1 582.069 54.9157  32
   2   7  -1 436.698 55.1140   8
  -2  -7   1 507.087 59.7043   7
  -2  -7   1 501.624 65.4197  29
  -2  -7   1 476.413 60.8006  28
   2   7  -1 517.390 64.1420  40
   2   7  -1 635.603 263.926   1
  -2  -7   0 52.6856 35.8252   6
   2   7   0 5.11323 25.8350  40
   2   7   0-58.1570 86.1947  37
   2   7   0-104.774 132.393   1
  -2  -7   0 34.3332 22.3132  32
   2   7   0-3.51363 23.3942   8
  -2  -7   0 16.2982 23.1836   7
   2   7   1 461.181 64.3914  40
   2   7   1 458.662 232.270   1
   2   7   1 522.106 64.3466   8
  -2  -7  -1 391.760 56.8020   7
  -2  -7  -1 569.623 72.3562   6
   2   7   1 231.547 117.007  37
  -2  -7  -2-10.3956 33.3072   6
   2   7   2 47.3583 35.3986  40
   2   7   2 5.03842 103.984   1
   2   7   2 32.7315 31.1754   8
  -2  -7  -2 17.6840 25.5211   7
  -2  -7  -3 36.9591 34.6663   6
   2   7   3 2.03199 33.0438  40
   2   7   3 146.617 127.014  37
   2   7   3 37.8807 103.436   1
   2   7   3 6.99527 30.7306   8
  -2  -7  -3 29.0354 29.3096   7
  -2  -7  -3 44.7523 30.6110  10
  -2  -7  -4 30.4078 31.2050   6
   2   7   4 113.170 38.7393  40
  -2  -7  -4 100.571 31.4419  10
   2   7   4 52.0267 34.6833   8
  -2  -7  -4 107.086 39.8014   7
  -2  -7  -5 3940.69 174.632  10
  -2  -7  -5 3927.42 172.447  20
   2   7   5 4739.63 186.352  40
   2   7   5 4077.47 173.993   8
  -2  -7  -5 3793.53 172.871   7
   2   7   5 4274.78 633.427   1
  -2  -7  -5 3952.42 180.588   6
  -2  -7  -6 636.464 77.0813   6
  -2  -7  -6 657.879 78.1277  10
  -2  -7  -6 612.849 67.4890  20
   2   7   6 686.106 75.0796  40
   2   7   6 303.349 172.640  35
   2   7   6 586.024 248.954   1
   2   7   6 662.147 74.9494   8
  -2  -7  -6 830.967 83.6205   7
  -2  -7  -7 379.771 60.8678   6
   2   7   7 368.358 55.2163  40
   2   7   7 177.992 187.325  35
   2   7   7 328.273 57.0077   8
   2   7   7 278.916 164.278   1
  -2  -7  -7 361.414 61.7892   7
  -2  -7  -7 288.250 55.8939  10
  -2  -7  -8 126.556 42.2625   6
   2   7   8 90.9428 35.2911  40
  -2  -7  -8 65.5048 33.9961  19
   2   7   8 30.3471 123.711  35
   2   7   8 93.0068 39.1215   8
  -2  -7  -8 36.1088 32.9385  10
  -2  -7  -8 99.3788 39.7863   7
   2   7   8-52.9460 134.896   1
  -2  -7  -9 183.770 41.8422   6
   2   7   9 199.486 41.0309  40
  -2  -7  -9 226.364 53.8839  10
   2   7   9 355.735 204.216  35
   2   7   9 305.410 54.7014   8
  -2  -7  -9 231.287 55.6642   7
  -2  -7 -10 1234.44 113.015  10
   2   7  10 1334.97 100.847   8
  -2  -7 -11 7.58606 35.2969  10
   2   7  11 10.9016 28.1585   9
   2   7  11 18.4713 28.7704   8
  -2  -7 -12 106.987 43.4848  10
   2   7  12 67.6715 33.4200   9
   2   7  12 96.7409 28.3900  16
   2   7  12 118.504 35.6739   8
   2   7  13 10.4883 22.9729   9
   2   7  13 5.66784 16.2982  16
   2   7  13 22.3812 24.9897   8
  -2  -7 -13 34.9946 29.9589  15
  -2  -7 -13 6.07744 27.1783  10
  -2  -7 -14 96.5213 34.1845  10
   2   7  14 101.911 29.4953   9
   2   7  14 59.8160 24.0524   8
  -2  -7 -14 118.596 37.0408  15
   2   7  14 56.3346 20.8578  30
  -2  -7 -15 21.5841 21.8159  10
   2   7  15 51.8570 20.3354   9
  -2  -7 -15 48.0288 25.2926  15
  -2  -8   6 766.731 54.5014  20
  -2  -8   6 745.881 51.7559  32
  -2  -8   6 731.627 54.7077  29
  -2  -8   5 488.839 52.2856  20
  -2  -8   5 511.340 45.7972  32
  -2  -8   5 568.920 55.0291  29
  -2  -8   4 53.7015 30.0434  20
  -2  -8   4 33.4915 22.8379  19
  -2  -8   4 62.1407 26.8148  32
  -2  -8   4 43.0302 30.0788  29
  -2  -8   3 62.4474 33.9687  20
  -2  -8   3 87.3344 28.6601  32
  -2  -8   3 86.0532 37.8390  29
   2   8  -2 36.8745 26.8825  40
  -2  -8   2-28.6563 25.4164  32
  -2  -8   2-27.3137 33.9412  29
  -2  -8   2 4.08598 31.4859  20
  -2  -8   1 584.947 73.5587  20
   2   8  -1 540.382 63.8747  40
  -2  -8   1 483.023 49.5433  32
  -2  -8   1 651.022 72.2675  29
  -2  -8   1 538.312 66.0893   6
  -2  -8   0-42.2438 32.1432   6
  -2  -8   0-43.0333 30.8678  20
   2   8   0-11.9583 23.2141   8
  -2  -8   0 15.9443 31.4078  29
   2   8   0 20.2915 28.9872  40
  -2  -8  -1 407.426 63.1777   6
   2   8   1 437.107 63.4157  40
  -2  -8  -1 376.896 67.2805  20
   2   8   1 383.658 50.0403   8
   2   8   1 187.944 123.987   1
  -2  -8  -1 424.501 59.2196  29
  -2  -8  -1 399.358 56.9521   7
  -2  -8  -2 26.9105 34.1611   6
   2   8   2 91.6470 37.0120  40
   2   8   2-114.029 115.973  37
   2   8   2-55.5065 183.562   1
   2   8   2 89.9564 28.5951   8
  -2  -8  -2 63.3687 29.4358  29
  -2  -8  -2 68.4301 39.0867  20
  -2  -8  -2 22.0205 35.3500   7
  -2  -8  -3 109.378 43.7581   6
  -2  -8  -3 97.2620 41.9661  20
   2   8   3 73.1114 35.7525  40
   2   8   3 81.7267 30.6854   8
  -2  -8  -3 105.466 34.0484  29
  -2  -8  -3 136.683 42.0504   7
  -2  -8  -4 35.7189 31.1444   6
   2   8   4 19.5378 29.9910  40
  -2  -8  -4 29.2897 24.9198  10
  -2  -8  -4-34.5107 30.5568  20
   2   8   4 12.1374 80.2161   1
   2   8   4-15.9769 25.5649   8
  -2  -8  -4-19.3825 26.1163  29
  -2  -8  -4 17.0542 28.7184   7
  -2  -8  -5 13.5090 36.2922   6
   2   8   5 13.3380 31.2580  40
  -2  -8  -5-12.0757 25.8944  20
   2   8   5 77.6543 32.8214   8
  -2  -8  -5 46.1775 39.1653   7
  -2  -8  -5-4.04738 28.7908  10
  -2  -8  -6 329.079 62.9658   6
   2   8   6 336.610 54.0651  40
  -2  -8  -6 232.584 46.8005  10
   2   8   6 129.575 152.554  35
  -2  -8  -6 267.583 45.5815  20
   2   8   6 306.318 51.2771   8
   2   8   6 46.1344 163.143   1
  -2  -8  -6 262.158 56.4385   7
  -2  -8  -7 333.168 58.1382   6
  -2  -8  -7 349.354 62.2400  10
   2   8   7 357.470 53.9350   8
   2   8   7 337.185 55.0486  40
  -2  -8  -7 397.910 60.2759   7
  -2  -8  -7 455.370 63.9376  19
   2   8   7 262.069 163.592   1
  -2  -8  -8 216.539 48.3923   6
  -2  -8  -8 245.650 53.1629  10
   2   8   8 285.176 53.0458   8
   2   8   8 226.113 44.1922  40
  -2  -8  -8 217.016 43.2949  19
   2   8   9 492.025 57.2091  40
  -2  -8  -9 481.086 55.7965  19
   2   8   9 574.326 67.3182   8
  -2  -8  -9 468.687 68.8801  10
   2   8  10 853.789 78.1556   8
  -2  -8 -10 694.904 69.7737  15
  -2  -8 -10 786.293 83.1665  10
   2   8  11 89.9822 34.4546   9
   2   8  11 78.1959 32.6487   8
  -2  -8 -11 59.6686 30.7239  15
  -2  -8 -11 112.747 40.4623  10
  -2  -8 -12 199.169 40.2716  10
   2   8  12 213.077 38.9738   9
   2   8  12 225.989 38.2841  16
   2   8  12 261.277 43.4767   8
  -2  -8 -12 201.328 41.0043  15
  -2  -8 -13 14.7856 25.8432  10
   2   8  13 28.5125 19.7013   9
   2   8  13 7.55490 15.9222  16
   2   8  13 39.4380 25.6594   8
  -2  -8 -13-5.08389 20.5981  15
   2   8  13 10.1372 15.8201  30
  -2  -8 -14 107.866 26.3318  10
   2   8  14 68.4763 22.3389   9
  -2  -8 -14 116.636 28.1546  15
  -2  -9   4 666.698 50.6673  20
  -2  -9   4 621.293 42.1192  32
  -2  -9   4 614.615 49.5384  29
  -2  -9   3 56.0046 23.5122  20
  -2  -9   3 11.4245 18.6744  32
  -2  -9   3 55.6994 28.5054  29
  -2  -9   2 5.12278 21.8406  20
  -2  -9   2 25.2058 19.1104  32
  -2  -9   2 7.86733 17.9492  19
  -2  -9   1-19.7774 25.1043  20
  -2  -9   1 44.2336 26.5051  19
   2   9  -1 33.5582 21.9623  40
  -2  -9   1 22.9004 27.9585  29
  -2  -9   0 194.795 41.5631  20
   2   9   0 196.710 38.9520  40
  -2  -9   0 104.952 32.1248  29
  -2  -9   0 156.083 39.2631  19
   2   9   1-32.5149 25.8316  40
  -2  -9  -1 33.7402 28.2200  20
  -2  -9  -1-6.34666 29.7018  19
  -2  -9  -1 5.70155 27.9461  29
  -2  -9  -2 80.5648 38.8918   6
  -2  -9  -2 42.1064 33.9636  20
   2   9   2 42.2926 28.7734  40
  -2  -9  -2-8.06016 24.4267  29
  -2  -9  -3 186.711 47.3110   6
   2   9   3 162.026 41.7246  40
  -2  -9  -3 100.679 39.2452  19
   2   9   3 83.6438 27.2613   8
  -2  -9  -3 137.867 38.8717  20
  -2  -9  -3 106.334 31.3773  29
  -2  -9  -4 51.2440 34.1005   6
   2   9   4 55.0292 29.8328  40
  -2  -9  -4 48.2665 26.5899  20
   2   9   4 46.4972 28.8791   8
  -2  -9  -4 95.4639 34.5524  19
  -2  -9  -5-2.68388 30.8981   6
   2   9   5 49.9171 27.3422  40
   2   9   5-16.1233 21.6893   8
  -2  -9  -5 18.1370 28.0960  19
  -2  -9  -6 10.6227 20.6480  20
  -2  -9  -6-2.43909 23.5399  10
   2   9   6 20.0456 26.3179  40
   2   9   6 14.5264 21.2613   8
  -2  -9  -6-10.0540 26.3858  19
  -2  -9  -7 40.3395 27.4448  10
  -2  -9  -7 73.5011 31.6325  19
   2   9   7 16.8797 26.4123   8
   2   9   8 163.399 35.2352  40
  -2  -9  -8 154.682 39.3708  10
  -2  -9  -8 147.351 35.0910  19
   2   9   8 173.700 37.1900   8
  -2  -9  -9 64.7823 29.3177  10
   2   9   9 4.20303 20.6829  40
  -2  -9  -9 112.068 33.5081  19
   2   9   9 41.6197 28.8944   8
  -2  -9 -10 88.3382 32.8019  10
   2   9  10 92.4746 30.2532   9
   2   9  10 89.0800 30.5077  16
   2   9  10 84.5329 29.0752   8
  -2  -9 -11 21.7667 20.8700  10
   2   9  11 26.0512 21.7530   9
   2   9  11 15.3784 18.9781  16
   2   9  11 39.5110 21.1520   8
  -2  -9 -12 47.3130 26.4278  10
   2   9  12 16.2455 17.1769   9
   2   9  12 16.8957 18.4562  16
   2   9  12 27.2769 20.2546   8
  -2 -10   0-4.61395 17.7767  20
  -2 -10   0 14.3223 16.6167  19
  -2 -10   0 3.80527 15.2231  17
  -2 -10   0 5.29396 17.2660  29
  -2 -10  -1 72.2754 27.0182  20
  -2 -10  -1 31.8678 21.1018  19
  -2 -10  -1 8.37018 16.9522  29
  -2 -10  -2 6.79094 21.0224  20
   2  10   2-1.98690 16.7502  40
  -2 -10  -2 27.6600 21.7240  19
  -2 -10  -3 29.4858 23.9090  20
  -2 -10  -3 54.1402 24.4505  19
  -2 -10  -4 31.4486 22.1684  20
  -2 -10  -4 45.5337 26.2160  19
  -2 -10  -5 57.2240 24.8171  20
   2  10   5 99.9985 28.8959  40
  -2 -10  -5 43.3042 28.9832  19
   2  10   6 335.358 45.0306  40
  -2 -10  -6 354.163 44.7851  19
   2  10   7 302.345 42.6639  40
  -2 -10  -7 302.025 40.2527  19
   2  10   7 291.779 34.0667   8
   2  10   8 717.252 59.5585  16
   2  10   8 673.244 48.4862   8
  -2 -10  -8 676.216 53.7857  19
  -2 -10  -9 68.7661 21.5588  10
  -2 -10  -9 50.2218 20.9344  17
   2  10   9 66.0122 22.8520   9
   2  10   9 44.2734 20.7967  16
   2  10   9 40.5918 17.1893   8
   3  -9  -5 340.084 39.5089  23
  -3   9   5 464.374 40.3657  12
   3  -9  -5 352.360 41.8156  24
   3  -9  -5 513.546 44.2686  20
   3  -9  -4 137.905 33.0455  23
   3  -9  -4 99.6075 24.7374  20
   3  -9  -4 33.3198 20.1348  24
  -3   9   4 59.6557 23.6860  12
   3  -9  -3 188.234 31.4506  23
   3  -9  -3 190.024 32.3362  20
   3  -9  -3 186.249 32.7165   3
   3  -9  -3 173.832 31.4729  24
   3  -9  -2 46.0288 21.5192  23
   3  -9  -2 69.6685 23.0875  20
   3  -9  -2 17.3785 15.7222   3
   3  -9  -2 40.8216 23.7927  24
   3  -9  -1 119.597 26.8207  23
   3  -9  -1 124.734 27.2760  20
   3  -9  -1 99.6394 26.5521  24
   3  -9   0 75.3700 23.4940  23
   3  -9   0 121.179 23.8197  20
   3  -9   0 131.074 25.1795  24
  -3   8   8-6.12417 18.9144  41
  -3   8   8 13.7375 17.1918  16
   3  -8  -8 13.3424 19.1953  15
   3  -8  -8-25.9715 22.4250  24
   3  -8  -7 592.357 49.1202  23
  -3   8   7 627.067 61.5913  41
  -3   8   7 670.725 53.7319  16
   3  -8  -7 699.244 58.6928  15
  -3   8   7 653.243 55.4687  12
   3  -8  -7 450.449 56.2247  24
  -3   8   6 56.2186 27.2975  41
   3  -8  -6 9.39910 23.0177  20
  -3   8   6 42.0717 19.5417  16
   3  -8  -6 61.8388 28.0287   3
   3  -8  -6 50.6652 25.4519  15
   3  -8  -6-15.0241 28.8605  24
  -3   8   6 51.7981 27.6866  12
   3  -8  -5 390.871 52.2430  23
   3  -8  -5 502.753 54.3907  20
   3  -8  -5 597.448 63.1590   3
  -3   8   5 537.964 48.5900  16
   3  -8  -5 411.585 45.9355  15
   3  -8  -5 471.366 54.3852  24
  -3   8   5 463.232 54.5109  12
   3  -8  -4 260.737 44.8667  23
   3  -8  -4 163.769 37.9956  21
   3  -8  -4 248.150 43.1798  20
   3  -8  -4 291.790 47.6128   3
   3  -8  -4 192.541 33.6592  15
   3  -8  -4 251.025 43.5275  24
   3  -8  -3 528.413 59.2036  23
   3  -8  -3 476.230 60.9182   3
   3  -8  -3 527.521 58.0176  20
   3  -8  -3 430.254 51.4682  21
   3  -8  -3 469.056 56.8248  24
   3  -8  -2 773.171 74.3672  23
   3  -8  -2 702.196 60.7678  21
   3  -8  -2 777.158 71.1883   3
   3  -8  -2 808.709 70.2503  17
   3  -8  -2 743.862 68.9636  24
   3  -8  -2 829.551 68.8526  20
   3  -8  -1 68.8422 34.1917  23
   3  -8  -1-17.3742 26.5041  21
   3  -8  -1 14.3219 25.5651  20
   3  -8  -1 19.9900 29.4675  17
   3  -8  -1 28.5190 24.6195   3
   3  -8  -1 36.0251 31.8084  24
   3  -8   0 258.943 46.2290  23
   3  -8   0 238.793 41.7221  21
   3  -8   0 292.693 44.7544  20
   3  -8   0 262.149 43.0631   3
   3  -8   0 250.500 44.2019  24
   3  -8   1 531.349 60.2115  23
   3  -8   1 468.111 46.2846  21
   3  -8   1 593.622 56.3967  20
   3  -8   1 513.763 56.6315   3
   3  -8   1 522.581 53.1514  24
   3  -8   2-37.8237 29.2762  23
   3  -8   2 32.3782 22.9674  20
   3  -8   2-2.22872 23.4427  21
   3  -8   2-50.0236 26.7871   3
   3  -8   2-20.8508 22.6143  24
   3  -8   3 562.910 47.0274  20
   3  -8   3 553.939 51.7545   3
   3  -8   3 522.375 49.2271  24
   3  -8   3 605.812 56.9176  23
   3  -8   4 22.9940 22.8625  23
   3  -8   4-15.9431 18.1712  24
   3  -8   5 576.909 45.5849  24
   3  -8   5 602.970 47.3795  23
  -3   7  10 292.339 38.8359  11
  -3   7  10 262.297 38.6291  41
  -3   7  10 348.046 39.5276  16
   3  -7 -10 315.234 46.0863  15
  -3   7   9 1111.09 78.9805  41
  -3   7   9 1328.55 79.6659  16
   3  -7  -9 1323.86 89.8722  15
  -3   7   8 570.043 63.2677  41
  -3   7   8 764.246 64.5677  16
   3  -7  -8 703.291 66.8544  15
  -3   7   8 657.415 58.2139  12
  -3   7   7 391.900 55.7490  41
  -3   7   7 507.306 56.1685  16
   3  -7  -7 418.334 55.3270   3
   3  -7  -7 508.300 61.2877  15
  -3   7   7 458.443 53.4934  12
   3  -7  -6 177.521 35.8603  23
   3  -7  -6 247.557 47.2571  20
   3  -7  -6 188.415 44.8292  18
  -3   7   6 209.240 39.9619  16
   3  -7  -6 201.964 41.5757   3
   3  -7  -6 203.878 43.7322  15
  -3   7   6 335.190 52.4909  12
   3  -7  -5 52.1917 32.6016  23
   3  -7  -5-0.19189 27.3265  20
   3  -7  -5 0.85686 29.0797  18
   3  -7  -5-0.77722 25.1114   3
  -3   7   5 24.7220 23.3853  16
   3  -7  -5-9.51532 25.9960  15
   3  -7  -5 18.8739 31.2477  24
   3  -7  -4 721.928 77.6493  23
   3  -7  -4 918.368 87.5349   3
   3  -7  -4 895.214 77.4159  20
   3  -7  -4 733.108 77.2749  18
   3  -7  -4 770.042 74.1724  17
  -3   7   4 962.561 74.0425  16
   3  -7  -4 754.717 72.5333  15
   3  -7  -4 726.007 75.2631  24
   3  -7  -3 970.126 88.7458  23
   3  -7  -3 1121.73 95.2510   3
   3  -7  -3 1144.65 90.0033  20
   3  -7  -3 1152.15 93.6668  17
   3  -7  -3 1043.12 83.5327  15
   3  -7  -3 1098.99 92.1069  18
   3  -7  -3 1027.53 87.2659  24
   3  -7  -2 1624.98 116.678  23
   3  -7  -2 1808.31 114.719  20
   3  -7  -2 1766.57 113.575  17
   3  -7  -2 1553.73 98.0023  15
   3  -7  -2 1602.79 110.721   3
   3  -7  -2 1582.39 107.739  24
   3  -7  -1 2143.68 134.352  23
   3  -7  -1 2300.01 133.628   3
   3  -7  -1 2289.41 119.562  21
   3  -7  -1 2505.24 131.179  20
   3  -7  -1 2426.62 134.025  17
   3  -7  -1 2223.32 123.061  24
   3  -7   0 26.2333 33.5301  23
   3  -7   0 22.3676 27.5914  21
   3  -7   0 66.5172 33.9927  20
   3  -7   0 86.7146 39.8266  17
   3  -7   0-12.6109 33.3671   3
   3  -7   0 33.3396 31.0533  24
   3  -7   1 445.678 66.0041  23
   3  -7   1 461.139 55.7461  21
   3  -7   1 573.082 64.6896  20
   3  -7   1 562.410 67.6408  17
   3  -7   1 537.836 65.8953   3
   3  -7   1 512.954 59.8056  24
   3  -7   2 2090.84 123.586  23
   3  -7   2 2069.50 109.643  21
   3  -7   2 2019.48 117.334   3
   3  -7   2 2185.46 114.054  20
   3  -7   2 1922.62 109.212  24
   3  -7   3 2607.73 131.302  23
   3  -7   3 2374.68 112.273  21
   3  -7   3 2370.08 113.458  20
   3  -7   3 2347.07 122.868   3
   3  -7   3 2344.36 113.290  24
   3  -7   4 189.960 41.3132  23
   3  -7   4 205.691 38.2469  21
   3  -7   4 187.323 34.8210  20
   3  -7   4 155.488 35.1176   3
   3  -7   4 205.492 40.8367  24
   3  -7   5 171.839 36.3831  23
   3  -7   5 166.107 35.5298  21
   3  -7   5 176.426 32.8310  24
   3  -7   6 120.942 30.3713  23
   3  -7   6 124.101 27.6410  21
   3  -7   6 129.596 30.5014  24
   3  -7   7 131.811 25.9810  23
   3  -7   7 120.160 25.4999  21
   3  -7   7 71.0287 25.8110  24
  -3   6  12 27.5324 17.5204  11
  -3   6  12 30.2362 17.1481  16
   3  -6 -12 35.3168 20.8979  15
   3  -6 -12 30.2256 20.3536  14
  -3   6  11-7.14376 20.6281  11
  -3   6  11 9.88650 18.4274  41
  -3   6  11 17.1494 17.3431  16
   3  -6 -11 24.7312 28.7149  15
   3  -6 -11 8.32313 19.8514  14
  -3   6  10 718.057 58.1974  11
  -3   6  10 678.105 60.1520  16
   3  -6 -10 737.916 70.2387  15
   3  -6 -10 699.611 63.1787  14
  -3   6  10 591.764 60.4686  41
  -3   6   9 1273.12 92.5322  41
  -3   6   9 1472.83 91.4376  16
   3  -6  -9 1407.49 103.136  15
   3  -6  -9 1508.09 96.2188  14
  -3   6   9 1195.34 77.1884  12
  -3   6   8 284.408 52.3598  41
  -3   6   8 313.688 47.5207  16
   3  -6  -8 380.937 64.9319  15
   3  -6  -8 332.857 50.6309  14
  -3   6   8 379.129 53.4838  12
  -3   6   7 1026.01 90.3048  41
  -3   6   7 1099.55 86.1955  16
   3  -6  -7 1126.36 100.460  15
   3  -6  -7 921.680 76.1623  14
   3  -6  -7 1075.06 86.4038   3
  -3   6   7 1051.55 85.3660  12
   3  -6  -6 123.972 36.1550  23
   3  -6  -6 141.776 37.7638  20
   3  -6  -6 116.482 43.8542  18
   3  -6  -6 108.677 35.4696   3
  -3   6   6 138.625 39.4614  16
   3  -6  -6 93.8622 38.6511  15
   3  -6  -6 156.663 35.8905  14
  -3   6   6 150.765 40.6755  12
   3  -6  -5 178.980 45.3919  23
   3  -6  -5 199.370 46.7281  20
   3  -6  -5 162.073 39.9987  18
   3  -6  -5 230.183 47.3224   3
  -3   6   5-90.0731 164.488  36
  -3   6   5 272.809 49.7545  16
  -3   6   5 44.9169 166.855   5
   3  -6  -5 177.260 44.2365  15
   3  -6  -5 202.003 41.3182  14
   3  -6  -5 342.440 167.227   4
   3  -6  -4 239.037 49.4475  23
   3  -6  -4 299.123 55.3658  20
   3  -6  -4 306.584 56.2066  18
   3  -6  -4 348.800 59.3628  17
   3  -6  -4 262.378 50.9868   3
  -3   6   4 199.118 108.413  36
  -3   6   4 270.378 47.0362  16
  -3   6   4 288.025 137.232   5
   3  -6  -4 246.495 46.4331  15
   3  -6  -4 276.472 43.2818  14
   3  -6  -4 320.740 212.088   4
   3  -6  -3 213.110 45.1724  23
   3  -6  -3 276.770 53.1519  20
   3  -6  -3 285.034 55.2762  18
   3  -6  -3 235.592 50.5895  17
   3  -6  -3 271.957 54.3611   3
  -3   6   3 260.497 177.245  36
  -3   6   3 266.713 44.9248  16
  -3   6   3 268.102 173.329   5
   3  -6  -3 256.622 51.1980  15
   3  -6  -3 25.9262 114.114   4
   3  -6  -3 241.150 53.8243  24
   3  -6  -2 5942.52 221.765  23
   3  -6  -2 5686.01 213.255   3
   3  -6  -2 6185.85 211.159  20
   3  -6  -2 5913.19 215.791  18
  -3   6   2 5781.05 771.039   5
   3  -6  -2 5849.28 213.221  17
  -3   6   2 5936.13 773.408  36
   3  -6  -2 5878.21 210.737  15
   3  -6  -2 5707.40 776.239   4
   3  -6  -2 5431.48 201.199  24
   3  -6  -1 317.857 61.0280  23
   3  -6  -1 345.674 51.9375  20
   3  -6  -1 292.978 51.8138  18
   3  -6  -1 376.729 58.9989  17
   3  -6  -1 360.190 58.6203   3
  -3   6   1 236.879 175.942  36
  -3   6   1 221.611 178.144   5
   3  -6  -1 340.417 50.3922  15
   3  -6  -1 387.251 242.687   4
   3  -6  -1 309.462 55.7546  24
   3  -6   0 1523.18 117.529  23
   3  -6   0 1574.63 111.043   3
   3  -6   0 1659.66 110.957  20
   3  -6   0 1673.04 115.385  17
  -3   6   0 1549.35 413.025  36
   3  -6   0 1516.93 99.9291  15
  -3   6   0 1701.06 436.164   5
   3  -6   0 1182.33 365.794   4
   3  -6   0 1504.71 107.035  24
   3  -6   1 1953.60 129.739  23
   3  -6   1 1924.95 121.325   3
   3  -6   1 1999.79 120.653  21
   3  -6   1 1995.98 119.418  20
   3  -6   1 2067.88 126.943  17
  -3   6  -1 1706.26 448.274  36
  -3   6  -1 1792.61 458.467   5
   3  -6   1 1704.81 430.117   4
   3  -6   1 2001.92 118.704  24
   3  -6   2 8.88022 35.1828  23
   3  -6   2 59.2890 31.2482  20
   3  -6   2 43.3438 35.1038  17
   3  -6   2 62.0321 31.5630   3
  -3   6  -2 19.7161 152.050  36
   3  -6   2 6.68742 30.0091  21
   3  -6   2 26.8535 89.7465   4
   3  -6   2 54.7442 36.8174  24
   3  -6   3 1614.25 113.561  23
   3  -6   3 1452.98 97.0316  20
   3  -6   3 1496.21 104.575  21
   3  -6   3 1492.46 103.315   3
  -3   6  -3 1193.85 357.141  36
  -3   6  -3 1055.22 342.767   5
   3  -6   3 1532.85 96.8032  29
   3  -6   3 1423.29 361.211   4
   3  -6   3 1482.14 98.6145  24
   3  -6   4 1253.46 98.3262  23
   3  -6   4 1172.42 88.4336  21
   3  -6   4 1146.43 88.4171   3
   3  -6   4 1156.96 83.3882  20
   3  -6   4 1139.41 81.3720  29
   3  -6   4 1092.67 82.9998  24
   3  -6   5 3243.69 135.940  21
   3  -6   5 2920.95 131.713   3
   3  -6   5 2844.87 117.838  20
   3  -6   5 3082.27 132.075  24
   3  -6   5 3337.47 149.519  23
   3  -6   6 404.813 55.7587  23
   3  -6   6 355.883 46.3846  21
   3  -6   6 353.233 47.6679  24
   3  -6   7 631.746 58.9506  21
   3  -6   7 685.189 59.7334  24
   3  -6   7 714.761 65.8092  23
   3  -6   8 1140.26 69.7019  21
   3  -6   8 1038.66 67.1670  24
   3  -6   8 1144.52 72.7807  23
   3  -6   9 29.6346 18.6467  23
   3  -6   9-19.3564 22.1802  21
   3  -6   9 11.8319 18.0194  24
  -3   5  12 103.642 27.2984  11
  -3   5  12 119.984 27.7065  16
   3  -5 -12 82.0843 27.0065  15
   3  -5 -12 121.175 32.8565  14
  -3   5  11 697.836 60.2543  11
  -3   5  11 525.011 52.7813  41
  -3   5  11 686.731 61.0153  16
   3  -5 -11 637.271 67.8321  15
   3  -5 -11 708.154 66.0396  14
  -3   5  10 15.8225 29.5735  11
  -3   5  10-1.11035 23.3891  41
  -3   5  10 12.7769 26.8015  16
   3  -5 -10-8.14167 30.5707  15
   3  -5 -10 61.2944 34.5341  14
  -3   5  10-10.9225 20.9017  12
  -3   5   9 704.168 70.3453  41
  -3   5   9 762.959 72.6435  16
   3  -5  -9 844.489 86.1082  15
   3  -5  -9 748.653 74.5590  14
  -3   5   9 721.208 67.1893  12
  -3   5   8 4835.34 190.426  41
  -3   5   8 5506.21 193.880  16
   3  -5  -8 5453.76 217.123  15
   3  -5  -8 5649.29 204.755  14
  -3   5   8 5135.85 179.533  12
   3  -5  -7 9975.61 264.728   3
  -3   5   7 8494.00 259.186  41
  -3   5   7 7999.03 814.238  36
  -3   5   7 9301.32 260.736  16
   3  -5  -7 9453.52 291.667  15
   3  -5  -7 9404.65 267.148  14
  -3   5   7 9196.94 253.350  12
   3  -5  -6 61.2268 37.0344  20
   3  -5  -6 89.9286 39.3576  18
   3  -5  -6 89.3687 31.0579   3
  -3   5   6 266.581 193.364  36
  -3   5   6 69.4955 31.3084  16
   3  -5  -6 56.2652 36.4674  15
   3  -5  -6 62.4681 29.0853  14
   3  -5  -6-110.974 198.959   4
  -3   5   6 104.625 39.4804  12
   3  -5  -5 10848.4 277.994  23
   3  -5  -5 12227.6 309.798   3
   3  -5  -5 11453.0 299.032  20
  -3   5   5 11141.2 1004.30   5
  -3   5   5 11837.8 1051.01  36
  -3   5   5 11649.5 292.272  16
   3  -5  -5 11996.8 329.671  15
   3  -5  -5 11432.5 290.213  14
   3  -5  -5 11440.4 1069.64   4
   3  -5  -5 11183.8 307.915  18
   3  -5  -4 23.1590 37.4903  23
   3  -5  -4 98.2821 35.9522  20
   3  -5  -4 32.1968 29.4761  18
   3  -5  -4 36.8277 28.4158  17
   3  -5  -4 75.7419 34.6028   3
  -3   5   4 293.275 200.832  36
  -3   5   4 29.8718 23.5585  16
  -3   5   4 17.0285 140.722   5
   3  -5  -4 46.5308 33.3484  15
   3  -5  -4 41.1898 27.7683  14
   3  -5  -4 49.4611 116.809   4
   3  -5  -3 19.9460 30.9041  23
   3  -5  -3-10.1985 28.7055  20
   3  -5  -3 40.1309 36.0473  18
   3  -5  -3 4.99224 28.3083  17
   3  -5  -3-36.5053 35.3697   3
  -3   5   3-1.93778 20.5900  16
  -3   5   3-83.4737 119.929   5
   3  -5  -3 19.6735 32.8497  15
   3  -5  -3-9.30876 23.3209  14
   3  -5  -3-25.2841 123.190   4
   3  -5  -2 147.764 41.9284  23
   3  -5  -2 285.915 54.1521  20
   3  -5  -2 229.258 48.6909  18
   3  -5  -2 232.518 46.1298  17
   3  -5  -2 304.870 53.3451   3
  -3   5   2 264.697 180.686  36
  -3   5   2 218.615 40.5645  16
  -3   5   2 160.165 132.594   5
   3  -5  -2 232.679 53.5939  15
   3  -5  -2 234.867 42.3846  14
   3  -5  -2 133.734 139.615   4
   3  -5  -2 177.967 43.0870  24
   3  -5  -1 31.9832 32.3585  23
   3  -5  -1 46.7313 36.4344  20
   3  -5  -1 36.3915 28.9994  18
   3  -5  -1 18.6512 28.8569  17
   3  -5  -1 5.89328 34.9761   3
  -3   5   1 210.192 185.804  36
  -3   5   1-19.1776 120.787   5
   3  -5  -1 25.4795 29.7843  15
   3  -5  -1 15.4285 119.224   4
   3  -5  -1 33.6655 28.6694  24
   3  -5   0 521.634 68.9548  23
   3  -5   0 517.444 60.9848  20
   3  -5   0 501.025 67.7143  17
   3  -5   0 482.789 64.8623   3
  -3   5   0 462.951 222.818  36
  -3   5   0 460.275 243.688   5
   3  -5   0 454.685 60.1554  15
   3  -5   0 560.018 272.876   4
   3  -5   0 412.126 58.7845  24
   3  -5   1 2104.18 133.002  23
   3  -5   1 2041.09 120.073   3
   3  -5   1 1926.73 115.678  20
   3  -5   1 2076.36 125.234  17
  -3   5  -1 1831.04 424.884  36
   3  -5   1 1979.50 117.000  15
  -3   5  -1 2124.04 461.960   5
   3  -5   1 2040.34 448.092   4
   3  -5   1 1951.57 116.146  24
   3  -5   2-18.2884 31.7172  23
   3  -5   2 24.4904 33.0842  21
   3  -5   2-35.1354 35.1700  20
   3  -5   2-48.3660 35.7196  17
   3  -5   2 11.3815 28.9581   3
  -3   5  -2 3.33845 109.526  36
   3  -5   2 26.2979 29.3194  29
   3  -5   2 2.07898 95.5858   4
   3  -5   2-9.38773 31.5934  24
   3  -5   3 3490.45 167.337  23
   3  -5   3 3442.58 156.333   3
   3  -5   3 3647.51 157.229  21
   3  -5   3 3249.84 147.746  20
  -3   5  -3 3275.55 568.442   5
  -3   5  -3 3135.92 549.908  36
   3  -5   3 3638.50 583.822   4
   3  -5   3 3324.63 141.969  29
   3  -5   3 3527.77 149.174  24
   3  -5   4 12766.2 321.434  23
   3  -5   4 12479.4 298.922   3
   3  -5   4 13243.9 301.089  21
   3  -5   4 11505.8 277.875  20
  -3   5  -4 10380.5 987.138   5
  -3   5  -4 10563.9 1014.87  36
   3  -5   4 11213.1 1002.40   4
   3  -5   4 12152.6 282.186  29
   3  -5   4 12218.1 282.496  24
   3  -5   5 537.131 68.0822  23
   3  -5   5 591.628 62.8388   3
   3  -5   5 487.055 55.0501  20
  -3   5  -5 435.820 223.115  36
   3  -5   5 566.866 64.9831  29
   3  -5   5 570.935 65.8227  21
   3  -5   5 633.783 251.814   4
   3  -5   5 568.245 62.3193  24
   3  -5   6 2651.30 128.778  21
   3  -5   6 2680.05 98.5858  30
   3  -5   6 2725.78 128.568  29
   3  -5   6 2536.39 124.686  24
   3  -5   6 2696.64 139.541  23
   3  -5   7 76.7394 35.9139  23
   3  -5   7 44.3458 29.4414  21
   3  -5   7 18.6269 16.0803  30
   3  -5   7-4.83728 31.5480  24
   3  -5   8 1609.57 95.1569  21
   3  -5   8 1611.34 76.2934  30
   3  -5   8 1585.16 89.8757  24
   3  -5   8 1626.05 97.4222  23
   3  -5   9 725.409 60.4323  21
   3  -5   9 627.406 46.8698  30
   3  -5   9 641.513 55.0782  24
   3  -5   9 606.897 56.9340  23
   3  -5  10 308.961 38.5800  23
   3  -5  10 325.755 39.2629  21
   3  -5  10 331.359 31.8061  30
   3  -5  10 273.632 39.1125  24
   3  -5  11 94.0581 24.7273  21
   3  -5  11 131.040 19.4794  30
  -3   4  13 118.305 24.6862  11
  -3   4  13 146.974 24.8810  16
   3  -4 -13 137.668 28.6750  15
  -3   4  13 96.0398 24.3409  31
   3  -4 -13 96.4573 27.6033  14
  -3   4  13 85.9544 20.7395  25
  -3   4  12 1044.21 69.8071  11
  -3   4  12 1183.03 73.3896  16
   3  -4 -12 1042.38 77.1866  15
   3  -4 -12 1110.34 80.7825  14
  -3   4  11 78.7768 35.2595  11
  -3   4  11 68.9844 32.2549  41
  -3   4  11 63.4324 29.9387  16
   3  -4 -11 13.0063 27.7425  15
   3  -4 -11 34.8615 31.3740  14
  -3   4  10 557.075 63.8406  11
  -3   4  10 501.889 58.5120  41
  -3   4  10 543.597 60.0288  16
   3  -4 -10 590.630 71.8947  15
   3  -4 -10 587.958 69.0924  14
  -3   4  10 464.413 50.5917  12
  -3   4   9 600.808 63.9921  41
  -3   4   9 731.222 72.6488  16
   3  -4  -9 676.849 78.1283  15
   3  -4  -9 747.184 81.1065  14
  -3   4   9 613.522 63.5297  12
  -3   4   8 1356.16 98.5337  41
  -3   4   8 1720.78 108.586  16
   3  -4  -8 1694.88 122.981  15
   3  -4  -8 1788.13 119.425  14
  -3   4   8 1635.89 101.850  12
   3  -4  -7 3894.85 159.252   3
  -3   4   7 3391.19 157.252  41
  -3   4   7 3822.95 162.615  16
   3  -4  -7 3742.19 185.450  15
   3  -4  -7 3838.99 175.031  14
  -3   4   7 3861.24 161.627  12
   3  -4  -6 6357.12 211.419   3
  -3   4   6 5980.75 691.855   5
   3  -4  -6 3923.76 443.123  38
   3  -4  -6 5769.64 722.902   4
   3  -4  -6 6285.07 220.860  14
  -3   4   6 5216.96 196.639  41
  -3   4   6 6586.41 212.347  12
  -3   4   6 5402.04 656.127  36
   3  -4  -5 30282.4 501.154   3
   3  -4  -5 28844.0 488.982  20
  -3   4   5 30108.4 1582.56   5
  -3   4   5 29138.4 1562.24  36
  -3   4   5 29481.3 483.126  16
   3  -4  -5 29115.2 529.844  15
   3  -4  -5 31220.8 1687.06   4
   3  -4  -5 29872.5 505.291  14
  -3   4   5 30244.9 492.655  12
   3  -4  -4 1270.52 98.7625   3
   3  -4  -4 1328.41 98.2570  20
  -3   4   4 1336.77 93.9364  16
  -3   4   4 1587.28 373.891  36
  -3   4   4 1523.76 367.512   5
   3  -4  -4 1282.52 105.618  15
   3  -4  -4 1180.61 95.0624  18
   3  -4  -4 1262.55 94.8663  14
   3  -4  -4 1518.48 385.803   4
   3  -4  -3 5050.27 187.346  23
   3  -4  -3 4734.94 183.939  20
   3  -4  -3 4876.93 190.067  18
  -3   4   3 5772.96 687.746   5
  -3   4   3 4917.76 656.270  36
  -3   4   3 5072.82 178.677  16
   3  -4  -3 5243.19 206.038  15
   3  -4  -3 4867.89 658.471   4
   3  -4  -3 5049.72 184.026  14
   3  -4  -3 5168.34 193.021   3
   3  -4  -2 18.1769 26.9689  23
   3  -4  -2 29.6267 24.6026  20
   3  -4  -2-14.7312 26.1270  18
   3  -4  -2 15.2070 31.6382   3
   3  -4  -2 4.91451 26.2896  17
  -3   4   2 4.16260 110.830  36
  -3   4   2 20.0848 34.8334  16
  -3   4   2-65.2147 114.182   5
   3  -4  -2 14.5257 27.5961  15
   3  -4  -2-18.4021 25.0360  14
   3  -4  -2-40.1780 137.178   4
   3  -4  -1 598.750 72.7492  23
   3  -4  -1 612.331 65.6237  20
   3  -4  -1 587.034 68.5604  18
   3  -4  -1 581.390 71.1392  17
  -3   4   1 644.421 60.6152  16
  -3   4   1 414.507 227.864  36
  -3   4   1 481.496 224.160   5
   3  -4  -1 565.699 69.4885  15
   3  -4  -1 635.313 65.4753  14
   3  -4  -1 694.158 244.699   4
   3  -4  -1 416.541 56.3656  24
   3  -4  -1 583.749 67.0310   3
   3  -4   0 77.4486 36.6987  23
   3  -4   0 91.3177 30.3562  20
   3  -4   0 37.9509 26.7192   3
   3  -4   0 37.1101 29.4691  17
  -3   4   0 12.2655 106.080  36
  -3   4   0 99.9370 171.324   5
   3  -4   0 36.6672 29.5405  15
   3  -4   0 74.0096 26.2943  14
   3  -4   0 148.045 169.610   4
   3  -4   0 63.0130 30.2535  24
   3  -4   1 1646.74 113.564  23
   3  -4   1 1516.53 101.402  20
   3  -4   1 1562.81 105.462  17
  -3   4  -1 1636.11 396.021  36
   3  -4   1 1549.12 103.840  15
  -3   4  -1 1621.20 375.246   5
   3  -4   1 1399.39 91.5082  14
   3  -4   1 1460.58 361.079   4
   3  -4   1 1430.64 94.8375  24
   3  -4   1 1666.09 107.663   3
   3  -4   2 91.7280 33.4414  23
   3  -4   2 17.5104 26.2867  20
   3  -4   2 50.5735 29.1992   3
   3  -4   2 79.3797 41.3212  17
  -3   4  -2 140.560 169.487  36
  -3   4  -2 142.137 148.210   5
   3  -4   2 82.4819 31.4151  15
   3  -4   2 37.2449 91.7027   4
   3  -4   2 27.2089 25.4809  24
   3  -4   3 469.847 64.1076  23
   3  -4   3 475.562 58.4176  20
   3  -4   3 553.039 62.5996   3
  -3   4  -3 579.667 261.347  36
  -3   4  -3 502.913 220.650   5
   3  -4   3 541.939 64.3738  21
   3  -4   3 524.437 58.9869  29
   3  -4   3 676.200 259.096   4
   3  -4   3 515.637 60.2855  24
   3  -4   4 3903.02 174.105  23
   3  -4   4 3987.77 163.867   3
   3  -4   4 4156.17 161.483  21
   3  -4   4 3693.88 152.805  20
  -3   4  -4 3508.25 559.729   5
   3  -4   4 3888.43 565.003   4
   3  -4   4 3882.30 154.554  29
  -3   4  -4 3549.70 571.652  36
   3  -4   4 3853.07 151.794  24
   3  -4   5 5780.44 194.127   3
   3  -4   5 6577.19 205.978  21
   3  -4   5 5530.71 179.933  20
  -3   4  -5 5796.50 703.493   5
  -3   4  -5 5409.84 707.230  36
   3  -4   5 5517.40 673.384   4
   3  -4   5 5890.97 192.273  29
   3  -4   5 6126.42 192.010  24
   3  -4   5 6501.32 221.893  23
   3  -4   6 7102.06 209.642   3
   3  -4   6 7972.57 227.135  21
   3  -4   6 7810.14 183.380  30
   3  -4   6 7427.56 219.392  29
   3  -4   6 7436.37 177.444  25
   3  -4   6 7447.61 211.851  24
   3  -4   6 7726.40 241.587  23
   3  -4   7 121.742 44.7208  23
   3  -4   7 167.173 32.4339  30
   3  -4   7 142.271 42.4686  21
   3  -4   7 107.665 25.7688  25
   3  -4   8 166.468 42.3557  23
   3  -4   8 178.733 38.4700  21
   3  -4   8 185.083 33.5282  30
   3  -4   8 150.507 27.6418  25
   3  -4   8 172.176 39.9641  24
   3  -4   9 944.784 76.2217  21
   3  -4   9 934.416 63.3732  30
   3  -4   9 897.949 57.2502  25
   3  -4   9 846.117 67.7608  24
   3  -4   9 974.940 79.6057  23
   3  -4  10 183.687 41.6172  23
   3  -4  10 174.160 38.5873  21
   3  -4  10 141.003 27.5610  30
   3  -4  10 146.017 25.3425  25
   3  -4  10 196.086 35.8043  24
   3  -4  11-10.2793 23.3020  23
   3  -4  11-1.59411 14.7202  30
   3  -4  11 33.4223 27.7607  21
   3  -4  11-14.1800 21.0583  24
   3  -4  12 500.464 44.4417  21
   3  -4  12 476.976 34.7799  30
  -3   3  13 249.638 34.9986  11
  -3   3  13 290.038 32.3009  16
  -3   3  13 263.310 32.4007  31
   3  -3 -13 230.136 38.0690  14
  -3   3  13 206.392 26.7606  25
  -3   3  12 385.259 45.9676  11
  -3   3  12 436.224 45.5926  16
   3  -3 -12 356.261 47.2725  15
   3  -3 -12 402.669 52.0698  14
   3  -3 -12 359.726 48.3617  13
  -3   3  12 370.929 46.8229   2
  -3   3  12 318.736 38.1375  25
  -3   3  11 136.242 38.9608  11
  -3   3  11 88.7502 31.4193  41
  -3   3  11 87.4322 32.7181   2
  -3   3  11 117.226 30.4848  16
   3  -3 -11 70.9256 25.6593  15
   3  -3 -11 80.0173 39.6876  14
   3  -3 -11 89.9966 36.2949  13
  -3   3  11 51.0127 21.2100  12
  -3   3  10 611.902 65.6543  11
  -3   3  10 520.685 57.5451  41
  -3   3  10 774.237 69.5897  16
   3  -3 -10 662.722 74.4399  15
   3  -3 -10 699.051 77.1973  14
  -3   3  10 499.166 56.1599   2
  -3   3  10 636.372 60.8119  12
  -3   3   9 964.255 81.8120  11
  -3   3   9 814.953 74.1756  41
  -3   3   9 1105.33 87.2284  16
   3  -3  -9 1006.36 91.1853  15
   3  -3  -9 876.867 87.9315  14
  -3   3   9 998.583 79.6303   2
  -3   3   9 912.269 78.9244  12
  -3   3   8 16.3459 26.9530  41
  -3   3   8-0.02323 20.9470   2
   3  -3  -8-20.3093 100.594  38
  -3   3   8-15.4951 30.0005  16
   3  -3  -8-22.2256 34.7085  15
   3  -3  -8 3.17958 32.9163  14
  -3   3   8 5.47672 28.2666  12
  -3   3   7 268.055 56.5510  41
  -3   3   7 341.265 48.3523   2
   3  -3  -7 161.994 98.6328  38
  -3   3   7 301.839 48.6241  16
   3  -3  -7 371.453 61.6498  15
   3  -3  -7 355.646 61.0295  14
   3  -3  -7 316.553 54.3513  13
  -3   3   7 323.279 52.2842  12
  -3   3   6 5326.71 188.555  41
  -3   3   6 6281.45 684.893   5
  -3   3   6 5456.64 601.401  36
  -3   3   6 5703.13 197.714  16
   3  -3  -6 5990.94 229.133  15
   3  -3  -6 6188.94 709.395   4
   3  -3  -6 6092.68 219.253  14
  -3   3   6 6108.48 186.876   2
   3  -3  -6 5497.81 183.222  13
  -3   3   6 6174.28 206.515  12
   3  -3  -6 6246.48 204.316   3
   3  -3  -5 1487.28 260.693  38
  -3   3   5 2532.90 422.474  36
  -3   3   5 2244.63 122.149  16
   3  -3  -5 2356.17 141.578  15
   3  -3  -5 2488.61 455.873   4
   3  -3  -5 2359.55 131.778  14
  -3   3   5 2062.28 114.599  41
  -3   3   5 2223.26 407.831   5
  -3   3   5 2355.77 125.428  12
   3  -3  -5 2463.95 129.871   3
   3  -3  -4 10162.5 264.528  20
  -3   3   4 10506.1 869.049  36
  -3   3   4 9994.33 256.247  16
   3  -3  -4 10237.6 293.072  15
   3  -3  -4 10549.4 930.914   4
   3  -3  -4 10302.8 274.268  14
  -3   3   4 10521.7 887.422   5
  -3   3   4 10566.3 264.944  12
   3  -3  -4 10326.3 268.861   3
   3  -3  -3 329.843 51.7677  20
   3  -3  -3 467.510 58.5840   3
  -3   3   3 457.670 180.199  36
  -3   3   3 363.878 49.2352  16
  -3   3   3 459.767 211.849   5
   3  -3  -3 378.369 60.9571  15
   3  -3  -3 515.872 64.8934  14
   3  -3  -3 376.805 207.314   4
   3  -3  -2 138.729 38.3211  23
   3  -3  -2 141.639 35.5499  20
  -3   3   2 179.691 157.318  36
  -3   3   2 178.308 37.0980  16
  -3   3   2 266.013 135.019   5
   3  -3  -2 160.812 40.1890  15
   3  -3  -2 179.477 40.4842  14
   3  -3  -2 330.024 180.110   4
   3  -3  -1 1107.86 89.2808  23
   3  -3  -1 1200.87 88.8504  20
  -3   3   1 1138.95 78.4400  16
  -3   3   1 1357.80 337.013  36
  -3   3   1 1576.17 356.504   5
   3  -3  -1 1106.53 91.1456  15
   3  -3  -1 1225.63 86.3512  14
   3  -3  -1 1294.64 323.043   4
   3  -3   0 4849.37 187.396  23
   3  -3   0 4794.70 172.239  20
  -3   3   0 4759.96 591.294   5
   3  -3   0 4876.71 187.377  15
   3  -3   0 4984.86 610.774   4
   3  -3   0 4791.23 168.613  14
  -3   3   0 5335.25 639.162  36
   3  -3   0 3808.67 145.433  24
   3  -3   1 2448.17 132.086  23
   3  -3   1 2504.34 124.009  20
  -3   3  -1 2884.42 465.860   5
   3  -3   1 2636.10 136.278  15
   3  -3   1 2757.52 446.434   4
   3  -3   1 2397.37 116.195  14
   3  -3   1 2178.24 106.603  24
   3  -3   2 946.127 87.1014  23
   3  -3   2 995.273 78.0965  20
  -3   3  -2 754.674 216.254   5
   3  -3   2 885.130 78.1885  15
   3  -3   2 911.811 73.9178  14
   3  -3   2 1198.89 319.862   4
   3  -3   2 889.557 68.8608  24
   3  -3   3 342.354 53.0902  23
   3  -3   3 324.050 51.4882  21
   3  -3   3 305.825 46.5360  20
  -3   3  -3 333.132 183.471   5
   3  -3   3 360.848 52.2278   3
   3  -3   3 314.370 46.2345  14
   3  -3   3 122.456 93.7425   4
   3  -3   3 291.367 45.9703  24
   3  -3   4 23.2721 29.9464  23
   3  -3   4 64.4604 33.5646  21
   3  -3   4 46.0814 26.6336  20
   3  -3   4 29.4205 23.4877   3
  -3   3  -4-27.2118 82.2524   5
   3  -3   4 38.6659 28.8377  14
   3  -3   4 36.6319 85.9431   4
   3  -3   4 42.7156 24.5217  24
   3  -3   5 7149.42 212.990  21
  -3   3  -5 6822.23 748.225   5
   3  -3   5 7052.40 727.426   4
   3  -3   5 7203.08 166.681  25
   3  -3   5 7047.37 199.877  24
   3  -3   5 7033.97 211.871   3
   3  -3   5 7170.85 230.763  23
   3  -3   6 1765.32 102.616   3
   3  -3   6 1833.75 107.333  21
  -3   3  -6 1720.05 380.607   5
   3  -3   6 1936.25 93.1774  30
   3  -3   6 1907.05 83.7769  25
   3  -3   6 1761.36 364.067   4
   3  -3   6 1846.40 103.468  24
   3  -3   6 1900.89 119.571  23
   3  -3   7 15697.3 327.321  21
   3  -3   7 16479.0 287.859   9
   3  -3   7 15389.1 284.910  30
   3  -3   7 16358.0 265.025  25
   3  -3   7 16231.2 353.460  23
   3  -3   8 14726.4 313.814  21
   3  -3   8 14756.3 274.399   9
   3  -3   8 13720.6 276.123  31
   3  -3   8 15004.9 282.244  30
   3  -3   8 14521.9 249.613  25
   3  -3   8 14289.4 293.503  24
   3  -3   8 14815.4 335.585  23
   3  -3   9 3995.31 156.336  21
   3  -3   9 4106.37 139.536   9
   3  -3   9 4121.87 140.036  30
   3  -3   9 3989.53 121.663  25
   3  -3   9 4154.58 151.076  24
   3  -3   9 4067.80 166.325  23
   3  -3  10 27.0540 33.3858  23
   3  -3  10 80.9982 26.0663   9
   3  -3  10 44.8654 22.2981  30
   3  -3  10 31.6297 32.1747  21
   3  -3  10 64.2663 21.6460  25
   3  -3  10 7.99551 25.0733  24
   3  -3  11 804.614 68.8310  21
   3  -3  11 815.346 58.1665  30
   3  -3  11 619.240 43.6330  25
   3  -3  11 703.413 60.4472  24
   3  -3  11 714.080 65.6449  23
   3  -3  12 698.789 60.9455  21
   3  -3  12 545.241 47.0123  30
   3  -3  12 575.897 55.3918  23
   3  -3  13 103.962 31.9154  21
   3  -3  13 79.4224 19.3778  30
  -3   2  13 541.194 44.6945  11
  -3   2  13 653.059 50.0243  31
   3  -2 -13 603.138 56.4973  14
   3  -2 -13 645.868 57.1119  13
  -3   2  13 633.585 55.7980   2
  -3   2  12 1106.74 71.3262  11
  -3   2  12 1172.45 72.1725  16
   3  -2 -12 1148.32 83.4657  14
  -3   2  12 914.465 59.0234  25
  -3   2  11 13.3777 27.2675  11
  -3   2  11-6.12937 23.2504   2
  -3   2  11 62.3985 25.4057  16
   3  -2 -11-2.26391 26.5117  15
   3  -2 -11 12.5812 28.5347  14
  -3   2  11 45.6165 21.1177  25
  -3   2  11 3.90381 24.2693  12
  -3   2  10 3673.25 146.032  11
  -3   2  10 3751.64 151.768  16
   3  -2 -10 3506.62 158.861  15
   3  -2 -10 3790.08 167.741  14
  -3   2  10 3776.03 159.805   2
  -3   2  10 3253.54 139.654  12
  -3   2   9 738.779 70.2883  11
  -3   2   9 876.464 77.9121  16
   3  -2  -9 744.162 79.5303  15
   3  -2  -9 810.584 85.7104  14
  -3   2   9 812.619 77.1919   2
  -3   2   9 676.045 69.9492  12
  -3   2   8 403.788 55.5922  11
  -3   2   8 443.262 58.7701   2
  -3   2   8 389.980 51.2535  41
   3  -2  -8 265.241 108.450  38
  -3   2   8 501.944 60.1626  16
   3  -2  -8 455.708 64.5726  15
   3  -2  -8 403.373 61.0009  14
  -3   2   8 496.367 64.5114  12
  -3   2   7 1365.78 89.1216  41
   3  -2  -7 1035.53 221.471  38
   3  -2  -7 1689.13 345.766  37
  -3   2   7 1502.37 101.908  16
   3  -2  -7 1487.57 112.103  15
   3  -2  -7 1446.40 110.362  14
  -3   2   7 1516.22 102.394   2
  -3   2   7 1649.88 107.223  12
  -3   2   6 26143.7 429.190  41
  -3   2   6 29462.8 1436.07   5
   3  -2  -6 25664.8 1316.09  37
  -3   2   6 27825.4 459.085  16
   3  -2  -6 28859.9 514.195  15
   3  -2  -6 30987.9 1532.13   4
  -3   2   6 29198.6 474.111   2
   3  -2  -6 28122.2 494.051  14
  -3   2   6 29435.4 472.063  12
   3  -2  -6 29974.4 465.190   3
  -3   2   5 3640.58 142.004  41
  -3   2   5 4347.32 551.824   5
   3  -2  -5 3140.38 351.015  38
   3  -2  -5 3951.95 495.907  37
  -3   2   5 4110.96 490.064  36
  -3   2   5 3778.24 154.345  16
   3  -2  -5 4144.68 182.501  15
   3  -2  -5 3888.06 550.622   4
  -3   2   5 4141.03 159.312   2
   3  -2  -5 3957.14 171.126  14
   3  -2  -5 4148.48 154.843  13
  -3   2   5 4361.35 166.873  12
  -3   2   4 18.1537 24.7483  41
   3  -2  -4 20.4150 47.8072  38
   3  -2  -4 16.6649 120.016  37
  -3   2   4 22.8647 201.103  36
  -3   2   4-1.68490 20.8631  16
  -3   2   4 110.713 97.2438   5
   3  -2  -4 47.2615 34.0514  15
   3  -2  -4-6.33390 26.6267  14
   3  -2  -4 127.015 141.542   4
   3  -2  -4-0.87074 22.8314  13
  -3   2   4 49.8274 28.1379  12
   3  -2  -3 6469.70 201.837  20
   3  -2  -3 6507.44 600.871  37
  -3   2   3 6607.91 639.320  36
  -3   2   3 6331.95 194.360  16
   3  -2  -3 6834.75 228.193  15
   3  -2  -3 6914.31 716.515   4
   3  -2  -3 6354.16 209.045  14
   3  -2  -3 6616.18 185.537  13
  -3   2   3 7134.60 695.999   5
  -3   2   3 6454.45 198.335  12
   3  -2  -2 14267.2 304.997  20
   3  -2  -2 13968.0 857.598  37
  -3   2   2 16073.5 1017.55  36
  -3   2   2 14485.0 295.324  16
   3  -2  -2 14422.2 333.187  15
   3  -2  -2 16208.6 1081.65   4
   3  -2  -2 14330.0 312.183  14
   3  -2  -2 15367.1 280.308  13
  -3   2   2 15896.2 1035.57   5
  -3   2   2 14496.1 299.985  12
   3  -2  -1 737.295 67.7018  20
  -3   2   1 671.789 164.363  39
  -3   2   1 750.101 64.2422  16
  -3   2   1 868.885 254.113   5
   3  -2  -1 796.806 78.0778  15
   3  -2  -1 792.892 71.5008  14
   3  -2  -1 852.955 62.6687  13
   3  -2  -1 964.047 289.648   4
   3  -2   0 1829.25 105.023  23
   3  -2   0 1833.59 102.621  20
  -3   2   0 1416.56 231.719  39
  -3   2   0 1818.45 351.405   5
  -3   2   0 1788.95 92.6517  16
   3  -2   0 1982.19 115.166  15
   3  -2   0 1922.35 105.514  14
   3  -2   0 1712.81 340.856   4
   3  -2   1-20.9706 23.2183  23
   3  -2   1 17.7694 23.0081  20
  -3   2  -1-28.4455 22.4713  42
  -3   2  -1-42.9441 72.2258  39
  -3   2  -1 69.8137 105.479   5
   3  -2   1-0.54295 30.8408  15
   3  -2   1 20.0850 25.4001  14
   3  -2   1 22.4364 107.395   4
   3  -2   2 9.68187 24.1906  23
   3  -2   2 42.9770 27.4278  20
  -3   2  -2-5.32321 95.6091   5
   3  -2   2 42.9703 27.4727  15
   3  -2   2-11.0923 22.8323  14
   3  -2   2 21.3043 103.510   4
  -3   2  -2-35.7044 93.9178  39
   3  -2   3 2798.19 123.417  20
  -3   2  -3 2481.74 330.861  39
  -3   2  -3 2783.27 439.266   5
   3  -2   3 2792.86 443.942   4
   3  -2   3 2688.69 122.463  14
   3  -2   3 2612.12 123.282  21
   3  -2   3 2877.48 139.906  23
   3  -2   4 43.3237 29.0074  23
   3  -2   4 6.63675 21.4578  20
  -3   2  -4-60.0611 84.4198  39
  -3   2  -4 94.2999 86.1385   5
   3  -2   4-3.22529 21.6653  14
   3  -2   4 64.3888 116.856   4
   3  -2   4 11.3843 24.3923  21
   3  -2   5 1013.72 80.1539  21
  -3   2  -5 965.805 235.313  39
  -3   2  -5 1074.14 286.406   5
   3  -2   5 953.042 67.3021  30
   3  -2   5 969.259 71.5863  13
   3  -2   5 1013.10 269.033   4
   3  -2   5 932.062 68.8274  24
   3  -2   5 1019.76 83.5740  23
   3  -2   6 11678.6 272.113  21
  -3   2  -6 10931.3 882.985   5
   3  -2   6 11171.7 878.733   4
   3  -2   6 12377.9 248.705  30
   3  -2   6 11836.8 255.152  13
   3  -2   6 11416.8 250.517  24
   3  -2   6 11119.6 260.416   3
   3  -2   6 12105.0 295.809  23
   3  -2   7 14846.9 311.336  21
   3  -2   7 15374.5 280.045   9
   3  -2   7 15237.5 288.261  30
   3  -2   7 14525.9 292.558  13
   3  -2   7 14376.2 286.294  24
   3  -2   7 13837.3 286.747   3
   3  -2   7 15041.0 338.581  23
   3  -2   8 4143.02 149.505  22
   3  -2   8 4111.25 165.263  21
  -3   2  -8 3588.82 493.195  39
   3  -2   8 4506.25 149.445   9
   3  -2   8 3937.87 137.715  31
   3  -2   8 4438.98 153.722  30
   3  -2   8 4301.35 154.683  24
   3  -2   8 3999.73 173.056  23
   3  -2   9 4949.22 161.032  22
   3  -2   9 5436.46 185.570  21
   3  -2   9 5468.68 168.106   9
   3  -2   9 4868.56 154.555  31
   3  -2   9 5522.04 174.267  30
   3  -2   9 5280.51 172.097  24
   3  -2   9 5493.93 199.591  23
   3  -2  10 840.959 77.0951  21
  -3   2 -10 779.069 253.571  39
   3  -2  10 781.934 67.3637   9
   3  -2  10 791.597 68.8561  30
   3  -2  10 735.790 66.1359  24
   3  -2  10 888.418 84.1480  23
   3  -2  11 2052.71 109.769  21
   3  -2  11 1944.11 95.6790   9
   3  -2  11 1928.14 97.3222  30
   3  -2  11 1756.14 94.7918  24
   3  -2  11 1957.07 113.915  23
   3  -2  12 70.7078 41.6826  23
   3  -2  12-15.9385 32.1119  21
   3  -2  12 19.1236 22.3449   9
   3  -2  12-12.1216 21.2996  30
   3  -2  13 443.615 48.8544  23
   3  -2  13 466.860 41.6586   9
   3  -2  13 471.482 48.9420  21
   3  -2  13 471.543 43.4182  30
   3  -2  14 162.952 28.9845  21
   3  -2  14 182.365 25.9810  30
  -3   1  13-10.3693 17.3244  11
  -3   1  13 29.1245 19.7996   2
  -3   1  13 2.57286 18.7023  31
   3  -1 -13 8.05243 19.9713  14
  -3   1  13 42.8206 15.8062  28
   3  -1 -13-18.8939 22.0685  13
  -3   1  12 371.433 44.7096  11
  -3   1  12 424.556 42.3926  16
  -3   1  12 392.080 48.2161  31
   3  -1 -12 310.192 43.7595  14
  -3   1  12 398.208 37.2850  28
  -3   1  12 431.085 51.3014   2
  -3   1  11 681.320 63.5820  11
  -3   1  11 751.370 62.8553  16
   3  -1 -11 715.398 70.4401  14
  -3   1  11 781.957 54.5536  28
  -3   1  11 720.045 70.4583   2
  -3   1  11 618.159 59.1764  12
  -3   1  10 2842.57 127.388  11
   3  -1 -10 3132.77 151.999  14
  -3   1  10 3208.92 151.032   2
  -3   1  10 3162.72 116.953  28
  -3   1  10 2799.27 132.697  12
  -3   1  10 3352.30 141.026  16
  -3   1   9 34.6980 27.5686  11
  -3   1   9 105.876 35.9015   2
   3  -1  -9 36.9159 71.1216  38
   3  -1  -9 42.7778 126.913  37
  -3   1   9 160.777 41.4297  16
   3  -1  -9 108.398 39.8841  14
  -3   1   9 168.461 31.9698  28
  -3   1   9 141.632 40.5537  12
  -3   1   8 226.955 44.3359  11
   3  -1  -8 138.788 82.5603  38
   3  -1  -8 143.317 103.088  37
  -3   1   8 259.705 44.7158  16
   3  -1  -8 274.530 48.2413  15
   3  -1  -8 278.411 52.9766  14
  -3   1   8 292.940 51.0947   2
  -3   1   8 214.445 33.0282  28
  -3   1   8 271.443 51.1858  12
  -3   1   7 5074.65 174.885  11
  -3   1   7 5193.43 181.407  42
   3  -1  -7 3943.25 445.420  38
   3  -1  -7 4752.46 564.301  37
  -3   1   7 5948.03 199.692  16
   3  -1  -7 5507.65 207.975  15
  -3   1   7 5895.10 211.516   2
   3  -1  -7 5581.95 210.819  14
  -3   1   7 6182.08 207.950  12
  -3   1   6 3067.49 131.334  11
  -3   1   6 3433.34 473.250   5
  -3   1   6 3146.93 137.520  42
   3  -1  -6 2706.30 346.958  38
   3  -1  -6 3294.42 468.560  37
  -3   1   6 3462.86 148.058  16
   3  -1  -6 3470.51 162.423  15
   3  -1  -6 3702.35 508.343   4
   3  -1  -6 3566.55 164.827  14
  -3   1   6 3643.44 156.393  12
  -3   1   5 87.6039 35.7170  42
   3  -1  -5 125.121 71.8617  38
  -3   1   5 66.6999 131.335   5
  -3   1   5 83.5764 27.6529  16
   3  -1  -5 89.3942 36.0515  15
   3  -1  -5 106.729 39.6968  14
   3  -1  -5-9.28224 87.9388   4
   3  -1  -5 190.132 131.340  37
  -3   1   5 77.5449 28.9915  12
   3  -1  -4 27.4488 49.9196  38
   3  -1  -4 94.8028 93.6726  37
  -3   1   4 100.160 83.5036  36
  -3   1   4 249.586 150.278   5
  -3   1   4 65.3566 26.8346  16
   3  -1  -4 53.9622 30.1872  15
   3  -1  -4 57.4093 32.2095  14
   3  -1  -4-13.0710 101.255   4
   3  -1  -4 71.4643 32.6214  13
  -3   1   4 31.9404 24.2339  42
  -3   1   4 58.7995 28.4804  12
  -3   1   3 6486.51 183.520  42
   3  -1  -3 6830.90 196.366  40
  -3   1   3 7121.75 680.292   5
   3  -1  -3 6421.29 575.491  37
  -3   1   3 6644.39 593.927  36
  -3   1   3 6139.09 187.322  16
   3  -1  -3 6577.02 217.692  15
   3  -1  -3 7323.96 727.193   4
   3  -1  -3 6320.34 207.405  14
   3  -1  -3 6748.39 194.303  13
  -3   1   3 6570.41 196.308  12
  -3   1   2 2644.93 114.274  42
   3  -1  -2 2864.87 122.988  40
  -3   1   2 2540.27 355.246  39
  -3   1   2 3135.31 446.416   5
   3  -1  -2 2643.09 353.736  37
  -3   1   2 2808.32 398.194  36
  -3   1   2 2741.58 121.694  16
   3  -1  -2 2794.75 137.719  15
   3  -1  -2 3019.29 451.085   4
   3  -1  -2 2635.23 128.120  14
   3  -1  -2 2815.89 119.053  13
  -3   1   2 2795.32 123.788  12
   3  -1  -1 55.6499 25.2721  40
  -3   1   1-57.1561 95.1765  39
   3  -1  -1-72.6650 101.002  37
  -3   1   1 19.4524 19.5638  16
  -3   1   1 67.8057 131.672   5
  -3   1   1 32.6137 20.8833  42
   3  -1  -1 26.7602 21.6102  15
   3  -1  -1 60.7319 27.5543  14
   3  -1  -1-9.11342 96.9672   4
   3  -1  -1 2.61915 22.1051  13
  -3   1   1 41.2550 20.7133  12
  -3   1   0 4530.95 148.515  42
   3  -1   0 4732.01 154.717  40
  -3   1   0 4535.97 445.846  39
  -3   1   0 5100.23 572.361   5
   3  -1   0 4877.41 471.463  37
  -3   1   0 4766.00 152.242  16
   3  -1   0 4824.44 177.265  15
   3  -1   0 4811.00 560.858   4
   3  -1   0 4702.62 164.114  14
   3  -1   0 4987.73 149.473  13
  -3   1   0 4682.74 155.344  12
  -3   1  -1 6888.69 185.369  42
   3  -1   1 7967.04 209.121  20
   3  -1   1 7910.20 200.385  40
  -3   1  -1 7757.56 582.567  39
  -3   1  -1 7749.87 699.938   5
   3  -1   1 8378.53 615.784  37
   3  -1   1 7725.17 222.925  15
   3  -1   1 7586.41 698.421   4
   3  -1   1 7646.11 207.591  14
   3  -1   1 7963.67 189.739  13
  -3   1  -1 7208.07 192.077  12
   3  -1   2 44.8587 26.6175  23
   3  -1   2 41.1802 26.0976  20
   3  -1   2 22.1060 22.4698  40
  -3   1  -2-32.7320 76.0931  39
  -3   1  -2 18.1127 97.5105   5
   3  -1   2 27.4583 21.1562  15
   3  -1   2 15.4816 26.6214  14
   3  -1   2 36.6332 72.9511   4
   3  -1   2 36.1209 20.9643  13
   3  -1   3 10989.0 240.057  40
  -3   1  -3 9836.95 666.247  39
  -3   1  -3 10647.6 828.050   5
   3  -1   3 11140.6 838.905   4
   3  -1   3 10780.1 249.503  14
   3  -1   3 10842.4 229.822  13
   3  -1   3 9924.37 235.777  21
   3  -1   3 10608.7 258.222  23
   3  -1   4-3.13867 23.9471  23
   3  -1   4 3.89334 20.9025  21
   3  -1   4-17.1261 19.6897  40
  -3   1  -4 55.7254 69.4965  39
  -3   1  -4 54.6073 118.704   5
   3  -1   4 10.7776 21.7549  14
   3  -1   4-30.9139 76.6763   4
   3  -1   4-2.77661 21.6592  13
   3  -1   5 26.8447 29.6227  23
   3  -1   5 25.8906 24.6650  21
  -3   1  -5 168.760 119.222   5
   3  -1   5 56.7475 25.5529  14
   3  -1   5 11.7280 17.0843  30
  -3   1  -5 59.5280 66.6367  39
   3  -1   5 58.1710 91.1095   4
   3  -1   5 29.1668 25.1678  13
   3  -1   6 880.138 73.2614  21
  -3   1  -6 661.901 204.708  39
  -3   1  -6 761.396 234.815   5
   3  -1   6 881.889 68.2742  30
   3  -1   6 881.481 71.7300  13
   3  -1   6 858.042 249.626   4
   3  -1   6 896.399 79.3941  23
   3  -1   7 6599.62 200.602  21
  -3   1  -7 5839.79 629.720   5
  -3   1  -7 6067.44 608.621  39
   3  -1   7 6579.82 181.419   9
   3  -1   7 5420.21 586.687   4
   3  -1   7 6603.84 187.230  30
   3  -1   7 6639.94 197.970  13
   3  -1   7 6420.12 214.639  23
   3  -1   8 358.802 64.1549  23
  -3   1  -8 159.123 140.409  39
   3  -1   8 333.215 47.6076   9
   3  -1   8 295.548 48.5469  30
   3  -1   8 314.146 48.5494  13
   3  -1   8 406.395 57.8293  21
   3  -1   8 303.193 43.4627  24
   3  -1   9 3469.99 141.520  22
   3  -1   9 3651.69 155.677  21
   3  -1   9 3641.51 140.857   9
   3  -1   9 3325.57 135.148  24
   3  -1   9 3695.96 166.681  23
   3  -1  10 148.774 46.2632  23
   3  -1  10 170.569 38.2771  22
   3  -1  10 203.652 46.8699  21
  -3   1 -10 146.723 136.872  39
   3  -1  10 144.898 37.3252  30
   3  -1  10 192.827 42.2043   9
   3  -1  10 122.988 30.9381  24
   3  -1  11 215.420 49.3375  23
   3  -1  11 200.398 38.1993  22
   3  -1  11 174.300 48.6281  21
  -3   1 -11 357.600 178.867  39
   3  -1  11 246.612 41.5417   9
   3  -1  11 165.657 35.9375  30
   3  -1  12 43.9638 38.5334  23
   3  -1  12 27.6747 22.9657  22
   3  -1  12 53.5378 23.8075   9
   3  -1  12 22.1527 23.7132  30
   3  -1  12 94.9491 41.1456  21
   3  -1  13-54.9004 32.0661  23
   3  -1  13 48.2731 32.9289  21
   3  -1  13 4.31242 21.5324   9
   3  -1  13-25.4277 23.2212  30
   3  -1  14-2.85632 22.2863  23
   3  -1  14 8.67844 26.3511  21
   3  -1  14 17.1759 17.3992   9
   3  -1  14 5.81942 17.0204  30
   3  -1  15 144.211 21.4163  30
  -3   0  13 805.033 47.9853  11
  -3   0  13 862.093 55.6451  31
  -3   0  13 1023.00 50.1171  28
   3   0 -13 927.780 65.0257  13
  -3   0  13 921.395 54.4340  26
  -3   0  13 807.205 58.3126   2
  -3   0  12 9.00707 19.9060  11
  -3   0  12-7.75889 19.1890   2
  -3   0  12 18.2174 22.7614  31
   3   0 -12 27.9994 28.1152  14
  -3   0  12 12.1499 15.1814  28
  -3   0  12 20.9766 24.2227  26
  -3   0  11 33.3297 23.2032  11
  -3   0  11-8.98895 20.3889   2
  -3   0  11 1.55746 15.9153  16
  -3   0  11-13.9352 27.3339  31
   3   0 -11-34.7752 30.8303  14
  -3   0  11-4.98358 18.0557  28
  -3   0  11 46.1037 31.5767  12
  -3   0  10 144.877 35.0881  11
  -3   0  10 182.533 42.4306   2
  -3   0  10 140.306 31.2687  16
   3   0 -10 139.124 39.3721  14
  -3   0  10 215.761 35.3298  28
  -3   0  10 186.365 41.1321  12
  -3   0   9 581.714 59.3558  11
  -3   0   9 675.923 66.7593  16
   3   0  -9 302.042 152.141  38
   3   0  -9 421.193 231.889  37
  -3   0   9 672.781 74.8220   2
   3   0  -9 541.250 68.1383  14
  -3   0   9 660.083 56.9692  28
  -3   0   9 628.226 70.7134  12
  -3   0   8 1304.38 85.4377  11
   3   0  -8 1071.29 265.506  38
   3   0  -8 916.821 259.546  37
  -3   0   8 1607.10 103.286  16
  -3   0   8 1595.62 114.918   2
   3   0  -8 1535.82 110.920  14
  -3   0   8 1463.77 85.1652  28
  -3   0   8 1584.11 108.296  12
  -3   0   7 23.2473 28.8683   2
  -3   0   7 10.8276 21.6063  11
  -3   0   7 21.5134 26.3474  42
   3   0  -7 98.8719 69.4328  38
  -3   0   7-1.66292 23.5862  16
   3   0  -7 2.34179 30.0948  14
  -3   0   7-6.26970 17.9575  28
  -3   0   7 29.0294 35.5473  12
  -3   0   6 606.675 57.3216  11
  -3   0   6 719.010 68.2016  42
   3   0  -6 591.660 173.348  38
   3   0  -6 723.681 232.122  37
  -3   0   6 711.750 70.8201  16
   3   0  -6 705.926 73.0304  14
  -3   0   6 709.041 56.5795  28
  -3   0   6 787.994 79.2356  12
  -3   0   5 419.388 54.1385  42
   3   0  -5 431.148 50.9251  40
   3   0  -5 249.192 103.981  38
  -3   0   5 457.623 205.021   5
  -3   0   5 328.152 46.6968  16
   3   0  -5 332.428 157.324  37
   3   0  -5 334.810 51.0964  15
   3   0  -5 398.682 61.4050  14
  -3   0   5 413.350 42.5090  28
   3   0  -5 433.217 173.327   4
  -3   0   5 363.866 52.2094  12
  -3   0   5 443.392 65.1127   6
  -3   0   4 7599.59 211.194  42
   3   0  -4 7966.54 212.259  40
  -3   0   4 7898.52 725.643   5
   3   0  -4 6418.95 473.416  38
   3   0  -4 6946.30 624.924  37
  -3   0   4 7751.93 214.806  16
   3   0  -4 7410.67 231.016  15
   3   0  -4 8051.19 766.519   4
   3   0  -4 7111.93 226.655  14
  -3   0   4 7655.35 221.829  12
  -3   0   3 737.647 65.5175  42
   3   0  -3 711.458 63.9296  40
   3   0  -3 616.244 137.522  38
   3   0  -3 760.850 218.317  37
  -3   0   3 715.344 63.0005  16
  -3   0   3 692.864 168.337  36
  -3   0   3 975.914 272.416   5
   3   0  -3 679.675 71.9363  15
   3   0  -3 718.515 73.5341  14
   3   0  -3 931.909 265.176   4
   3   0  -3 724.182 66.7138  13
  -3   0   3 691.477 63.6098  12
  -3   0   2 276.226 131.674  39
   3   0  -2 461.886 157.290  37
  -3   0   2 442.551 185.678   5
  -3   0   2 277.933 40.2659  16
   3   0  -2 311.617 47.8081  15
   3   0  -2 337.840 47.8947  14
   3   0  -2 555.522 208.839   4
   3   0  -2 297.192 43.5618  13
  -3   0   2 308.833 43.2863  42
  -3   0   2 283.795 40.5850  12
   3   0  -2 278.772 40.3997  40
  -3   0   1 1354.02 84.4337  42
   3   0  -1 1392.78 84.6318  40
  -3   0   1 1249.75 245.206  39
   3   0  -1 1383.67 254.210  37
  -3   0   1 1338.39 83.5240  16
  -3   0   1 1328.61 299.173   5
   3   0  -1 1473.02 100.240  15
   3   0  -1 1307.92 88.3637  14
   3   0  -1 1400.91 301.677   4
   3   0  -1 1416.46 85.1943  13
  -3   0   1 1375.81 83.6893  12
   3   0   0 3390.44 129.331  40
  -3   0   0 3035.78 126.139  42
  -3   0   0 3852.49 485.350   5
  -3   0   0 3618.61 411.761  39
   3   0   0 3567.83 393.253  37
  -3   0   0 3344.66 127.936  16
   3   0   0 3504.05 148.222  15
   3   0   0 3133.64 444.571   4
   3   0   0 3314.49 137.453  14
   3   0   0 3632.15 132.002  13
  -3   0   0 3252.19 128.014  12
  -3   0  -1 28.3927 72.7862  39
   3   0   1 12.8862 58.3730  37
  -3   0  -1-49.0966 95.0675   5
   3   0   1-6.12116 23.3212  15
  -3   0  -1-22.6132 24.9767  42
   3   0   1-18.6047 21.3791  14
   3   0   1 31.7742 86.2567   4
   3   0   1 15.0036 26.7528  13
   3   0   1-31.7434 24.4368  40
   3   0   2 15941.8 290.702  40
  -3   0  -2 16136.9 1004.76   5
  -3   0  -2 15048.3 828.112  39
   3   0   2 15849.7 802.272  37
   3   0   2 15540.0 972.878   4
   3   0   2 15292.7 301.464  14
   3   0   2 15537.0 280.229  13
   3   0   3 22350.7 354.030  40
  -3   0  -3 22878.4 1206.00   5
  -3   0  -3 21112.0 994.019  39
   3   0   3 22110.3 932.300  37
   3   0   3 22533.1 1171.01   4
   3   0   3 22749.2 379.577  14
   3   0   3 22407.5 349.782  13
   3   0   3 21862.8 367.199  23
   3   0   4 1349.18 84.1504  21
   3   0   4 1556.41 86.8440  40
  -3   0  -4 1338.12 261.967  39
  -3   0  -4 1447.16 315.518   5
   3   0   4 1423.75 92.6701  14
   3   0   4 1172.05 266.286   4
   3   0   4 1497.35 87.5075  13
   3   0   4 1473.42 95.5850  23
   3   0   5 195.465 47.5907  23
   3   0   5 137.886 34.0193  21
   3   0   5 208.086 35.1217  40
  -3   0  -5 177.499 140.762  39
  -3   0  -5 201.510 128.530   5
   3   0   5 161.705 36.8204  14
   3   0   5 186.006 143.930   4
   3   0   5 225.855 38.9079  13
  -3   0  -5 166.278 31.1466   7
   3   0   6 95.7987 34.4659  23
   3   0   6 204.648 33.8092  40
  -3   0  -6 101.474 75.3295  39
   3   0   6 230.417 36.3863   9
  -3   0  -6 50.7224 102.549   5
   3   0   6 179.389 39.6562  21
   3   0   6 126.637 29.7645  30
   3   0   6 140.284 123.758   4
   3   0   6 163.320 35.8947  13
   3   0   7 398.968 59.5507  23
   3   0   7 287.234 44.7518  21
   3   0   7 361.293 43.4851  40
  -3   0  -7 506.725 176.316  39
   3   0   7 368.006 46.6546   9
  -3   0  -7 234.874 148.800   5
   3   0   7 312.570 47.2929  30
   3   0   7 310.965 130.912   4
   3   0   7 421.642 52.0954  13
   3   0   8 1762.42 105.715  21
  -3   0  -8 1706.87 331.016  39
   3   0   8 1810.82 98.6398   9
   3   0   8 1683.71 101.824  30
   3   0   8 1956.31 108.652  13
   3   0   8 1754.19 113.633  23
   3   0   9 1602.28 100.533  22
   3   0   9 1545.33 100.944  21
  -3   0  -9 1476.89 324.239  39
   3   0   9 1711.17 98.4260   9
   3   0   9 1568.19 99.1666  30
   3   0   9 1738.15 108.447  13
   3   0   9 1726.73 116.391  23
   3   0  10 3307.82 142.155  22
   3   0  10 3123.89 142.835  21
   3   0  10 3276.88 138.412   9
   3   0  10 3117.39 142.784  30
   3   0  10 3388.28 164.360  23
   3   0  11 198.840 60.4491  23
   3   0  11 98.7777 34.5948  22
   3   0  11 78.4140 36.8410  21
   3   0  11 84.5119 30.7658   9
   3   0  11 100.944 38.1114  30
   3   0  12 876.659 72.3811  22
   3   0  12 814.794 77.8932  21
   3   0  12 955.990 75.6220   9
   3   0  12 739.283 72.2700  30
   3   0  12 801.176 87.1104  23
   3   0  13 204.651 45.9070  23
   3   0  13 210.515 39.6801  22
   3   0  13 178.988 47.2929  21
   3   0  13 149.096 25.9323  33
   3   0  13 193.971 37.4228   9
   3   0  13 240.773 42.5832  30
   3   0  14 727.235 64.7683  21
   3   0  14 759.509 57.6165   9
   3   0  14 829.170 62.5638  30
   3   0  14 765.959 65.4594  23
   3   0  15-3.81088 16.1632   9
   3   0  15 14.9517 16.7479  30
  -3  -1  13 3.27718 15.7410  31
  -3  -1  13-1.52770 11.5029  28
   3   1 -13 8.84110 17.9298  13
  -3  -1  13 5.59821 11.8714  26
  -3  -1  12 995.100 56.7898  11
  -3  -1  12 911.371 56.3305  32
  -3  -1  12 1246.25 70.6927  31
  -3  -1  12 1207.21 61.6994  28
   3   1 -12 1060.40 74.7491  13
  -3  -1  12 1074.95 72.0330   2
  -3  -1  12 1150.63 65.5075  26
  -3  -1  11 478.380 48.0577  11
  -3  -1  11 562.221 57.5536  31
  -3  -1  11 593.404 48.3783  28
  -3  -1  11 576.990 59.6975   2
  -3  -1  11 557.308 52.1751  26
  -3  -1  11 562.895 55.8682  12
  -3  -1  10 1546.39 84.0488  11
  -3  -1  10 1691.24 92.0326  16
  -3  -1  10 1871.90 105.882  31
  -3  -1  10 1896.56 116.494   2
  -3  -1  10 1905.57 91.7604  28
  -3  -1  10 1863.15 100.694  26
  -3  -1  10 1578.54 100.373  12
  -3  -1   9-36.9101 30.6277  11
   3   1  -9-20.1880 88.4502  38
   3   1  -9 84.8803 127.450  37
  -3  -1   9 1.45709 21.2889  16
  -3  -1   9 46.1688 131.014  34
  -3  -1   9 29.8153 28.8347  31
   3   1  -9 35.0690 30.2786  14
  -3  -1   9 8.30766 21.3037  28
  -3  -1   9 42.7303 35.2693   2
  -3  -1   9 47.2988 37.9730  12
  -3  -1   8 208.767 36.2320  11
  -3  -1   8 268.059 54.2123   2
   3   1  -8 34.0356 77.2900  38
   3   1  -8 236.363 178.321  37
  -3  -1   8 341.611 48.9248  16
  -3  -1   8 333.998 179.158  34
   3   1  -8 246.026 48.3821  14
  -3  -1   8 294.401 41.7423  28
  -3  -1   8 334.246 55.4942  12
  -3  -1   7 850.004 77.7574  42
   3   1  -7 522.122 162.660  38
  -3  -1   7 906.870 77.8359  16
   3   1  -7 676.254 210.581  37
   3   1  -7 786.106 77.6416  14
  -3  -1   7 870.417 65.5779  28
  -3  -1   7 723.636 81.2448  12
  -3  -1   6 197.664 40.7515  42
   3   1  -6 190.757 116.263  38
   3   1  -6 147.826 86.2748  37
  -3  -1   6 171.973 40.1480  16
   3   1  -6 116.389 36.9043  14
  -3  -1   6 195.578 33.2611  28
  -3  -1   6 207.299 38.5586   7
  -3  -1   6 154.766 43.0829  12
  -3  -1   5 2200.25 120.693  42
  -3  -1   5 2161.36 380.940   5
   3   1  -5 2261.60 111.541  40
   3   1  -5 2020.74 304.498  38
   3   1  -5 2278.05 379.053  37
  -3  -1   5 2215.34 117.480  16
   3   1  -5 2373.62 412.746   4
   3   1  -5 2013.89 122.799  14
  -3  -1   5 2140.83 111.312   7
  -3  -1   5 2126.24 97.7527  28
  -3  -1   5 2415.79 129.294  12
  -3  -1   4 184.680 35.9137  42
  -3  -1   4 250.850 37.4720   6
   3   1  -4 201.711 38.0972  40
   3   1  -4 273.595 102.729  38
  -3  -1   4 237.309 145.383   5
  -3  -1   4 236.241 43.4292  16
   3   1  -4 129.789 111.502  37
   3   1  -4 205.262 44.7014  14
   3   1  -4 244.042 159.138   4
  -3  -1   4 171.300 29.8319  28
   3   1  -4 210.095 42.1205  13
  -3  -1   4 193.133 45.1624  12
  -3  -1   3 12383.8 275.182  42
   3   1  -3 13056.0 277.960  40
  -3  -1   3 12921.7 946.731   5
   3   1  -3 11048.7 602.170  38
   3   1  -3 11656.2 795.971  37
  -3  -1   3 12269.3 269.973  16
   3   1  -3 12107.8 290.235  14
  -3  -1   3 12390.6 229.078  28
   3   1  -3 11619.9 271.824  13
  -3  -1   3 12251.2 282.649  12
  -3  -1   3 12103.4 271.260   6
  -3  -1   2 637.520 61.7823  42
  -3  -1   2 551.588 55.9952   6
   3   1  -2 613.513 59.6912  40
  -3  -1   2 537.907 167.799  39
   3   1  -2 729.204 206.397  37
  -3  -1   2 580.400 56.6009  16
  -3  -1   2 653.132 229.005   5
   3   1  -2 633.609 65.7964  14
  -3  -1   2 649.527 50.0418  28
   3   1  -2 589.638 59.4432  13
  -3  -1   2 595.892 62.2708  12
  -3  -1   1 1508.50 90.9854  16
  -3  -1   1 1767.05 96.6560  42
   3   1  -1 1780.68 97.0974  40
  -3  -1   1 1614.30 300.833  39
   3   1  -1 1715.91 286.563  37
  -3  -1   1 1733.80 343.477   5
   3   1  -1 1715.48 103.857  15
   3   1  -1 1657.99 100.229  14
   3   1  -1 1752.29 95.0308  13
  -3  -1   1 1793.62 88.9163  26
  -3  -1   1 1694.55 95.8192  12
   3   1   0 793.483 64.5779  40
  -3  -1   0 958.731 224.074  39
  -3  -1   0 766.759 65.0166  16
   3   1   0 937.424 203.820  37
  -3  -1   0 725.832 242.967   5
   3   1   0 785.376 69.2919  14
   3   1   0 773.587 62.3546  13
  -3  -1   0 740.008 61.8096  42
  -3  -1   0 752.620 62.0492  12
   3   1   1 14.6772 19.3678  40
  -3  -1  -1-17.1151 80.7154  39
   3   1   1 88.9579 109.482  37
  -3  -1  -1 210.820 180.007   5
  -3  -1  -1 46.9544 24.9571  16
   3   1   1 39.2473 28.4892  14
  -3  -1  -1 24.6500 23.0637  42
   3   1   1 36.3814 23.8135  13
  -3  -1  -2 2617.40 114.992  42
   3   1   2 2745.10 116.130  40
  -3  -1  -2 3172.59 454.130   5
  -3  -1  -2 2588.72 355.096  39
   3   1   2 2392.52 304.389  37
   3   1   2 2565.97 120.027  14
   3   1   2 2716.03 112.372  13
  -3  -1  -2 2488.21 117.988   7
   3   1   3 3878.55 138.693  40
  -3  -1  -3 3896.09 513.520   5
  -3  -1  -3 3603.88 421.443  39
   3   1   3 3539.40 360.516  37
   3   1   3 3485.20 141.812  14
   3   1   3 3822.39 134.351  13
  -3  -1  -3 3538.65 141.702   7
   3   1   4 8396.69 206.400  40
  -3  -1  -4 7703.33 622.517  39
   3   1   4 6841.81 488.701  37
   3   1   4 7817.31 217.238  14
   3   1   4 8291.71 205.338  13
  -3  -1  -4 8273.99 745.638   5
  -3  -1  -4 8111.63 217.220   7
   3   1   4 7962.13 213.572  23
   3   1   5 401.698 54.7261  23
  -3  -1  -5 445.921 52.5184   6
   3   1   5 463.274 48.5508  40
  -3  -1  -5 427.693 143.701  39
  -3  -1  -5 371.938 193.623   5
   3   1   5 438.805 54.9454  14
   3   1   5 472.766 51.8479  13
  -3  -1  -5 431.432 53.7359   7
   3   1   6 210.004 42.9524  23
  -3  -1  -6 229.213 43.0119   6
   3   1   6 258.843 40.0557  40
  -3  -1  -6 177.688 153.359  39
  -3  -1  -6 323.468 201.830   5
   3   1   6 192.888 33.0721   9
   3   1   6 239.750 140.605   4
   3   1   6 229.668 40.1774  13
  -3  -1  -6 214.152 40.3815   7
   3   1   7 259.777 52.1637  23
   3   1   7 267.005 45.0210  21
  -3  -1  -7 116.467 140.329  39
  -3  -1  -7 185.313 177.023   5
   3   1   7 229.799 40.2176   9
   3   1   7 159.117 119.063   4
   3   1   7 221.087 35.4575  40
   3   1   7 243.272 42.4273  13
   3   1   8 1412.12 90.8226  21
   3   1   8 1456.30 83.6863  40
   3   1   8 1420.75 89.7725   9
  -3  -1  -8 1478.39 323.922   5
   3   1   8 1703.61 101.719  13
   3   1   8 1265.35 286.394   4
  -3  -1  -8 1243.73 284.503  39
   3   1   8 1469.93 106.966  23
   3   1   9 85.7045 48.1637  23
   3   1   9 165.487 38.7811  22
   3   1   9 111.822 34.5943  21
  -3  -1  -9 63.2503 130.772  39
   3   1   9 111.867 34.6791   9
   3   1   9 87.7644 25.8580  30
   3   1   9 177.331 45.1200  13
   3   1  10 2197.06 121.389  22
   3   1  10 1899.58 107.331  21
  -3  -1 -10 1431.05 327.618  39
   3   1  10 2095.72 115.001   9
   3   1  10 1530.30 88.1077  33
   3   1  10 1962.91 114.779  30
   3   1  10 2164.59 123.736  13
   3   1  10 2096.94 138.473  23
   3   1  11 1083.79 84.7875  22
   3   1  11 999.566 83.0518  21
  -3  -1 -11 642.831 226.616  39
   3   1  11 1054.65 81.7597   9
   3   1  11 696.693 61.1450  33
   3   1  11 1000.38 82.1240  30
   3   1  11 1001.76 102.910  23
   3   1  12 134.073 49.9798  23
   3   1  12 127.596 47.7808  21
   3   1  12 142.560 35.8866  22
   3   1  12 156.363 40.2610   9
   3   1  12 131.262 29.8082  33
   3   1  12 119.581 40.2937  30
   3   1  13 360.129 58.2700  23
   3   1  13 359.016 50.6279  22
   3   1  13 336.037 53.0700  21
   3   1  13 373.289 50.0865   9
   3   1  13 275.025 34.7622  33
   3   1  13 297.698 48.2224  30
   3   1  14 63.2545 27.2679   9
   3   1  14 5.57931 14.1697  33
   3   1  14 33.2180 22.5321  30
   3   1  15 723.384 52.4784   9
   3   1  15 627.942 50.4999  30
  -3  -2  12 26.2160 14.3781   2
  -3  -2  12 6.31585 16.1883  32
  -3  -2  12 22.8776 20.4997  31
  -3  -2  12 51.2160 16.5205  28
   3   2 -12 24.2880 22.2861  13
  -3  -2  12 37.5884 16.6672  26
  -3  -2  11 130.969 32.5708   2
  -3  -2  11 140.321 30.6387  32
  -3  -2  11 74.9288 26.2376  31
  -3  -2  11 142.900 29.2016  28
   3   2 -11 129.190 34.9748  13
  -3  -2  11 143.773 28.7849  26
  -3  -2  11 85.3239 26.7947  12
  -3  -2  10 206.026 43.8531   2
  -3  -2  10 126.110 30.5016  31
  -3  -2  10 137.645 29.6787  28
   3   2 -10 123.318 37.3401  13
  -3  -2  10 128.795 32.1623  26
  -3  -2  10 135.383 33.8695  12
  -3  -2   9 2575.24 120.663  31
  -3  -2   9 2679.54 138.339   2
  -3  -2   9 2580.03 111.191  28
  -3  -2   9 2537.06 121.100  26
  -3  -2   9 2471.46 130.986  12
  -3  -2   8 4.81133 32.7284   2
   3   2  -8 215.019 152.337  38
   3   2  -8 19.7748 105.296  37
  -3  -2   8-7.33103 22.0199  16
  -3  -2   8-71.8349 178.760  34
  -3  -2   8 11.7218 26.2240  31
  -3  -2   8 10.3501 23.8966  28
  -3  -2   8-10.4882 30.3337  26
  -3  -2   8 52.4499 43.3084  12
   3   2  -7 228.285 143.427  38
  -3  -2   7 42.9855 26.2440  16
  -3  -2   7 22.8482 119.425  34
  -3  -2   7 35.1486 27.7367  31
  -3  -2   7 24.6031 22.8698  28
  -3  -2   7 59.8893 29.9181  26
  -3  -2   7 54.5888 35.7627  42
  -3  -2   7 55.6829 37.4120  12
  -3  -2   6-5.65704 28.9745  42
   3   2  -6-40.8795 97.2361  38
   3   2  -6 17.6700 96.4718  37
  -3  -2   6 34.1337 25.2614  16
  -3  -2   6-125.285 138.322  34
  -3  -2   6-7.97797 21.8822  28
  -3  -2   6 20.2645 26.7253  26
  -3  -2   6 33.4118 31.1140  12
  -3  -2   5 1020.74 84.6840  42
   3   2  -5 956.556 71.4266  40
   3   2  -5 751.523 209.686  38
  -3  -2   5 915.584 77.5615  16
   3   2  -5 974.153 277.873  37
   3   2  -5 901.684 81.5402  14
   3   2  -5 972.756 276.803   4
  -3  -2   5 866.678 72.0022   7
  -3  -2   5 1024.35 72.3454  28
   3   2  -5 940.338 82.1898  13
  -3  -2   5 868.673 73.0879  26
  -3  -2   5 1030.02 88.1755  12
   3   2  -4 1377.35 91.0929  40
   3   2  -4 1236.16 241.810  38
  -3  -2   4 1138.59 297.677   5
   3   2  -4 1184.98 285.001  37
  -3  -2   4 1435.62 100.378  42
  -3  -2   4 1330.02 91.9843  16
   3   2  -4 1228.76 91.8432  14
  -3  -2   4 1359.95 91.4349   7
  -3  -2   4 1339.80 79.3413  28
   3   2  -4 1269.91 95.7078  13
  -3  -2   4 1362.97 91.1053  26
  -3  -2   4 1146.33 94.4979  12
  -3  -2   4 1288.18 90.1971   6
   3   2  -3 991.143 77.3945  40
  -3  -2   3 922.999 76.6164  42
   3   2  -3 958.305 204.815  38
   3   2  -3 822.228 230.454  37
  -3  -2   3 740.475 235.555   5
  -3  -2   3 906.107 73.7281  16
   3   2  -3 845.345 74.4537  14
  -3  -2   3 937.941 75.7361   7
  -3  -2   3 954.426 66.2965  28
   3   2  -3 816.928 72.6740  13
  -3  -2   3 923.050 70.9427  26
  -3  -2   3 849.203 80.5979  12
  -3  -2   3 882.930 74.7697   6
  -3  -2   2 17424.8 335.994  42
   3   2  -2 17935.4 338.518  40
  -3  -2   2 17321.6 1117.23   5
  -3  -2   2 16970.3 324.341  16
  -3  -2   2 16731.2 1007.69  39
   3   2  -2 16414.4 738.479  38
   3   2  -2 17255.3 976.198  37
   3   2  -2 16633.6 338.459  14
  -3  -2   2 17209.4 331.244   7
  -3  -2   2 17638.2 291.191  28
   3   2  -2 16736.9 333.079  13
  -3  -2   2 17343.8 314.316  26
  -3  -2   2 16825.7 339.790  12
  -3  -2   2 16711.9 334.118   6
  -3  -2   1 21.6939 24.4229   6
   3   2  -1 12.0473 22.4714  40
  -3  -2   1 40.6770 76.1132  39
   3   2  -1 24.1944 90.0735  37
  -3  -2   1-20.4672 142.762   5
  -3  -2   1-13.3234 21.6977  16
   3   2  -1-30.8449 29.2074  14
  -3  -2   1-0.37235 17.0491  28
   3   2  -1-58.8573 31.1562  13
  -3  -2   1-7.57481 21.2346  26
  -3  -2   1 16.4536 26.2483  42
  -3  -2   1-4.16287 27.7445   7
  -3  -2   1 45.0287 28.0025  12
  -3  -2   0 771.801 67.8257  42
   3   2   0 791.660 66.6944  40
  -3  -2   0 584.063 187.229  39
  -3  -2   0 700.051 63.1602  16
   3   2   0 860.171 211.379  37
  -3  -2   0 749.055 258.388   5
   3   2   0 796.475 70.6221  14
  -3  -2   0 711.715 54.8470  28
  -3  -2   0 797.239 68.3666   7
   3   2   0 772.468 64.6733  13
   3   2   0 838.175 245.513   1
  -3  -2   0 836.060 61.7714  26
  -3  -2   0 727.053 64.2694  12
  -3  -2   0 785.539 70.8800   6
   3   2   1 125.443 140.210   1
  -3  -2  -1 113.560 34.9905   6
   3   2   1 101.075 30.2336  40
  -3  -2  -1-36.6943 97.2491  39
   3   2   1 208.188 124.099  37
  -3  -2  -1 151.466 163.860   5
  -3  -2  -1 98.4562 28.5790  16
   3   2   1 110.378 35.2037  14
  -3  -2  -1 124.511 26.1666  28
   3   2   1 63.8010 23.8251  13
  -3  -2  -1 140.384 28.3303  26
  -3  -2  -1 74.8976 28.0987  42
  -3  -2  -1 64.2420 20.9258   7
  -3  -2  -1 87.8170 27.7372  12
  -3  -2  -2 2513.65 115.114  42
   3   2   2 3221.06 459.348   1
  -3  -2  -2 2422.49 418.592   5
  -3  -2  -2 2662.46 380.249  39
   3   2   2 2512.24 315.164  37
  -3  -2  -2 2562.64 117.576  16
   3   2   2 2767.94 121.479  40
   3   2   2 2686.67 126.961  14
  -3  -2  -2 2594.98 123.632   7
   3   2   2 2551.04 112.505  13
  -3  -2  -2 2415.31 101.681  26
  -3  -2  -2 2512.13 122.368   6
   3   2   3 6692.92 190.187  40
   3   2   3 7148.19 680.769   1
  -3  -2  -3 6437.82 672.703   5
  -3  -2  -3 5823.47 557.920  39
   3   2   3 5975.69 478.456  37
   3   2   3 6257.06 197.913  14
  -3  -2  -3 5924.75 190.944   7
   3   2   3 5845.90 174.330  13
  -3  -2  -3 5947.31 190.466   6
  -3  -2  -4 739.826 204.000  39
   3   2   4 803.376 65.7990  40
   3   2   4 609.428 138.596  37
  -3  -2  -4 764.525 248.871   5
   3   2   4 776.985 62.1940   8
   3   2   4 733.045 70.6540  14
  -3  -2  -4 760.672 70.2503   7
   3   2   4 736.555 61.6053  13
   3   2   4 814.824 243.392   1
   3   2   4 808.019 74.3214  23
  -3  -2  -4 642.664 64.4975   6
   3   2   5 3401.74 133.879  40
  -3  -2  -5 3141.96 485.140   5
  -3  -2  -5 3008.36 414.076  39
   3   2   5 3147.78 125.001   8
  -3  -2  -5 3239.60 143.466   7
   3   2   5 3151.04 130.565  13
  -3  -2  -5 3065.37 139.107   6
   3   2   5 3111.24 140.771  23
   3   2   6 301.689 54.9334  23
  -3  -2  -6 345.650 53.0550   6
   3   2   6 310.462 41.8163  40
  -3  -2  -6 333.004 154.295  39
  -3  -2  -6 295.459 177.498   5
   3   2   6 226.992 36.7483   9
   3   2   6 268.247 39.5807   8
   3   2   6 296.690 43.5113  13
  -3  -2  -6 344.071 51.2720   7
  -3  -2  -7 527.043 62.2739   6
   3   2   7 457.018 49.9604  40
  -3  -2  -7 308.861 104.500  39
  -3  -2  -7 392.491 175.473   5
   3   2   7 297.987 45.6626   9
   3   2   7 426.126 48.2258   8
  -3  -2  -7 500.506 60.7273   7
   3   2   7 432.230 55.7570  13
   3   2   8 1553.24 88.6642  40
  -3  -2  -8 1407.95 315.183  39
  -3  -2  -8 1509.18 329.348   5
   3   2   8 1576.96 96.1136   9
   3   2   8 1662.51 91.3905   8
   3   2   8 1746.43 105.631  13
   3   2   8 1818.69 121.244  23
   3   2   9 5013.35 185.156  22
   3   2   9 4963.83 173.759   9
   3   2   9 5205.11 209.016  23
   3   2  10 2180.97 122.253  22
   3   2  10 2192.51 110.752  21
   3   2  10 2017.35 117.011   9
   3   2  10 1953.55 115.569  30
   3   2  10 2266.46 124.707  13
   3   2  10 2102.85 136.655  23
   3   2  11-13.3880 48.5239  23
   3   2  11-17.2721 35.9177  22
   3   2  11 28.8007 34.7645  21
  -3  -2 -11 65.2951 126.617  39
   3   2  11-9.61418 29.6591   9
   3   2  11-4.70249 26.2722  30
   3   2  12 301.469 61.3566  23
   3   2  12 305.794 53.7975  22
   3   2  12 240.081 46.2551  21
  -3  -2 -12 121.418 109.174  39
  -3  -2 -12 294.124 51.6236  10
   3   2  12 281.908 46.3267   9
   3   2  12 198.144 36.7407  33
   3   2  12 244.312 51.7295  30
   3   2  13 14.5226 38.9691  23
   3   2  13 47.9675 35.3093  22
   3   2  13-13.8018 26.0652   9
   3   2  13 11.9639 20.6412  33
   3   2  13-30.8984 25.7378  30
   3   2  14 31.5752 29.2391  22
   3   2  14 43.3551 28.8370   9
   3   2  14 28.8571 17.6870  33
   3   2  14 44.1346 27.0626  30
   3   2  15 964.855 63.7091   9
   3   2  15 807.346 59.6842  30
   3   2  16 173.684 24.6758   9
   3   2  16 150.232 22.4187  30
  -3  -3  11 847.252 54.7735  32
  -3  -3  11 796.593 51.8636  31
  -3  -3  11 901.434 54.8174  28
   3   3 -11 817.654 58.3131  13
  -3  -3  11 776.507 57.2829   2
  -3  -3  11 813.728 50.3210  26
  -3  -3  11 918.265 59.9141  12
  -3  -3  10 43.2059 23.1218   2
  -3  -3  10 14.6468 25.3668  32
  -3  -3  10 12.7031 23.2547  31
  -3  -3  10 11.4876 19.9597  28
   3   3 -10 48.2560 32.9631  13
  -3  -3  10 36.0878 20.5592  26
  -3  -3  10 28.3633 24.0538  12
  -3  -3   9 173.218 37.4250   2
  -3  -3   9 181.934 41.5671  32
  -3  -3   9 177.897 38.6604  31
  -3  -3   9 214.480 37.0612  28
   3   3  -9 183.947 42.7826  13
  -3  -3   9 163.893 34.9135  26
  -3  -3   9 151.321 38.6197  12
  -3  -3   8 4145.42 147.903  31
  -3  -3   8 4456.85 178.994   2
  -3  -3   8 4317.22 149.442  28
   3   3  -8 4228.37 169.922  13
  -3  -3   8 4324.82 158.590  26
  -3  -3   8 4666.58 180.667  12
  -3  -3   7 41.6694 29.7815  42
   3   3  -7 16.9647 93.9646  38
   3   3  -7 169.375 89.8073  37
  -3  -3   7 110.515 31.3646  31
  -3  -3   7 100.331 31.4485  28
   3   3  -7 112.138 40.5169  13
  -3  -3   7 161.533 37.9797  26
  -3  -3   7 94.3662 36.3227  12
  -3  -3   6 561.433 68.4663  42
   3   3  -6 372.527 201.533  38
   3   3  -6 467.477 186.532  37
  -3  -3   6 150.890 101.529  34
  -3  -3   6 490.083 52.1267  31
  -3  -3   6 533.764 58.8237  28
  -3  -3   6 604.986 62.8330  26
   3   3  -6 576.776 69.3469  13
  -3  -3   6 553.201 73.4896  12
  -3  -3   5 686.128 72.1784  42
   3   3  -5 402.964 192.610  38
  -3  -3   5 608.483 64.5923  16
   3   3  -5 595.308 231.182  37
  -3  -3   5 250.791 83.1684  34
  -3  -3   5 591.827 57.8499  31
  -3  -3   5 616.008 61.2191  28
   3   3  -5 694.871 72.2733  13
  -3  -3   5 673.688 68.8014  26
  -3  -3   5 734.512 78.9650  12
  -3  -3   4 880.043 81.4036  42
   3   3  -4 719.603 68.7643  40
   3   3  -4 759.907 236.130  38
  -3  -3   4 733.065 70.6917  16
   3   3  -4 739.424 239.893  37
  -3  -3   4 574.244 195.550  34
  -3  -3   4 796.981 71.5167   7
  -3  -3   4 814.241 64.9080  28
   3   3  -4 629.909 71.5365  13
  -3  -3   4 803.483 72.5652  26
  -3  -3   4 781.761 81.0937  12
  -3  -3   4 777.647 72.2301   6
   3   3  -3 690.756 67.8424  40
   3   3  -3 452.868 151.932  38
  -3  -3   3 609.682 65.7492  16
  -3  -3   3 570.990 180.191  34
  -3  -3   3 599.466 62.5232   7
  -3  -3   3 702.712 60.1272  28
   3   3  -3 658.010 71.5278  13
  -3  -3   3 662.429 73.0076  42
  -3  -3   3 578.775 63.3477  26
   3   3  -3 559.961 213.846  37
  -3  -3   3 566.371 66.3968  12
  -3  -3   3 562.390 64.1788   6
   3   3  -2 2187.41 421.765   1
   3   3  -2 2127.70 118.115  40
   3   3  -2 1730.49 285.312  38
  -3  -3   2 1813.65 371.013   5
   3   3  -2 1894.47 342.768  37
  -3  -3   2 1945.33 110.148  16
  -3  -3   2 1948.51 111.453   7
  -3  -3   2 1876.46 97.7286  28
   3   3  -2 1883.60 111.053  13
  -3  -3   2 1916.24 104.319  26
  -3  -3   2 2144.34 117.691  42
  -3  -3   2 2008.08 118.924  12
  -3  -3   2 1900.92 113.357   6
  -3  -3   1 824.885 74.0411  42
   3   3  -1 868.336 74.2969  40
  -3  -3   1 828.056 238.207  39
  -3  -3   1 868.402 284.394   5
  -3  -3   1 857.481 72.4916  16
   3   3  -1 958.644 241.622  37
   3   3  -1 1013.42 297.072   1
  -3  -3   1 829.019 72.7255   7
  -3  -3   1 785.905 62.8134  28
   3   3  -1 790.661 72.0921  13
  -3  -3   1 747.067 68.5460  26
  -3  -3   1 859.493 77.2281  12
  -3  -3   1 873.321 76.5904   6
  -3  -3   0 8687.63 231.504  42
   3   3   0 9013.58 819.006   1
  -3  -3   0 8883.18 834.373   5
   3   3   0 8227.13 228.212  40
  -3  -3   0 7862.62 695.796  39
   3   3   0 8747.93 686.863  37
   3   3   0 7735.74 218.070  14
  -3  -3   0 8050.01 226.217   7
  -3  -3   0 7744.67 195.890  28
   3   3   0 7698.88 215.576  13
  -3  -3   0 7997.07 207.522  26
  -3  -3   0 7847.16 226.069  12
  -3  -3   0 8507.46 236.387   6
   3   3   1 1440.90 94.6329  40
  -3  -3  -1 1289.98 268.890  39
  -3  -3  -1 1700.58 374.028   5
   3   3   1 1315.85 260.677  37
   3   3   1 1365.73 90.9632  14
  -3  -3  -1 1488.83 95.7961   7
   3   3   1 1394.60 312.404   1
  -3  -3  -1 1449.66 82.4217  28
   3   3   1 1384.00 88.0824  13
  -3  -3  -1 1555.99 94.4713  42
  -3  -3  -1 1476.21 85.4552  26
  -3  -3  -1 1296.09 87.7871  12
  -3  -3  -1 1428.25 96.0505   6
  -3  -3  -2 117.007 37.3094   6
   3   3   2 87.0265 29.7288  40
  -3  -3  -2 78.2738 106.872  39
  -3  -3  -2 282.916 183.034   5
   3   3   2 127.882 87.7802  37
   3   3   2 205.706 182.206   1
   3   3   2 100.212 32.9656  13
  -3  -3  -2 110.643 28.5741  26
  -3  -3  -2 151.531 38.2792  42
  -3  -3  -2 126.536 38.4382   7
   3   3   3 2357.57 412.563   1
   3   3   3 2380.60 120.721  40
  -3  -3  -3 1903.35 337.630  39
   3   3   3 2197.81 305.853  37
  -3  -3  -3 1844.28 379.166   5
   3   3   3 2125.75 117.148  14
  -3  -3  -3 2223.65 119.942   7
   3   3   3 1951.20 106.125  13
  -3  -3  -3 2325.12 115.319  42
  -3  -3  -3 2032.37 117.921   6
   3   3   4 493.251 58.1615  23
   3   3   4 633.392 216.294   1
   3   3   4 672.230 64.9492  40
  -3  -3  -4 461.523 188.089  39
  -3  -3  -4 552.832 242.626   5
   3   3   4 541.771 150.363  37
   3   3   4 551.803 59.1000   8
  -3  -3  -4 572.584 62.9020   7
   3   3   4 534.695 55.0223  13
  -3  -3  -4 611.711 67.5610   6
   3   3   5 4811.85 590.405   1
  -3  -3  -5 4750.11 623.732   5
   3   3   5 4727.51 168.193  40
  -3  -3  -5 4111.23 502.501  39
   3   3   5 4528.03 160.188   8
  -3  -3  -5 4344.32 176.510   7
   3   3   5 4326.65 159.690  13
  -3  -3  -5 4438.57 175.939   6
   3   3   5 4069.97 163.989  23
   3   3   6 442.467 64.5879  23
  -3  -3  -6 420.629 204.375   5
   3   3   6 301.513 44.4875   9
   3   3   6 456.964 54.4968   8
   3   3   6 687.864 231.464   1
  -3  -3  -6 492.450 210.923  39
  -3  -3  -6 435.000 59.8199   6
   3   3   6 337.112 48.1383  13
   3   3   6 425.252 50.7373  40
  -3  -3  -6 418.341 58.8174   7
   3   3   7-12.1844 35.8403  23
  -3  -3  -7 7.71415 25.4571   6
   3   3   7 19.5622 22.0313  40
  -3  -3  -7 89.8594 116.573  39
   3   3   7 48.0242 28.6669   9
   3   3   7 9.09268 20.0631   8
   3   3   7-10.1823 30.8757  13
  -3  -3  -7 32.3225 28.4797   7
   3   3   8 414.497 67.4484  23
   3   3   8 459.147 58.1133  22
  -3  -3  -8 386.744 55.7787   6
   3   3   8 340.474 44.9576  40
  -3  -3  -8 308.776 161.088  39
   3   3   8 316.878 49.3740   9
   3   3   8 435.540 51.6258   8
   3   3   8 436.395 57.7960  13
  -3  -3  -8 400.717 56.2584   7
   3   3   9-57.4860 41.8060  23
   3   3   9 18.6999 31.8696  22
  -3  -3  -9-56.9532 110.400  39
   3   3   9 14.8620 25.6121   9
   3   3   9 7.77669 18.6418   8
   3   3   9-4.15495 30.7855  13
   3   3  10 317.083 66.6850  23
   3   3  10 295.230 51.8310  22
  -3  -3 -10 178.750 126.669  39
   3   3  10 283.963 50.3099   9
   3   3  10 334.947 46.3250   8
   3   3  10 317.245 52.7267  13
   3   3  11 754.388 88.5236  23
   3   3  11 651.676 74.5208  22
  -3  -3 -11 780.355 254.584  39
   3   3  11 740.635 72.7843   9
   3   3  11 548.724 56.0888   8
   3   3  12 196.949 51.5874  23
   3   3  12 236.368 50.9830  22
  -3  -3 -12 248.040 47.3403  10
   3   3  12 160.414 40.9172   9
   3   3  12 156.431 43.5912  30
   3   3  13 6.53824 29.7210  22
  -3  -3 -13-12.6924 30.9016  10
   3   3  13 9.04834 26.4473   9
   3   3  13-6.28042 23.0641  33
   3   3  13 28.9216 25.3091  30
   3   3  14 30.4495 25.5478  22
   3   3  14 38.4555 28.3059   9
   3   3  14 36.9708 41.4414  33
   3   3  14 5.00960 21.9167  30
   3   3  15 100.924 27.1745   9
   3   3  15 67.9464 18.5286  33
   3   3  15 67.5402 23.4296  30
   3   3  16 53.1165 18.6263   9
   3   3  16 55.4680 18.0114  30
  -3  -4  10 85.0061 22.1818   2
  -3  -4  10 73.2162 23.4012  32
  -3  -4  10 67.8774 20.3942  31
  -3  -4  10 66.3496 22.5255  28
   3   4 -10 78.0660 27.4325  13
  -3  -4  10 46.8102 22.2334  12
  -3  -4   9 1001.04 71.3483  32
  -3  -4   9 762.402 53.4082  31
  -3  -4   9 726.695 62.0745   2
  -3  -4   9 931.994 61.0255  28
   3   4  -9 725.330 61.0942  13
  -3  -4   9 829.793 60.3005  26
  -3  -4   9 885.089 72.2313  12
  -3  -4   8 1769.30 102.411  32
  -3  -4   8 1409.72 77.9291  31
  -3  -4   8 1569.65 98.1557   2
  -3  -4   8 1361.93 82.0147  29
  -3  -4   8 1747.33 89.5088  28
   3   4  -8 1492.31 95.2215  13
  -3  -4   8 1533.06 88.4425  26
  -3  -4   8 1740.40 107.941  12
  -3  -4   7 2849.78 134.641  32
  -3  -4   7 2282.46 102.656  31
  -3  -4   7 2463.55 132.069   2
  -3  -4   7 2698.76 116.715  28
   3   4  -7 2355.60 124.037  13
  -3  -4   7 2467.23 118.897  26
  -3  -4   7 2859.50 143.945  12
  -3  -4   6 1179.86 94.4660  42
   3   4  -6 931.543 299.800  37
  -3  -4   6 1032.83 70.0968  31
  -3  -4   6 1179.00 83.2338  28
   3   4  -6 1085.47 88.6404  13
  -3  -4   6 1188.66 86.9727  26
  -3  -4   6 1238.72 102.524  12
  -3  -4   5 595.743 69.2845  42
   3   4  -5 655.335 228.882  38
   3   4  -5 451.036 206.400  37
  -3  -4   5 570.621 65.0182  28
   3   4  -5 656.374 70.3478  13
  -3  -4   5 620.731 64.7600  26
  -3  -4   5 579.419 75.5969  12
  -3  -4   4 204.764 40.0155   6
  -3  -4   4 254.407 51.5695  42
   3   4  -4 286.715 45.7925  40
   3   4  -4 80.7941 129.344  38
   3   4  -4 292.372 178.434  37
  -3  -4   4 179.821 42.9715  28
   3   4  -4 167.957 42.5725  13
  -3  -4   4 203.296 44.5536  26
  -3  -4   4 225.590 42.4507   7
  -3  -4   4 291.276 59.2909  12
  -3  -4   3 126.636 38.8743   6
  -3  -4   3 117.230 37.3354  42
   3   4  -3 109.559 32.8003  40
   3   4  -3 51.6480 110.026  38
   3   4  -3 99.6136 113.126  37
   3   4  -3 151.489 119.863   1
  -3  -4   3 109.964 31.6895  28
   3   4  -3 175.017 45.0089  13
  -3  -4   3 139.731 35.4898  26
  -3  -4   3 84.0843 31.3471   7
  -3  -4   3 131.285 40.5977  12
  -3  -4   2 381.348 55.3337   6
  -3  -4   2 421.376 58.4778  42
   3   4  -2 468.862 61.1809  40
   3   4  -2 317.173 149.755   1
   3   4  -2 337.852 154.056  38
   3   4  -2 275.344 131.313  37
  -3  -4   2 358.584 50.8807  28
   3   4  -2 423.616 60.8383  13
  -3  -4   2 406.294 54.7064  26
  -3  -4   2 463.832 60.7082   7
  -3  -4   2 507.194 65.7898  12
   3   4  -1 2637.90 477.837   1
  -3  -4   1 2462.34 130.179  42
   3   4  -1 2626.46 133.761  40
   3   4  -1 2624.84 407.778  37
  -3  -4   1 2182.14 124.210   7
  -3  -4   1 2157.62 112.677  28
   3   4  -1 2311.37 122.910  13
  -3  -4   1 2240.08 117.132  26
  -3  -4   1 2418.88 130.176  12
  -3  -4   1 2264.61 128.593   6
  -3  -4   0 432.521 57.9477  42
  -3  -4   0 365.248 56.9337   6
   3   4   0 429.846 57.6173  40
   3   4   0 601.139 234.779   1
  -3  -4   0 403.332 209.031  39
   3   4   0 574.955 192.704  37
  -3  -4   0 378.229 50.9203  28
   3   4   0 384.956 53.3811  13
  -3  -4   0 380.074 56.0725  26
  -3  -4   0 342.106 51.0075   7
  -3  -4   0 380.385 55.6911  12
   3   4   1 53.7693 103.462   1
  -3  -4  -1-29.9601 33.8582   6
  -3  -4  -1 62.0456 129.587  39
   3   4   1-78.0698 92.8418  37
  -3  -4  -1-18.1706 24.1962  42
  -3  -4  -1 3.94015 21.6402  28
   3   4   1 19.0813 23.2842  40
   3   4   1 1.47881 26.6244  13
  -3  -4  -1 8.71159 29.2062   7
  -3  -4  -1-49.1525 24.3786  12
   3   4   2 349.893 51.0529  40
  -3  -4  -2 288.355 140.729  39
   3   4   2 498.716 172.523  37
  -3  -4  -2 429.352 62.3682   6
  -3  -4  -2 362.660 53.1529  42
   3   4   2 402.900 55.6479  13
  -3  -4  -2 367.926 55.2405   7
   3   4   2 377.378 200.003   1
  -3  -4  -3 1026.50 80.4760  42
   3   4   3 980.885 83.9970  40
  -3  -4  -3 859.318 249.671  39
   3   4   3 748.613 189.687  37
   3   4   3 957.240 81.2853   8
  -3  -4  -3 1023.61 85.9120   7
   3   4   3 896.113 76.3062  13
  -3  -4  -3 920.271 87.1776   6
   3   4   3 916.775 269.662   1
  -3  -4  -4 1244.89 90.1404  42
   3   4   4 1262.92 317.158   1
   3   4   4 1307.99 92.0809  40
  -3  -4  -4 1092.61 276.535  39
   3   4   4 1023.89 206.119  37
   3   4   4 1256.30 90.2883   8
  -3  -4  -4 1188.03 95.8261   7
   3   4   4 1075.48 82.4797  13
  -3  -4  -4 1283.84 101.203   6
   3   4   5 2134.26 416.409   1
  -3  -4  -5 1695.09 102.574  42
   3   4   5 1793.52 108.197  40
  -3  -4  -5 1459.54 317.869  39
   3   4   5 1649.15 104.168   8
  -3  -4  -5 1754.85 116.590   7
   3   4   5 1609.23 101.821  13
  -3  -4  -5 1701.14 114.706   6
  -3  -4  -6-13.6471 31.0790   6
  -3  -4  -6 35.5752 84.6337  39
   3   4   6 32.4363 24.8144  40
   3   4   6-50.1301 138.369   1
   3   4   6 15.0386 22.3872   8
   3   4   6 6.66131 25.6886  13
  -3  -4  -6-41.8955 32.1315   7
   3   4   7 304.151 55.3619  23
   3   4   7 355.971 55.5925  22
  -3  -4  -7 230.232 48.3126   6
  -3  -4  -7 237.975 121.950  39
   3   4   7 496.709 183.865   1
   3   4   7 373.414 159.486  35
   3   4   7 330.683 52.3711   8
   3   4   7 413.674 53.4505  40
   3   4   7 325.714 51.3962  13
  -3  -4  -7 340.663 55.3168   7
   3   4   8 99.8049 39.0224  23
   3   4   8 8.98176 27.2837  22
  -3  -4  -8 44.6945 27.1641   6
   3   4   8 23.1040 19.5494  40
  -3  -4  -8-52.6598 122.074  39
   3   4   8 18.0003 25.4611   9
   3   4   8 72.0417 33.2421   8
   3   4   8 126.934 145.491   1
   3   4   8 23.3978 29.2526  13
  -3  -4  -8 84.7706 34.9580   7
   3   4   9 324.393 55.6836  22
   3   4   9 443.560 52.1618  40
  -3  -4  -9 428.460 219.493  39
   3   4   9 409.380 58.9307   9
   3   4   9 442.765 54.5286   8
   3   4   9 214.006 43.7379  13
  -3  -4  -9 473.491 61.3905   7
   3   4  10 624.796 74.7565  22
   3   4  10 489.834 64.8059   9
   3   4  10 650.179 66.5818   8
   3   4  10 668.174 72.7616  13
   3   4  11 3752.08 163.915  22
  -3  -4 -11 3804.79 192.688  10
   3   4  11 3396.56 152.582   9
   3   4  11 3543.33 146.238   8
   3   4  12 347.658 55.7531  22
  -3  -4 -12 318.770 58.2174  10
   3   4  12 241.832 48.5633   9
   3   4  12 199.931 37.7110   8
   3   4  12 194.267 50.9468  30
   3   4  13 148.090 40.6386  22
  -3  -4 -13 129.842 42.2118  10
   3   4  13 86.4436 34.0628   9
   3   4  13 71.4314 22.7598   8
   3   4  13 86.7831 33.5177  30
  -3  -4 -14 49.8034 28.1741  10
   3   4  14 36.5963 30.0769   9
   3   4  14-18.3723 17.7312  33
   3   4  14 10.1934 22.3611  30
   3   4  15 302.443 37.9517   9
   3   4  15 212.568 29.6991  33
   3   4  15 227.440 33.5253  30
  -3  -5   9 716.215 51.8733  32
  -3  -5   9 655.230 49.6126  28
  -3  -5   8 630.133 55.5196  32
  -3  -5   8 463.922 47.2431   2
  -3  -5   8 485.622 46.7269  29
  -3  -5   8 601.963 51.7520  28
  -3  -5   8 592.612 61.3676  12
  -3  -5   7 4641.89 153.386  32
  -3  -5   7 3467.84 140.706   2
  -3  -5   7 3788.88 140.929  29
  -3  -5   7 4519.90 143.212  28
   3   5  -7 3573.82 127.089  13
  -3  -5   7 4709.80 172.796  12
  -3  -5   6 3801.47 147.111  32
  -3  -5   6 2834.45 136.361   2
  -3  -5   6 3536.07 134.155  28
   3   5  -6 3059.91 127.900  13
  -3  -5   6 3765.44 165.902  12
  -3  -5   5 507.183 65.5920  42
  -3  -5   5 602.417 67.5180  32
  -3  -5   5 522.470 57.6287  28
   3   5  -5 486.918 58.4429  13
  -3  -5   5 479.493 58.3317  26
  -3  -5   5 471.554 65.3585  12
  -3  -5   4 177.770 38.5211   6
  -3  -5   4 219.328 46.6698  42
  -3  -5   4 131.519 39.3397  32
  -3  -5   4 95.2550 33.5439  28
   3   5  -4 124.290 35.6183  13
  -3  -5   4 167.490 39.6777  26
  -3  -5   4 145.336 48.2134  12
  -3  -5   3 12.9404 24.0166   6
  -3  -5   3-33.9780 25.8965  42
   3   5  -3-0.60006 22.1912  40
   3   5  -3 104.974 117.277  38
   3   5  -3 167.861 108.064  37
  -3  -5   3-16.9305 28.3443  32
  -3  -5   3 14.0568 26.0492  28
   3   5  -3 215.874 214.531   1
   3   5  -3-14.2129 25.6907  13
  -3  -5   3-5.58466 22.7523   7
  -3  -5   3-27.2522 25.7151  26
  -3  -5   3-3.73035 34.6175  12
  -3  -5   2 364.244 57.9892   6
   3   5  -2 416.061 59.4732  40
   3   5  -2 237.037 163.990  37
  -3  -5   2 294.264 52.0947  42
   3   5  -2 485.762 233.568   1
  -3  -5   2 337.630 55.5781  28
   3   5  -2 291.734 47.7141  13
  -3  -5   2 379.692 56.0629   7
  -3  -5   2 350.178 58.1282  12
  -3  -5   1 805.290 78.5151  42
   3   5  -1 743.518 77.3644  40
   3   5  -1 722.221 281.750   1
   3   5  -1 734.144 245.611  37
  -3  -5   1 700.950 71.0227   7
  -3  -5   1 559.347 68.8317  28
   3   5  -1 681.565 67.6976  13
  -3  -5   1 695.715 80.6827  12
  -3  -5   1 676.145 73.9144   6
  -3  -5   0 1316.27 97.8081  42
   3   5   0 1389.31 104.311  40
   3   5   0 1683.44 344.784  37
  -3  -5   0 1303.32 97.6811   7
  -3  -5   0 1032.53 90.8444  28
   3   5   0 1203.24 89.1687  13
   3   5   0 1366.15 370.254   1
  -3  -5   0 1286.13 99.4512  12
  -3  -5   0 1283.01 102.286   6
  -3  -5  -1 665.376 70.3311  42
   3   5   1 606.524 72.0039  40
  -3  -5  -1 589.861 196.902  39
   3   5   1 589.715 216.832  37
   3   5   1 544.838 194.120   1
  -3  -5  -1 631.503 71.8036   7
  -3  -5  -1 440.707 61.4748  28
   3   5   1 564.534 62.1727  13
  -3  -5  -1 583.385 68.5264  12
  -3  -5  -1 685.214 75.4524   6
   3   5   2 291.664 52.9635  40
  -3  -5  -2 233.374 171.286  39
   3   5   2 242.633 143.498  37
   3   5   2 256.119 166.042   1
  -3  -5  -2 282.204 52.4536   6
   3   5   2 240.049 46.7874   8
  -3  -5  -2 205.949 43.2395  42
   3   5   2 205.736 36.2491  13
  -3  -5  -2 280.848 51.7434   7
  -3  -5  -2 207.045 41.1867  12
  -3  -5  -3 229.738 50.5999   6
  -3  -5  -3 238.878 45.9874  42
   3   5   3 245.387 53.3856  40
  -3  -5  -3 125.348 122.159  39
   3   5   3 187.080 156.309  37
   3   5   3 231.576 154.695   1
   3   5   3 159.107 49.3142   8
   3   5   3 159.337 38.3977  13
  -3  -5  -3 162.709 42.3704   7
  -3  -5  -4 2228.73 122.600  42
   3   5   4 2514.75 133.907  40
  -3  -5  -4 2213.93 401.378  39
   3   5   4 2538.52 131.245   8
   3   5   4 2044.60 424.122   1
  -3  -5  -4 2188.57 129.932   7
   3   5   4 2110.36 115.587  13
  -3  -5  -4 2160.55 131.400   6
   3   5   5 518.912 56.4315  22
   3   5   5 756.459 72.0081  40
  -3  -5  -5 659.987 70.8282  42
  -3  -5  -5 578.395 215.129  39
   3   5   5 727.989 74.1589   8
  -3  -5  -5 673.686 76.2556   7
   3   5   5 724.919 279.147   1
   3   5   5 651.032 69.9057  13
  -3  -5  -5 671.719 78.1896   6
   3   5   6 5.06334 169.216   1
   3   5   6 28.4431 25.0968  22
  -3  -5  -6 73.1460 36.1225   6
  -3  -5  -6 40.0863 31.0820  42
  -3  -5  -6-121.141 138.707  39
   3   5   6 48.0091 35.4425   8
   3   5   6 14.8447 27.2585  13
  -3  -5  -6 9.03262 36.2984   7
   3   5   6 41.3826 26.5295  40
   3   5   7 25.4098 31.5905  22
  -3  -5  -7 47.7089 37.6535   6
  -3  -5  -7 67.4201 33.0054  42
   3   5   7 69.6248 31.0474  40
  -3  -5  -7 172.975 143.526  39
   3   5   7 54.2543 114.380   1
   3   5   7 73.5196 34.7168   8
   3   5   7 76.6991 34.3939  13
  -3  -5  -7 59.1612 30.8851   7
   3   5   8-45.7708 34.2350  22
  -3  -5  -8 10.4791 32.9738   6
   3   5   8 10.7285 141.728   1
   3   5   8-34.8593 26.5191  40
   3   5   8 69.3440 32.8807   9
   3   5   8-42.9532 27.7660   8
   3   5   8 25.3985 27.6040  13
  -3  -5  -8-6.97183 28.8192   7
  -3  -5  -9 195.999 41.5795   6
   3   5   9 246.277 45.1496  22
   3   5   9 276.259 44.2436  40
  -3  -5  -9 171.561 160.925  39
   3   5   9 195.696 45.0003   9
   3   5   9 266.415 49.8139   8
   3   5   9 229.328 46.3947  13
  -3  -5  -9 245.924 48.0453   7
   3   5  10 162.466 41.5883  22
  -3  -5 -10 147.110 47.4357  10
   3   5  10 131.851 40.4869   9
   3   5  10 167.113 40.1650   8
  -3  -5 -10 198.563 43.2752   7
   3   5  11 11.3777 29.2878  22
  -3  -5 -11-17.0811 38.3640  10
   3   5  11-13.2346 29.2442   9
   3   5  11 36.5018 29.1028   8
   3   5  12 118.252 37.1593  22
  -3  -5 -12 155.768 44.6275  10
   3   5  12 57.2493 33.8971   9
   3   5  12 116.178 32.0002   8
  -3  -5 -13 389.942 60.9437  10
   3   5  13 339.851 50.3338   9
   3   5  13 327.163 41.4457   8
   3   5  13 257.446 46.2284  30
  -3  -5 -14 48.6898 27.0132  10
   3   5  14 19.0508 22.9980   9
   3   5  14 35.7916 17.4662   8
   3   5  14 42.0863 19.6613  30
  -3  -5 -15 113.720 24.3750  10
   3   5  15 126.623 27.7987   9
   3   5  15 93.6004 21.7792  33
   3   5  15 82.5271 24.0905  30
  -3  -6   8 266.174 31.8493  32
  -3  -6   8 243.635 32.8270  28
  -3  -6   7 458.354 44.5263  32
  -3  -6   7 439.662 44.6955  29
  -3  -6   7 477.571 44.7406  28
  -3  -6   6 150.749 34.9249  32
   3   6  -6 119.591 30.5983   8
  -3  -6   6 70.2302 33.5113  29
  -3  -6   6 181.529 35.2690  28
  -3  -6   6 138.357 39.7067  12
  -3  -6   5 1797.77 95.8341  32
  -3  -6   5 1921.61 108.573  29
  -3  -6   5 2049.05 102.213  28
  -3  -6   5 1860.66 114.591  12
  -3  -6   4 6.59713 27.5717  42
  -3  -6   4-4.96365 27.4599  32
  -3  -6   4 0.79870 25.9248  28
  -3  -6   4-19.5944 34.2683  12
  -3  -6   3 54.5124 31.8805   6
   3   6  -3 77.9943 28.9377  40
  -3  -6   3 33.0269 27.6195  32
  -3  -6   3 65.9375 35.8957  28
  -3  -6   3 47.0152 25.0918  42
  -3  -6   3 25.1527 33.8680  12
  -3  -6   2 32.2151 31.4934   6
  -3  -6   2 21.6981 24.4394  42
   3   6  -2 45.1156 27.9525  40
   3   6  -2 49.0780 73.8420  37
  -3  -6   2 69.0613 35.2934  32
  -3  -6   2 17.6209 30.4186  28
  -3  -6   2 56.7846 30.7249   7
   3   6  -2-19.0923 181.267   1
  -3  -6   2 58.9741 37.9737  12
  -3  -6   1 59.3891 37.2031   6
  -3  -6   1 40.9615 29.9130  42
   3   6  -1 27.1639 26.4904  40
   3   6  -1 103.181 86.8693  37
  -3  -6   1 32.0661 26.9961  32
   3   6  -1-8.06615 29.7457   8
  -3  -6   1 90.8546 34.6481  28
  -3  -6   1 64.3997 30.9798   7
  -3  -6   1 77.6450 33.4062  12
  -3  -6   0 480.621 67.4558   6
  -3  -6   0 493.564 61.0400  42
   3   6   0 394.124 59.6468  40
   3   6   0 232.957 148.135  37
   3   6   0 543.554 68.1917   8
  -3  -6   0 350.599 57.8126  28
   3   6   0 584.228 261.163   1
  -3  -6   0 431.729 60.4497   7
  -3  -6   0 371.689 55.9860  12
  -3  -6  -1 95.0781 38.2395   6
  -3  -6  -1 48.3441 28.9895  42
   3   6   1 68.4793 32.7558  40
   3   6   1 43.1139 97.8645  37
   3   6   1 202.328 203.466   1
   3   6   1 91.8263 37.8793   8
  -3  -6  -1 143.419 42.0562   7
  -3  -6  -1 55.9334 30.6914  12
  -3  -6  -2 63.3546 37.1496   6
  -3  -6  -2 42.7671 27.8688  42
   3   6   2 2.95090 28.6816  40
   3   6   2-39.1025 121.034   1
   3   6   2-143.645 122.510  37
   3   6   2 42.4543 32.8267   8
  -3  -6  -2-15.3435 36.2556   7
  -3  -6  -2-50.3213 28.5363  12
  -3  -6  -3 535.545 64.7592  42
   3   6   3 662.544 76.1608  40
   3   6   3 536.985 253.153   1
  -3  -6  -3 468.494 187.220  39
   3   6   3 660.525 77.1582   8
  -3  -6  -3 638.248 76.1832   7
  -3  -6  -3 654.580 79.3613   6
   3   6   4 6149.06 790.479   1
  -3  -6  -4 5438.08 192.795  42
   3   6   4 6904.68 230.130  40
   3   6   4 6475.51 222.078   8
  -3  -6  -4 6248.49 224.659   7
  -3  -6  -4 6153.09 228.454   6
  -3  -6  -5 446.522 73.1887   6
  -3  -6  -5 249.224 46.2759  42
   3   6   5 534.167 75.5893  40
  -3  -6  -5 390.746 179.941  39
   3   6   5 162.203 200.607   1
   3   6   5 476.886 70.9714   8
  -3  -6  -5 463.274 73.9565   7
   3   6   6 14792.5 1209.99   1
  -3  -6  -6 13014.2 304.410  42
   3   6   6 16385.4 357.084  40
   3   6   6 15990.0 350.498   8
  -3  -6  -6 15574.6 363.310   7
   3   6   6 13976.8 299.403  13
  -3  -6  -6 14878.0 362.103   6
   3   6   7 662.545 265.102   1
  -3  -6  -7 325.182 59.6938   6
   3   6   7 449.462 63.5502  40
  -3  -6  -7 380.199 69.1042  10
  -3  -6  -7 87.6716 128.500  39
   3   6   7 371.528 61.5812   8
  -3  -6  -7 306.503 48.3797  42
   3   6   7 396.288 54.8003  13
  -3  -6  -7 384.286 62.2334   7
  -3  -6  -8 278.299 53.2288   6
   3   6   8 227.728 41.2920  22
  -3  -6  -8 220.450 40.7142  42
   3   6   8 294.157 48.3155  40
  -3  -6  -8 239.676 56.0405  10
   3   6   8 143.022 144.947   1
   3   6   8 272.662 49.5737   8
   3   6   8 300.252 49.4862  13
  -3  -6  -8 321.581 57.6674   7
  -3  -6  -9-50.4905 33.9860   6
   3   6   9 1.04225 23.8072  22
  -3  -6  -9 0.48590 22.1295  42
   3   6   9 21.0267 24.0751  40
  -3  -6  -9-21.0130 36.3071  10
   3   6   9-35.7393 32.5503   9
   3   6   9-0.02488 29.4666   8
  -3  -6  -9 0.35643 28.9430   7
   3   6  10 235.423 41.6325  22
  -3  -6 -10 223.994 58.0868  10
   3   6  10 213.281 45.8206   9
   3   6  10 293.922 48.2542   8
  -3  -6 -10 294.089 50.6535   7
  -3  -6 -10 170.699 38.5127  42
   3   6  11-22.7318 27.0096  22
  -3  -6 -11 73.7918 22.9477  42
  -3  -6 -11 16.3350 36.7302  10
   3   6  11 15.5168 28.6557   9
   3   6  11 20.3465 26.0601   8
  -3  -6 -12 297.878 56.1189  10
   3   6  12 223.704 45.5322   9
   3   6  12 337.818 47.5551   8
   3   6  13 54.0075 25.2447   9
   3   6  13 72.6047 27.3527   8
   3   6  13 9.20832 22.0934  30
  -3  -6 -14 12.5370 21.1688  10
   3   6  14 39.5858 20.5516   9
   3   6  14 17.7193 16.1759   8
   3   6  14 28.5014 20.7096  30
  -3  -7   6 155.780 27.2671  20
  -3  -7   6 140.833 27.6091  32
  -3  -7   6 208.555 33.2523  29
  -3  -7   5 1203.52 66.7594  32
  -3  -7   5 1456.41 83.1756  29
  -3  -7   4 39.0394 24.0504  32
   3   7  -4 76.5291 26.1116   8
  -3  -7   4 52.5580 32.4353  29
  -3  -7   3 73.6863 27.6975   6
  -3  -7   3 37.9729 27.0440  32
   3   7  -3 22.5138 23.1916   8
  -3  -7   3 71.2249 35.6205  29
  -3  -7   2 259.890 45.3265   6
  -3  -7   2 222.645 37.2402  42
   3   7  -2 214.146 40.2853  40
  -3  -7   2 190.205 35.9448  32
   3   7  -2 231.615 42.0099   8
  -3  -7   1 285.972 48.2905   6
   3   7  -1 324.575 50.6553  40
  -3  -7   1 291.706 38.8844  32
   3   7  -1 394.445 56.6813   8
  -3  -7   1 325.448 47.1884   7
  -3  -7   1 244.442 39.8445  42
  -3  -7   0 507.517 67.0772   6
  -3  -7   0 433.130 53.0305  42
   3   7   0 455.975 63.2992  40
   3   7   0 461.053 62.6073   8
  -3  -7   0 419.258 56.7766   7
  -3  -7  -1 206.857 52.2257   6
  -3  -7  -1 136.052 32.0944  42
   3   7   1 185.708 44.1514  40
   3   7   1 174.852 42.7030   8
  -3  -7  -1 208.388 45.7730   7
  -3  -7  -2 50.7963 42.3591   6
  -3  -7  -2 73.7077 29.9944  42
   3   7   2 50.1385 34.3595  40
   3   7   2 84.9416 110.918   1
   3   7   2 52.3741 34.0534   8
  -3  -7  -2 97.1823 43.6924   7
  -3  -7  -3 413.324 65.6436   6
  -3  -7  -3 337.627 47.4431  42
   3   7   3 427.869 66.4110  40
   3   7   3 210.303 182.405   1
   3   7   3 415.078 59.1709   8
  -3  -7  -3 351.183 60.1117   7
  -3  -7  -4 103.250 43.2634   6
   3   7   4 41.2499 33.8262  40
  -3  -7  -4 41.3500 28.2202  10
   3   7   4 52.1469 116.666   1
   3   7   4 101.651 43.2840   8
  -3  -7  -4 101.413 44.8001   7
  -3  -7  -5 237.511 54.2274   6
   3   7   5 347.653 58.1380  40
  -3  -7  -5 345.762 55.1518  10
   3   7   5 273.728 50.5044   8
  -3  -7  -5 266.655 57.6721   7
  -3  -7  -6 591.755 75.5314   6
  -3  -7  -6 621.942 74.2526  10
   3   7   6 671.297 76.3273  40
   3   7   6 701.346 76.4373   8
   3   7   6 441.878 236.620   1
  -3  -7  -6 613.046 73.7197   7
  -3  -7  -7 122.505 41.7559   6
   3   7   7 103.667 34.9319  40
  -3  -7  -7 99.7582 41.9394  10
   3   7   7 56.2515 34.1538   8
  -3  -7  -7 33.2878 35.3189   7
  -3  -7  -8 1196.77 104.416  10
   3   7   8 1285.98 94.0940  40
   3   7   8 1360.01 97.8353   8
  -3  -7  -8 1181.21 97.8347   7
  -3  -7  -8 1128.20 94.7671   6
  -3  -7  -9 51.5054 33.6024   6
   3   7   9 16.3494 19.9996  40
  -3  -7  -9-13.4670 31.8093  10
   3   7   9-35.1527 29.6175   9
   3   7   9 52.7447 32.7950   8
  -3  -7  -9-14.5580 31.6387   7
  -3  -7 -10 41.0611 25.7059   6
  -3  -7 -10 92.5845 38.6546  10
   3   7  10 145.377 41.4163   9
   3   7  10 75.4667 31.5399   8
  -3  -7 -11 128.821 46.0581  10
   3   7  11 58.7650 28.3040   9
   3   7  11 157.550 37.2142   8
  -3  -7 -12 10.0740 29.0242  10
   3   7  12 1.39871 22.5871   9
   3   7  12-6.79947 19.2783   8
   3   7  13-9.22404 19.8199   9
   3   7  13 40.9219 20.8189   8
   3   7  13 31.5166 18.5605  30
  -3  -8   4-28.2212 19.5147  20
  -3  -8   4-8.41244 15.2815  32
  -3  -8   4 10.0179 20.7527  29
  -3  -8   3 9.49855 24.0938  20
  -3  -8   3 30.9397 17.0757  32
  -3  -8   3-42.3142 28.1098  29
  -3  -8   2 42.6590 29.3108  20
  -3  -8   2 3.80461 26.3099  29
  -3  -8   1 202.624 40.4220   6
   3   8  -1 195.523 36.1350  40
   3   8  -1 165.626 31.8074   8
  -3  -8   1 221.553 44.3745  20
  -3  -8   1 293.495 48.6423  29
  -3  -8   0 367.234 53.4859   6
   3   8   0 387.469 52.8827  40
   3   8   0 417.647 50.7049   8
  -3  -8   0 364.884 52.0157  29
  -3  -8   0 299.279 42.5507   7
  -3  -8  -1-30.5066 28.8070   6
   3   8   1-5.05343 21.3808  40
   3   8   1 16.4253 22.7554   8
  -3  -8  -1-27.8703 30.2882  29
  -3  -8  -1-20.7421 25.8427   7
  -3  -8  -2 11.5117 27.7634   6
   3   8   2 77.4209 32.4495  40
   3   8   2 75.8519 31.9104   8
  -3  -8  -2 12.5118 27.0547  29
  -3  -8  -2 24.1224 24.0640   7
  -3  -8  -3 196.381 48.3402   6
   3   8   3 241.440 46.4526  40
  -3  -8  -3 193.489 44.6334  20
   3   8   3 137.581 36.4939   8
  -3  -8  -3 195.682 41.7336  29
  -3  -8  -3 180.912 43.6572   7
  -3  -8  -4 16.9719 32.3452   6
   3   8   4 31.3289 28.9493  40
  -3  -8  -4 10.8082 27.4095  20
   3   8   4 34.5773 27.5025   8
  -3  -8  -4-45.4385 28.6515  29
  -3  -8  -4 78.1159 32.3201   7
  -3  -8  -5 304.864 54.7033   6
   3   8   5 249.462 46.2089  40
  -3  -8  -5 213.743 41.1146  20
  -3  -8  -5 254.415 41.6756  10
   3   8   5 317.903 50.1396   8
  -3  -8  -5 245.924 50.5979   7
  -3  -8  -6 447.023 61.8967   6
  -3  -8  -6 554.182 62.2985  10
   3   8   6 485.799 63.2508  40
   3   8   6 536.984 62.0918   8
  -3  -8  -6 472.958 63.5412   7
  -3  -8  -7 862.389 78.3469  10
   3   8   7 838.103 77.3203  40
   3   8   7 893.631 79.6773   8
  -3  -8  -7 844.072 81.4518   7
  -3  -8  -7 857.192 82.4209   6
  -3  -8  -8 930.524 82.6571  10
   3   8   8 825.509 72.7786  40
  -3  -8  -8 854.002 69.2492  19
   3   8   8 935.577 77.6507   8
  -3  -8  -8 884.142 80.0294   7
  -3  -8  -8 836.682 77.4504   6
  -3  -8  -9 19.7283 24.9595   6
   3   8   9 34.8445 25.4775  40
  -3  -8  -9 52.4755 31.2662  10
   3   8   9 22.1731 27.5416   9
   3   8   9 26.1064 26.3142   8
  -3  -8 -10 27.6666 25.8736  10
   3   8  10 42.4661 29.2183   9
   3   8  10 76.5336 30.3041   8
  -3  -8 -11 110.226 30.6898  10
   3   8  11 72.6648 26.4508   9
   3   8  11 73.2961 22.1505   8
  -3  -8 -12 19.9040 21.1772  10
   3   8  12 30.4864 18.3512   9
   3   8  12 3.01338 18.6648   8
  -3  -9   1 402.478 42.4169  20
  -3  -9   1 285.300 34.2953  19
  -3  -9   1 325.385 36.1042  29
  -3  -9   0 3.62271 19.1865  20
  -3  -9   0-15.0922 20.4501  29
   3   9   1 129.596 29.4811  40
  -3  -9  -1 158.533 31.0138  29
  -3  -9  -2-25.1431 23.6157   6
   3   9   2-8.69596 17.7038  40
  -3  -9  -2 23.6299 23.6906  20
   3   9   2 0.36301 16.3137   8
  -3  -9  -2-33.7793 21.1498  29
  -3  -9  -3 144.861 37.3295   6
   3   9   3 127.666 31.8752  40
  -3  -9  -3 111.305 31.6052  20
   3   9   3 99.8607 25.0749   8
  -3  -9  -3 125.788 28.3568  29
  -3  -9  -4 3.13415 23.3635   6
   3   9   4 31.3544 20.5334  40
   3   9   4 15.8471 19.1539   8
  -3  -9  -5 33.5717 29.9376   6
  -3  -9  -5-35.4218 21.8616  20
   3   9   5 42.0801 26.5962  40
  -3  -9  -5 6.90177 21.1900  19
   3   9   5 1.18878 19.2798   8
   3   9   6 30.2969 21.2672  40
  -3  -9  -6-11.9641 25.3364  19
   3   9   6 21.0073 19.6658   8
  -3  -9  -7 403.363 51.4885   6
   3   9   7 306.169 42.3381  40
  -3  -9  -7 323.259 40.5352  19
   3   9   7 415.264 46.6517   8
  -3  -9  -8 62.6867 22.3192  10
   3   9   8 16.0096 17.9618  40
  -3  -9  -8 89.4223 27.7607  19
   3   9   8 92.2900 28.6321   9
   3   9   8 42.6273 21.3167   8
  -3  -9  -9 64.7074 24.6378  10
   3   9   9 5.72634 23.0507   9
   3   9   9 46.1976 22.1030   8
   4  -7  -6 121.695 25.6756  15
  -4   7   6 112.749 26.4027  12
   4  -7  -5 1846.78 84.0485  21
  -4   7   5 1868.30 87.2741  12
   4  -7  -4-40.4456 26.7983  21
   4  -7  -4 28.7430 21.9978   3
   4  -7  -4 36.1729 25.8987  24
  -4   7   4-33.2278 23.7558  12
   4  -7  -3 1300.54 77.1643  21
   4  -7  -3 1248.63 80.6552   3
  -4   7   3 1421.25 82.0790  12
   4  -7  -3 919.785 62.6985  24
   4  -7  -3 1040.66 61.1591  23
   4  -7  -2 254.248 36.9957  23
   4  -7  -2 251.925 40.2297   3
   4  -7  -2 267.540 41.6297  21
   4  -7  -2 289.507 48.0336  24
  -4   7   2 260.090 38.1246  12
   4  -7  -1 154.265 32.1444  23
   4  -7  -1 264.324 37.0962  21
   4  -7  -1 226.570 36.4758   3
   4  -7  -1 273.557 39.2556  24
  -4   7   1 218.474 37.5859  12
   4  -7   0 94.2604 28.5277  23
   4  -7   0 172.935 32.1804  21
   4  -7   0 158.498 33.2247   3
   4  -7   0 140.525 31.6698  24
  -4   7   0 143.344 32.2876  12
   4  -7   1 85.0537 25.8615  23
   4  -7   1 146.062 30.1878  21
   4  -7   1 62.7627 23.2126   3
   4  -7   1 58.4098 20.9731  24
  -4   7  -1 71.9275 29.8951  12
   4  -7   2 319.023 40.8261  23
   4  -7   2 386.115 41.9828  21
   4  -7   2 320.833 41.1579   3
   4  -7   2 332.419 36.6029  24
  -4   7  -2 419.052 42.4810  12
   4  -7   3 18.2617 20.8377  23
   4  -7   3-15.2928 21.4080  21
   4  -7   3 11.9404 18.1673  24
  -4   7  -3 23.0085 19.0539  12
  -4   6   8 236.723 31.8231  11
  -4   6   8 192.949 28.1301  16
   4  -6  -8 258.967 37.6989  15
   4  -6  -8 183.707 26.2482  14
  -4   6   8 174.821 29.0760  12
  -4   6   7 469.486 43.0756  16
   4  -6  -7 442.642 51.5622  15
  -4   6   7 395.295 45.6891  12
  -4   6   6-3.08124 20.1243  16
   4  -6  -6-43.0552 23.5476   3
   4  -6  -6-26.5453 27.9528  15
   4  -6  -6 20.8731 21.4164  24
  -4   6   6-6.26041 22.9188  12
   4  -6  -5 1014.08 78.4233   3
  -4   6   5 1098.28 67.5948  16
   4  -6  -5 1203.99 85.1060  15
  -4   6   5 1244.14 81.5483  12
   4  -6  -4-27.2221 23.2158   3
  -4   6   4 4.43682 18.4270  16
   4  -6  -4 16.3452 27.5950  15
   4  -6  -4 13.7580 25.4423  24
  -4   6   4-14.7955 28.1449  12
   4  -6  -3 1888.00 108.839   3
   4  -6  -3 1829.05 107.556  15
  -4   6   3 2058.39 109.674  12
   4  -6  -3 1422.55 80.3855  24
   4  -6  -3 1523.30 84.9162  23
   4  -6  -2 37.6223 24.1926  23
   4  -6  -2 124.710 42.7178  21
   4  -6  -2 138.310 41.5801   3
   4  -6  -2 93.4922 37.1110  24
  -4   6   2 68.9858 33.7220  12
   4  -6  -1 251.525 45.9760  23
   4  -6  -1 365.395 54.5860  21
   4  -6  -1 352.686 49.2934  20
   4  -6  -1 277.629 45.8514   3
   4  -6  -1 234.404 45.1443  24
  -4   6   1 327.955 44.6893  12
   4  -6   0 666.733 68.2917   3
   4  -6   0 717.802 68.9359  21
   4  -6   0 720.135 68.5049  20
  -4   6   0 669.016 67.5680  12
   4  -6   0 554.812 57.2342  24
   4  -6   0 536.115 62.4397  23
   4  -6   1-20.3022 31.3223  23
   4  -6   1 45.1357 33.0363  21
   4  -6   1 28.9231 33.3554  20
   4  -6   1 23.3827 25.9077   3
   4  -6   1-24.2049 23.8687  24
   4  -6   2 288.850 49.3245  23
   4  -6   2 332.077 48.0106  21
   4  -6   2 338.386 47.4024   3
   4  -6   2 299.125 41.3226  24
   4  -6   3 341.045 47.6267  23
   4  -6   3 383.859 48.8953   3
   4  -6   3 369.488 45.8051  21
   4  -6   3 300.458 40.8119  24
  -4   6  -3 362.879 44.8768  12
   4  -6   4 67.8243 29.4412  23
   4  -6   4 20.2975 24.6997  21
   4  -6   4 88.1043 25.6116   3
  -4   6  -4 44.3059 24.9432  12
   4  -6   5 593.048 51.3486  21
   4  -6   5 419.561 41.9886  24
   4  -6   5 567.412 52.7894  23
   4  -6   6 113.385 31.2055  23
   4  -6   6 52.5236 20.7315  21
   4  -6   6 63.5476 19.1233  24
  -4   5   9 487.630 41.9870  11
  -4   5   9 575.719 47.3430  16
   4  -5  -9 540.319 51.9878  15
   4  -5  -9 575.919 50.8326  14
  -4   5   9 534.175 44.4066  12
  -4   5   8 69.9587 25.2679  11
  -4   5   8 127.982 28.7166  16
   4  -5  -8 133.791 36.8352  15
   4  -5  -8 139.325 34.7742  14
  -4   5   8 83.3758 27.2770  12
  -4   5   7 1084.73 72.6318  16
   4  -5  -7 1126.01 85.3466  15
   4  -5  -7 1157.32 79.4712  14
  -4   5   7 1219.09 81.9003  12
   4  -5  -6 1582.67 98.4713   3
  -4   5   6 1725.19 94.8962  16
   4  -5  -6 1648.51 109.772  15
   4  -5  -6 1626.95 97.6132  14
  -4   5   6 1792.39 101.482  12
   4  -5  -5 755.620 75.4579   3
  -4   5   5 783.528 64.8448  16
   4  -5  -5 804.622 79.0490  15
   4  -5  -5 777.961 69.0004  14
  -4   5   5 777.940 71.2585  12
   4  -5  -4 44.9574 30.3593   3
  -4   5   4-21.1274 25.3579  16
   4  -5  -4 30.8334 36.4858  15
   4  -5  -4-5.22392 23.3823  14
  -4   5   4 74.6820 38.6240  12
   4  -5  -3 189.550 43.1273   3
  -4   5   3 222.940 38.7724  16
   4  -5  -3 199.333 46.8997  15
   4  -5  -3 154.851 35.2775  14
   4  -5  -3 111.349 30.0302  24
  -4   5   3 185.052 44.1357  12
   4  -5  -2 1751.36 115.995   3
   4  -5  -2 1935.70 121.259  15
   4  -5  -2 1701.37 96.5327  14
  -4   5   2 1904.17 116.075  12
   4  -5  -2 1459.76 87.5989  24
   4  -5  -2 1697.46 99.5196  23
   4  -5  -1 2214.57 126.257   3
   4  -5  -1 2341.36 125.729  20
   4  -5  -1 2296.30 130.331  15
   4  -5  -1 1921.40 101.696  14
  -4   5   1 2246.56 124.819  12
   4  -5  -1 1810.92 101.727  24
   4  -5  -1 2026.21 113.424  23
   4  -5   0 805.482 76.0674   3
   4  -5   0 832.682 84.9942  21
   4  -5   0 897.952 77.0699  20
   4  -5   0 615.385 56.9756  14
  -4   5   0 785.567 80.6042  12
   4  -5   0 663.797 70.2920  24
   4  -5   0 802.211 75.8990  23
   4  -5   1 3939.32 166.572   3
   4  -5   1 4203.58 166.698  21
   4  -5   1 3995.90 158.819  20
   4  -5   1 3567.75 135.033  24
   4  -5   1 3999.18 164.830  23
   4  -5   2 603.134 67.6860   3
   4  -5   2 596.814 65.9961  21
   4  -5   2 726.169 66.5462  20
   4  -5   2 584.942 57.5252  24
   4  -5   2 646.430 70.5724  23
   4  -5   3-27.7512 29.3169  23
   4  -5   3-16.8855 31.8640  21
   4  -5   3 14.4429 22.9795   3
   4  -5   3 6.86845 24.6037  24
   4  -5   4 481.659 57.6426  23
   4  -5   4 486.681 54.1401   3
   4  -5   4 440.471 56.6082  21
   4  -5   4 421.221 45.2967  24
  -4   5  -4 386.899 49.3679  12
   4  -5   5 1034.54 75.6478  21
   4  -5   5 872.428 67.5580   3
   4  -5   5 806.809 62.5884  24
   4  -5   5 1051.63 83.9549  23
   4  -5   6 62.1205 32.0820  23
   4  -5   6 67.9074 32.3505  21
   4  -5   6 36.1452 21.8688  24
   4  -5   7 162.779 35.7280  23
   4  -5   7 145.744 30.9521  21
   4  -5   7 119.565 25.9772  24
   4  -5   8 105.066 28.5877  23
   4  -5   8 144.984 28.9424  21
   4  -5   8 62.0525 18.9215  24
  -4   4  10 212.357 29.3885  11
  -4   4  10 239.542 32.5478  16
   4  -4 -10 288.765 37.8843  15
   4  -4 -10 232.918 35.7822  14
  -4   4   9 222.291 32.9409  11
  -4   4   9 294.935 38.0869  16
   4  -4  -9 355.200 47.5304  15
   4  -4  -9 330.590 48.4022  14
  -4   4   9 337.466 43.8985  12
  -4   4   8 385.046 43.3909  11
  -4   4   8 540.412 54.0367  16
   4  -4  -8 504.516 61.2322  15
   4  -4  -8 609.486 62.2748  14
  -4   4   8 496.458 52.4822  12
  -4   4   7 896.253 67.2051  11
  -4   4   7 970.691 74.3247  16
   4  -4  -7 988.927 86.6573  15
   4  -4  -7 1063.74 87.2755  14
  -4   4   7 1086.29 81.6049  12
   4  -4  -6 61.8576 27.8349   3
  -4   4   6 118.839 35.2073  16
   4  -4  -6 79.8719 38.3717  15
   4  -4  -6 71.6818 34.2086  14
  -4   4   6 86.4230 40.5904  12
   4  -4  -5 851.418 78.9101   3
  -4   4   5 883.596 74.5666  16
   4  -4  -5 867.641 90.4093  15
   4  -4  -5 799.636 78.3894  14
  -4   4   5 929.534 83.5609  12
   4  -4  -4 264.092 52.3465   3
  -4   4   4 280.990 45.1131  16
   4  -4  -4 265.154 56.1032  15
   4  -4  -4 327.827 55.8917  14
  -4   4   4 358.739 58.0695  12
   4  -4  -3 6.60766 30.4627   3
  -4   4   3 229.510 121.997  36
  -4   4   3 28.6368 20.7408  16
  -4   4   3 8.93819 110.830   5
   4  -4  -3 46.5685 42.3503  15
   4  -4  -3 31.2924 34.0448  14
   4  -4  -3 84.4420 143.810   4
  -4   4   3 24.8522 32.5299  12
   4  -4  -2 691.072 77.4146   3
  -4   4   2 626.386 60.8431  16
  -4   4   2 508.221 220.893  36
  -4   4   2 614.914 257.807   5
   4  -4  -2 732.560 84.0912  15
   4  -4  -2 661.033 71.4096  14
   4  -4  -2 754.424 304.244   4
  -4   4   2 590.672 68.4730  12
   4  -4  -1 60.7040 32.3209  23
   4  -4  -1 101.417 37.6541   3
  -4   4   1 16.1103 124.186  36
  -4   4   1-75.5782 175.426   5
   4  -4  -1 21.6501 34.4872  15
   4  -4  -1 64.9671 35.8066  14
   4  -4  -1-28.0747 120.507   4
  -4   4   1 41.5592 36.1799  12
  -4   4   0 5516.93 745.073   5
  -4   4   0 5618.51 773.760  36
   4  -4   0 5832.06 194.819  14
   4  -4   0 4844.09 689.180   4
  -4   4   0 5657.03 198.500  12
   4  -4   0 5606.74 197.625  23
   4  -4   0 5779.83 209.548   3
   4  -4   1 238.293 50.9638  23
   4  -4   1 204.006 51.4359  21
   4  -4   1 195.325 46.6350   3
  -4   4  -1 448.637 263.189  36
  -4   4  -1 93.9603 111.919   5
   4  -4   1 194.478 39.4786  14
   4  -4   1 197.193 132.878   4
  -4   4  -1 157.740 41.1278  12
   4  -4   2 2376.24 131.173   3
   4  -4   2 2350.78 127.451  21
  -4   4  -2 1996.40 463.150  36
  -4   4  -2 2030.72 473.527   5
   4  -4   2 2098.15 110.920  14
   4  -4   2 2104.66 442.595   4
   4  -4   2 2385.27 132.774  23
   4  -4   3 1732.71 110.724   3
   4  -4   3 1692.83 107.998  21
  -4   4  -3 1239.08 350.407  36
   4  -4   3 1104.39 355.564   4
   4  -4   3 1631.96 109.420  23
   4  -4   4 33.3973 35.3516  21
   4  -4   4 58.6963 33.2101   3
  -4   4  -4 17.2658 23.5781  12
   4  -4   5 950.894 77.1181   3
   4  -4   5 996.843 80.0305  21
   4  -4   5 809.477 61.7209  24
   4  -4   5 880.493 80.7155  23
   4  -4   6 205.929 46.6346  23
   4  -4   6 213.221 36.4851   3
   4  -4   6 267.524 48.8558  21
   4  -4   6 135.662 27.4284  24
   4  -4   7 2707.21 117.368  21
   4  -4   7 2628.50 124.732  23
   4  -4   8 40.4396 29.5357  23
   4  -4   8 31.6405 24.4364  21
   4  -4   8-10.8583 17.8193  24
   4  -4   9 76.2395 27.4449  23
   4  -4   9 100.803 27.5044  21
   4  -4  10 1724.84 75.2089  21
   4  -4  10 1827.90 83.0333  23
  -4   3  10 34.3656 20.3796  11
  -4   3  10 72.0263 24.7165  16
   4  -3 -10 22.8326 21.6677  15
   4  -3 -10 24.2684 20.8342  14
  -4   3  10 18.6873 18.5980  12
  -4   3   9 552.019 48.2600  11
  -4   3   9 767.464 61.0822  16
   4  -3  -9 595.084 60.4724  15
   4  -3  -9 718.718 67.2778  14
  -4   3   9 662.177 58.9168  12
  -4   3   8-55.5004 26.6277  11
  -4   3   8-27.1859 23.9607  16
   4  -3  -8 49.3828 36.8750  15
   4  -3  -8 64.2869 36.9408  14
  -4   3   8-25.7822 30.4954  12
  -4   3   7 998.103 70.8350  11
  -4   3   7 1313.03 89.9232  16
   4  -3  -7 1248.87 97.1396  15
   4  -3  -7 1396.59 101.879  14
   4  -3  -7 1022.05 72.2442  13
  -4   3   7 1400.86 96.0595  12
   4  -3  -6 5334.15 187.087   3
  -4   3   6 4106.71 148.033  11
  -4   3   6 5244.99 182.826  16
   4  -3  -6 5250.46 205.984  15
   4  -3  -6 5487.61 203.116  14
   4  -3  -6 4169.03 147.100  13
  -4   3   6 5744.63 196.695  12
  -4   3   5 4553.11 171.752  16
   4  -3  -5 4510.01 195.323  15
   4  -3  -5 4713.71 191.421  14
  -4   3   5 5008.30 187.147  12
   4  -3  -5 4456.90 181.818   3
   4  -3  -4 54.1080 34.9718   3
  -4   3   4-55.6897 177.786   5
  -4   3   4 22.8637 29.5527  16
   4  -3  -4 24.8841 33.6192  15
   4  -3  -4 32.2323 39.9205  14
   4  -3  -4 10.3584 145.839   4
  -4   3   4 22.7775 34.5507  12
  -4   3   3 12899.6 1110.51   5
  -4   3   3 13029.9 299.471  16
  -4   3   3 11517.7 1010.05  36
   4  -3  -3 13174.5 343.147  15
   4  -3  -3 11930.1 1098.44   4
   4  -3  -3 13183.9 328.287  14
  -4   3   3 13041.5 313.992  12
   4  -3  -3 13051.3 328.315   3
   4  -3  -2-35.1653 33.4778   3
  -4   3   2-85.2890 112.681  36
  -4   3   2 13.9533 21.5574  16
  -4   3   2 241.050 180.314   5
   4  -3  -2 23.3849 35.0115  15
   4  -3  -2 34.7408 39.0046  14
   4  -3  -2 40.9186 141.667   4
  -4   3   2 1.28506 36.5413  12
  -4   3   1 905.222 75.2664  16
  -4   3   1 1005.42 334.335  36
  -4   3   1 1042.56 334.416   5
   4  -3  -1 874.888 89.2593  15
   4  -3  -1 908.065 84.5350  14
   4  -3  -1 777.173 300.904   4
  -4   3   1 867.673 82.3284  12
   4  -3  -1 770.123 79.9160   3
  -4   3   0 2376.95 496.531  36
  -4   3   0 1810.68 420.266   5
   4  -3   0 2228.74 140.024  15
   4  -3   0 2376.57 131.385  14
   4  -3   0 2110.00 464.607   4
  -4   3   0 2144.42 122.285  12
   4  -3   0 2149.40 130.456   3
   4  -3   0 2173.32 119.633  23
   4  -3   1 175.441 44.6910  23
   4  -3   1 196.808 48.1138  21
   4  -3   1 186.698 44.3704   3
  -4   3  -1 133.852 166.556  36
  -4   3  -1 361.352 252.293   5
   4  -3   1 209.658 44.8002  14
   4  -3   1 353.985 195.388   4
  -4   3  -1 183.691 41.7875  12
   4  -3   2 60.5069 35.3662  23
   4  -3   2 96.1563 37.6918  21
   4  -3   2 98.9710 37.3794   3
  -4   3  -2 118.497 150.152  36
  -4   3  -2 145.463 107.685   5
   4  -3   2 80.5910 35.8702  14
   4  -3   2 262.705 192.307   4
  -4   3  -2 73.4125 33.8529  12
   4  -3   3-4.71010 30.9993  23
   4  -3   3-9.42930 34.6488  21
   4  -3   3-42.7138 32.5338   3
  -4   3  -3-48.0841 152.799  36
  -4   3  -3-80.8125 158.553   5
   4  -3   3-15.9443 28.1135  14
   4  -3   3 153.417 170.182   4
  -4   3  -3 65.0267 37.9026  12
   4  -3   4 311.320 56.3603  23
   4  -3   4 336.927 54.6083  21
   4  -3   4 342.316 54.6848   3
  -4   3  -4 276.668 44.9305  12
   4  -3   5 1305.88 93.1874  21
  -4   3  -5 1097.74 338.269   5
   4  -3   5 1265.34 349.292   4
   4  -3   5 1396.95 101.580  23
   4  -3   5 1298.79 94.2259   3
   4  -3   6 5581.53 185.565   3
   4  -3   6 6068.64 194.898  21
   4  -3   6 6119.10 211.733  23
   4  -3   7 263.216 48.7042  23
   4  -3   7 339.223 50.5552  21
   4  -3   8 1377.21 87.3130  21
   4  -3   8 1397.02 96.2658  23
   4  -3   9 63.2388 38.4092  23
   4  -3   9 3.43522 28.1643  21
   4  -3  10 502.139 55.7082  23
   4  -3  10 535.456 50.5460  21
   4  -3  11 627.894 49.1318  21
   4  -3  11 813.543 60.0653  23
  -4   2  11 805.048 49.9759  16
  -4   2  11 722.433 48.8354  31
   4  -2 -11 714.386 53.6429  14
   4  -2 -11 725.836 48.1405  13
  -4   2  11 790.258 50.7421  26
  -4   2  10 260.955 37.9821  16
   4  -2 -10 247.309 40.7705  14
   4  -2 -10 254.408 36.6027  13
  -4   2  10 241.868 35.4524  12
  -4   2   9-22.2956 19.6989  11
  -4   2   9-32.5421 20.2047   2
  -4   2   9 14.6771 21.7143  16
   4  -2  -9 27.5454 23.8110  15
   4  -2  -9 33.7262 34.4265  14
   4  -2  -9-19.4541 21.7906  13
  -4   2   9 7.32525 26.0757  12
  -4   2   8 161.041 29.3623  11
  -4   2   8 139.568 30.7653   2
  -4   2   8 195.327 37.8755  16
   4  -2  -8 134.610 37.5294  15
   4  -2  -8 154.041 43.8084  14
   4  -2  -8 164.066 37.1775  13
  -4   2   8 197.505 41.7280  12
  -4   2   7 115.899 28.6042  11
  -4   2   7 194.666 36.8336   2
  -4   2   7 203.456 40.6356  16
   4  -2  -7 221.284 45.6947  15
   4  -2  -7 163.970 44.2776  14
   4  -2  -7 237.395 43.1624  13
  -4   2   7 272.807 54.0479  12
  -4   2   6 1621.61 104.648  16
   4  -2  -6 1727.63 117.173  15
   4  -2  -6 1702.32 115.539  14
  -4   2   6 1613.52 97.1441   2
   4  -2  -6 1636.33 102.057  13
  -4   2   6 1956.53 117.559  12
   4  -2  -6 1801.41 107.780   3
  -4   2   6 1654.49 97.3450   6
  -4   2   5 1305.84 94.6797  16
  -4   2   5 744.619 244.429   5
   4  -2  -5 1324.47 107.730  15
   4  -2  -5 1390.19 109.968  14
   4  -2  -5 1310.17 91.4657  13
   4  -2  -5 948.791 292.926   4
  -4   2   5 1524.75 106.895  12
   4  -2  -5 1465.94 104.405   3
  -4   2   4 3994.25 607.518   5
  -4   2   4 4139.79 167.787  16
   4  -2  -4 4063.16 188.038  15
   4  -2  -4 4186.29 636.875   4
   4  -2  -4 4145.41 185.315  14
   4  -2  -4 3790.09 152.511  13
  -4   2   4 4114.51 174.045  12
   4  -2  -4 4329.58 181.741   3
  -4   2   3 20609.5 1401.21   5
  -4   2   3 21693.6 401.189  16
   4  -2  -3 22318.4 455.769  15
   4  -2  -3 20392.2 1434.75   4
   4  -2  -3 23123.8 446.193  14
   4  -2  -3 20438.7 373.006  13
  -4   2   3 21845.8 417.537  12
  -4   2   2-25.6066 135.165  36
  -4   2   2 4.40877 25.7174  16
  -4   2   2-152.900 194.206   5
   4  -2  -2 47.5716 35.8906  15
   4  -2  -2 59.7859 42.3123  14
   4  -2  -2 5.30127 119.541   4
   4  -2  -2 22.0933 28.0963  13
  -4   2   2-29.8669 43.0827  12
  -4   2   1 2624.62 127.805  16
  -4   2   1 2512.98 480.861  36
  -4   2   1 2146.70 458.819   5
   4  -2  -1 1321.15 118.157  15
   4  -2  -1 2503.21 142.084  14
   4  -2  -1 2055.49 108.260  13
   4  -2  -1 2072.07 472.088   4
  -4   2   0 98.1892 153.690  36
  -4   2   0-16.5306 22.7948  16
  -4   2   0-162.032 158.898   5
   4  -2   0 9.56666 30.1870  15
   4  -2   0-44.9374 30.2229  14
   4  -2   0 121.420 126.453   4
   4  -2   0-7.09418 26.2552  13
  -4   2   0 7.40719 28.9084  12
  -4   2  -1 2128.23 452.602   5
   4  -2   1 2479.51 481.500   4
   4  -2   1 2521.17 137.783  14
   4  -2   1 2197.57 108.350  13
  -4   2  -1 2328.15 124.737  12
   4  -2   1 2288.15 120.745  23
   4  -2   2 56.8248 32.8792  23
  -4   2  -2 158.091 164.995   5
   4  -2   2 27.0426 28.3036  21
   4  -2   2 23.6177 27.5820  14
   4  -2   2 76.4523 28.5198  13
   4  -2   2 201.453 158.490   4
  -4   2  -2 54.7029 27.2259  12
   4  -2   3 2274.91 125.059  21
  -4   2  -3 2283.07 475.828   5
   4  -2   3 2521.38 480.085   4
   4  -2   3 2323.85 130.768  14
   4  -2   3 1917.40 99.9887  13
  -4   2  -3 1952.60 108.676  12
   4  -2   3 2707.65 139.504  23
   4  -2   4 255.633 47.6434  23
   4  -2   4 242.363 43.8401  21
  -4   2  -4 223.193 197.648   5
   4  -2   4 265.953 45.9510  14
   4  -2   4 239.320 36.7539  13
   4  -2   4 232.913 164.439   4
   4  -2   5 115.033 43.1184  23
   4  -2   5 51.0826 31.4679  21
   4  -2   5 83.7843 31.4696   3
  -4   2  -5 306.608 178.634   5
   4  -2   5 79.0477 29.4919  13
   4  -2   5 140.697 176.546   4
  -4   2  -5 79.0749 28.3501   7
   4  -2   6 4599.40 169.127  21
  -4   2  -6 3739.47 596.062   5
   4  -2   6 3858.89 571.425   4
   4  -2   6 3833.07 144.254  13
   4  -2   6 4446.30 169.915   3
   4  -2   6 4968.53 191.422  23
   4  -2   7 1652.40 102.739  21
   4  -2   7 1435.05 91.1783   3
   4  -2   7 1782.64 115.295  23
  -4   2  -7 1598.12 96.5221   6
   4  -2   8 1692.96 92.9832  22
   4  -2   8 1776.72 103.118  21
   4  -2   8 1641.54 79.0142  30
   4  -2   8 1859.87 119.097  23
   4  -2   9 33.1173 46.2417  23
   4  -2   9 9.96498 19.0388  22
   4  -2   9 7.60532 30.6524  21
   4  -2   9 15.9767 17.2493  30
   4  -2  10 178.018 38.9134  21
   4  -2  10 167.311 26.7820  30
   4  -2  11 804.381 61.4017  21
   4  -2  11 738.390 45.3623  30
   4  -2  11 909.472 70.9379  23
   4  -2  12 70.0488 27.5074  23
   4  -2  12 27.2167 13.2529  30
   4  -2  12 51.4912 26.1518  21
  -4   1  11 303.516 30.4774  16
  -4   1  11 233.895 29.4089  31
   4  -1 -11 225.953 32.7162  14
   4  -1 -11 310.463 35.8739  13
  -4   1  11 246.960 29.4146  26
  -4   1  10 569.011 49.9814  16
  -4   1  10 508.015 47.8389  31
   4  -1 -10 513.281 54.5146  14
   4  -1 -10 638.719 56.0063  13
  -4   1  10 428.021 45.4273   2
  -4   1  10 544.603 48.4664  26
  -4   1  10 552.465 50.2009  12
  -4   1   9-23.1296 19.8731   2
  -4   1   9 20.8858 20.7224  16
   4  -1  -9-22.9771 25.3092  14
   4  -1  -9 28.5363 26.7158  13
  -4   1   9 12.7729 23.1022  26
  -4   1   9-4.00499 27.7260  12
  -4   1   8 1298.59 87.1705  16
   4  -1  -8 1172.64 89.7256  14
  -4   1   8 1056.89 82.5361   2
  -4   1   8 1182.91 76.1305   7
   4  -1  -8 1208.51 87.5813  13
  -4   1   8 1298.36 92.4182  12
  -4   1   7 1934.58 111.842  16
   4  -1  -7 1527.24 99.7393  15
   4  -1  -7 1891.09 116.865  14
  -4   1   7 1723.54 108.164   2
  -4   1   7 1973.19 108.504   7
   4  -1  -7 1840.49 110.397  13
  -4   1   7 2169.35 124.045  12
  -4   1   6 276.440 46.3117   2
   4  -1  -6 111.661 109.434  37
  -4   1   6 288.130 46.4183  16
   4  -1  -6 281.512 54.5094  15
   4  -1  -6 305.999 58.1395  14
   4  -1  -6 290.625 51.2016  13
  -4   1   6 382.101 62.2466  12
  -4   1   5 1517.11 97.1585  42
  -4   1   5 1742.67 108.553  16
   4  -1  -5 1764.46 381.156  37
   4  -1  -5 1550.20 113.288  15
  -4   1   5 1611.44 107.545   2
   4  -1  -5 1880.26 125.454  14
   4  -1  -5 1826.15 111.849  13
  -4   1   5 1918.65 123.513  12
  -4   1   5 1663.61 104.470   6
  -4   1   4 1952.31 110.352  42
  -4   1   4 2193.38 120.383  16
   4  -1  -4 1846.94 358.792  37
  -4   1   4 1631.17 400.918   5
   4  -1  -4 2040.24 131.556  15
   4  -1  -4 2104.71 133.853  14
   4  -1  -4 2259.28 123.436  13
   4  -1  -4 1453.28 373.828   4
  -4   1   4 2268.95 129.380  12
  -4   1   3 1030.25 80.1940  42
  -4   1   3 1044.29 86.1875  16
   4  -1  -3 1099.84 293.726  37
  -4   1   3 1052.80 314.089   5
   4  -1  -3 1109.20 98.6651  15
   4  -1  -3 1064.20 93.6479  14
   4  -1  -3 1175.58 90.0458  13
   4  -1  -3 1101.35 350.057   4
  -4   1   3 1171.35 93.0773  12
  -4   1   2 8413.70 236.925  42
  -4   1   2 8888.20 923.923   5
   4  -1  -2 7851.66 751.970  37
  -4   1   2 9219.70 255.309  16
   4  -1  -2 9455.60 290.130  15
   4  -1  -2 8598.59 929.574   4
   4  -1  -2 10133.4 290.393  14
   4  -1  -2 9313.56 246.644  13
  -4   1   2 9155.33 217.138  26
  -4   1   2 9833.25 269.865  12
  -4   1   1 2338.35 120.087  42
  -4   1   1 2459.29 508.400   5
  -4   1   1 2427.75 124.680  16
  -4   1   1 2196.21 428.827  36
   4  -1  -1 2450.17 146.793  15
   4  -1  -1 2570.06 141.627  14
   4  -1  -1 2423.09 121.291  13
   4  -1  -1 1963.79 424.469   4
  -4   1   1 2537.49 131.910  12
  -4   1   0 141.974 32.5970  42
  -4   1   0-47.8856 161.289  39
  -4   1   0 182.630 152.952   5
  -4   1   0 186.870 38.1421  16
   4  -1   0 231.143 52.0552  14
   4  -1   0-26.6485 114.971   4
   4  -1   0 174.929 37.9003  13
  -4   1   0 232.776 47.0857  12
  -4   1  -1 61.3602 27.6192  42
   4  -1   1 107.171 33.4515  21
  -4   1  -1-27.6414 92.6077  39
  -4   1  -1 87.5626 110.058   5
  -4   1  -1 125.609 33.1352  16
   4  -1   1 112.628 40.7225  14
   4  -1   1 97.7713 138.871   4
   4  -1   1 102.670 31.3838  13
  -4   1  -1 107.410 35.0861  12
   4  -1   2 637.004 64.2015  21
  -4   1  -2 648.175 66.3644  42
  -4   1  -2 556.503 178.998  39
  -4   1  -2 788.587 308.519   5
   4  -1   2 807.249 79.3847  14
   4  -1   2 764.687 69.3472  13
   4  -1   2 825.192 303.165   4
  -4   1  -2 670.196 65.4922  12
   4  -1   2 738.031 70.8258  23
   4  -1   3 134.373 40.3822  23
  -4   1  -3 122.755 33.9686  42
   4  -1   3 157.631 38.3013  21
  -4   1  -3-7.89117 88.9107  39
  -4   1  -3-1.82914 95.8021   5
   4  -1   3 181.986 47.0220  14
   4  -1   3 276.228 188.973   4
   4  -1   3 172.438 39.5346  13
  -4   1  -3 156.106 36.2363  12
   4  -1   4 566.386 64.7409  23
  -4   1  -4 508.162 59.7018  42
   4  -1   4 435.150 55.7073  21
  -4   1  -4 427.870 190.478  39
  -4   1  -4 358.692 194.425   5
   4  -1   4 527.187 68.1377  14
   4  -1   4 598.774 63.5978  13
   4  -1   4 327.012 178.893   4
  -4   1  -4 580.092 64.0743   7
   4  -1   5 86.7560 38.8771  23
  -4   1  -5-5.79828 26.5763  42
   4  -1   5 12.0632 28.4043  21
  -4   1  -5 73.7262 77.9571  39
  -4   1  -5 53.2564 155.687   5
   4  -1   5 5.78335 25.1522  13
   4  -1   5-93.2057 180.994   4
  -4   1  -5-1.52621 23.5781   7
   4  -1   6-15.9825 45.9525  23
   4  -1   6 19.5903 30.9669  21
  -4   1  -6-104.348 150.486  39
  -4   1  -6 26.3341 114.431   5
   4  -1   6 65.3254 28.0956  13
   4  -1   6 54.4175 87.1031   4
   4  -1   7 2894.59 131.845  21
   4  -1   7 2637.37 109.589  30
   4  -1   7 2902.59 130.280  13
   4  -1   7 3288.30 156.672  23
  -4   1  -7 3041.92 142.114   6
   4  -1   8 598.225 71.8489  23
   4  -1   8 460.517 56.7361  21
   4  -1   8 486.376 47.1873  30
   4  -1   8 491.165 59.0321  13
   4  -1   9 7216.28 198.716  22
   4  -1   9 7201.45 201.230  21
   4  -1   9 7669.35 232.088  23
   4  -1  10 7644.88 195.065  22
   4  -1  10 7807.00 200.941  21
   4  -1  10 7714.21 181.388  30
   4  -1  11 595.594 68.0418  23
   4  -1  11 475.336 45.4042  22
   4  -1  11 507.940 54.5803  21
   4  -1  11 447.368 42.3288  30
   4  -1  12 211.083 41.4813  23
   4  -1  12 198.503 35.6077  21
   4  -1  12 165.984 26.6453  30
   4  -1  13-20.7230 22.7584  23
   4  -1  13-8.91865 21.1892  21
   4  -1  13 8.32526 11.3593  30
  -4   0  10 2212.05 89.7175  16
  -4   0  10 1994.64 87.1026  31
   4   0 -10 1871.19 83.9519  14
   4   0 -10 2188.69 98.2385  13
  -4   0  10 1758.75 92.0255   2
  -4   0  10 2046.75 88.3471  26
  -4   0  10 2025.14 93.1852  12
  -4   0   9-0.12763 19.3363   2
  -4   0   9 27.1106 21.4072  16
  -4   0   9-12.3368 26.3549  31
   4   0  -9-0.09425 20.9904  14
   4   0  -9 8.01124 25.2822  13
  -4   0   9 8.98907 23.1906  26
  -4   0   9-22.3852 27.9400  12
  -4   0   8 2027.80 105.176  16
   4   0  -8 1788.32 106.534  14
  -4   0   8 1671.05 105.012   2
   4   0  -8 1982.11 109.451  13
  -4   0   8 1771.10 95.5460  26
  -4   0   8 1989.86 112.587  12
  -4   0   7 442.489 60.0799   2
  -4   0   7 523.174 61.5757  16
   4   0  -7 476.550 60.4521  14
  -4   0   7 509.038 54.3142   7
   4   0  -7 504.370 64.0584  13
  -4   0   7 497.369 57.0031  26
  -4   0   7 551.168 69.4557  12
  -4   0   6 57.3686 30.5358   2
  -4   0   6 85.2820 34.1798  42
   4   0  -6 131.517 150.978  37
  -4   0   6 93.6129 31.6316  16
   4   0  -6 34.5128 28.4021  14
   4   0  -6 44.2459 36.4765  13
  -4   0   6 75.3349 28.9023  26
  -4   0   6 91.8496 31.2666   7
  -4   0   6 50.7820 41.8701  12
  -4   0   5 692.865 70.6436  42
  -4   0   5 805.677 75.0598  16
   4   0  -5 682.487 256.308  37
   4   0  -5 785.556 82.5350  14
  -4   0   5 829.123 76.1643   7
   4   0  -5 844.583 81.2869  13
  -4   0   5 753.204 69.8956  26
  -4   0   5 827.547 86.5565  12
  -4   0   5 778.406 72.3465   6
  -4   0   4 13597.0 319.028  42
  -4   0   4 12907.8 1092.60   5
   4   0  -4 12274.1 972.552  37
  -4   0   4 14000.4 317.364  16
   4   0  -4 13692.5 1152.69   4
   4   0  -4 13890.5 343.281  14
  -4   0   4 14827.6 332.338   7
   4   0  -4 14639.8 331.422  13
  -4   0   4 14454.6 299.278  26
  -4   0   4 14735.2 344.648  12
  -4   0   4 14142.4 323.276   6
  -4   0   3 4086.13 171.661  42
  -4   0   3 3853.44 613.771   5
   4   0  -3 3949.99 544.557  37
  -4   0   3 4059.59 167.126  16
   4   0  -3 4094.47 655.566   4
   4   0  -3 4090.81 183.048  14
   4   0  -3 4462.75 175.967  13
  -4   0   3 4376.57 157.393  26
  -4   0   3 4435.24 183.968  12
  -4   0   3 4311.36 178.911   6
  -4   0   2 1724.48 111.523  42
   4   0  -2 1810.03 113.889  40
  -4   0   2 1639.00 107.277  16
   4   0  -2 1296.85 307.090  37
  -4   0   2 1603.75 392.796   5
   4   0  -2 1758.06 120.631  14
   4   0  -2 1878.11 112.781  13
   4   0  -2 1706.85 421.336   4
  -4   0   2 1777.83 97.0895  26
  -4   0   2 1758.70 115.916  12
  -4   0   2 1839.30 118.441   6
  -4   0   1 7480.73 232.086  42
   4   0  -1 7945.15 239.640  40
  -4   0   1 7705.58 864.602   5
  -4   0   1 6973.67 725.147  39
   4   0  -1 7159.41 703.420  37
  -4   0   1 7878.61 231.711  16
   4   0  -1 8108.71 895.366   4
   4   0  -1 7847.86 252.026  14
   4   0  -1 8502.04 237.287  13
  -4   0   1 8224.57 206.042  26
  -4   0   1 7642.69 234.516  12
  -4   0   0 2317.49 126.068  42
   4   0   0 2185.09 127.155  40
  -4   0   0 2640.20 503.731   5
  -4   0   0 2070.29 394.961  39
  -4   0   0 2428.98 124.875  16
   4   0   0 2062.99 360.999  37
   4   0   0 2477.45 142.481  14
   4   0   0 2395.92 123.184  13
   4   0   0 2279.94 474.530   4
  -4   0   0 2477.88 128.382  12
  -4   0  -1 851.568 80.4972  42
   4   0   1 875.023 79.1109  40
  -4   0  -1 777.988 244.795  39
  -4   0  -1 956.810 77.7176  16
   4   0   1 918.421 249.996  37
  -4   0  -1 877.062 309.669   5
   4   0   1 849.740 85.8113  14
   4   0   1 931.217 78.2000  13
   4   0   1 975.732 311.364   4
  -4   0  -1 831.707 72.9878  12
  -4   0  -2 96.2370 31.8824  42
   4   0   2 110.026 36.1300  40
  -4   0  -2 76.0235 113.855  39
  -4   0  -2 172.478 160.377   5
  -4   0  -2 105.114 29.7578  16
   4   0   2 107.392 41.3197  14
   4   0   2 243.415 198.749   4
   4   0   2 138.438 35.6594  13
  -4   0  -2 87.8304 34.7053   7
  -4   0  -2 103.344 30.5973  12
   4   0   3 272.482 46.9063  23
  -4   0  -3 296.922 53.0708  42
   4   0   3 349.995 52.2190  40
  -4   0  -3 105.810 137.964  39
  -4   0  -3 272.531 174.949   5
   4   0   3 295.000 53.5441  14
   4   0   3 338.061 196.111   4
   4   0   3 289.413 46.9657  13
  -4   0  -3 297.309 51.2980   7
   4   0   4 341.852 52.0784  23
  -4   0  -4 312.193 48.7336  42
   4   0   4 350.331 53.2273  40
  -4   0  -4 75.6704 91.6069  39
  -4   0  -4 390.384 228.437   5
   4   0   4 355.688 57.8643  14
   4   0   4 422.002 202.860   4
   4   0   4 365.959 52.8385  13
  -4   0  -4 348.201 53.9285   7
   4   0   5 45.0556 37.5037  23
  -4   0  -5 14.3098 27.0575  42
   4   0   5-11.2908 24.2902  21
  -4   0  -5 34.9779 37.1765   6
   4   0   5 16.0226 25.3574  40
  -4   0  -5-89.7159 86.8451  39
  -4   0  -5 90.5952 105.031   5
   4   0   5-76.7844 94.1159   4
   4   0   5-10.1117 25.7219  13
  -4   0  -5-11.2680 26.4731   7
   4   0   6 494.192 67.0407  23
   4   0   6 366.996 48.2878  21
  -4   0  -6 544.578 67.7027   6
  -4   0  -6 528.597 219.224  39
  -4   0  -6 308.157 190.014   5
   4   0   6 530.159 62.5017  13
   4   0   6 397.546 218.594   4
  -4   0  -6 459.195 58.3176   7
   4   0   7 2818.91 125.354  21
  -4   0  -7 2083.12 403.832  39
  -4   0  -7 2530.04 505.749   5
   4   0   7 2619.39 115.660  30
   4   0   7 3338.51 146.217  13
   4   0   7 2305.98 448.417   4
  -4   0  -7 2980.16 146.170   6
   4   0   7 3339.70 158.818  23
   4   0   8 2228.43 110.651  21
  -4   0  -8 1577.03 357.866  39
   4   0   8 1938.25 99.8167  30
   4   0   8 2644.54 127.216  13
   4   0   8 2410.18 139.200  23
   4   0   9 5399.31 180.368  22
   4   0   9 4959.19 163.613  21
   4   0   9 4697.52 155.067  30
   4   0   9 5795.61 186.960  13
   4   0   9 5340.74 203.053  23
   4   0  10 1883.82 102.292  22
   4   0  10 1962.90 99.1122  21
   4   0  10 1825.37 91.5734  30
   4   0  10 2057.65 126.360  23
   4   0  11 1552.20 88.5877  22
   4   0  11 1548.88 87.2434  21
   4   0  11 1356.69 71.8927   9
   4   0  11 1459.14 79.5321  30
   4   0  12 767.552 58.1931  22
   4   0  12 691.772 58.9055  21
   4   0  12 660.814 46.7084   9
   4   0  12 650.848 49.8151  30
   4   0  12 797.989 70.9273  23
   4   0  13 318.177 44.0075  23
   4   0  13 252.535 31.7996  22
   4   0  13 323.836 40.3671  21
   4   0  13 262.063 29.7650  30
  -4  -1  10 251.805 34.7803   2
  -4  -1  10 271.659 34.1453  31
   4   1 -10 387.289 42.9860  13
  -4  -1  10 353.994 37.6330  26
  -4  -1  10 357.096 39.0486  12
  -4  -1   9 42.8234 22.4983   2
  -4  -1   9 6.61711 20.5123  31
  -4  -1   9 20.6356 16.0119  28
   4   1  -9 62.9493 33.8303  13
  -4  -1   9 17.2285 19.5092  26
  -4  -1   9 42.6673 25.5397  12
  -4  -1   8 689.405 61.3999  16
  -4  -1   8 620.012 56.5375  31
   4   1  -8 600.483 57.5418  14
  -4  -1   8 605.021 64.6083   2
  -4  -1   8 566.414 46.9186  28
   4   1  -8 743.756 68.3741  13
  -4  -1   8 638.924 59.0530  26
  -4  -1   8 755.628 72.2101  12
  -4  -1   7 372.798 57.7035   2
  -4  -1   7 381.510 49.1146  16
   4   1  -7 286.270 45.3876  14
  -4  -1   7 306.249 36.8744  28
   4   1  -7 312.962 53.0504  13
  -4  -1   7 304.057 41.8527  26
  -4  -1   7 421.920 62.3132  12
  -4  -1   6 683.311 70.8867  42
  -4  -1   6 819.429 74.6673  16
   4   1  -6 706.455 71.7178  14
  -4  -1   6 783.841 70.1859   7
  -4  -1   6 788.977 57.5064  28
   4   1  -6 789.878 76.5351  13
  -4  -1   6 710.636 67.9640  26
  -4  -1   6 875.779 86.7732  12
  -4  -1   5 1040.46 89.6632  42
  -4  -1   5 1249.90 93.5865  16
   4   1  -5 916.818 287.545  37
   4   1  -5 1089.24 92.5494  14
  -4  -1   5 1205.85 90.0129   7
   4   1  -5 1173.40 93.0160  13
  -4  -1   5 1160.54 85.6947  26
  -4  -1   5 1197.55 102.048  12
  -4  -1   5 1074.32 82.3947   6
  -4  -1   4 2824.22 147.265  42
   4   1  -4 2818.64 137.104  40
  -4  -1   4 2443.98 482.271   5
  -4  -1   4 2948.21 143.550  16
   4   1  -4 2273.99 431.248  37
   4   1  -4 2651.30 143.935  14
  -4  -1   4 2969.07 143.960   7
   4   1  -4 2864.42 146.542  13
   4   1  -4 2045.68 446.840   4
  -4  -1   4 2861.02 132.131  26
  -4  -1   4 2887.58 155.846  12
  -4  -1   4 2802.88 139.272   6
  -4  -1   3 27.2626 36.1022  42
  -4  -1   3 47.9282 36.5415   6
   4   1  -3 35.8501 29.6535  40
  -4  -1   3 81.3542 145.127   5
   4   1  -3 72.8710 94.6422  37
  -4  -1   3-30.3379 36.8887  16
   4   1  -3-27.3118 46.3594  14
   4   1  -3-45.6150 119.512   4
   4   1  -3-3.53706 42.3123  13
  -4  -1   3 7.44962 25.8623  26
  -4  -1   3-66.5715 44.4031   7
  -4  -1   3-28.6049 41.6630  12
  -4  -1   2 57.7781 29.1523  42
  -4  -1   2 10.8668 33.1364   6
   4   1  -2 38.0552 24.8510  40
   4   1  -2-156.161 140.493  37
  -4  -1   2-155.068 195.332   5
  -4  -1   2 29.1255 25.9071  16
   4   1  -2 10.2639 40.3195  14
   4   1  -2 16.2272 37.1758  13
  -4  -1   2 48.8043 22.5573  26
  -4  -1   2-7.26301 40.8823   7
  -4  -1   2 80.2244 45.0848  12
  -4  -1   1 883.129 82.4956  42
   4   1  -1 977.985 85.5475  40
  -4  -1   1 683.148 248.677  39
  -4  -1   1 798.420 77.0669  16
   4   1  -1 743.640 230.747  37
  -4  -1   1 845.535 298.648   5
   4   1  -1 957.703 90.6078  14
   4   1  -1 798.731 262.833   4
   4   1  -1 957.853 86.7410  13
  -4  -1   1 959.639 84.2316   7
  -4  -1   1 917.960 72.2067  26
  -4  -1   1 896.002 81.5759  12
  -4  -1   1 908.877 85.5523   6
  -4  -1   0 534.576 77.3485   6
   4   1   0 454.554 65.1686  40
  -4  -1   0 347.999 145.146  39
   4   1   0 295.240 172.278  37
  -4  -1   0 417.496 244.865   5
  -4  -1   0 414.561 58.6518  16
   4   1   0 418.638 66.0227  14
   4   1   0 425.459 229.325   4
  -4  -1   0 520.612 73.2996   7
   4   1   0 531.042 68.2636  13
  -4  -1   0 433.684 50.4741  26
  -4  -1   0 376.567 60.0424  42
  -4  -1   0 520.706 70.5165  12
  -4  -1  -1 66.4007 32.5767  42
  -4  -1  -1-23.2722 34.2879   6
   4   1   1 41.2199 35.7352  40
  -4  -1  -1 112.813 126.923  39
   4   1   1 17.3422 100.461  37
  -4  -1  -1 53.4875 129.061   5
  -4  -1  -1 27.2594 24.9596  16
   4   1   1 5.82802 30.3427  14
   4   1   1 118.597 145.739   4
   4   1   1 6.26602 30.0479  13
  -4  -1  -1 48.9174 30.6876   7
  -4  -1  -1 18.5965 31.3746  12
  -4  -1  -2 488.305 64.4611  42
  -4  -1  -2 453.435 67.2682   6
   4   1   2 491.086 64.0609  40
  -4  -1  -2 305.706 150.126  39
   4   1   2 262.156 138.420  37
  -4  -1  -2 518.868 257.160   5
   4   1   2 454.357 67.0349  14
   4   1   2 182.515 145.193   4
   4   1   2 442.004 55.8157  13
  -4  -1  -2 434.958 62.1983   7
  -4  -1  -2 453.232 55.9736  12
  -4  -1  -3 1368.93 100.181  42
   4   1   3 1612.52 105.019  40
  -4  -1  -3 1486.69 328.608  39
   4   1   3 1001.83 240.123  37
  -4  -1  -3 1285.87 356.710   5
   4   1   3 1390.08 87.4612   8
   4   1   3 1400.94 107.258  14
   4   1   3 1383.12 341.304   4
   4   1   3 1494.48 98.6699  13
  -4  -1  -3 1531.12 105.939   7
  -4  -1  -3 1494.62 106.341   6
   4   1   4-54.7740 39.5812  23
  -4  -1  -4 1.30256 29.8336  42
  -4  -1  -4 5.61309 32.2263   6
   4   1   4-12.6227 27.7057  40
  -4  -1  -4-72.3819 167.230  39
  -4  -1  -4-14.0748 105.348   5
   4   1   4 31.5114 33.4510  14
   4   1   4 126.813 140.158   4
   4   1   4-38.3534 35.3549  13
  -4  -1  -4-26.5743 36.0169   7
  -4  -1  -5 3705.40 162.101  42
   4   1   5 4225.39 166.144  40
  -4  -1  -5 3496.99 619.343   5
  -4  -1  -5 3286.55 509.422  39
   4   1   5 3384.73 560.519   4
   4   1   5 4323.19 168.015  13
  -4  -1  -5 3921.19 171.178   7
   4   1   5 3764.85 168.820  23
  -4  -1  -5 3958.33 174.228   6
   4   1   6 34.7973 43.0167  23
  -4  -1  -6 56.2003 37.9324   6
   4   1   6 44.4544 26.3978  40
  -4  -1  -6 66.0488 108.922  39
  -4  -1  -6 236.104 200.537   5
   4   1   6-7.02357 21.1151  30
   4   1   6 13.2331 150.870   4
   4   1   6 59.5679 35.8653  13
  -4  -1  -6 68.8487 25.6361   7
   4   1   7 34.0253 45.1424  23
  -4  -1  -7 11.4310 33.8266   6
   4   1   7-11.7666 21.5832  40
  -4  -1  -7 26.1030 108.071  39
  -4  -1  -7-143.078 202.998   5
   4   1   7-4.23342 21.6400  30
   4   1   7 134.902 103.254   4
   4   1   7 23.0884 27.2420  13
  -4  -1  -7-2.01014 23.1461   7
   4   1   8 2087.82 118.588  13
  -4  -1  -8 1869.14 112.083   6
   4   1   8 1921.20 128.706  23
   4   1   9 1523.58 102.309  22
  -4  -1  -9 810.177 264.281  39
   4   1   9 1103.78 73.8942   9
   4   1   9 1139.41 85.4767  30
   4   1   9 1617.67 101.801  13
   4   1   9 1547.11 116.893  23
   4   1  10 122.382 54.6017  23
   4   1  10 109.936 37.0606  22
   4   1  10 90.9819 27.3139   9
   4   1  10 93.3539 27.9521  30
   4   1  10 123.647 37.7329  13
   4   1  11 3314.97 136.049  22
   4   1  11 2709.44 109.148   9
   4   1  11 2886.79 119.798  30
   4   1  11 3261.76 149.596  23
   4   1  12 164.734 48.5496  23
   4   1  12 108.244 30.1862  22
   4   1  12 95.2998 21.8099   9
   4   1  12 130.720 27.6312  30
   4   1  13 85.0959 29.9890  23
   4   1  13 22.8758 26.5563  22
   4   1  13 12.2836 15.3467   9
   4   1  13 33.9615 20.7377  30
   4   1  14 54.6674 17.1676  30
  -4  -2   9-4.46084 17.8474   2
  -4  -2   9 35.2248 19.9099  31
  -4  -2   9 24.9886 15.7105  28
   4   2  -9 40.1449 23.6026  13
  -4  -2   9 16.2330 18.7291  26
  -4  -2   9 21.2762 22.5226  12
  -4  -2   8 50.3899 24.9408   2
  -4  -2   8 8.69970 22.6765  31
  -4  -2   8 55.3156 22.4616  28
   4   2  -8-12.3441 27.2964  13
  -4  -2   8 32.3354 20.9649  26
  -4  -2   8 52.6525 26.1262  12
  -4  -2   7 318.754 48.9950   2
  -4  -2   7 355.836 43.5760  31
  -4  -2   7 299.091 40.6073  28
   4   2  -7 372.034 52.4803  13
  -4  -2   7 363.582 49.6350  26
  -4  -2   7 370.500 56.6497  12
  -4  -2   6 1174.10 92.6678  42
  -4  -2   6 1102.11 83.9410  16
  -4  -2   6 1076.06 73.0164  31
  -4  -2   6 954.856 69.9629  28
   4   2  -6 1237.82 92.9418  13
  -4  -2   6 1057.15 80.4232  26
  -4  -2   6 1234.65 99.2472  12
  -4  -2   5 302.396 51.8438  42
  -4  -2   5 203.001 43.9522  16
  -4  -2   5 197.435 35.5441  31
   4   2  -5 157.913 37.3014  14
  -4  -2   5 191.219 36.2211  28
   4   2  -5 176.891 42.7148  13
  -4  -2   5 253.821 47.3777  26
  -4  -2   5 212.609 42.3835   7
  -4  -2   5 199.362 53.9863  12
  -4  -2   4 71.4932 29.9226   6
   4   2  -4 99.6612 29.1230  40
   4   2  -4 44.9413 100.323  37
  -4  -2   4 111.832 39.8487  16
   4   2  -4 44.0089 27.9421  14
  -4  -2   4 53.9261 34.0712  42
  -4  -2   4 108.709 27.2776  28
   4   2  -4 68.8233 40.3568  13
  -4  -2   4 80.1750 31.0729  26
  -4  -2   4 106.220 37.4271   7
  -4  -2   4 109.305 46.0295  12
  -4  -2   3 1951.80 125.716  42
   4   2  -3 2081.43 122.254  40
  -4  -2   3 1588.45 407.158   5
  -4  -2   3 1991.38 120.799  16
   4   2  -3 1776.04 383.857  37
   4   2  -3 1803.93 116.355  14
  -4  -2   3 1998.86 120.176   7
   4   2  -3 1664.86 407.198   4
  -4  -2   3 1889.67 95.2203  28
   4   2  -3 1952.00 123.428  13
  -4  -2   3 1970.64 111.114  26
  -4  -2   3 1916.66 128.181  12
  -4  -2   3 2051.90 125.701   6
  -4  -2   2 6614.27 227.609  42
  -4  -2   2 5367.74 744.072   5
   4   2  -2 6989.00 227.196  40
   4   2  -2 5989.66 675.692  37
  -4  -2   2 6792.39 216.949  16
   4   2  -2 5677.10 760.975   4
   4   2  -2 6737.36 228.194  14
  -4  -2   2 6783.34 226.049   7
  -4  -2   2 5993.33 177.121  28
   4   2  -2 6459.51 218.144  13
  -4  -2   2 7008.55 206.848  26
  -4  -2   2 6655.87 229.249  12
  -4  -2   2 6905.67 232.399   6
  -4  -2   1 110.786 34.3059  42
  -4  -2   1 152.213 44.3520   6
   4   2  -1 101.212 37.6493  40
  -4  -2   1 310.805 208.701  39
  -4  -2   1 100.277 131.956   5
   4   2  -1 74.7549 99.4410  37
  -4  -2   1 98.2513 35.5283  16
   4   2  -1 32.7213 36.1556  14
   4   2  -1 109.319 134.764   4
  -4  -2   1 62.7075 22.7773  28
   4   2  -1 138.307 43.4856  13
  -4  -2   1 31.2979 25.1759  26
  -4  -2   1 144.482 40.7529   7
  -4  -2   1 40.4904 34.7961  12
  -4  -2   0 808.021 80.5847  42
   4   2   0 818.639 78.3615  40
  -4  -2   0 729.049 283.644  39
  -4  -2   0 1004.59 373.456   5
   4   2   0 725.101 232.647  37
   4   2   0 863.417 86.1182  14
  -4  -2   0 800.887 80.7547   7
   4   2   0 882.755 79.3910  13
  -4  -2   0 812.665 69.4414  26
  -4  -2   0 793.935 77.7624  12
  -4  -2   0 822.298 83.4090   6
  -4  -2  -1 142.223 39.8360  42
  -4  -2  -1 53.7116 35.9539   6
   4   2   1 102.379 42.7470  40
  -4  -2  -1 80.5966 113.178  39
  -4  -2  -1 14.1814 131.706   5
   4   2   1 250.555 153.564  37
   4   2   1 87.9391 39.8647  14
   4   2   1 77.9070 38.3978  13
  -4  -2  -1 58.5231 26.9616  26
  -4  -2  -1 168.087 47.7269   7
  -4  -2  -1 113.673 36.8373  12
  -4  -2  -2 2862.94 147.393  42
   4   2   2 3063.56 148.636  40
  -4  -2  -2 2445.16 434.383  39
   4   2   2 2703.57 412.840  37
  -4  -2  -2 2618.60 519.556   5
   4   2   2 2837.96 150.720  14
  -4  -2  -2 2772.31 144.622   7
   4   2   2 2817.52 138.977  13
  -4  -2  -2 2640.51 128.120  12
  -4  -2  -2 2834.68 150.374   6
  -4  -2  -3 1037.65 92.5535  42
   4   2   3 1176.58 92.4803  40
  -4  -2  -3 926.848 288.117  39
  -4  -2  -3 992.114 331.179   5
   4   2   3 639.991 198.931  37
   4   2   3 866.798 76.1567   8
   4   2   3 1074.37 98.7934  14
  -4  -2  -3 1057.69 95.6339   7
   4   2   3 1004.38 88.1093  13
  -4  -2  -3 1079.84 96.5842   6
  -4  -2  -4 1394.66 101.595  42
   4   2   4 1530.79 103.294  40
  -4  -2  -4 1162.24 301.036  39
  -4  -2  -4 1511.42 421.033   5
   4   2   4 1432.14 92.3972   8
  -4  -2  -4 1577.06 112.755   7
   4   2   4 1634.80 106.364  13
  -4  -2  -4 1636.20 114.350   6
   4   2   4 1272.35 93.5700  23
  -4  -2  -5 1965.81 119.121  42
   4   2   5 2237.27 123.225  40
  -4  -2  -5 1364.26 337.878  39
  -4  -2  -5 1603.92 421.888   5
   4   2   5 2122.46 107.736   8
  -4  -2  -5 2438.99 139.519   7
   4   2   5 2011.17 448.656   4
   4   2   5 2193.18 120.117  13
  -4  -2  -5 2247.67 135.746   6
   4   2   5 1804.16 117.388  23
   4   2   6 95.3868 45.7219  23
  -4  -2  -6-18.6241 34.8786  42
  -4  -2  -6 108.444 42.9099   6
   4   2   6 58.8176 29.0871  40
  -4  -2  -6-54.3806 110.854  39
   4   2   6 39.9743 17.9633   8
   4   2   6 85.2024 143.751   4
   4   2   6 65.6600 34.1536  13
  -4  -2  -6 84.8836 37.0545   7
   4   2   7 134.620 52.6549  23
   4   2   7 137.887 36.8323  40
  -4  -2  -7 4.31208 106.643  39
  -4  -2  -7-37.7978 126.112   5
   4   2   7 157.920 100.551   4
   4   2   7 144.852 46.2694  13
  -4  -2  -7 126.056 38.6075   7
  -4  -2  -7 72.1041 30.0707   6
   4   2   8 169.853 56.6819  23
  -4  -2  -8 197.664 48.7819   6
   4   2   8 144.642 35.3951  40
  -4  -2  -8 217.334 166.990  39
   4   2   8 94.3867 31.0359  30
   4   2   8 183.286 45.3397  13
  -4  -2  -8 120.165 35.3577   7
   4   2   9 123.056 50.1847  23
   4   2   9 141.116 42.4403  22
   4   2   9 95.4394 31.1546   9
   4   2   9 53.1667 33.2682  30
   4   2   9 157.214 42.7269  13
   4   2  10 761.443 74.9573  22
   4   2  10 597.367 57.4609   9
   4   2  10 522.784 59.4684  30
   4   2  10 846.161 76.1019  13
   4   2  10 818.234 87.7633  23
   4   2  11 834.247 72.5295  22
   4   2  11 769.460 62.3300   9
   4   2  11 710.160 63.0677  30
   4   2  12 941.623 73.2009  22
  -4  -2 -12 912.920 74.6315  10
   4   2  12 781.548 57.9226   9
   4   2  12 876.489 63.4938  30
   4   2  12 931.565 80.1994  23
   4   2  13-13.5779 20.6763  22
   4   2  13 26.5225 16.8383   9
   4   2  13 9.56545 18.3360  30
   4   2  14 268.755 27.7587   9
   4   2  14 276.032 32.0602  30
  -4  -3   9 79.4870 24.1281  32
  -4  -3   9 65.4977 17.1048  28
   4   3  -9 109.006 24.6571  13
  -4  -3   9 47.7753 17.7850  26
  -4  -3   9 63.3384 21.6215  12
  -4  -3   8 114.680 27.3142   2
  -4  -3   8 150.871 31.6524  32
  -4  -3   8 112.514 23.9485  28
   4   3  -8 166.937 31.9073  13
  -4  -3   8 177.864 32.7296  26
  -4  -3   8 188.769 37.1390  12
  -4  -3   7 8.58727 32.8433   2
  -4  -3   7-15.4628 17.8807  28
   4   3  -7-23.9936 28.8409  13
  -4  -3   7 54.2649 28.4153  26
  -4  -3   7 38.5280 32.6753  12
  -4  -3   6 40.0583 23.8189  42
  -4  -3   6 6.02065 19.0844  28
   4   3  -6 52.6502 33.3072  13
  -4  -3   6 39.5969 29.2962  26
  -4  -3   6 47.8590 35.5994  12
  -4  -3   5 131.137 40.5067  42
  -4  -3   5 101.215 33.1327  28
   4   3  -5 71.1217 34.3117  13
  -4  -3   5 124.252 36.4333  26
  -4  -3   5 97.9173 31.9222   7
  -4  -3   5 68.9467 34.9098  12
  -4  -3   4 128.234 36.3365   6
  -4  -3   4 117.403 37.3080  42
   4   3  -4 127.041 33.5835  40
  -4  -3   4 44.2844 25.7214  28
   4   3  -4 94.6733 41.4266  13
  -4  -3   4 105.017 33.6156  26
  -4  -3   4 98.6501 34.1594   7
  -4  -3   4 51.2925 32.8367  12
  -4  -3   3 994.571 90.6799  42
   4   3  -3 993.237 82.9954  40
   4   3  -3 1048.07 284.095  37
  -4  -3   3 1050.58 89.0023   7
   4   3  -3 923.965 310.552   4
  -4  -3   3 940.506 74.1542  28
   4   3  -3 1043.39 90.9518  13
  -4  -3   3 916.425 79.7708  26
  -4  -3   3 1100.31 98.2427  12
  -4  -3   3 972.657 88.0274   6
  -4  -3   2-15.0989 30.7718   6
  -4  -3   2-5.12262 28.7718  42
   4   3  -2-41.1559 33.9049  40
   4   3  -2-11.9835 117.861  37
   4   3  -2 29.1524 30.1310  14
  -4  -3   2 8.50302 22.8954  28
   4   3  -2-4.71000 35.3227  13
  -4  -3   2-27.0705 31.3849  26
  -4  -3   2 2.40754 32.9537   7
  -4  -3   2-16.7528 34.8827  12
  -4  -3   1 2939.49 151.869  42
   4   3  -1 3100.49 152.223  40
  -4  -3   1 2681.75 539.789   5
   4   3  -1 2291.79 430.261  37
   4   3  -1 2821.57 142.197  14
  -4  -3   1 3216.55 158.769   7
  -4  -3   1 2650.14 120.425  28
   4   3  -1 2977.82 148.400  13
  -4  -3   1 2743.29 132.932  26
  -4  -3   1 2990.98 153.186  12
  -4  -3   1 3099.35 159.097   6
  -4  -3   0-32.7562 33.0984  42
  -4  -3   0 4.38890 38.3251   6
   4   3   0-44.1032 39.7987  40
  -4  -3   0 212.125 143.711  39
  -4  -3   0-96.3014 158.162   5
   4   3   0-43.6768 115.906  37
   4   3   0 2.72804 30.2840  14
   4   3   0 5.49621 36.8819  13
  -4  -3   0-37.8234 27.8536  26
  -4  -3   0-3.54759 33.9971   7
  -4  -3   0-54.8148 37.2843  12
  -4  -3  -1 1067.79 94.6940  42
   4   3   1 1034.78 91.3616  40
  -4  -3  -1 762.314 249.655  39
  -4  -3  -1 1069.11 346.888   5
   4   3   1 666.271 203.044  37
   4   3   1 1255.73 101.973  14
  -4  -3  -1 1124.12 96.4030   7
   4   3   1 1078.01 88.9599  13
  -4  -3  -1 1128.34 89.6571  12
  -4  -3  -1 1125.40 100.408   6
  -4  -3  -2 13.0499 31.0030  42
  -4  -3  -2 8.74525 37.7432   6
   4   3   2-4.72647 29.1519  40
  -4  -3  -2-115.692 122.674  39
  -4  -3  -2 70.1073 184.871   5
   4   3   2-9.48579 32.7192  14
   4   3   2 9.87404 36.1980  13
  -4  -3  -2 17.9745 37.8103   7
  -4  -3  -3 211.488 49.0976  42
  -4  -3  -3 264.767 60.4639   6
   4   3   3 232.418 52.6340  40
  -4  -3  -3-26.4226 156.878  39
  -4  -3  -3 85.6632 160.027   5
   4   3   3 222.316 45.7178   8
   4   3   3 217.148 48.3046  13
  -4  -3  -3 239.060 53.3662   7
  -4  -3  -4 230.346 51.0345  42
  -4  -3  -4 150.764 46.2228   6
   4   3   4 240.836 48.0382  40
  -4  -3  -4 149.201 118.588  39
   4   3   4 202.671 46.2437   8
   4   3   4 161.114 41.9443  13
  -4  -3  -4 227.209 55.1218   7
   4   3   5 263.847 48.8243  23
  -4  -3  -5 268.118 52.5918  42
  -4  -3  -5 319.363 57.7126   6
   4   3   5 294.127 52.5273  40
  -4  -3  -5 294.851 193.434  39
  -4  -3  -5 348.998 212.934   5
   4   3   5 286.679 47.7286   8
   4   3   5 294.739 48.5920  13
  -4  -3  -5 394.663 63.8921   7
  -4  -3  -6 1845.58 118.814  42
   4   3   6 1913.08 113.893  40
   4   3   6 1853.33 105.388   8
  -4  -3  -6 2059.23 127.538   7
   4   3   6 1893.44 117.446  13
  -4  -3  -6 1870.77 125.641   6
   4   3   6 1575.73 108.948  23
   4   3   7 189.010 48.3800  23
  -4  -3  -7 230.434 50.2618  42
  -4  -3  -7 172.932 46.7513   6
   4   3   7 207.769 43.1960  40
  -4  -3  -7 77.5021 145.435  39
   4   3   7 195.447 36.8703   8
   4   3   7 332.699 204.221   4
   4   3   7 164.891 45.6767  13
  -4  -3  -7 136.178 43.1505   7
   4   3   8 56.4777 36.9004  23
   4   3   8 28.7135 33.2102  22
  -4  -3  -8 54.3118 34.4012   6
   4   3   8 29.6848 25.2188  40
  -4  -3  -8-16.7045 116.013  39
   4   3   8 43.4866 29.0275   9
   4   3   8 20.1149 19.0467   8
   4   3   8 20.5709 31.1663  13
  -4  -3  -8 26.5169 32.2960   7
   4   3   9 460.692 68.1382  23
   4   3   9 561.387 67.7552  22
  -4  -3  -9 453.459 55.8101   6
   4   3   9 443.600 50.8090  40
   4   3   9 400.560 48.9909   9
  -4  -3  -9 541.801 58.4077   7
   4   3   9 525.879 66.5087  13
   4   3  10 1213.71 89.3558  22
   4   3  10 966.599 72.3376   9
   4   3  10 839.524 73.2417  30
   4   3  10 1191.12 86.9659  13
   4   3  10 1197.25 95.7542  23
   4   3  11 8.51642 27.0566  22
   4   3  11 57.0162 27.5163   9
   4   3  11 19.0401 27.9411  30
   4   3  12 75.1196 26.4858  22
  -4  -3 -12 75.0938 37.7486  10
   4   3  12 69.5216 25.1565   9
   4   3  12 62.8700 22.2010  30
   4   3  13 149.129 29.5427  22
  -4  -3 -13 158.576 34.1550  10
   4   3  13 140.065 27.6174   9
   4   3  13 107.177 25.6907  30
   4   3  14 132.446 20.7584   9
   4   3  14 96.8110 22.1620  30
  -4  -4   8 25.6917 18.1569  32
  -4  -4   8 51.3554 17.0539  28
   4   4  -8 50.0626 20.0335  13
  -4  -4   8 86.4042 24.5305  12
  -4  -4   7 776.042 56.5378  32
  -4  -4   7 673.725 58.4385   2
  -4  -4   7 663.475 52.6277  28
   4   4  -7 754.998 59.3573  13
  -4  -4   7 824.282 68.2260  12
  -4  -4   6 177.463 37.7933   2
  -4  -4   6 186.059 39.8783  32
  -4  -4   6 186.586 34.9239  28
   4   4  -6 168.602 36.9319  13
  -4  -4   6 154.213 34.5746  26
  -4  -4   6 201.707 40.6252  12
  -4  -4   5 124.420 34.7721  42
  -4  -4   5 117.415 32.2190  28
   4   4  -5 88.8833 33.3815  13
  -4  -4   5 128.824 35.0586  26
  -4  -4   5 122.930 38.7841  12
  -4  -4   4 214.882 38.7082   6
  -4  -4   4 236.253 46.8339  42
  -4  -4   4 218.749 38.7704  28
   4   4  -4 240.595 48.2357  13
  -4  -4   4 277.670 42.5436   7
  -4  -4   4 223.658 41.0779  26
  -4  -4   4 280.909 55.6385  12
  -4  -4   3 29.6838 26.8328   6
  -4  -4   3 90.8431 36.7775  42
   4   4  -3 77.4851 31.1770  40
  -4  -4   3 32.9638 27.3689  28
   4   4  -3 82.5082 40.4154  13
  -4  -4   3 87.0363 34.6930  26
  -4  -4   3 92.7660 35.0011   7
  -4  -4   3 35.7055 35.2037  12
  -4  -4   2-17.7332 35.2673   6
  -4  -4   2 50.7064 31.7329  42
   4   4  -2 16.9790 27.0434  40
   4   4  -2-79.9982 140.492  37
  -4  -4   2 50.1240 31.8373  28
   4   4  -2 1.01881 30.6224  13
  -4  -4   2 48.9698 34.4585  26
  -4  -4   2 16.7976 27.7231   7
  -4  -4   2 57.2099 33.8953  12
  -4  -4   1 1078.34 93.3450  42
   4   4  -1 906.852 85.7207  40
  -4  -4   1 955.736 89.8085   7
   4   4  -1 791.545 78.9118  13
  -4  -4   1 865.386 84.1616  12
  -4  -4   1 948.636 91.9168   6
  -4  -4   0 5176.13 202.656  42
   4   4   0 4977.17 200.015  40
  -4  -4   0 5203.23 205.782   7
   4   4   0 4666.91 183.424  13
  -4  -4   0 4871.67 187.688  12
  -4  -4   0 5042.00 207.169   6
  -4  -4  -1 564.406 71.6759   6
  -4  -4  -1 664.671 74.5427  42
   4   4   1 568.802 69.3186  40
  -4  -4  -1 314.602 196.167  39
   4   4   1 869.872 268.345  37
   4   4   1 538.448 69.2825  13
  -4  -4  -1 603.125 73.4239   7
  -4  -4  -1 517.678 62.4886  12
  -4  -4  -2-6.66937 37.3550   6
  -4  -4  -2 22.7905 35.1909  42
   4   4   2 85.9696 39.0929  40
  -4  -4  -2-25.0005 125.639  39
   4   4   2-20.5506 28.4377   8
   4   4   2-6.04499 29.8416  13
  -4  -4  -2 10.9962 38.8514   7
  -4  -4  -3-36.5503 39.0652   6
  -4  -4  -3 16.7929 30.9919  42
   4   4   3-21.4329 31.3829  40
   4   4   3-33.4125 32.1812   8
   4   4   3-15.2407 33.6325  13
  -4  -4  -3 52.0145 40.2004   7
  -4  -4  -4-9.18452 35.1516   6
  -4  -4  -4 21.4695 29.2666  42
   4   4   4-17.3850 34.2984  40
  -4  -4  -4 20.1034 103.911  39
   4   4   4 14.9334 27.9380   8
   4   4   4 43.9564 33.2963  13
  -4  -4  -4 12.2839 34.1057   7
  -4  -4  -5 346.599 66.1108   6
  -4  -4  -5 294.540 54.7291  42
   4   4   5 324.384 53.9541  40
  -4  -4  -5 532.721 231.177  39
   4   4   5 283.155 50.0680   8
   4   4   5 316.104 54.4703  13
  -4  -4  -5 286.932 57.0491   7
  -4  -4  -6 134.733 44.8213   6
  -4  -4  -6 184.538 44.5194  42
   4   4   6 189.520 43.7291  40
   4   4   6 131.512 42.4291   8
   4   4   6 191.331 45.0548  13
  -4  -4  -6 175.809 49.0844   7
   4   4   7 781.567 74.7951  22
  -4  -4  -7 636.258 72.7793  42
  -4  -4  -7 632.022 76.6185   6
   4   4   7 674.665 69.9741  40
  -4  -4  -7 431.515 200.017  39
   4   4   7 405.822 51.0490   9
   4   4   7 631.359 63.7977   8
  -4  -4  -7 679.205 78.4179   7
   4   4   7 715.410 72.5862  13
   4   4   8 35.0102 32.8844  22
  -4  -4  -8-41.5209 32.6285   6
  -4  -4  -8 35.3894 31.0953  42
   4   4   8 9.61524 25.0880  40
   4   4   8 8.80749 23.2817   9
   4   4   8 36.6669 26.2256   8
   4   4   8-0.23574 29.2741  13
  -4  -4  -8-47.9434 31.6025   7
   4   4   9 165.455 38.7210  22
  -4  -4  -9 86.0873 38.8070   6
  -4  -4  -9 98.9513 30.5525  42
   4   4   9 153.951 36.8776  40
   4   4   9 99.5306 30.7257   9
   4   4   9 168.433 33.8508   8
   4   4   9 108.401 33.9369  13
  -4  -4  -9 90.3366 33.1119   7
   4   4  10 125.051 38.8850  22
  -4  -4 -10 66.9008 30.5597  42
   4   4  10 108.354 27.4029   9
   4   4  10 80.2518 27.8996   8
   4   4  10 143.113 41.0835  13
   4   4  11 1186.55 83.1081  22
  -4  -4 -11 941.457 76.8229  42
  -4  -4 -11 1131.40 98.0447  10
   4   4  11 980.047 71.5445   9
   4   4  11 911.346 71.8139  30
   4   4  12 499.134 53.8012  22
  -4  -4 -12 452.428 52.9148  42
  -4  -4 -12 504.356 63.7113  10
   4   4  12 431.320 46.0844   9
   4   4  12 358.693 46.2892  30
   4   4  13 138.805 31.1716  22
  -4  -4 -13 90.0758 22.6675  42
  -4  -4 -13 112.077 28.1937  10
   4   4  13 113.926 24.5649   9
   4   4  13 85.3406 24.3430  30
  -4  -5   6 1238.71 66.8751  32
  -4  -5   6 988.182 66.5024   2
  -4  -5   6 1028.52 62.2118  29
  -4  -5   6 1062.01 64.5310  28
  -4  -5   6 1166.50 76.0699  12
  -4  -5   5 4.73465 20.3294   2
  -4  -5   5-10.7153 22.2251  32
  -4  -5   5-3.22791 18.6529  28
   4   5  -5 28.5917 32.0558  13
  -4  -5   5 3.34032 24.1129  12
  -4  -5   4 45.8014 24.4616  42
  -4  -5   4 4.47996 24.8751  32
  -4  -5   4 21.4955 25.2063  28
   4   5  -4-25.1698 22.8755  13
  -4  -5   4 72.3007 36.0972  12
  -4  -5   3-4.50724 22.3502   6
  -4  -5   3-44.4275 31.3531  42
  -4  -5   3-83.4665 29.4037  32
  -4  -5   3-29.1374 27.0579  28
   4   5  -3-34.0097 29.4498  13
  -4  -5   3 37.6014 23.1869   7
  -4  -5   3-40.3209 32.5685  12
  -4  -5   2 18.9363 24.5886   6
  -4  -5   2 42.9544 32.3905  42
   4   5  -2-9.65705 23.3968  40
  -4  -5   2-16.9414 26.6036  32
   4   5  -2 88.4743 38.1768  13
  -4  -5   2 69.3669 32.0309   7
  -4  -5   2 36.9994 31.7414  12
  -4  -5   1 27.3603 30.6164   6
  -4  -5   1 33.9780 30.2344  42
   4   5  -1 96.0001 34.6144  40
  -4  -5   1 15.6510 26.1128  32
   4   5  -1 106.191 36.7372  13
  -4  -5   1 16.2733 27.3618   7
  -4  -5   1 76.2563 31.8020  12
  -4  -5   0 2027.62 123.706  42
   4   5   0 2040.09 124.741  40
   4   5   0 2070.85 125.147   8
  -4  -5   0 1957.44 122.494   7
   4   5   0 1748.24 105.659  13
  -4  -5   0 1854.04 113.408  12
  -4  -5   0 2006.54 125.478   6
  -4  -5  -1 779.897 79.5515  42
   4   5   1 775.528 81.9394  40
   4   5   1 781.267 80.1517   8
  -4  -5  -1 846.649 85.3047   7
   4   5   1 676.187 69.1124  13
  -4  -5  -1 591.255 62.9376  12
  -4  -5  -1 750.441 80.6721   6
  -4  -5  -2 536.959 73.0177   6
  -4  -5  -2 538.340 65.8366  42
   4   5   2 532.716 69.6917  40
  -4  -5  -2 422.679 207.303  39
   4   5   2 531.988 67.6019   8
   4   5   2 439.872 57.2433  13
  -4  -5  -2 532.327 72.6357   7
  -4  -5  -3 62.7968 39.5531   6
  -4  -5  -3 67.6942 36.9719  42
   4   5   3-11.3596 31.0824  40
  -4  -5  -3 187.999 172.743  39
   4   5   3 76.6640 35.5692   8
   4   5   3 34.2263 35.0290  13
  -4  -5  -3 121.654 48.4771   7
  -4  -5  -4 15.1821 34.5086   6
  -4  -5  -4 32.8882 33.4473  42
   4   5   4 13.3311 33.8192  40
   4   5   4 17.5692 32.7896   8
   4   5   4 20.0943 33.1837  13
  -4  -5  -4 11.6996 35.9270   7
   4   5   5 418.203 50.3171  22
  -4  -5  -5 493.987 68.8504   6
  -4  -5  -5 548.006 68.9707  42
   4   5   5 582.978 71.4875  40
  -4  -5  -5 284.546 179.074  39
   4   5   5 547.659 67.3085   8
  -4  -5  -5 520.603 80.3872   7
   4   5   5 383.591 56.9944  13
   4   5   6 155.615 39.0903  22
  -4  -5  -6 76.4521 39.3426   6
  -4  -5  -6 125.221 43.2669  42
   4   5   6 85.8353 31.3234  40
   4   5   6-3.82665 21.2390   9
   4   5   6 137.534 40.1370   8
   4   5   6 117.044 38.0032  13
  -4  -5  -6 56.4047 32.4567   7
   4   5   7 51.7369 27.3596  22
  -4  -5  -7 118.987 41.3378   6
  -4  -5  -7 118.972 38.3806  42
   4   5   7 86.9406 35.5867  40
   4   5   7 22.3048 21.0731   9
   4   5   7 100.303 33.1472   8
   4   5   7 118.720 37.8975  13
  -4  -5  -7 81.7471 37.1663   7
   4   5   8 10.8031 25.3405  22
  -4  -5  -8 11.4470 29.7189   6
  -4  -5  -8 40.7510 27.6644  42
   4   5   8-11.2408 22.4430  40
   4   5   8 19.6896 21.0265   9
   4   5   8 21.4927 24.9451   8
   4   5   8-21.4162 30.1459  13
  -4  -5  -8 78.0393 36.7048   7
  -4  -5  -9 5.27295 24.8786   6
   4   5   9 16.1437 25.1083  22
  -4  -5  -9-51.8798 25.9243  42
   4   5   9-4.81254 18.2185  40
   4   5   9 21.8475 21.5936   9
   4   5   9 38.2241 26.2978   8
   4   5   9-19.9013 29.6898  13
  -4  -5  -9-9.34825 24.9970   7
   4   5  10-3.86407 24.5579  22
  -4  -5 -10 28.2271 26.9899  42
  -4  -5 -10 4.21052 29.5548  10
   4   5  10 13.0387 21.9718   9
   4   5  10-6.39088 19.3405   8
  -4  -5 -10 52.7708 26.5799   7
   4   5  11 95.1395 32.9264  22
  -4  -5 -11 54.4949 23.1796  42
  -4  -5 -11-7.73600 27.9602  10
   4   5  11 9.90283 22.5786   9
   4   5  11 19.6316 16.5972   8
   4   5  11 63.9557 24.9697  30
   4   5  12 66.0027 26.1147  22
  -4  -5 -12 26.3531 22.4367  42
  -4  -5 -12 72.1992 28.8872  10
   4   5  12 39.7112 21.3388   9
   4   5  12 0.83679 18.8746  30
  -4  -5 -13 138.783 31.3178  10
   4   5  13 110.818 22.7825   9
   4   5  13 64.6091 21.0857  30
   4   6  -5 713.184 50.7261   8
  -4  -6   5 720.683 44.5627  32
  -4  -6   5 810.352 54.7008  29
   4   6  -4 635.565 54.6207   8
  -4  -6   4 578.430 44.2631  32
  -4  -6   4 524.741 49.6661   2
  -4  -6   4 706.290 59.1960  29
  -4  -6   4 563.930 55.4454  12
  -4  -6   3-3.42798 20.4078  42
  -4  -6   3 48.5445 31.3625  32
   4   6  -3 22.5078 26.9680   8
  -4  -6   3-32.2876 26.0060  12
  -4  -6   2 35.2549 24.7676   6
  -4  -6   2 57.1531 24.9550  42
   4   6  -2 45.3585 20.7262  40
  -4  -6   2 62.9672 25.7631  32
   4   6  -2 78.1219 30.4074   8
  -4  -6   2 40.6865 28.1335  12
  -4  -6   1 187.828 41.5530   6
  -4  -6   1 95.9559 32.0910  42
   4   6  -1 143.835 35.6271  40
   4   6  -1 134.507 37.6695   8
  -4  -6   1 124.831 32.0680   7
  -4  -6   1 63.7860 31.4947  12
  -4  -6   0 233.622 46.8906   6
  -4  -6   0 197.292 40.1346  42
   4   6   0 183.524 39.8399  40
   4   6   0 203.832 46.1955   8
   4   6   0 199.153 37.6252  13
  -4  -6   0 192.956 40.0449   7
  -4  -6   0 121.202 34.0481  12
  -4  -6  -1 706.745 72.4195  42
   4   6   1 786.430 76.1324  40
   4   6   1 878.035 82.1269   8
  -4  -6  -1 853.697 80.1656   7
   4   6   1 717.229 64.8207  13
  -4  -6  -1 645.738 62.2416  12
  -4  -6  -1 829.201 81.9331   6
  -4  -6  -2 474.458 66.9569   6
  -4  -6  -2 398.464 57.5715  42
   4   6   2 444.826 60.7692  40
   4   6   2 423.969 62.2284   8
   4   6   2 395.982 50.8494  13
  -4  -6  -2 504.600 67.8769   7
  -4  -6  -3 58.5840 42.5200   6
  -4  -6  -3 19.3061 28.2417  42
   4   6   3 6.57120 28.4474  40
  -4  -6  -3-7.18328 23.8410  10
   4   6   3 16.4965 34.2398   8
   4   6   3 1.25949 26.0100  13
  -4  -6  -3 7.92039 30.2397   7
  -4  -6  -4-29.7207 37.2998   6
  -4  -6  -4 26.7635 26.4525  42
   4   6   4 24.8922 28.5373  40
   4   6   4-27.3050 32.8184   8
   4   6   4-21.2271 27.1781  13
  -4  -6  -4 42.7164 41.7999   7
  -4  -6  -5 200.940 49.2544   6
  -4  -6  -5 128.412 38.0432  42
   4   6   5 125.867 37.5313  40
   4   6   5 141.868 42.7064   8
   4   6   5 149.290 34.8731  13
  -4  -6  -5 162.358 49.7759   7
  -4  -6  -6 179.633 49.0791   6
  -4  -6  -6 208.343 46.5408  42
   4   6   6 249.804 47.4918  40
  -4  -6  -6 214.252 46.9780  10
   4   6   6 81.3859 25.3608   9
   4   6   6 267.147 49.7164   8
   4   6   6 204.481 41.7805  13
  -4  -6  -6 297.389 56.5008   7
  -4  -6  -7 312.290 51.0746   6
  -4  -6  -7 290.215 47.2982  42
   4   6   7 338.675 49.7898  40
  -4  -6  -7 459.783 66.5248  10
   4   6   7 233.227 37.2119   9
   4   6   7 421.554 55.4187   8
   4   6   7 363.547 52.7444  13
  -4  -6  -7 313.927 54.7433   7
  -4  -6  -8 13.4615 29.1219   6
  -4  -6  -8 28.6869 27.6470  42
   4   6   8 9.34259 21.7340  40
  -4  -6  -8 63.2579 38.0402  10
   4   6   8 39.3208 25.9343   9
   4   6   8 3.78922 24.5338   8
   4   6   8-13.8835 25.4190  13
  -4  -6  -8 21.3885 28.1417   7
  -4  -6  -9 87.0408 28.9968   6
   4   6   9 130.112 30.0188  22
  -4  -6  -9 68.1965 25.1547  42
   4   6   9 127.413 30.8131  40
  -4  -6  -9 178.691 47.5127  10
   4   6   9 95.6080 28.6818   9
   4   6   9 157.345 34.3648   8
  -4  -6  -9 126.481 33.6651   7
   4   6  10-12.5530 17.8834  22
  -4  -6 -10 46.1593 26.1738  42
  -4  -6 -10 65.0554 35.0163  10
   4   6  10-12.9755 24.6366   9
   4   6  10 12.2709 21.4896   8
  -4  -6 -10 28.5861 20.7201   7
  -4  -6 -11 186.871 40.4941  10
   4   6  11 161.044 31.0893   9
   4   6  11 202.663 31.4142   8
   4   6  12 181.259 26.6534   9
   4   6  12 218.164 27.4207   8
   4   6  12 142.332 28.1860  30
   4   7  -2 2.46182 17.2330   8
  -4  -7   2-12.4415 22.7023  29
  -4  -7   1 52.3713 23.2108   6
   4   7  -1 50.0178 29.6694   8
  -4  -7   1 55.3461 29.2222  29
  -4  -7   0 43.1746 29.3397   6
  -4  -7   0 58.2617 25.8943  42
   4   7   0-0.51144 19.8262  40
   4   7   0 50.4387 28.3898   8
  -4  -7   0 52.7813 23.5360   7
  -4  -7  -1 21.3231 24.3106   6
  -4  -7  -1-18.7414 21.5493  42
   4   7   1 3.13044 20.8858  40
   4   7   1-38.1806 23.3722   8
  -4  -7  -1 9.05220 21.0915   7
  -4  -7  -2 379.110 53.7896   6
  -4  -7  -2 363.495 48.1990  42
   4   7   2 340.475 49.0854  40
   4   7   2 431.555 54.7248   8
  -4  -7  -2 402.158 53.7107   7
  -4  -7  -3-23.9272 31.3060   6
  -4  -7  -3-26.6894 21.4162  42
   4   7   3-64.4199 28.2822  40
   4   7   3 15.5681 27.2506   8
  -4  -7  -3 0.19203 25.5508   7
  -4  -7  -4 176.286 44.1099   6
  -4  -7  -4 141.285 33.8340  42
   4   7   4 148.981 36.2382  40
   4   7   4 128.907 36.3843   8
  -4  -7  -4 195.963 42.7555   7
  -4  -7  -5 27.5664 27.4267   6
  -4  -7  -5 42.4751 28.2211  42
   4   7   5 78.2778 26.7042  40
  -4  -7  -5 40.7828 25.1208  10
   4   7   5 66.7050 29.9904   8
  -4  -7  -5 79.9976 36.1867   7
  -4  -7  -6 239.109 49.0275   6
   4   7   6 280.370 46.3306  40
  -4  -7  -6 292.413 50.1408  10
   4   7   6 250.165 43.5000   8
  -4  -7  -6 227.747 42.1408   7
  -4  -7  -7 107.193 39.3400   6
   4   7   7 58.6530 28.5463  40
  -4  -7  -7 65.0345 25.6778  10
   4   7   7 97.7518 33.3231   8
  -4  -7  -7 115.269 35.1400   7
  -4  -7  -8 40.1007 27.8481   6
   4   7   8 7.16963 19.0780  40
  -4  -7  -8 19.1947 24.4836  10
   4   7   8 92.2711 22.8878   9
   4   7   8 61.7248 26.1505   8
  -4  -7  -8 88.9168 32.7009   7
  -4  -7  -9 118.885 30.6061   6
  -4  -7  -9 71.6959 31.6016  10
   4   7   9 36.8235 20.2210   9
   4   7   9 72.0094 26.1343   8
  -4  -7  -9 65.8036 24.5409   7
  -4  -7 -10-15.3917 23.2406  10
   4   7  10-22.8481 17.3850   9
   4   7  10 13.4468 19.9393   8
  -4  -8  -1 32.1571 20.8563   6
  -4  -8  -1 47.5920 21.3653  20
   4   8   1 48.9278 19.8100   8
  -4  -8  -1 59.7563 20.8114  29
  -4  -8  -1 56.5663 18.9215   7
  -4  -8  -2 85.0915 26.1715   6
  -4  -8  -2 54.3111 22.3323  20
   4   8   2 52.2682 20.1639   8
  -4  -8  -2 59.4718 22.4791  29
  -4  -8  -2 60.9868 19.8555   7
  -4  -8  -3 9.29378 20.8984   6
   4   8   3 17.9948 17.9614  40
  -4  -8  -3 76.1551 26.7147  20
   4   8   3 3.47141 18.7239   8
  -4  -8  -3 4.94428 18.4345  29
  -4  -8  -3 24.6162 18.3596   7
  -4  -8  -4 31.1767 21.6025   6
  -4  -8  -4 42.1796 19.8814  20
   4   8   4 18.6807 17.2099  40
   4   8   4-7.81538 17.8585   8
  -4  -8  -4-4.00310 19.4160   7
  -4  -8  -5 11.9121 20.3634   6
   4   8   5 81.9806 26.7328  40
   4   8   5 29.9276 20.2217   8
  -4  -8  -5 79.9748 29.7319   7
   4   8   6 971.113 69.5170  40
   4   8   6 1107.90 69.9255   8
  -4  -8  -6 995.251 69.4698   7
  -4  -8  -6 1055.50 75.8169   6
  -4  -8  -7 51.8538 22.6023   6
   4   8   7 29.6463 22.6476   8
  -4  -8  -7 30.5902 23.2981   7
   5  -5  -2 8.93427 18.7318  21
  -5   5   2-11.0754 23.7491  12
   5  -5  -1 820.044 60.3478   3
   5  -5  -1 872.533 55.8208  21
  -5   5   1 974.638 64.3069   7
  -5   5   1 940.677 61.3299  12
   5  -5   0 105.551 33.1987  21
   5  -5   0 130.168 26.1839   3
  -5   5   0 160.668 29.7704   7
  -5   5   0 169.153 34.2682  12
   5  -5   1 120.149 29.7078  21
  -5   5  -1 159.563 25.3920   7
  -5   5  -1 130.639 31.1437  12
   5  -5   2 51.4462 22.5871  23
   5  -5   2 33.4919 20.3975  21
  -5   5  -2 69.4050 20.2073  12
   5  -4  -5 117.083 23.6097  21
  -5   4   5 166.484 24.6679  16
   5  -4  -5 146.620 28.4117  14
  -5   4   5 171.257 29.6784   7
  -5   4   5 160.307 27.9313  12
   5  -4  -4 20.2312 21.8688  21
  -5   4   4 38.0661 21.6301   6
  -5   4   4 47.6231 15.7258  16
   5  -4  -4 22.4630 21.1747  14
  -5   4   4 60.7918 27.4209  12
   5  -4  -3 399.013 42.1449  21
   5  -4  -3 359.626 43.2328   3
   5  -4  -3 443.142 46.5594  14
  -5   4   3 443.748 48.0798  12
  -5   4   3 497.180 50.5034   6
   5  -4  -2-27.7338 20.1063  21
   5  -4  -2 16.3152 18.6284   3
   5  -4  -2 20.6912 23.1383  14
  -5   4   2 18.2029 24.5819  12
   5  -4  -1 1939.40 101.789   3
   5  -4  -1 2054.51 96.5958  21
   5  -4  -1 2004.62 93.3683  14
  -5   4   1 2062.95 99.6373  12
   5  -4   0-23.9179 21.3214   3
   5  -4   0-39.7527 22.2707  14
  -5   4   0-29.6086 25.0718   7
  -5   4   0-14.9505 25.2062  12
   5  -4   1 88.8940 29.1475  21
   5  -4   1 114.602 29.6764   3
  -5   4  -1 100.704 31.0837   7
  -5   4  -1 66.1979 27.1084  12
   5  -4   2 114.634 27.4247  23
   5  -4   2 146.904 32.0019  21
   5  -4   2 139.790 28.7956   3
  -5   4  -2 150.433 32.2747   7
  -5   4  -2 182.837 34.4579  12
   5  -4   3 124.136 28.9767  23
   5  -4   3 108.301 30.3929  21
   5  -4   3 53.1351 15.5447   3
   5  -4   4 323.761 40.1875  23
   5  -4   4 306.118 36.4201  21
  -5   4  -4 288.931 40.4579   6
   5  -4   5 8.09019 21.2520  23
   5  -4   5 11.6951 18.8768  21
  -5   4  -5 22.3468 17.4293   6
  -5   3   6 43.1429 18.0042  16
   5  -3  -6 56.2423 22.3897  14
  -5   3   6 46.4695 20.8138   7
  -5   3   6 39.3444 21.8772  12
  -5   3   5 79.7544 22.3698  16
   5  -3  -5 127.173 33.5678  14
  -5   3   5 138.287 29.3460   7
  -5   3   5 120.278 34.7885  12
   5  -3  -4 618.022 57.2016   3
   5  -3  -4 592.908 48.3707  21
  -5   3   4 630.613 51.6022  16
   5  -3  -4 708.786 61.7260  14
  -5   3   4 747.852 61.0724   7
  -5   3   4 658.121 61.1963  12
  -5   3   4 696.511 57.6913   6
   5  -3  -3 252.096 42.7044  21
  -5   3   3 254.534 43.2691   6
   5  -3  -3 228.420 40.2086   3
  -5   3   3 302.988 43.8293  16
   5  -3  -3 213.045 41.4360  14
  -5   3   3 176.683 39.8932  12
   5  -3  -2-6.54451 24.6284  21
  -5   3   2 1.84063 26.5122   6
   5  -3  -2 30.3980 22.0900   3
  -5   3   2-4.59887 17.9294  16
   5  -3  -2-0.88205 26.7715  14
  -5   3   2 59.0275 32.7871  12
   5  -3  -1-8.94598 27.3028  21
   5  -3  -1 0.38684 23.1494   3
   5  -3  -1 22.7792 27.8734  14
  -5   3   1-7.52529 25.3304  12
   5  -3   0 1437.16 94.0493   3
   5  -3   0 1348.15 85.9382  21
   5  -3   0 1661.48 96.8997  14
  -5   3   0 1613.84 98.1060   7
  -5   3   0 1474.42 91.0708  12
   5  -3   1 1145.32 83.1481   3
   5  -3   1 1115.12 82.2228  21
   5  -3   1 1325.19 86.6475  14
  -5   3  -1 1357.25 89.5785   7
  -5   3  -1 1135.29 78.8364  12
   5  -3   2 368.555 51.7806  21
   5  -3   2 363.340 48.8677   3
  -5   3  -2 410.658 51.8675   7
  -5   3  -2 321.006 45.3996  12
  -5   3  -3 1984.30 108.343   6
   5  -3   3 1852.07 102.228   3
   5  -3   3 1672.95 90.0014  21
  -5   3  -3 1961.17 98.8397   7
   5  -3   3 1659.95 85.7798  23
   5  -3   4 823.437 66.7304   3
   5  -3   4 790.582 61.0655  21
   5  -3   4 776.475 62.3720  23
  -5   3  -4 919.036 73.7537   6
   5  -3   5 65.4462 30.4821  23
   5  -3   5 20.9292 25.9196  21
  -5   3  -5 42.9624 27.1449   6
   5  -3   5 25.7181 20.2507   3
   5  -3   6 27.7920 25.7246  23
   5  -3   6-34.0515 27.8860  21
  -5   3  -6-3.14603 19.8828   6
   5  -3   7 83.5922 28.9630  23
   5  -3   7 95.9870 25.7370  21
  -5   2   6 214.412 31.6920  16
   5  -2  -6 182.500 34.0068  14
  -5   2   6 176.893 30.2425   7
  -5   2   6 186.203 34.9982  12
  -5   2   5 331.936 39.6283  16
   5  -2  -5 534.446 51.9214  14
  -5   2   5 408.225 48.4429   7
  -5   2   5 221.101 38.6485  12
  -5   2   4 28.4571 21.8897   6
   5  -2  -4 57.9163 22.3778   3
  -5   2   4 0.63555 20.0084  16
   5  -2  -4 9.14006 29.0436  14
  -5   2   4 27.6370 24.8205   7
  -5   2   4 14.7883 28.3495  12
  -5   2   3 358.186 49.1511   6
   5  -2  -3 298.938 44.9218   3
  -5   2   3 363.174 44.4691  16
   5  -2  -3 376.867 52.8430  14
  -5   2   3 378.135 51.8639   7
  -5   2   3 269.884 46.5200  12
  -5   2   2 349.852 52.6766   6
   5  -2  -2 308.428 47.9333   3
  -5   2   2 313.144 43.9572  16
   5  -2  -2 376.565 52.9338  14
  -5   2   2 304.878 46.0904   7
  -5   2   2 266.803 45.6001  12
   5  -2  -1 84.0116 24.3775  21
  -5   2   1 131.316 34.9774   6
   5  -2  -1 172.852 36.2975   3
  -5   2   1 126.073 27.8364  16
   5  -2  -1 141.872 40.8069  14
  -5   2   1 181.157 44.1954   7
  -5   2   1 153.919 38.3151  12
   5  -2   0 1150.05 74.8739  21
   5  -2   0 1427.55 97.8034  14
  -5   2   0 1454.65 96.4651   7
  -5   2   0 1299.63 89.2829  12
   5  -2   0 1294.98 94.9837   3
  -5   2   0 1485.96 100.403   6
   5  -2   1 143.879 56.4143  21
  -5   2  -1 11.3573 35.3680   6
   5  -2   1 141.592 40.6405   3
   5  -2   1 18.5120 33.1088  14
  -5   2  -1 73.9387 31.5501   7
  -5   2  -1-7.13197 28.0879  12
   5  -2   2 1546.71 85.0964  21
   5  -2   2 1894.96 108.859  14
  -5   2  -2 1965.98 108.719   7
  -5   2  -2 1548.79 87.2659  12
   5  -2   2 1729.32 106.527   3
  -5   2  -2 1923.31 112.506   6
   5  -2   3-11.0120 29.3517  23
   5  -2   3-1.47805 25.3805  21
  -5   2  -3 45.4033 35.6353   6
   5  -2   3 49.6610 24.2059   3
  -5   2  -3 92.0745 30.5301   7
   5  -2   4 784.177 60.2398  21
  -5   2  -4 882.702 68.6587   7
   5  -2   4 843.777 71.1753   3
   5  -2   4 822.922 66.5228  23
  -5   2  -4 865.526 74.9925   6
   5  -2   5 1293.96 73.3979  21
   5  -2   5 1299.06 84.4583  23
  -5   2  -5 1469.71 91.7878   6
   5  -2   5 1361.80 85.7640   3
   5  -2   6 140.074 39.2246  23
   5  -2   6 49.7144 24.1744  21
  -5   2  -6 102.634 30.2723   6
   5  -2   6 51.7808 21.5012   3
   5  -2   7 104.748 38.9018  23
   5  -2   7 60.9844 24.1376  22
   5  -2   7 54.4583 22.6946  21
  -5   2  -7 42.7989 21.0950   6
   5  -2   8 162.973 38.0331  23
   5  -2   8 98.7297 23.7881  21
  -5   1   7 75.0199 18.8019  16
  -5   1   7 45.0469 20.9660  31
   5  -1  -7 46.3643 22.8901  14
   5  -1  -7 86.3544 23.3854  13
  -5   1   7 90.0242 18.9244  26
  -5   1   7 95.5938 25.0112  12
  -5   1   6 115.882 25.5589  16
   5  -1  -6 122.375 29.2732  14
   5  -1  -6 170.999 29.0470  13
  -5   1   6 142.144 24.6948  26
  -5   1   6 120.019 25.4645   7
  -5   1   6 140.177 32.9872  12
  -5   1   5 340.296 42.5949  16
   5  -1  -5 310.564 46.7237  14
   5  -1  -5 312.031 40.9236  13
  -5   1   5 337.907 34.9133  26
  -5   1   5 359.359 43.7917   7
  -5   1   5 330.723 47.2633  12
  -5   1   4 1215.42 77.6097  16
   5  -1  -4 1184.46 82.9310  14
   5  -1  -4 1123.39 73.5698  13
  -5   1   4 1320.14 85.0366   7
  -5   1   4 1230.35 85.2139  12
  -5   1   4 1306.64 81.4711   6
   5  -1  -4 1123.62 80.3474   3
  -5   1   3 1830.87 97.3045  16
   5  -1  -3 1933.02 109.173  14
   5  -1  -3 1737.25 94.2578  13
  -5   1   3 2033.24 109.503   7
  -5   1   3 1883.70 107.240  12
   5  -1  -3 1741.03 105.629   3
  -5   1   3 1885.65 104.554   6
  -5   1   2-23.0426 34.2706   6
   5  -1  -2 11.4239 24.6771   3
  -5   1   2-34.4549 32.5268  16
   5  -1  -2-37.5744 38.6937  14
   5  -1  -2-43.6902 27.4762  13
  -5   1   2-22.6429 35.8437   7
  -5   1   2-16.7555 38.2464  12
  -5   1   1 5718.20 176.128  16
   5  -1  -1 5616.63 198.396  14
  -5   1   1 5733.82 192.098   7
  -5   1   1 5518.65 184.204  12
  -5   1   1 6038.56 200.511   6
  -5   1   0-4.06068 35.6533   6
   5  -1   0-1.19326 39.5781  14
   5  -1   0-15.1944 23.9931  13
  -5   1   0 0.40859 32.4437   7
  -5   1   0-59.2080 34.0816  12
   5  -1   1 1062.23 90.1457  14
   5  -1   1 842.624 66.6807  13
  -5   1  -1 1049.45 84.8641   7
  -5   1  -1 859.318 73.3653  12
  -5   1  -1 983.520 87.4195   6
   5  -1   2 2293.28 128.501  14
   5  -1   2 1964.75 100.847  13
  -5   1  -2 2199.46 121.299   7
  -5   1  -2 1839.64 100.749  12
  -5   1  -2 2270.22 128.972   6
  -5   1  -3 118.920 42.7548   6
   5  -1   3 186.964 35.7871  13
  -5   1  -3 167.977 42.7991   7
   5  -1   4 394.398 53.3289  23
  -5   1  -4 429.610 61.9382   6
   5  -1   4 394.097 46.9612  13
  -5   1  -4 430.638 55.2757   7
   5  -1   5 486.216 57.9495  23
  -5   1  -5 523.300 61.4769   6
  -5   1  -5 539.419 57.0297   7
   5  -1   5 452.044 47.9281  13
   5  -1   5 502.015 56.1957   3
   5  -1   6 719.682 56.8519  13
   5  -1   6 802.166 66.2056   3
  -5   1  -6 847.113 73.1696   6
   5  -1   6 948.421 78.8475  23
   5  -1   7 99.1815 40.8496  23
  -5   1  -7 108.749 30.1312   6
   5  -1   8 918.375 59.9226  22
   5  -1   8 940.617 69.6203  23
   5  -1   9 245.250 40.6629  23
   5  -1   9 188.305 27.9332  22
   5   0  -6-21.0948 20.2260  14
   5   0  -6-19.0802 23.5231  13
  -5   0   6-2.54041 15.9029  26
  -5   0   6-1.05488 23.6637  12
  -5   0   5 42.6988 22.2594  16
   5   0  -5 4.86356 26.2963  14
   5   0  -5 34.3262 24.8874  13
  -5   0   5-0.89672 16.9074  26
  -5   0   5 49.7660 24.5004   7
  -5   0   5 49.6787 29.8109  12
  -5   0   4 1358.24 84.6154  16
   5   0  -4 1407.22 90.7718  14
  -5   0   4 1419.43 87.1061   7
   5   0  -4 1399.99 86.3886  13
  -5   0   4 1456.93 73.9169  26
  -5   0   4 1394.48 92.1494  12
   5   0  -4 1190.61 80.0082   3
  -5   0   4 1404.46 83.0824   6
  -5   0   3 13.8431 25.6584   2
  -5   0   3 16.6885 27.9661   6
  -5   0   3-6.73684 24.6757  16
   5   0  -3-19.9911 30.4518  14
   5   0  -3-66.1985 33.3111  13
  -5   0   3-2.61366 18.7322  26
  -5   0   3-0.42859 28.1795   7
  -5   0   3-79.2595 40.7622  12
  -5   0   2 751.241 65.1618  42
  -5   0   2 965.877 76.0434  16
   5   0  -2 1043.93 86.4763  14
  -5   0   2 1017.10 83.4877   7
   5   0  -2 922.898 73.4196  13
  -5   0   2 908.000 83.0660  12
  -5   0   2 977.550 80.8742   6
   5   0  -1 6821.42 221.913  14
   5   0  -1 6715.68 199.827  13
  -5   0   1 7277.69 220.207   7
  -5   0   1 6563.21 204.350  12
  -5   0   1 6740.11 215.582   6
  -5   0   0-29.5317 35.3287  42
  -5   0   0-70.3487 43.6895   6
   5   0   0 9.99973 43.8194  14
   5   0   0-62.5214 35.2681  13
  -5   0   0-36.3218 45.5548   7
  -5   0   0-90.5084 44.9440  12
  -5   0  -1 2160.98 118.363  42
   5   0   1 2616.40 139.607  14
   5   0   1 2533.99 121.857  13
  -5   0  -1 2604.95 133.772   7
  -5   0  -1 2207.36 114.053  12
  -5   0  -1 2631.49 140.745   6
  -5   0  -2 163.890 40.4065  42
  -5   0  -2 186.427 50.5058   6
   5   0   2 217.050 60.4589  14
   5   0   2 215.271 49.8894  13
  -5   0  -2 208.603 46.0368   7
  -5   0  -2 206.917 45.5658  12
  -5   0  -3 981.762 79.2097  42
   5   0   3 1273.81 86.1055  13
  -5   0  -3 1227.24 94.4886   7
  -5   0  -3 1244.89 100.586   6
  -5   0  -4 9.94034 24.4435  42
  -5   0  -4 35.4123 38.0796   6
   5   0   4 52.0711 32.5992  13
  -5   0  -4 11.6310 26.3930   7
   5   0   5 556.839 58.8048  23
  -5   0  -5 523.511 61.5200  42
  -5   0  -5 696.914 67.3904   7
   5   0   5 613.245 59.4898  13
  -5   0  -5 640.308 70.6437   6
   5   0   6 24.8849 31.0437  23
  -5   0  -6-3.35216 21.2282  42
  -5   0  -6 19.9071 27.5104   6
   5   0   6 53.5946 30.1832  13
  -5   0  -6 28.6644 23.4391   7
   5   0   7 121.332 42.5556  23
  -5   0  -7-6.58213 24.6485  42
  -5   0  -7 45.6622 29.3081   6
   5   0   7 53.5605 28.2367   3
   5   0   7 64.3610 25.3863  13
   5   0   8 1604.48 87.3357  22
   5   0   8 1482.46 79.5051  13
   5   0   8 1684.86 95.8430  23
   5   0   9 470.405 52.3515  23
   5   0   9 528.105 47.7686  22
  -5   0  -9 396.017 46.2472  42
   5   0  10 354.892 43.1154  23
   5   0  10 352.868 35.7292  22
   5   1  -6 393.995 36.1703  14
   5   1  -6 376.956 41.2747  13
  -5  -1   6 381.882 35.7054  26
  -5  -1   6 422.467 44.2106  12
   5   1  -5 614.702 53.2383  14
  -5  -1   5 715.217 55.5268   7
   5   1  -5 763.948 61.5630  13
  -5  -1   5 687.831 51.5226  26
  -5  -1   5 695.682 62.2001  12
  -5  -1   4 103.278 25.8537   2
  -5  -1   4 251.461 40.7331  42
   5   1  -4 190.212 40.2172  14
   5   1  -4 278.374 46.1112  13
  -5  -1   4 234.067 36.3979  26
  -5  -1   4 273.487 41.5110   7
  -5  -1   4 227.277 43.3156  12
  -5  -1   3 988.007 78.1330  42
   5   1  -3 1205.09 85.9609  14
  -5  -1   3 1243.11 85.8795   7
   5   1  -3 1297.51 88.3136  13
  -5  -1   3 1215.66 73.7208  26
  -5  -1   3 1241.00 90.4193  12
  -5  -1   3 1242.05 85.6735   6
  -5  -1   2 694.208 69.0597  42
   5   1  -2 705.939 71.2510  14
  -5  -1   2 781.736 74.5586   7
   5   1  -2 773.733 74.1339  13
  -5  -1   2 730.119 72.3378  12
  -5  -1   2 828.383 77.5564   6
  -5  -1   1 625.188 65.4369  42
   5   1  -1 688.639 70.7494  14
  -5  -1   1 705.729 73.0201   7
   5   1  -1 699.961 68.0754  13
  -5  -1   1 563.727 64.0264  12
  -5  -1   1 706.909 74.4143   6
  -5  -1   0 3425.12 155.411  42
   5   1   0 3509.32 133.011   8
   5   1   0 3842.33 166.942  14
  -5  -1   0 4091.70 169.808   7
   5   1   0 4166.32 158.213  13
  -5  -1   0 3556.16 148.358  12
  -5  -1   0 4110.81 173.457   6
  -5  -1  -1 2109.54 119.831  42
   5   1   1 1999.69 95.4052   8
   5   1   1 2444.96 136.580  14
  -5  -1  -1 2362.08 130.492   7
   5   1   1 2413.96 121.732  13
  -5  -1  -1 1904.19 104.172  12
  -5  -1  -1 2376.91 134.153   6
  -5  -1  -2 453.110 62.3253  42
   5   1   2 594.417 82.1201  14
  -5  -1  -2 604.881 74.7879   7
   5   1   2 488.832 64.4736  13
  -5  -1  -2 625.702 82.8052   6
  -5  -1  -3 1038.31 88.3023  42
  -5  -1  -3 1158.50 93.4260   7
   5   1   3 1077.39 84.4741  13
  -5  -1  -3 1098.72 95.0126   6
  -5  -1  -4 30.2184 28.5540  42
  -5  -1  -4-1.28817 34.0134   6
   5   1   4 44.8193 31.1296  13
  -5  -1  -4 12.6923 28.9045   7
  -5  -1  -5 163.064 45.2929  42
  -5  -1  -5 110.013 40.7278   6
   5   1   5 120.627 32.5155  13
  -5  -1  -5 130.643 38.5580   7
   5   1   6-4.25591 28.6796  23
  -5  -1  -6 7.53107 23.8168  42
  -5  -1  -6 32.8461 30.1217   6
   5   1   6-32.3260 30.9874  13
  -5  -1  -6 19.5334 24.7956   7
   5   1   7 235.399 46.1293  23
  -5  -1  -7 146.322 34.9764  42
  -5  -1  -7 253.284 47.9132   6
   5   1   7 233.356 42.7674  13
  -5  -1  -7 185.605 33.9901   7
   5   1   8 69.9716 31.9657  23
   5   1   8 79.8667 29.9246  22
  -5  -1  -8 102.322 30.9225   6
  -5  -1  -8 93.4943 28.5721  42
   5   1   8 110.973 30.2546  13
   5   1   9 130.780 32.4031  23
   5   1   9 156.461 35.6310  22
  -5  -1  -9 130.995 31.5623  42
   5   1  10 514.172 46.7133  22
  -5  -1 -10 436.177 47.6520  42
   5   1  10 511.936 50.5165  23
  -5  -2   5 17.2556 15.7761   2
   5   2  -5 18.7270 21.2775  13
  -5  -2   5 51.1797 26.0194  12
  -5  -2   4 112.759 28.8195   2
  -5  -2   4 136.497 29.4266  42
   5   2  -4 139.524 34.8259  13
  -5  -2   4 143.064 30.9930   7
  -5  -2   4 175.753 38.2710  12
  -5  -2   3 665.833 62.7364  42
   5   2  -3 707.228 60.4773  14
  -5  -2   3 855.291 68.7519   7
   5   2  -3 787.041 68.6108  13
  -5  -2   3 702.548 66.9150  12
  -5  -2   3 773.847 63.9135   6
  -5  -2   2 1657.44 104.904  42
   5   2  -2 1834.06 105.610  14
  -5  -2   2 1977.15 110.896   7
   5   2  -2 2053.67 108.677  13
  -5  -2   2 1782.82 104.582  12
  -5  -2   2 2014.41 111.286   6
  -5  -2   1 799.887 76.9119  42
   5   2  -1 823.201 73.3410  40
   5   2  -1 892.078 77.3329  14
  -5  -2   1 1018.12 83.8247   7
   5   2  -1 989.577 79.2271  13
  -5  -2   1 852.529 75.5762  12
  -5  -2   1 861.987 77.9525   6
  -5  -2   0 735.335 72.1782  42
   5   2   0 924.822 79.5121  40
   5   2   0 784.626 69.5390   8
   5   2   0 859.025 79.6534  14
  -5  -2   0 950.245 83.8292   7
   5   2   0 991.648 82.6866  13
  -5  -2   0 738.989 67.0228  12
  -5  -2   0 960.647 85.2688   6
  -5  -2  -1 2509.56 134.917  42
   5   2   1 2620.63 136.094  40
   5   2   1 2649.99 120.679   8
  -5  -2  -1 2967.27 147.122   7
   5   2   1 3119.72 142.183  13
  -5  -2  -1 2457.35 115.031  12
  -5  -2  -1 3072.28 152.194   6
  -5  -2  -2 547.536 69.2905  42
   5   2   2 625.797 70.4895  40
   5   2   2 514.333 53.1844   8
  -5  -2  -2 764.700 83.1617   7
   5   2   2 657.712 77.6934  13
  -5  -2  -2 696.759 83.3937   6
  -5  -2  -3-12.0044 26.1377  42
  -5  -2  -3 97.2374 45.9982   6
   5   2   3 35.4447 24.4666  40
   5   2   3 50.4896 24.8606   8
   5   2   3 2.98669 30.5567  13
  -5  -2  -3 34.0165 36.2500   7
  -5  -2  -4 365.034 55.1597  42
  -5  -2  -4 393.025 58.4868   6
   5   2   4 372.191 53.5228  40
   5   2   4 350.816 50.8122  13
  -5  -2  -4 447.980 60.6269   7
  -5  -2  -5 109.406 34.7722  42
  -5  -2  -5 76.9638 36.9180   6
   5   2   5 89.9051 33.4425  40
   5   2   5 122.394 37.9250  13
  -5  -2  -5 66.1970 33.2190   7
  -5  -2  -6 144.503 35.7564  42
  -5  -2  -6 150.831 39.9527   6
   5   2   6 210.094 41.0509  40
   5   2   6 154.002 36.3922  13
  -5  -2  -6 191.569 40.5675   7
   5   2   7 145.791 39.7455  22
  -5  -2  -7 150.115 38.6451   6
  -5  -2  -7 110.143 31.3888  42
   5   2   7 187.744 37.9886  13
  -5  -2  -7 129.102 32.9511   7
   5   2   8 495.795 52.6587  22
  -5  -2  -8 454.359 51.2692   6
  -5  -2  -8 387.266 50.1885  42
   5   2   8 518.029 55.7379  13
   5   2   9 1702.96 87.8484  22
   5   2   9 1895.65 92.6230  13
   5   2  10 161.103 33.5775  22
  -5  -2 -10 124.278 28.7226  42
  -5  -3   4 353.373 43.3556   2
  -5  -3   4 429.053 46.6303  42
   5   3  -4 557.822 50.9678  13
  -5  -3   4 594.822 53.7630  12
  -5  -3   3 7.43199 19.0040  42
   5   3  -3 45.0063 26.1859  13
  -5  -3   3 27.3049 22.6085   7
  -5  -3   3 61.3601 28.9619  12
  -5  -3   2 948.312 76.0960  42
  -5  -3   2 1093.30 77.3534   7
   5   3  -2 1080.35 76.4791  13
  -5  -3   2 1031.88 76.6006  12
  -5  -3   2 975.773 75.0238   6
  -5  -3   1 135.270 35.4023   6
  -5  -3   1 90.1056 30.6369  42
   5   3  -1 34.4722 21.4433  40
   5   3  -1 120.016 32.9455   8
   5   3  -1 104.854 39.4643  13
  -5  -3   1 116.168 38.2127   7
  -5  -3   1 58.5552 24.1758  12
  -5  -3   0 29.5640 30.4690   6
  -5  -3   0 15.8394 24.1397  42
   5   3   0 68.5287 28.2678  40
   5   3   0 30.1371 22.2764   8
   5   3   0 80.5915 36.7918  13
  -5  -3   0 57.3810 35.0521   7
  -5  -3  -1-7.59816 32.1733   6
  -5  -3  -1-28.6868 26.3700  42
   5   3   1 17.7263 24.1820  40
   5   3   1 9.84515 24.2443   8
   5   3   1 22.5442 33.6176  13
  -5  -3  -1-1.04448 29.0336   7
  -5  -3  -2 36.9965 37.0780   6
  -5  -3  -2-23.4076 27.2334  42
   5   3   2 21.1168 23.0384  40
   5   3   2-1.12599 22.3579   8
   5   3   2 45.3205 32.8655  13
  -5  -3  -2-10.6352 35.4397   7
  -5  -3  -3 73.7030 37.8553   6
  -5  -3  -3 16.7683 23.5011  42
   5   3   3 68.4830 29.0921  40
   5   3   3 88.0540 28.6970   8
   5   3   3 88.2571 37.7180  13
  -5  -3  -4 274.396 51.1591   6
  -5  -3  -4 200.563 40.9577  42
   5   3   4 357.503 53.5458  40
   5   3   4 209.790 34.4659   8
   5   3   4 275.366 48.2729  13
  -5  -3  -4 227.060 46.4635   7
  -5  -3  -5 920.823 82.7318  42
   5   3   5 861.174 74.2845  40
   5   3   5 686.884 54.6218   8
  -5  -3  -5 851.005 79.4588   7
   5   3   5 857.726 69.0206  13
  -5  -3  -5 827.728 80.3429   6
  -5  -3  -6 11.2334 33.2270   6
  -5  -3  -6 26.2310 27.8225  42
   5   3   6 42.7579 26.9234  40
   5   3   6 19.6046 26.7430  13
  -5  -3  -6 31.4112 24.6589   7
   5   3   7 511.721 52.9729  22
  -5  -3  -7 510.382 57.3615   6
  -5  -3  -7 475.684 56.5608  42
   5   3   7 537.636 55.0296  40
  -5  -3  -7 510.141 57.7123   7
   5   3   7 590.667 58.8640  13
   5   3   8 26.1728 22.8643  22
  -5  -3  -8 28.6548 24.7673   6
  -5  -3  -8 5.67454 20.9135  42
   5   3   8-19.7924 25.1966  13
  -5  -3  -8 24.0098 19.7809   7
   5   3   9 96.6661 30.0935  22
  -5  -3  -9 155.603 32.1905  42
   5   3   9 173.003 34.7177  13
   5   3  10 280.782 37.1633  22
  -5  -3 -10 215.930 34.5825  42
  -5  -4   3 45.7927 21.4104  42
  -5  -4   3-12.0319 18.1445  32
   5   4  -3 5.87791 18.9017   8
   5   4  -3 3.37448 21.0969  13
  -5  -4   3 9.96295 18.6980  12
  -5  -4   2 69.2843 21.0543   6
  -5  -4   2 56.7752 22.6458  42
   5   4  -2 103.507 27.3637   8
   5   4  -2 70.4044 25.7445  13
  -5  -4   2 117.171 30.0264   7
  -5  -4   2 53.2042 26.5498  12
  -5  -4   1 451.535 52.1874  42
   5   4  -1 474.947 49.3649  40
   5   4  -1 674.219 59.8988   8
  -5  -4   1 613.301 57.8821   7
   5   4  -1 504.171 53.7652  13
  -5  -4   1 396.614 45.3531  12
  -5  -4   1 579.104 56.9657   6
  -5  -4   0 1625.36 100.367  42
   5   4   0 1647.02 96.7498  40
   5   4   0 1978.46 102.212   8
  -5  -4   0 1917.05 105.106   7
   5   4   0 1645.43 91.7993  13
  -5  -4   0 1539.60 82.7461  12
  -5  -4   0 1792.35 104.340   6
  -5  -4  -1 99.8014 37.9518   6
  -5  -4  -1 79.4172 31.1941  42
   5   4   1 74.7785 25.9608  40
   5   4   1 106.756 34.5211   8
   5   4   1 26.5786 26.3240  13
  -5  -4  -1 64.5915 28.0964   7
  -5  -4  -2 213.416 46.1850   6
  -5  -4  -2 222.571 39.2226  42
   5   4   2 224.804 40.5413  40
   5   4   2 240.832 39.0059   8
   5   4   2 237.644 43.6437  13
  -5  -4  -2 313.349 52.9823   7
  -5  -4  -3 171.803 42.7350   6
  -5  -4  -3 146.247 36.2734  42
   5   4   3 169.429 33.9634  40
   5   4   3 116.376 32.9109   8
   5   4   3 130.928 40.4318  13
  -5  -4  -3 177.000 40.7833   7
   5   4   4 590.353 59.7112  22
  -5  -4  -4 565.638 67.1613   6
  -5  -4  -4 592.668 63.8589  42
   5   4   4 563.864 60.9395  40
   5   4   4 494.219 52.0285   8
  -5  -4  -4 660.415 68.6456   7
   5   4   4 571.869 62.0588  13
   5   4   5 749.110 61.5342  22
  -5  -4  -5 765.510 70.0839  42
   5   4   5 786.271 69.4644  40
   5   4   5 656.429 57.9926   8
  -5  -4  -5 806.123 74.7232   7
   5   4   5 806.133 67.7270  13
  -5  -4  -5 795.913 76.3529   6
   5   4   6 31.2043 23.4354  22
  -5  -4  -6 45.5882 31.5161   6
  -5  -4  -6 39.5148 24.1717  42
   5   4   6-8.01269 21.0106  40
   5   4   6 10.1284 16.9105   8
   5   4   6 17.3834 24.0273  13
  -5  -4  -6 10.6620 24.1456   7
   5   4   7 16.0798 20.8917  22
  -5  -4  -7 34.8543 25.9164   6
  -5  -4  -7 46.8452 24.6854  42
   5   4   7 39.8344 22.6329  40
   5   4   7 59.5049 30.4885  13
  -5  -4  -7 29.6657 23.5270   7
   5   4   8-13.8314 21.6605  22
  -5  -4  -8 24.4365 25.4211   6
  -5  -4  -8 42.9913 23.1571  42
   5   4   8-5.41312 18.3930  40
   5   4   8 9.45542 22.7438  13
  -5  -4  -8 23.6083 20.7836   7
   5   4   9 185.255 30.8203  22
   5   4   9 214.585 35.8987  13
   5   4  10 274.816 33.2009  22
  -5  -4 -10 315.452 41.8746  10
   5   5  -1 469.796 45.0315   8
  -5  -5   1 438.908 41.0998   7
   5   5  -1 369.913 35.8655  13
  -5  -5   1 381.438 39.8462   6
  -5  -5   0 57.1962 22.6368   6
  -5  -5   0 34.8971 17.7855  42
   5   5   0 73.5782 28.0814   8
   5   5   0 27.1086 20.7896  13
  -5  -5   0 81.3926 26.7515   7
  -5  -5  -1 221.824 39.6309   6
  -5  -5  -1 208.620 37.4920  42
   5   5   1 184.901 33.5445  40
   5   5   1 259.557 36.6962   8
   5   5   1 184.323 35.1934  13
  -5  -5  -1 195.079 35.1981   7
  -5  -5  -2 18.9997 24.5512   6
  -5  -5  -2 46.8111 25.8477  42
   5   5   2 58.0390 23.5729  40
   5   5   2 27.5301 20.9040   8
   5   5   2 23.9079 26.2595  13
  -5  -5  -2 39.7671 26.0896   7
  -5  -5  -3 76.5783 33.4611   6
  -5  -5  -3 63.2063 25.8896  42
   5   5   3 84.1119 27.0155  40
   5   5   3 84.2336 30.0256   8
   5   5   3 102.250 28.4354  13
  -5  -5  -3 112.020 32.2028   7
  -5  -5  -4-46.4295 27.7238   6
  -5  -5  -4-10.7985 18.6732  42
   5   5   4 60.8338 24.0736  40
   5   5   4-5.59096 19.4231   8
   5   5   4-5.78725 20.7820  13
  -5  -5  -4 19.6326 24.1312   7
  -5  -5  -5-0.65786 25.6826   6
  -5  -5  -5 17.1993 18.1413  42
   5   5   5 18.9487 17.4029  40
   5   5   5 40.0449 21.1783   8
   5   5   5-10.5642 21.8254  13
  -5  -5  -5 10.0655 21.8180   7
  -5  -5  -6 192.625 39.2710   6
  -5  -5  -6 97.1630 26.8546  42
   5   5   6 129.722 26.7728  40
   5   5   6 128.378 28.0642   8
   5   5   6 157.361 31.3485  13
  -5  -5  -6 138.477 32.6685   7
  -5  -5  -7 144.354 29.6259   6
  -5  -5  -7 65.3835 22.2417  42
   5   5   7 98.7706 25.5628  40
  -5  -5  -7 136.108 34.1214  10
   5   5   7 155.014 29.2522   8
   5   5   7 120.849 31.2777  13
  -5  -5  -7 115.904 27.6962   7
  -5  -5  -8 209.548 31.4164   6
   5   5   8 114.463 24.2896  22
  -5  -5  -8 263.042 44.1508  10
   5   5   8 219.263 32.8083  13
  -5  -5  -8 200.775 30.8413   7
  -5  -6  -3 315.120 41.6461   6
   5   6   3 388.438 40.2965   8
  -5  -6  -3 382.110 43.2603   7
  -5  -6  -4 28.4691 21.0576   6
   5   6   4 36.8375 21.7257   8
   5   6   4 49.3469 27.8109  13
  -5  -6  -4 39.0422 21.4762   7
  -5  -6  -5 49.1688 22.8778   6
   5   6   5 60.4012 21.6014   8
   5   6   5 16.1272 17.8189  13
  -5  -6  -5 29.4534 20.3011   7
   0   0   0    0.00    0.00   0

TITL exp_1369 in P-1
REM P-1 (#2 in standard setting)
CELL 1.54184   4.883548   9.211123  14.665542  76.1354  82.6929  87.3791
ZERR    3.00   0.000423   0.000674   0.000665   0.0050   0.0057   0.0067
LATT  1
SFAC C H N O
UNIT 33.00 30.00 3.00 3.00
TREF
HKLF 4
END
;
loop_
_space_group_symop_operation_xyz
'x, y, z'
'-x, -y, -z'
loop_
_atom_site_label
_atom_site_type_symbol
_atom_site_fract_x
_atom_site_fract_y
_atom_site_fract_z
_atom_site_U_iso_or_equiv
_atom_site_adp_type
_atom_site_occupancy
_atom_site_site_symmetry_order
_atom_site_calc_flag
_atom_site_refinement_flags_posn
_atom_site_refinement_flags_adp
_atom_site_refinement_flags_occupancy
_atom_site_disorder_assembly
_atom_site_disorder_group
O1 O 0.7000(3) 0.57969(19) 0.05405(9) 0.0749(5) Uani 1 1 d D . . . .
H1O H 0.799(6) 0.583(4) 0.0032(14) 0.112 Uiso 1 1 d D U . . .
O2 O 0.9970(3) 0.40397(17) 0.11252(9) 0.0626(4) Uani 1 1 d . . . . .
O3 O 0.8601(3) 0.19436(18) 0.47437(9) 0.0675(5) Uani 1 1 d . . . . .
O4 O 0.4971(3) -0.15120(16) 0.90826(9) 0.0632(4) Uani 1 1 d . . . . .
O5 O 0.0053(3) 0.33983(16) 0.63309(9) 0.0645(4) Uani 1 1 d . . . . .
O6 O -0.0987(3) 0.27358(19) 0.78196(10) 0.0795(5) Uani 1 1 d . . . . .
N1 N 0.4247(3) 0.21163(18) 0.54797(10) 0.0495(4) Uani 1 1 d D . . . .
H1N H 0.269(3) 0.257(2) 0.5398(15) 0.059 Uiso 1 1 d D U . . .
N2 N 0.0423(3) 0.25956(16) 0.70976(10) 0.0469(4) Uani 1 1 d . . . . .
C1 C 0.7882(4) 0.4784(2) 0.12275(11) 0.0461(4) Uani 1 1 d . . . . .
C2 C 0.6057(4) 0.4619(2) 0.21419(11) 0.0474(4) Uani 1 1 d . . . . .
H2A H 0.430617 0.421954 0.207848 0.057 Uiso 1 1 calc R U . . .
H2B H 0.569303 0.560231 0.226627 0.057 Uiso 1 1 calc R U . . .
C3 C 0.7239(3) 0.3617(2) 0.29818(11) 0.0444(4) Uani 1 1 d . . . . .
H3A H 0.761780 0.263015 0.286435 0.053 Uiso 1 1 calc R U . . .
H3B H 0.896825 0.402060 0.306255 0.053 Uiso 1 1 calc R U . . .
C4 C 0.5254(4) 0.3489(2) 0.38768(11) 0.0481(4) Uani 1 1 d . . . . .
H4A H 0.495603 0.447298 0.400506 0.058 Uiso 1 1 calc R U . . .
H4B H 0.349208 0.314741 0.377520 0.058 Uiso 1 1 calc R U . . .
C5 C 0.6247(3) 0.2434(2) 0.47306(11) 0.0436(4) Uani 1 1 d . . . . .
C6 C 0.4441(3) 0.12560(19) 0.63937(11) 0.0410(4) Uani 1 1 d . . . . .
C7 C 0.6483(3) 0.0134(2) 0.65813(12) 0.0442(4) Uani 1 1 d . . . . .
H7 H 0.777368 -0.001931 0.608823 0.053 Uiso 1 1 calc R U . . .
C8 C 0.6613(3) -0.0740(2) 0.74762(12) 0.0461(4) Uani 1 1 d . . . . .
H8 H 0.800277 -0.146443 0.757922 0.055 Uiso 1 1 calc R U . . .
C9 C 0.4703(4) -0.0561(2) 0.82317(12) 0.0456(4) Uani 1 1 d . . . . .
C10 C 0.2700(3) 0.0538(2) 0.80762(11) 0.0448(4) Uani 1 1 d . . . . .
H10 H 0.141883 0.067954 0.857474 0.054 Uiso 1 1 calc R U . . .
C11 C 0.2592(3) 0.14377(18) 0.71717(11) 0.0401(4) Uani 1 1 d . . . . .
C12 C 0.2814(5) -0.1490(3) 0.98342(14) 0.0693(6) Uani 1 1 d . . . . .
H12A H 0.280685 -0.054918 1.000853 0.104 Uiso 1 1 calc R U . . .
H12B H 0.311520 -0.228699 1.037008 0.104 Uiso 1 1 calc R U . . .
H12C H 0.106920 -0.161791 0.962920 0.104 Uiso 1 1 calc R U . . .
loop_
_atom_site_aniso_label
_atom_site_aniso_U_11
_atom_site_aniso_U_22
_atom_site_aniso_U_33
_atom_site_aniso_U_23
_atom_site_aniso_U_13
_atom_site_aniso_U_12
O1 0.0760(10) 0.0920(11) 0.0361(7) 0.0130(7) 0.0028(6) 0.0369(8)
O2 0.0560(8) 0.0826(10) 0.0375(6) -0.0001(6) 0.0017(5) 0.0255(7)
O3 0.0401(7) 0.0997(11) 0.0452(7) 0.0116(7) 0.0000(5) 0.0148(7)
O4 0.0673(9) 0.0709(9) 0.0362(6) 0.0073(6) 0.0031(6) 0.0267(7)
O5 0.0696(9) 0.0669(9) 0.0469(7) 0.0004(6) -0.0060(6) 0.0285(7)
O6 0.0829(11) 0.0863(11) 0.0525(8) -0.0042(7) 0.0154(7) 0.0430(9)
N1 0.0372(7) 0.0674(10) 0.0343(7) 0.0021(6) 0.0001(6) 0.0122(6)
N2 0.0452(8) 0.0470(8) 0.0433(8) -0.0048(6) -0.0012(6) 0.0097(6)
C1 0.0428(9) 0.0558(10) 0.0348(8) -0.0022(7) -0.0055(7) 0.0071(7)
C2 0.0413(9) 0.0584(10) 0.0357(9) -0.0014(7) -0.0015(7) 0.0089(7)
C3 0.0395(9) 0.0541(10) 0.0339(8) -0.0024(7) -0.0015(6) 0.0077(7)
C4 0.0428(9) 0.0585(10) 0.0356(9) -0.0014(7) -0.0003(7) 0.0104(7)
C5 0.0372(8) 0.0539(10) 0.0357(8) -0.0049(7) -0.0020(6) 0.0039(7)
C6 0.0357(8) 0.0487(9) 0.0353(8) -0.0048(7) -0.0028(6) 0.0018(7)
C7 0.0378(8) 0.0528(10) 0.0377(8) -0.0072(7) 0.0022(6) 0.0064(7)
C8 0.0419(9) 0.0484(9) 0.0434(9) -0.0050(7) -0.0019(7) 0.0090(7)
C9 0.0458(9) 0.0491(9) 0.0366(8) -0.0024(7) -0.0026(7) 0.0073(7)
C10 0.0437(9) 0.0505(10) 0.0357(8) -0.0062(7) 0.0014(6) 0.0079(7)
C11 0.0353(8) 0.0426(9) 0.0391(8) -0.0059(7) -0.0019(6) 0.0050(6)
C12 0.0770(14) 0.0741(14) 0.0404(10) 0.0054(9) 0.0095(9) 0.0223(11)
loop_
_atom_type_symbol
_atom_type_description
_atom_type_scat_dispersion_real
_atom_type_scat_dispersion_imag
_atom_type_scat_source
C C 0.0181 0.0091 'International Tables Vol C Tables 4.2.6.8 and 6.1.1.4'
H H 0.0000 0.0000 'International Tables Vol C Tables 4.2.6.8 and 6.1.1.4'
N N 0.0311 0.0180 'International Tables Vol C Tables 4.2.6.8 and 6.1.1.4'
O O 0.0492 0.0322 'International Tables Vol C Tables 4.2.6.8 and 6.1.1.4'
loop_
_geom_angle_atom_site_label_1
_geom_angle_atom_site_label_2
_geom_angle_atom_site_label_3
_geom_angle
_geom_angle_site_symmetry_1
_geom_angle_site_symmetry_3
C1 O1 H1O 111(2) . .
C9 O4 C12 117.22(14) . .
C5 N1 C6 128.85(14) . .
C5 N1 H1N 115.7(15) . .
C6 N1 H1N 115.1(15) . .
O5 N2 O6 121.18(14) . .
O5 N2 C11 120.50(14) . .
O6 N2 C11 118.33(14) . .
O2 C1 O1 122.96(15) . .
O2 C1 C2 123.80(15) . .
O1 C1 C2 113.23(15) . .
C1 C2 C3 114.26(14) . .
C1 C2 H2A 108.7 . .
C3 C2 H2A 108.7 . .
C1 C2 H2B 108.7 . .
C3 C2 H2B 108.7 . .
H2A C2 H2B 107.6 . .
C4 C3 C2 111.06(13) . .
C4 C3 H3A 109.4 . .
C2 C3 H3A 109.4 . .
C4 C3 H3B 109.4 . .
C2 C3 H3B 109.4 . .
H3A C3 H3B 108.0 . .
C5 C4 C3 113.58(14) . .
C5 C4 H4A 108.8 . .
C3 C4 H4A 108.8 . .
C5 C4 H4B 108.8 . .
C3 C4 H4B 108.8 . .
H4A C4 H4B 107.7 . .
O3 C5 N1 124.12(15) . .
O3 C5 C4 123.16(15) . .
N1 C5 C4 112.71(14) . .
N1 C6 C11 122.19(15) . .
N1 C6 C7 121.65(15) . .
C11 C6 C7 116.15(14) . .
C8 C7 C6 121.45(15) . .
C8 C7 H7 119.3 . .
C6 C7 H7 119.3 . .
C7 C8 C9 121.16(15) . .
C7 C8 H8 119.4 . .
C9 C8 H8 119.4 . .
O4 C9 C10 124.64(15) . .
O4 C9 C8 116.43(14) . .
C10 C9 C8 118.93(15) . .
C9 C10 C11 119.89(15) . .
C9 C10 H10 120.1 . .
C11 C10 H10 120.1 . .
C10 C11 C6 122.38(15) . .
C10 C11 N2 114.99(14) . .
C6 C11 N2 122.62(14) . .
O4 C12 H12A 109.5 . .
O4 C12 H12B 109.5 . .
H12A C12 H12B 109.5 . .
O4 C12 H12C 109.5 . .
H12A C12 H12C 109.5 . .
H12B C12 H12C 109.5 . .
loop_
_geom_bond_atom_site_label_1
_geom_bond_atom_site_label_2
_geom_bond_distance
_geom_bond_site_symmetry_2
O1 C1 1.302(2) .
O1 H1O 0.830(10) .
O2 C1 1.216(2) .
O3 C5 1.216(2) .
O4 C9 1.360(2) .
O4 C12 1.428(2) .
O5 N2 1.2184(19) .
O6 N2 1.2180(19) .
N1 C5 1.359(2) .
N1 C6 1.396(2) .
N1 H1N 0.857(10) .
N2 C11 1.463(2) .
C1 C2 1.492(2) .
C2 C3 1.513(2) .
C2 H2A 0.9700 .
C2 H2B 0.9700 .
C3 C4 1.513(2) .
C3 H3A 0.9700 .
C3 H3B 0.9700 .
C4 C5 1.509(2) .
C4 H4A 0.9700 .
C4 H4B 0.9700 .
C6 C11 1.400(2) .
C6 C7 1.406(2) .
C7 C8 1.373(2) .
C7 H7 0.9300 .
C8 C9 1.391(2) .
C8 H8 0.9300 .
C9 C10 1.375(2) .
C10 C11 1.392(2) .
C10 H10 0.9300 .
C12 H12A 0.9600 .
C12 H12B 0.9600 .
C12 H12C 0.9600 .
loop_
_geom_torsion_atom_site_label_1
_geom_torsion_atom_site_label_2
_geom_torsion_atom_site_label_3
_geom_torsion_atom_site_label_4
_geom_torsion
_geom_torsion_site_symmetry_1
_geom_torsion_site_symmetry_2
_geom_torsion_site_symmetry_3
_geom_torsion_site_symmetry_4
O2 C1 C2 C3 9.2(3) . . . .
O1 C1 C2 C3 -171.53(17) . . . .
C1 C2 C3 C4 -179.14(16) . . . .
C2 C3 C4 C5 176.77(15) . . . .
C6 N1 C5 O3 2.7(3) . . . .
C6 N1 C5 C4 -176.31(17) . . . .
C3 C4 C5 O3 12.6(3) . . . .
C3 C4 C5 N1 -168.45(16) . . . .
C5 N1 C6 C11 156.71(18) . . . .
C5 N1 C6 C7 -24.5(3) . . . .
N1 C6 C7 C8 -177.97(16) . . . .
C11 C6 C7 C8 0.9(3) . . . .
C6 C7 C8 C9 0.8(3) . . . .
C12 O4 C9 C10 8.4(3) . . . .
C12 O4 C9 C8 -171.37(18) . . . .
C7 C8 C9 O4 178.21(16) . . . .
C7 C8 C9 C10 -1.6(3) . . . .
O4 C9 C10 C11 -179.12(17) . . . .
C8 C9 C10 C11 0.7(3) . . . .
C9 C10 C11 C6 1.1(3) . . . .
C9 C10 C11 N2 -178.33(16) . . . .
N1 C6 C11 C10 177.02(16) . . . .
C7 C6 C11 C10 -1.8(3) . . . .
N1 C6 C11 N2 -3.6(3) . . . .
C7 C6 C11 N2 177.54(15) . . . .
O5 N2 C11 C10 -176.34(16) . . . .
O6 N2 C11 C10 3.9(2) . . . .
O5 N2 C11 C6 4.3(3) . . . .
O6 N2 C11 C6 -175.50(18) . . . .
