#------------------------------------------------------------------------------
#$Date: 2022-06-29 12:46:28 +0300 (Wed, 29 Jun 2022) $
#$Revision: 276400 $
#$URL: file:///home/coder/svn-repositories/cod/cif/8/10/55/8105568.cif $
#------------------------------------------------------------------------------
#
# This file is available in the Crystallography Open Database (COD),
# http://www.crystallography.net/
#
# All data on this site have been placed in the public domain by the
# contributors.
#
data_8105568
loop_
_publ_author_name
'Kang, Jaeun'
'Ok, Kang Min'
'Do, Junghwan'
_publ_section_title
;
 Crystal structure of diaqua-bis(3,3-dimethylacrylato-\k2
 O,O&#x2032;)zinc(II), C10H18ZnO6
;
_journal_issue                   1
_journal_name_full
'Zeitschrift f\"ur Kristallographie - New Crystal Structures'
_journal_page_first              139
_journal_page_last               140
_journal_paper_doi               10.1515/ncrs-2018-0235
_journal_volume                  234
_journal_year                    2018
_chemical_formula_sum            'C10 H18 O6 Zn'
_chemical_formula_weight         299.61
_space_group_crystal_system      monoclinic
_space_group_IT_number           13
_space_group_name_Hall           '-P 2yc'
_space_group_name_H-M_alt        'P 1 2/c 1'
_atom_sites_solution_hydrogens   mixed
_atom_sites_solution_primary     direct
_atom_sites_solution_secondary   difmap
_cell_angle_alpha                90
_cell_angle_beta                 100.3500(10)
_cell_angle_gamma                90
_cell_formula_units_Z            2
_cell_length_a                   11.0730(2)
_cell_length_b                   5.52600(10)
_cell_length_c                   10.8410(2)
_cell_measurement_reflns_used    218
_cell_measurement_temperature    293(2)
_cell_measurement_theta_max      28.32
_cell_measurement_theta_min      1.87
_cell_volume                     652.56(2)
_computing_cell_refinement       'Brucker XSCANS'
_computing_data_collection       'Brucker XSCANS'
_computing_data_reduction        'Brucker SHELXTL'
_computing_molecular_graphics    'DIAMOND 4.5.2 [3]'
_computing_publication_material  pubCIF
_computing_structure_refinement  'SHELXL-2018/3 (Sheldrick, 2018) [2]'
_computing_structure_solution    'SHELX97 (Sheldrick, 1990) [1]'
_diffrn_ambient_temperature      293(2)
_diffrn_measured_fraction_theta_full 0.999
_diffrn_measured_fraction_theta_max 0.997
_diffrn_measurement_device_type  'Bruker APEX'
_diffrn_measurement_method       \wscans
_diffrn_radiation_type           MoK\a
_diffrn_radiation_wavelength     0.71073
_diffrn_reflns_av_R_equivalents  0.0287
_diffrn_reflns_av_unetI/netI     0.0255
_diffrn_reflns_Laue_measured_fraction_full 0.999
_diffrn_reflns_Laue_measured_fraction_max 0.997
_diffrn_reflns_limit_h_max       14
_diffrn_reflns_limit_h_min       -14
_diffrn_reflns_limit_k_max       7
_diffrn_reflns_limit_k_min       -7
_diffrn_reflns_limit_l_max       14
_diffrn_reflns_limit_l_min       -14
_diffrn_reflns_number            7022
_diffrn_reflns_point_group_measured_fraction_full 0.999
_diffrn_reflns_point_group_measured_fraction_max 0.997
_diffrn_reflns_theta_full        25.242
_diffrn_reflns_theta_max         28.315
_diffrn_reflns_theta_min         1.870
_diffrn_source                   'fine-focus sealed tube'
_exptl_absorpt_coefficient_mu    1.894
_exptl_absorpt_correction_T_max  0.7457
_exptl_absorpt_correction_T_min  0.6337
_exptl_absorpt_correction_type   empirical
_exptl_absorpt_process_details   SADABS
_exptl_crystal_colour            colorless
_exptl_crystal_density_diffrn    1.525
_exptl_crystal_description       rod
_exptl_crystal_F_000             312
_exptl_crystal_size_max          0.10
_exptl_crystal_size_mid          0.02
_exptl_crystal_size_min          0.01
_refine_diff_density_max         1.693
_refine_diff_density_min         -0.291
_refine_diff_density_rms         0.089
_refine_ls_extinction_coef       .
_refine_ls_extinction_method     none
_refine_ls_goodness_of_fit_ref   1.043
_refine_ls_hydrogen_treatment    mixed
_refine_ls_matrix_type           full
_refine_ls_number_parameters     88
_refine_ls_number_reflns         1629
_refine_ls_number_restraints     0
_refine_ls_restrained_S_all      1.043
_refine_ls_R_factor_all          0.0366
_refine_ls_R_factor_gt           0.0318
_refine_ls_shift/su_max          0.000
_refine_ls_shift/su_mean         0.000
_refine_ls_structure_factor_coef Fsqd
_refine_ls_weighting_details
'w=1/[\s^2^(Fo^2^)+(0.0565P)^2^+0.1704P] where P=(Fo^2^+2Fc^2^)/3'
_refine_ls_weighting_scheme      calc
_refine_ls_wR_factor_gt          0.0816
_refine_ls_wR_factor_ref         0.0842
_reflns_Friedel_coverage         0.000
_reflns_Friedel_fraction_full    .
_reflns_Friedel_fraction_max     .
_reflns_number_gt                1473
_reflns_number_total             1629
_reflns_threshold_expression     'I > 2\s(I)'
_cod_data_source_file            suppl_ncrs-2018-0235_suppl.cif
_cod_data_source_block           a
_cod_original_sg_symbol_H-M      'P 2/c'
_cod_database_code               8105568
_shelx_space_group_comment
;
The symmetry employed for this shelxl refinement is uniquely defined
by the following loop, which should always be used as a source of
symmetry information in preference to the above space-group names.
They are only intended as comments.
;
_shelx_estimated_absorpt_t_min   0.2488
_shelx_estimated_absorpt_t_max   0.3039
_shelx_res_file
;

TITL      centro in P2/c        Zn[(H2O)2(3,3-dimethylacrylate)2]
    shelx.res
    created by SHELXL-2018/3 at 17:55:24 on 04-Jul-2018
CELL   0.71073     11.073    5.526   10.841   90.000  100.350   90.000
ZERR         2      0.0002    0.0001    0.0002    0.000    0.001    0.000
LATT  1
SYMM -X,Y,1/2-Z
SFAC        C       H       O       ZN
UNIT        20      36       12       2
LIST 6 ! automatically inserted. Change 6 to 4 for CHECKCIF!!
L.S.      4
FMAP      2
PLAN     -5
acta
WGHT    0.056500    0.170400
FVAR       0.27250
ZN1   4    0.500000    0.095971    0.750000    10.50000    0.03075    0.01424 =
         0.01447    0.00000    0.00297    0.00000
O1    3    0.360768    0.404177    0.728546    11.00000    0.03489    0.02014 =
         0.01680    0.00025    0.00432    0.00120
O2    3    0.414939    0.210131    0.571306    11.00000    0.03624    0.02011 =
         0.02024   -0.00013    0.00322    0.00846
C1    1    0.355808    0.381820    0.611924    11.00000    0.02816    0.01751 =
         0.02059   -0.00035    0.00482   -0.00151
C2    1    0.287868    0.554040    0.520474    11.00000    0.03695    0.02151 =
         0.01866    0.00218    0.00697    0.00515
AFIX  43
H1    2    0.317491    0.575342    0.446189    11.00000   -1.20000
AFIX   0
C3    1    0.188837    0.681952    0.532984    11.00000    0.03105    0.02219 =
         0.02299   -0.00027    0.00179    0.00180
C4    1    0.135673    0.856600    0.431268    11.00000    0.04189    0.03100 =
         0.03730    0.00849    0.00377    0.01212
AFIX 137
H2A   2    0.181343    0.847633    0.364051    11.00000   -1.50000
H2B   2    0.140303    1.018001    0.464543    11.00000   -1.50000
H2C   2    0.051431    0.815677    0.400267    11.00000   -1.50000
AFIX   0
C5    1    0.122523    0.668341    0.641938    11.00000    0.03212    0.04607 =
         0.03321    0.00202    0.00998    0.00755
AFIX 137
H3A   2    0.152261    0.532212    0.693589    11.00000   -1.50000
H3B   2    0.036102    0.649845    0.611502    11.00000   -1.50000
H3C   2    0.136781    0.814256    0.690427    11.00000   -1.50000
AFIX   0
OW1   3    0.392979   -0.140110    0.820726    11.00000    0.04408    0.01850 =
         0.01791   -0.00178    0.00738   -0.00813
H4A   2    0.400963   -0.156257    0.893679    11.00000    0.04514
H4B   2    0.380812   -0.265857    0.793741    11.00000    0.04012

HKLF      4




REM       centro in P2/c        Zn[(H2O)2(3,3-dimethylacrylate)2]
REM wR2 = 0.0842, GooF = S = 1.043, Restrained GooF = 1.043 for all data
REM R1 = 0.0318 for 1473 Fo > 4sig(Fo) and 0.0366 for all 1629 data
REM 88 parameters refined using 0 restraints

END

WGHT      0.0565      0.1704

REM Highest difference peak  1.693,  deepest hole -0.291,  1-sigma level  0.089
Q1    1   0.5847  0.0916  0.7657  11.00000  0.05    1.69
Q2    1   0.2120  0.5604  0.5132  11.00000  0.05    0.42
Q3    1   0.6581  0.1952  0.9401  11.00000  0.05    0.40
Q4    1   0.5118  0.1989  0.9087  11.00000  0.05    0.38
Q5    1   0.2600  0.6677  0.5466  11.00000  0.05    0.38
;
_shelx_hkl_file
;
   0   0   1   -0.06    0.04
   0   0  -1   -0.02    0.04
   0   0   2  108.76    2.93
   0   0   2   84.61    3.00
   0   0   2   92.61    2.64
   0   0  -2  105.54    3.19
   0   0  -2   99.46    2.64
   0   0   3   -0.22    0.18
   0   0   3   -0.46    0.20
   0   0   3    0.02    0.17
   0   0  -3   -0.09    0.19
   0   0  -3   -0.37    0.16
   0   0  -4  212.01    5.54
   0   0   4  191.64    5.53
   0   0  -4  214.87    6.14
   0   0   4  213.24    6.13
   0   0   4  198.74    6.31
   0   0   5    0.01    0.17
   0   0  -5    0.11    0.18
   0   0  -5   -0.06    0.19
   0   0   5   -0.11    0.19
   0   0   5   -0.04    0.22
   0   0  -5   -0.10    0.38
   0   0   6  197.38    5.84
   0   0  -6  190.34    5.57
   0   0   6  182.59    6.04
   0   0  -6  196.67    5.87
   0   0  -6  200.71    5.28
   0   0   7    0.06    0.35
   0   0  -7   -0.03    0.25
   0   0   7   -0.22    0.27
   0   0  -7   -0.40    0.25
   0   0  -7    0.20    0.30
   0   0  -8   40.17    1.62
   0   0   8   42.83    1.77
   0   0  -8   43.56    1.44
   0   0   8   45.28    1.58
   0   0  -9    0.36    0.33
   0   0   9    0.19    0.46
   0   0  10   57.49    2.28
   0   0 -10   56.65    1.84
   0   0 -11   -0.12    0.39
   0   0  11   -0.05    0.51
   0   0  12   28.49    1.56
   0   0 -12   28.76    1.29
   0   0  13   -0.40    0.60
   0   0 -13   -0.24    0.39
   0   0  14   19.92    1.42
   0   1   0    5.69    0.25
   0  -1   0    5.50    0.25
   0   1  -1   85.61    2.29
   0   1   1   82.37    2.29
   0  -1  -1   83.71    2.29
   0  -1   1   83.72    2.29
   0  -1  -1   86.76    2.58
   0   1  -2  151.54    4.09
   0   1   2  154.84    4.67
   0   1   2  145.57    4.09
   0   1   2  156.87    4.57
   0   1  -2  147.97    4.69
   0  -1   2  151.80    4.64
   0  -1  -2  155.76    4.57
   0  -1  -2  153.12    4.10
   0   1   3    3.78    0.33
   0   1   3    3.59    0.32
   0   1  -3    3.87    0.31
   0   1   3    3.71    0.26
   0   1  -3    3.55    0.31
   0   1  -3    3.46    0.27
   0  -1  -3    4.30    0.28
   0  -1   3    4.08    0.32
   0  -1  -3    3.73    0.34
   0   1  -4   22.99    0.76
   0   1   4   22.42    0.78
   0   1   4   22.10    0.87
   0   1  -4   21.26    0.92
   0   1   4   21.61    0.92
   0   1  -4   22.51    0.79
   0   1   4   20.93    0.75
   0  -1  -4   22.29    0.77
   0  -1  -4   23.32    0.86
   0  -1   4   20.98    0.90
   0  -1   4   21.21    0.81
   0   1   5  252.52    7.28
   0   1   5  254.22    7.88
   0   1   5  249.41    6.90
   0   1  -5  258.78    7.29
   0   1   5  261.05    7.68
   0   1  -5  251.49    6.89
   0  -1  -5  262.81    6.91
   0  -1  -5  258.67    7.68
   0  -1   5  256.39    7.86
   0  -1   5  258.72    7.63
   0   1   6   59.29    2.15
   0   1   6   61.42    1.90
   0   1   6   57.76    1.82
   0   1   6   62.96    2.06
   0   1  -6   64.78    1.92
   0   1  -6   61.65    1.82
   0  -1   6   57.56    2.13
   0  -1  -6   61.37    1.83
   0  -1   6   61.09    1.99
   0  -1  -6   62.66    2.06
   0   1   7  166.25    4.70
   0   1   7  160.50    4.91
   0   1  -7  167.08    4.94
   0   1   7  174.23    5.24
   0   1  -7  173.66    4.68
   0   1   7  168.25    5.42
   0  -1  -7  173.95    5.24
   0  -1  -7  170.57    4.70
   0  -1   7  168.53    5.40
   0  -1   7  172.53    5.17
   0   1   8    0.92    0.35
   0   1  -8    1.00    0.35
   0   1  -8    0.71    0.33
   0   1   8    0.38    0.44
   0  -1  -8    0.91    0.34
   0  -1  -8    1.08    0.42
   0  -1   8    0.99    0.47
   0   1  -9    0.54    0.35
   0   1   9    0.72    0.48
   0   1   9    1.04    0.38
   0  -1   9    0.98    0.50
   0  -1  -9    1.09    0.38
   0   1  10   30.21    1.47
   0   1 -10   28.78    1.14
   0  -1 -10   28.31    1.14
   0  -1  10   30.66    1.49
   0   1  11   28.59    1.49
   0   1 -11   28.85    1.14
   0  -1  11   28.56    1.50
   0  -1 -11   27.20    1.16
   0   1 -12   32.45    1.27
   0   1  12   29.85    1.62
   0  -1 -12   32.39    1.28
   0  -1  12   33.59    1.70
   0   1 -13    1.01    0.43
   0   1  13    0.75    0.63
   0  -1 -13    0.00    0.42
   0  -1  13   -0.40    0.63
   0   1  14    7.52    1.01
   0  -1  14    7.29    1.01
   0   2   0    4.91    0.38
   0   2   0    4.78    0.34
   0   2   0    6.32    0.51
   0   2   0    5.27    0.37
   0  -2   0    4.58    0.37
   0   2  -1   29.05    0.92
   0   2  -1   30.72    1.01
   0   2   1   27.81    1.03
   0   2   1   30.65    1.05
   0   2  -1   29.63    1.04
   0   2   1   26.38    0.91
   0   2  -1   29.09    1.04
   0  -2   1   29.14    0.93
   0  -2  -1   30.36    1.09
   0  -2  -1   29.19    0.93
   0   2   2   64.82    1.99
   0   2   2   62.44    1.83
   0   2  -2   65.44    1.99
   0   2  -2   62.88    1.83
   0   2   2   67.28    2.09
   0   2  -2   65.51    2.10
   0  -2  -2   63.31    2.10
   0  -2  -2   63.71    1.84
   0  -2   2   64.47    1.84
   0  -2   2   62.50    2.06
   0   2  -3    1.00    0.26
   0   2  -3    1.04    0.20
   0   2   3    1.30    0.25
   0   2   3    1.29    0.27
   0   2  -3    1.58    0.27
   0   2   3    1.35    0.22
   0  -2   3    1.50    0.25
   0  -2   3    1.59    0.25
   0  -2  -3    1.13    0.22
   0  -2  -3    1.64    0.31
   0   2   4   89.90    2.88
   0   2  -4   92.36    2.70
   0   2   4   91.80    2.54
   0   2  -4   92.01    2.52
   0   2   4   76.92    2.68
   0   2   4   90.99    2.91
   0   2  -4   85.81    2.92
   0  -2  -4   90.96    2.54
   0  -2  -4   88.50    3.71
   0  -2   4   91.93    2.89
   0   2  -5  203.52    5.60
   0   2   5  208.30    5.62
   0   2  -5  203.36    6.46
   0   2   5  202.68    5.93
   0   2   5  206.35    6.30
   0   2  -5  212.26    5.95
   0   2   5  210.82    6.44
   0  -2  -5  196.16    6.28
   0  -2   5  207.81    6.38
   0  -2  -5  207.51    5.62
   0   2   6    3.45    0.41
   0   2   6    2.15    0.45
   0   2  -6    3.08    0.36
   0   2   6    3.01    0.36
   0   2  -6    2.96    0.39
   0  -2  -6    3.13    0.38
   0  -2   6    2.56    0.44
   0  -2   6    2.40    0.88
   0  -2  -6    2.60    0.44
   0   2   7   30.69    1.17
   0   2   7   32.59    1.25
   0   2  -7   32.17    1.14
   0   2  -7   32.10    1.24
   0   2   7   30.86    1.42
   0  -2  -7   30.63    1.32
   0  -2  -7   32.69    1.20
   0  -2   7   33.01    1.44
   0   2   8   36.60    1.61
   0   2  -8   37.60    1.29
   0   2   8   35.17    1.32
   0   2  -8   37.06    1.40
   0  -2   8   36.85    1.61
   0  -2  -8   35.90    1.32
   0   2   9   71.86    2.25
   0   2  -9   72.14    2.20
   0   2   9   66.22    2.63
   0  -2   9   74.69    2.68
   0  -2  -9   72.49    2.24
   0   2  10    1.10    0.52
   0   2  10    1.00    0.42
   0   2 -10    1.32    0.41
   0  -2 -10    1.42    0.42
   0  -2  10    1.57    0.57
   0   2  11   35.74    1.39
   0   2 -11   35.99    1.32
   0   2  11   33.49    1.69
   0  -2  11   36.92    1.74
   0  -2 -11   35.22    1.37
   0   2 -12    2.13    0.42
   0   2  12    1.70    0.64
   0  -2  12    1.56    0.69
   0   2 -13    5.79    0.62
   0   2  13    7.96    0.92
   0  -2  13    7.53    0.98
   0  -2 -13    6.08    0.68
   0   3   0   43.73    1.52
   0   3   0   42.40    1.35
   0   3   0   43.67    1.50
   0  -3   0   44.70    1.38
   0   3   1  189.42    5.63
   0   3  -1  191.74    5.63
   0   3  -1  192.79    5.96
   0   3  -1  197.59    5.92
   0   3  -1  194.24    5.25
   0   3   1  192.19    5.93
   0   3   1  196.50    5.95
   0  -3  -1  192.20    5.27
   0  -3  -1  190.79    5.93
   0  -3   1  193.55    5.26
   0   3   2    3.06    0.32
   0   3  -2    3.30    0.36
   0   3   2    2.99    0.42
   0   3   2    3.15    0.36
   0   3  -2    3.87    0.45
   0   3  -2    3.73    0.33
   0  -3   2    3.52    0.35
   0  -3  -2    3.64    0.36
   0  -3   2    3.74    0.37
   0  -3  -2    3.22    0.44
   0   3   3  198.21    5.36
   0   3  -3  201.42    5.74
   0   3  -3  195.09    6.12
   0   3   3  199.11    6.09
   0   3   3  198.08    5.73
   0   3  -3  192.42    5.35
   0  -3  -3  187.66    6.04
   0  -3   3  196.94    6.05
   0  -3   3  192.99    5.35
   0  -3  -3  196.43    5.37
   0   3  -4    4.58    0.49
   0   3  -4    4.64    0.48
   0   3   4    5.09    0.52
   0   3   4    4.41    0.41
   0   3   4    4.48    0.48
   0   3  -4    4.67    0.40
   0  -3   4    4.97    0.44
   0  -3   4    4.93    0.46
   0  -3  -4    3.95    0.42
   0  -3  -4    3.71    0.52
   0   3  -5   96.98    2.86
   0   3   5  100.43    2.90
   0   3  -5  102.97    3.37
   0   3   5   95.01    3.29
   0   3  -5  101.03    3.10
   0   3   5  101.08    3.12
   0  -3   5  100.16    3.28
   0  -3   5  102.26    2.91
   0  -3  -5   97.88    2.90
   0   3   6    4.95    0.50
   0   3   6    5.54    0.58
   0   3  -6    5.43    0.48
   0   3  -6    4.82    0.61
   0   3   6    5.31    0.59
   0   3  -6    5.37    0.56
   0  -3   6    4.89    0.57
   0  -3   6    5.36    0.54
   0  -3  -6    4.74    0.50
   0   3  -7  135.89    3.72
   0   3   7  133.42    3.75
   0   3  -7  130.22    3.98
   0   3   7  127.37    4.30
   0  -3  -7  129.78    3.76
   0  -3   7  136.37    3.76
   0  -3   7  118.81    4.25
   0   3  -8    9.69    0.76
   0   3   8    8.90    0.83
   0   3  -8   10.78    0.67
   0   3   8   10.14    0.70
   0  -3  -8   11.44    0.74
   0  -3   8    9.76    0.92
   0   3  -9   54.15    1.77
   0   3   9   51.53    2.13
   0   3  -9   55.98    1.95
   0   3   9   55.58    1.83
   0  -3  -9   51.36    1.81
   0  -3   9   55.13    2.18
   0   3 -10    0.21    0.37
   0   3  10    0.08    0.47
   0  -3 -10   -0.26    0.38
   0  -3  10    0.00    0.54
   0   3 -11   17.45    0.88
   0   3  11   15.44    1.12
   0   3  11   16.38    0.95
   0  -3  11   16.79    1.25
   0  -3 -11   15.86    0.93
   0   3 -12   11.97    0.81
   0   3  12   15.39    0.95
   0   3  12   13.20    1.09
   0  -3  12   11.37    1.17
   0  -3 -12   11.94    0.88
   0   3  13    7.40    0.94
   0  -3  13    6.76    1.01
   0   4   0  207.11    6.39
   0   4   0  205.57    5.67
   0   4   0  207.15    6.12
   0  -4   0  206.29    5.69
   0   4   1    5.04    0.61
   0   4  -1    5.12    0.61
   0   4  -1    4.13    0.43
   0   4  -1    4.15    0.43
   0   4   1    4.32    0.43
   0   4   1    4.84    0.47
   0  -4   1    4.71    0.48
   0  -4  -1    4.28    0.46
   0   4  -2  110.31    3.39
   0   4   2  110.69    3.10
   0   4   2  102.06    3.50
   0   4  -2  107.49    3.08
   0   4   2  106.55    3.38
   0  -4   2  106.09    3.11
   0  -4   2  108.05    3.47
   0  -4  -2  108.18    3.13
   0   4  -3   77.13    2.61
   0   4  -3   73.91    2.52
   0   4   3   72.04    2.58
   0   4   3   75.05    2.27
   0   4   3   73.31    2.51
   0   4  -3   76.77    2.26
   0  -4   3   76.48    2.30
   0  -4  -3   74.62    2.33
   0  -4   3   77.56    2.56
   0   4   4   22.71    0.96
   0   4  -4   20.92    0.93
   0   4   4   21.43    1.11
   0   4  -4   20.21    1.12
   0   4   4   23.05    1.20
   0   4  -4   21.63    1.14
   0  -4   4   20.18    1.07
   0  -4   4   21.46    1.05
   0  -4  -4   22.30    1.02
   0   4   5    4.33    0.49
   0   4  -5    3.93    0.57
   0   4   5    4.18    0.54
   0   4  -5    3.97    0.57
   0   4   5    3.95    0.60
   0   4  -5    3.96    0.46
   0  -4   5    3.97    0.53
   0  -4  -5    3.58    0.49
   0  -4   5    3.56    0.50
   0   4  -6   26.15    1.20
   0   4  -6   24.75    1.29
   0   4   6   25.22    1.06
   0   4  -6   24.47    1.01
   0   4   6   26.27    1.25
   0   4   6   25.58    1.26
   0  -4   6   26.13    1.25
   0  -4   6   25.63    1.13
   0  -4  -6   25.45    1.11
   0   4   7    8.16    0.76
   0   4  -7    9.39    0.79
   0   4   7    7.37    0.62
   0   4  -7    8.25    0.64
   0  -4   7    7.51    0.74
   0  -4   7    7.75    0.66
   0  -4  -7    7.25    0.63
   0   4   8   22.12    1.02
   0   4  -8   21.54    0.97
   0   4  -8   21.29    1.13
   0   4   8   22.16    1.22
   0  -4   8   21.25    1.12
   0  -4  -8   22.44    1.05
   0  -4   8   21.48    1.25
   0   4   9   17.40    1.07
   0   4  -9   13.28    0.79
   0   4  -9   13.21    0.96
   0   4   9   12.59    0.83
   0  -4   9   12.58    0.97
   0  -4  -9   11.74    0.84
   0   4  10   10.49    0.81
   0   4 -10    9.11    0.71
   0   4  10    9.57    0.92
   0  -4 -10    9.83    0.79
   0  -4  10   10.59    0.83
   0   4  11    0.37    0.55
   0   4 -11    1.79    0.49
   0   4  11    1.85    0.55
   0  -4 -11    1.75    0.52
   0  -4  11    2.72    0.63
   0   5   0   15.21    0.79
   0   5   0   15.05    1.06
   0  -5   0   15.99    0.89
   0   5   1    8.80    0.64
   0   5  -1    7.73    0.79
   0   5   1    7.68    0.78
   0   5  -1    8.14    0.64
   0  -5   1    8.22    0.64
   0  -5  -1    7.97    0.64
   0   5  -2   34.35    1.50
   0   5   2   32.42    1.25
   0   5   2   35.81    1.53
   0   5  -2   34.79    1.26
   0  -5  -2   34.86    1.36
   0  -5   2   36.15    1.35
   0   5  -3    4.97    0.67
   0   5  -3    5.36    0.52
   0   5   3    5.25    0.68
   0   5   3    4.87    0.50
   0  -5   3    4.93    0.56
   0  -5  -3    4.33    0.55
   0   5  -4   38.25    1.69
   0   5   4   44.96    1.78
   0   5  -4   43.68    1.48
   0   5   4   43.36    1.50
   0  -5  -4   41.97    1.56
   0  -5   4   42.44    1.55
   0   5   5    1.25    0.58
   0   5   5    1.16    0.41
   0   5  -5    0.69    0.38
   0   5  -5    0.67    0.52
   0  -5   5    0.68    0.43
   0  -5  -5    0.77    0.44
   0   5   6    4.88    0.56
   0   5  -6    5.30    0.69
   0   5   6    4.60    0.71
   0   5  -6    4.31    0.51
   0  -5  -6    4.48    0.57
   0  -5   6    4.64    0.59
   0   5  -7    0.66    0.52
   0   5   7    1.25    0.44
   0   5  -7    0.83    0.41
   0  -5   7    0.69    0.48
   0  -5  -7    0.29    0.43
   0   5  -8   16.77    1.11
   0   5  -8   17.05    0.90
   0   5   8   15.56    0.92
   0  -5  -8   17.54    1.19
   0  -5   8   17.99    1.09
   0   5  -9    0.60    0.43
   0   5  -9    0.15    0.54
   0   5   9   -0.10    0.45
   0  -5  -9   -0.99    0.42
   0  -5   9   -0.56    0.50
   0  -5  10   20.66    1.23
   0  -5 -10   19.61    1.13
   0   6   0   18.11    1.22
   0   6   0   18.47    0.93
   0  -6   0   18.87    1.04
   0   6  -1    0.93    0.58
   0   6   1    0.73    0.57
   0   6  -1    0.91    0.41
   0   6   1    0.19    0.39
   0  -6   1    0.79    0.47
   0  -6  -1    1.32    0.48
   0   6  -2   33.05    1.59
   0   6   2   34.76    1.34
   0   6   2   36.15    1.65
   0   6  -2   38.85    1.37
   0  -6   2   35.27    1.42
   0  -6  -2   33.30    1.44
   0   6   3   16.33    1.19
   0   6  -3   14.13    1.05
   0   6  -3   15.33    0.86
   0   6   3   14.60    0.85
   0  -6   3   15.11    0.97
   0  -6  -3   15.92    0.97
   0   6   4   37.20    1.39
   0   6  -4   35.03    1.36
   0   6   4   38.96    1.72
   0   6  -4   33.47    1.60
   0  -6   4   33.11    1.44
   0  -6  -4   37.34    1.49
   0   6   5    2.96    0.71
   0   6  -5    2.73    0.64
   0   6  -5    1.83    0.48
   0   6   5    1.70    0.47
   0  -6  -5    2.34    0.55
   0  -6   5    2.83    0.57
   0   6  -6   26.03    1.42
   0   6  -6   30.31    1.22
   0   6   6   29.18    1.25
   0  -6   6   29.25    1.36
   0  -6  -6   27.97    1.30
   0   6   7    6.36    0.67
   0   6  -7    6.35    0.64
   0   6  -7    6.55    0.85
   0  -6   7    6.56    0.76
   0  -6  -7    5.63    0.72
   0   6  -8   19.15    1.29
   0  -6   8   22.90    1.26
   0  -6  -8   22.18    2.71
   0   7   0    0.77    0.45
   0   7   0    1.45    0.70
   0  -7   0    0.71    0.54
   0   7  -1   30.83    1.27
   0   7   1   33.17    1.62
   0   7   1   29.10    1.27
   0   7  -1   27.12    1.54
   0  -7  -1   29.34    1.41
   0  -7   1   28.45    1.39
   0   7  -2    1.65    0.68
   0   7   2    2.08    0.74
   0   7  -2    0.66    0.46
   0   7   2    1.54    0.47
   0  -7  -2    0.44    0.55
   0  -7   2    1.45    0.55
   0   7  -3    9.80    1.01
   0   7   3   10.95    1.06
   0  -7  -3    9.56    0.86
   0  -7   3    9.37    0.85
   0   7  -4    0.69    0.64
   0   7   4    0.47    0.67
   0  -7   4    0.96    0.57
   0  -7  -4    0.89    0.57
  -1   0  14   38.86    1.99
   1   0 -13   -0.34    0.37
  -1   0  13   -0.09    0.57
  -1   0  12   44.93    2.01
   1   0 -12   43.37    1.55
  -1   0  11   -0.55    0.49
   1   0 -11   -0.13    0.33
   1   0 -10  124.64    4.59
  -1   0  10  125.56    4.26
  -1   0   9    0.23    0.46
   1   0  -9   -0.35    0.31
   1   0  -8   46.08    1.77
  -1   0   8   44.33    1.51
   1   0  -8   47.14    1.49
   1   0  -8   44.88    1.62
  -1   0   8   48.46    1.86
  -1   0   7    0.16    0.33
   1   0  -7    0.02    0.29
   1   0  -7   -0.17    0.24
  -1   0   7    0.20    0.26
  -1   0   7    0.00    0.28
   1   0  -7    0.11    0.33
  -1   0   6  288.48    8.87
   1   0  -6  291.62    8.66
   1   0  -6  288.11    7.75
  -1   0   6  297.17    8.63
  -1   0   6  278.93    7.77
   1   0  -5    0.17    0.24
  -1   0   5   -0.14    0.19
  -1   0   5   -0.14    0.16
  -1   0   5   -0.08    0.21
   1   0  -5    0.22    0.23
   1   0  -5   -0.14    0.16
  -1   0   4  143.08    4.16
   1   0  -4  136.70    3.97
  -1   0   4  132.64    3.72
   1   0  -4  144.94    4.19
   1   0  -4  135.28    3.71
  -1   0   4  128.62    4.25
  -1   0   3   -0.16    0.16
  -1   0   3   -0.44    0.21
   1   0  -3   -0.14    0.15
   1   0  -3    0.05    0.49
  -1   0   3    0.33    0.22
  -1   0   2  905.98   28.42
   1   0  -2  931.88   25.25
   1   0  -2 1000.00   28.24
  -1   0   2  977.40   28.11
  -1   0   1   -0.42    0.08
   1   0  -1   -0.41    0.09
  -1   0   0  747.00   21.85
   1   0   2  197.31    5.98
   1   0   2  202.13    5.84
  -1   0  -2  184.78    6.03
  -1   0  -2  203.84    5.79
   1   0   3    0.03    0.14
  -1   0  -3    0.04    0.19
  -1   0  -3    0.12    0.15
   1   0   3   -0.22    0.18
  -1   0  -3   -0.08    0.13
   1   0   4  431.27   12.26
  -1   0  -4  414.56   12.26
   1   0   4  418.28   12.61
  -1   0  -4  414.03   11.09
  -1   0  -4  410.14   12.71
   1   0   5   -0.16    0.24
  -1   0  -5    0.02    0.20
   1   0   5   -0.12    0.21
  -1   0  -5    0.07    0.19
   1   0   5   -0.12    0.19
   1   0   6  123.08    4.03
   1   0   6  133.52    3.83
  -1   0  -6  121.78    3.63
   1   0   6  121.47    3.74
  -1   0  -6  125.07    3.84
  -1   0  -6  123.94    3.49
  -1   0  -7    0.59    0.29
  -1   0  -7    0.03    0.29
   1   0   7   -0.27    0.35
   1   0   7   -0.26    0.28
   1   0   7    0.15    0.29
  -1   0  -8   39.96    1.38
   1   0   8   38.96    1.68
   1   0   9    0.09    0.45
  -1   0  -9   -0.53    0.33
  -1   0 -10    0.37    0.36
   1   0  10    0.38    0.48
  -1   0 -11   -0.09    0.35
   1   0  11    0.42    0.55
  -1   0 -12   33.86    1.36
   1   0  12   35.72    1.75
  -1   0 -13    0.16    0.48
   1   0  13    0.75    0.60
   1   0  14    7.55    1.01
  -1   1  14    4.79    0.87
  -1  -1  14    5.03    0.93
   1   1 -13    2.85    0.50
  -1   1  13    3.21    0.74
  -1  -1  13    4.25    0.83
   1  -1 -13    2.70    0.79
   1   1 -12   32.91    1.25
  -1   1  12   32.00    1.65
  -1  -1  12   32.38    1.66
   1  -1 -12   31.24    1.25
   1   1 -11    5.35    0.52
  -1   1  11    6.26    0.80
   1  -1 -11    6.03    0.55
  -1  -1  11    5.70    0.80
   1   1 -10    9.26    0.63
  -1   1  10    9.71    0.89
  -1   1  10   10.19    0.72
  -1  -1  10    8.86    0.89
   1  -1 -10    8.75    0.66
  -1   1   9   44.46    1.91
   1   1  -9   48.56    1.55
   1   1  -9   46.03    1.71
  -1   1   9   47.13    1.61
  -1  -1   9   48.71    1.96
   1  -1  -9   48.41    1.57
   1   1  -8   29.75    1.20
  -1   1   8   29.09    1.37
   1   1  -8   28.82    1.06
  -1   1   8   28.68    1.20
  -1   1   8   27.29    1.11
  -1  -1   8   29.67    1.20
   1  -1  -8   28.18    1.55
  -1  -1   8   30.39    1.39
   1  -1  -8   29.30    1.09
  -1   1   7  157.22    4.45
  -1   1   7  158.03    5.13
  -1   1   7  163.62    4.99
   1   1  -7  163.43    4.42
  -1   1   7  157.32    4.70
   1   1  -7  161.08    4.72
   1  -1  -7  158.99    4.43
  -1  -1   7  157.51    5.12
  -1  -1   7  163.38    5.11
   1  -1  -7  161.92    5.00
  -1   1   6    1.73    0.32
  -1   1   6    2.00    0.36
  -1   1   6    1.56    0.34
   1   1  -6    1.26    0.24
   1   1  -6    1.86    0.30
  -1   1   6    0.91    0.25
  -1  -1   6    1.98    0.37
   1  -1  -6    1.72    0.35
   1  -1  -6    1.45    0.26
  -1  -1   6    1.42    0.32
  -1   1   5  111.51    3.34
  -1   1   5  114.95    3.54
  -1   1   5  111.93    3.15
   1   1  -5  118.03    3.13
   1   1  -5  117.61    3.34
  -1   1   5  107.29    3.61
  -1  -1   5  105.68    3.60
   1  -1  -5  114.76    3.14
   1  -1  -5  112.28    3.53
  -1  -1   5  116.27    3.51
  -1   1   4   40.12    1.23
   1   1  -4   39.62    1.20
  -1   1   4   39.49    1.43
  -1   1   4   40.92    1.41
   1   1  -4   41.94    1.30
  -1   1   4   42.28    1.32
  -1  -1   4   39.78    1.43
   1  -1  -4   41.69    1.41
  -1  -1   4   41.78    1.77
   1  -1  -4   40.46    1.22
   1   1  -3   95.89    2.80
  -1   1   3   95.99    2.65
   1   1  -3   96.13    2.62
  -1   1   3   98.97    2.82
  -1   1   3   97.78    3.38
  -1   1   3   91.60    3.01
   1  -1  -3   99.02    2.98
  -1  -1   3   93.17    3.01
   1  -1  -3   96.50    2.64
  -1   1   2    1.59    0.27
  -1   1   2    1.45    0.23
  -1   1   2    1.43    0.18
   1   1  -2    1.29    0.23
   1   1  -2    1.26    0.16
  -1  -1   2    1.30    0.23
   1  -1  -2    1.10    0.18
   1  -1  -2    1.48    0.26
  -1   1   1   76.07    2.18
   1   1  -1   86.00    2.50
  -1   1   1   81.07    2.47
   1   1  -1   79.88    2.17
   1  -1  -1   79.51    2.46
   1  -1  -1   80.47    2.19
   1   1   0  119.30    3.57
   1   1   0  113.71    3.11
   1  -1   0  115.89    3.13
   1  -1   0  118.00    3.49
   1   1   1  305.17    8.94
   1   1   1  283.23    7.85
  -1   1  -1  308.72    9.01
  -1   1  -1  288.78    7.86
   1  -1   1  298.25    7.86
   1   1   2  572.64   15.46
  -1   1  -2  586.66   17.70
  -1   1  -2  581.44   15.46
   1   1   2  592.56   17.55
   1  -1   2  572.11   15.46
  -1  -1  -2  593.18   17.16
   1  -1   2  592.11   17.50
  -1  -1  -2  595.07   15.47
  -1   1  -3   14.77    0.73
  -1   1  -3   14.54    0.55
   1   1   3   13.58    0.69
  -1   1  -3   14.28    0.57
   1   1   3   13.95    0.62
   1   1   3   14.62    0.55
  -1  -1  -3   15.38    0.61
   1  -1   3   14.67    0.65
  -1  -1  -3   16.28    0.58
  -1   1  -4   52.91    1.63
  -1   1  -4   53.92    1.87
   1   1   4   55.57    1.77
   1   1   4   55.96    1.86
  -1   1  -4   54.59    1.97
   1   1   4   48.64    1.56
  -1  -1  -4   55.20    1.76
   1  -1   4   53.66    1.70
   1  -1   4   54.30    1.82
  -1  -1  -4   55.34    2.07
  -1   1  -5  114.88    3.69
   1   1   5  106.54    3.14
  -1   1  -5  116.54    3.24
  -1   1  -5  119.16    3.31
   1   1   5  116.68    3.66
   1   1   5  104.87    3.42
   1   1   5  115.09    3.51
  -1  -1  -5  113.46    3.50
   1  -1   5  110.68    3.61
  -1  -1  -5  117.76    3.18
   1  -1   5  109.86    3.43
  -1   1  -6   66.47    2.37
   1   1   6   68.89    2.34
   1   1   6   66.44    1.98
   1   1   6   67.54    2.20
   1   1   6   57.74    2.13
   1   1   6   66.91    2.00
  -1   1  -6   68.29    2.10
  -1   1  -6   66.68    2.04
   1  -1   6   64.59    2.30
  -1  -1  -6   68.28    2.19
   1  -1   6   64.97    2.11
  -1  -1  -6   70.44    2.00
   1   1   7   20.07    1.02
  -1   1  -7   22.15    1.53
   1   1   7   21.38    0.89
  -1   1  -7   21.48    0.89
   1   1   7   21.97    1.14
   1   1   7   23.09    1.00
  -1  -1  -7   22.85    0.93
  -1  -1  -7   23.75    1.00
   1  -1   7   21.97    1.14
   1   1   8   16.91    1.06
  -1   1  -8   15.72    1.29
  -1  -1  -8   16.21    0.84
   1  -1   8   15.29    1.06
  -1  -1  -8   16.67    0.92
  -1   1  -9   17.73    0.87
   1   1   9   17.38    1.11
  -1  -1  -9   18.35    0.90
   1  -1   9   18.95    1.16
  -1   1 -10   62.16    2.02
   1   1  10   61.90    2.45
   1  -1  10   65.44    2.46
  -1  -1 -10   61.72    2.04
   1   1  11   20.89    1.31
  -1   1 -11   22.19    1.02
   1  -1  11   22.12    1.33
  -1  -1 -11   22.27    1.05
   1   1  12   11.96    1.09
  -1   1 -12   13.55    0.84
   1  -1  12   13.07    1.15
  -1  -1 -12   13.84    0.86
   1   1  13    0.33    0.60
  -1   1 -13    1.20    0.46
  -1  -1 -13    0.91    0.45
   1  -1  13    1.19    0.70
   1   2 -13    5.51    0.58
  -1   2  13    6.65    0.91
   1  -2 -13    5.39    0.62
  -1  -2  13    6.67    0.97
  -1   2  12   -0.26    0.51
  -1   2  12   -0.24    0.41
   1   2 -12   -0.10    0.37
   1  -2 -12    0.36    0.39
  -1  -2  12   -0.08    0.61
  -1   2  11   18.88    0.99
  -1   2  11   19.14    1.22
   1   2 -11   19.30    0.91
  -1  -2  11   20.05    1.30
   1  -2 -11   20.37    0.94
   1   2 -10   13.01    0.74
  -1   2  10   13.53    1.00
  -1   2  10   13.22    0.75
   1  -2 -10   13.33    0.78
  -1  -2  10   13.43    1.09
   1   2  -9    9.21    0.75
   1   2  -9    8.54    0.62
  -1   2   9    7.26    0.76
  -1   2   9    8.59    0.68
   1  -2  -9    7.40    0.64
  -1  -2   9    8.37    0.81
   1   2  -8   38.65    1.33
  -1   2   8   38.25    1.40
  -1   2   8   38.24    1.49
   1   2  -8   42.36    1.50
  -1   2   8   37.93    1.67
   1  -2  -8   38.98    1.38
  -1  -2   8   41.67    1.71
   1   2  -7   26.69    0.99
  -1   2   7   26.67    1.16
  -1   2   7   26.53    1.26
   1   2  -7   27.88    1.12
  -1   2   7   25.17    1.04
   1  -2  -7   27.64    1.05
  -1  -2   7   27.23    1.19
  -1   2   6    5.83    0.46
  -1   2   6    5.41    0.50
   1   2  -6    5.82    0.49
   1   2  -6    5.31    0.48
  -1   2   6    5.36    0.55
   1  -2  -6    5.91    0.57
   1  -2  -6    5.66    0.45
  -1  -2   6    5.51    0.61
  -1  -2   6    6.05    0.57
   1   2  -5  253.54    7.17
  -1   2   5  243.73    6.75
  -1   2   5  251.96    7.69
   1   2  -5  256.98    6.72
  -1   2   5  247.87    7.57
  -1   2   5  248.84    7.17
   1  -2  -5  243.74    7.56
  -1  -2   5  246.41    7.68
   1  -2  -5  251.65    6.75
   1   2  -4   75.24    2.12
   1   2  -4   78.53    2.32
  -1   2   4   75.39    2.47
  -1   2   4   73.54    2.46
  -1   2   4   67.63    2.15
  -1   2   4   73.53    2.32
  -1  -2   4   78.76    2.48
   1  -2  -4   73.49    2.46
   1  -2  -4   76.43    2.16
   1   2  -3   87.17    2.85
   1   2  -3   89.20    2.68
  -1   2   3   88.80    2.51
  -1   2   3   89.43    2.70
  -1   2   3   94.13    2.84
  -1   2   3   91.99    2.86
   1   2  -3   87.03    2.48
   1  -2  -3   86.61    3.45
   1  -2  -3   88.12    2.50
  -1  -2   3   88.17    2.85
  -1   2   2   23.02    0.80
  -1   2   2   23.60    0.94
  -1   2   2   22.77    0.94
  -1   2   2   25.04    0.88
   1   2  -2   24.20    0.89
   1   2  -2   23.77    0.89
   1   2  -2   25.18    0.78
  -1  -2   2   24.06    0.81
  -1  -2   2   24.46    0.93
   1  -2  -2   23.26    0.81
   1  -2  -2   22.12    0.92
   1   2  -1   23.58    0.86
   1   2  -1   22.41    0.73
   1   2  -1   21.86    0.84
  -1   2   1   21.97    0.91
  -1   2   1   23.39    0.81
  -1   2   1   20.92    0.74
  -1  -2   1   21.58    0.75
   1  -2  -1   23.28    0.89
   1  -2  -1   22.39    0.77
  -1   2   0   16.56    0.63
  -1   2   0   18.58    0.75
   1   2   0   18.02    0.74
   1   2   0   17.49    0.61
  -1   2   0   18.30    0.77
   1   2   0   16.44    0.71
   1  -2   0   17.22    0.65
   1  -2   0   18.73    0.75
  -1  -2   0   17.15    0.65
   1   2   1   15.70    0.72
  -1   2  -1   16.84    0.64
   1   2   1   17.64    0.74
  -1   2  -1   17.95    0.76
  -1   2  -1   17.74    0.74
   1   2   1   17.97    0.62
   1  -2   1   18.09    0.65
  -1  -2  -1   18.11    0.65
   1  -2   1   16.25    0.65
   1   2   2   66.13    1.88
  -1   2  -2   65.82    2.19
   1   2   2   69.70    2.18
   1   2   2   62.77    2.02
  -1   2  -2   69.59    2.05
  -1   2  -2   64.09    1.88
   1  -2   2   62.70    2.09
   1  -2   2   68.11    1.90
  -1  -2  -2   66.10    2.16
  -1  -2  -2   65.62    1.89
  -1   2  -3  184.67    4.94
   1   2   3  183.40    4.94
  -1   2  -3  184.57    5.69
  -1   2  -3  182.98    5.26
   1   2   3  181.71    5.64
   1   2   3  178.35    5.24
   1  -2   3  184.39    5.58
  -1  -2  -3  180.24    4.95
  -1  -2  -3  182.29    5.55
   1  -2   3  179.51    4.94
  -1   2  -4    4.39    0.44
   1   2   4    4.20    0.34
  -1   2  -4    4.16    0.38
  -1   2  -4    3.95    0.32
   1   2   4    4.92    0.39
   1   2   4    4.25    0.44
   1  -2   4    3.99    0.40
   1  -2   4    4.24    0.36
  -1  -2  -4    3.77    0.35
  -1  -2  -4    5.12    0.47
  -1   2  -5   55.79    1.68
   1   2   5   54.58    1.98
  -1   2  -5   58.80    2.05
   1   2   5   53.32    1.68
   1   2   5   55.45    1.77
  -1   2  -5   56.27    1.79
  -1  -2  -5   54.18    1.91
  -1  -2  -5   56.00    1.72
   1  -2   5   53.25    1.92
   1   2   6    1.10    0.34
   1   2   6    1.48    0.33
   1   2   6    1.54    0.43
  -1   2  -6    1.14    0.43
  -1   2  -6    2.25    0.34
  -1   2  -6    1.26    0.34
  -1  -2  -6    1.97    0.42
   1  -2   6    2.29    0.48
  -1  -2  -6    1.61    0.34
   1  -2   6    2.08    0.42
  -1   2  -7  120.64    3.50
  -1   2  -7  127.74    3.71
  -1   2  -7  125.19    4.14
   1   2   7  112.38    3.81
   1  -2   7  124.17    4.05
  -1  -2  -7  125.93    3.54
  -1  -2  -7  125.13    3.95
   1   2   8   20.40    1.20
   1   2   8   22.52    0.96
  -1   2  -8   21.46    0.94
  -1  -2  -8   20.49    0.99
   1  -2   8   21.33    1.20
  -1   2  -9   76.46    2.38
   1   2   9   78.49    2.39
   1   2   9   74.46    2.86
   1  -2   9   82.08    2.85
  -1  -2  -9   77.06    2.42
  -1   2 -10    1.55    0.42
   1   2  10    2.17    0.57
  -1  -2 -10    1.11    0.43
   1  -2  10    1.29    0.60
   1   2  11   42.11    1.88
  -1   2 -11   38.67    1.46
   1  -2  11   37.47    1.80
  -1  -2 -11   38.67    1.50
   1   2  12    4.73    0.66
  -1   2 -12    2.49    0.50
   1  -2  12    3.84    0.79
  -1  -2 -12    2.69    0.52
   1   2  13   17.87    1.24
  -1   2 -13   16.02    0.95
   1  -2  13   18.29    1.34
  -1  -2 -13   16.47    1.01
  -1   3  13   10.97    1.10
  -1  -3  13   11.75    1.21
  -1   3  12    4.77    0.63
   1   3 -12    3.10    0.50
  -1   3  12    3.50    0.75
   1  -3 -12    3.43    0.55
  -1  -3  12    2.97    0.79
   1   3 -11   18.32    0.91
  -1   3  11   21.86    0.99
  -1   3  11   19.25    1.23
  -1  -3  11   20.26    1.35
   1  -3 -11   18.50    0.98
  -1   3  10    3.58    0.65
   1   3 -10    2.37    0.43
  -1   3  10    2.61    0.52
   1   3 -10    2.51    0.55
  -1  -3  10    3.27    0.71
   1  -3 -10    3.16    0.49
   1   3  -9   92.00    2.65
   1   3  -9   86.36    2.89
  -1   3   9   91.76    2.73
  -1   3   9   84.40    3.15
   1  -3  -9   86.16    2.68
  -1  -3   9   89.83    3.16
  -1   3   8    0.68    0.44
   1   3  -8    0.90    0.34
   1   3  -8    0.17    0.39
  -1   3   8    0.24    0.35
   1  -3  -8    0.92    0.37
  -1  -3   8    1.24    0.39
  -1   3   7  120.87    3.89
   1   3  -7  125.05    3.87
  -1   3   7  130.01    3.64
  -1   3   7  122.24    4.14
   1   3  -7  130.24    3.58
  -1  -3   7  127.98    4.16
   1  -3  -7  123.59    3.62
  -1   3   6    0.53    0.36
  -1   3   6    0.41    0.34
   1   3  -6    0.40    0.30
  -1   3   6    0.49    0.45
   1   3  -6    0.11    0.37
   1  -3  -6    0.32    0.51
  -1  -3   6    0.82    0.42
   1   3  -5   94.33    2.93
  -1   3   5   91.04    2.95
  -1   3   5   92.88    3.09
   1   3  -5   95.17    2.69
  -1   3   5   92.99    2.73
   1  -3  -5   91.39    2.73
  -1  -3   5   95.55    3.11
  -1  -3   5   92.37    2.72
  -1   3   4    0.02    0.27
  -1   3   4    0.21    0.26
  -1   3   4    0.25    0.37
   1   3  -4    0.65    0.34
   1   3  -4    0.06    0.24
   1   3  -4    0.07    0.27
  -1  -3   4    0.89    0.30
   1  -3  -4   -0.09    0.49
   1  -3  -4    0.43    0.28
  -1  -3   4    0.27    0.31
   1   3  -3  380.80   10.05
  -1   3   3  387.23   11.40
  -1   3   3  363.73   10.73
   1   3  -3  387.80   10.74
   1   3  -3  371.55   11.47
  -1   3   3  366.07   10.07
   1  -3  -3  360.51   11.27
   1  -3  -3  381.62   10.09
  -1  -3   3  380.72   11.41
  -1  -3   3  378.19   10.07
  -1   3   2   13.75    0.82
  -1   3   2   13.58    0.64
  -1   3   2   13.89    0.68
   1   3  -2   13.35    0.69
   1   3  -2   14.48    0.79
   1   3  -2   14.18    0.61
   1  -3  -2   13.70    0.76
  -1  -3   2   14.93    0.75
   1  -3  -2   14.21    0.68
  -1  -3   2   14.30    0.70
   1   3  -1  107.30    3.27
  -1   3   1  100.69    3.22
  -1   3   1  102.70    2.89
   1   3  -1  103.57    2.86
   1   3  -1  100.92    3.12
  -1   3   1  102.03    3.14
  -1   3   1   97.73    3.28
   1   3  -1  103.17    3.21
  -1  -3   1  102.98    2.89
   1  -3  -1  100.56    3.29
   1  -3  -1  104.62    2.90
  -1   3   0   65.56    2.16
  -1   3   0   62.70    2.10
   1   3   0   65.63    1.89
   1   3   0   66.55    2.18
  -1   3   0   65.99    2.09
   1   3   0   62.82    2.06
  -1   3   0   63.51    1.91
   1   3   0   64.41    2.10
  -1  -3   0   64.14    1.91
   1  -3   0   67.40    2.21
   1  -3   0   65.67    1.92
  -1   3  -1  171.71    5.30
  -1   3  -1  177.17    4.66
   1   3   1  173.19    5.30
  -1   3  -1  175.13    5.01
   1   3   1  164.50    4.97
   1   3   1  171.41    4.63
  -1  -3  -1  169.61    4.66
   1  -3   1  146.18    5.19
   1  -3   1  180.30    4.67
   1   3   2   56.81    1.94
   1   3   2   54.93    1.66
   1   3   2   54.10    1.82
  -1   3  -2   55.17    1.93
  -1   3  -2   53.77    1.66
  -1   3  -2   57.58    1.86
  -1  -3  -2   52.31    1.93
   1  -3   2   54.91    1.83
  -1  -3  -2   55.06    1.69
   1  -3   2   54.85    1.67
   1   3   3   82.09    2.74
  -1   3  -3   80.98    2.74
  -1   3  -3   82.91    2.37
  -1   3  -3   81.61    2.57
   1   3   3   81.21    2.56
   1   3   3   81.47    2.35
  -1  -3  -3   77.87    2.71
   1  -3   3   83.84    2.39
   1  -3   3   78.60    2.63
  -1  -3  -3   82.79    2.40
   1   3   4    4.98    0.43
  -1   3  -4    5.76    0.54
  -1   3  -4    5.49    0.56
  -1   3  -4    6.30    0.53
   1   3   4    5.74    0.52
   1   3   4    5.38    0.54
   1  -3   4    5.85    0.49
   1  -3   4    5.37    0.46
  -1  -3  -4    5.34    0.47
  -1  -3  -4    6.88    0.64
  -1   3  -5   53.40    1.71
  -1   3  -5   55.91    2.10
   1   3   5   53.12    2.02
   1   3   5   54.44    1.72
  -1   3  -5   55.41    1.88
   1   3   5   53.03    1.86
  -1  -3  -5   54.03    1.77
   1  -3   5   56.51    1.97
   1  -3   5   56.57    1.78
   1   3   6    0.46    0.39
  -1   3  -6   -0.20    0.30
   1   3   6   -0.10    0.33
  -1   3  -6    0.03    0.44
  -1   3  -6    0.37    0.39
  -1  -3  -6    0.28    0.36
   1  -3   6    0.79    0.39
   1  -3   6    0.15    0.38
   1   3   7   88.22    3.13
   1   3   7   90.59    2.69
  -1   3  -7   92.09    2.86
  -1   3  -7   90.42    3.20
  -1   3  -7   87.89    2.67
   1  -3   7   89.20    3.09
  -1  -3  -7   88.69    3.58
   1  -3   7   91.99    2.72
   1   3   8    0.74    0.45
  -1   3  -8    0.61    0.39
  -1   3  -8    0.31    0.34
   1   3   8    0.73    0.39
   1  -3   8    0.30    0.44
   1  -3   8    0.87    0.43
  -1  -3  -8    1.22    0.40
   1   3   9   25.75    1.40
   1   3   9   28.84    1.18
  -1   3  -9   28.57    1.14
  -1  -3  -9   28.04    1.20
   1  -3   9   29.24    1.24
   1  -3   9   28.31    1.45
  -1   3 -10    4.58    0.55
   1   3  10    4.39    0.58
   1   3  10    4.45    0.70
   1  -3  10    7.19    0.83
   1  -3  10    5.23    0.65
  -1  -3 -10    6.36    0.64
  -1   3 -11    5.51    0.59
   1   3  11    5.52    0.79
   1  -3  11    6.56    0.87
  -1  -3 -11    5.15    0.62
   1  -3  11    6.98    0.72
   1   3  12    2.40    0.67
  -1   3 -12    1.31    0.47
   1  -3  12    0.82    0.68
  -1  -3 -12    1.52    0.52
   1  -3  12    1.75    0.60
  -1   4  12    8.76    0.98
  -1   4  11    0.48    0.48
   1   4 -11    1.44    0.45
  -1   4  11    1.01    0.56
  -1  -4  11   -0.41    0.64
   1  -4 -11    1.22    0.48
   1   4 -10   30.37    1.17
   1   4 -10   28.33    1.38
  -1   4  10   27.81    1.46
  -1   4  10   28.81    1.26
   1  -4 -10   26.96    1.22
  -1  -4  10   30.69    1.58
  -1   4   9   25.57    1.36
   1   4  -9   27.68    1.09
   1   4  -9   27.38    1.32
  -1   4   9   28.10    1.19
  -1  -4   9   28.37    1.49
   1  -4  -9   24.93    1.15
   1   4  -8   45.29    1.52
  -1   4   8   41.44    1.82
  -1   4   8   44.91    1.59
   1   4  -8   44.06    1.74
  -1  -4   8   45.86    1.89
  -1  -4   8   44.51    1.65
   1  -4  -8   43.54    1.58
   1   4  -7    2.40    0.40
   1   4  -7    2.27    0.55
  -1   4   7    2.20    0.50
  -1   4   7    2.36    0.45
  -1   4   7    3.10    0.60
   1  -4  -7    2.12    0.47
  -1  -4   7    2.72    0.56
  -1  -4   7    2.15    0.48
  -1   4   6    5.24    0.59
  -1   4   6    6.10    0.54
  -1   4   6    5.58    0.68
   1   4  -6    5.67    0.62
   1   4  -6    5.64    0.49
  -1  -4   6    6.74    0.58
  -1  -4   6    5.06    0.62
   1  -4  -6    5.81    0.55
  -1   4   5   10.26    0.79
   1   4  -5   10.41    0.65
   1   4  -5    9.99    0.82
  -1   4   5   10.57    0.73
  -1   4   5   10.52    0.86
   1  -4  -5   10.39    0.74
  -1  -4   5   10.05    0.86
  -1  -4   5    9.70    0.83
  -1   4   4   48.39    1.88
   1   4  -4   47.27    1.79
  -1   4   4   46.06    1.59
   1   4  -4   49.76    1.56
   1  -4  -4   47.46    1.62
  -1  -4   4   50.13    1.65
  -1  -4   4   47.88    1.85
  -1   4   3    9.53    0.74
   1   4  -3   11.73    0.89
   1   4  -3   10.97    0.63
  -1   4   3   10.45    0.67
  -1   4   3   10.46    0.83
  -1  -4   3   11.31    0.80
  -1  -4   3    9.65    0.81
   1  -4  -3    9.88    0.74
   1   4  -2  100.63    2.88
   1   4  -2   99.98    3.20
  -1   4   2   98.62    2.92
  -1   4   2   96.94    3.26
  -1   4   2  102.25    3.24
  -1  -4   2  100.66    2.95
   1  -4  -2  105.25    2.96
   1   4  -1   15.63    0.74
   1   4  -1   15.77    0.96
  -1   4   1   14.82    1.00
  -1   4   1   16.28    0.78
  -1   4   1   14.74    0.76
   1   4  -1   14.98    0.81
  -1  -4   1   16.06    0.87
   1  -4  -1   15.17    0.85
  -1   4   0   71.09    2.46
   1   4   0   76.45    2.46
  -1   4   0   69.68    2.47
   1   4   0   74.90    2.50
   1   4   0   73.12    2.17
  -1   4   0   73.63    2.21
   1  -4   0   71.49    2.22
  -1  -4   0   75.63    2.24
  -1   4  -1   53.41    1.89
  -1   4  -1   50.23    1.87
  -1   4  -1   51.45    1.64
   1   4   1   51.01    1.89
   1   4   1   50.56    1.61
   1   4   1   52.12    1.87
   1  -4   1   50.54    1.67
  -1  -4  -1   51.56    1.69
  -1   4  -2  112.96    3.24
   1   4   2  115.55    3.23
   1   4   2  111.70    3.71
  -1   4  -2  111.24    3.53
   1   4   2  114.58    3.53
  -1   4  -2  111.42    3.69
  -1  -4  -2  112.22    3.28
   1  -4   2  113.22    3.25
  -1   4  -3   45.98    1.83
   1   4   3   48.90    1.57
  -1   4  -3   47.36    1.58
   1   4   3   48.07    1.85
   1   4   3   50.75    1.80
  -1   4  -3   46.25    1.78
  -1  -4  -3   49.15    1.65
   1  -4   3   48.59    1.62
   1   4   4   31.02    1.36
   1   4   4   30.66    1.15
  -1   4  -4   32.55    1.48
   1   4   4   30.73    1.40
  -1   4  -4   32.01    1.39
   1  -4   4   31.54    1.23
  -1  -4  -4   29.39    1.24
   1   4   5    6.56    0.65
   1   4   5    6.38    0.71
  -1   4  -5    6.17    0.67
  -1   4  -5    5.24    0.65
  -1   4  -5    6.09    0.54
   1   4   5    6.86    0.55
   1  -4   5    6.17    0.57
  -1  -4  -5    7.14    0.61
   1   4   6   26.08    1.06
  -1   4  -6   29.27    1.42
  -1   4  -6   25.60    1.06
   1   4   6   25.46    1.28
  -1   4  -6   27.11    1.23
  -1  -4  -6   26.50    1.13
   1  -4   6   25.35    1.13
  -1   4  -7   14.28    0.79
  -1   4  -7   14.93    0.96
   1   4   7   13.94    0.97
   1   4   7   14.90    0.81
  -1   4  -7   15.54    1.12
   1  -4   7   15.12    0.93
  -1  -4  -7   14.02    0.88
   1   4   8   12.17    0.98
  -1   4  -8   14.46    0.96
   1   4   8   14.09    0.81
  -1   4  -8   13.84    0.80
   1  -4   8   12.94    0.90
  -1  -4  -8   12.57    0.86
   1   4   9   17.23    0.87
   1   4   9   14.91    1.07
  -1   4  -9   14.47    0.85
  -1  -4  -9   14.61    0.92
   1  -4   9   14.55    0.99
  -1   4 -10    0.46    0.42
   1   4  10    0.65    0.46
   1   4  10    0.82    0.55
   1  -4  10   -0.14    0.49
  -1  -4 -10   -0.04    0.44
   1   4  11    8.45    0.97
   1   4  11    9.73    0.84
  -1   4 -11   10.05    0.79
  -1  -4 -11   10.61    0.86
   1  -4  11   10.11    0.87
  -1   5  10   13.90    0.93
   1   5 -10   10.35    1.01
   1   5 -10   12.64    0.80
   1  -5 -10   11.38    0.88
   1   5  -9    4.02    0.53
   1   5  -9    3.67    0.71
  -1   5   9    4.55    0.60
   1  -5  -9    3.09    0.56
   1   5  -8    6.04    0.76
   1   5  -8    5.86    0.56
  -1   5   8    6.33    0.65
   1  -5  -8    5.54    0.62
   1   5  -7    0.35    0.38
  -1   5   7    0.86    0.43
   1   5  -7    0.31    0.51
  -1   5   7    0.82    0.61
   1  -5  -7    0.79    0.44
   1   5  -6   10.60    0.90
  -1   5   6   11.36    0.77
  -1   5   6   12.77    1.09
   1   5  -6   10.91    0.69
   1  -5  -6    8.94    0.78
  -1   5   5    0.28    0.39
  -1   5   5    0.69    0.58
   1   5  -5   -0.07    0.47
   1   5  -5    0.09    0.34
   1  -5  -5   -0.41    0.40
   1   5  -4   34.33    1.52
  -1   5   4   36.03    1.63
  -1   5   4   35.98    1.35
   1   5  -4   35.83    1.28
   1  -5  -4   35.61    1.38
  -1  -5   4   38.72    1.43
  -1   5   3    0.24    0.34
   1   5  -3   -0.23    0.31
  -1   5   3    0.17    0.51
   1   5  -3    0.76    0.47
  -1  -5   3   -0.48    0.36
   1  -5  -3    0.40    0.41
  -1   5   2   31.70    1.22
   1   5  -2   31.07    1.42
   1   5  -2   35.44    1.20
  -1   5   2   31.62    1.52
  -1  -5   2   32.73    1.28
   1  -5  -2   31.55    1.28
   1   5  -1    3.77    0.43
  -1   5   1    3.44    0.62
   1   5  -1    4.00    0.59
  -1   5   1    1.96    0.36
  -1  -5   1    4.11    0.52
   1  -5  -1    3.62    0.50
  -1   5   0    8.62    0.66
   1   5   0    9.08    0.72
   1   5   0    8.28    0.78
  -1   5   0    8.18    0.80
   1   5   0    8.39    0.62
  -1  -5   0    8.80    0.76
   1  -5   0    6.65    0.60
  -1   5  -1    6.68    0.56
   1   5   1    5.14    0.50
   1   5   1    6.58    0.70
  -1   5  -1    5.50    0.69
   1   5   1    6.11    0.62
  -1  -5  -1    6.22    0.58
   1  -5   1    6.17    0.58
   1   5   2   86.63    2.84
   1   5   2   79.87    2.53
   1   5   2   82.25    2.93
  -1   5  -2   89.02    2.58
  -1   5  -2   84.37    2.86
   1  -5   2   85.95    2.59
  -1  -5  -2   83.17    2.61
  -1   5  -3    1.17    0.53
   1   5   3    2.16    0.56
  -1   5  -3    1.94    0.42
   1   5   3    2.72    0.43
   1   5   3    2.46    0.50
  -1  -5  -3    2.35    0.47
   1  -5   3    1.80    0.45
   1   5   4   43.65    1.74
  -1   5  -4   42.10    1.73
   1   5   4   42.46    1.49
   1   5   4   42.27    1.79
  -1   5  -4   42.16    1.50
   1  -5   4   43.63    1.59
  -1  -5  -4   42.75    1.60
   1   5   5    7.67    0.79
   1   5   5    7.23    0.65
  -1   5  -5    6.92    0.61
  -1   5  -5    7.68    0.79
   1   5   5    7.38    0.74
   1  -5   5    6.59    0.64
  -1  -5  -5    6.44    0.64
  -1   5  -6   12.83    0.99
   1   5   6   13.03    1.03
  -1   5  -6   14.44    0.82
   1   5   6   14.77    0.83
  -1  -5  -6   13.99    0.94
   1  -5   6   15.72    0.97
  -1   5  -7    2.80    0.60
   1   5   7    3.21    0.66
   1   5   7    2.10    0.47
  -1   5  -7    2.57    0.50
   1  -5   7    1.97    0.51
  -1  -5  -7    2.35    0.55
  -1   5  -8   42.86    1.76
  -1   5  -8   42.40    1.56
   1   5   8   42.77    1.55
   1   5   8   41.95    1.90
   1  -5   8   42.78    1.62
  -1  -5  -8   40.29    1.66
   1   5   9    0.09    0.45
  -1  -5  -9   -0.15    0.46
   1  -5   9    0.55    0.53
   1   5  10   10.85    1.07
  -1  -5 -10   10.70    0.92
   1   6  -8   27.01    1.47
   1   6  -7    2.60    0.67
   1   6  -7    2.57    0.49
  -1   6   7    1.81    0.54
   1  -6  -7    2.42    0.59
  -1   6   6   32.13    1.35
  -1   6   6   35.30    1.68
   1   6  -6   33.96    1.26
   1   6  -6   30.64    1.54
   1  -6  -6   29.55    1.36
  -1   6   5    5.23    0.61
  -1   6   5    6.08    0.85
   1   6  -5    4.88    0.74
   1   6  -5    5.57    0.56
   1  -6  -5    4.55    0.63
   1   6  -4   34.59    1.26
  -1   6   4   33.10    1.32
  -1   6   4   33.23    1.63
   1   6  -4   29.74    1.49
   1  -6  -4   31.09    1.36
   1   6  -3   27.51    1.45
  -1   6   3   30.94    1.25
  -1   6   3   32.40    1.57
   1   6  -3   31.36    1.18
   1  -6  -3   28.27    1.31
  -1   6   2   24.79    1.41
   1   6  -2   26.28    1.09
  -1   6   2   27.94    1.16
   1   6  -2   27.98    1.38
   1  -6  -2   24.99    1.22
   1   6  -1    9.44    0.69
  -1   6   1    9.63    0.94
   1   6  -1   10.68    1.00
  -1   6   1    9.76    0.74
   1  -6  -1    9.22    0.76
  -1   6   0   43.30    1.55
  -1   6   0   39.86    1.79
   1   6   0   42.99    1.50
   1   6   0   42.60    1.78
   1  -6   0   43.79    1.62
   1   6   1    9.42    0.91
  -1   6  -1    8.75    0.91
   1   6   1    8.88    0.69
  -1   6  -1   10.89    0.75
   1  -6   1    9.87    0.82
  -1   6  -2   12.85    1.07
  -1   6  -2   14.15    0.85
   1   6   2   15.64    0.83
   1   6   2   15.47    1.14
   1  -6   2   15.25    0.96
   1   6   3    5.10    0.76
  -1   6  -3    4.95    0.57
   1   6   3    4.94    0.54
  -1   6  -3    4.88    0.75
   1  -6   3    3.70    0.58
   1   6   4   18.56    1.21
  -1   6  -4   16.85    1.17
   1   6   4   19.19    0.93
  -1   6  -4   18.36    0.95
   1  -6   4   18.37    1.01
  -1   6  -5    1.54    0.61
   1   6   5    0.38    0.42
  -1   6  -5    0.73    0.43
  -1  -6  -5    2.08    0.55
   1  -6   5    0.62    0.50
   1   6   6   20.88    1.01
  -1   6  -6   18.59    1.01
  -1   6  -6   17.23    1.18
   1  -6   6   20.70    1.09
  -1  -6  -6   20.79    1.15
   1   6   7    4.86    0.62
  -1   6  -7    4.59    0.62
  -1   6  -7    6.27    0.82
   1  -6   7    5.77    0.74
  -1  -6  -7    5.86    0.73
  -1   6  -8    7.56    0.89
  -1  -6  -8    7.00    0.77
   1   7  -4    1.82    0.69
  -1   7   4    2.06    0.76
  -1   7   3   14.53    1.26
   1   7  -3   15.10    1.13
   1  -7  -3   15.88    1.06
   1   7  -2    3.44    0.53
  -1   7   2    3.51    0.60
  -1   7   2    4.92    0.86
   1   7  -2    1.73    0.69
   1  -7  -2    3.18    0.63
   1   7  -1   40.59    1.45
  -1   7   1   36.38    1.81
   1   7  -1   35.29    1.75
  -1   7   1   38.16    1.50
   1  -7  -1   37.64    1.61
   1   7   0    5.13    0.56
  -1   7   0    5.16    0.64
   1   7   0    3.46    0.78
  -1   7   0    5.64    0.85
   1  -7   0    3.79    0.67
   1   7   1    7.46    0.90
   1   7   1    7.41    0.65
  -1   7  -1    6.08    0.86
  -1   7  -1    6.02    0.67
   1  -7   1    4.21    0.67
   1   7   2    1.55    0.72
   1   7   2    1.35    0.48
  -1   7  -2    1.97    0.72
  -1   7  -2    2.65    0.48
   1  -7   2    1.42    0.57
   1   7   3   16.38    1.25
  -1   7  -3   13.94    1.15
   1  -7   3   13.10    1.00
   1   7   4    3.66    0.79
  -1   7  -4    3.04    0.75
   2   0 -14   16.56    0.90
  -2   0  14   17.32    1.35
  -2   0  13    0.18    0.60
   2   0 -13    0.51    0.37
  -2   0  12   83.04    3.14
   2   0 -12   83.37    2.52
   2   0 -11   -0.34    0.31
  -2   0  11   -0.02    0.47
  -2   0  10   71.45    2.31
  -2   0  10   75.05    2.77
   2   0 -10   77.61    2.26
  -2   0   9   -0.22    0.44
   2   0  -9   -0.14    0.29
  -2   0   9    0.60    0.35
   2   0  -9   -0.08    0.39
   2   0  -8  200.83    5.45
   2   0  -8  190.68    5.88
  -2   0   8  203.04    6.34
  -2   0   8  206.82    5.51
   2   0  -8  196.09    6.21
   2   0  -7    0.33    0.23
  -2   0   7    0.32    0.33
  -2   0   7    0.06    0.24
   2   0  -7    0.23    0.35
  -2   0   7    0.19    0.30
   2   0  -7   -0.22    0.29
  -2   0   6  253.97    6.91
   2   0  -6  259.25    7.76
  -2   0   6  262.19    7.73
   2   0  -6  259.75    6.88
   2   0  -6  254.37    7.39
  -2   0   6  249.59    7.90
   2   0  -5   -0.03    0.24
  -2   0   5    0.00    0.21
  -2   0   5    0.05    0.16
   2   0  -5   -0.04    0.24
  -2   0   5   -0.06    0.21
   2   0  -5   -0.07    0.15
  -2   0   4   77.51    2.10
   2   0  -4   77.52    2.42
  -2   0   4   74.58    2.44
   2   0  -4   72.01    2.06
   2   0  -4   74.41    2.30
  -2   0   4   75.88    2.40
   2   0  -3   -0.03    0.09
   2   0  -3    0.10    0.21
   2   0  -3   -0.21    0.20
  -2   0   3    0.09    0.18
  -2   0   3   -0.01    0.35
  -2   0   2  574.96   16.51
  -2   0   2  536.56   16.85
   2   0  -2  579.27   16.52
  -2   0   1    0.00    0.12
   2   0  -1    0.11    0.13
  -2   0   0   67.05    2.03
  -2   0  -1    0.05    0.15
   2   0   2  253.64    6.95
  -2   0  -2  271.20    8.02
   2   0   3   -0.01    0.18
  -2   0  -3    0.04    0.14
  -2   0  -3   -0.08    0.20
  -2   0  -3   -0.07    0.10
  -2   0  -4  354.11    9.34
   2   0   4  357.70   10.13
  -2   0  -4  334.20   10.69
   2   0   4  347.51   10.62
   2   0   4  359.33   10.27
  -2   0  -4  347.04   10.28
  -2   0  -5   -0.30    0.16
  -2   0  -5   -0.01    0.20
  -2   0  -5    0.41    0.26
   2   0   5   -0.02    0.26
   2   0   5   -0.16    0.24
   2   0   5   -0.24    0.17
   2   0   6  100.26    3.13
   2   0   6  102.24    3.35
  -2   0  -6  103.13    2.89
  -2   0  -6   95.89    3.11
   2   0   6  104.42    3.11
   2   0   7   -0.21    0.36
   2   0   7   -0.37    0.34
  -2   0  -7   -0.02    0.29
  -2   0  -8    1.78    0.39
   2   0   8    2.44    0.56
   2   0   8    2.16    0.46
  -2   0  -9    0.30    0.35
   2   0   9    0.52    0.48
   2   0  10   24.49    1.33
  -2   0 -10   24.00    1.07
  -2   0 -11    0.36    0.39
   2   0  11   -0.22    0.52
   2   0  12   11.65    1.07
  -2   0 -12   11.48    0.83
   2   0  13    0.26    0.64
  -2   0 -13    0.08    0.66
  -2   1  14    9.06    1.06
  -2  -1  14    8.47    1.08
  -2   1  13   11.63    1.13
   2   1 -13   14.38    0.78
  -2  -1  13   13.72    1.17
   2  -1 -13   12.49    0.79
  -2   1  12   31.38    1.62
  -2   1  12   32.17    1.32
   2   1 -12   30.45    1.17
  -2  -1  12   33.23    1.68
   2  -1 -12   32.64    2.20
   2   1 -11   12.97    0.71
  -2   1  11   14.34    0.86
  -2   1  11   13.21    1.06
  -2  -1  11   14.11    1.11
   2  -1 -11   12.56    0.74
  -2   1  10   11.55    0.99
   2   1 -10   10.39    0.65
  -2   1  10   13.43    0.77
   2   1 -10   10.70    0.88
   2  -1 -10   10.90    0.66
  -2  -1  10   12.39    1.01
   2   1  -9   15.35    0.73
  -2   1   9   12.84    1.02
   2   1  -9   13.15    0.91
  -2   1   9   13.12    0.95
  -2   1   9   14.62    0.81
  -2  -1   9   15.08    1.09
   2  -1  -9   15.90    0.88
   2  -1  -9   14.17    0.75
  -2   1   8   28.83    1.35
   2   1  -8   29.76    1.21
  -2   1   8   25.23    1.25
  -2   1   8   28.70    1.10
   2   1  -8   29.58    1.03
   2  -1  -8   28.87    1.19
   2  -1  -8   28.42    1.05
  -2  -1   8   30.00    1.38
   2   1  -7   66.93    1.91
  -2   1   7   66.77    1.98
   2   1  -7   64.84    2.12
  -2   1   7   61.59    2.15
  -2   1   7   61.54    2.30
  -2  -1   7   65.48    2.33
  -2  -1   7   66.33    2.23
   2  -1  -7   64.18    2.38
   2  -1  -7   67.99    2.13
  -2   1   6   36.27    1.22
  -2   1   6   36.78    1.37
  -2   1   6   36.69    1.46
   2   1  -6   39.10    1.34
   2   1  -6   37.98    1.17
  -2   1   6   37.64    1.42
   2  -1  -6   37.48    1.42
   2  -1  -6   39.86    1.34
  -2  -1   6   38.78    1.48
   2  -1  -6   37.96    1.20
  -2  -1   6   37.94    1.85
  -2   1   5  104.93    3.34
  -2   1   5  101.70    2.94
   2   1  -5  109.67    3.17
  -2   1   5  104.32    3.39
  -2   1   5  104.96    3.18
   2   1  -5  106.88    2.90
   2  -1  -5  107.61    3.17
  -2  -1   5  107.72    3.34
   2  -1  -5  105.66    3.34
  -2  -1   5  108.82    2.94
  -2  -1   5  104.82    3.40
   2  -1  -5  102.45    2.92
  -2   1   4   37.48    1.25
   2   1  -4   38.07    1.21
  -2   1   4   35.88    1.28
  -2   1   4   35.89    1.29
   2   1  -4   35.36    1.05
  -2   1   4   36.41    1.10
  -2  -1   4   37.55    1.09
   2  -1  -4   35.90    1.28
  -2  -1   4   32.94    1.28
   2  -1  -4   35.46    1.08
  -2  -1   4   33.97    1.64
   2   1  -3  143.65    3.81
  -2   1   3  145.81    4.36
  -2   1   3  147.22    4.15
  -2   1   3  140.85    4.38
  -2   1   3  141.18    3.86
   2   1  -3  145.61    4.13
   2  -1  -3  143.82    3.84
  -2  -1   3  135.73    4.41
   2  -1  -3  142.91    4.35
  -2   1   2   39.05    1.29
   2   1  -2   35.78    1.20
  -2   1   2   38.41    1.25
  -2  -1   2   39.36    1.33
   2  -1  -2   38.79    1.29
   2  -1  -2   36.28    1.08
  -2   1   1  831.83   23.87
   2   1  -1  829.53   23.85
  -2   1   1  866.68   25.45
   2   1  -1  864.82   25.81
   2  -1  -1  875.99   24.96
   2  -1  -1  855.12   22.53
  -2   1   0  474.26   13.78
   2   1   0  461.11   14.11
   2  -1   0  475.61   12.39
  -2   1  -1  166.09    5.14
   2  -1   1  169.83    4.92
   2  -1   1  162.86    4.43
  -2   1  -2   75.33    2.40
  -2   1  -2   76.07    2.04
   2   1   2   77.15    2.38
   2  -1   2   74.41    2.30
   2  -1   2   71.13    2.02
  -2  -1  -2   67.92    2.30
  -2   1  -3   21.86    0.74
  -2   1  -3   21.88    0.95
   2   1   3   23.71    0.92
   2  -1   3   22.26    0.85
   2  -1   3   21.13    0.73
  -2  -1  -3   21.68    0.82
  -2  -1  -3   22.66    0.76
   2   1   4  416.65   12.07
  -2   1  -4  395.98   12.16
   2   1   4  386.64   11.48
  -2   1  -4  385.80   11.15
  -2   1  -4  402.61   10.58
  -2  -1  -4  389.95   12.13
   2  -1   4  397.65   11.66
   2  -1   4  396.16   12.00
  -2  -1  -4  403.40   10.59
  -2   1  -5  114.98    3.30
  -2   1  -5  114.99    3.18
   2   1   5  111.20    3.50
  -2   1  -5  111.90    3.72
  -2  -1  -5  112.92    3.51
   2  -1   5  113.19    3.41
  -2  -1  -5  114.89    3.20
   2  -1   5  115.41    3.65
  -2   1  -6   63.74    2.39
   2   1   6   62.83    2.22
   2   1   6   66.90    2.18
   2   1   6   69.94    2.39
  -2   1  -6   68.97    2.01
  -2   1  -6   64.29    2.02
  -2  -1  -6   69.15    2.03
   2  -1   6   64.88    2.31
  -2  -1  -6   68.69    2.18
   2   1   7    0.57    0.43
  -2   1  -7    0.25    0.30
   2   1   7    0.81    0.38
  -2   1  -7    0.61    0.43
   2  -1   7    0.02    0.40
  -2  -1  -7    0.13    0.30
  -2  -1  -7    0.15    0.31
  -2   1  -8   75.46    2.31
   2   1   8   75.40    2.55
   2   1   8   75.57    2.74
   2  -1   8   74.00    2.71
  -2  -1  -8   76.07    2.33
   2   1   9   32.27    1.50
  -2   1  -9   29.41    1.40
  -2  -1  -9   32.37    1.24
   2  -1   9   29.44    1.46
  -2   1 -10   39.16    1.82
   2   1  10   39.60    1.80
   2  -1  10   41.00    1.80
  -2  -1 -10   38.54    1.47
  -2   1 -11    6.28    0.62
   2   1  11    5.80    0.84
  -2  -1 -11    5.73    0.61
   2  -1  11    5.98    0.83
  -2   1 -12    5.25    0.62
   2   1  12    7.01    0.93
  -2  -1 -12    5.35    0.64
   2  -1  12    5.74    0.85
  -2   1 -13    2.60    0.52
   2  -1  13    3.79    0.81
  -2  -1 -13    2.49    0.56
   2   2 -13    9.88    0.70
  -2   2  13    9.67    0.84
  -2   2  13   10.01    1.04
   2  -2 -13    8.90    0.73
  -2  -2  13   10.73    1.12
   2   2 -12    0.25    0.35
  -2   2  12   -0.23    0.50
  -2   2  12   -0.08    0.40
  -2  -2  12   -1.17    0.56
   2  -2 -12   -0.29    0.36
  -2   2  11    5.49    0.58
  -2   2  11    5.61    0.76
   2   2 -11    5.34    0.48
   2  -2 -11    4.59    0.52
  -2  -2  11    4.23    0.77
  -2   2  10   32.02    1.27
   2   2 -10   30.13    1.36
  -2   2  10   31.65    1.53
   2   2 -10   34.13    1.16
   2  -2 -10   30.41    1.19
  -2  -2  10   35.64    1.62
  -2   2   9    0.90    0.43
  -2   2   9    0.80    0.44
   2   2  -9    0.56    0.30
   2   2  -9    0.49    0.39
  -2   2   9    0.98    0.37
   2  -2  -9    0.55    0.33
  -2  -2   9    0.25    0.49
  -2   2   8    1.65    0.47
   2   2  -8    1.00    0.42
  -2   2   8    1.54    0.50
   2   2  -8    2.22    0.35
  -2   2   8    1.52    0.38
  -2  -2   8    0.14    0.35
   2  -2  -8    1.44    0.36
   2   2  -7  183.83    5.44
  -2   2   7  182.03    5.45
  -2   2   7  178.55    5.84
  -2   2   7  185.79    5.12
   2   2  -7  190.18    5.04
  -2  -2   7  187.17    5.86
   2  -2  -7  182.73    5.08
  -2   2   6   12.68    0.64
  -2   2   6   10.77    0.76
   2   2  -6   10.74    0.56
  -2   2   6   12.18    0.81
   2   2  -6   11.11    0.68
   2  -2  -6   11.46    0.63
  -2  -2   6   10.97    0.82
   2  -2  -6   10.49    0.70
  -2   2   5   99.13    2.93
  -2   2   5  104.97    3.34
   2   2  -5  104.30    3.14
   2   2  -5  108.49    2.87
  -2   2   5  103.43    3.16
   2  -2  -5  104.87    2.91
  -2  -2   5  104.70    3.37
   2  -2  -5   96.48    3.31
   2   2  -4   72.60    2.29
   2   2  -4   76.56    2.07
  -2   2   4   74.11    2.41
  -2   2   4   74.42    2.13
  -2   2   4   74.01    2.33
  -2   2   4   75.30    2.46
  -2  -2   4   73.74    2.46
   2  -2  -4   68.24    2.43
   2  -2  -4   74.23    2.12
   2   2  -3  104.92    2.82
  -2   2   3  107.41    3.25
  -2   2   3   94.71    2.87
   2   2  -3  104.50    3.09
  -2   2   3  103.75    3.11
  -2   2   3  104.81    3.28
  -2  -2   3  104.56    3.30
   2  -2  -3  105.78    2.87
   2  -2  -3  100.23    3.27
  -2   2   2   49.47    1.58
   2   2  -2   47.93    1.56
  -2   2   2   48.44    1.67
   2   2  -2   50.42    1.67
   2   2  -2   50.75    1.38
  -2   2   2   48.40    1.44
  -2   2   2   49.18    1.61
   2  -2  -2   48.07    1.43
   2  -2  -2   47.32    1.66
  -2   2   1  222.90    6.48
   2   2  -1  235.15    6.00
  -2   2   1  216.74    6.05
   2   2  -1  225.24    6.45
  -2   2   1  222.24    6.77
   2   2  -1  233.89    6.91
   2  -2  -1  222.84    6.78
   2  -2  -1  226.77    6.05
  -2   2   0    0.45    0.16
  -2   2   0    0.61    0.26
  -2   2   0    0.56    0.24
   2   2   0    0.57    0.14
   2   2   0    0.56    0.22
   2   2   0    0.76    0.23
   2  -2   0    0.65    0.17
   2  -2   0    0.73    0.24
   2   2   1   91.15    2.93
  -2   2  -1   95.46    2.96
   2   2   1   90.88    2.71
   2   2   1   90.77    2.49
  -2   2  -1   93.52    2.75
  -2   2  -1   87.87    2.53
  -2  -2  -1   87.29    2.52
   2  -2   1   92.67    2.53
  -2   2  -2   35.34    1.32
   2   2   2   35.52    1.05
  -2   2  -2   35.49    1.10
  -2   2  -2   36.66    1.23
   2   2   2   32.81    1.16
   2   2   2   33.49    1.30
   2  -2   2   35.58    1.08
  -2  -2  -2   34.72    1.09
   2   2   3  151.41    4.66
   2   2   3  143.95    4.27
  -2   2  -3  145.57    4.70
  -2   2  -3  152.99    4.32
  -2   2  -3  146.56    4.05
   2   2   3  152.85    4.02
  -2  -2  -3  147.25    4.55
  -2  -2  -3  146.95    4.06
   2  -2   3  148.87    4.05
   2  -2   3  143.22    4.55
  -2   2  -4    1.02    0.33
  -2   2  -4    0.79    0.23
  -2   2  -4    0.43    0.26
   2   2   4    0.93    0.23
   2   2   4    0.66    0.23
   2   2   4    0.03    0.26
  -2  -2  -4    0.62    0.30
  -2  -2  -4    0.75    0.24
   2  -2   4    0.57    0.26
   2  -2   4    0.75    0.26
   2   2   5   60.35    2.13
   2   2   5   61.30    1.79
  -2   2  -5   59.79    1.89
  -2   2  -5   60.31    1.80
   2   2   5   58.34    1.84
  -2   2  -5   58.93    2.19
   2  -2   5   57.75    1.81
  -2  -2  -5   59.58    2.04
   2  -2   5   59.74    2.07
  -2  -2  -5   58.75    1.83
   2   2   6    4.36    0.56
  -2   2  -6    4.64    0.43
   2   2   6    4.17    0.40
  -2   2  -6    3.41    0.40
  -2   2  -6    3.11    0.54
   2   2   6    4.10    0.49
  -2  -2  -6    4.87    0.51
  -2  -2  -6    4.15    0.46
   2  -2   6    3.99    0.51
   2  -2   6    4.83    0.47
  -2   2  -7   73.21    2.24
   2   2   7   72.01    2.65
  -2   2  -7   76.27    2.75
   2   2   7   71.28    2.53
   2   2   7   75.27    2.22
   2  -2   7   74.51    2.26
  -2  -2  -7   76.15    2.52
  -2  -2  -7   74.85    2.29
   2  -2   7   70.48    2.58
   2   2   8   21.75    1.20
  -2   2  -8   20.50    1.25
  -2   2  -8   21.39    0.94
  -2  -2  -8   19.27    0.98
   2  -2   8   21.78    1.19
  -2   2  -9   89.06    2.80
   2   2   9   91.64    3.33
  -2  -2  -9   95.17    2.85
   2  -2   9   97.78    3.30
   2   2  10    0.19    0.49
  -2   2 -10    0.41    0.38
  -2  -2 -10    0.30    0.41
   2  -2  10   -0.16    0.53
   2   2  11   75.35    2.96
  -2   2 -11   74.49    2.45
  -2  -2 -11   79.05    2.50
   2  -2  11   78.78    2.94
   2   2  12    2.04    0.69
  -2   2 -12    2.44    0.50
  -2  -2 -12    3.07    0.57
   2  -2  12    1.60    0.68
   2  -2  12    1.63    0.56
  -2   2 -13    5.28    0.65
   2   2  13    5.04    0.86
   2  -2  13    6.27    0.96
  -2   3  13   14.62    1.10
  -2   3  13   19.27    1.08
  -2  -3  13   21.17    1.48
   2   3 -12    9.14    0.69
  -2   3  12   11.87    0.78
  -2   3  12    9.52    0.93
   2  -3 -12   10.86    0.69
  -2  -3  12    7.69    1.00
  -2   3  11   21.73    1.07
   2   3 -11   20.99    0.93
  -2  -3  11   21.84    1.38
   2  -3 -11   20.81    0.99
  -2   3  10    3.06    0.52
   2   3 -10    4.71    0.63
   2   3 -10    3.76    0.46
  -2   3  10    2.46    0.43
  -2  -3  10    3.75    0.70
   2  -3 -10    3.89    0.49
   2   3  -9   87.85    2.99
   2   3  -9   96.14    2.70
  -2   3   9   92.70    2.81
   2  -3  -9   90.10    2.75
  -2   3   8    0.87    0.47
  -2   3   8    1.03    0.37
   2   3  -8    0.91    0.43
  -2   3   8    0.46    0.41
   2   3  -8    0.95    0.31
   2  -3  -8    1.02    0.36
  -2  -3   8    0.34    0.47
  -2   3   7   58.00    2.11
  -2   3   7   56.68    1.88
   2   3  -7   59.53    2.05
  -2  -3   7   58.23    2.20
   2  -3  -7   59.51    1.87
   2   3  -6   11.43    0.80
  -2   3   6   11.29    0.83
   2   3  -6   11.69    0.62
  -2   3   6   13.36    0.97
  -2   3   6   12.20    0.73
  -2  -3   6   12.26    0.93
   2  -3  -6   11.23    0.72
   2   3  -5   96.57    2.70
  -2   3   5   94.25    3.13
  -2   3   5   99.02    3.07
  -2   3   5   90.29    2.77
   2   3  -5   97.24    3.01
   2  -3  -5   96.45    2.84
  -2  -3   5   94.38    3.19
  -2   3   4   29.90    1.31
   2   3  -4   28.12    1.16
  -2   3   4   29.72    1.05
   2   3  -4   28.76    0.96
  -2   3   4   29.14    1.15
  -2  -3   4   28.43    1.25
   2  -3  -4   26.39    1.22
   2  -3  -4   28.33    1.06
   2   3  -3  292.72    7.55
  -2   3   3  286.90    8.57
   2   3  -3  284.66    8.12
  -2   3   3  259.38    7.61
  -2   3   3  286.15    8.15
   2  -3  -3  270.07    9.59
   2  -3  -3  284.94    7.60
  -2  -3   3  282.16    7.59
  -2  -3   3  286.54    8.65
   2   3  -2   15.34    0.74
  -2   3   2   15.24    0.89
  -2   3   2   14.30    0.66
   2   3  -2   13.95    0.80
  -2   3   2   14.57    0.66
   2   3  -2   13.47    0.59
   2  -3  -2   14.46    0.69
   2  -3  -2   14.54    0.78
  -2  -3   2   13.24    0.68
   2   3  -1   60.78    1.72
  -2   3   1   60.67    2.02
  -2   3   1   57.70    2.08
  -2   3   1   58.28    1.78
   2   3  -1   63.41    1.97
   2   3  -1   62.26    2.15
  -2   3   1   58.72    1.91
  -2  -3   1   57.50    1.78
   2  -3  -1   59.72    1.79
   2  -3  -1   58.10    2.06
   2   3   0   28.83    1.10
  -2   3   0   27.39    1.15
  -2   3   0   28.16    0.98
   2   3   0   28.99    0.92
  -2   3   0   28.46    0.96
   2   3   0   28.00    1.14
  -2   3   0   26.82    1.15
   2  -3   0   28.22    1.14
   2  -3   0   28.66    0.99
  -2  -3   0   26.22    0.98
   2   3   1   74.85    2.11
   2   3   1   75.71    2.51
   2   3   1   72.98    2.33
  -2   3  -1   74.21    2.37
  -2   3  -1   76.00    2.51
  -2   3  -1   76.23    2.17
   2  -3   1   75.11    2.45
   2  -3   1   73.35    2.33
  -2  -3  -1   68.38    2.15
   2  -3   1   73.65    2.16
   2   3   2   -0.26    0.28
  -2   3  -2   -0.15    0.32
   2   3   2   -0.17    0.26
  -2   3  -2    0.05    0.21
  -2   3  -2    0.00    0.31
   2   3   2    0.24    0.22
   2  -3   2    0.30    0.19
   2  -3   2   -0.21    0.24
  -2  -3  -2    0.28    0.25
   2   3   3   29.12    1.24
   2   3   3   29.00    0.99
  -2   3  -3   28.95    1.17
  -2   3  -3   29.11    1.04
   2   3   3   28.22    1.13
  -2   3  -3   28.18    1.30
  -2  -3  -3   28.64    1.07
   2  -3   3   30.06    1.07
   2  -3   3   28.52    1.09
  -2  -3  -3   26.99    1.21
  -2   3  -4   72.41    2.28
   2   3   4   69.08    2.05
   2   3   4   72.65    2.48
  -2   3  -4   68.07    2.08
  -2   3  -4   70.86    2.50
   2   3   4   67.69    2.22
   2  -3   4   65.32    2.31
  -2  -3  -4   71.37    2.14
   2  -3   4   70.54    2.11
  -2  -3  -4   67.76    2.41
   2   3   5   39.40    1.30
  -2   3  -5   39.25    1.70
   2   3   5   37.95    1.59
  -2   3  -5   38.43    1.45
  -2   3  -5   38.46    1.32
  -2  -3  -5   38.82    1.38
   2  -3   5   37.84    1.48
   2  -3   5   37.93    1.37
  -2   3  -6    2.69    0.42
  -2   3  -6    2.53    0.48
   2   3   6    2.91    0.41
  -2   3  -6    3.39    0.62
   2   3   6    1.99    0.51
  -2  -3  -6    2.34    0.45
   2  -3   6    2.99    0.48
   2  -3   6    2.76    0.46
   2   3   7   24.16    1.25
  -2   3  -7   22.44    1.33
   2   3   7   26.40    1.02
  -2   3  -7   24.50    1.09
  -2   3  -7   25.44    1.03
   2  -3   7   23.67    1.20
   2  -3   7   25.96    1.10
  -2  -3  -7   24.80    1.09
   2   3   8    1.63    0.53
  -2   3  -8    1.80    0.43
   2   3   8    2.68    0.44
  -2   3  -8    2.24    0.60
  -2  -3  -8    2.38    0.47
   2  -3   8    2.50    0.48
   2  -3   8    2.03    0.52
   2   3   9   19.19    1.19
  -2   3  -9   18.89    0.96
  -2  -3  -9   21.39    1.04
   2  -3   9   18.74    1.01
   2   3  10    1.62    0.61
  -2   3 -10    2.03    0.48
  -2  -3 -10    1.60    0.49
   2  -3  10    2.01    0.54
  -2   3 -11    6.24    0.66
   2   3  11    5.59    0.82
  -2  -3 -11    6.72    0.71
   2  -3  11    7.49    0.73
  -2   3 -12    2.10    0.53
   2   3  12    1.69    0.67
   2  -3  12    0.96    0.57
  -2  -3 -12    2.60    0.57
  -2   4  12   13.77    1.14
  -2   4  12   16.61    1.02
  -2  -4  12   15.18    1.36
   2   4 -11   13.29    0.75
  -2   4  11   12.38    0.89
   2   4 -11   12.81    1.03
  -2   4  11   11.85    1.04
   2  -4 -11   12.62    0.84
  -2  -4  11   12.92    1.21
   2   4 -10   33.33    1.55
  -2   4  10   35.18    1.42
   2   4 -10   36.69    1.28
  -2   4  10   32.83    1.63
  -2  -4  10   38.79    1.80
   2  -4 -10   34.62    1.37
  -2   4   9   14.75    0.88
  -2   4   9   14.59    1.03
   2   4  -9   13.57    0.98
   2   4  -9   15.30    0.77
  -2  -4   9   15.66    1.16
   2  -4  -9   14.29    0.84
  -2   4   8   49.62    2.04
   2   4  -8   53.94    1.68
   2   4  -8   52.08    1.97
  -2   4   8   49.58    1.78
  -2   4   8   54.52    2.09
   2  -4  -8   52.34    1.77
  -2  -4   8   54.45    2.13
   2   4  -7    0.13    0.44
  -2   4   7   -0.02    0.35
  -2   4   7   -0.21    0.35
   2   4  -7   -0.26    0.29
  -2   4   7    1.00    0.53
   2  -4  -7    0.73    0.37
  -2  -4   7    0.05    0.45
   2   4  -6    8.55    0.79
   2   4  -6    9.98    0.60
  -2   4   6   10.61    0.99
  -2   4   6    8.74    0.70
   2  -4  -6    8.19    0.74
  -2  -4   6   10.12    0.89
  -2   4   5   29.28    1.45
  -2   4   5   30.11    1.17
   2   4  -5   30.65    1.34
   2   4  -5   29.77    1.06
   2  -4  -5   29.77    1.18
  -2  -4   5   31.24    1.38
   2   4  -4   22.80    0.87
  -2   4   4   21.49    1.24
  -2   4   4   20.83    0.95
   2   4  -4   21.58    1.10
   2  -4  -4   21.54    0.99
  -2  -4   4   22.49    1.17
   2   4  -3   19.68    0.80
  -2   4   3   18.05    1.16
   2   4  -3   18.28    1.03
  -2   4   3   20.88    0.89
  -2  -4   3   19.65    1.09
   2  -4  -3   19.20    0.92
   2   4  -2   41.04    1.56
   2   4  -2   41.73    1.57
  -2   4   2   41.34    1.68
  -2   4   2   37.60    1.64
   2   4  -2   41.26    1.30
  -2   4   2   38.68    1.37
   2  -4  -2   41.35    1.42
  -2   4   1   26.44    1.02
  -2   4   1   23.56    1.21
   2   4  -1   26.30    0.93
  -2   4   1   25.91    1.30
   2   4  -1   27.21    1.17
   2   4  -1   23.83    1.17
   2  -4  -1   24.70    1.04
   2   4   0   29.19    1.30
   2   4   0   29.98    1.04
   2   4   0   30.35    1.30
  -2   4   0   30.15    1.36
  -2   4   0   29.94    1.12
  -2   4   0   28.47    1.30
   2  -4   0   29.11    1.13
   2   4   1   47.86    1.48
  -2   4  -1   46.05    1.77
  -2   4  -1   46.92    1.54
   2   4   1   46.54    1.79
  -2   4  -1   46.10    1.81
   2   4   1   45.46    1.74
   2  -4   1   46.28    1.80
   2  -4   1   48.42    1.57
  -2   4  -2   49.61    1.88
   2   4   2   46.91    1.86
  -2   4  -2   47.92    1.59
   2   4   2   48.37    1.53
  -2   4  -2   47.32    1.82
   2   4   2   47.60    1.76
   2  -4   2   49.24    1.61
   2  -4   2   50.37    1.85
   2   4   3   66.58    2.01
  -2   4  -3   66.93    2.32
   2   4   3   64.52    2.24
  -2   4  -3   68.22    2.08
  -2   4  -3   68.28    2.46
   2   4   3   64.75    2.41
   2  -4   3   67.09    2.08
   2   4   4   51.17    1.64
   2   4   4   49.58    1.83
  -2   4  -4   51.43    1.91
   2   4   4   51.91    2.00
  -2   4  -4   52.27    1.69
  -2   4  -4   52.13    2.06
   2  -4   4   52.53    1.71
   2   4   5   11.40    0.68
  -2   4  -5   11.47    0.70
  -2   4  -5   10.13    1.01
  -2   4  -5   10.74    0.86
   2  -4   5   11.43    0.81
   2   4   6   15.16    0.79
  -2   4  -6   16.70    0.97
  -2   4  -6   14.54    0.80
  -2   4  -6   16.27    1.12
   2  -4   6   16.61    0.91
  -2   4  -7   53.24    1.98
  -2   4  -7   58.00    2.27
  -2   4  -7   53.82    1.83
   2   4   7   56.34    1.79
   2   4   7   49.36    2.14
   2  -4   7   56.55    1.87
   2   4   8    2.74    0.48
  -2   4  -8    2.60    0.48
   2   4   8    2.46    0.60
  -2   4  -8    2.50    0.67
   2  -4   8    2.80    0.53
  -2   4  -9   11.33    0.79
   2   4   9    9.91    0.95
   2   4   9   11.55    0.78
   2  -4   9   11.41    0.90
   2   4  10    0.56    0.58
  -2   4 -10    0.04    0.43
   2  -4  10    1.37    0.53
   2   4  11    2.90    0.72
  -2   4 -11    3.22    0.57
   2  -4  11    3.82    0.65
  -2   5  10    6.97    0.71
   2   5 -10    7.22    0.63
   2   5 -10    6.78    0.85
  -2   5   9    1.66    0.51
   2   5  -9    2.44    0.66
   2   5  -9    1.97    0.42
   2  -5  -9    2.29    0.53
   2   5  -8   18.78    0.87
   2   5  -8   19.70    1.18
  -2   5   8   21.22    1.05
   2  -5  -8   20.03    1.02
  -2   5   7    0.59    0.42
   2   5  -7    0.87    0.36
   2   5  -7    0.84    0.55
  -2   5   7    0.00    0.60
   2  -5  -7    0.70    0.43
  -2   5   6   16.98    0.91
   2   5  -6   17.03    0.78
   2   5  -6   16.14    1.04
  -2   5   6   17.18    1.26
   2  -5  -6   16.59    0.91
  -2  -5   6   16.03    1.12
   2   5  -5    0.47    0.50
  -2   5   5    0.95    0.61
   2   5  -5    0.34    0.32
  -2   5   5    0.25    0.38
  -2  -5   5   -0.05    0.44
   2  -5  -5   -0.08    0.38
  -2   5   4   42.71    1.84
  -2   5   4   45.99    1.55
   2   5  -4   42.74    1.73
   2   5  -4   44.32    1.43
  -2  -5   4   43.37    1.79
   2  -5  -4   40.92    1.54
   2   5  -3    2.84    0.56
  -2   5   3    2.52    0.64
  -2   5   3    2.78    0.44
   2   5  -3    1.29    0.34
   2  -5  -3    1.90    0.46
  -2  -5   3    2.30    0.53
  -2   5   2   18.26    1.14
   2   5  -2   17.23    1.05
   2   5  -2   15.51    0.74
   2  -5  -2   15.34    0.88
   2   5  -1    3.58    0.51
  -2   5   1    3.85    0.48
   2   5  -1    4.52    0.62
   2   5  -1    3.94    0.41
  -2   5   1    4.01    0.69
   2  -5  -1    3.10    0.48
  -2   5   0   32.80    1.50
  -2   5   0   32.64    1.24
   2   5   0   33.07    1.43
   2   5   0   31.86    1.57
   2   5   0   31.50    1.13
   2  -5   0   31.24    1.26
  -2   5  -1   28.00    1.37
   2   5   1   26.92    1.29
   2   5   1   28.18    1.32
  -2   5  -1   28.42    1.12
   2   5   1   26.66    1.03
   2  -5   1   27.80    1.15
   2   5   2  137.32    4.66
   2   5   2  144.32    3.98
  -2   5  -2  144.28    4.07
   2   5   2  142.46    4.38
  -2   5  -2  138.17    4.42
   2  -5   2  141.46    4.06
   2   5   3    2.48    0.55
   2   5   3    2.73    0.42
  -2   5  -3    2.49    0.59
  -2   5  -3    2.28    0.43
   2   5   3    2.27    0.55
   2  -5   3    2.30    0.46
   2   5   4   25.53    1.35
  -2   5  -4   27.20    1.13
   2   5   4   28.69    1.30
   2   5   4   26.71    1.05
  -2   5  -4   27.65    1.34
   2  -5   4   26.04    1.15
   2   5   5    2.17    0.57
  -2   5  -5    1.86    0.45
   2   5   5    1.70    0.40
  -2   5  -5    1.45    0.56
   2  -5   5    1.37    0.47
   2   5   6   38.03    1.35
   2   5   6   36.56    1.72
  -2   5  -6   36.30    1.75
  -2   5  -6   37.27    1.61
   2  -5   6   36.16    1.46
  -2   5  -7   -0.28    0.56
   2   5   7    0.44    0.38
  -2   5  -7    0.46    0.54
  -2   5  -7    0.14    0.41
   2   5   7   -0.13    0.50
   2  -5   7    0.07    0.46
  -2   5  -8   39.21    1.53
  -2   5  -8   41.29    1.95
  -2   5  -8   39.31    1.70
   2  -5   8   42.23    1.62
   2   5   9   -0.17    0.44
  -2   5  -9    0.84    0.48
   2  -5   9    0.05    0.51
  -2   6   8    7.07    0.75
   2   6  -8    6.92    0.88
   2   6  -8   10.53    0.69
  -2   6   7    1.27    0.71
   2   6  -7    1.40    0.65
   2   6  -7    1.34    0.40
  -2   6   7    0.67    0.49
   2  -6  -7    0.97    0.81
   2   6  -6   22.61    1.33
  -2   6   6   25.11    1.18
  -2   6   6   25.55    1.53
   2   6  -6   26.38    1.02
   2  -6  -6   24.53    1.17
  -2   6   5   17.64    0.95
   2   6  -5   17.79    0.83
  -2   6   5   17.88    1.31
   2   6  -5   16.04    1.12
   2  -6  -5   16.69    0.97
  -2   6   4   29.93    1.62
  -2   6   4   32.98    1.32
   2   6  -4   33.04    1.51
   2   6  -4   33.84    1.18
   2  -6  -4   29.46    1.33
   2   6  -3    9.50    0.90
  -2   6   3    8.40    0.93
  -2   6   3    8.48    0.73
   2   6  -3    9.84    0.64
   2  -6  -3    7.29    0.70
  -2   6   2   32.47    1.31
   2   6  -2   32.81    1.19
  -2   6   2   31.02    1.60
   2   6  -2   35.98    1.58
   2  -6  -2   31.46    1.34
   2   6  -1    1.76    0.40
   2   6  -1    2.94    0.64
  -2   6   1    1.38    0.65
  -2   6   1    2.59    0.43
   2  -6  -1    1.70    0.51
  -2   6   0   18.44    1.24
   2   6   0   19.27    1.19
  -2   6   0   19.26    0.97
   2   6   0   20.54    0.89
   2  -6   0   18.38    1.01
   2   6   1    9.53    0.67
   2   6   1   12.43    1.03
  -2   6  -1   11.70    0.79
  -2   6  -1   10.21    0.96
   2  -6   1    9.84    0.84
  -2   6  -2    6.23    0.81
   2   6   2    5.49    0.75
   2   6   2    5.28    0.52
  -2   6  -2    5.88    0.62
   2  -6   2    5.25    0.62
  -2   6  -3    3.62    0.71
   2   6   3    3.60    0.47
  -2   6  -3    3.70    0.53
   2   6   3    3.54    0.67
   2  -6   3    3.73    0.57
  -2   6  -4    8.78    0.73
  -2   6  -4    9.42    0.94
   2   6   4    8.67    0.67
   2  -6   4    7.96    0.72
  -2   6  -5    1.11    0.61
   2   6   5    0.20    0.39
  -2   6  -5    0.36    0.44
   2  -6   5    0.65    0.50
   2   6   6    9.73    0.73
  -2   6  -6    8.57    0.75
  -2   6  -6    9.52    0.95
   2  -6   6    8.69    0.79
   2   6   7    2.98    0.52
  -2   6  -7    3.14    0.58
  -2   6  -7    3.19    0.73
   2  -6   7    3.18    0.62
   2   7  -4    7.24    0.91
  -2   7   4    7.85    1.01
   2   7  -4    7.49    0.65
  -2   7   3   23.88    1.19
   2   7  -3   23.11    1.00
  -2   7   3   23.78    1.51
   2   7  -3   20.79    1.33
  -2   7   2    3.24    0.60
  -2   7   2    4.92    0.89
   2   7  -2    4.37    0.49
   2   7  -2    3.26    0.74
   2  -7  -2    3.24    0.66
  -2   7   1   12.14    1.14
   2   7  -1    9.40    0.70
  -2   7   1    8.15    0.76
   2   7  -1    9.26    1.00
   2  -7  -1    9.70    0.84
  -2   7   0    8.86    0.79
  -2   7   0    8.15    0.98
   2   7   0    7.54    0.68
   2   7   0    7.72    0.92
   2  -7   0    7.89    0.80
  -2   7  -1    7.60    0.93
  -2   7  -1   11.71    0.81
   2   7   1    9.66    0.99
   2   7   1    8.66    0.71
   2  -7   1    7.82    0.79
   2   7   2    0.56    0.64
  -2   7  -2   -0.05    0.48
   2   7   2   -0.44    0.38
  -2   7  -2    1.77    0.69
   2  -7   2    0.01    0.52
  -2   7  -3    8.58    1.00
   2   7   3   10.45    1.01
   3   0 -14    7.63    0.61
  -3   0  14    6.48    0.97
   3   0 -13    0.45    0.35
  -3   0  13   -0.23    0.57
   3   0 -12   78.52    2.31
  -3   0  12   73.74    2.92
   3   0 -11   -0.04    0.30
  -3   0  11   -0.36    0.48
   3   0 -10  100.06    2.84
  -3   0  10   97.80    3.47
  -3   0   9    0.11    0.44
   3   0  -9   -0.03    0.27
   3   0  -9    0.18    0.42
  -3   0   8  118.74    3.89
   3   0  -8  112.68    3.63
   3   0  -8  118.11    3.24
  -3   0   7    0.03    0.33
   3   0  -7   -0.03    0.38
   3   0  -7    0.06    0.21
   3   0  -7   -0.09    0.34
   3   0  -6   20.31    0.93
  -3   0   6   18.49    0.73
  -3   0   6   18.98    0.88
   3   0  -6   19.17    0.66
  -3   0   6   17.99    0.94
   3   0  -6   19.63    0.94
  -3   0   5   -0.11    0.22
  -3   0   5    0.13    0.24
   3   0  -5   -0.11    0.26
   3   0  -5    0.08    0.12
   3   0  -5    0.38    0.28
   3   0  -5   -0.10    0.12
  -3   0   4   37.72    1.32
  -3   0   4   36.08    1.32
   3   0  -4   37.10    1.29
   3   0  -4   36.28    1.33
   3   0  -3    0.02    0.21
  -3   0   3    0.11    0.20
   3   0  -3    0.08    0.22
  -3   0   3    0.16    0.16
   3   0  -2   61.07    1.89
  -3   0   2   61.03    1.97
  -3   0   2   61.31    1.97
   3   0  -2   60.69    1.97
   3   0  -1    0.01    0.23
  -3   0   1   -0.37    0.22
   3   0  -1   -0.20    0.18
   3   0  -1    0.45    0.25
  -3   0   0   72.66    2.24
   3   0   0   72.60    2.29
   3   0   1   -0.25    0.15
  -3   0  -1    0.07    0.20
   3   0   2    7.31    0.59
  -3   0  -2    8.21    0.55
   3   0   2    7.82    0.48
  -3   0  -3   -0.17    0.21
   3   0   3   -0.04    0.10
   3   0   3   -0.09    0.20
   3   0   3   -0.04    0.11
   3   0   3    0.25    0.24
  -3   0  -4  145.97    4.77
   3   0   4  159.26    4.76
  -3   0  -4  150.09    4.12
   3   0   4  147.19    4.54
  -3   0  -5   -0.03    0.27
   3   0   5   -0.26    0.27
   3   0   5   -0.24    0.29
  -3   0  -5   -0.02    0.21
   3   0   6  113.49    3.49
  -3   0  -6  106.29    3.68
   3   0   6  113.19    3.67
  -3   0  -6  112.05    3.17
  -3   0  -7    0.09    0.41
   3   0   7    0.29    0.38
   3   0   7    0.31    0.40
  -3   0  -7    0.41    0.32
   3   0   8    2.40    0.56
   3   0   8    2.89    0.53
  -3   0  -8    1.92    0.41
   3   0   9    0.37    0.46
   3   0   9   -0.36    0.41
   3   0  10   50.76    2.12
   3   0  11    0.42    0.54
   3   0  12    1.25    0.67
   3   0  13    0.84    0.69
   3   1 -14   12.88    0.74
  -3   1  14   12.34    1.19
   3  -1 -14   13.18    0.79
  -3  -1  14   12.80    1.23
  -3   1  13    8.23    0.96
   3   1 -13    8.38    0.62
   3  -1 -13    8.71    0.66
  -3  -1  13    8.45    1.00
  -3   1  12   11.38    1.03
   3   1 -12   12.04    0.68
   3  -1 -12   11.30    0.69
  -3  -1  12   10.95    1.08
  -3   1  11   11.13    0.97
   3   1 -11   10.93    0.94
   3   1 -11   10.59    0.62
  -3  -1  11    9.81    1.01
   3  -1 -11   10.54    0.65
   3   1 -10   28.77    1.38
  -3   1  10   30.38    1.47
   3   1 -10   31.70    1.08
  -3   1  10   30.54    1.40
   3  -1 -10   31.61    1.34
  -3  -1  10   30.65    1.50
   3  -1 -10   31.82    1.67
  -3   1   9    0.95    0.48
   3   1  -9    0.49    0.27
   3   1  -9    0.72    0.44
  -3   1   9    0.39    0.47
  -3  -1   9    0.43    0.49
   3  -1  -9    0.25    0.30
   3  -1  -9    0.43    0.40
   3   1  -8   55.34    1.63
  -3   1   8   54.20    2.08
   3   1  -8   53.96    1.93
  -3   1   8   53.95    1.97
   3  -1  -8   53.84    1.66
  -3  -1   8   56.73    2.12
   3  -1  -8   55.35    1.93
   3   1  -7   52.63    1.81
  -3   1   7   53.29    1.63
   3   1  -7   53.43    1.52
  -3   1   7   52.56    1.86
  -3   1   7   50.60    1.93
   3  -1  -7   55.13    1.83
   3  -1  -7   50.79    1.55
   3  -1  -7   49.09    1.89
  -3  -1   7   49.48    1.93
  -3   1   6  176.89    5.14
  -3   1   6  171.42    4.75
   3   1  -6  176.60    5.11
  -3   1   6  168.81    5.43
   3   1  -6  173.90    4.66
   3  -1  -6  178.98    5.13
  -3  -1   6  176.75    4.74
   3  -1  -6  173.94    4.69
  -3  -1   6  175.81    5.47
  -3  -1   6  168.56    5.53
   3  -1  -6  166.46    5.54
  -3   1   5   50.86    1.79
  -3   1   5   52.48    1.79
  -3   1   5   54.85    1.53
  -3   1   5   52.40    1.74
   3   1  -5   44.71    1.41
   3   1  -5   52.08    1.68
   3  -1  -5   51.66    1.70
  -3  -1   5   51.72    1.81
  -3  -1   5   49.59    1.78
   3  -1  -5   50.60    1.78
   3  -1  -5   51.52    1.46
  -3   1   4   50.78    1.77
   3   1  -4   54.37    1.69
  -3   1   4   55.13    1.75
  -3   1   4   49.52    1.75
   3  -1  -4   53.67    1.71
   3  -1  -4   52.04    1.46
   3  -1  -4   52.18    1.46
   3  -1  -4   51.68    1.77
  -3  -1   4   52.42    1.81
  -3   1   3   49.49    1.64
   3   1  -3   51.61    1.59
  -3   1   3   50.29    1.63
  -3   1   3   49.64    1.68
  -3  -1   3   50.60    1.72
   3  -1  -3   48.87    1.67
  -3   1   2   21.00    0.80
   3   1  -2   19.41    0.80
  -3   1   2   19.81    0.81
   3   1  -2   19.42    0.73
   3  -1  -2   20.23    0.78
  -3   1   1  123.98    3.60
   3   1  -1  111.39    3.41
   3   1  -1  112.16    3.68
  -3   1   1  122.20    3.46
   3  -1  -1  121.99    3.59
  -3   1   0  397.43   11.53
  -3   1   0  402.83   10.96
   3   1   0  353.08   11.72
   3  -1   0  403.07   11.43
  -3   1  -1   18.07    0.75
   3   1   1   19.77    0.81
  -3   1  -1   19.30    0.67
  -3   1  -1   19.87    0.86
   3  -1   1   20.44    0.67
  -3   1  -2  208.48    6.44
   3   1   2  214.57    6.38
  -3  -1  -2  199.93    6.34
   3  -1   2  216.06    6.30
   3  -1   2  200.20    5.52
   3   1   3   34.53    1.06
   3   1   3   39.29    1.38
   3   1   3   40.37    1.41
  -3   1  -3   39.32    1.17
  -3   1  -3   38.89    1.45
  -3  -1  -3   38.77    1.29
  -3  -1  -3   39.18    1.35
   3  -1   3   36.52    1.12
   3  -1   3   40.52    1.35
  -3   1  -4  247.26    6.62
  -3   1  -4  241.35    7.65
  -3   1  -4  244.32    6.95
   3   1   4  255.29    7.59
   3   1   4  244.99    7.25
  -3  -1  -4  242.47    7.57
   3  -1   4  254.22    7.53
  -3  -1  -4  234.94    7.31
   3  -1   4  246.39    6.58
  -3  -1  -4  246.99    6.62
  -3   1  -5    7.50    0.75
   3   1   5    7.61    0.73
   3   1   5    7.64    0.65
  -3   1  -5    7.95    0.44
  -3   1  -5    7.61    0.53
  -3  -1  -5    7.40    0.46
   3  -1   5    7.13    0.49
   3  -1   5    7.26    0.64
  -3  -1  -5    6.94    0.57
  -3   1  -6  102.99    3.50
  -3   1  -6  101.81    2.96
   3   1   6   99.25    3.28
   3   1   6  108.24    3.47
  -3  -1  -6  101.70    3.20
  -3  -1  -6  103.02    2.97
   3  -1   6  100.79    2.90
   3  -1   6  102.89    3.40
   3   1   7   -0.52    0.30
  -3   1  -7    0.40    0.48
   3   1   7    0.49    0.42
  -3   1  -7    0.19    0.31
   3  -1   7    0.28    0.42
  -3   1  -8   81.47    2.94
   3   1   8   79.60    2.72
  -3   1  -8   79.43    2.44
   3   1   8   78.00    2.89
   3  -1   8   80.37    2.84
  -3   1  -9    3.91    0.49
   3   1   9    3.94    0.68
   3  -1   9    3.37    0.61
   3   1  10   12.19    0.99
  -3   1 -10    9.51    0.77
   3  -1  10   11.63    0.97
  -3   1 -11   23.13    1.59
   3   1  11   18.69    1.23
   3  -1  11   22.63    1.31
  -3   1 -12   14.57    0.94
   3   1  12   16.77    1.16
   3  -1  12   14.26    1.17
  -3   1 -13    4.65    0.66
   3   1  13    7.09    0.99
   3  -1  13    5.42    0.92
   3   2 -13   15.97    0.78
  -3   2  13   14.74    1.18
  -3  -2  13   16.57    1.29
   3  -2 -13   15.57    1.41
  -3   2  12    2.70    0.65
   3   2 -12    2.61    0.39
  -3  -2  12    2.49    0.73
   3  -2 -12    1.78    0.42
   3   2 -11   10.69    0.60
   3   2 -11    8.23    0.83
  -3   2  11    9.65    0.94
   3  -2 -11    9.14    0.64
  -3  -2  11   10.72    1.03
   3   2 -10    5.79    0.48
   3   2 -10    5.34    0.66
  -3   2  10    5.48    0.64
  -3   2  10    4.45    0.68
  -3  -2  10    6.74    0.80
   3  -2 -10    5.50    0.50
  -3   2   9   13.14    0.99
   3   2  -9   13.76    0.62
  -3   2   9   11.39    0.94
   3   2  -9   13.88    0.88
  -3  -2   9   11.18    0.93
   3  -2  -9   14.05    0.68
   3   2  -8    3.88    0.54
  -3   2   8    4.77    0.60
  -3   2   8    4.63    0.63
   3   2  -8    4.42    0.37
   3  -2  -8    4.05    0.42
  -3  -2   8    4.18    0.64
  -3   2   7   65.59    2.22
  -3   2   7   65.35    1.99
  -3   2   7   65.35    2.32
   3   2  -7   62.46    1.86
   3   2  -7   64.45    2.18
  -3  -2   7   64.75    2.36
   3  -2  -7   65.28    1.94
  -3   2   6    9.95    0.83
   3   2  -6   11.46    0.71
  -3   2   6   10.47    0.74
  -3   2   6    8.31    0.60
   3   2  -6    9.85    0.47
  -3  -2   6   10.03    0.81
   3  -2  -6   10.41    0.57
   3   2  -5  123.65    3.24
  -3   2   5  121.02    3.66
  -3   2   5  122.60    3.82
   3   2  -5  121.59    3.61
  -3   2   5  119.19    3.35
  -3  -2   5  120.41    3.88
   3  -2  -5  123.54    3.32
   3  -2  -5  106.80    3.79
  -3   2   4   35.26    1.36
  -3   2   4   35.88    1.28
  -3   2   4   34.59    1.32
  -3   2   4   35.64    1.13
   3   2  -4   34.13    1.25
  -3  -2   4   34.93    1.37
   3  -2  -4   33.69    1.33
   3  -2  -4   36.98    1.10
   3   2  -3  226.21    6.41
  -3   2   3  211.81    5.98
  -3   2   3  226.50    6.76
  -3   2   3  226.73    6.75
  -3   2   3  224.69    6.45
  -3  -2   3  216.69    6.86
   3  -2  -3  216.24    6.74
   3  -2  -3  230.25    5.96
   3   2  -2   11.60    0.65
  -3   2   2   11.41    0.51
  -3   2   2   12.80    0.64
   3   2  -2   12.70    0.63
  -3   2   2   11.92    0.69
   3  -2  -2   11.86    0.50
   3  -2  -2   11.77    0.63
  -3   2   1  497.06   13.44
  -3   2   1  510.43   14.96
  -3   2   1  512.40   14.33
   3   2  -1  489.80   14.28
   3   2  -1  516.04   15.31
   3  -2  -1  515.22   13.41
   3  -2  -1  509.81   14.97
  -3   2   0    4.38    0.41
   3   2   0    4.08    0.39
  -3   2   0    3.93    0.28
  -3   2   0    4.58    0.43
  -3   2   0    4.45    0.40
   3   2   0    4.68    0.41
   3  -2   0    3.34    0.69
   3  -2   0    4.12    0.33
   3   2   1  436.19   13.32
   3   2   1  431.54   12.39
  -3   2  -1  449.65   12.45
  -3   2  -1  429.23   11.68
  -3   2  -1  455.96   13.44
   3  -2   1  430.73   11.66
   3  -2   1  447.26   12.97
  -3   2  -2   69.02    2.16
   3   2   2   67.43    2.08
   3   2   2   73.04    2.35
  -3   2  -2   68.29    1.98
  -3   2  -2   71.42    2.38
   3  -2   2   70.22    2.18
   3  -2   2   68.98    1.96
   3  -2   2   64.98    2.16
   3   2   3    9.09    0.48
  -3   2  -3   10.25    0.79
   3   2   3    8.27    0.35
   3   2   3   10.66    0.67
  -3   2  -3    9.12    0.62
  -3   2  -3    8.92    0.51
   3  -2   3    9.48    0.53
   3  -2   3    9.15    0.49
  -3  -2  -3    9.41    0.54
   3  -2   3    9.21    0.47
  -3   2  -4    4.83    0.43
  -3   2  -4    3.75    0.51
   3   2   4    4.09    0.39
   3   2   4    3.85    0.47
  -3   2  -4    4.12    0.35
   3  -2   4    4.19    0.39
  -3  -2  -4    4.60    0.46
   3  -2   4    4.59    0.37
  -3  -2  -4    4.46    0.38
  -3   2  -5  100.01    2.89
   3   2   5   96.56    3.22
  -3   2  -5   93.88    2.75
  -3   2  -5   95.42    3.28
   3  -2   5   92.65    3.10
   3  -2   5   92.98    2.72
  -3  -2  -5   95.31    3.07
   3   2   6   10.67    1.00
   3   2   6   12.03    0.89
  -3   2  -6   12.24    1.09
  -3   2  -6   12.98    0.70
   3  -2   6   11.33    0.81
   3  -2   6   10.39    0.74
  -3  -2  -6   11.74    0.73
  -3   2  -7   71.56    2.20
   3   2   7   71.35    2.61
   3   2   7   72.22    2.53
  -3   2  -7   71.87    2.70
   3  -2   7   72.14    2.19
   3  -2   7   68.81    2.52
  -3   2  -8    1.51    0.55
   3   2   8    1.17    0.49
   3   2   8    1.93    0.51
  -3   2  -8    2.54    0.44
   3  -2   8    1.08    0.45
   3  -2   8    1.82    0.42
  -3   2  -9   71.04    2.71
   3   2   9   67.40    2.64
  -3   2  -9   67.11    2.22
   3  -2   9   71.44    2.60
   3  -2   9   71.75    2.20
  -3   2 -10    1.01    0.42
   3   2  10    0.78    0.56
   3  -2  10    1.14    0.56
   3  -2  10    0.55    0.44
   3   2  11   28.35    1.56
  -3   2 -11   29.71    1.26
   3  -2  11   31.48    1.58
   3  -2  11   29.61    1.26
   3   2  12    4.54    0.82
  -3   2 -12    4.58    0.62
   3  -2  12    5.95    0.88
   3  -2  12    5.55    0.66
   3   3 -13   15.43    0.76
  -3   3  13   14.95    1.12
  -3  -3  13   13.74    1.29
  -3   3  12    5.01    0.80
   3   3 -12    7.67    0.56
  -3  -3  12    6.32    0.94
   3  -3 -12    5.17    0.57
  -3   3  11   24.68    1.37
   3   3 -11   24.29    1.29
   3  -3 -11   25.31    1.03
  -3  -3  11   26.10    1.46
   3   3 -10    0.11    0.30
   3   3 -10    0.43    0.49
  -3   3  10   -0.22    0.45
  -3  -3  10    1.07    0.57
   3  -3 -10    0.15    0.34
  -3   3   9   64.31    2.25
   3   3  -9   60.61    2.20
  -3   3   9   60.40    2.35
   3  -3  -9   60.43    1.93
  -3  -3   9   62.47    2.40
   3   3  -8    9.03    0.79
   3   3  -8    8.78    0.53
  -3   3   8    8.41    0.77
  -3   3   8    9.70    0.84
   3  -3  -8    8.95    0.63
  -3  -3   8    9.15    0.92
  -3   3   7    3.61    0.45
  -3   3   7    2.34    0.56
   3   3  -7    3.66    0.55
  -3   3   7    3.36    0.54
   3   3  -7    3.02    0.32
  -3  -3   7    3.63    0.60
   3  -3  -7    3.38    0.41
  -3   3   6   41.52    1.43
   3   3  -6   42.21    1.58
  -3   3   6   40.39    1.69
   3   3  -6   39.82    1.26
  -3   3   6   42.21    1.63
  -3  -3   6   43.73    1.73
   3  -3  -6   41.57    1.39
  -3   3   5  120.87    3.54
   3   3  -5  124.33    3.42
   3   3  -5  127.53    3.84
  -3   3   5  128.21    4.01
  -3   3   5  125.01    3.88
   3  -3  -5  124.27    3.52
  -3  -3   5  126.55    4.11
   3   3  -4   10.42    0.49
  -3   3   4   10.19    0.62
   3   3  -4   10.22    0.77
  -3   3   4   11.18    0.94
  -3   3   4   10.96    0.66
  -3  -3   4   11.41    0.83
   3  -3  -4   11.65    0.76
  -3   3   3   75.29    2.49
   3   3  -3   78.27    2.15
  -3   3   3   76.49    2.27
   3   3  -3   77.30    2.48
  -3   3   3   78.22    2.55
   3  -3  -3   80.99    2.26
  -3  -3   3   80.17    2.68
   3  -3  -3   75.31    2.63
   3   3  -2    0.65    0.32
   3   3  -2    0.39    0.28
  -3   3   2    0.37    0.23
   3   3  -2    0.22    0.17
  -3   3   2    1.26    0.41
   3  -3  -2    0.59    0.34
   3  -3  -2    0.75    0.26
  -3   3   1   45.97    1.67
   3   3  -1   46.84    1.29
   3   3  -1   45.51    1.68
  -3   3   1   44.70    1.74
  -3   3   1   42.57    1.41
   3   3  -1   46.10    1.58
   3  -3  -1   45.40    1.65
   3  -3  -1   45.75    1.41
  -3   3   0    0.47    0.23
   3   3   0    0.11    0.16
  -3   3   0    0.25    0.38
  -3   3   0    0.13    0.33
   3   3   0    0.24    0.27
   3   3   0    0.23    0.28
   3  -3   0   -0.15    0.32
   3  -3   0    0.32    0.24
  -3   3  -1   46.42    1.46
   3   3   1   44.79    1.59
   3   3   1   46.41    1.35
  -3   3  -1   47.69    1.77
  -3   3  -1   47.81    1.68
   3   3   1   45.32    1.74
   3  -3   1   47.80    1.45
   3   3   2   49.09    1.82
  -3   3  -2   47.06    1.52
  -3   3  -2   47.42    1.83
   3   3   2   49.15    1.42
   3   3   2   45.72    1.61
  -3   3  -2   49.33    1.70
   3  -3   2   49.31    1.70
   3  -3   2   49.54    1.51
  -3   3  -3   20.49    1.04
   3   3   3   21.43    0.76
   3   3   3   19.17    0.92
   3   3   3   21.36    1.08
  -3   3  -3   19.76    0.84
  -3   3  -3   21.44    1.18
  -3  -3  -3   19.20    1.00
   3  -3   3   20.94    0.86
   3  -3   3   21.72    0.92
  -3   3  -4   18.36    1.14
  -3   3  -4   17.52    0.98
   3   3   4   18.66    1.05
   3   3   4   18.58    0.74
  -3   3  -4   18.99    0.83
   3  -3   4   18.83    0.87
  -3  -3  -4   18.86    0.99
  -3   3  -5   17.18    0.85
  -3   3  -5   16.52    0.93
  -3   3  -5   16.14    1.17
   3   3   5   17.75    0.75
   3   3   5   16.66    1.02
   3  -3   5   16.82    0.85
  -3   3  -6   14.59    0.79
   3   3   6   15.66    0.73
   3   3   6   13.77    1.00
  -3   3  -6   15.21    1.15
  -3   3  -6   15.06    0.85
   3  -3   6   14.61    0.86
   3   3   7   18.97    1.16
  -3   3  -7   19.23    0.89
  -3   3  -7   20.56    1.30
   3  -3   7   21.50    0.96
   3   3   8    0.43    0.53
  -3   3  -8    1.78    0.63
  -3   3  -8    1.16    0.37
   3   3   8    0.27    0.47
   3  -3   8    0.07    0.43
  -3   3  -9   13.48    1.14
  -3   3  -9   11.86    0.76
   3   3   9   10.41    0.97
   3  -3   9   10.77    0.82
   3   3  10    0.40    0.53
  -3   3 -10    1.05    0.34
   3  -3  10    0.24    0.45
   3   3  11   16.01    1.22
  -3   3 -11   18.39    0.98
   3  -3  11   19.07    1.06
  -3   3 -12    0.38    0.51
   3   3  12   -0.17    0.57
  -3  -4  12   12.59    1.29
   3   4 -11   13.69    1.07
   3   4 -11   14.99    0.71
   3  -4 -11   14.62    0.86
  -3  -4  11   14.61    1.24
   3   4 -10   52.62    2.10
   3  -4 -10   54.57    1.82
  -3  -4  10   55.96    2.31
   3   4  -9    5.64    0.72
  -3   4   9    5.63    0.81
   3   4  -9    5.15    0.42
  -3  -4   9    4.94    0.80
   3  -4  -9    4.20    0.51
  -3   4   8   13.92    0.84
  -3   4   8   14.14    1.23
   3   4  -8   14.08    0.97
   3   4  -8   13.83    0.66
  -3  -4   8   14.44    1.11
   3  -4  -8   14.20    0.80
  -3   4   7   41.10    1.76
   3   4  -7   38.98    1.27
  -3   4   7   39.86    1.46
   3   4  -7   39.28    1.62
  -3  -4   7   42.96    1.76
   3  -4  -7   38.59    1.41
  -3   4   6    9.56    0.85
   3   4  -6    8.96    0.79
  -3   4   6    9.06    0.67
   3   4  -6    8.18    0.50
   3  -4  -6    7.84    0.65
  -3  -4   6    9.81    0.88
  -3   4   5   17.48    0.88
   3   4  -5   17.82    1.03
  -3   4   5   18.79    1.22
   3   4  -5   16.93    0.69
  -3  -4   5   18.66    1.09
   3  -4  -5   17.84    0.86
   3   4  -4   36.10    1.46
  -3   4   4   37.27    1.64
  -3   4   4   35.41    1.29
   3  -4  -4   35.29    1.29
  -3  -4   4   34.76    1.55
   3   4  -3   52.86    1.92
   3   4  -3   51.31    1.55
  -3   4   3   48.56    1.99
  -3   4   3   50.56    1.69
  -3  -4   3   55.41    2.05
   3  -4  -3   55.86    1.71
  -3   4   2    2.69    0.56
  -3   4   2    1.99    0.37
  -3   4   2    2.09    0.58
   3   4  -2    1.73    0.47
   3   4  -2    1.97    0.42
   3   4  -2    1.78    0.28
   3  -4  -2    2.21    0.40
   3   4  -1    6.74    0.65
   3   4  -1    6.75    0.47
  -3   4   1    8.05    0.71
  -3   4   1    6.91    0.60
   3   4  -1    5.91    0.90
  -3   4   1    6.87    0.73
   3  -4  -1    6.89    0.55
  -3   4   0   12.16    1.00
  -3   4   0   11.21    0.97
   3   4   0   11.30    0.56
   3   4   0   10.43    0.84
   3   4   0   11.00    0.85
  -3   4   0    9.73    0.67
   3  -4   0   10.60    0.71
  -3   4  -1   79.01    2.77
  -3   4  -1   77.78    2.65
   3   4   1   79.29    2.23
   3   4   1   76.60    2.56
   3   4   1   76.22    2.75
  -3   4  -1   79.59    2.36
   3  -4   1   79.32    2.70
   3  -4   1   78.97    2.35
   3   4   2   21.96    0.83
   3   4   2   21.50    1.18
  -3   4  -2   21.89    1.18
   3   4   2   21.62    1.07
  -3   4  -2   22.30    1.30
  -3   4  -2   22.05    0.96
   3  -4   2   23.59    0.99
   3   4   3   65.23    2.30
  -3   4  -3   70.67    2.18
   3   4   3   72.48    2.58
  -3   4  -3   68.38    2.41
   3   4   3   71.38    2.07
  -3   4  -3   72.17    2.62
   3  -4   3   72.56    2.18
  -3   4  -4   26.89    1.40
  -3   4  -4   23.79    1.02
  -3   4  -4   24.86    1.23
   3   4   4   23.77    1.27
   3   4   4   25.56    0.93
   3  -4   4   25.01    1.03
  -3   4  -5   20.71    1.32
   3   4   5   20.61    0.84
   3   4   5   21.93    1.20
  -3   4  -5   22.06    1.12
  -3   4  -5   21.61    0.97
   3  -4   5   21.86    1.00
  -3   4  -6   33.01    1.66
  -3   4  -6   34.12    1.39
   3   4   6   31.75    1.15
  -3   4  -6   32.44    1.25
   3  -4   6   30.68    1.24
   3   4   7   39.26    1.34
  -3   4  -7   37.83    1.43
  -3   4  -7   41.08    1.86
   3  -4   7   37.77    1.45
  -3   4  -8    4.38    0.77
   3   4   8    3.64    0.67
  -3   4  -8    5.15    0.58
   3  -4   8    5.21    0.59
  -3   4  -9    2.88    0.52
  -3   4  -9    3.21    0.74
   3   4   9    3.16    0.67
   3  -4   9    3.24    0.56
   3   4  10    1.48    0.64
  -3   4 -10    1.82    0.50
   3  -4  10    0.86    0.53
  -3   4 -11    9.99    0.85
   3   4  11    7.21    0.94
   3   5 -10   19.96    1.28
  -3   5  10   23.71    1.17
  -3  -5  10   22.85    1.49
   3   5  -9    8.62    0.89
   3   5  -9    8.58    0.55
  -3   5   9    7.89    0.73
   3  -5  -9    6.97    0.65
  -3  -5   9    8.08    0.96
   3   5  -8   23.83    1.30
  -3   5   8   24.20    1.49
   3   5  -8   23.68    0.89
  -3   5   8   23.85    1.13
  -3  -5   8   22.18    1.37
   3  -5  -8   22.60    1.07
  -3   5   7    1.01    0.66
  -3   5   7    0.63    0.42
   3   5  -7    1.40    0.56
   3   5  -7    1.06    0.30
  -3  -5   7    1.08    0.58
   3  -5  -7    0.22    0.41
   3   5  -6   24.02    0.89
  -3   5   6   27.06    1.13
   3   5  -6   23.99    1.28
  -3   5   6   21.67    1.43
   3  -5  -6   24.52    1.47
  -3  -5   6   26.42    1.39
   3   5  -5   -0.23    0.45
   3   5  -5    0.27    0.27
  -3   5   5    0.02    0.58
  -3   5   5    0.41    0.37
   3  -5  -5   -0.66    0.37
  -3  -5   5   -0.59    0.47
  -3   5   4   61.77    2.33
   3   5  -4   60.83    2.23
   3   5  -4   60.17    1.82
  -3   5   4   63.55    2.02
   3  -5  -4   60.77    1.98
  -3  -5   4   63.37    2.37
   3   5  -3    4.49    0.39
   3   5  -3    5.88    0.69
  -3   5   3    5.39    0.53
  -3   5   3    5.75    0.78
  -3  -5   3    4.88    0.71
   3  -5  -3    4.89    0.54
   3   5  -2   14.86    0.93
  -3   5   2   14.98    1.12
   3   5  -2   15.73    0.68
   3   5  -2   18.44    1.02
  -3   5   2   16.09    0.86
   3  -5  -2   15.69    0.86
   3   5  -1    3.73    0.53
  -3   5   1    4.32    0.68
   3   5  -1    3.86    0.60
   3   5  -1    3.05    0.34
  -3   5   1    2.95    0.46
   3  -5  -1    3.57    0.50
  -3   5   0  111.82    3.24
   3   5   0  108.58    3.07
  -3   5   0  106.67    3.57
   3   5   0  107.72    3.72
   3   5   0  111.68    3.52
   3  -5   0  111.53    3.23
   3   5   1    0.31    0.43
  -3   5  -1   -0.93    0.51
  -3   5  -1    0.40    0.36
   3   5   1   -0.09    0.27
   3   5   1    0.07    0.45
   3  -5   1    1.10    0.41
   3   5   2   64.54    2.23
   3   5   2   61.63    2.40
   3   5   2   64.24    1.90
  -3   5  -2   64.85    2.06
  -3   5  -2   62.68    2.32
   3  -5   2   62.73    2.03
  -3   5  -3    3.48    0.65
  -3   5  -3    3.82    0.65
   3   5   3    3.54    0.57
   3   5   3    2.98    0.38
   3   5   3    3.48    0.63
  -3   5  -3    3.64    0.50
   3  -5   3    3.78    0.52
   3   5   4   27.01    0.99
  -3   5  -4   25.71    1.33
  -3   5  -4   28.34    1.51
   3   5   4   25.91    1.38
  -3   5  -4   27.11    1.15
   3  -5   4   24.70    1.10
  -3   5  -5    1.83    0.65
  -3   5  -5    3.65    0.68
   3   5   5    2.18    0.39
  -3   5  -5    2.95    0.48
   3   5   5    3.08    0.65
   3  -5   5    2.22    0.51
   3   5   6   52.38    2.21
  -3   5  -6   52.93    1.82
  -3   5  -6   51.14    2.01
   3   5   6   51.43    1.68
  -3   5  -6   54.74    2.27
   3  -5   6   52.73    1.80
  -3   5  -7    0.81    0.61
  -3   5  -7    0.57    0.42
   3   5   7    0.12    0.54
  -3   5  -7   -0.38    0.49
   3   5   7    0.30    0.36
   3  -5   7    0.10    0.48
  -3   5  -8   38.99    1.93
  -3   5  -8   37.24    1.49
   3   5   8   37.14    1.84
   3  -5   8   37.56    1.50
  -3   5  -9    2.64    0.80
  -3   5  -9    2.55    0.55
   3   5   9    4.39    0.68
   3   6  -8    8.85    0.98
  -3   6   8   10.67    1.15
  -3   6   8   11.00    0.89
  -3   6   7    0.42    0.48
   3   6  -7    0.57    0.62
  -3   6   7    0.34    0.71
   3  -6  -7    1.27    0.50
   3   6  -6   18.46    0.76
   3   6  -6   17.00    1.17
  -3   6   6   18.41    1.34
   3  -6  -6   17.72    1.45
   3   6  -5   19.99    0.80
  -3   6   5   21.47    1.40
   3   6  -5   20.08    1.20
  -3   6   5   19.89    1.04
   3  -6  -5   20.07    1.04
  -3   6   4   12.58    1.18
  -3   6   4    9.84    0.79
   3   6  -4   12.00    0.98
   3   6  -4   11.36    0.60
   3  -6  -4   10.89    0.81
   3   6  -3    2.89    0.36
  -3   6   3    4.82    0.80
   3   6  -3    3.72    0.68
  -3   6   3    3.35    0.53
   3  -6  -3    2.96    0.54
  -3   6   2   31.08    1.25
   3   6  -2   30.50    1.44
   3   6  -2   29.47    1.03
  -3   6   2   26.23    1.50
   3  -6  -2   29.20    1.24
   3   6  -1   13.18    0.65
  -3   6   1   12.90    1.14
  -3   6   1   14.94    0.86
   3   6  -1   13.11    1.02
   3  -6  -1   12.59    0.87
  -3   6   0    2.56    0.50
   3   6   0    2.43    0.38
   3   6   0    3.44    0.68
  -3   6   0    2.85    0.71
   3  -6   0    3.17    0.54
   3   6   1   18.69    0.82
  -3   6  -1   19.76    1.24
   3   6   1   22.95    1.24
  -3   6  -1   20.00    1.02
   3  -6   1   20.41    1.02
  -3   6  -2   12.70    1.06
   3   6   2   14.46    1.05
   3   6   2   13.61    1.04
  -3   6  -2   13.81    0.85
   3   6   2   13.18    0.69
   3  -6   2   13.41    0.88
   3   6   3    2.88    0.63
   3   6   3    1.15    0.35
  -3   6  -3    1.94    0.65
  -3   6  -3    1.73    0.49
   3   6   3    1.77    0.58
   3  -6   3    1.16    0.48
   3   6   4    7.09    0.84
  -3   6  -4    7.11    0.85
  -3   6  -4    6.08    0.65
   3   6   4    6.74    0.58
   3  -6   4    8.31    0.72
   3   6   5    0.58    0.33
  -3   6  -5   -0.13    0.44
  -3   6  -5    1.32    0.65
   3   6   5   -0.32    0.55
   3  -6   5    0.68    0.48
   3   6   6    5.09    0.49
   3   6   6    4.08    0.79
  -3   6  -6    5.57    0.81
  -3   6  -6    5.08    0.63
   3  -6   6    5.28    0.67
   3   6   7   14.04    0.79
   3   6   7   14.55    1.23
  -3   6  -7   14.43    1.15
   3   7  -3   16.54    1.21
  -3   7   3   16.29    1.02
  -3   7   3   15.17    1.32
  -3   7   2   21.74    1.13
  -3   7   2   20.85    1.44
   3   7  -2   21.88    1.35
  -3   7   1    4.87    0.88
   3   7  -1    5.29    0.86
  -3   7   1    5.52    0.67
  -3   7   0    4.89    0.86
   3   7   0    4.97    0.83
  -3   7   0    6.24    0.68
  -3   7  -1    8.87    1.05
   3   7   1   10.89    1.02
  -3   7  -1    7.06    0.73
   3   7   2    0.98    0.63
  -3   7  -2    0.56    0.68
  -3   7  -2   -0.20    0.47
   4   0 -14   10.44    0.62
  -4   0  14   11.76    1.16
  -4   0  13   -0.46    0.59
   4   0 -13   -0.06    0.28
  -4   0  12   35.35    1.74
   4   0 -12   35.56    1.18
   4   0 -11    0.17    0.26
  -4   0  11   -0.48    0.49
   4   0 -11   -0.39    0.45
   4   0 -10   15.63    0.66
  -4   0  10   17.39    1.12
   4   0 -10   17.04    1.03
  -4   0   9   -0.18    0.43
   4   0  -9    0.14    0.23
   4   0  -9   -0.28    0.41
   4   0  -8   96.17    2.66
  -4   0   8   99.29    3.34
   4   0  -8   96.35    3.14
  -4   0   7   -0.04    0.35
   4   0  -7   -0.51    0.37
  -4   0   6   67.30    2.29
   4   0  -6   65.48    2.30
   4   0  -6   64.25    2.19
  -4   0   5   -0.05    0.25
   4   0  -5   -0.20    0.29
  -4   0   5    0.16    0.24
   4   0  -5   -0.53    0.27
  -4   0   4   71.55    2.52
   4   0  -4   72.56    2.23
   4   0  -4   69.24    2.33
  -4   0   4   66.79    2.29
   4   0  -3    0.52    0.18
   4   0  -3   -0.25    0.22
  -4   0   3    0.10    0.21
  -4   0   3   -0.09    0.18
   4   0  -2   17.95    0.73
  -4   0   2   15.60    0.71
  -4   0   2   15.62    0.69
   4   0  -2   16.09    1.01
  -4   0   1   -0.23    0.19
   4   0  -1   -0.14    0.16
   4   0  -1   -0.22    0.19
   4   0   0  138.51    4.01
   4   0   0  143.73    4.30
  -4   0   0  136.09    4.20
   4   0   1    0.27    0.24
  -4   0  -1   -0.01    0.21
   4   0   1    0.00    0.17
  -4   0  -1    0.08    0.16
   4   0   2   30.63    1.18
   4   0   2   32.11    1.15
  -4   0  -2   31.84    1.21
   4   0   3   -0.13    0.22
  -4   0  -3    0.12    0.26
   4   0   3    0.19    0.30
   4   0   4  371.40   10.81
   4   0   4  335.02   10.34
  -4   0  -4  357.30   10.90
   4   0   5    0.10    0.18
  -4   0  -5   -0.60    0.33
   4   0   5   -0.04    0.31
   4   0   5   -0.12    0.35
   4   0   6   17.16    0.99
   4   0   6   16.95    0.68
   4   0   6   17.06    1.05
  -4   0  -6   16.52    1.04
  -4   0  -7   -0.13    0.42
   4   0   7   -0.13    0.41
   4   0   7   -0.12    0.34
   4   0   8   75.06    2.51
   4   0   8   64.80    2.56
   4   0   9    0.06    0.48
   4   0   9    0.16    0.42
   4   0  10   24.24    1.32
   4   0  11    2.30    0.55
   4   0  12    7.27    0.90
  -4   1  14   12.05    1.17
  -4  -1  14   11.98    1.23
   4  -1 -14   14.17    0.70
   4   1 -13   18.51    0.73
  -4   1  13   14.95    1.23
   4  -1 -13   18.20    0.80
  -4  -1  13   15.69    1.25
   4   1 -12    8.04    0.49
  -4   1  12    7.86    0.90
   4   1 -12    7.62    0.86
   4  -1 -12    7.50    0.56
  -4  -1  12    8.33    0.96
  -4   1  11    1.96    0.59
  -4   1  11    2.04    0.61
   4   1 -11    2.09    0.29
   4   1 -11    1.49    0.59
  -4  -1  11    2.17    0.64
   4  -1 -11    2.31    0.55
   4  -1 -11    2.17    0.34
   4   1 -10   49.79    1.48
  -4   1  10   50.99    2.04
  -4   1  10   52.59    1.97
   4   1 -10   48.11    1.94
   4  -1 -10   49.30    1.88
  -4  -1  10   50.48    2.07
   4  -1 -10   50.42    1.54
   4   1  -9    6.82    0.40
  -4   1   9    8.11    0.78
  -4   1   9    8.10    0.77
   4   1  -9    7.52    0.75
   4  -1  -9    7.36    0.48
  -4  -1   9    7.56    0.77
   4  -1  -9    6.75    0.68
  -4   1   8  131.10    4.17
   4   1  -8  129.68    4.13
  -4   1   8  139.15    4.41
   4  -1  -8  130.39    4.13
  -4  -1   8  136.08    4.43
   4  -1  -8  136.13    3.66
   4   1  -7    9.48    0.77
  -4   1   7    8.49    0.75
  -4   1   7    8.91    0.84
   4  -1  -7    8.15    0.44
  -4  -1   7    8.89    0.82
   4  -1  -7    8.76    0.79
   4   1  -6  114.17    3.51
  -4   1   6  115.42    3.70
  -4   1   6  116.37    3.58
   4  -1  -6  117.14    3.55
   4  -1  -6  112.49    3.68
   4  -1  -6  113.61    3.08
  -4  -1   6  112.87    3.74
  -4   1   5   16.75    0.82
  -4   1   5   17.93    0.92
   4   1  -5   17.31    0.80
  -4   1   5   16.91    0.82
  -4  -1   5   16.43    0.86
   4  -1  -5   15.54    0.83
   4  -1  -5   15.84    0.81
  -4  -1   5   16.17    0.86
   4   1  -4   50.52    1.67
  -4   1   4   51.20    1.75
  -4   1   4   53.01    1.78
  -4   1   4   49.48    1.72
   4  -1  -4   51.55    1.70
  -4  -1   4   50.45    1.79
  -4  -1   4   51.65    1.80
   4  -1  -4   49.06    1.85
  -4   1   3  143.06    4.24
   4   1  -3  144.82    4.19
  -4   1   3  145.09    4.42
  -4   1   3  142.78    4.40
   4  -1  -3  142.45    4.22
   4  -1  -3  141.46    4.41
  -4  -1   3  142.78    4.49
  -4  -1   3  145.02    4.43
  -4   1   2  273.88    8.49
  -4   1   2  285.11    8.43
   4   1  -2  278.40    8.03
   4   1  -2  289.07    8.60
  -4   1   2  288.37    8.07
   4  -1  -2  280.22    8.41
   4   1  -1   74.72    2.42
   4   1  -1   72.79    2.21
  -4   1   1   77.50    2.28
  -4   1   1   72.83    2.33
   4  -1  -1   71.67    2.32
  -4   1   0   94.33    2.84
  -4   1   0   92.34    3.03
  -4   1   0   95.93    2.77
   4   1   0   88.68    2.70
   4   1   0   92.60    2.97
   4  -1   0   92.11    2.83
  -4   1  -1   18.63    0.69
  -4   1  -1   19.90    0.76
   4   1   1   19.04    0.83
  -4   1  -1   21.34    0.94
   4  -1   1   18.17    0.76
  -4  -1  -1   17.96    0.76
   4  -1   1   18.13    0.79
   4   1   2  194.92    6.20
  -4   1  -2  211.83    6.29
  -4   1  -2  200.25    5.71
   4   1   2  194.36    5.93
  -4  -1  -2  193.61    6.16
   4  -1   2  206.51    6.09
   4  -1   2  201.41    5.92
  -4   1  -3   64.51    1.93
  -4   1  -3   63.80    2.24
   4   1   3   64.22    2.19
   4   1   3   66.84    2.17
   4  -1   3   59.12    2.10
   4  -1   3   65.47    2.12
  -4  -1  -3   65.08    2.15
  -4   1  -4   71.04    2.14
  -4   1  -4   75.02    2.20
   4   1   4   75.72    2.52
  -4   1  -4   75.77    2.60
   4   1   4   73.56    2.46
   4  -1   4   70.10    2.04
   4  -1   4   79.10    2.48
  -4  -1  -4   73.33    2.48
  -4  -1  -4   70.97    2.33
   4  -1   4   77.22    2.44
   4   1   5   -0.23    0.33
  -4   1  -5    0.33    0.42
   4   1   5    0.48    0.39
  -4  -1  -5   -0.25    0.30
  -4  -1  -5   -0.08    0.36
   4  -1   5    0.24    0.31
   4  -1   5   -0.03    0.22
   4   1   6   87.50    2.92
  -4   1  -6   86.14    3.08
   4   1   6   87.34    3.01
   4  -1   6   86.80    2.48
   4  -1   6   88.65    2.96
  -4  -1  -6   85.34    2.96
   4   1   7    0.29    0.47
  -4   1  -7    0.50    0.51
   4   1   7    0.00    0.43
   4  -1   7   -0.26    0.41
   4  -1   7    0.02    0.32
   4   1   8   60.68    2.25
  -4   1  -8   57.07    2.27
   4   1   8   56.44    2.18
   4  -1   8   55.21    2.16
   4  -1   8   56.85    1.78
  -4   1  -9   29.09    1.50
   4   1   9   26.24    1.41
   4   1   9   26.27    1.40
   4  -1   9   26.61    1.06
   4  -1   9   25.43    1.34
   4   1  10    9.94    0.97
   4  -1  10    9.76    0.97
   4  -1  10    9.97    0.74
   4   1  11   16.32    1.18
   4  -1  11   13.82    1.10
   4  -1  11   14.80    0.87
   4   1  12    4.10    0.81
   4  -1  12    5.58    0.62
   4  -1  12    4.74    0.85
  -4   2  13   29.98    1.66
  -4  -2  13   30.12    1.71
   4  -2 -13   34.28    1.19
  -4   2  12    6.77    0.83
   4   2 -12    6.56    0.83
  -4  -2  12    6.21    0.87
   4  -2 -12    5.87    0.51
   4   2 -11    6.72    0.81
   4   2 -11    7.90    0.44
  -4   2  11    7.51    0.85
   4  -2 -11    6.80    1.03
  -4  -2  11    6.14    0.83
  -4   2  10    3.34    0.61
   4   2 -10    2.17    0.60
  -4   2  10    2.65    0.57
   4  -2 -10    3.26    0.38
  -4  -2  10    2.00    0.65
  -4   2   9   35.44    1.58
   4   2  -9   36.56    1.51
  -4   2   9   36.08    1.56
  -4  -2   9   35.62    1.63
   4  -2  -9   36.86    1.20
  -4   2   8    4.29    0.63
   4   2  -8    4.60    0.58
  -4   2   8    4.70    0.62
  -4  -2   8    4.54    0.65
   4  -2  -8    4.49    0.39
  -4   2   7   87.17    3.01
   4   2  -7   86.50    2.84
  -4   2   7   88.58    2.91
  -4  -2   7   89.51    3.07
   4  -2  -7   90.97    2.51
   4   2  -6    0.13    0.36
  -4   2   6    0.03    0.31
  -4   2   6    0.57    0.42
   4  -2  -6    0.33    0.20
  -4  -2   6    0.64    0.39
  -4   2   5   76.27    2.46
  -4   2   5   77.50    2.49
   4   2  -5   71.82    2.38
   4  -2  -5   75.66    2.08
  -4  -2   5   75.44    2.58
   4  -2  -5   70.68    2.52
  -4   2   4   44.05    1.63
  -4   2   4   47.62    1.57
   4   2  -4   45.85    1.57
  -4  -2   4   45.72    1.70
   4  -2  -4   45.89    1.30
   4  -2  -4   42.46    1.63
  -4   2   3  306.06    8.67
  -4   2   3  312.51    9.09
  -4   2   3  301.24    9.06
   4   2  -3  296.20    8.61
  -4   2   3  292.74    8.05
   4  -2  -3  296.99    9.05
   4  -2  -3  303.12    7.97
  -4   2   2    7.77    0.67
  -4   2   2    8.02    0.57
   4   2  -2    7.35    0.52
   4   2  -2    6.21    0.58
   4  -2  -2    7.58    0.51
  -4   2   1  388.02   11.43
   4   2  -1  398.62   11.72
   4   2  -1  367.00   10.89
  -4   2   1  384.22   10.95
   4  -2  -1  386.43   11.42
   4   2   0   63.44    2.12
   4   2   0   60.23    1.89
  -4   2   0   60.68    2.15
  -4   2   0   58.68    1.97
  -4   2   0   60.67    1.99
   4  -2   0   61.93    1.99
   4   2   1  155.30    4.59
   4   2   1  162.26    5.03
  -4   2  -1  154.80    4.32
  -4   2  -1  162.42    4.68
  -4   2  -1  159.45    5.08
   4  -2   1  160.08    4.81
   4  -2   1  161.18    4.26
  -4   2  -2   16.38    0.92
   4   2   2   15.99    0.83
  -4   2  -2   15.79    0.78
  -4   2  -2   16.03    0.63
   4   2   2   16.86    0.65
   4  -2   2   13.30    0.61
   4  -2   2   15.85    0.64
   4  -2   2   14.94    0.56
  -4   2  -3  137.40    4.02
  -4   2  -3  133.72    3.77
   4   2   3  133.37    3.92
  -4   2  -3  134.18    4.43
   4  -2   3  138.87    4.13
   4  -2   3  139.06    3.71
   4  -2   3  138.24    4.22
  -4   2  -4    5.13    0.62
  -4   2  -4    6.33    0.49
   4   2   4    5.54    0.57
   4  -2   4    5.76    0.46
   4  -2   4    6.11    0.55
  -4  -2  -4    6.38    0.57
   4   2   5   49.24    1.88
   4   2   5   47.15    1.83
  -4   2  -5   47.93    1.96
  -4   2  -5   49.05    1.62
  -4  -2  -5   49.33    1.74
   4  -2   5   46.48    1.74
   4  -2   5   47.67    1.49
   4   2   6   17.80    1.25
  -4   2  -6   18.71    1.25
   4   2   6   19.51    1.10
   4  -2   6   19.17    0.98
   4  -2   6   18.94    0.85
  -4   2  -7   28.60    1.45
   4   2   7   26.12    1.33
   4   2   7   27.17    1.40
   4  -2   7   25.18    1.03
   4  -2   7   24.80    1.21
   4   2   8    0.26    0.49
   4   2   8    0.25    0.46
  -4   2  -8    0.37    0.53
   4  -2   8    0.80    0.44
   4  -2   8    0.59    0.36
   4   2   9   27.89    1.48
  -4   2  -9   27.36    1.50
   4   2   9   26.83    1.44
   4  -2   9   28.98    1.15
   4  -2   9   27.15    1.37
   4   2  10    5.73    0.79
   4  -2  10    5.98    0.59
   4   2  11    2.45    0.68
   4  -2  11    3.76    0.57
   4   2  12    3.93    0.80
   4  -2  12    3.40    0.59
  -4   3  13    7.30    0.92
  -4  -3  13    6.42    0.99
  -4   3  12    1.84    0.61
   4   3 -12    0.97    0.60
  -4  -3  12    0.84    0.69
   4  -3 -12    0.99    0.39
  -4   3  11   29.00    1.48
   4  -3 -11   29.84    1.11
  -4  -3  11   27.84    1.57
  -4   3  10   -0.09    0.57
  -4   3  10    1.24    0.50
   4   3 -10    0.67    0.49
  -4  -3  10   -0.59    0.53
   4  -3 -10   -0.27    0.32
   4   3  -9   13.35    0.94
  -4   3   9   13.45    0.96
  -4   3   9   10.75    0.94
   4  -3  -9   13.55    0.68
  -4  -3   9   11.23    1.01
  -4   3   8   77.00    2.74
  -4   3   8   78.15    2.69
   4   3  -8   75.35    2.62
  -4  -3   8   77.50    2.82
   4  -3  -8   78.68    2.29
  -4   3   7    2.62    0.61
  -4   3   7    3.83    0.53
   4   3  -7    3.87    0.56
  -4  -3   7    3.67    0.60
   4  -3  -7    2.79    0.36
   4   3  -6    0.32    0.40
  -4   3   6    0.99    0.53
   4  -3  -6    0.42    0.29
  -4  -3   6    0.49    0.47
  -4   3   5   68.55    2.42
   4   3  -5   69.37    2.34
  -4  -3   5   72.68    2.55
   4  -3  -5   70.11    2.05
   4   3  -4    1.35    0.40
  -4   3   4    2.08    0.51
   4  -3  -4    1.38    0.28
  -4  -3   4    1.46    0.49
  -4   3   3   34.43    1.41
   4   3  -3   32.48    1.29
   4  -3  -3   30.34    1.33
   4  -3  -3   33.90    1.23
  -4   3   2    6.34    0.64
   4   3  -2    5.77    0.53
   4   3  -2    6.23    0.59
   4  -3  -2    6.11    0.57
   4  -3  -2    5.62    0.47
  -4   3   1   33.62    1.49
  -4   3   1   32.83    1.36
   4   3  -1   32.91    1.37
   4   3  -1   32.20    1.24
  -4   3   1   32.15    1.11
   4  -3  -1   33.22    1.06
   4  -3  -1   32.40    1.31
  -4   3   0    0.33    0.43
  -4   3   0    0.81    0.41
   4   3   0    0.58    0.31
   4   3   0    0.35    0.33
  -4   3   0    0.32    0.24
   4  -3   0    0.18    0.33
   4  -3   0    0.92    0.26
  -4   3  -1   44.72    1.69
  -4   3  -1   46.16    1.79
   4   3   1   46.46    1.76
   4   3   1   44.74    1.55
  -4   3  -1   43.47    1.43
   4  -3   1   44.98    1.39
   4  -3   1   46.53    1.62
   4   3   2    5.79    0.47
  -4   3  -2    5.68    0.61
   4   3   2    6.60    0.64
  -4   3  -2    5.37    0.61
   4  -3   2    6.85    0.52
   4  -3   2    5.79    0.53
  -4   3  -3   71.37    2.36
  -4   3  -3   70.07    2.62
   4   3   3   74.45    2.57
   4   3   3   69.52    2.23
   4  -3   3   72.30    2.10
   4   3   4    5.87    0.67
  -4   3  -4    4.63    0.56
  -4   3  -4    6.03    0.71
   4  -3   4    5.63    0.46
  -4   3  -5    7.82    0.65
  -4   3  -5    6.97    0.79
   4   3   5    7.17    0.76
   4  -3   5    7.49    0.67
  -4   3  -6    7.27    0.81
   4   3   6    6.86    0.74
   4  -3   6    8.73    0.66
  -4   3  -7   37.79    1.81
   4   3   7   38.31    1.69
   4   3   7   36.54    1.67
   4  -3   7   36.92    1.32
   4   3   8    7.17    0.82
  -4   3  -8    7.08    0.85
   4   3   8    7.82    0.85
   4  -3   8    7.02    0.59
   4   3   9   11.55    1.01
  -4   3  -9   11.05    1.12
   4  -3   9   10.38    0.78
   4   3  10    2.57    0.66
  -4   3 -10    5.03    0.80
   4  -3  10    2.83    0.55
   4   3  11   22.50    1.48
   4  -3  11   25.99    1.21
   4   4 -12    4.78    0.80
  -4  -4  12    5.26    0.95
   4   4 -11   10.70    1.02
   4  -4 -11   12.95    0.73
  -4  -4  11   14.82    1.07
   4   4 -10   18.08    1.18
  -4   4  10   21.21    1.44
  -4  -4  10   18.63    1.32
   4  -4 -10   20.28    0.92
  -4   4   9   30.64    1.59
   4   4  -9   28.30    1.38
  -4  -4   9   28.58    1.52
   4  -4  -9   28.55    1.12
   4   4  -8    8.22    0.82
  -4   4   8    8.34    0.93
  -4  -4   8    8.78    0.88
   4  -4  -8    8.39    0.64
   4   4  -7   23.17    1.19
   4  -4  -7   21.85    0.94
  -4  -4   7   23.23    1.31
  -4   4   6   20.40    1.27
   4   4  -6   20.31    1.09
  -4  -4   6   20.17    1.17
   4  -4  -6   18.91    0.86
   4   4  -5   33.29    1.40
  -4   4   5   34.93    1.56
   4  -4  -5   31.16    1.16
  -4  -4   5   31.99    1.51
  -4   4   4   38.63    1.72
   4   4  -4   37.58    1.55
  -4  -4   4   39.33    1.72
   4  -4  -4   38.54    1.43
   4   4  -3   35.46    1.48
  -4   4   3   37.60    1.64
  -4  -4   3   37.07    1.69
   4  -4  -3   38.15    1.29
  -4   4   2    0.38    0.57
  -4   4   2    0.99    0.57
   4   4  -2    1.06    0.44
   4   4  -2    0.88    0.41
   4  -4  -2    0.53    0.34
   4   4  -1   10.56    0.85
  -4   4   1   10.20    1.03
   4   4  -1   11.99    1.02
  -4   4   1   10.99    1.03
   4  -4  -1   10.33    0.68
   4   4   0    0.63    0.43
   4   4   0    0.67    0.41
  -4   4   0    0.76    0.57
  -4   4   0    0.18    0.48
   4  -4   0    0.59    0.36
   4   4   1  134.17    4.16
  -4   4  -1  138.59    4.57
  -4   4  -1  132.49    4.25
   4   4   1  140.55    4.54
   4  -4   1  139.53    3.85
  -4   4  -2   39.72    1.79
   4   4   2   37.49    1.50
  -4   4  -2   38.97    1.66
   4   4   2   39.18    1.69
   4  -4   2   40.59    1.35
  -4   4  -3    1.57    0.55
   4   4   3    1.19    0.48
  -4   4  -3    1.00    0.54
   4  -4   3    0.97    0.37
   4   4   4   26.88    1.37
  -4   4  -4   29.11    1.31
  -4   4  -4   26.94    1.49
   4  -4   4   27.39    1.07
  -4   4  -5   41.43    1.84
   4   4   5   38.05    1.75
  -4   4  -5   41.43    1.63
   4  -4   5   40.82    1.42
   4   4   6   17.01    1.19
  -4   4  -6   18.21    1.32
   4  -4   6   20.38    0.91
  -4   4  -7   16.73    1.34
   4  -4   7   18.32    0.95
  -4   4  -8   18.24    1.31
   4   4   8   14.99    1.07
   4   4   8   17.59    1.31
   4  -4   8   17.72    0.94
  -4   4  -9    6.06    0.88
   4   4   9    5.96    0.84
   4  -4   9    5.71    0.63
  -4   4 -10    7.45    1.02
   4   4  10    6.39    0.90
   4  -4  10    5.79    0.66
   4   5 -10   27.89    1.51
  -4  -5  10   32.43    1.72
   4   5  -9   -0.01    0.56
  -4   5   9   -0.92    0.67
  -4  -5   9   -0.83    0.59
   4  -5  -9    0.24    0.41
  -4   5   8   20.59    1.42
   4   5  -8   18.70    1.22
   4  -5  -8   21.97    0.99
  -4  -5   8   22.18    1.36
  -4   5   7    6.98    0.91
   4   5  -7    6.77    0.81
   4  -5  -7    6.63    0.60
  -4  -5   7    7.45    0.85
  -4   5   6   61.07    2.40
   4   5  -6   60.31    2.27
  -4  -5   6   61.66    2.42
   4  -5  -6   60.67    1.96
   4   5  -5    2.79    0.61
  -4   5   5    3.83    0.80
   4  -5  -5    3.05    0.69
  -4  -5   5    3.39    0.67
   4   5  -4   47.67    1.85
  -4   5   4   45.33    1.99
   4  -5  -4   47.38    1.59
  -4  -5   4   46.28    1.97
  -4   5   3    7.45    0.87
   4   5  -3    6.86    0.74
  -4  -5   3   10.95    0.98
   4  -5  -3    6.55    0.57
   4   5  -2   35.99    1.59
  -4   5   2   35.24    1.65
   4   5  -2   38.02    1.58
   4  -5  -2   37.56    1.33
   4   5  -1    2.73    0.58
  -4   5   1    2.36    0.66
   4   5  -1    2.31    0.52
   4  -5  -1    1.92    0.44
  -4   5   0   69.93    2.55
   4   5   0   70.46    2.64
  -4   5   0   72.12    2.68
   4   5   0   71.31    2.47
   4  -5   0   72.68    2.22
  -4   5  -1    7.36    0.83
   4   5   1    6.80    0.70
   4   5   1    5.48    0.71
  -4   5  -1    7.73    0.79
   4  -5   1    5.97    0.57
   4   5   2   37.46    1.70
  -4   5  -2   36.85    1.67
  -4   5  -2   38.21    1.80
   4   5   2   37.73    1.53
   4  -5   2   38.00    1.37
   4   5   3    2.22    0.59
  -4   5  -3    2.54    0.66
  -4   5  -3    2.89    0.65
   4  -5   3    2.59    0.47
   4   5   4   23.31    0.84
   4   5   4   26.48    1.39
  -4   5  -4   25.86    1.54
  -4   5  -4   25.91    1.34
   4  -5   4   25.91    1.08
  -4   5  -5    3.34    0.72
   4   5   5    2.59    0.65
  -4   5  -5    3.20    0.64
   4  -5   5    3.04    0.49
  -4   5  -6   40.58    1.95
  -4   5  -6   39.92    1.69
   4   5   6   40.93    1.89
   4  -5   6   38.33    1.45
  -4   5  -7    4.44    0.86
   4   5   7    4.63    0.81
   4  -5   7    5.11    0.61
   4   5   8   25.51    1.55
  -4   5  -8   25.41    1.24
  -4   5  -8   29.86    1.70
   4  -5   8   28.10    1.22
  -4   5  -9    0.13    0.47
   4   5   9    0.90    0.67
  -4   5  -9    2.03    0.78
   4   6  -8    7.18    0.95
  -4   6   8    8.65    1.07
   4   6  -7    0.72    0.62
  -4   6   7    1.70    0.82
   4  -6  -7    1.91    0.52
   4   6  -6    2.34    0.68
  -4   6   6    2.23    0.82
   4  -6  -6    3.61    0.55
   4   6  -5    4.44    0.78
  -4   6   5    4.42    0.85
   4  -6  -5    3.44    0.82
   4   6  -4   12.18    0.99
  -4   6   4   10.34    1.06
  -4  -6   4   12.62    1.18
   4  -6  -4   11.45    0.81
   4   6  -3    8.36    0.86
  -4   6   3    8.04    0.97
   4  -6  -3    8.54    0.70
  -4  -6   3    9.32    0.99
   4   6  -2    9.22    0.89
  -4   6   2    8.42    0.97
   4  -6  -2    9.03    0.76
   4   6  -1   12.32    0.99
   4   6  -1   14.15    1.06
  -4   6   1   15.32    1.21
   4  -6  -1   13.15    0.84
  -4   6   0   18.87    1.30
   4   6   0   22.70    1.25
   4   6   0   19.44    1.24
   4  -6   0   24.38    1.06
   4   6   1   22.56    1.31
   4   6   1   25.07    1.31
  -4   6  -1   22.06    1.37
   4  -6   1   22.28    1.08
  -4   6  -2   11.15    1.06
   4   6   2   11.17    0.98
   4   6   2    9.49    0.98
   4  -6   2    8.45    0.77
   4   6   3    1.38    0.61
  -4   6  -3    1.14    0.46
  -4   6  -3    2.56    0.70
   4  -6   3    1.85    0.49
  -4   6  -4    3.45    0.76
   4   6   4    3.28    0.74
  -4   6  -4    3.56    0.56
   4  -6   4    3.49    0.57
   4   6   5    0.74    0.60
  -4   6  -5    1.26    0.49
  -4   6  -5    1.06    0.65
   4  -6   5   -0.38    0.46
  -4   6  -6    9.49    0.85
   4   6   6    9.96    1.11
  -4   6  -6    9.06    0.95
  -4   7   3    5.04    0.66
  -4   7   2   15.49    0.99
   4   7  -2   15.21    1.17
  -4   7   2   14.44    1.26
  -4   7   1    3.53    0.84
   4   7  -1    4.15    0.77
  -4   7   0    4.27    0.65
  -4   7   0    5.11    0.88
   4   7   0    6.13    0.86
  -4   7  -1    5.27    0.65
   4   7   1    5.99    0.86
  -4   7  -1    5.84    0.93
  -5   0  14    3.72    0.84
  -5   0  13   -0.01    0.62
  -5   0  12   12.90    1.10
   5   0 -12   12.45    1.04
   5   0 -11   -0.13    0.51
  -5   0  11   -0.17    0.51
   5   0 -10    3.22    0.61
  -5   0  10    4.98    0.70
   5   0  -9    0.14    0.44
  -5   0   9    0.78    0.46
  -5   0   8   88.73    3.09
   5   0  -8   88.82    2.94
  -5   0   7   -0.22    0.36
   5   0  -7    0.34    0.42
   5   0  -6   78.95    4.11
   5   0  -6   86.49    2.76
  -5   0   6   85.93    2.86
  -5   0   5   -0.19    0.26
   5   0  -5    0.24    0.34
   5   0  -5    0.21    0.73
   5   0  -4   20.19    1.70
  -5   0   4   21.54    0.95
   5   0  -4   21.59    0.95
  -5   0   4   19.95    1.60
  -5   0   3   -0.01    0.21
  -5   0   3   -0.15    0.23
   5   0  -3    0.08    0.28
   5   0  -3   -0.20    0.26
  -5   0   2   42.25    1.51
   5   0  -2   44.35    1.46
   5   0  -1    0.03    0.24
   5   0  -1    0.34    0.38
   5   0  -1    0.29    0.22
  -5   0   1   -0.34    0.38
  -5   0   0    8.37    0.50
   5   0   0    9.55    0.49
   5   0   0    8.60    0.67
  -5   0   0    9.63    0.66
   5   0   0    9.10    0.53
   5   0   1   -0.04    0.29
   5   0   1   -0.01    0.19
  -5   0  -1   -0.30    0.25
  -5   0  -1   -0.26    0.21
  -5   0  -1    0.00    0.18
   5   0   1   -0.01    0.20
  -5   0  -2   92.82    2.85
   5   0   2   93.72    3.00
  -5   0  -2   95.36    3.10
   5   0   2   95.11    3.04
   5   0   3    0.11    0.24
   5   0   3   -0.19    0.32
  -5   0  -3    0.13    0.29
  -5   0  -4  163.52    5.34
   5   0   4  161.41    5.11
   5   0   4  176.72    5.28
  -5   0  -5    0.13    0.42
   5   0   5    0.16    0.34
   5   0   5    0.28    0.43
   5   0   6   18.82    1.18
  -5   0  -6   18.54    1.15
   5   0   6   20.80    1.06
  -5   0  -7   -0.63    0.46
   5   0   7   -0.43    0.41
   5   0   7    0.42    0.49
   5   0   7   -0.29    0.21
   5   0   8  109.07    3.61
   5   0   8  109.29    3.74
   5   0   8  106.65    3.01
  -5   0  -8  110.23    3.78
   5   0   9    0.24    0.50
   5   0   9   -0.34    0.29
   5   0   9    0.06    0.55
   5   0  10   65.52    2.51
   5   0  10   66.48    1.99
   5   0  10   66.64    2.59
   5   0  11    0.17    0.36
   5   0  11   -0.22    0.56
   5   0  12   12.12    1.15
   5   0  12   14.72    0.83
  -5   1  14    9.30    1.09
  -5  -1  14   11.05    1.19
  -5   1  13   20.74    1.36
  -5  -1  13   22.01    1.43
   5   1 -12   13.82    1.13
  -5   1  12   16.07    1.25
  -5   1  12   17.38    1.17
  -5  -1  12   17.37    1.22
   5   1 -11    3.90    0.69
  -5   1  11    3.30    0.69
  -5   1  11    3.89    0.70
  -5  -1  11    2.02    0.66
   5  -1 -11    3.59    0.64
  -5   1  10   40.62    1.72
  -5   1  10   36.40    1.68
   5   1 -10   37.98    1.68
   5  -1 -10   37.55    1.62
  -5  -1  10   39.04    1.74
  -5   1   9   -0.24    0.41
   5   1  -9   -0.10    0.46
  -5   1   9   -0.21    0.50
  -5  -1   9    0.31    0.47
   5  -1  -9    0.11    0.46
  -5   1   8   86.24    2.94
  -5   1   8   81.61    2.86
   5   1  -8   85.47    2.81
  -5  -1   8   83.06    2.96
   5  -1  -8   81.10    2.80
   5   1  -7    2.23    0.51
  -5   1   7    1.88    0.44
  -5   1   7    0.83    0.53
  -5  -1   7    1.32    0.47
   5  -1  -7    1.15    0.48
  -5   1   6  125.15    3.94
   5   1  -6  124.24    3.77
  -5   1   6  120.20    3.82
  -5  -1   6  123.32    3.99
   5  -1  -6  117.87    3.78
  -5   1   5    7.66    0.63
   5   1  -5    6.36    0.57
  -5   1   5    6.80    0.64
   5  -1  -5    6.45    0.60
  -5  -1   5    6.84    0.68
   5  -1  -5    7.14    0.59
   5   1  -4   97.28    2.97
  -5   1   4   93.61    3.12
  -5   1   4   95.56    3.07
  -5   1   4   96.55    3.04
  -5  -1   4   98.87    3.18
  -5  -1   4  101.03    3.17
   5  -1  -4   95.62    3.11
   5  -1  -4   95.13    3.00
  -5   1   3   35.48    1.26
   5   1  -3   37.41    1.28
  -5   1   3   34.51    1.34
  -5   1   3   35.79    1.33
   5  -1  -3   35.66    1.32
  -5  -1   3   37.24    2.27
   5  -1  -3   33.26    1.29
  -5  -1   3   36.62    1.39
   5   1  -2  232.56    7.01
  -5   1   2  226.94    6.89
  -5   1   2  231.18    6.88
  -5   1   2  228.49    6.59
   5   1  -2  225.42    6.54
   5  -1  -2  222.31    6.84
  -5   1   1   76.07    2.36
  -5   1   1   76.14    2.43
  -5   1   1   76.85    2.38
   5   1  -1   76.82    2.52
   5   1  -1   73.68    2.30
  -5   1   0   19.98    1.02
  -5   1   0   19.86    0.79
   5   1   0   20.28    0.90
   5   1   0   19.87    0.77
  -5   1   0   20.98    0.87
   5  -1   0   22.00    0.92
   5  -1   0   19.86    1.12
   5  -1   0   20.65    0.76
  -5  -1   0   21.16    0.87
  -5   1  -1    9.99    0.58
   5   1   1    9.37    0.71
  -5   1  -1    9.38    0.73
   5   1   1   10.03    0.65
   5   1   1    8.96    0.46
  -5   1  -1    9.01    0.45
  -5  -1  -1    8.37    0.59
   5  -1   1    9.53    0.70
   5  -1   1   10.14    0.47
   5  -1   1    9.44    0.48
   5   1   2   19.36    0.86
  -5   1  -2   16.44    0.94
   5   1   2   15.42    0.88
  -5   1  -2   15.96    0.59
  -5   1  -2   16.77    0.76
   5  -1   2   17.36    0.72
  -5  -1  -2   17.90    0.83
   5  -1   2   16.40    0.90
  -5   1  -3   83.00    2.50
   5   1   3   74.99    2.79
   5   1   3   85.99    2.77
  -5   1  -3   84.14    2.88
  -5  -1  -3   82.83    2.77
   5  -1   3   90.28    2.72
   5  -1   3   85.79    2.74
   5   1   4   56.73    2.05
  -5   1  -4   60.06    2.18
   5   1   4   57.47    2.05
  -5  -1  -4   56.99    2.03
   5  -1   4   55.52    2.00
  -5  -1  -4   50.96    1.83
   5  -1   4   58.54    1.97
  -5   1  -5   25.60    1.38
   5   1   5   24.75    1.21
   5   1   5   24.27    1.31
  -5  -1  -5   25.88    1.22
   5  -1   5   25.73    1.28
   5  -1   5   26.34    1.16
  -5   1  -6   60.12    2.30
   5   1   6   61.99    2.20
   5   1   6   57.63    2.18
   5  -1   6   56.98    2.13
   5  -1   6   53.85    1.65
  -5  -1  -6   59.55    2.16
   5   1   7    0.33    0.49
   5   1   7    0.24    0.45
  -5   1  -7    0.22    0.52
   5  -1   7    1.00    0.27
   5  -1   7    1.12    0.36
   5   1   8   14.42    1.12
   5   1   8   13.50    1.00
   5   1   8   12.50    0.54
  -5   1  -8   13.57    1.12
   5  -1   8   12.34    0.89
   5  -1   8   11.88    0.65
   5   1   9   26.33    0.92
   5   1   9   27.32    1.42
  -5   1  -9   27.16    1.50
   5   1   9   27.63    1.47
   5  -1   9   27.39    1.01
   5  -1   9   23.44    1.30
   5   1  10   11.39    0.64
   5   1  10   11.49    1.01
   5  -1  10   10.22    0.89
   5  -1  10   12.73    0.75
   5   1  11    2.43    0.40
   5   1  11    1.23    0.65
   5  -1  11    2.24    0.44
   5   1  12    2.93    0.77
   5  -1  12    1.81    0.45
  -5   2  13   25.99    1.52
   5   2 -13   28.20    1.56
  -5  -2  13   26.29    1.58
  -5   2  12    1.36    0.59
   5   2 -12    0.82    0.61
  -5  -2  12    0.98    0.66
   5   2 -11   23.89    1.37
  -5   2  11   28.43    1.43
  -5   2  11   26.19    1.47
   5  -2 -11   26.77    0.90
  -5  -2  11   25.68    1.47
  -5   2  10    6.56    0.81
  -5   2  10    6.92    0.77
   5   2 -10    6.30    0.76
  -5  -2  10    7.53    0.86
   5  -2 -10    7.28    0.44
   5   2  -9   65.48    2.39
  -5   2   9   69.81    2.51
  -5   2   9   69.10    2.46
   5  -2  -9   68.31    1.91
  -5  -2   9   65.61    2.54
  -5   2   8    3.04    0.52
   5   2  -8    2.11    0.51
  -5   2   8    1.97    0.57
  -5  -2   8    2.87    0.59
   5   2  -7   75.84    2.58
  -5   2   7   77.79    2.67
  -5   2   7   79.61    2.69
  -5  -2   7   77.51    2.77
  -5   2   6    4.69    0.63
   5   2  -6    4.44    0.54
  -5   2   6    5.17    0.51
  -5  -2   6    5.28    0.63
  -5   2   5   12.70    0.92
  -5   2   5   12.72    0.74
   5   2  -5   12.76    0.77
  -5  -2   5   10.87    0.89
  -5   2   4   32.79    1.34
  -5   2   4   31.30    1.14
   5   2  -4   28.62    1.16
   5  -2  -4   26.37    1.21
  -5  -2   4   31.12    1.33
   5   2  -3  122.64    3.72
  -5   2   3  128.09    3.83
  -5   2   3  127.04    3.81
   5  -2  -3  119.02    3.92
  -5   2   2    5.31    0.51
   5   2  -2    4.50    0.42
  -5   2   2    5.36    0.54
   5  -2  -2    4.98    0.47
  -5   2   1  309.06    8.50
   5   2  -1  301.03    8.41
  -5   2   1  300.40    8.84
   5   2  -1  278.85    9.05
   5  -2  -1  284.81    8.81
   5   2   0   78.74    2.46
  -5   2   0   84.17    2.58
   5   2   0   80.04    2.74
  -5   2   0   82.57    2.61
  -5   2   0   79.18    2.80
   5  -2   0   82.89    2.59
  -5   2  -1  102.11    3.19
   5   2   1  105.64    3.40
  -5   2  -1  101.56    3.45
   5   2   1   98.94    3.04
  -5   2  -1  104.38    3.15
   5  -2   1  104.71    3.18
  -5   2  -2    0.67    0.36
   5   2   2    0.12    0.19
  -5   2  -2    0.26    0.38
   5   2   2   -0.28    0.29
   5  -2   2    0.16    0.22
  -5   2  -3   86.68    3.01
  -5   2  -3   86.52    2.67
   5   2   3   84.08    2.93
  -5   2  -4   16.12    1.11
   5   2   4   14.76    1.06
   5   2   4   15.23    0.96
  -5   2  -4   15.19    0.83
  -5  -2  -4   16.13    0.84
   5  -2   4   14.79    0.57
   5   2   5   30.52    1.51
  -5   2  -5   31.76    1.55
   5   2   5   31.72    1.43
   5  -2   5   30.30    1.00
  -5   2  -6    8.54    0.89
   5   2   6    9.31    0.86
   5   2   6    8.64    0.82
   5  -2   6    9.79    0.57
   5   2   7    6.74    0.77
  -5   2  -7    6.25    0.78
   5   2   7    5.73    0.72
   5  -2   7    6.42    0.53
  -5   2  -8    4.93    0.78
   5   2   8    5.76    0.74
   5   2   8    6.46    0.77
   5  -2   8    5.49    0.46
  -5   2  -9    6.54    0.87
   5   2   9    7.82    0.84
   5   2   9    5.46    0.78
   5  -2   9    6.81    0.53
  -5   2 -10    1.36    0.65
   5   2  10    0.91    0.57
   5  -2  10    0.30    0.38
   5   2  11    7.09    0.92
   5  -2  11    8.42    0.75
   5   3 -12    0.28    0.58
  -5  -3  12   -0.96    0.62
   5  -3 -12    0.11    0.30
   5   3 -11   25.45    1.43
  -5   3  11   29.01    1.55
  -5  -3  11   29.62    1.56
   5  -3 -11   30.32    1.36
   5   3 -10    1.29    0.56
  -5   3  10    1.93    0.68
   5  -3 -10    2.23    0.33
  -5  -3  10    1.95    0.65
   5   3  -9    0.39    0.48
  -5   3   9    0.65    0.60
  -5  -3   9    0.20    0.54
   5  -3  -9    0.66    0.28
  -5   3   8   10.81    0.92
   5   3  -8    8.70    0.84
  -5  -3   8   10.37    0.95
   5  -3  -8   10.29    0.54
  -5   3   7   24.07    1.33
   5   3  -7   24.52    1.16
   5  -3  -7   21.85    0.80
  -5  -3   7   22.63    1.25
  -5   3   6    7.34    0.78
   5   3  -6    5.82    0.64
   5  -3  -6    6.93    0.44
  -5  -3   6    8.47    0.78
  -5   3   5   32.52    1.51
   5   3  -5   33.94    1.37
  -5  -3   5   33.25    1.52
   5  -3  -5   32.92    1.02
  -5   3   4   15.36    1.08
   5   3  -4   13.71    0.86
  -5  -3   4   15.11    1.05
   5  -3  -4   14.39    0.56
  -5   3   3   22.20    1.23
   5   3  -3   25.02    1.15
   5   3  -3   23.15    1.06
   5  -3  -3   23.54    0.75
  -5   3   2    9.46    0.80
   5   3  -2    9.09    0.72
   5  -3  -2    8.23    0.41
   5  -3  -2   10.08    0.68
  -5   3   1   33.96    1.49
   5   3  -1   36.08    1.51
  -5   3   1   36.08    1.62
   5   3  -1   34.48    1.34
   5  -3  -1   35.94    1.13
   5  -3  -1   36.61    1.41
  -5   3   0   -0.43    0.42
   5   3   0   -0.21    0.30
   5   3   0   -0.23    0.34
  -5   3   0   -0.05    0.48
   5  -3   0    0.20    0.19
   5  -3   0   -0.33    0.28
  -5   3  -1  124.77    3.78
   5   3   1  121.64    4.02
   5   3   1  118.10    3.63
  -5   3  -1  124.11    4.10
   5  -3   1  117.51    3.80
   5  -3   1  121.85    3.30
  -5   3  -2   20.11    1.12
   5   3   2   22.26    1.15
  -5   3  -2   20.55    1.25
   5   3   2   21.54    0.90
   5  -3   2   21.14    0.75
   5   3   3   55.52    2.15
  -5   3  -3   55.59    1.98
  -5   3  -3   58.63    2.29
   5  -3   3   55.61    1.66
  -5   3  -4   34.83    1.73
  -5   3  -4   35.12    1.42
   5   3   4   34.60    1.55
   5  -3   4   33.26    1.13
  -5   3  -5   35.52    1.71
   5  -3   5   36.19    1.19
  -5   3  -6    1.66    0.66
   5   3   6    2.52    0.61
   5   3   6    2.58    0.57
   5  -3   6    2.45    0.38
   5   3   7   33.81    1.63
  -5   3  -7   33.91    1.73
   5   3   7   35.06    1.73
   5  -3   7   34.45    1.21
   5   3   8    4.85    0.76
  -5   3  -8    5.12    0.82
   5   3   8    5.32    0.76
   5  -3   8    5.97    0.53
   5   3   9   15.19    1.15
   5   3   9   16.79    1.34
  -5   3  -9   15.45    1.26
   5  -3   9   16.58    0.87
   5   3  10    0.11    0.55
  -5   3 -10   -0.16    0.64
   5  -3  10   -0.06    0.41
   5   3  11   27.61    1.61
   5   4 -11    6.59    0.86
   5  -4 -11    8.96    0.60
  -5  -4  11    7.45    0.98
   5   4 -10    3.77    0.70
  -5   4  10    4.17    0.83
   5  -4 -10    4.48    0.45
  -5  -4  10    3.42    0.76
  -5   4   9   29.43    1.57
   5   4  -9   27.79    1.42
  -5  -4   9   28.14    1.55
   5  -4  -9   29.16    1.04
  -5   4   8    6.37    0.86
   5   4  -8    6.81    0.76
  -5  -4   8    6.61    0.82
   5  -4  -8    7.06    0.54
  -5   4   7    3.94    0.74
   5   4  -7    3.21    0.61
   5  -4  -7    3.89    0.39
  -5  -4   7    2.75    0.65
  -5   4   6   45.63    1.91
   5   4  -6   45.20    1.79
   5  -4  -6   44.90    1.43
  -5  -4   6   45.82    1.95
  -5   4   5   88.62    3.05
   5   4  -5   87.51    2.96
  -5  -4   5   87.68    3.15
   5  -4  -5   90.75    2.55
   5   4  -4   16.13    1.01
  -5   4   4   18.67    1.21
   5  -4  -4   16.78    0.72
  -5  -4   4   17.53    1.20
   5   4  -3   11.06    0.86
   5   4  -3   12.28    0.85
  -5   4   3   10.69    0.94
   5  -4  -3   11.27    0.71
  -5   4   2    3.26    0.67
   5   4  -2    3.74    0.55
  -5   4   2    3.30    0.68
   5   4  -2    2.16    0.52
   5  -4  -2    2.88    0.36
   5   4  -1   30.00    1.59
   5   4  -1   29.80    1.30
  -5   4   1   28.87    1.48
  -5   4   1   29.99    1.55
   5  -4  -1   30.33    1.04
  -5   4   0   14.95    1.23
  -5   4   0   14.96    1.18
   5   4   0   15.75    1.03
   5   4   0   14.02    0.90
   5  -4   0   15.60    0.72
  -5   4  -1   16.97    1.25
   5   4   1   16.89    1.08
  -5   4  -1   15.19    1.10
   5   4   1   17.11    0.95
   5  -4   1   16.54    0.74
   5   4   2   20.40    1.16
  -5   4  -2   20.22    1.21
  -5   4  -2   21.67    1.36
   5  -4   2   20.51    0.85
  -5   4  -3    5.49    0.69
  -5   4  -3    5.44    0.74
   5   4   3    5.11    0.70
   5  -4   3    5.32    0.46
  -5   4  -4   16.25    1.05
   5   4   4   15.53    1.10
  -5   4  -4   14.99    1.21
   5  -4   4   16.69    0.77
  -5   4  -5   32.88    1.71
  -5   4  -5   33.68    1.44
   5   4   5   31.28    1.57
   5  -4   5   32.73    1.19
   5   4   6   22.84    1.34
  -5   4  -6   23.86    1.54
   5  -4   6   23.66    0.98
  -5   4  -7    8.66    0.98
   5   4   7    8.66    0.93
   5   4   7    7.33    0.90
   5  -4   7    6.67    0.59
   5   4   8   17.59    1.42
  -5   4  -8   19.87    1.42
   5   4   8   16.36    1.03
   5  -4   8   17.45    0.90
   5   4   9    7.41    0.95
  -5   4  -9    6.40    0.98
   5  -4   9    6.57    0.62
   5   4  10   23.62    1.48
  -5   4 -10   25.71    1.66
  -5   5  10   24.32    1.65
   5   5 -10   22.61    1.41
  -5  -5  10   26.84    1.63
   5  -5 -10   28.85    1.05
  -5   5   9    1.36    0.79
   5   5  -9    0.61    0.60
   5  -5  -9    1.24    0.41
  -5  -5   9    0.91    0.70
   5   5  -8   29.56    1.51
  -5   5   8   31.56    1.72
   5  -5  -8   31.39    1.17
  -5  -5   8   31.90    1.65
   5   5  -7    8.54    0.88
  -5   5   7    8.29    0.99
  -5  -5   7    9.39    0.98
   5  -5  -7    8.80    0.65
  -5   5   6   40.70    1.93
   5   5  -6   41.87    1.81
  -5  -5   6   44.84    1.95
   5  -5  -6   44.34    1.46
  -5   5   5    1.30    0.68
   5   5  -5    1.08    0.54
   5  -5  -5    0.93    0.38
  -5  -5   5    2.06    0.66
   5   5  -4   32.09    1.43
  -5   5   4   27.60    1.56
  -5  -5   4   30.53    1.57
   5  -5  -4   30.00    1.13
   5   5  -3    4.41    0.66
  -5   5   3    3.91    0.77
   5  -5  -3    4.96    0.48
  -5  -5   3    6.20    0.79
   5   5  -2   45.50    1.89
  -5   5   2   43.01    2.03
  -5   5   2   45.31    1.93
   5   5  -2   46.87    1.81
   5  -5  -2   45.73    1.50
   5   5  -1    2.03    0.54
  -5   5   1    1.80    0.65
  -5   5   1    2.95    0.70
   5   5  -1    2.17    0.55
   5  -5  -1    1.84    0.41
  -5   5   0   36.64    1.71
   5   5   0   36.68    1.69
  -5   5   0   38.68    1.79
   5   5   0   36.26    1.54
   5  -5   0   37.50    1.31
  -5   5  -1   -0.53    0.58
  -5   5  -1    0.48    0.57
   5   5   1    0.40    0.47
   5   5   1   -0.55    0.40
   5  -5   1   -0.09    0.35
   5   5   2   21.71    1.28
  -5   5  -2   22.86    1.29
  -5   5  -2   21.31    1.48
   5  -5   2   23.64    0.99
   5   5   3    0.37    0.50
  -5   5  -3    0.60    0.58
  -5   5  -3   -0.39    0.58
   5  -5   3    0.19    0.37
  -5   5  -4    9.06    0.89
   5   5   4    9.70    0.98
  -5   5  -4    8.39    0.95
   5  -5   4    9.74    0.72
  -5   5  -5   -0.90    0.59
  -5   5  -5   -0.24    0.54
   5   5   5    0.53    0.56
   5  -5   5    0.05    0.38
   5   5   6   26.46    1.58
  -5   5  -6   32.83    1.79
   5  -5   6   30.85    1.21
  -5   5  -7    4.94    0.92
   5   5   7    5.66    0.90
   5  -5   7    4.45    0.56
   5   5   8    5.32    0.92
  -5   5  -8    5.02    0.95
   5   5   8    4.74    0.88
  -5   6   7    2.83    0.88
   5   6  -7    2.95    0.75
   5  -6  -7    1.79    0.47
  -5  -6   7    1.89    0.75
   5   6  -6    3.30    0.73
  -5   6   6    3.72    0.91
  -5  -6   6    4.21    0.83
   5  -6  -6    4.48    0.54
   5   6  -5    0.83    0.64
  -5   6   5    1.60    0.79
   5  -6  -5    1.41    0.45
  -5  -6   5    2.03    0.74
  -5   6   4   14.72    1.26
   5   6  -4   16.86    1.16
   5  -6  -4   15.43    1.15
  -5  -6   4   16.15    1.27
   5   6  -3    3.42    0.68
  -5   6   3    1.95    0.75
   5  -6  -3    2.48    0.48
  -5  -6   3    3.44    0.81
  -5   6   2    7.34    0.93
   5   6  -2    6.81    0.81
   5   6  -2    8.61    0.87
   5  -6  -2    6.72    0.61
  -5   6   1   17.95    1.30
   5   6  -1   16.08    1.14
   5   6  -1   19.05    1.16
   5  -6  -1   17.95    0.92
   5   6   0   18.51    1.24
   5   6   0   22.27    1.22
  -5   6   0   20.10    1.33
   5  -6   0   21.35    0.99
  -5   6  -1    8.92    0.99
   5   6   1    8.44    0.94
   5   6   1    9.26    0.86
   5  -6   1   10.02    0.77
  -5   6  -2    8.87    0.98
   5   6   2   10.31    1.01
   5  -6   2    9.07    0.77
   5   6   3    0.03    0.54
  -5   6  -3    1.31    0.68
   5  -6   3    0.27    0.44
  -5   6  -4   20.82    1.32
   5   6   4   17.37    1.30
   5  -6   4   19.89    1.00
  -5   6  -5    8.67    0.96
   5   6   5    7.09    0.95
   5  -6   5    7.90    0.69
  -6   0  14   16.32    1.33
   6   0 -13    0.87    0.63
  -6   0  13    0.05    0.63
   6   0 -12   -0.21    0.57
  -6   0  12    1.46    0.66
   6   0 -11    0.83    0.58
  -6   0  11    0.35    0.55
   6   0 -10   15.91    1.09
  -6   0  10   15.62    1.11
   6   0  -9   -0.24    0.46
  -6   0   9   -0.19    0.43
  -6   0   8   29.85    1.43
   6   0  -8   34.08    1.47
  -6   0   7   -0.90    0.35
   6   0  -7   -0.31    0.44
   6   0  -6   51.79    1.92
  -6   0   6   54.29    1.99
   6   0  -5   -0.01    0.37
   6   0  -5   -0.55    0.34
  -6   0   5    0.17    0.30
  -6   0   4  273.55    8.36
   6   0  -4  271.70    7.91
  -6   0   3   -0.07    0.26
  -6   0   3    0.09    0.24
   6   0  -3   -0.31    0.27
   6   0  -3    0.06    0.29
  -6   0   2  122.19    3.75
   6   0  -2  116.53    3.57
   6   0  -1    0.15    0.31
   6   0  -1   -0.32    0.24
  -6   0   1    0.00    0.24
   6   0  -1    0.01    0.46
   6   0   0  103.47    3.15
   6   0   0  100.62    2.98
  -6   0   0   93.22    3.28
   6   0   0  102.35    3.19
  -6   0   0   99.14    3.68
  -6   0  -1   -0.51    0.28
  -6   0  -1    0.11    0.30
  -6   0  -1   -0.26    0.25
   6   0   1    0.11    0.33
   6   0   1    0.01    0.23
   6   0   2   90.76    2.87
   6   0   2   89.87    2.86
  -6   0  -2   89.25    2.96
  -6   0  -2   84.76    2.77
  -6   0  -2   82.20    2.57
  -6   0  -3   -0.42    0.36
   6   0   3    0.32    0.27
   6   0   3    0.30    0.42
   6   0   4   32.08    1.33
   6   0   4   30.29    1.47
  -6   0  -4   32.05    1.47
   6   0   5   -0.79    0.47
  -6   0  -5   -0.03    0.45
   6   0   5   -0.51    0.36
   6   0   6   69.48    2.57
  -6   0  -6   72.80    2.69
   6   0   6   73.03    2.58
   6   0   7   -0.42    0.48
  -6   0  -7   -0.17    0.47
   6   0   7    0.26    0.43
   6   0   8  120.67    4.08
   6   0   8  117.59    3.97
  -6   0  -8  120.14    4.14
   6   0   9    0.57    0.52
  -6   0  -9   -0.26    0.53
   6   0   9    0.36    0.60
   6   0  10   29.57    1.61
   6   0  10   27.01    1.47
   6   0  11   -0.24    0.55
  -6   1  13    4.39    0.83
   6   1 -13    4.22    0.78
  -6  -1  13    3.90    0.85
   6   1 -12   13.48    1.13
  -6   1  12   14.67    1.22
  -6   1  12   12.90    1.10
  -6  -1  12   12.01    1.14
   6   1 -11    2.79    0.70
  -6   1  11    3.12    0.69
  -6   1  11    1.97    0.63
  -6  -1  11    4.09    0.73
   6  -1 -11    4.11    0.70
  -6   1  10   24.49    1.42
   6   1 -10   24.88    1.36
  -6   1  10   26.21    1.35
   6  -1 -10   23.20    1.30
  -6  -1  10   26.03    1.37
  -6   1   9   12.18    0.96
  -6   1   9   11.69    0.99
   6   1  -9   10.69    0.93
  -6  -1   9   10.76    0.95
   6  -1  -9    9.82    0.94
  -6   1   8   67.34    2.43
  -6   1   8   65.12    2.42
   6   1  -8   65.71    2.37
  -6  -1   8   67.97    2.48
   6  -1  -8   64.67    2.36
  -6   1   7   16.45    1.17
  -6   1   7   16.52    1.01
   6   1  -7   17.64    1.03
   6  -1  -7   17.21    1.05
  -6  -1   7   17.86    1.11
  -6   1   6   36.15    1.44
   6   1  -6   34.33    1.41
  -6   1   6   32.04    1.51
   6  -1  -6   33.09    1.43
  -6  -1   6   34.22    1.48
   6   1  -5    1.31    0.41
  -6   1   5    0.71    0.31
  -6   1   5    0.51    0.45
   6  -1  -5    0.27    0.40
  -6  -1   5    0.42    0.38
  -6   1   4  114.45    3.47
   6   1  -4  109.66    3.39
  -6   1   4  110.92    3.50
  -6  -1   4  110.16    3.61
   6  -1  -4  109.04    3.41
   6  -1  -4  106.49    3.54
  -6   1   3   13.11    0.84
  -6   1   3   13.65    0.76
  -6   1   3   13.16    0.66
   6   1  -3   13.04    0.75
   6  -1  -3   13.95    0.73
  -6  -1   3   11.29    0.78
   6   1  -2   54.30    1.92
  -6   1   2   54.93    1.86
  -6   1   2   53.40    1.79
  -6   1   2   52.44    1.87
   6   1  -2   55.34    1.79
  -6  -1   2   56.36    2.13
   6  -1  -2   53.77    1.86
  -6   1   1   12.00    0.75
   6   1  -1   11.58    0.70
   6   1  -1   11.18    0.63
  -6   1   1   10.92    0.60
   6   1  -1   12.06    0.72
   6  -1  -1   11.74    0.71
   6  -1  -1    8.72    0.58
  -6   1   0    5.41    0.56
   6   1   0    8.26    0.62
  -6   1   0    7.67    0.48
  -6   1   0    8.21    0.62
   6   1   0    8.73    0.52
   6   1   0    8.54    0.73
   6  -1   0    8.29    0.51
   6  -1   0    8.28    0.70
   6  -1   0    8.44    0.46
  -6  -1   0    7.38    0.58
  -6   1  -1  113.61    3.36
   6   1   1  114.91    3.30
   6   1   1  116.87    3.66
  -6   1  -1  103.76    3.42
   6   1   1  114.79    3.55
  -6   1  -1  110.58    3.72
  -6  -1  -1  107.49    3.60
   6  -1   1  113.56    3.53
   6  -1   1  116.07    3.51
   6   1   2   23.05    1.05
  -6   1  -2   19.62    1.12
   6   1   2   21.48    1.16
  -6   1  -2   18.97    0.90
   6  -1   2   20.62    1.12
   6  -1   2   22.09    0.89
  -6  -1  -2   21.48    1.01
   6   1   3  134.46    4.27
   6   1   3  134.48    4.40
  -6   1  -3  132.34    4.49
   6  -1   3  139.05    4.29
   6  -1   3  138.15    4.28
  -6  -1  -3  138.64    4.38
   6   1   4   13.49    1.08
   6   1   4   12.30    0.85
  -6   1  -4   13.19    1.12
   6  -1   4   12.59    0.77
  -6  -1  -4   12.85    0.94
   6  -1   4   12.08    1.05
  -6   1  -5    2.07    0.58
   6   1   5    2.43    0.52
   6   1   5    3.14    0.59
  -6  -1  -5    3.21    0.54
   6  -1   5    2.27    0.58
   6  -1   5    2.63    0.45
  -6   1  -6   20.27    1.32
   6   1   6   22.24    1.20
   6   1   6   21.30    1.31
   6  -1   6   20.22    1.08
  -6  -1  -6   21.28    1.20
   6  -1   6   20.19    1.28
  -6   1  -7   20.98    1.32
   6   1   7   19.70    1.17
   6   1   7   22.58    1.32
  -6  -1  -7   20.58    1.20
   6  -1   7   21.64    1.11
   6   1   8    7.86    0.88
  -6   1  -8    7.23    0.85
   6   1   8    8.98    0.88
   6  -1   8    6.34    0.72
  -6   1  -9    9.88    1.00
   6   1   9    8.78    0.92
   6   1   9    9.86    0.95
   6  -1   9    9.90    0.94
  -6   1 -10    9.55    1.03
   6   1  10   11.91    1.04
   6   1  10   12.29    1.19
   6   1  11    1.35    0.65
   6   2 -13   24.20    1.50
  -6   2  13   24.76    1.44
  -6  -2  13   22.62    1.52
   6   2 -12    0.96    0.65
  -6   2  12    0.64    0.55
  -6   2  12    1.01    0.68
  -6  -2  12    0.79    0.66
   6   2 -11   38.38    1.79
  -6   2  11   40.98    1.86
  -6   2  11   42.68    1.84
   6   2 -10    5.35    0.76
  -6   2  10    6.00    0.74
  -6   2  10    5.95    0.81
  -6  -2  10    5.29    0.79
  -6   2   9   76.00    2.79
   6   2  -9   77.57    2.72
  -6   2   9   79.90    2.82
  -6  -2   9   81.16    2.91
  -6   2   8    1.08    0.57
  -6   2   8    0.22    0.40
   6   2  -8    0.46    0.46
  -6  -2   8    0.71    0.48
   6   2  -7    2.29    0.51
  -6   2   7    1.59    0.45
  -6   2   7    3.03    0.66
  -6  -2   7    2.11    0.56
   6   2  -6   37.93    1.53
  -6   2   6   38.79    1.69
  -6   2   6   39.58    1.54
  -6  -2   6   39.31    1.68
  -6   2   5   27.10    1.36
   6   2  -5   25.18    1.14
  -6  -2   5   27.60    1.33
   6   2  -4    1.04    0.38
  -6   2   4    1.09    0.49
  -6  -2   4    0.77    0.46
   6   2  -3   87.74    2.78
   6   2  -3   89.16    3.00
  -6   2   3   89.53    2.89
   6  -2  -3   88.04    2.93
   6   2  -2    5.89    0.61
  -6   2   2    5.30    1.03
   6   2  -2    6.07    0.58
  -6   2   2    6.80    0.64
   6  -2  -2    6.73    0.56
  -6   2   1   51.57    1.82
  -6   2   1   54.26    1.87
   6   2  -1   52.57    1.94
   6   2  -1   49.96    1.71
   6   2   0   36.71    1.29
  -6   2   0   35.54    1.35
   6   2   0   37.03    1.51
  -6   2   0   37.48    1.60
  -6   2   0   39.62    1.46
   6  -2   0   37.66    1.34
   6   2   1   49.09    1.60
  -6   2  -1   51.88    1.79
  -6   2  -1   49.37    1.98
  -6   2  -1   49.19    1.68
   6   2   1   48.56    1.88
   6  -2   1   50.39    1.67
   6   2   2   11.03    0.85
  -6   2  -2   12.98    0.87
  -6   2  -2   12.85    1.09
  -6   2  -3   40.17    1.79
  -6   2  -3   42.72    1.51
   6   2   3   39.35    1.68
   6   2   3   39.74    1.66
   6   2   4   15.80    1.20
   6   2   4   16.66    1.05
  -6   2  -4   15.86    1.20
   6   2   5   31.68    1.47
  -6   2  -5   30.24    1.59
   6   2   5   30.45    1.56
   6   2   6    6.80    0.79
  -6   2  -6    7.90    0.86
   6   2   6    7.60    0.79
  -6   2  -7   12.92    1.17
   6   2   7   15.85    1.27
   6   2   7   14.91    1.05
   6   2   8    3.55    0.67
  -6   2  -8    2.74    0.72
   6   2   8    2.37    0.65
   6  -2   8    2.48    0.30
   6   2   9    1.21    0.59
   6   2   9    0.25    0.60
  -6   2  -9    1.05    0.64
   6  -2   9    1.28    0.29
  -6   2 -10    1.05    0.70
   6   2  10    1.57    0.66
   6   2  10    1.53    0.70
   6   2  11    3.68    0.81
   6   3 -12    3.30    0.77
  -6   3  12    2.29    0.80
  -6  -3  12    4.41    0.89
   6   3 -11   13.89    1.11
  -6   3  11   14.09    1.27
  -6  -3  11   14.71    1.18
   6   3 -10    5.68    0.78
  -6   3  10    5.10    0.84
  -6  -3  10    4.83    0.81
  -6   3   9    9.95    0.99
   6   3  -9    9.55    0.89
  -6  -3   9    8.66    0.93
   6   3  -8    3.19    0.60
  -6   3   8    2.73    0.70
  -6  -3   8    2.35    0.61
  -6   3   7   28.98    1.48
   6   3  -7   28.82    1.33
  -6  -3   7   29.02    1.44
  -6   3   6   12.28    1.11
   6   3  -6   10.47    0.83
  -6  -3   6   10.84    0.99
   6   3  -5   44.01    1.66
  -6   3   5   42.79    1.81
  -6  -3   5   42.58    1.83
  -6   3   4    8.36    0.83
   6   3  -4    7.98    0.70
  -6  -3   4    8.79    0.85
   6   3  -3   21.29    1.12
   6   3  -3   20.86    1.05
  -6   3   3   21.26    1.25
   6   3  -2   11.17    0.77
  -6   3   2   10.45    0.98
   6   3  -2    7.23    0.73
   6  -3  -2   10.76    0.74
   6   3  -1   49.07    2.01
   6   3  -1   52.71    1.81
  -6   3   1   56.97    2.04
   6  -3  -1   51.33    1.88
  -6   3   0    8.55    0.78
   6   3   0    8.24    0.82
  -6   3   0    7.74    0.80
   6   3   0    8.29    0.66
   6  -3   0    7.87    0.63
  -6   3  -1  181.79    6.05
  -6   3  -1  192.45    5.60
   6   3   1  183.73    5.45
   6   3   1  187.37    5.99
   6   3   2    3.41    0.60
  -6   3  -2    3.74    0.70
  -6   3  -2    4.52    0.65
  -6   3  -3   26.02    1.25
  -6   3  -3   23.12    1.46
   6   3   3   25.32    1.29
   6   3   4    0.07    0.43
  -6   3  -4    0.87    0.58
   6   3   5   74.79    2.65
   6   3   5   70.45    2.70
  -6   3  -5   71.98    2.78
  -6   3  -6   -0.24    0.60
   6   3   6    0.67    0.61
   6   3   6    0.92    0.46
   6  -3   6    0.10    0.24
   6   3   7   31.78    1.61
  -6   3  -7   32.05    1.74
   6   3   7   32.32    1.69
   6  -3   7   31.89    1.06
   6   3   8    3.46    0.57
   6   3   8    6.52    0.84
  -6   3  -8    5.88    0.90
   6  -3   8    5.47    0.43
   6   3   9   18.33    1.29
   6   3   9   19.43    1.46
  -6   3  -9   18.90    1.42
   6  -3   9   19.05    0.81
  -6   3 -10    0.15    0.71
   6   3  10   -0.19    0.62
  -6   4  11   12.05    1.19
   6   4 -11   12.57    1.10
  -6  -4  11   14.49    1.26
   6   4 -10    1.60    0.61
  -6   4  10    1.88    0.79
  -6  -4  10    1.03    0.66
  -6   4   9    4.81    0.84
   6   4  -9    4.75    0.73
  -6  -4   9    5.58    0.82
   6   4  -8    4.17    0.68
  -6   4   8    5.02    0.85
  -6  -4   8    4.42    0.75
   6   4  -7   26.13    1.33
  -6   4   7   26.66    1.52
  -6  -4   7   26.57    1.45
  -6   4   6   33.77    1.68
   6   4  -6   36.32    1.56
  -6  -4   6   37.08    1.74
   6   4  -5   33.24    1.46
  -6   4   5   36.00    1.63
  -6  -4   5   33.29    1.64
   6   4  -4   44.43    1.71
  -6   4   4   42.26    1.85
  -6  -4   4   42.32    1.90
  -6   4   3    0.69    0.59
   6   4  -3    0.75    0.43
   6   4  -3    0.97    0.46
   6   4  -2    8.83    0.79
  -6   4   2    7.00    0.74
  -6   4   2    7.47    0.83
   6   4  -2    7.02    0.76
   6   4  -1   39.47    1.52
  -6   4   1   37.69    1.78
   6   4  -1   37.31    1.91
  -6   4   1   40.26    1.72
   6   4   0   46.13    1.73
  -6   4   0   48.19    2.09
  -6   4   0   49.24    1.96
   6   4   0   46.05    1.94
  -6   4  -1    0.33    0.57
   6   4   1    0.53    0.37
   6   4   1    0.10    0.44
  -6   4  -1    0.53    0.57
  -6   4  -2   17.59    1.12
  -6   4  -2   13.82    1.26
   6   4   2   16.00    1.07
   6  -4   2   14.68    0.62
   6   4   3   17.67    1.15
  -6   4  -3   17.92    1.30
  -6   4  -3   19.83    1.19
   6  -4   3   17.83    0.70
  -6   4  -4    5.17    0.69
  -6   4  -4    5.11    0.82
   6   4   4    5.97    0.79
   6  -4   4    4.86    0.39
   6   4   5    2.55    0.65
  -6   4  -5    2.70    0.74
   6  -4   5    3.46    0.38
  -6   4  -6   34.42    1.77
   6   4   6   30.34    1.63
   6  -4   6   32.97    1.13
   6   4   7    7.62    0.94
   6   4   7    6.02    0.85
  -6   4  -7    6.44    0.93
   6  -4   7    6.62    0.56
   6   4   8   21.66    1.41
  -6   4  -8   20.96    1.51
   6   4   8   22.04    1.58
   6  -4   8   21.55    0.92
   6   4   9    2.02    0.79
  -6   4  -9    0.75    0.75
   6   4   9    1.25    0.68
   6  -4   9    1.70    0.41
   6   5  -9    0.63    0.62
  -6   5   9   -0.41    0.75
  -6  -5   9    0.88    0.69
   6   5  -8   12.55    1.05
  -6   5   8   12.84    1.23
  -6  -5   8   13.36    1.18
  -6   5   7   -0.16    0.69
   6   5  -7    0.67    0.58
  -6  -5   7    1.05    0.65
  -6   5   6   18.30    1.31
   6   5  -6   16.74    1.12
   6  -5  -6   18.20    0.71
  -6  -5   6   15.20    1.24
   6   5  -5    0.56    0.56
  -6   5   5   -0.10    0.66
  -6  -5   5    0.88    0.67
   6  -5  -5    0.03    0.27
   6   5  -4   40.22    1.70
  -6   5   4   37.05    1.84
  -6  -5   4   40.71    1.90
   6  -5  -4   37.96    1.24
  -6   5   3   16.74    1.34
   6   5  -3   14.94    1.04
  -6   5   3   13.55    1.22
   6  -5  -3   14.64    0.67
   6   5  -2   20.94    1.15
  -6   5   2   18.87    1.32
   6   5  -2   19.06    1.17
  -6   5   2   20.40    1.44
   6  -5  -2   19.29    0.90
   6   5  -1    0.11    0.47
   6   5  -1    0.08    0.47
  -6   5   1    0.08    0.65
  -6   5   1    0.29    0.65
   6  -5  -1   -0.48    0.29
  -6   5   0   32.87    1.59
   6   5   0   32.01    1.40
  -6   5   0   32.55    1.72
   6   5   0   29.10    1.53
   6  -5   0   31.47    1.08
  -6   5  -1    1.92    0.71
   6   5   1    1.80    0.59
  -6   5  -1    1.11    0.66
   6  -5   1    1.87    0.35
  -6   5  -2    0.55    0.68
  -6   5  -2    1.82    0.70
   6   5   2    2.12    0.60
   6  -5   2    2.15    0.37
  -6   5  -3    1.45    0.70
   6   5   3    1.28    0.59
  -6   5  -3    1.45    0.66
   6  -5   3    1.33    0.36
  -6   5  -4    9.48    1.05
  -6   5  -4    8.60    0.88
   6   5   4    8.81    1.00
   6  -5   4    8.43    0.63
  -6   5  -5    5.77    0.93
   6   5   5    4.50    0.79
   6  -5   5    5.51    0.50
  -6   5  -6   22.11    1.59
   6   5   6   19.29    1.40
   6  -5   6   23.72    0.96
   6   5   7    1.38    0.71
  -6   5  -7   -0.60    0.74
   6  -5   7    0.15    0.40
  -6   6   6   12.31    1.25
   6   6  -6   12.44    1.11
  -6  -6   6   13.17    1.25
   6   6  -5    1.84    0.68
  -6   6   5    1.27    0.81
  -6  -6   5    2.01    0.80
   6  -6  -5    1.51    0.38
   6   6  -4    3.27    0.73
  -6   6   4    1.73    0.82
   6  -6  -4    1.59    0.39
  -6  -6   4    1.33    0.74
  -6   6   3    1.05    0.72
   6   6  -3    1.50    0.63
  -6  -6   3    1.04    0.76
   6  -6  -3    1.52    0.40
   6   6  -2   16.35    1.18
   6   6  -2   19.18    1.20
  -6   6   2   16.43    1.29
   6  -6  -2   17.86    1.15
   6   6  -1    3.14    0.72
   6   6  -1    2.30    0.64
  -6   6   1    2.79    0.83
   6  -6  -1    1.82    0.42
  -6   6   0   18.20    1.35
   6   6   0   16.49    1.11
   6   6   0   17.38    1.24
   6  -6   0   18.68    0.84
   6   6   1    6.51    0.91
  -6   6  -1    6.60    0.96
   6  -6   1    5.97    0.54
  -6   6  -2   22.62    1.45
   6   6   2   21.08    1.41
   6  -6   2   25.08    1.01
   6   6   3    1.12    0.65
  -6   6  -3    0.17    0.67
   6  -6   3   -0.11    0.40
  -6   6  -4   26.00    1.49
   6   6   4   22.53    1.51
   6  -6   4   25.08    1.06
  -7   0  13    0.06    0.65
   7   0 -13   -0.09    0.63
   7   0 -12   -0.12    0.58
  -7   0  12    0.89    0.61
   7   0 -11   -0.73    0.51
  -7   0  11   -0.62    0.50
   7   0 -10   11.95    1.02
  -7   0  10   13.06    1.02
   7   0  -9    0.63    0.54
  -7   0   9   -0.14    0.46
  -7   0   8   59.21    2.26
   7   0  -8   58.87    2.19
   7   0  -7   -0.04    0.47
  -7   0   7    0.57    0.44
   7   0  -6  124.84    3.88
  -7   0   6  122.56    4.05
   7   0  -5    0.40    0.42
  -7   0   5    0.09    0.34
  -7   0   4  115.92    3.83
   7   0  -4  121.17    3.67
   7   0  -3    0.16    0.35
   7   0  -3   -0.20    0.33
  -7   0   3    0.26    0.31
   7   0  -2  232.00    6.84
  -7   0   2  238.57    7.17
   7   0  -2  236.81    7.26
   7   0  -1   -0.10    0.29
  -7   0   1    0.12    0.27
   7   0  -1    0.44    0.38
   7   0  -1   -0.06    0.36
  -7   0   0   43.34    1.72
   7   0   0   43.79    1.68
  -7   0   0   44.53    1.55
   7   0   0   45.84    1.51
  -7   0   0   43.28    1.55
   7   0   0   44.43    1.61
   7   0   1   -0.10    0.28
  -7   0  -1    0.06    0.24
  -7   0  -1   -0.18    0.36
  -7   0  -1    0.40    0.31
   7   0   1   -0.48    0.41
  -7   0  -2  157.73    5.22
   7   0   2  162.83    5.11
   7   0   2  164.74    5.02
  -7   0  -3    0.56    0.45
   7   0   3   -0.39    0.34
   7   0   3   -0.33    0.49
   7   0   4   43.41    1.84
  -7   0  -4   43.52    1.87
  -7   0  -5    0.15    0.50
   7   0   5   -0.13    0.39
   7   0   5   -0.09    0.50
   7   0   6   20.99    1.15
   7   0   6   22.36    1.33
  -7   0  -6   24.12    1.34
   7   0   7   -0.13    0.55
  -7   0  -7   -0.16    0.54
   7   0   7   -0.67    0.41
  -7   0  -8   68.77    2.71
   7   0   8   67.97    2.60
   7   0   8   69.96    2.64
  -7   0  -9   -0.10    0.54
   7   0   9   -0.78    0.61
   7   0   9   -0.23    0.51
   7   0  10    9.90    1.00
   7   0  10    9.70    1.05
   7   0  11    0.37    0.61
   7   1 -13    8.66    1.01
  -7   1  13    9.43    1.06
  -7   1  13   10.87    1.10
  -7  -1  13   10.02    1.09
  -7   1  12   12.93    1.23
   7   1 -12   11.30    1.09
  -7   1  12   11.22    1.09
  -7  -1  12   11.32    1.11
   7   1 -11    3.19    0.73
  -7   1  11    4.36    0.80
  -7   1  11    3.56    0.70
   7  -1 -11    2.09    0.67
  -7  -1  11    2.18    0.68
  -7   1  10    9.18    0.96
   7   1 -10    9.29    0.92
  -7   1  10   10.56    0.95
  -7  -1  10    9.51    0.97
   7  -1 -10    8.95    0.90
  -7   1   9   38.08    1.78
   7   1  -9   36.81    1.68
  -7   1   9   40.15    1.69
  -7  -1   9   37.48    1.71
   7  -1  -9   37.37    1.68
   7   1  -8   21.66    1.24
  -7   1   8   22.73    1.20
  -7   1   8   22.29    1.37
  -7  -1   8   22.73    1.26
   7  -1  -8   23.19    1.26
  -7   1   7   12.87    1.13
   7   1  -7   14.99    1.03
  -7   1   7   14.35    0.97
  -7  -1   7   15.91    1.08
   7  -1  -7   11.90    0.97
  -7   1   6    3.24    0.49
   7   1  -6    3.59    0.60
  -7   1   6    3.65    0.68
  -7  -1   6    3.25    0.56
   7  -1  -6    2.16    0.56
   7   1  -5    0.71    0.45
  -7   1   5    0.50    0.32
  -7   1   5    0.25    0.51
  -7  -1   5    0.03    0.41
   7  -1  -5   -0.06    0.42
  -7   1   4   84.80    2.80
   7   1  -4   83.62    2.65
  -7   1   4   84.60    2.77
   7   1  -4   85.37    2.72
   7  -1  -4   85.38    2.75
  -7  -1   4   84.13    2.89
   7  -1  -4   81.44    2.84
   7   1  -3   63.35    2.09
   7   1  -3   65.39    2.12
  -7   1   3   64.94    2.20
  -7   1   3   61.36    2.10
   7  -1  -3   64.46    2.21
  -7  -1   3   58.01    2.27
  -7   1   2   35.40    1.41
  -7   1   2   34.81    1.45
   7   1  -2   38.87    1.46
  -7   1   2   35.92    1.31
   7   1  -2   35.47    1.35
   7   1  -2   36.79    1.43
   7  -1  -2   37.33    1.41
   7   1  -1   10.72    0.69
  -7   1   1   11.03    0.82
   7   1  -1   12.05    0.91
  -7   1   1   11.07    0.66
   7   1  -1   12.33    0.77
   7  -1  -1   11.05    0.84
   7  -1  -1   11.69    0.71
  -7  -1   1   10.92    1.09
  -7   1   0   10.94    0.91
  -7   1   0   11.58    0.81
  -7   1   0   10.09    0.62
   7   1   0   11.73    0.79
   7   1   0   11.84    0.67
   7   1   0   11.59    0.92
  -7  -1   0   10.85    0.80
   7  -1   0   12.05    0.89
   7  -1   0   11.10    0.85
   7   1   1   91.20    3.04
   7   1   1   89.92    2.98
  -7   1  -1   92.69    3.16
  -7   1  -1   87.32    2.80
  -7  -1  -1   92.18    3.03
   7  -1   1   86.80    2.96
   7   1   2   10.99    0.83
  -7   1  -2   11.17    1.00
   7   1   2   11.01    1.01
   7  -1   2   12.19    1.03
  -7  -1  -2    9.48    0.88
   7   1   3   44.42    1.80
  -7   1  -3   42.26    1.84
   7   1   3   42.88    1.71
  -7  -1  -3   43.53    1.72
   7  -1   3   39.07    1.77
   7   1   4   13.84    1.15
  -7   1  -4   13.69    1.14
   7   1   4   11.48    0.90
  -7  -1  -4   14.12    1.03
   7  -1   4   15.00    1.17
   7   1   5    8.20    0.83
  -7   1  -5    6.68    0.79
   7  -1   5    7.38    0.81
  -7  -1  -5    7.95    0.76
  -7   1  -6    3.25    0.68
   7   1   6    3.30    0.61
   7   1   6    3.55    0.66
   7  -1   6    3.23    0.68
  -7  -1  -6    3.96    0.59
  -7   1  -7   29.81    1.64
   7   1   7   29.62    1.48
   7   1   7   29.77    1.59
  -7   1  -8   14.63    1.27
   7   1   8   13.93    1.29
   7   1   8   15.33    1.10
  -7   1  -9    8.54    0.98
   7   1   9    9.95    0.99
   7   1   9    8.26    0.90
   7   1  10   12.79    1.16
  -7   1 -10   15.48    1.31
   7   1  10   13.23    1.14
   7   1  11   -0.03    0.62
   7   2 -13    7.23    1.02
  -7   2  13    9.74    1.09
  -7  -2  13    9.94    1.12
  -7   2  12    7.70    1.00
   7   2 -12    8.64    1.02
  -7  -2  12    9.43    1.06
  -7   2  11   27.12    1.54
   7   2 -11   26.32    1.48
  -7  -2  11   27.32    1.52
  -7   2  10    2.41    0.70
   7   2 -10    2.99    0.66
  -7  -2  10    2.61    0.69
   7   2  -9   31.70    1.47
  -7   2   9   27.03    1.52
  -7  -2   9   27.67    1.47
  -7   2   8    1.97    0.65
   7   2  -8    1.87    0.54
  -7  -2   8    2.40    0.59
  -7   2   7   16.36    1.19
   7   2  -7   17.25    1.02
  -7  -2   7   18.59    1.15
   7   2  -6   13.62    0.90
  -7   2   6   11.53    1.09
  -7  -2   6   14.42    1.06
   7   2  -5   17.30    0.99
  -7   2   5   18.10    1.16
  -7  -2   5   16.18    1.13
   7   2  -4    0.56    0.39
  -7   2   4    0.59    0.51
  -7  -2   4   -0.30    0.47
   7   2  -3   21.23    1.10
   7   2  -3   21.73    1.01
  -7   2   3   20.89    1.19
   7  -2  -3   20.81    1.36
   7   2  -2   20.48    0.94
   7   2  -2   16.85    0.99
  -7   2   2   20.89    1.18
   7  -2  -2   21.44    1.31
  -7   2   1    2.33    0.56
  -7   2   1    1.60    0.56
  -7   2   1    2.41    0.45
   7   2  -1    1.51    0.36
   7   2  -1    2.21    0.48
   7  -2  -1    1.69    0.43
   7   2   0   20.84    0.91
  -7   2   0   21.58    1.13
  -7   2   0   20.67    1.25
   7   2   0   21.99    1.12
   7  -2   0   21.65    0.94
  -7   2  -1    6.99    0.76
   7   2   1    8.87    0.78
  -7   2  -1    8.43    0.74
  -7   2  -2   10.40    0.88
   7   2   2   10.12    0.84
   7   2   2   11.19    1.04
  -7   2  -2    9.47    0.88
   7   2   3  123.70    4.05
   7   2   3  124.93    4.16
  -7   2  -3  123.52    4.26
   7   2   4    1.71    0.52
   7   2   4    0.73    0.56
  -7   2  -4    1.90    0.62
   7   2   5   14.07    1.15
   7   2   5   14.49    1.04
  -7   2  -5   14.73    1.24
   7   2   6   22.77    1.36
   7   2   6   18.70    1.17
  -7   2  -6   20.95    1.41
   7   2   7    6.14    0.74
  -7   2  -7    6.29    0.89
   7   2   7    8.12    0.90
  -7   2  -8   -0.10    0.63
   7   2   8    1.04    0.58
   7   2   8   -0.18    0.59
  -7   2  -9    8.14    0.98
   7   2   9    8.34    0.95
   7   2   9    5.82    0.87
   7   2  10    3.96    0.82
   7   2  10    3.77    0.79
  -7   2 -10    2.47    0.82
   7   3 -12   -0.10    0.65
  -7   3  12    0.95    0.76
  -7  -3  12   -0.04    0.70
  -7   3  11    8.40    1.04
   7   3 -11    8.87    0.96
  -7  -3  11    8.90    1.03
  -7   3  10   -0.20    0.65
   7   3 -10    0.30    0.57
  -7  -3  10    0.26    0.59
   7   3  -9   28.45    1.39
  -7   3   9   26.08    1.52
  -7  -3   9   27.82    1.50
  -7   3   8    2.07    0.70
   7   3  -8    2.09    0.57
  -7  -3   8    1.96    0.62
   7   3  -7   41.53    1.70
  -7   3   7   43.11    1.88
  -7  -3   7   40.62    1.82
   7   3  -6    1.02    0.48
  -7   3   6    1.71    0.61
  -7  -3   6    1.67    0.58
  -7   3   5   49.03    1.99
   7   3  -5   48.79    1.84
  -7  -3   5   49.44    2.03
   7   3  -4   15.40    0.91
  -7   3   4   14.21    1.13
  -7  -3   4   14.42    1.14
   7   3  -3   22.37    1.17
   7   3  -3   21.20    1.07
  -7   3   3   20.01    1.34
  -7   3   2   24.88    1.38
   7   3  -2   23.95    1.11
   7   3  -1   99.94    3.16
   7   3  -1  100.78    3.50
  -7   3   1  103.02    3.62
   7   3   0    6.54    0.74
   7   3   0    6.03    0.56
  -7   3   0    4.83    0.78
  -7   3   0    7.31    0.80
  -7   3  -1   76.25    2.96
   7   3   1   82.11    2.90
  -7   3  -1   80.68    2.72
  -7   3  -2    4.69    0.76
  -7   3  -2    7.14    0.75
   7   3   2    6.09    0.73
   7   3   3   40.88    1.75
  -7   3  -3   39.62    1.89
  -7   3  -4    4.08    0.76
   7   3   4    3.92    0.68
   7   3   4    2.53    0.63
  -7   3  -5   62.97    2.58
   7   3   5   60.61    2.46
   7   3   5   64.46    2.48
  -7   3  -6    0.51    0.66
   7   3   6    0.74    0.56
   7   3   6    0.61    0.64
   7   3   7   23.62    1.53
  -7   3  -7   21.85    1.52
   7   3   7   22.50    1.39
  -7   3  -8    1.97    0.75
   7   3   8    2.76    0.74
   7   3   9   17.99    1.45
  -7   3  -9   17.20    1.43
   7   3   9   19.02    1.30
   7   4 -11   12.31    1.11
  -7   4  11   12.23    1.25
  -7  -4  11   11.59    1.20
   7   4 -10    0.21    0.58
  -7   4  10   -0.59    0.73
  -7  -4  10    1.27    0.71
   7   4  -9   -0.17    0.54
  -7   4   9    0.31    0.71
  -7  -4   9    1.06    0.62
  -7   4   8   14.54    1.28
   7   4  -8   14.47    1.05
  -7  -4   8   15.31    1.17
   7   4  -7   13.65    1.02
  -7   4   7   14.41    1.21
  -7  -4   7   12.68    1.13
  -7   4   6   29.13    1.61
   7   4  -6   32.99    1.47
  -7  -4   6   32.29    1.62
   7   4  -5    5.04    0.69
  -7   4   5    4.83    0.84
  -7  -4   5    3.52    0.75
   7   4  -4   20.72    1.15
  -7  -4   4   20.07    1.33
   7   4  -3   14.24    0.94
   7   4  -3   12.20    0.96
  -7   4   3   13.03    1.14
   7   4  -2   37.90    1.52
   7   4  -2   34.26    1.64
  -7   4   2   34.65    1.70
  -7   4   2   37.38    1.78
   7   4  -1   12.08    1.32
  -7   4   1   11.95    1.08
   7   4  -1   12.95    0.87
  -7   4   1   12.60    1.25
  -7   4   0   45.15    2.06
   7   4   0   46.22    1.95
   7   4   0   45.16    1.71
  -7   4   0   46.11    1.94
  -7   4  -1    6.48    0.86
  -7   4  -1    6.81    0.84
   7   4   1    6.63    0.79
   7   4   2   11.56    0.99
  -7   4  -2   10.73    1.05
  -7   4  -2   12.50    1.07
  -7   4  -3   -0.69    0.63
  -7   4  -3    0.91    0.60
   7   4   3   -0.34    0.48
  -7   4  -4   10.87    1.09
   7   4   4    9.28    0.95
   7   4   5    4.68    0.79
  -7   4  -5    5.28    0.87
   7   4   6   10.17    1.01
   7   4   6    7.76    1.00
  -7   4  -6    9.49    1.08
   7   4   7    8.86    1.07
  -7   4  -7    8.59    1.08
   7   4   7    8.80    1.03
  -7   4  -8   17.89    1.48
   7   4   8   13.93    1.25
   7   4   8   16.71    1.53
   7   5  -9    0.53    0.62
  -7   5   9   -0.06    0.80
  -7  -5   9   -0.35    0.67
  -7   5   8    3.71    0.93
   7   5  -8    4.43    0.78
  -7  -5   8    2.19    0.77
   7   5  -7   -0.47    0.53
  -7   5   7    0.32    0.74
  -7  -5   7   -0.60    0.63
  -7   5   6   19.45    1.43
   7   5  -6   20.48    1.24
  -7  -5   6   20.93    1.42
   7   5  -5   10.12    0.96
  -7   5   5    7.46    0.99
  -7  -5   5    9.14    1.03
  -7   5   4   13.24    1.23
   7   5  -4   16.74    1.10
  -7   5   4   19.35    1.46
  -7  -5   4   14.66    1.25
   7   5  -3    1.83    0.59
  -7   5   3    2.02    0.76
  -7   5   3    1.56    0.74
   7   5  -2   11.02    0.99
  -7   5   2   12.47    1.15
   7   5  -2   12.70    0.99
  -7   5   2   13.14    1.18
  -7   5   1   -0.73    0.66
   7   5  -1    0.43    0.52
   7   5  -1    0.77    0.50
  -7   5   1   -0.28    0.68
  -7   5   0   14.04    1.18
   7   5   0   11.82    1.04
  -7   5   0   12.67    1.15
  -7   5  -1   -0.80    0.61
   7   5   1    0.26    0.52
  -7   5  -1   -0.22    0.66
  -7   5  -2    2.31    0.82
   7   5   2    3.14    0.70
  -7   5  -2    4.43    0.81
  -7   5  -3    0.16    0.63
  -7   5  -3    0.24    0.70
   7   5   3   -0.41    0.53
  -7   5  -4   19.24    1.61
   7   5   4   21.12    1.35
  -7   5  -5    0.75    0.80
   7   5   5    0.57    0.65
   7   5   6    3.88    0.81
  -7   5  -6    4.30    0.98
   7   6  -6    7.47    0.95
  -7   6   6    6.93    1.08
  -7  -6   6    7.41    1.06
  -7   6   5    0.81    0.82
   7   6  -5    0.08    0.63
  -7  -6   5    0.30    0.76
   7   6  -4    8.58    0.97
  -7   6   4    6.99    1.05
  -7  -6   4    8.64    1.11
  -7   6   3    0.07    0.75
   7   6  -3    1.35    0.65
  -7   6   2   14.25    1.28
   7   6  -2   14.39    1.18
   7   6  -2   18.89    1.18
   7   6  -1   -0.11    0.56
   7   6  -1    0.99    0.57
  -7   6   1    1.87    0.79
   7   6   0   16.97    1.25
  -7   6   0   16.84    1.34
   7   6   1    0.53    0.65
  -7   6  -1    0.99    0.77
   7   6   2   21.46    1.47
  -7   6  -2   26.35    1.55
  -7   6  -3    4.63    0.88
   7   6   3    3.88    0.81
  -7   6  -3    2.80    0.94
  -8   0  13   -0.18    0.65
   8   0 -13    0.41    0.69
  -8   0  12   14.83    1.23
   8   0 -12   13.99    1.17
  -8   0  11   -0.08    0.55
   8   0 -11   -0.54    0.53
  -8   0  10   26.53    1.44
   8   0 -10   27.70    1.44
   8   0  -9    0.58    0.54
  -8   0   9    0.12    0.49
  -8   0   8   53.46    2.07
   8   0  -8   51.55    2.03
   8   0  -7    0.74    0.49
  -8   0   7   -0.66    0.40
   8   0  -6   32.16    1.44
  -8   0   6   31.67    1.44
  -8   0   5   -0.21    0.38
   8   0  -5   -0.11    0.44
   8   0  -4   79.31    2.59
  -8   0   4   75.09    2.66
  -8   0   3   -0.53    0.35
   8   0  -3   -0.15    0.41
   8   0  -3    0.02    0.40
   8   0  -2  209.37    6.37
   8   0  -2  217.03    6.02
   8   0  -2  186.47    6.09
   8   0  -1    0.06    0.46
   8   0  -1    0.35    0.37
   8   0  -1   -0.20    0.32
  -8   0   1    0.17    0.40
  -8   0   0  125.78    3.81
   8   0   0  129.00    4.06
   8   0   0  126.59    3.77
  -8   0   0  118.57    4.16
   8   0   0  128.98    4.00
  -8   0   0  127.34    4.07
   8   0   1   -0.28    0.49
  -8   0  -1   -0.40    0.44
   8   0   1    0.16    0.34
  -8   0  -2   85.85    3.20
   8   0   2   93.37    3.12
   8   0   2   94.61    3.08
   8   0   3    0.04    0.38
   8   0   3    0.33    0.54
  -8   0  -3   -0.04    0.49
   8   0   4    2.01    0.51
   8   0   4    1.41    0.60
  -8   0  -4    2.14    0.60
   8   0   5    0.69    0.56
  -8   0  -5   -0.35    0.52
   8   0   5    0.50    0.42
  -8   0  -6   39.00    1.86
   8   0   6   39.60    1.72
   8   0   6   40.41    1.82
   8   0   7   -0.42    0.47
  -8   0  -7   -0.05    0.59
   8   0   7    0.20    0.64
  -8   0  -8   13.95    1.20
   8   0   8   12.85    1.02
   8   0   8   12.34    1.12
   8   0   9    1.02    0.75
  -8   0  -9    0.71    0.62
   8   0   9   -0.43    0.51
   8   0  10    6.51    1.00
  -8   1  13    5.06    0.83
  -8   1  13    3.26    0.84
   8   1 -13    4.18    0.83
  -8  -1  13    3.53    0.86
  -8   1  12    4.41    0.86
  -8   1  12    3.30    0.78
   8   1 -12    4.23    0.81
  -8  -1  12    4.58    0.83
   8   1 -11    5.36    0.82
  -8   1  11    4.91    0.75
  -8   1  11    3.00    0.81
  -8  -1  11    5.30    0.79
   8  -1 -11    2.86    0.74
  -8   1  10    9.10    0.98
   8   1 -10    8.39    0.89
  -8   1  10    6.89    0.80
   8  -1 -10    6.81    0.87
  -8  -1  10    9.27    0.94
  -8   1   9   36.55    1.65
  -8   1   9   38.95    1.75
   8   1  -9   36.77    1.69
   8  -1  -9   37.15    1.67
  -8  -1   9   34.55    1.68
   8   1  -8    0.06    0.53
  -8   1   8   -0.30    0.54
  -8   1   8   -0.98    0.36
  -8  -1   8    0.31    0.50
   8  -1  -8    0.79    0.55
  -8   1   7    8.03    0.87
   8   1  -7    7.02    0.78
  -8  -1   7    9.24    0.83
   8  -1  -7    7.35    0.78
   8   1  -6   23.54    1.23
  -8   1   6   25.33    1.19
  -8   1   6   22.34    1.34
   8  -1  -6   24.85    1.24
  -8  -1   6   23.20    1.31
  -8   1   5   49.32    1.93
   8   1  -5   47.19    1.83
  -8   1   5   48.21    1.79
  -8  -1   5   48.09    1.96
   8  -1  -5   47.79    1.84
  -8   1   4   41.38    1.76
   8   1  -4   42.61    1.65
  -8  -1   4   41.41    1.72
   8   1  -3   11.29    0.86
  -8   1   3   10.98    0.94
  -8  -1   3   11.89    0.91
   8  -1  -3   13.20    0.83
  -8   1   2   11.40    0.96
   8   1  -2   12.07    0.81
   8   1  -2   10.49    0.82
   8   1  -2   13.43    0.85
   8  -1  -2   11.59    1.66
  -8   1   1    7.90    0.63
  -8   1   1    7.66    0.71
   8   1  -1    7.56    0.68
   8   1  -1    8.19    0.73
   8   1  -1    7.43    0.69
   8  -1  -1    7.16    0.70
   8   1   0   31.14    1.36
   8   1   0   33.24    1.22
  -8   1   0   31.98    1.56
  -8   1   0   30.40    1.30
   8   1   0   30.95    1.45
  -8  -1   0   32.49    2.03
  -8  -1   0   32.32    1.43
   8  -1   0   30.07    1.45
  -8   1  -1   16.37    0.98
   8   1   1   16.75    1.15
   8   1   1   18.17    1.00
  -8   1  -1   14.63    1.16
   8  -1   1   16.68    1.17
  -8  -1  -1   17.69    1.06
   8   1   2   11.94    1.11
   8   1   2   11.21    0.87
  -8   1  -2   12.90    1.17
   8  -1   2   10.61    0.91
  -8  -1  -2   10.60    0.98
   8   1   3   13.67    0.94
  -8   1  -3   15.20    1.27
   8   1   3   15.35    1.18
   8  -1   3   13.26    1.20
  -8  -1  -3   12.44    1.06
   8   1   4   32.47    1.44
   8   1   4   32.19    1.53
  -8   1  -4   27.22    1.54
  -8  -1  -4   27.93    1.43
   8  -1   4   28.10    1.53
   8   1   5   36.00    1.60
  -8   1  -5   35.34    1.74
   8   1   5   33.39    1.65
   8  -1   5   32.79    1.67
   8   1   6    5.25    0.74
   8   1   6    2.60    0.69
  -8   1  -6    3.42    0.73
   8  -1   6    4.38    0.77
   8   1   7   12.24    1.08
  -8   1  -7   10.36    1.08
   8   1   7   13.91    0.98
   8   1   8   13.06    1.08
  -8   1  -8   13.89    1.29
   8   1   8   12.18    1.12
   8   1   9    0.54    0.59
  -8   1  -9    1.29    0.72
   8   1   9    1.07    0.70
   8   1  10   10.10    1.05
   8   1  10    9.24    1.06
  -8   1 -10   11.85    1.19
  -8   2  12    4.44    0.90
   8   2 -12    5.72    0.92
  -8  -2  12    9.22    0.92
  -8   2  11   25.62    1.58
   8   2 -11   30.30    1.59
  -8  -2  11   31.58    1.64
  -8   2  10    0.13    0.64
   8   2 -10    0.69    0.61
  -8  -2  10   -0.14    0.57
  -8   2   9    7.70    0.97
   8   2  -9    9.54    0.94
  -8  -2   9    8.82    0.93
  -8   2   8    8.58    0.95
   8   2  -8    8.61    0.86
  -8  -2   8    8.99    0.93
   8   2  -7   21.28    1.22
  -8   2   7   21.74    1.37
  -8  -2   7   24.34    1.34
   8   2  -6    9.13    0.85
  -8   2   6    8.40    0.89
  -8  -2   6    9.88    0.98
  -8   2   5    9.85    0.93
   8   2  -5    9.83    0.82
  -8  -2   5   10.62    0.93
   8   2  -4    5.36    0.62
  -8   2   4    5.40    0.77
  -8  -2   4    6.17    0.77
   8   2  -3    8.50    0.76
   8   2  -3    9.17    0.83
  -8   2   3    7.97    0.84
   8   2  -2    6.11    0.59
  -8   2   2    6.94    0.77
   8  -2  -2    5.10    0.72
  -8   2   1    1.03    0.61
  -8   2   1    1.86    0.58
   8   2  -1    1.94    0.42
   8   2  -1    1.85    0.50
  -8   2   0   10.62    0.86
  -8   2   0   10.87    1.08
   8   2   0   11.06    1.02
   8   2   0   10.03    0.85
  -8   2  -1   42.15    1.87
   8   2   1   40.84    1.78
   8   2   1   39.92    1.71
   8   2   2    0.64    0.56
  -8   2  -2    0.30    0.57
   8   2   2    0.24    0.45
  -8   2  -3   34.57    1.77
   8   2   3   36.48    1.60
   8   2   3   33.51    1.68
   8   2   4   14.56    1.20
  -8   2  -4   14.72    1.28
   8   2   4   13.95    1.02
   8   2   5   19.23    1.21
  -8   2  -5   20.53    1.43
   8   2   5   21.44    1.35
   8   2   6    5.29    0.81
   8   2   6    5.25    0.78
  -8   2  -6    5.87    0.88
   8   2   7   23.02    1.48
  -8   2  -7   24.10    1.54
  -8   2  -8   -0.34    0.67
   8   2   8    0.43    0.68
   8   2   9   15.75    1.15
  -8   2  -9   14.17    1.39
   8   2   9   15.46    1.40
  -8   3  11   16.29    1.40
   8   3 -11   15.89    1.23
  -8  -3  11   15.09    1.25
   8   3 -10   -0.37    0.55
  -8   3  10    0.12    0.71
  -8  -3  10    0.20    0.62
   8   3  -9   27.74    1.43
  -8   3   9   28.20    1.59
  -8  -3   9   27.70    1.51
  -8   3   8    1.98    0.72
   8   3  -8    1.27    0.57
  -8  -3   8    1.98    0.64
  -8   3   7   51.47    2.15
   8   3  -7   50.96    1.98
  -8  -3   7   48.37    2.10
   8   3  -6    1.15    0.51
  -8   3   6    0.28    0.61
  -8  -3   6    0.62    0.58
   8   3  -5   41.49    1.63
  -8   3   5   37.68    1.78
  -8  -3   5   37.66    1.78
   8   3  -4   23.50    1.15
  -8   3   4   19.24    1.30
  -8  -3   4   22.72    1.35
   8   3  -3   20.55    1.06
   8   3  -3   20.88    1.16
  -8   3   3   17.66    1.29
  -8   3   2   -1.21    0.54
  -8   3   2   -0.33    0.57
   8   3  -2    0.73    0.42
   8   3  -2   -0.11    0.32
  -8   3   1   85.15    3.15
   8   3  -1   97.35    3.01
  -8   3   1  100.89    3.49
   8   3  -1   95.65    3.35
   8   3   0    3.20    0.60
  -8   3   0    4.86    0.74
  -8   3   0    3.05    0.72
   8   3   1   17.94    1.13
  -8   3  -1   19.54    1.32
  -8   3  -1   20.49    1.23
  -8   3  -2    0.61    0.62
   8   3   2    1.26    0.51
   8   3   3   31.71    1.56
  -8   3  -3   31.83    1.77
   8   3   3   32.75    1.65
  -8   3  -4    1.20    0.70
   8   3   4    0.90    0.67
   8   3   4    1.10    0.58
   8   3   5   36.46    1.73
  -8   3  -5   33.38    1.82
   8   3   5   35.32    1.81
  -8   3  -6   -0.30    0.67
   8   3   6   -0.25    0.62
   8   3   6    0.28    0.59
  -8   3  -7   13.43    1.30
   8   3   7   14.95    1.31
   8   3   7   13.04    1.14
   8   3   8    0.59    0.72
  -8   3  -8    0.33    0.72
   8   3   8    0.02    0.63
   8   3   9    6.88    0.98
  -8   3  -9    5.19    0.97
   8   3   9    8.01    1.03
   8   4 -10    7.05    0.90
  -8   4  10    4.57    0.97
  -8  -4  10    5.01    0.91
  -8   4   9   -0.24    0.75
   8   4  -9    0.71    0.58
  -8  -4   9    0.20    0.64
  -8   4   8    7.57    1.02
   8   4  -8   10.69    0.95
  -8  -4   8    7.70    0.95
   8   4  -7    6.67    0.82
  -8   4   7    6.18    0.91
  -8  -4   7    6.86    0.89
   8   4  -6   20.01    1.16
  -8   4   6   16.52    1.32
  -8  -4   6   17.11    1.25
   8   4  -5    7.17    0.80
  -8   4   5    5.65    0.90
  -8  -4   5    6.72    0.90
  -8   4   4    9.50    1.01
   8   4  -4    8.20    0.82
  -8  -4   4    8.51    1.00
  -8   4   3   12.13    1.12
   8   4  -3   12.72    0.93
   8   4  -3   10.37    0.95
  -8   4   3   10.97    1.08
  -8   4   2   51.08    2.22
  -8   4   2   47.97    2.10
   8   4  -2   52.05    1.91
   8   4  -2   48.34    2.08
   8   4  -1    5.36    1.60
  -8   4   1    6.00    0.93
   8   4  -1    5.17    0.63
  -8   4   1    5.79    0.85
  -8   4   0   50.38    2.09
   8   4   0   49.80    2.11
  -8   4   0   49.49    2.28
  -8   4  -1    4.89    0.83
  -8   4  -1    5.89    0.83
   8   4   1    3.61    0.69
  -8   4  -2    2.18    0.68
  -8   4  -2    2.10    0.77
   8   4   2    2.51    0.64
   8   4   3    3.03    0.64
  -8   4  -3    2.14    0.80
   8   4   4    5.87    0.83
  -8   4  -4    7.68    1.04
   8   4   5   15.35    1.18
  -8   4  -5   14.96    1.39
   8   4   5   17.53    1.40
   8   4   6    8.21    1.01
  -8   4  -6    8.16    1.07
   8   4   6    9.66    1.15
  -8   4  -7    0.66    0.82
   8   4   7    0.54    0.78
   8   4   7   -0.55    0.63
  -8   5   8    2.28    0.90
   8   5  -8    2.56    0.72
  -8  -5   8    1.15    0.75
  -8   5   7    1.41    0.83
   8   5  -7    0.71    0.64
  -8  -5   7    0.61    0.70
  -8   5   6   13.56    1.30
   8   5  -6   14.38    1.11
  -8  -5   6   12.71    1.24
   8   5  -5    0.91    0.60
  -8   5   5    0.35    0.75
  -8  -5   5    0.35    0.69
   8   5  -4    3.58    0.69
  -8   5   4    2.11    0.82
  -8  -5   4    1.20    0.75
  -8   5   3    3.10    0.86
  -8   5   3    4.44    0.89
   8   5  -3    3.62    0.69
   8   5  -2   17.01    1.08
   8   5  -2   13.52    1.11
  -8   5   2   17.88    1.49
  -8   5   2   15.11    1.35
  -8   5   1    1.38    0.78
   8   5  -1    1.61    0.62
  -8   5   1    1.54    0.77
  -8   5   0   11.85    1.18
  -8   5   0   13.01    1.19
   8   5   0    9.74    1.01
  -8   5  -1   -0.40    0.64
  -8   5  -1    0.13    0.72
   8   5   1   -0.04    0.55
  -8   5  -2   10.83    1.23
  -8   5  -2   13.63    1.24
   8   5   2   12.81    1.12
  -8   5  -3    1.29    0.83
   8   5   3    2.22    0.66
   8   5   4   13.10    1.17
  -8   5  -4   13.75    1.34
  -8   5  -5    6.28    1.04
   8   5   5    4.68    0.85
  -8   6   4   12.95    1.28
   8   6  -4   13.50    1.14
  -8  -6   4   13.84    1.35
   8   6  -3    0.69    0.65
  -8   6   3    1.43    0.84
   8   6  -2    9.48    0.96
  -8   6   2    7.48    1.07
   8   6  -2    8.58    1.03
   8   6  -1    1.86    0.69
  -8   6   1    2.65    0.88
   8   6   0    9.20    1.04
  -8   6   0    7.48    1.08
  -8   6   0    5.23    1.05
   8   6   1   -0.11    0.64
  -8   6  -1    0.37    0.77
  -8   6  -1    0.47    0.84
   9   0 -12   15.86    1.28
  -9   0  12   18.05    1.34
   9   0 -11    0.00    0.61
  -9   0  11    0.61    0.60
   9   0 -10   24.39    1.40
  -9   0  10   27.52    1.49
  -9   0   9   -0.73    0.46
   9   0  -9    0.41    0.56
  -9   0   8   27.40    1.43
   9   0  -8   28.39    1.40
  -9   0   7   -0.02    0.40
   9   0  -7    0.66    0.51
   9   0  -6    0.72    0.50
  -9   0   6    0.53    0.43
  -9   0   5   -0.38    0.41
   9   0  -5   -0.19    0.44
   9   0  -4  184.46    5.47
  -9   0   4  178.11    5.75
   9   0  -3    0.02    0.46
   9   0  -3   -0.31    0.42
  -9   0   3    0.16    0.40
   9   0  -2   40.39    1.65
   9   0  -2   40.28    1.56
   9   0  -1    0.18    0.39
   9   0  -1   -0.67    0.52
  -9   0   1    0.43    0.53
  -9   0   1   -0.59    0.47
   9   0  -1    0.19    0.32
  -9   0   0   70.48    2.67
   9   0   0   70.90    2.53
   9   0   0   77.23    2.63
   9   0   1   -0.02    0.35
  -9   0  -1   -0.50    0.51
   9   0   1   -0.65    0.55
   9   0   2   28.70    1.28
  -9   0  -2   27.46    1.47
   9   0   2   26.36    1.47
  -9   0  -3    0.26    0.50
   9   0   3    0.11    0.55
   9   0   3    0.44    0.39
   9   0   4    6.01    0.79
  -9   0  -4    7.19    0.82
  -9   0  -5   -1.03    0.53
   9   0   5   -0.37    0.56
   9   0   6   30.30    1.61
  -9   0  -6   28.52    1.66
   9   0   7    0.26    0.68
  -9   0  -7   -0.28    0.63
   9   0   8    1.87    0.78
  -9   0  -8    1.56    0.71
   9   0   9    0.52    0.78
   9   1 -12    1.67    0.73
  -9   1  12    1.37    0.77
  -9  -1  12    1.29    0.72
  -9   1  11   12.57    1.20
   9   1 -11   11.57    1.09
   9  -1 -11   13.46    1.16
  -9  -1  11   15.60    1.11
  -9   1  10    8.94    1.00
   9   1 -10    9.55    0.97
   9  -1 -10   10.41    1.01
  -9  -1  10    8.54    0.95
   9   1  -9   32.47    1.59
  -9   1   9   32.65    1.65
   9  -1  -9   33.58    1.59
  -9  -1   9   31.77    1.61
  -9   1   8    1.03    0.64
   9   1  -8    1.11    0.61
   9  -1  -8    0.51    0.58
  -9  -1   8    0.85    0.55
  -9   1   7   10.06    0.97
   9   1  -7    9.75    0.90
  -9  -1   7   10.66    0.95
   9  -1  -7    9.56    0.89
   9   1  -6   21.34    1.20
  -9   1   6   21.52    1.29
   9  -1  -6   20.46    1.16
  -9  -1   6   20.78    1.24
  -9   1   5   20.16    1.26
   9   1  -5   20.85    1.14
   9  -1  -5   20.76    1.16
  -9  -1   5   23.24    1.27
  -9   1   4    7.63    0.84
   9   1  -4    8.07    0.76
  -9  -1   4    7.01    0.76
   9   1  -3    7.15    0.70
  -9   1   3    7.54    0.80
  -9  -1   3    7.50    0.79
   9   1  -2   19.62    1.04
   9   1  -2   21.24    1.20
   9   1  -2   21.88    1.11
  -9   1   2   20.58    1.20
   9  -1  -2   18.02    1.07
   9   1  -1    3.10    1.03
   9   1  -1    2.56    0.59
   9   1  -1    3.33    0.49
  -9   1   1    2.56    0.67
  -9   1   1    2.78    0.58
  -9  -1   1    2.75    0.55
   9  -1  -1    3.63    0.63
   9   1   0   34.63    1.61
  -9   1   0   36.63    1.50
  -9   1   0   37.08    1.74
   9   1   0   35.57    1.53
   9  -1   0   34.05    1.61
  -9  -1   0   36.39    1.59
   9   1   1   12.19    0.89
  -9   1  -1   11.05    0.95
   9   1   1   10.31    0.90
   9  -1   1   11.02    0.93
  -9  -1  -1   10.82    1.02
   9   1   2   67.11    2.45
   9   1   2   65.53    2.45
  -9   1  -2   65.13    2.55
   9  -1   2   65.71    2.48
   9   1   3   13.43    1.15
   9   1   3   13.61    0.96
  -9   1  -3   12.51    1.06
   9  -1   3   13.20    1.17
   9   1   4    6.30    0.76
   9   1   4    7.08    0.85
  -9   1  -4    6.98    0.87
   9  -1   4    6.62    0.86
  -9   1  -5    0.41    0.66
   9   1   5    0.71    0.59
   9   1   5    0.32    0.50
   9  -1   5   -0.06    0.62
  -9   1  -6    9.57    1.03
   9   1   6    9.48    0.97
   9   1   6   10.47    1.01
   9  -1   6    8.34    1.00
  -9   1  -7   16.07    1.37
   9   1   7   19.42    1.35
  -9   1  -8   17.18    1.48
   9   1   8   18.26    1.36
   9   1   8   19.86    1.24
  -9   1  -9    1.11    0.75
   9   1   9    0.73    0.74
  -9   2  12    2.62    0.88
   9   2 -12    3.58    0.85
  -9  -2  12    4.32    0.90
  -9   2  11    2.22    0.84
   9   2 -11    2.41    0.76
  -9  -2  11    1.47    0.73
  -9   2  10    0.86    0.72
   9   2 -10    1.83    0.70
  -9  -2  10    1.27    0.66
  -9   2   9   10.58    1.08
   9   2  -9   10.80    1.03
  -9  -2   9   11.31    1.04
   9   2  -8   10.35    0.97
  -9   2   8    9.88    1.04
  -9  -2   8   10.56    1.00
   9   2  -7    9.48    0.89
  -9   2   7    8.38    0.96
  -9  -2   7    9.45    0.92
   9   2  -6    9.18    0.85
  -9   2   6    7.44    0.88
  -9  -2   6    8.76    0.89
   9   2  -5   46.63    1.82
  -9   2   5   47.99    1.96
  -9  -2   5   45.70    1.98
   9   2  -4    0.77    0.46
  -9   2   4    0.15    0.56
  -9  -2   4    0.82    0.56
   9   2  -3   25.52    1.26
  -9   2   3   21.22    1.30
   9   2  -3   24.71    1.17
   9   2  -3   24.45    1.26
  -9   2   2    7.15    0.79
   9   2  -2    6.93    0.75
   9   2  -2    5.70    0.63
   9   2  -2    7.39    0.75
  -9   2   1    0.20    0.57
  -9   2   1   -0.72    0.55
   9   2  -1    0.47    0.40
   9   2  -1   -0.19    0.52
   9   2  -1    0.04    0.43
  -9   2   0    5.85    0.82
  -9   2   0    6.46    0.75
   9   2   0    5.74    0.71
   9   2   0    6.61    0.80
  -9   2  -1   54.90    2.34
   9   2   1   59.79    2.28
   9   2   1   59.42    2.27
  -9   2  -2   -0.91    0.53
   9   2   2   -0.19    0.42
   9   2   2    0.52    0.56
  -9   2  -3   13.96    1.23
   9   2   3   12.44    0.99
   9   2   3   13.69    1.19
   9   2   4   12.37    1.00
   9   2   4   11.66    1.04
  -9   2  -4   10.42    1.07
  -9   2  -5   32.53    1.86
   9   2   5   32.60    1.63
   9   2   5   32.72    1.71
  -9   2  -6   -0.12    0.67
   9   2   6    0.17    0.64
   9   2   6    0.06    0.57
   9   2   7   30.46    1.71
   9   2   7   31.45    1.66
  -9   2  -7   29.96    1.79
   9   2   8    0.43    0.65
   9   2   8    0.49    0.72
  -9   2  -8    0.56    0.79
  -9   2  -9   17.34    1.54
   9   2   9   16.11    1.45
   9   2   9   20.72    1.33
  -9   3  11   17.15    1.47
   9   3 -11   17.17    1.30
  -9  -3  11   15.57    1.29
   9   3 -10    1.26    0.68
  -9   3  10    2.02    0.83
  -9  -3  10    0.89    0.69
  -9   3   9   19.10    1.41
   9   3  -9   24.09    1.36
  -9  -3   9   22.22    1.39
  -9   3   8   -1.12    0.66
   9   3  -8    0.38    0.56
  -9  -3   8    0.61    0.62
  -9   3   7   29.57    1.64
   9   3  -7   31.65    1.51
  -9  -3   7   30.59    1.60
  -9   3   6   -0.27    0.64
   9   3  -6    1.36    0.56
  -9  -3   6    0.47    0.60
  -9   3   5   18.90    1.37
   9   3  -5   20.62    1.14
  -9  -3   5   21.14    1.32
   9   3  -4    2.36    0.55
  -9   3   4    1.81    0.71
  -9  -3   4    2.59    0.74
   9   3  -3   30.63    1.52
  -9   3   3   31.22    1.62
   9   3  -3   32.17    1.39
  -9   3   2    0.42    0.63
  -9   3   2    0.86    0.61
   9   3  -2    0.06    0.46
   9   3  -2    0.30    0.42
  -9   3   1   32.63    1.58
   9   3  -1   34.29    2.14
  -9   3   1   33.54    1.73
  -9   3   0   11.40    1.18
  -9   3   0   12.12    1.13
   9   3   0   12.57    0.99
   9   3   1    4.08    0.68
   9   3   1    5.61    0.82
  -9   3  -1    5.35    0.79
  -9   3  -1    5.28    0.83
   9   3   2   13.03    1.03
  -9   3  -2   11.54    1.20
   9   3   2   13.11    1.12
   9   3   3   15.01    1.10
  -9   3  -3   14.29    1.31
   9   3   3   13.08    1.16
  -9   3  -4    0.05    0.72
   9   3   4    0.63    0.57
   9   3   4    0.46    0.68
  -9   3  -5   15.10    1.44
   9   3   5   14.99    1.33
   9   3   5   13.58    1.13
   9   3   6    0.51    0.73
   9   3   6   -0.05    0.61
  -9   3  -6   -0.09    0.70
   9   3   7   10.14    1.12
   9   3   7   11.05    1.15
  -9   3  -7    9.10    1.14
  -9   3  -8    3.70    0.91
   9   3   8    3.32    0.88
   9   3   8    1.71    0.77
   9   4  -9    0.71    0.66
  -9   4   9    1.75    0.86
  -9  -4   9    0.96    0.70
  -9   4   8    4.78    0.95
   9   4  -8    4.95    0.80
  -9  -4   8    5.23    0.87
   9   4  -7    8.17    0.89
  -9   4   7    7.07    0.99
  -9  -4   7    8.41    1.00
  -9   4   6    4.32    0.89
   9   4  -6    4.48    0.73
  -9  -4   6    4.97    0.84
   9   4  -5    2.17    0.61
  -9   4   5    1.30    0.76
  -9  -4   5    2.76    0.77
  -9   4   4   15.60    1.31
   9   4  -4   14.50    1.01
  -9  -4   4   14.58    1.25
  -9   4   3    4.45    0.82
   9   4  -3    1.91    0.61
  -9   4   3    2.46    0.82
   9   4  -3    2.12    0.57
   9   4  -2   27.12    1.49
  -9   4   2   27.87    1.62
  -9   4   2   30.30    1.74
   9   4  -2   28.23    1.34
  -9   4   1   19.24    1.47
   9   4  -1   21.64    1.29
  -9   4   1   19.80    1.42
  -9   4   0   11.80    1.17
   9   4   0   11.93    1.06
  -9   4   0   11.14    1.09
   9   4   1    5.62    0.82
  -9   4  -1    4.85    0.90
  -9   4  -1    5.04    0.86
  -9   4  -2    5.06    0.96
   9   4   2    6.50    0.86
  -9   4  -3    9.59    1.15
   9   4   3   10.37    1.09
   9   4   3    9.52    1.00
   9   4   4    6.50    1.00
  -9   4  -4    5.12    1.00
   9   4   4    5.12    0.82
   9   4   5    6.93    0.96
  -9   4  -5    6.23    1.01
   9   4   5    6.24    1.05
   9   4   6    4.59    0.86
   9   4   6    6.54    1.09
  -9   4  -6    6.19    1.04
   9   5  -7    0.52    0.65
  -9   5   7   -0.69    0.81
  -9  -5   7    0.32    0.71
   9   5  -6    7.36    0.93
  -9   5   6    5.20    1.03
  -9  -5   6    7.52    1.05
  -9   5   5    0.52    0.82
   9   5  -5    0.15    0.61
  -9   5   5    0.52    0.79
  -9  -5   5    1.02    0.75
  -9   5   4    7.22    1.06
   9   5  -4    8.42    0.92
  -9  -5   4    7.61    1.07
  -9   5   3    1.38    0.83
   9   5  -3    0.98    0.58
  -9   5   3    0.78    0.80
   9   5  -2    8.79    0.98
  -9   5   2    9.71    1.20
  -9   5   2    9.81    1.13
  -9   5   1    2.97    0.90
  -9   5   1    1.33    0.87
   9   5  -1    2.73    0.44
   9   5   0   16.02    2.38
  -9   5   0   17.90    1.43
  -9   5   0   17.71    1.58
   9   5   1    0.20    0.58
  -9   5  -1   -0.35    0.76
  -9   5  -1    1.30    0.77
  -9   5  -2   12.35    1.37
   9   5   2   12.85    1.17
  -9   5  -3    0.04    0.87
   9   5   3    1.15    0.65
  -9   5  -4   12.51    1.42
   9   5   4   13.05    1.21
  10   0 -12    5.53    0.95
 -10   0  12    7.83    1.00
 -10   0  12    7.09    0.99
  10   0 -11   -0.09    0.63
 -10   0  11    0.03    0.62
  10   0 -10   36.91    1.74
  10   0  -9   -0.81    0.52
 -10   0   9   -0.46    0.50
  10   0  -8    8.26    0.86
 -10   0   8    9.67    0.97
  10   0  -7   -0.34    0.52
 -10   0   7   -0.09    0.46
 -10   0   6   15.08    1.03
  10   0  -6   14.65    1.01
  10   0  -5   -0.58    0.45
 -10   0   5    0.08    0.40
  10   0  -4   23.52    1.20
 -10   0   4   22.49    1.18
  10   0  -3    0.54    0.45
 -10   0   2    6.77    0.75
  10   0  -2    5.52    0.64
  10   0  -2    6.76    0.72
 -10   0   1    0.65    0.50
 -10   0   1   -0.94    0.45
  10   0  -1    0.81    0.55
  10   0   0   37.78    1.71
 -10   0   0   38.24    1.73
  10   0   1   -0.15    0.56
 -10   0  -1    0.95    0.54
 -10   0  -2   13.49    1.17
  10   0   2   16.55    1.21
  10   0   3    0.35    0.60
 -10   0  -3   -0.65    0.53
  10   0   4   39.16    1.81
 -10   0  -4   37.03    1.86
  10   0   5    0.73    0.65
 -10   0  -5   -0.51    0.58
  10   0   6    1.02    0.71
 -10   0  -6    0.85    0.68
  10   0   7   -0.54    0.69
  10   0   8    3.60    0.93
  10   1 -12   10.00    1.08
 -10   1  12   10.46    1.16
 -10  -1  12   12.74    1.24
 -10   1  11   12.91    1.20
  10   1 -11   11.37    1.10
 -10  -1  11   12.08    1.24
  10   1 -10    1.52    0.67
 -10   1  10    1.16    0.73
 -10  -1  10    0.80    0.64
  10   1  -9    3.91    0.74
 -10   1   9    4.53    0.83
 -10  -1   9    3.34    0.75
  10  -1  -9    2.90    0.74
 -10   1   8   10.40    1.05
  10   1  -8   10.15    0.98
 -10  -1   8   10.95    1.05
  10  -1  -8   11.01    1.03
  10   1  -7    5.55    0.77
 -10   1   7    8.06    0.92
 -10  -1   7    4.76    0.74
  10  -1  -7    6.39    0.80
  10   1  -6   11.39    0.98
 -10   1   6   12.16    1.08
 -10  -1   6   10.01    0.97
 -10   1   5   10.32    0.94
  10   1  -5    7.20    0.79
 -10  -1   5    7.14    0.79
 -10   1   4   10.92    0.97
  10   1  -4   11.34    0.91
 -10  -1   4   11.29    1.04
 -10   1   3   31.37    1.48
  10   1  -3   31.90    1.37
  10   1  -2   42.24    1.73
  10   1  -2   39.86    1.55
 -10   1   2   41.74    1.72
  10   1  -2   38.17    1.65
  10  -1  -2   40.07    1.65
  10   1  -1    1.57    0.59
 -10   1   1   -0.42    0.55
  10   1  -1    0.65    0.45
 -10   1   1    0.96    0.54
  10  -1  -1    0.72    0.57
  10   1   0   31.16    1.44
 -10   1   0   33.15    1.65
  10   1   0   30.47    1.52
  10  -1   0   31.94    1.58
  10   1   1    1.97    0.61
 -10   1  -1    1.54    0.62
  10   1   1    2.95    0.55
  10  -1   1    1.83    0.67
  10   1   2   44.87    1.85
  10   1   2   44.76    1.93
 -10   1  -2   42.00    1.99
  10  -1   2   46.76    2.01
  10   1   3    0.71    0.51
 -10   1  -3   -0.23    0.62
  10   1   3    0.91    0.61
  10  -1   3   -0.55    0.61
  10   1   4    8.65    0.94
  10   1   4    8.36    0.89
 -10   1  -4    7.88    0.95
  10  -1   4    9.60    1.00
  10   1   5    4.48    0.86
  10   1   5    5.17    0.77
 -10   1  -5    4.15    0.83
  10  -1   5    2.49    0.77
 -10   1  -6   21.34    1.54
  10   1   6   22.06    1.44
  10   1   6   20.63    1.33
  10   1   7    7.98    0.95
  10   1   7    7.81    0.98
 -10   1  -7    8.24    1.09
  10   1   8    6.78    0.93
  10   1   8    8.11    1.00
 -10   1  -8    7.33    1.06
  10   2 -11   -0.22    0.65
 -10   2  11   -0.46    0.75
 -10  -2  11    0.07    0.67
 -10   2  10    0.00    0.70
  10   2 -10    0.82    0.69
 -10  -2  10    0.90    0.71
  10   2  -9   14.39    1.19
 -10   2   9   13.88    1.23
 -10  -2   9   16.00    1.19
 -10   2   8    3.63    0.83
  10   2  -8    4.45    0.80
 -10  -2   8    4.85    0.80
  10   2  -7   31.31    1.54
 -10   2   7   29.77    1.62
 -10  -2   7   29.06    1.56
 -10   2   6    0.15    0.64
  10   2  -6    1.68    0.61
 -10  -2   6    1.10    0.61
  10   2  -5   45.33    1.83
 -10   2   5   43.93    1.94
 -10  -2   5   44.58    1.97
 -10   2   4    1.69    0.69
  10   2  -4    2.05    0.59
 -10  -2   4    2.02    0.64
  10   2  -3    5.34    0.75
  10   2  -3    5.69    0.68
  10   2  -3    5.24    0.75
 -10   2   3    5.72    0.79
  10   2  -2    8.16    0.75
  10   2  -2    7.23    0.84
  10   2  -2    6.80    0.79
 -10   2   2    7.85    0.87
 -10   2   2    9.80    1.03
  10   2  -1   33.83    1.65
 -10   2   1   33.34    1.59
 -10   2   1   35.94    1.78
  10   2  -1   33.97    2.31
 -10   2   0    1.00    0.63
  10   2   0    0.78    0.50
  10   2   0   -0.25    0.59
  10   2   1   25.98    1.49
  10   2   1   24.86    1.32
 -10   2  -1   23.98    1.55
 -10   2  -2    0.17    0.65
  10   2   2    0.10    0.60
  10   2   2   -0.73    0.48
  10   2   3   18.57    1.38
  10   2   3   22.08    1.30
 -10   2  -3   22.56    1.51
  10   2   4    3.29    0.69
  10   2   4    2.01    0.73
 -10   2  -4    1.45    0.76
  10   2   5   14.69    1.15
 -10   2  -5   17.20    1.49
  10   2   5   14.99    1.28
  10   2   6    0.60    0.65
  10   2   6    1.07    0.73
 -10   2  -6   -0.37    0.71
 -10   2  -7   16.15    1.52
  10   2   7   16.61    1.38
  10   2   7   13.81    1.21
 -10   3  10   -0.83    0.73
  10   3 -10   -0.65    0.67
 -10  -3  10   -0.37    0.66
  10   3  -9    7.45    0.94
 -10   3   9    8.27    1.08
 -10  -3   9    7.85    0.98
  10   3  -8    0.17    0.62
 -10   3   8   -0.13    0.68
 -10  -3   8   -0.92    0.58
 -10   3   7   17.22    1.34
  10   3  -7   20.54    1.26
 -10  -3   7   20.28    1.35
  10   3  -6    0.49    0.58
 -10   3   6   -0.58    0.67
 -10  -3   6   -0.30    0.61
  10   3  -5    8.45    0.87
 -10   3   5    6.43    0.97
 -10  -3   5    8.35    0.98
  10   3  -4    0.71    0.55
 -10   3   4    0.95    0.72
 -10  -3   4    0.47    0.67
 -10   3   3   28.16    1.61
  10   3  -3   31.75    1.41
  10   3  -3   28.88    1.50
 -10   3   2    3.65    0.82
  10   3  -2    2.87    0.67
 -10   3   2    3.16    0.84
  10   3  -1   10.47    1.08
 -10   3   1    9.31    1.10
 -10   3   1   12.61    1.09
  10   3  -1    9.90    0.99
  10   3   0    5.48    0.77
 -10   3   0    5.96    0.92
  10   3   0    6.27    0.88
 -10   3   0    5.31    0.88
  10   3   1    1.36    0.58
  10   3   1    2.11    0.73
 -10   3  -1    1.28    0.73
  10   3   2    2.75    0.81
 -10   3  -2    1.98    0.82
  10   3   2    3.55    0.70
  10   3   3   12.62    1.07
  10   3   3   14.56    1.33
 -10   3  -3   13.01    1.28
 -10   3  -4   -1.17    0.74
  10   3   4   -0.96    0.54
  10   3   4   -0.03    0.72
  10   3   5    7.72    0.99
 -10   3  -5    8.17    1.18
  10   3   5    8.12    1.04
  10   3   6    2.31    0.86
  10   3   6    2.25    0.78
 -10   3  -6    2.95    0.90
 -10   4   8    4.79    1.00
  10   4  -8    5.63    0.91
 -10  -4   8    6.92    0.98
 -10   4   7    2.22    0.88
  10   4  -7    3.23    0.74
 -10  -4   7    2.40    0.81
 -10   4   6   -0.13    0.76
  10   4  -6    1.49    0.67
 -10  -4   6    1.18    0.71
 -10   4   5    1.04    0.79
  10   4  -5    2.47    0.66
 -10  -4   5    1.81    0.73
 -10   4   4    2.03    0.86
  10   4  -4    2.05    0.63
 -10   4   4    2.76    0.85
 -10  -4   4    1.70    0.76
 -10   4   3   12.94    1.27
  10   4  -3   13.96    1.12
 -10   4   3   16.77    1.37
  10   4  -3   14.63    1.07
 -10   4   2   15.58    1.43
  10   4  -2   12.45    1.10
 -10   4   2   14.81    1.30
  10   4  -1   12.02    1.06
 -10   4   1   11.47    1.24
 -10   4   1   11.98    1.18
 -10   4   0    2.09    0.81
 -10   4   0    3.47    0.89
  10   4   0    2.88    0.72
  10   4   1    5.93    0.87
 -10   4  -1    6.98    1.08
 -10   4  -2    7.27    1.06
  10   4   2    6.62    0.98
  10   4   2    6.65    0.88
 -10   4  -3   10.00    1.28
  10   4   3    8.54    1.00
  10   4   3    9.02    1.14
  10   4   4   13.33    1.18
 -10   4  -4   11.61    1.35
  10   4   4   12.19    1.31
  10   4   5    3.17    0.80
  10   4   5    3.36    0.97
 -10   4  -5    2.13    0.93
  10   5  -5   -0.48    0.60
 -10   5   5   -0.31    0.82
 -10   5   5    1.88    0.87
 -10  -5   5    0.02    0.75
 -10   5   4    2.53    0.95
 -10   5   4    3.89    1.00
  10   5  -4    3.82    0.75
 -10  -5   4    3.95    0.91
 -10   5   3    1.23    0.86
 -10   5   3   -1.36    0.76
  10   5  -2   12.78    1.16
 -10   5   2   13.94    1.35
 -10   5   2   12.05    1.33
 -10   5   1    0.13    0.84
  10   5  -1    0.07    0.60
 -10   5   1   -0.67    0.82
  10   5   0   14.24    1.29
 -10   5   0   14.20    1.40
 -10   5   0   15.19    1.43
 -10   5  -1    5.27    1.09
  10   5   1    6.16    0.93
  10   5   2   14.58    1.28
 -10   5  -2   14.94    1.54
  11   0 -11    0.33    0.69
 -11   0  11    1.05    0.73
  11   0  -9   -0.02    0.60
  11   0  -8    1.20    0.63
  11   0  -7   -0.29    0.54
  11   0  -6   16.93    1.12
  11   0  -5    0.18    0.54
  11   0  -4    1.82    0.57
 -11   0   4    2.73    0.68
  11   0  -3    0.53    0.50
 -11   0   3    0.00    0.55
  11   0  -2   10.94    0.85
 -11   0   2   10.54    1.00
 -11   0   2   11.65    1.17
  11   0  -2   10.77    1.02
  11   0  -1    1.15    0.60
 -11   0   1   -0.22    0.52
 -11   0   0   18.67    1.35
  11   0   0   18.90    1.25
 -11   0  -1    0.52    0.55
  11   0   1   -0.29    0.61
  11   0   2   19.26    1.31
 -11   0  -2   16.98    1.37
 -11   0  -3   -0.24    0.61
  11   0   3    0.03    0.63
  11   0   4    8.00    0.94
 -11   0  -4    5.94    0.89
  11   0   5   -1.65    0.63
  11   0   6   10.11    1.09
  11   0   7    0.79    0.83
  11   1 -11    1.39    0.71
 -11   1  11    1.78    0.75
 -11  -1  11    1.11    0.74
 -11   1  10    4.53    0.87
  11   1 -10    5.66    0.88
 -11  -1  10    5.69    0.90
  11   1  -9    0.06    0.61
 -11   1   9   -0.52    0.63
 -11  -1   9    0.01    0.58
  11   1  -8   20.20    1.27
 -11   1   8   21.91    1.40
 -11  -1   8   22.38    1.38
  11   1  -7    0.75    0.59
 -11   1   7    1.18    0.69
 -11  -1   7    2.10    0.63
  11   1  -6   11.59    0.98
 -11   1   6   12.79    1.11
 -11  -1   6   11.50    1.10
 -11   1   5   33.35    1.60
  11   1  -5   32.01    1.50
 -11  -1   5   32.02    1.61
 -11   1   4   17.71    1.22
  11   1  -4   17.19    1.08
 -11  -1   4   18.92    1.23
 -11   1   3    0.84    0.62
  11   1  -3    1.00    0.52
 -11  -1   3    2.14    0.60
 -11   1   2    8.44    0.96
 -11   1   2    8.12    0.83
  11   1  -2    6.71    0.75
  11   1  -2    8.27    0.85
  11   1  -1    0.35    0.58
 -11   1   1   -0.02    0.58
  11   1  -1    0.40    0.37
  11  -1  -1    0.79    0.63
  11   1   0   46.53    1.94
 -11   1   0   46.01    2.09
  11   1   0   49.14    2.04
  11  -1   0   47.77    2.03
 -11   1  -1    9.41    0.97
  11   1   1    7.95    0.82
  11   1   1    9.33    0.96
  11  -1   1    8.27    0.95
  11   1   2   12.89    1.25
 -11   1  -2   12.61    1.14
  11   1   2   13.40    1.01
  11  -1   2   15.15    1.31
 -11   1  -3   -0.38    0.63
  11   1   3    0.39    0.66
  11   1   3   -0.22    0.49
  11  -1   3   -0.24    0.66
 -11   1  -4   12.36    1.19
  11   1   4   14.91    1.26
  11  -1   4   15.68    1.30
  11   1   5   12.39    1.14
 -11   1  -5    9.45    1.08
  11   1   6   14.87    1.35
 -11   1  -6   16.31    1.49
 -11   1  -7    0.72    0.84
  11   1   7    0.88    0.77
 -11   2  10   -0.69    0.73
  11   2 -10    0.55    0.70
 -11  -2  10    1.14    0.73
  11   2  -9    6.90    0.95
 -11   2   9    6.61    0.99
 -11  -2   9    7.24    0.97
 -11   2   8    2.06    0.73
  11   2  -8    3.35    0.74
 -11  -2   8    1.45    0.69
 -11   2   7   19.65    1.39
  11   2  -7   22.19    1.35
 -11  -2   7   20.89    1.39
 -11   2   6    1.71    0.73
  11   2  -6    1.71    0.65
 -11  -2   6    1.64    0.68
 -11   2   5   24.37    1.49
  11   2  -5   27.67    1.43
 -11  -2   5   29.27    1.59
 -11   2   4    2.08    0.73
  11   2  -4    1.97    0.61
 -11  -2   4    1.48    0.67
 -11   2   3   19.27    1.33
  11   2  -3   17.17    1.11
  11   2  -2    1.70    0.60
  11   2  -2    3.37    0.73
 -11   2   2    3.76    0.74
 -11   2   2    3.09    0.76
  11   2  -1   58.72    2.33
 -11   2   1   57.10    2.46
  11   2  -1   60.43    2.37
 -11   2   0   -0.94    0.65
  11   2   0    0.90    0.67
  11   2   0   -0.44    0.48
  11   2   1   13.90    1.06
  11   2   1   16.04    1.25
 -11   2  -1   13.44    1.32
 -11   2  -2    0.55    0.72
  11   2   2    0.33    0.55
  11   2   2    0.54    0.69
 -11   2  -3    3.55    0.90
  11   2   3    4.11    0.72
  11   2   3    3.84    0.83
  11   2   4    3.40    0.74
 -11   2  -4    3.22    0.89
  11   2   4    4.14    0.86
  11   2   5    8.07    1.05
 -11   2  -5    9.17    1.18
  11   2   5    9.35    1.02
  11   2   6   -0.81    0.59
 -11   2  -6    0.26    0.78
  11   2   6    0.36    0.74
 -11   3   9    2.73    0.91
  11   3  -9    3.41    0.84
 -11  -3   9    2.49    0.83
 -11   3   8    0.54    0.77
  11   3  -8   -0.10    0.66
 -11  -3   8   -0.60    0.65
 -11   3   7    7.44    1.06
  11   3  -7    6.03    0.89
 -11  -3   7    8.15    1.00
 -11   3   6    2.97    0.85
  11   3  -6    2.88    0.74
 -11  -3   6    4.05    0.83
 -11   3   5    5.19    0.96
  11   3  -5    5.62    0.81
 -11  -3   5    8.20    1.01
  11   3  -4    0.62    0.59
 -11   3   4   -0.91    0.65
 -11  -3   4    1.13    0.70
  11   3  -3   14.16    1.13
 -11   3   3   16.16    1.32
 -11   3   3   22.22    1.37
  11   3  -3   15.96    1.32
  11   3  -2    1.18    0.57
 -11   3   2    0.90    0.76
  11   3  -2    1.31    0.74
 -11   3   2    0.27    0.75
  11   3  -1    4.57    0.76
 -11   3   1    5.65    0.97
 -11   3   1    6.14    0.77
  11   3  -1    4.98    0.87
  11   3   0    9.65    0.99
  11   3   0   11.49    1.15
 -11   3   0   10.32    1.15
  11   3   1    5.60    0.96
  11   3   1    5.38    0.83
 -11   3  -1    4.23    0.93
  11   3   2    1.27    0.63
 -11   3  -2    0.22    0.79
  11   3   2   -0.68    0.73
  11   3   3    6.67    1.05
 -11   3  -3    8.25    1.15
  11   3   3    7.42    0.93
  11   3   4    1.11    0.79
 -11   3  -4    0.72    0.89
  11   3   4    1.03    0.66
  11   3   5    3.90    0.87
 -11   3  -5    4.39    1.10
  11   3   5    5.78    1.01
  11   4  -7    3.68    0.82
 -11   4   7    2.83    0.95
 -11  -4   7    3.38    0.85
 -11   4   6    2.30    0.89
  11   4  -6    0.47    0.67
 -11  -4   6    0.83    0.76
  11   4  -5    5.81    0.85
 -11   4   5    4.95    1.02
 -11  -4   5    5.54    0.95
  11   4  -4    2.20    0.71
 -11  -4   4    2.23    0.81
 -11   4   3    6.46    1.08
 -11   4   3    6.75    1.08
 -11   4   2    2.40    0.88
  11   4  -2    1.74    0.69
 -11   4   2    2.80    0.94
 -11   4   1    7.14    1.05
 -11   4   1    8.28    1.17
  11   4   0    3.55    0.92
 -11   4   0    2.91    0.97
  11   4   0    3.19    1.62
  11   4   1    4.57    0.98
  11   4   1    4.40    0.82
 -11   4  -1    3.44    1.02
 -11   4  -2    4.83    1.08
  11   4   2    3.45    0.99
  11   4   2    4.55    0.84
  11   4   3   13.22    1.22
 -11   4  -3   15.51    1.56
  11   4   3   17.29    1.55
 -12   0  10    2.85    0.81
  12   0 -10    2.02    0.80
  12   0  -9   -0.38    0.65
 -12   0   9    0.90    0.72
 -12   0   8    2.88    0.78
  12   0  -8    3.23    0.78
  12   0  -7    0.68    0.63
 -12   0   7    0.92    0.69
  12   0  -6   13.52    1.07
 -12   0   6   15.33    1.20
  12   0  -5   -0.16    0.56
 -12   0   5   -0.47    0.60
 -12   0   4   12.43    1.13
  12   0  -4   10.40    0.95
 -12   0   3    0.05    0.58
  12   0  -3   -0.28    0.50
 -12   0   2    1.83    0.65
  12   0  -1    0.71    0.61
 -12   0   1   -0.49    0.56
 -12   0   0    4.32    0.75
  12   0   0    4.10    0.79
 -12   0  -1   -0.92    0.57
  12   0   1   -0.38    0.60
  12   0   2   31.40    1.62
  12   0   3    0.77    0.69
  12   0   4    5.79    0.92
  12   0   5    0.64    0.74
  12   0   6   23.03    1.62
  12   1 -10   16.57    1.26
 -12   1  10   15.37    1.27
 -12  -1  10   17.45    1.36
  12   1  -9    0.61    0.67
 -12   1   9    0.28    0.67
 -12  -1   9    0.74    0.66
 -12   1   8   15.30    1.23
 -12  -1   8   15.43    1.21
 -12   1   7    0.64    0.66
  12   1  -7    0.47    0.60
 -12  -1   7    0.05    0.56
  12   1  -6    5.43    0.78
 -12   1   6    5.33    0.87
 -12  -1   6    7.15    0.85
  12   1  -5    7.45    0.84
 -12   1   5    7.80    0.97
 -12  -1   5    8.55    0.92
 -12   1   4   11.74    1.06
  12   1  -4    9.08    0.86
 -12  -1   4    9.95    0.96
 -12   1   3    0.58    0.64
 -12   1   2   12.82    1.16
  12   1  -2   12.19    1.04
  12   1  -1   11.31    1.02
 -12   1   1   10.06    1.04
  12  -1  -1   10.14    1.00
 -12   1   0   20.18    1.47
  12   1   0   20.66    1.39
  12  -1   0   18.91    1.40
  12   1   1    7.05    0.92
 -12   1  -1    5.18    0.86
  12  -1   1    5.71    0.91
  12   1   2    3.78    0.81
 -12   1  -2    3.75    0.84
  12  -1   2    5.54    0.89
  12   1   3    1.08    0.74
 -12   1  -3    1.30    0.77
  12  -1   3    1.82    0.80
 -12   1  -4   13.09    1.23
  12   1   4   10.07    1.12
 -12   1  -5   -1.15    0.74
  12   1   5   -0.04    0.73
 -12   2   9    6.30    0.99
  12   2  -9    6.17    0.95
 -12  -2   9    6.03    0.96
 -12   2   8    0.32    0.73
  12   2  -8    2.01    0.74
 -12  -2   8    0.73    0.69
  12   2  -7   14.73    1.21
 -12   2   7   14.74    1.31
 -12  -2   7   16.98    1.31
 -12   2   6    0.91    0.76
  12   2  -6    0.96    0.67
 -12  -2   6    1.22    0.70
 -12   2   5   15.37    1.31
  12   2  -5   13.90    1.10
 -12  -2   5   12.94    1.26
  12   2  -4   -0.42    0.55
 -12  -2   4   -0.20    0.65
 -12   2   3   42.04    2.11
 -12   2   3   37.28    1.86
 -12  -2   3   41.67    1.86
  12   2  -2    5.14    0.81
 -12   2   2    4.75    0.90
  12   2  -2    5.28    0.77
 -12   2   1   15.02    1.36
  12   2  -1   13.69    1.27
  12   2  -1    9.98    0.87
  12   2   0   -0.27    0.99
 -12   2   0   -0.57    0.70
  12   2   0    0.20    0.68
 -12   2  -1    8.54    1.07
  12   2   1    9.97    1.02
  12   2   1   10.19    1.06
 -12   2  -2    3.66    0.86
  12   2   2    2.26    0.67
  12   2   2    3.57    0.84
  12   2   3    2.91    0.72
 -12   2  -3    2.00    0.88
  12   2   3    3.11    0.87
  12   2   4    0.83    0.77
  12   2   4   -0.63    0.59
 -12   2  -4    0.41    0.84
  12   2   5    8.25    1.02
  12   2   5    7.99    1.10
 -12   2  -5    6.46    1.08
  12   3  -8    0.78    0.74
 -12   3   8    0.51    0.86
 -12  -3   8    1.27    0.78
  12   3  -7    2.37    0.80
 -12   3   7    0.47    0.82
 -12  -3   7    1.03    0.75
 -12   3   6   -0.15    0.78
  12   3  -6   -0.30    0.65
 -12  -3   6    0.51    0.69
  12   3  -5    6.43    0.89
 -12   3   5    6.99    1.06
 -12  -3   5    8.69    1.08
 -12   3   4    2.72    0.94
 -12   3   4    0.24    0.78
 -12  -3   4    1.89    0.80
 -12   3   3   11.77    1.29
 -12   3   3   12.76    1.21
  12   3  -2    1.75    0.84
  12   3  -2    1.66    0.64
 -12   3   2    0.67    0.80
 -12   3   2    2.62    0.88
  12   3  -1    3.97    0.93
 -12   3   1    3.09    0.92
  12   3  -1    3.89    0.57
 -12   3   0    1.78    0.87
  12   3   0    1.38    1.64
  12   3   0    0.81    0.84
 -12   3  -1   10.94    1.28
  12   3   1   10.69    1.18
  12   3   1   10.19    1.09
 -12   3  -2    0.85    0.86
  12   3   2    1.30    0.69
  12   3   2    0.33    0.81
  12   3   3    7.85    1.02
  12   3   3    9.77    1.19
 -12   3  -3    8.44    1.25
 -12   4   5   -0.20    0.89
  12   4  -5    0.87    0.70
 -12   4   5    3.63    1.07
 -12  -4   5    0.45    0.75
 -12   4   4    6.51    1.17
 -12  -4   4    3.56    0.93
 -12   4   3    3.80    1.00
 -12   4   3    2.42    0.97
 -12  -4   3    5.02    1.02
 -12   4   2   -1.80    0.78
 -12   4   2   -0.80    0.86
  12   4  -2   -0.19    0.63
  12   4  -2   -0.48    0.81
  12   4  -1    9.31    1.19
 -12   4   1    8.63    1.23
  12   4  -1    8.18    1.04
  12   4   0    0.36    0.66
  12   4   0    1.18    0.92
 -12   4   0   -0.94    0.89
  13   0  -9    0.23    0.72
 -13   0   9    0.70    0.76
  13   0  -8   13.81    1.19
 -13   0   8   14.27    1.31
  13   0  -7   -0.95    0.60
 -13   0   7   -1.43    0.62
  13   0  -6   15.15    1.15
 -13   0   6   16.17    1.30
  13   0  -5   -0.06    0.58
 -13   0   5    0.12    0.67
 -13   0   4    1.40    0.69
 -13   0   3    2.08    0.67
 -13   0   2    2.43    0.73
  13   0  -1    0.77    0.66
  13   0   0   28.35    1.57
  13   0   1    0.39    0.68
  13   0   2    6.43    0.94
  13   0   3    0.99    0.76
  13   0   4   14.78    1.33
  13   1  -8    4.31    0.79
 -13   1   8    5.27    0.93
  13   1  -7    4.62    0.80
 -13   1   7    5.41    0.93
 -13   1   6    9.91    1.09
  13   1  -6    8.30    0.94
 -13   1   5    4.01    0.82
  13   1  -5    2.60    0.67
 -13   1   4    5.44    0.87
 -13   1   2   11.75    1.16
  13   1  -1   10.62    1.08
 -13   1   1   11.52    1.16
 -13   1   0    2.08    0.77
  13   1   0    0.94    0.73
  13   1   1    2.57    0.81
 -13   1  -1    1.17    0.76
  13   1   2    2.31    0.80
 -13   1  -2    1.51    0.80
  13   1   3    2.91    0.87
 -13   1  -3    1.73    0.83
 -13   1  -4    7.25    1.08
  13   1   4    8.83    1.09
 -13   2   7    6.95    1.04
  13   2  -7    5.02    0.87
 -13  -2   7    6.07    0.95
  13   2  -6   -0.49    0.62
 -13   2   6   -1.02    0.72
 -13  -2   6   -0.39    0.66
 -13   2   5    2.77    0.87
  13   2  -5    3.86    0.77
 -13  -2   5    4.12    0.87
 -13   2   4    3.00    0.86
 -13   2   4    6.26    1.04
 -13  -2   4    5.00    0.89
 -13   2   3   11.22    1.24
 -13  -2   3   15.57    1.23
 -13   2   2    2.25    0.86
  13   2  -2    2.56    0.70
  13   2  -1   20.20    1.45
  13   2  -1   17.28    1.23
 -13   2   1   15.89    1.52
 -13   2   0    0.06    0.76
  13   2   0    0.09    0.73
  13   2   0    0.08    0.61
  13   2   1    4.32    0.80
  13   2   1    4.93    0.95
 -13   2  -1    4.38    1.02
 -13   2  -2    5.67    1.03
  13   2   2    3.79    0.91
 -13   2  -3    2.67    0.97
  13   2   3    1.35    0.87
 -13   3   5    6.49    1.09
 -13  -3   5    8.25    1.11
 -13   3   4    0.51    0.82
 -13  -3   4    0.15    0.77
 -13   3   3    3.69    0.96
 -13   3   3    4.82    1.07
  13   3  -2    1.96    0.87
  13   3  -2    2.05    0.72
 -13   3   2    0.15    0.86
  13   3  -1   10.25    1.08
 -13   3   1   10.42    1.28
  13   3  -1   11.89    1.24
  13   3   0    0.80    0.82
 -13   3   0   -0.11    0.85
  13   3   0    1.14    0.66
  13   3   1    8.75    1.18
 -13   3  -1    8.36    1.24
  13   3   1    9.00    1.08
 -14   0   7    0.82    0.76
 -14   0   6   14.66    1.32
 -14   0   5    0.95    0.71
  14   0   0   15.83    1.32
  14   0   1   -0.32    0.71
  14   0   2    1.07    0.80
 -14   1   6    5.76    1.03
  14   1  -6    6.20    0.87
 -14   1   5    0.71    0.78
 -14   1   4    5.32    1.02
 -14   1   3   -0.37    0.71
 -14   1   2    2.06    0.83
  14   1  -1    6.19    0.96
 -14   1   1    5.25    0.97
  14   1   0    1.15    0.77
 -14   1   0   -0.05    0.75
  14   1   1    7.08    1.04
 -14   1  -1    9.31    1.12
 -14   2   3    7.93    1.15
 -14   2   2   -0.79    0.80
  14   2  -1    5.45    0.98
 -14   2   1    5.63    1.04
   0   0   0    0.00    0.00
;
loop_
_space_group_symop_operation_xyz
'x, y, z'
'-x, y, -z+1/2'
'-x, -y, -z'
'x, -y, z-1/2'
loop_
_atom_site_label
_atom_site_type_symbol
_atom_site_fract_x
_atom_site_fract_y
_atom_site_fract_z
_atom_site_U_iso_or_equiv
_atom_site_adp_type
_atom_site_occupancy
_atom_site_site_symmetry_order
_atom_site_calc_flag
_atom_site_refinement_flags_posn
_atom_site_refinement_flags_adp
_atom_site_refinement_flags_occupancy
_atom_site_disorder_assembly
_atom_site_disorder_group
Zn1 Zn 0.500000 0.09597(5) 0.750000 0.01995(13) Uani 1 2 d S T P . .
O1 O 0.36077(15) 0.4042(2) 0.72855(13) 0.0240(3) Uani 1 1 d . . . . .
O2 O 0.41494(15) 0.2101(2) 0.57131(12) 0.0258(3) Uani 1 1 d . . . . .
C1 C 0.35581(19) 0.3818(3) 0.61192(18) 0.0220(4) Uani 1 1 d . . . . .
C2 C 0.2879(2) 0.5540(4) 0.52047(18) 0.0255(4) Uani 1 1 d . . . . .
H1 H 0.317491 0.575342 0.446189 0.031 Uiso 1 1 calc R U . . .
C3 C 0.1888(2) 0.6820(4) 0.53298(18) 0.0258(4) Uani 1 1 d . . . . .
C4 C 0.1357(2) 0.8566(4) 0.4313(2) 0.0371(5) Uani 1 1 d . . . . .
H2A H 0.181343 0.847633 0.364051 0.056 Uiso 1 1 calc R U . . .
H2B H 0.140303 1.018001 0.464543 0.056 Uiso 1 1 calc R U . . .
H2C H 0.051431 0.815677 0.400267 0.056 Uiso 1 1 calc R U . . .
C5 C 0.1225(2) 0.6683(5) 0.6419(2) 0.0366(5) Uani 1 1 d . . . . .
H3A H 0.152261 0.532212 0.693589 0.055 Uiso 1 1 calc R U . . .
H3B H 0.036102 0.649845 0.611502 0.055 Uiso 1 1 calc R U . . .
H3C H 0.136781 0.814256 0.690427 0.055 Uiso 1 1 calc R U . . .
OW1 O 0.39298(16) -0.1401(3) 0.82073(14) 0.0266(3) Uani 1 1 d . . . . .
H4A H 0.401(3) -0.156(5) 0.894(3) 0.045(8) Uiso 1 1 d . . . . .
H4B H 0.381(3) -0.266(6) 0.794(3) 0.040(8) Uiso 1 1 d . . . . .
loop_
_atom_site_aniso_label
_atom_site_aniso_U_11
_atom_site_aniso_U_22
_atom_site_aniso_U_33
_atom_site_aniso_U_23
_atom_site_aniso_U_13
_atom_site_aniso_U_12
Zn1 0.0307(2) 0.01424(16) 0.01447(16) 0.000 0.00297(12) 0.000
O1 0.0349(8) 0.0201(7) 0.0168(6) 0.0003(5) 0.0043(6) 0.0012(6)
O2 0.0362(8) 0.0201(6) 0.0202(6) -0.0001(5) 0.0032(6) 0.0085(6)
C1 0.0282(10) 0.0175(8) 0.0206(9) -0.0003(6) 0.0048(8) -0.0015(7)
C2 0.0370(12) 0.0215(8) 0.0187(8) 0.0022(7) 0.0070(8) 0.0052(8)
C3 0.0310(11) 0.0222(9) 0.0230(9) -0.0003(7) 0.0018(8) 0.0018(8)
C4 0.0419(14) 0.0310(10) 0.0373(12) 0.0085(9) 0.0038(11) 0.0121(10)
C5 0.0321(12) 0.0461(13) 0.0332(11) 0.0020(10) 0.0100(10) 0.0076(11)
OW1 0.0441(10) 0.0185(6) 0.0179(7) -0.0018(5) 0.0074(6) -0.0081(6)
loop_
_atom_type_symbol
_atom_type_description
_atom_type_scat_dispersion_real
_atom_type_scat_dispersion_imag
_atom_type_scat_source
C C 0.0033 0.0016 'International Tables Vol C Tables 4.2.6.8 and 6.1.1.4'
H H 0.0000 0.0000 'International Tables Vol C Tables 4.2.6.8 and 6.1.1.4'
O O 0.0106 0.0060 'International Tables Vol C Tables 4.2.6.8 and 6.1.1.4'
Zn Zn 0.2839 1.4301 'International Tables Vol C Tables 4.2.6.8 and 6.1.1.4'
loop_
_geom_angle_atom_site_label_1
_geom_angle_atom_site_label_2
_geom_angle_atom_site_label_3
_geom_angle
_geom_angle_site_symmetry_1
_geom_angle_site_symmetry_3
OW1 Zn1 OW1 98.82(9) 2_656 .
OW1 Zn1 O2 92.34(6) 2_656 .
OW1 Zn1 O2 110.57(7) . .
OW1 Zn1 O2 110.57(6) 2_656 2_656
OW1 Zn1 O2 92.34(6) . 2_656
O2 Zn1 O2 144.92(8) . 2_656
OW1 Zn1 O1 95.15(6) 2_656 2_656
OW1 Zn1 O1 151.87(6) . 2_656
O2 Zn1 O1 93.03(6) . 2_656
O2 Zn1 O1 59.81(5) 2_656 2_656
OW1 Zn1 O1 151.87(6) 2_656 .
OW1 Zn1 O1 95.15(6) . .
O2 Zn1 O1 59.81(5) . .
O2 Zn1 O1 93.03(6) 2_656 .
O1 Zn1 O1 83.39(7) 2_656 .
OW1 Zn1 C1 122.17(6) 2_656 .
OW1 Zn1 C1 106.16(7) . .
O2 Zn1 C1 30.10(6) . .
O2 Zn1 C1 119.31(6) 2_656 .
O1 Zn1 C1 86.41(6) 2_656 .
O1 Zn1 C1 29.78(6) . .
OW1 Zn1 C1 106.16(7) 2_656 2_656
OW1 Zn1 C1 122.17(6) . 2_656
O2 Zn1 C1 119.31(6) . 2_656
O2 Zn1 C1 30.10(6) 2_656 2_656
O1 Zn1 C1 29.78(6) 2_656 2_656
O1 Zn1 C1 86.41(6) . 2_656
C1 Zn1 C1 102.91(9) . 2_656
C1 O1 Zn1 86.33(11) . .
C1 O2 Zn1 94.49(11) . .
O1 C1 O2 119.09(17) . .
O1 C1 C2 122.29(17) . .
O2 C1 C2 118.57(17) . .
O1 C1 Zn1 63.89(10) . .
O2 C1 Zn1 55.41(9) . .
C2 C1 Zn1 170.94(15) . .
C3 C2 C1 127.03(19) . .
C2 C3 C5 125.58(19) . .
C2 C3 C4 119.1(2) . .
C5 C3 C4 115.3(2) . .
loop_
_geom_bond_atom_site_label_1
_geom_bond_atom_site_label_2
_geom_bond_distance
_geom_bond_site_symmetry_2
Zn1 OW1 2.0051(15) 2_656
Zn1 OW1 2.0052(15) .
Zn1 O2 2.0934(13) .
Zn1 O2 2.0934(13) 2_656
Zn1 O1 2.2809(14) 2_656
Zn1 O1 2.2810(14) .
Zn1 C1 2.5350(19) .
Zn1 C1 2.535(2) 2_656
O1 C1 1.262(2) .
O2 C1 1.275(2) .
C1 C2 1.479(3) .
C2 C3 1.332(3) .
C3 C5 1.501(3) .
C3 C4 1.504(3) .
