#------------------------------------------------------------------------------
#$Date: 2022-06-30 10:22:38 +0300 (Thu, 30 Jun 2022) $
#$Revision: 276427 $
#$URL: file:///home/coder/svn-repositories/cod/cif/8/10/55/8105572.cif $
#------------------------------------------------------------------------------
#
# This file is available in the Crystallography Open Database (COD),
# http://www.crystallography.net/
#
# All data on this site have been placed in the public domain by the
# contributors.
#
data_8105572
loop_
_publ_author_name
'Zhou, Zhixu'
'Long, Dan'
'Wu, Qing-Mei'
'Yu, De-Hou'
'Lu, Hong-Guang'
_publ_section_title
;
 The crystal structure of 2-(4-fluorophenyl)-1,3,4-oxadiazole, C8H5FN2O
;
_journal_issue                   1
_journal_name_full
'Zeitschrift f\"ur Kristallographie - New Crystal Structures'
_journal_page_first              153
_journal_page_last               154
_journal_paper_doi               10.1515/ncrs-2018-0242
_journal_volume                  234
_journal_year                    2018
_chemical_formula_sum            'C8 H5 F N2 O'
_chemical_formula_weight         164.14
_space_group_crystal_system      monoclinic
_space_group_IT_number           4
_space_group_name_Hall           'P 2yb'
_space_group_name_H-M_alt        'P 1 21 1'
_atom_sites_solution_hydrogens   geom
_audit_creation_method           SHELXL-2014/7
_cell_angle_alpha                90
_cell_angle_beta                 90.08(3)
_cell_angle_gamma                90
_cell_formula_units_Z            4
_cell_length_a                   7.892(8)
_cell_length_b                   6.088(6)
_cell_length_c                   15.701(16)
_cell_measurement_reflns_used    1422
_cell_measurement_temperature    273(2)
_cell_measurement_theta_max      21.62
_cell_measurement_theta_min      2.58
_cell_volume                     754.4(13)
_computing_structure_refinement  'SHELXL-2014/7 (Sheldrick, 2014)'
_diffrn_ambient_temperature      273(2)
_diffrn_measured_fraction_theta_full 0.978
_diffrn_measured_fraction_theta_max 0.978
_diffrn_measurement_device_type  CCD
_diffrn_radiation_type           MoK\a
_diffrn_radiation_wavelength     0.71073
_diffrn_reflns_av_R_equivalents  0.0363
_diffrn_reflns_av_unetI/netI     0.0441
_diffrn_reflns_Laue_measured_fraction_full 0.978
_diffrn_reflns_Laue_measured_fraction_max 0.978
_diffrn_reflns_limit_h_max       9
_diffrn_reflns_limit_h_min       -9
_diffrn_reflns_limit_k_max       7
_diffrn_reflns_limit_k_min       -7
_diffrn_reflns_limit_l_max       13
_diffrn_reflns_limit_l_min       -18
_diffrn_reflns_number            4791
_diffrn_reflns_point_group_measured_fraction_full 0.971
_diffrn_reflns_point_group_measured_fraction_max 0.971
_diffrn_reflns_theta_full        25.147
_diffrn_reflns_theta_max         25.147
_diffrn_reflns_theta_min         2.581
_exptl_absorpt_coefficient_mu    0.116
_exptl_absorpt_correction_type   multi-scan
_exptl_absorpt_process_details   sadabs
_exptl_crystal_colour            colorless
_exptl_crystal_density_diffrn    1.445
_exptl_crystal_description       Block
_exptl_crystal_F_000             336
_exptl_crystal_size_max          0.220
_exptl_crystal_size_mid          0.200
_exptl_crystal_size_min          0.180
_exptl_transmission_factor_max   0.864
_exptl_transmission_factor_min   0.864
_refine_diff_density_max         0.121
_refine_diff_density_min         -0.234
_refine_diff_density_rms         0.053
_refine_ls_abs_structure_details
;
 Flack x determined using 719 quotients [(I+)-(I-)]/[(I+)+(I-)]
 (Parsons, Flack and Wagner, Acta Cryst. B69 (2013) 249-259).
;
_refine_ls_abs_structure_Flack   0.0(7)
_refine_ls_extinction_coef       .
_refine_ls_extinction_method     none
_refine_ls_goodness_of_fit_ref   0.971
_refine_ls_hydrogen_treatment    constr
_refine_ls_matrix_type           full
_refine_ls_number_parameters     217
_refine_ls_number_reflns         2635
_refine_ls_number_restraints     1
_refine_ls_restrained_S_all      0.971
_refine_ls_R_factor_all          0.0569
_refine_ls_R_factor_gt           0.0423
_refine_ls_shift/su_max          0.000
_refine_ls_shift/su_mean         0.000
_refine_ls_structure_factor_coef Fsqd
_refine_ls_weighting_details
'w=1/[\s^2^(Fo^2^)+(0.0540P)^2^] where P=(Fo^2^+2Fc^2^)/3'
_refine_ls_weighting_scheme      calc
_refine_ls_wR_factor_gt          0.0924
_refine_ls_wR_factor_ref         0.1032
_reflns_Friedel_coverage         0.802
_reflns_Friedel_fraction_full    0.962
_reflns_Friedel_fraction_max     0.962
_reflns_number_gt                2048
_reflns_number_total             2635
_reflns_threshold_expression     'I > 2\s(I)'
_iucr_refine_instructions_details
;
TITL 1 in P2(1) 
CELL 0.71073   7.8921   6.0882  15.7010  90.000  90.082  90.000 
ZERR   4.00   0.0075   0.0057   0.0163   0.000   0.031   0.000 
LATT -1 
SYMM -X, 0.5+Y, -Z 
SFAC C  H  N  O  F  
UNIT 32 20 8 4 4 
L.S. 20
ACTA
BOND 
FMAP 2
PLAN 20
CONF 
SIZE 0.22 0.2 0.18 
WGHT  0.046300  0.000000 
FVAR  0.244060
TEMP 0.000 
MOLE 1
C1     1   0.110618  0.469105  0.642909 11.000000  0.061220  0.079450 = 
           0.082550  0.016440 -0.000540 -0.006120
C2     1   0.114901  0.537891  0.726420 11.000000  0.067310  0.065900 = 
           0.088480  0.003380  0.006870  0.000430
AFIX 43
H2     2   0.068945  0.672762  0.741873 11.000000 -1.200000
AFIX 0
C3     1   0.188831  0.402865  0.787121 11.000000  0.062790  0.064100 = 
           0.071540 -0.008690  0.007190 -0.009510
AFIX 43
H3     2   0.192457  0.446436  0.843866 11.000000 -1.200000
AFIX 0
C4     1   0.257578  0.201943  0.762842 11.000000  0.048440  0.056110 = 
           0.063590 -0.002290  0.005070 -0.013580
C5     1   0.250841  0.138484  0.677472 11.000000  0.069600  0.071130 = 
           0.067300 -0.008460  0.006370 -0.004900
AFIX 43
H5     2   0.297197  0.004698  0.660944 11.000000 -1.200000
AFIX 0
C6     1   0.175429  0.273593  0.616973 11.000000  0.074930  0.094440 = 
           0.066060  0.001540  0.001720 -0.008690
AFIX 43
H6     2   0.169489  0.231191  0.560143 11.000000 -1.200000
AFIX 0
C7     1   0.338800  0.059866  0.825822 11.000000  0.055420  0.055970 = 
           0.058390 -0.008890  0.007250 -0.012510
C8     1   0.425842 -0.044179  0.947170 11.000000  0.098880  0.073500 = 
           0.062490  0.006450  0.002720 -0.002400
AFIX 43
H8     2   0.447724 -0.050022  1.005343 11.000000 -1.200000
AFIX 0
MOLE 2
C9     1   0.365459  0.890787  0.401445 11.000000  0.068390  0.090510 = 
           0.084540 -0.022270 -0.004810  0.009090
C10    1   0.290665  0.688621  0.402149 11.000000  0.079820  0.093760 = 
           0.067450  0.003600  0.006420  0.001150
AFIX 43
H10    2   0.276571  0.611239  0.452715 11.000000 -1.200000
AFIX 0
C11    1   0.236143  0.601949  0.324746 11.000000  0.065100  0.066320 = 
           0.067610  0.006110  0.002440  0.001760
AFIX 43
H11    2   0.185346  0.464166  0.323276 11.000000 -1.200000
AFIX 0
C12    1   0.257063  0.719822  0.249625 11.000000  0.048190  0.054410 = 
           0.065610  0.004840  0.006090  0.009350
C13    1   0.334793  0.924099  0.251882 11.000000  0.062540  0.057500 = 
           0.085590  0.005920  0.007790  0.003470
AFIX 43
H13    2   0.349715  1.003500  0.201850 11.000000 -1.200000
AFIX 0
C14    1   0.390062  1.009465  0.328688 11.000000  0.069080  0.063620 = 
           0.108540 -0.015620  0.001730  0.001210
AFIX 43
H14    2   0.443206  1.145702  0.330758 11.000000 -1.200000
AFIX 0
C15    1   0.198491  0.631073  0.167406 11.000000  0.051710  0.060420 = 
           0.067940  0.008830  0.004280  0.004710
C16    1   0.094647  0.402929  0.080605 11.000000  0.084040  0.108140 = 
           0.079190 -0.008470 -0.012350 -0.013980
AFIX 43
H16    2   0.046861  0.275833  0.058150 11.000000 -1.200000
AFIX 0
MOLE 1
F1     5   0.038096  0.601117  0.582885 11.000000  0.099530  0.116420 = 
           0.104600  0.034730 -0.008300  0.008830
MOLE 2
F2     5   0.418569  0.975432  0.477918 11.000000  0.128260  0.148000 = 
           0.104280 -0.052880 -0.017240 -0.002270
MOLE 1
N1     3   0.415764 -0.121862  0.813952 11.000000  0.086200  0.059090 = 
           0.065370 -0.005240 -0.000670 -0.003780
N2     3   0.473173 -0.192310  0.895222 11.000000  0.096130  0.063960 = 
           0.070240  0.002570  0.000630 -0.005040
MOLE 2
N3     3   0.198664  0.723240  0.093140 11.000000  0.086910  0.088140 = 
           0.068650  0.016240 -0.000210  0.000350
N4     3   0.129611  0.569386  0.035696 11.000000  0.093190  0.111110 = 
           0.069280  0.006990 -0.012600 -0.000830
MOLE 1
O1     4   0.341301  0.121301  0.909924 11.000000  0.098570  0.072380 = 
           0.058460 -0.005040  0.007220  0.009480
MOLE 2
O2     4   0.133275  0.426271  0.165047 11.000000  0.082270  0.077400 = 
           0.069000  0.003990 -0.004270 -0.015120
HKLF 4 
END  
;
_cod_data_source_file            suppl_ncrs-2018-0242_suppl.cif
_cod_data_source_block           1
_cod_original_sg_symbol_H-M      'P 21'
_cod_database_code               8105572
_shelx_shelxl_version_number     2014/7
_shelx_space_group_comment
;
The symmetry employed for this shelxl refinement is uniquely defined
by the following loop, which should always be used as a source of
symmetry information in preference to the above space-group names.
They are only intended as comments.
;
_shelx_estimated_absorpt_t_min   0.975
_shelx_estimated_absorpt_t_max   0.979
_shelx_res_file
;

    1.res created by SHELXL-2014/7

TITL 1 in P2(1)
CELL 0.71073   7.8921   6.0882  15.7010  90.000  90.082  90.000
ZERR   4.00   0.0075   0.0057   0.0163   0.000   0.031   0.000
LATT -1
SYMM -X, 0.5+Y, -Z
SFAC C  H  N  O  F
UNIT 32 20 8 4 4
L.S. 20
ACTA
BOND
SIZE 0.22 0.2 0.18
CONF
FMAP 2
PLAN 20
TEMP 0.000
WGHT    0.054000
FVAR       0.24406
MOLE 1
C1    1    0.110618    0.469105    0.642909    11.00000    0.06122    0.07945 =
         0.08255    0.01644   -0.00054   -0.00612
C2    1    0.114901    0.537891    0.726420    11.00000    0.06731    0.06590 =
         0.08848    0.00338    0.00687    0.00043
AFIX  43
H2    2    0.068945    0.672762    0.741873    11.00000   -1.20000
AFIX   0
C3    1    0.188831    0.402865    0.787121    11.00000    0.06279    0.06410 =
         0.07154   -0.00869    0.00719   -0.00951
AFIX  43
H3    2    0.192457    0.446436    0.843866    11.00000   -1.20000
AFIX   0
C4    1    0.257578    0.201943    0.762842    11.00000    0.04844    0.05611 =
         0.06359   -0.00229    0.00507   -0.01358
C5    1    0.250841    0.138484    0.677472    11.00000    0.06960    0.07113 =
         0.06730   -0.00846    0.00637   -0.00490
AFIX  43
H5    2    0.297197    0.004698    0.660944    11.00000   -1.20000
AFIX   0
C6    1    0.175429    0.273593    0.616973    11.00000    0.07493    0.09444 =
         0.06606    0.00154    0.00172   -0.00869
AFIX  43
H6    2    0.169489    0.231191    0.560143    11.00000   -1.20000
AFIX   0
C7    1    0.338800    0.059866    0.825822    11.00000    0.05542    0.05597 =
         0.05839   -0.00889    0.00725   -0.01251
C8    1    0.425842   -0.044179    0.947170    11.00000    0.09888    0.07350 =
         0.06249    0.00645    0.00272   -0.00240
AFIX  43
H8    2    0.447724   -0.050022    1.005343    11.00000   -1.20000
AFIX   0
MOLE 2
C9    1    0.365459    0.890787    0.401445    11.00000    0.06839    0.09051 =
         0.08454   -0.02227   -0.00481    0.00909
C10   1    0.290665    0.688621    0.402149    11.00000    0.07982    0.09376 =
         0.06745    0.00360    0.00642    0.00115
AFIX  43
H10   2    0.276571    0.611239    0.452715    11.00000   -1.20000
AFIX   0
C11   1    0.236143    0.601949    0.324746    11.00000    0.06510    0.06632 =
         0.06761    0.00611    0.00244    0.00176
AFIX  43
H11   2    0.185346    0.464166    0.323276    11.00000   -1.20000
AFIX   0
C12   1    0.257063    0.719822    0.249625    11.00000    0.04819    0.05441 =
         0.06561    0.00484    0.00609    0.00935
C13   1    0.334793    0.924099    0.251882    11.00000    0.06254    0.05750 =
         0.08559    0.00592    0.00779    0.00347
AFIX  43
H13   2    0.349715    1.003500    0.201850    11.00000   -1.20000
AFIX   0
C14   1    0.390062    1.009465    0.328688    11.00000    0.06908    0.06362 =
         0.10854   -0.01562    0.00173    0.00121
AFIX  43
H14   2    0.443206    1.145702    0.330758    11.00000   -1.20000
AFIX   0
C15   1    0.198491    0.631073    0.167406    11.00000    0.05171    0.06042 =
         0.06794    0.00883    0.00428    0.00471
C16   1    0.094647    0.402929    0.080605    11.00000    0.08404    0.10814 =
         0.07919   -0.00847   -0.01235   -0.01398
AFIX  43
H16   2    0.046861    0.275833    0.058150    11.00000   -1.20000
AFIX   0
MOLE 1
F1    5    0.038096    0.601117    0.582885    11.00000    0.09953    0.11642 =
         0.10460    0.03473   -0.00830    0.00883
MOLE 2
F2    5    0.418569    0.975432    0.477918    11.00000    0.12826    0.14800 =
         0.10428   -0.05288   -0.01724   -0.00227
MOLE 1
N1    3    0.415764   -0.121862    0.813952    11.00000    0.08620    0.05909 =
         0.06537   -0.00524   -0.00067   -0.00378
N2    3    0.473173   -0.192310    0.895222    11.00000    0.09613    0.06396 =
         0.07024    0.00257    0.00063   -0.00504
MOLE 2
N3    3    0.198664    0.723240    0.093140    11.00000    0.08691    0.08814 =
         0.06865    0.01624   -0.00021    0.00035
N4    3    0.129611    0.569386    0.035696    11.00000    0.09319    0.11111 =
         0.06928    0.00699   -0.01260   -0.00083
MOLE 1
O1    4    0.341301    0.121301    0.909924    11.00000    0.09857    0.07238 =
         0.05846   -0.00504    0.00722    0.00948
MOLE 2
O2    4    0.133275    0.426271    0.165047    11.00000    0.08227    0.07740 =
         0.06900    0.00399   -0.00427   -0.01512
HKLF 4

REM  1 in P2(1)
REM R1 =  0.0423 for    2048 Fo > 4sig(Fo)  and  0.0569 for all    2635 data
REM    217 parameters refined using      1 restraints

END

WGHT      0.0463      0.0000

REM Highest difference peak  0.121,  deepest hole -0.234,  1-sigma level  0.053
Q1    1   0.3500  0.3757  0.4386  11.00000  0.05    0.12
Q2    1   0.6222  0.9050  0.4867  11.00000  0.05    0.11
Q3    1   0.1765  0.8227  0.5420  11.00000  0.05    0.11
Q4    1   0.2759  0.2420  0.5353  11.00000  0.05    0.11
Q5    1   0.4179  0.5389  0.8342  11.00000  0.05    0.11
Q6    1   0.6585  0.0526  1.0145  11.00000  0.05    0.10
Q7    1   0.1905  0.1208  0.8853  11.00000  0.05    0.10
Q8    1   0.1475  0.0968  0.0827  11.00000  0.05    0.10
Q9    1   0.0597  0.9537  0.0946  11.00000  0.05    0.10
Q10   1   0.3389  0.8969  0.1049  11.00000  0.05    0.10
Q11   1   0.3149  0.4730  0.8952  11.00000  0.05    0.10
Q12   1   0.3787 -0.4222  0.8960  11.00000  0.05    0.10
Q13   1   0.2216 -0.0439  1.0073  11.00000  0.05    0.10
Q14   1   0.2420  0.5699 -0.0433  11.00000  0.05    0.10
Q15   1   0.0070  0.4014  0.8241  11.00000  0.05    0.10
Q16   1   0.2100  0.4244  0.4611  11.00000  0.05    0.10
Q17   1   0.2576  0.3398  0.9234  11.00000  0.05    0.10
Q18   1   0.0740  0.0861  0.8006  11.00000  0.05    0.10
Q19   1   0.1976  0.8989  0.0949  11.00000  0.05    0.09
Q20   1   0.4162  1.3336  0.3878  11.00000  0.05    0.09
;
_shelx_hkl_file
;
   0   1   0   -0.07    0.01
   0   1   0   -0.07    0.01
   0  -1   0   -0.07    0.01
   0  -1   0   -0.07    0.01
   0   2   0   60.42    1.98
   0  -2   0   61.73    1.76
   0  -2   0   58.36    1.91
   0   3   0    0.02    0.03
   0  -3   0   -0.07    0.02
   0  -3   0    0.01    0.02
   0   4   0   11.81    0.48
   0  -4   0   11.27    0.43
   0  -4   0   11.27    0.40
   0   5   0   -0.02    0.04
   0  -5   0    0.01    0.02
   0  -5   0    0.02    0.04
   0   6   0    0.90    0.16
   0  -6   0    0.82    0.13
   0   7   0   -0.04    0.06
   0  -7   0    0.00    0.05
  -1  -7   0    0.04    0.06
   1   7   0    0.14    0.08
  -1  -6   0    0.32    0.09
   1   6   0    0.28    0.09
  -1  -5   0    0.04    0.04
  -1  -5   0   -0.01    0.03
   1   5   0    0.04    0.05
  -1  -4   0    0.08    0.04
  -1  -4   0    0.01    0.03
  -1  -3   0    1.76    0.10
  -1  -3   0    1.75    0.12
   1   3   0    1.21    0.10
  -1  -2   0   22.65    0.71
  -1  -2   0   23.20    0.76
  -1  -1   0   11.83    0.39
  -1  -1   0   11.76    0.41
  -1   0   0    3.86    0.15
  -1   0   0    3.81    0.14
   1   0   0    3.67    0.14
   1   0   0    3.66    0.15
  -1   1   0   12.52    0.37
  -1   1   0   12.29    0.44
   1  -1   0   11.98    0.41
   1  -1   0   12.40    0.37
  -1   2   0   23.52    0.81
   1  -2   0   22.78    0.75
   1  -2   0   22.53    0.70
  -1   3   0    1.74    0.14
   1  -3   0    1.81    0.11
  -1   4   0    0.05    0.05
   1  -4   0    0.06    0.04
  -1   5   0   -0.02    0.05
   1  -5   0    0.01    0.02
   1  -5   0   -0.02    0.02
  -1   6   0    0.25    0.10
   1  -6   0    0.35    0.09
  -1   7   0    0.08    0.08
   1  -7   0    0.15    0.07
  -2  -7   0    0.07    0.06
  -2  -6   0    0.51    0.11
   2   6   0    0.71    0.12
  -2  -5   0    1.60    0.17
  -2  -5   0    1.78    0.13
   2   5   0    1.78    0.15
  -2  -4   0    5.81    0.28
  -2  -4   0    5.46    0.25
   2   4   0    5.19    0.25
  -2  -3   0    3.66    0.18
  -2  -3   0    3.60    0.19
   2   3   0    3.76    0.17
  -2  -2   0   67.05    2.22
  -2  -2   0   69.98    2.03
  -2  -2   0   70.19    2.23
   2   2   0   67.93    2.23
  -2  -1   0  636.52   19.41
   2   1   0  584.29   20.23
  -2   0   0   93.55    2.97
  -2   0   0   92.52    2.95
   2   0   0   90.85    2.98
  -2   1   0  659.83   21.67
  -2   1   0  668.57   20.28
  -2   1   0  688.58   21.34
  -2   2   0   71.77    2.39
   2  -2   0   72.45    2.08
  -2   3   0    4.08    0.23
   2  -3   0    3.71    0.17
  -2   4   0    5.76    0.31
   2  -4   0    5.37    0.24
  -2   5   0    2.01    0.22
   2  -5   0    1.93    0.14
  -2   6   0    0.69    0.15
   2  -6   0    0.60    0.10
  -2   7   0    0.15    0.10
   2  -7   0    0.18    0.07
  -3  -6   0    0.21    0.08
  -3  -5   0    0.19    0.07
  -3  -5   0    0.17    0.06
   3   5   0    0.21    0.06
  -3  -4   0    0.82    0.11
  -3  -4   0    0.81    0.11
   3   4   0    1.06    0.10
  -3  -3   0    3.64    0.19
  -3  -3   0    3.41    0.19
   3   3   0    3.50    0.16
  -3  -2   0   15.60    0.52
  -3  -2   0   15.22    0.58
  -3  -2   0   16.40    0.52
   3   2   0   15.01    0.52
  -3  -1   0    5.96    0.27
   3   1   0    5.67    0.22
   3   1   0    6.15    0.21
  -3   0   0    6.92    0.26
  -3   0   0    6.70    0.29
  -3   1   0    5.80    0.26
  -3   1   0    6.01    0.26
  -3   1   0    6.18    0.19
  -3   2   0   16.98    0.51
  -3   2   0   16.45    0.59
  -3   2   0   16.31    0.63
   3  -2   0   16.29    0.50
  -3   3   0    3.80    0.18
  -3   3   0    4.01    0.24
   3  -3   0    3.84    0.16
  -3   4   0    0.75    0.12
   3  -4   0    0.99    0.09
  -3   5   0   -0.01    0.06
   3  -5   0    0.17    0.05
  -3   6   0    0.17    0.10
   3  -6   0    0.02    0.05
  -4  -6   0    0.06    0.06
  -4  -5   0    0.92    0.14
  -4  -5   0    0.93    0.14
  -4  -4   0    0.08    0.06
  -4  -4   0    0.03    0.05
   4   4   0    0.06    0.03
  -4  -3   0    2.01    0.14
  -4  -3   0    1.56    0.16
   4   3   0    1.59    0.09
  -4  -2   0   62.44    1.89
  -4  -2   0   63.91    2.11
  -4  -1   0    1.72    0.17
   4   1   0    1.61    0.09
  -4   0   0   14.30    0.56
  -4   0   0   14.23    0.51
  -4   1   0    1.29    0.11
  -4   1   0    1.45    0.06
  -4   1   0    1.53    0.13
  -4   2   0   65.23    1.91
  -4   2   0   66.81    2.18
  -4   2   0   66.56    2.23
  -4   3   0    1.89    0.13
  -4   3   0    1.91    0.17
   4  -3   0    2.07    0.09
  -4   4   0    0.10    0.04
  -4   4   0    0.03    0.05
   4  -4   0    0.08    0.03
  -4   5   0    0.87    0.15
   4  -5   0    1.19    0.11
  -4   6   0    0.18    0.10
   4  -6   0    0.09    0.05
  -5  -6   0   -0.06    0.05
  -5  -6   0    0.01    0.05
  -5  -5   0    0.28    0.09
  -5  -5   0    0.33    0.09
  -5  -4   0    0.06    0.07
  -5  -4   0    0.17    0.07
  -5  -3   0    1.11    0.15
  -5  -3   0    0.93    0.12
   5   3   0    0.71    0.06
  -5  -2   0    0.29    0.06
  -5  -2   0    0.21    0.07
   5   2   0    0.11    0.03
  -5  -1   0    4.78    0.27
  -5   0   0    0.90    0.13
  -5   0   0    1.04    0.09
  -5   1   0    5.57    0.29
  -5   1   0    5.20    0.26
  -5   2   0    0.17    0.06
  -5   2   0    0.23    0.03
  -5   2   0    0.16    0.07
  -5   3   0    1.07    0.13
  -5   3   0    0.97    0.15
  -5   4   0    0.16    0.09
  -5   5   0    0.37    0.11
  -5   6   0   -0.06    0.06
  -6  -5   0    0.05    0.07
  -6  -5   0    0.18    0.08
  -6  -4   0    0.91    0.14
  -6  -4   0    0.90    0.16
  -6  -3   0    1.93    0.18
  -6  -3   0    2.10    0.23
  -6  -2   0    0.09    0.07
  -6  -2   0    0.24    0.06
   6   2   0    0.21    0.04
  -6  -1   0    1.31    0.17
  -6  -1   0    1.10    0.10
  -6   0   0    0.77    0.07
  -6   0   0    0.87    0.14
  -6   0   0    0.62    0.08
  -6   1   0    1.16    0.13
  -6   1   0    1.56    0.18
  -6   2   0    0.12    0.07
  -6   2   0    0.20    0.07
  -6   3   0    1.87    0.20
  -6   3   0    2.31    0.18
  -6   4   0    0.89    0.13
  -6   4   0    0.63    0.13
  -6   5   0    0.05    0.08
  -7  -4   0    0.16    0.09
  -7  -4   0    0.18    0.08
  -7  -3   0    0.32    0.08
  -7  -3   0    0.21    0.09
  -7  -2   0    0.08    0.05
  -7  -2   0    0.05    0.07
  -7  -1   0    0.09    0.07
  -7  -1   0    0.23    0.06
   7   1   0    0.11    0.04
  -7   0   0    0.04    0.03
  -7   0   0    0.03    0.04
  -7   0   0    0.05    0.06
  -7   1   0    0.18    0.07
  -7   1   0    0.40    0.11
  -7   2   0    0.09    0.07
  -7   2   0    0.07    0.07
  -7   3   0    0.37    0.11
  -7   3   0    0.30    0.10
  -7   4   0    0.35    0.11
  -7   4   0    0.06    0.06
  -8  -3   0    0.07    0.06
  -8  -3   0    0.11    0.09
  -8  -2   0    0.05    0.04
  -8  -2   0    0.07    0.08
  -8  -1   0   -0.08    0.03
  -8   0   0    0.56    0.14
  -8   1   0    0.01    0.04
  -8   1   0   -0.02    0.06
  -8   2   0    0.16    0.08
  -8   2   0    0.22    0.10
  -8   3   0    0.12    0.08
  -8   3   0    0.11    0.09
  -9  -2   0    0.31    0.12
  -9  -1   0    0.05    0.08
  -9   0   0    0.04    0.08
  -9   1   0   -0.01    0.05
  -9   1   0    0.04    0.09
  -9   2   0    0.53    0.14
  -9   2   0    0.26    0.10
  -9   2   1    0.22    0.09
  -9   2   1    0.33    0.12
  -9   1   1    0.05    0.06
  -9   1   1   -0.07    0.07
  -9   0   1    0.09    0.09
  -9  -1   1    0.02    0.07
  -9  -2   1    0.14    0.10
  -8   3   1    1.15    0.18
  -8   3   1    0.79    0.15
  -8   2   1   -0.02    0.06
  -8   2   1   -0.01    0.05
  -8   1   1    0.08    0.08
  -8   1   1    0.06    0.06
  -8   0   1    0.21    0.10
  -8  -1   1    0.06    0.07
  -8  -2   1    0.01    0.04
  -8  -2   1    0.05    0.07
  -8  -3   1    0.83    0.17
  -8  -3   1    0.92    0.14
  -7   4   1    0.15    0.09
  -7   4   1    0.14    0.07
  -7   3   1    0.47    0.12
  -7   3   1    0.47    0.12
  -7   2   1    0.39    0.09
  -7   2   1    0.18    0.08
  -7   1   1    1.74    0.17
  -7   1   1    1.69    0.21
  -7   0   1    0.59    0.06
  -7   0   1    0.59    0.13
   7   1  -1    1.49    0.11
  -7  -1   1    1.47    0.11
  -7  -1   1    1.53    0.19
  -7  -2   1    0.32    0.07
  -7  -2   1    0.18    0.08
  -7  -3   1    0.40    0.12
  -7  -3   1    0.56    0.11
  -7  -4   1    0.18    0.08
  -7  -4   1    0.17    0.09
  -6   5   1    0.08    0.08
  -6   4   1    0.35    0.11
  -6   4   1    0.35    0.08
  -6   3   1    7.00    0.35
  -6   3   1    7.37    0.39
  -6   2   1    4.57    0.28
  -6   2   1    4.36    0.27
  -6   1   1    0.31    0.07
  -6   1   1    0.35    0.09
  -6   0   1    3.44    0.18
  -6   0   1    3.13    0.23
  -6   0   1    3.33    0.14
   6   1  -1    0.37    0.06
  -6  -1   1    0.43    0.10
  -6  -1   1    0.42    0.06
   6   2  -1    3.91    0.18
  -6  -2   1    3.98    0.27
  -6  -2   1    3.54    0.20
  -6  -3   1    6.54    0.36
  -6  -3   1    6.02    0.30
  -6  -4   1    0.08    0.07
  -6  -4   1    0.21    0.08
  -6  -5   1    0.10    0.08
  -6  -5   1    0.24    0.08
  -5   6   1   -0.04    0.07
  -5   5   1    0.03    0.07
  -5   4   1    0.42    0.11
  -5   4   1    0.36    0.08
  -5   3   1    0.23    0.07
  -5   3   1    0.23    0.07
  -5   2   1    5.33    0.29
  -5   2   1    5.28    0.28
  -5   1   1    0.94    0.11
  -5   1   1    1.48    0.16
  -5   0   1    4.51    0.21
  -5   0   1    4.47    0.17
  -5   0   1    4.66    0.26
   5   1  -1    1.24    0.09
  -5  -1   1    1.05    0.10
  -5  -1   1    1.22    0.15
   5   2  -1    4.76    0.20
  -5  -2   1    4.63    0.28
  -5  -2   1    4.90    0.23
   5   3  -1    0.12    0.03
  -5  -3   1    0.18    0.06
  -5  -3   1    0.14    0.07
  -5  -4   1    0.44    0.10
  -5  -4   1    0.58    0.12
  -5  -5   1    0.14    0.07
  -5  -5   1    0.05    0.06
  -5  -6   1    0.04    0.06
   4  -6  -1    0.01    0.04
  -4   6   1   -0.02    0.07
   4  -5  -1    1.00    0.10
  -4   5   1    0.77    0.16
   4  -4  -1    2.37    0.12
  -4   4   1    2.46    0.15
  -4   4   1    2.43    0.25
   4  -3  -1    0.84    0.05
  -4   3   1    0.61    0.10
  -4   3   1    1.05    0.11
  -4   2   1   60.92    2.06
  -4   1   1   86.77    2.87
  -4   1   1   87.93    2.85
  -4   0   1    4.99    0.25
  -4   0   1    5.36    0.22
  -4   0   1    5.38    0.19
   4   1  -1   85.59    2.72
  -4  -1   1   82.19    2.75
   4   2  -1   58.53    1.92
  -4  -2   1   58.64    1.77
  -4  -2   1   59.16    1.97
   4   3  -1    0.88    0.07
  -4  -3   1    0.79    0.10
  -4  -3   1    1.12    0.14
   4   4  -1    2.25    0.13
  -4  -4   1    2.28    0.17
  -4  -4   1    2.13    0.17
  -4  -5   1    1.08    0.14
  -4  -5   1    0.82    0.13
  -4  -6   1    0.09    0.06
   3  -6  -1    0.20    0.06
  -3   6   1    0.16    0.09
   3  -5  -1    0.21    0.06
  -3   5   1    0.18    0.08
   3  -4  -1    0.51    0.07
  -3   4   1    0.67    0.12
   3  -3  -1    4.25    0.17
  -3   3   1    4.60    0.25
   3  -2  -1    0.91    0.05
  -3   2   1    0.83    0.10
  -3   2   1    0.94    0.09
  -3   1   1    9.46    0.37
  -3   1   1    9.35    0.37
  -3   0   1   64.85    1.86
  -3   0   1   65.24    2.11
  -3   0   1   63.80    2.11
   3   1  -1    9.60    0.33
  -3  -1   1    8.95    0.37
  -3  -1   1    9.28    0.32
   3   2  -1    0.94    0.06
  -3  -2   1    0.83    0.09
  -3  -2   1    0.98    0.11
   3   3  -1    4.11    0.19
  -3  -3   1    4.06    0.22
  -3  -3   1    4.13    0.21
   3   4  -1    0.62    0.08
  -3  -4   1    0.41    0.08
  -3  -4   1    0.43    0.08
   3   5  -1    0.30    0.08
  -3  -5   1    0.19    0.07
  -3  -5   1    0.36    0.08
   3   6  -1   -0.03    0.05
  -3  -6   1    0.08    0.07
   2  -7  -1    0.21    0.08
  -2   7   1    0.08    0.08
   2  -6  -1    0.15    0.06
  -2   6   1    0.10    0.08
   2  -5  -1    0.13    0.05
  -2   5   1    0.10    0.08
   2  -4  -1    3.31    0.17
  -2   4   1    3.36    0.22
   2  -3  -1   21.83    0.70
  -2   3   1   22.91    0.83
   2  -2  -1   22.90    0.69
  -2   2   1   22.85    0.77
  -2   2   1   23.11    0.82
   2  -1  -1  361.28   10.51
  -2   1   1  348.79   11.60
  -2   1   1  367.37   11.46
  -2   0   1    0.84    0.06
  -2   0   1    0.82    0.04
  -2   0   1    1.18    0.08
   2   1  -1  329.42   12.39
  -2  -1   1  355.74   11.20
  -2  -1   1  357.35   10.02
  -2  -1   1  346.15   11.16
   2   2  -1   22.15    0.75
  -2  -2   1   22.47    0.77
  -2  -2   1   22.31    0.71
   2   3  -1   22.31    0.76
  -2  -3   1   21.34    0.71
  -2  -3   1   20.88    0.75
   2   4  -1    3.33    0.18
  -2  -4   1    3.32    0.20
   2   5  -1    0.01    0.03
  -2  -5   1    0.08    0.04
  -2  -5   1    0.14    0.06
   2   6  -1   -0.01    0.03
  -2  -6   1    0.05    0.05
  -2  -7   1    0.00    0.06
   1  -7  -1    0.05    0.06
  -1   7   1    0.14    0.09
   1  -6  -1    0.26    0.08
  -1   6   1    0.33    0.11
   1  -5  -1    0.77    0.10
   1  -5  -1    0.85    0.07
  -1   5   1    0.71    0.12
   1  -4  -1   10.12    0.39
  -1   4   1    9.82    0.44
   1  -3  -1    0.97    0.09
  -1   3   1    0.96    0.11
   1  -2  -1   11.36    0.36
  -1   2   1   11.04    0.42
   1  -1  -1   17.67    0.53
  -1   1   1   18.26    0.59
  -1   1   1   18.11    0.62
   1   0  -1   -0.94    0.02
   1   0  -1   -1.03    0.03
  -1   0   1   -0.98    0.02
  -1   0   1   -1.04    0.03
  -1   0   1   -1.01    0.04
  -1  -1   1   17.45    0.58
  -1  -1   1   17.20    0.58
  -1  -1   1   17.80    0.53
   1   2  -1   10.72    0.39
  -1  -2   1   10.32    0.37
  -1  -2   1   11.01    0.37
   1   3  -1    1.20    0.09
  -1  -3   1    0.96    0.07
  -1  -3   1    1.12    0.11
   1   4  -1    9.24    0.39
  -1  -4   1    9.23    0.34
  -1  -4   1    9.16    0.37
   1   5  -1    0.99    0.14
  -1  -5   1    0.84    0.12
  -1  -5   1    0.89    0.09
   1   6  -1    0.33    0.10
  -1  -6   1    0.21    0.08
   1   7  -1   -0.01    0.07
  -1  -7   1    0.03    0.06
   0  -7  -1    0.15    0.07
   0   7   1    0.23    0.09
   0  -6  -1    0.08    0.06
   0   6   1    0.21    0.08
   0  -5  -1    0.04    0.03
   0  -5  -1    0.07    0.05
   0   5   1    0.10    0.05
   0  -4  -1    1.51    0.09
   0  -4  -1    1.22    0.12
   0   4   1    1.48    0.13
   0  -3  -1   49.12    1.46
   0  -3  -1   48.41    1.56
   0   3   1   48.00    1.63
   0  -2  -1    9.01    0.31
   0   2   1    8.76    0.33
   0  -1  -1  131.45    4.25
   0   1   1  129.61    4.25
   0   1  -1  132.98    4.32
   0   1  -1  133.11    3.82
   0  -1   1  132.94    3.84
   0  -1   1  131.49    4.27
   0   2  -1    8.55    0.32
   0  -2   1    8.64    0.29
   0  -2   1    7.98    0.27
   0   3  -1   49.05    1.62
   0  -3   1   46.29    1.52
   0  -3   1   48.07    1.44
   0   4  -1    1.70    0.17
   0  -4   1    1.47    0.08
   0  -4   1    1.43    0.14
   0   5  -1    0.06    0.05
   0  -5   1    0.05    0.02
   0  -5   1    0.10    0.05
   0   6  -1    0.26    0.10
   0  -6   1    0.10    0.06
   0   7  -1    0.20    0.10
   0  -7   1    0.16    0.08
  -1  -7  -1    0.02    0.06
   1   7   1   -0.05    0.06
  -1  -6  -1    0.60    0.12
   1   6   1    0.71    0.13
  -1  -5  -1    0.01    0.04
  -1  -5  -1    0.18    0.05
   1   5   1    0.15    0.06
  -1  -4  -1    0.10    0.04
  -1  -4  -1    0.04    0.04
   1   4   1    0.02    0.03
  -1  -3  -1   36.37    1.20
  -1  -3  -1   36.09    1.12
  -1  -2  -1    7.14    0.27
   1   2   1    7.46    0.27
  -1  -1  -1    0.58    0.04
   1   1   1    0.56    0.03
   1   1   1    0.65    0.05
  -1   0  -1    1.91    0.09
  -1   0  -1    1.91    0.09
   1   0   1    1.99    0.09
   1   0   1    2.07    0.09
  -1   1  -1    0.67    0.04
  -1   1  -1    0.69    0.04
  -1   1  -1    0.63    0.05
   1  -1   1    0.62    0.04
   1  -1   1    0.64    0.04
  -1   2  -1    7.71    0.26
  -1   2  -1    7.62    0.31
   1  -2   1    7.79    0.27
   1  -2   1    7.39    0.26
  -1   3  -1   36.98    1.29
   1  -3   1   37.81    1.14
   1  -3   1   36.97    1.19
  -1   4  -1    0.04    0.05
   1  -4   1    0.07    0.02
   1  -4   1    0.06    0.02
   1  -4   1    0.11    0.04
  -1   5  -1    0.12    0.08
   1  -5   1    0.12    0.05
  -1   6  -1    0.67    0.14
   1  -6   1    0.70    0.12
  -1   7  -1   -0.01    0.07
   1  -7   1    0.02    0.05
  -2  -7  -1    0.00    0.05
  -2  -6  -1    0.15    0.07
   2   6   1    0.18    0.07
  -2  -5  -1    1.32    0.16
  -2  -5  -1    1.63    0.15
   2   5   1    1.50    0.15
  -2  -4  -1    5.89    0.27
  -2  -4  -1    4.67    0.24
   2   4   1    5.01    0.24
  -2  -3  -1    4.00    0.20
   2   3   1    4.22    0.18
  -2  -2  -1   15.31    0.50
  -2  -2  -1   15.45    0.55
   2   2   1   14.78    0.51
  -2  -1  -1  126.13    4.02
  -2   0  -1    0.51    0.04
  -2   0  -1    0.49    0.06
   2   0   1    0.50    0.05
  -2   1  -1  131.65    3.73
  -2   1  -1  130.27    4.13
  -2   1  -1  128.12    4.21
  -2   2  -1   16.11    0.55
  -2   2  -1   16.02    0.61
   2  -2   1   16.71    0.51
  -2   3  -1    4.17    0.23
  -2   3  -1    4.37    0.17
   2  -3   1    4.30    0.18
  -2   4  -1    5.40    0.30
   2  -4   1    5.34    0.24
  -2   5  -1    1.46    0.19
   2  -5   1    1.37    0.14
  -2   6  -1    0.14    0.09
   2  -6   1    0.10    0.05
  -2   7  -1   -0.03    0.07
   2  -7   1    0.02    0.05
  -3  -6  -1    0.06    0.06
  -3  -6  -1   -0.02    0.05
  -3  -5  -1    0.49    0.10
  -3  -5  -1    0.30    0.09
   3   5   1    0.60    0.09
  -3  -4  -1    1.44    0.15
  -3  -4  -1    1.55    0.13
   3   4   1    1.68    0.11
  -3  -3  -1    4.05    0.21
  -3  -3  -1    4.19    0.21
  -3  -3  -1    3.76    0.15
   3   3   1    3.76    0.16
  -3  -2  -1    5.70    0.27
  -3  -1  -1    0.07    0.04
   3   1   1    0.05    0.01
   3   1   1    0.08    0.02
  -3   0  -1    6.34    0.28
  -3   0  -1    6.38    0.25
  -3   1  -1    0.07    0.03
  -3   1  -1    0.07    0.02
  -3   1  -1    0.11    0.04
  -3   2  -1    6.37    0.30
  -3   2  -1    6.69    0.27
  -3   3  -1    4.07    0.24
  -3   3  -1    3.87    0.18
   3  -3   1    3.92    0.16
  -3   4  -1    1.50    0.18
   3  -4   1    1.51    0.10
  -3   5  -1    0.33    0.11
   3  -5   1    0.40    0.07
  -3   6  -1   -0.05    0.07
   3  -6   1   -0.01    0.04
  -4  -6  -1    0.39    0.10
  -4  -6  -1    0.31    0.10
  -4  -5  -1    1.60    0.18
  -4  -5  -1    1.51    0.18
  -4  -4  -1    2.11    0.17
  -4  -4  -1    1.98    0.19
   4   4   1    2.10    0.11
  -4  -3  -1    0.71    0.12
  -4  -3  -1    0.75    0.10
  -4  -2  -1    5.33    0.27
   4   2   1    4.65    0.17
   4   2   1    4.67    0.17
  -4  -1  -1    3.71    0.21
  -4   0  -1    2.77    0.14
  -4   0  -1    2.86    0.18
  -4   1  -1    3.98    0.21
  -4   1  -1    3.82    0.20
  -4   2  -1    5.41    0.27
  -4   2  -1    5.82    0.29
  -4   3  -1    0.72    0.12
  -4   4  -1    1.79    0.20
  -4   4  -1    2.07    0.13
   4  -4   1    1.99    0.11
  -4   5  -1    1.85    0.22
   4  -5   1    1.80    0.12
  -4   6  -1    0.45    0.13
   4  -6   1    0.48    0.08
  -5  -6  -1    0.03    0.06
  -5  -6  -1   -0.02    0.05
  -5  -5  -1    0.01    0.06
  -5  -5  -1    0.02    0.06
  -5  -4  -1    2.72    0.21
  -5  -4  -1    2.34    0.21
  -5  -3  -1    0.35    0.10
  -5  -3  -1    0.28    0.07
  -5  -2  -1    2.14    0.21
   5   2   1    1.93    0.09
  -5  -1  -1    3.59    0.23
  -5   0  -1    0.00    0.04
  -5   0  -1    0.02    0.02
  -5   1  -1    3.49    0.20
  -5   1  -1    3.32    0.21
  -5   2  -1    1.95    0.16
  -5   2  -1    2.12    0.16
  -5   3  -1    0.39    0.08
  -5   3  -1    0.28    0.09
  -5   4  -1    2.93    0.24
  -5   4  -1    2.75    0.17
  -5   5  -1    0.08    0.08
  -5   6  -1    0.00    0.07
  -6  -5  -1    0.28    0.09
  -6  -5  -1    0.10    0.07
  -6  -4  -1    0.11    0.08
  -6  -4  -1    0.15    0.07
  -6  -3  -1    1.12    0.17
  -6  -3  -1    1.27    0.14
  -6  -2  -1    0.36    0.07
  -6  -2  -1    0.24    0.08
  -6  -1  -1    0.54    0.12
  -6   0  -1    0.10    0.06
  -6   0  -1    0.14    0.05
  -6   1  -1    0.52    0.09
  -6   1  -1    0.22    0.08
  -6   2  -1    0.37    0.09
  -6   2  -1    0.28    0.08
  -6   3  -1    0.99    0.14
  -6   3  -1    0.99    0.16
  -6   4  -1    0.22    0.07
  -6   4  -1    0.21    0.10
  -6   5  -1    0.14    0.09
  -7  -4  -1    0.03    0.06
  -7  -4  -1    0.25    0.11
  -7  -3  -1    2.37    0.21
  -7  -3  -1    2.18    0.26
  -7  -2  -1    0.50    0.13
  -7  -2  -1    0.53    0.09
  -7  -1  -1    0.24    0.06
  -7  -1  -1    0.32    0.10
  -7   0  -1    0.01    0.03
  -7   0  -1   -0.01    0.04
  -7   1  -1    0.36    0.08
  -7   1  -1    0.43    0.12
  -7   2  -1    0.66    0.12
  -7   2  -1    0.49    0.12
  -7   3  -1    2.44    0.25
  -7   3  -1    2.43    0.24
  -7   4  -1    0.09    0.08
  -7   4  -1    0.15    0.07
  -8  -3  -1    0.13    0.07
  -8  -3  -1    0.07    0.08
  -8  -2  -1    0.19    0.09
  -8  -2  -1    0.09    0.05
  -8  -1  -1    0.09    0.05
  -8  -1  -1    0.03    0.08
  -8   0  -1    0.13    0.06
  -8   0  -1    0.02    0.07
  -8   1  -1    0.10    0.06
  -8   1  -1    0.06    0.09
  -8   2  -1    0.33    0.12
  -8   2  -1    0.03    0.06
  -8   3  -1    0.09    0.08
  -8   3  -1    0.11    0.08
  -9  -2  -1    0.50    0.14
  -9  -1  -1    0.10    0.10
  -9   0  -1    0.26    0.11
  -9   1  -1   -0.01    0.05
  -9   1  -1    0.08    0.09
  -9   2  -1    0.43    0.14
  -9   2  -1    0.44    0.11
  -9   2   2    0.06    0.08
   9  -1  -2   -0.02    0.06
  -9   1   2    0.10    0.10
  -9   0   2    0.18    0.10
  -9  -1   2    0.04    0.08
  -9  -2   2    0.05    0.08
  -8   3   2    1.45    0.20
  -8   3   2    1.33    0.19
  -8   2   2    0.06    0.07
  -8   2   2    0.16    0.09
  -8   1   2    0.38    0.12
  -8   1   2    0.28    0.08
   8   0  -2    0.20    0.07
  -8   0   2    0.35    0.12
   8   1  -2    0.55    0.09
  -8  -1   2    0.39    0.12
  -8  -2   2    0.14    0.08
  -8  -2   2    0.17    0.06
  -8  -3   2    1.52    0.17
  -8  -3   2    1.53    0.23
  -7   4   2    0.10    0.08
  -7   4   2    0.04    0.06
  -7   3   2    0.15    0.09
  -7   3   2    0.21    0.08
  -7   2   2    0.35    0.09
  -7   2   2    0.65    0.13
  -7   1   2    1.02    0.17
  -7   1   2    0.81    0.12
   7   0  -2    0.04    0.04
  -7   0   2    0.01    0.07
   7   1  -2    1.10    0.12
  -7  -1   2    0.77    0.15
  -7  -1   2    0.93    0.10
   7   2  -2    0.32    0.06
  -7  -2   2    0.47    0.12
  -7  -3   2    0.13    0.09
  -7  -3   2    0.17    0.06
  -7  -4   2    0.05    0.07
  -7  -4   2   -0.02    0.05
  -6   5   2    0.42    0.12
  -6   4   2    0.16    0.06
  -6   4   2    0.13    0.08
  -6   3   2    6.44    0.33
  -6   3   2    5.83    0.34
  -6   2   2   21.41    0.82
  -6   2   2   21.18    0.82
  -6   1   2    0.77    0.11
  -6   1   2    1.20    0.16
   6   0  -2    0.04    0.04
  -6   0   2    0.19    0.03
  -6   0   2    0.18    0.07
   6   1  -2    1.22    0.11
  -6  -1   2    0.95    0.15
  -6  -1   2    0.87    0.09
   6   2  -2   19.70    0.68
  -6  -2   2   19.22    0.77
  -6  -2   2   18.77    0.66
  -6  -3   2    5.51    0.29
  -6  -3   2    5.94    0.34
  -6  -4   2    0.12    0.07
  -6  -4   2    0.10    0.06
  -6  -5   2    0.42    0.11
  -6  -5   2    0.46    0.11
  -5   6   2    0.02    0.07
  -5   5   2    0.10    0.08
  -5   4   2    0.12    0.07
  -5   4   2    0.15    0.06
  -5   3   2    0.01    0.05
  -5   3   2    0.10    0.05
  -5   2   2    4.64    0.26
  -5   2   2    5.25    0.28
  -5   1   2    1.45    0.14
  -5   1   2    1.58    0.17
  -5   0   2    0.07    0.05
  -5   0   2   -0.01    0.03
  -5   0   2    0.04    0.02
   5   1  -2    1.30    0.09
  -5  -1   2    1.20    0.15
  -5  -1   2    1.16    0.09
   5   2  -2    4.60    0.20
  -5  -2   2    4.66    0.22
  -5  -2   2    4.48    0.26
   5   3  -2    0.07    0.04
  -5  -3   2    0.03    0.04
  -5  -3   2    0.06    0.06
   5   4  -2    0.09    0.04
  -5  -4   2    0.16    0.07
  -5  -4   2    0.14    0.06
  -5  -5   2    0.24    0.08
  -5  -5   2    0.06    0.06
  -5  -6   2    0.00    0.05
  -4   6   2   -0.03    0.07
   4  -5  -2    2.27    0.13
  -4   5   2    2.05    0.22
   4  -4  -2    0.73    0.07
  -4   4   2    0.82    0.14
   4  -3  -2    2.71    0.11
  -4   3   2    2.84    0.20
  -4   3   2    2.55    0.16
  -4   2   2   48.29    1.61
  -4   2   2   47.93    1.65
  -4   1   2   93.10    3.06
  -4   1   2   93.10    3.03
  -4   0   2    2.57    0.10
  -4   0   2    2.61    0.14
  -4   0   2    2.55    0.17
   4   1  -2   63.31    2.41
  -4  -1   2   85.95    2.46
   4   2  -2   47.35    1.56
  -4  -2   2   47.24    1.60
  -4  -2   2   46.60    1.43
   4   3  -2    2.29    0.13
  -4  -3   2    2.58    0.17
  -4  -3   2    2.83    0.18
   4   4  -2    0.89    0.10
  -4  -4   2    0.60    0.10
  -4  -4   2    0.67    0.11
   4   5  -2    2.23    0.16
  -4  -5   2    1.89    0.19
  -4  -5   2    2.17    0.17
  -4  -6   2    0.00    0.05
   3  -6  -2    0.06    0.05
  -3   6   2    0.16    0.09
   3  -5  -2    0.12    0.05
  -3   5   2    0.24    0.10
   3  -4  -2    1.87    0.11
  -3   4   2    1.58    0.18
   3  -3  -2    3.62    0.15
  -3   3   2    4.07    0.23
  -3   3   2    3.59    0.18
   3  -2  -2    4.82    0.16
  -3   2   2    4.79    0.24
  -3   2   2    4.70    0.22
  -3   1   2   10.11    0.39
  -3   1   2    9.83    0.39
  -3   0   2    0.02    0.02
  -3   0   2    0.01    0.03
  -3   0   2    0.02    0.01
  -3  -1   2    9.84    0.33
  -3  -1   2    9.17    0.37
   3   2  -2    4.65    0.20
  -3  -2   2    4.69    0.21
  -3  -2   2    4.59    0.22
   3   3  -2    3.58    0.17
  -3  -3   2    3.47    0.19
  -3  -3   2    3.58    0.19
   3   4  -2    1.67    0.12
  -3  -4   2    1.47    0.15
  -3  -4   2    1.57    0.12
   3   5  -2    0.19    0.07
  -3  -5   2    0.04    0.05
  -3  -5   2    0.14    0.05
   3   6  -2    0.09    0.07
  -3  -6   2    0.25    0.08
   2  -7  -2    0.21    0.08
  -2   7   2    0.06    0.09
   2  -6  -2    0.26    0.08
  -2   6   2    0.40    0.11
   2  -5  -2    0.16    0.05
  -2   5   2    0.10    0.07
   2  -4  -2    4.56    0.21
  -2   4   2    4.42    0.26
   2  -3  -2    0.99    0.07
  -2   3   2    1.25    0.14
   2  -2  -2   16.01    0.50
  -2   2   2   17.06    0.61
  -2   2   2   16.38    0.57
  -2   1   2   64.84    2.07
  -2   1   2   63.76    2.11
   2   0  -2  949.91   32.56
   2   0  -2  996.48   28.88
  -2   0   2 1000.00   28.39
  -2   0   2  862.57   34.02
   2   1  -2   65.82    2.09
  -2  -1   2   61.67    2.07
  -2  -1   2   65.33    1.87
  -2  -2   2   14.55    0.54
  -2  -2   2   15.92    0.51
  -2  -3   2    0.96    0.08
  -2  -3   2    0.89    0.10
   2   4  -2    3.60    0.21
  -2  -4   2    4.08    0.22
  -2  -4   2    4.10    0.19
   2   5  -2    0.13    0.06
  -2  -5   2    0.03    0.04
  -2  -5   2    0.13    0.04
   2   6  -2    0.33    0.10
  -2  -6   2    0.34    0.09
   2   7  -2    0.15    0.08
  -2  -7   2    0.03    0.06
   1  -7  -2    0.07    0.06
  -1   7   2    0.13    0.09
   1  -6  -2    0.08    0.06
  -1   6   2    0.10    0.08
   1  -5  -2    1.23    0.10
   1  -5  -2    1.29    0.14
  -1   5   2    1.45    0.17
   1  -4  -2    0.10    0.04
  -1   4   2    0.06    0.05
   1  -3  -2    2.88    0.15
  -1   3   2    3.05    0.17
  -1   2   2   20.55    0.72
  -1   1   2    5.62    0.22
  -1   1   2    5.65    0.21
   1   0  -2    2.89    0.11
   1   0  -2    2.85    0.09
  -1   0   2    2.57    0.11
  -1   0   2    2.53    0.11
   1   1  -2    5.67    0.22
  -1  -1   2    6.12    0.20
  -1  -1   2    5.57    0.21
   1   2  -2   18.89    0.63
   1   2  -2   19.32    0.67
  -1  -2   2   19.79    0.61
  -1  -2   2   18.70    0.63
   1   3  -2    2.94    0.12
   1   3  -2    2.94    0.16
  -1  -3   2    2.96    0.16
  -1  -3   2    2.81    0.13
   1   4  -2    0.08    0.05
  -1  -4   2    0.08    0.03
  -1  -4   2    0.06    0.04
   1   5  -2    1.66    0.18
  -1  -5   2    1.11    0.07
  -1  -5   2    1.00    0.13
   1   6  -2    0.02    0.06
  -1  -6   2   -0.03    0.04
   1   7  -2    0.15    0.09
  -1  -7   2    0.16    0.08
   0  -7  -2    0.02    0.05
   0   7   2   -0.03    0.06
   0  -6  -2    1.15    0.15
   0   6   2    0.99    0.15
   0  -5  -2    0.01    0.04
   0  -5  -2    0.04    0.03
   0   5   2    0.00    0.05
   0  -4  -2    2.41    0.16
   0  -4  -2    2.66    0.14
   0   4   2    2.71    0.17
   0  -3  -2    0.59    0.07
   0  -3  -2    0.54    0.06
   0   3   2    0.72    0.09
   0   2   2    0.60    0.07
   0  -1  -2  303.15    9.86
   0   1   2  307.72    9.86
   0   0  -2   47.23    1.54
   0   0   2   48.00    1.54
   0   1  -2  343.87   11.47
   0   1  -2  345.29   11.17
   0  -1   2  347.56    9.96
   0   2  -2    0.66    0.08
   0  -2   2    0.51    0.06
   0   3  -2    0.68    0.09
   0  -3   2    0.46    0.07
   0   4  -2    2.37    0.17
   0  -4   2    2.46    0.15
   0   5  -2    0.01    0.06
   0  -5   2    0.02    0.04
   0   6  -2    1.03    0.17
   0  -6   2    1.06    0.14
   0   7  -2    0.04    0.07
   0  -7   2    0.03    0.06
  -1  -7  -2    0.11    0.07
   1   7   2    0.04    0.07
  -1  -6  -2    1.15    0.16
   1   6   2    0.61    0.12
  -1  -5  -2    0.13    0.05
  -1  -5  -2    0.13    0.06
   1   5   2    0.02    0.04
  -1  -4  -2    7.74    0.32
  -1  -4  -2    7.67    0.33
  -1  -3  -2    0.85    0.09
   1   3   2    0.84    0.08
  -1  -2  -2    5.66    0.22
  -1  -2  -2    5.25    0.21
   1   2   2    5.39    0.21
  -1  -1  -2   31.02    1.00
  -1  -1  -2   31.71    0.99
  -1  -1  -2   28.98    0.99
  -1   0  -2    2.56    0.11
  -1   0  -2    2.50    0.10
  -1   0  -2    2.50    0.10
   1   0   2    2.33    0.10
  -1   1  -2   31.16    1.08
  -1   1  -2   31.70    1.04
   1  -1   2   32.91    0.94
   1  -1   2   33.13    1.04
  -1   2  -2    5.59    0.19
  -1   2  -2    5.38    0.25
   1  -2   2    6.05    0.20
   1  -2   2    5.75    0.21
  -1   3  -2    1.04    0.12
   1  -3   2    0.90    0.09
  -1   4  -2    8.02    0.38
   1  -4   2    8.09    0.33
  -1   5  -2    0.19    0.08
   1  -5   2    0.23    0.06
  -1   6  -2    1.02    0.18
   1  -6   2    0.96    0.14
  -1   7  -2    0.11    0.09
   1  -7   2    0.00    0.05
  -2  -6  -2    0.01    0.06
  -2  -6  -2    0.04    0.06
   2   6   2    0.10    0.06
  -2  -5  -2    0.19    0.07
   2   5   2    0.32    0.07
  -2  -4  -2    0.53    0.08
  -2  -4  -2    0.44    0.08
   2   4   2    0.78    0.09
  -2  -3  -2    4.03    0.20
   2   3   2    4.01    0.17
  -2  -2  -2    6.55    0.27
   2   2   2    6.34    0.22
  -2  -1  -2   15.80    0.56
  -2   0  -2  142.22    4.55
  -2   0  -2  136.57    4.45
   2   0   2  141.34    4.52
  -2   1  -2   15.54    0.57
  -2   1  -2   16.36    0.55
  -2   2  -2    6.43    0.25
  -2   2  -2    6.62    0.29
   2  -2   2    6.76    0.23
  -2   3  -2    4.18    0.16
  -2   3  -2    4.11    0.23
   2  -3   2    4.32    0.18
  -2   4  -2    0.78    0.12
   2  -4   2    0.61    0.05
   2  -4   2    0.82    0.09
  -2   5  -2    0.31    0.11
   2  -5   2    0.29    0.07
  -2   6  -2    0.02    0.08
   2  -6   2    0.03    0.05
  -2   7  -2    0.21    0.10
   2  -7   2    0.35    0.09
  -3  -6  -2    0.23    0.08
  -3  -6  -2    0.15    0.08
  -3  -5  -2    4.79    0.27
  -3  -5  -2    4.24    0.27
   3   5   2    4.99    0.23
  -3  -4  -2    0.94    0.12
  -3  -4  -2    0.79    0.11
   3   4   2    0.93    0.08
  -3  -3  -2    4.61    0.17
  -3  -3  -2    5.31    0.26
   3   3   2    5.04    0.18
  -3  -2  -2    1.65    0.13
  -3  -1  -2    2.76    0.10
  -3  -1  -2    3.03    0.16
   3   1   2    2.28    0.10
  -3   0  -2    0.38    0.07
  -3   0  -2    0.38    0.05
  -3   1  -2    2.84    0.16
  -3   1  -2    3.24    0.17
  -3   2  -2    1.74    0.14
  -3   3  -2    4.85    0.27
  -3   3  -2    4.98    0.21
   3  -3   2    5.11    0.20
  -3   4  -2    0.85    0.14
   3  -4   2    0.85    0.09
  -3   5  -2    4.96    0.33
   3  -5   2    5.11    0.24
  -3   6  -2    0.21    0.10
   3  -6   2    0.27    0.07
  -4  -6  -2    0.03    0.06
  -4  -6  -2    0.00    0.05
  -4  -5  -2    0.14    0.07
  -4  -5  -2    0.28    0.08
  -4  -4  -2    0.66    0.11
  -4  -4  -2    0.64    0.12
  -4  -3  -2    0.05    0.05
  -4  -2  -2    0.52    0.10
  -4  -1  -2    4.35    0.17
  -4  -1  -2    4.45    0.24
   4   1   2    4.54    0.18
  -4   0  -2    2.80    0.18
  -4   0  -2    2.87    0.14
  -4   1  -2    5.15    0.24
  -4   1  -2    4.69    0.25
  -4   2  -2    0.54    0.09
  -4   2  -2    0.55    0.10
  -4   3  -2    0.03    0.03
  -4   3  -2    0.06    0.05
  -4   4  -2    0.95    0.10
  -4   4  -2    0.50    0.12
   4  -4   2    0.78    0.08
  -4   5  -2    0.24    0.10
   4  -5   2    0.16    0.05
  -4   6  -2    0.09    0.08
   4  -6   2    0.02    0.04
  -5  -6  -2    0.05    0.07
  -5  -6  -2    0.25    0.08
  -5  -5  -2   -0.01    0.05
  -5  -5  -2    0.03    0.05
  -5  -4  -2    2.00    0.20
  -5  -4  -2    2.23    0.23
  -5  -3  -2    2.41    0.24
  -5  -2  -2    2.05    0.18
  -5  -1  -2    3.00    0.21
  -5   0  -2    0.25    0.07
  -5   0  -2    0.26    0.05
  -5   1  -2    3.14    0.21
  -5   1  -2    3.36    0.19
  -5   2  -2    2.21    0.18
  -5   2  -2    2.52    0.17
  -5   3  -2    2.70    0.22
  -5   3  -2    2.65    0.18
  -5   4  -2    2.41    0.16
  -5   4  -2    2.13    0.24
  -5   5  -2   -0.01    0.07
  -5   6  -2    0.06    0.09
  -6  -5  -2    0.05    0.07
  -6  -5  -2    0.03    0.06
  -6  -4  -2   -0.05    0.04
  -6  -4  -2    0.08    0.07
  -6  -3  -2    1.82    0.18
  -6  -3  -2    1.76    0.22
  -6  -2  -2    0.11    0.07
  -6  -1  -2    0.75    0.13
  -6   0  -2    1.01    0.15
  -6   0  -2    1.00    0.10
  -6   1  -2    0.75    0.11
  -6   1  -2    0.97    0.14
  -6   2  -2    0.15    0.07
  -6   2  -2    0.09    0.06
  -6   3  -2    1.58    0.19
  -6   3  -2    1.88    0.20
  -6   4  -2    0.01    0.03
  -6   4  -2    0.00    0.06
  -6   5  -2   -0.03    0.06
  -7  -4  -2    0.05    0.07
  -7  -4  -2    0.02    0.05
  -7  -3  -2    0.73    0.12
  -7  -3  -2    0.82    0.16
  -7  -2  -2    0.87    0.16
  -7  -1  -2    0.20    0.09
  -7   0  -2    0.12    0.07
  -7   0  -2    0.23    0.06
  -7   1  -2    0.32    0.10
  -7   1  -2    0.28    0.08
  -7   2  -2    1.05    0.15
  -7   2  -2    1.16    0.17
  -7   3  -2    0.80    0.14
  -7   3  -2    0.84    0.15
  -7   4  -2    0.02    0.05
  -7   4  -2   -0.07    0.07
  -8  -3  -2    0.45    0.13
  -8  -2  -2    0.55    0.10
  -8  -2  -2    0.61    0.15
  -8  -1  -2    0.13    0.05
  -8  -1  -2    0.16    0.09
  -8   0  -2    0.63    0.14
  -8   0  -2    0.65    0.09
  -8   1  -2    0.29    0.09
  -8   1  -2    0.25    0.11
  -8   2  -2    0.55    0.15
  -8   2  -2    0.70    0.13
  -8   3  -2    0.10    0.08
  -8   3  -2    0.04    0.07
  -9  -2  -2    0.28    0.13
  -9  -1  -2    0.54    0.15
  -9   0  -2   -0.07    0.06
  -9   1  -2    0.21    0.08
  -9   1  -2    0.25    0.11
  -9   2  -2    0.14    0.11
   9  -1  -3    0.03    0.06
  -9   1   3    0.11    0.09
   9   0  -3    0.16    0.07
  -9   0   3    0.07    0.09
  -9  -1   3   -0.02    0.07
  -8   3   3    1.87    0.23
  -8   3   3    2.04    0.24
  -8   2   3    0.43    0.11
  -8   2   3    0.48    0.13
  -8   1   3    0.25    0.11
   8   0  -3    1.31    0.14
  -8   0   3    0.90    0.16
   8   1  -3    0.13    0.06
  -8  -1   3    0.17    0.09
  -8  -2   3    0.39    0.13
  -8  -2   3    0.54    0.09
  -8  -3   3    2.04    0.26
  -8  -3   3    1.90    0.19
  -7   4   3    0.15    0.08
  -7   4   3    0.16    0.07
  -7   3   3   -0.05    0.05
  -7   3   3    0.05    0.07
  -7   2   3    0.42    0.11
  -7   2   3    0.30    0.09
  -7   1   3   -0.03    0.04
  -7   1   3   -0.02    0.06
   7   0  -3    1.00    0.12
  -7   0   3    1.31    0.19
   7   1  -3   -0.03    0.04
  -7  -1   3    0.04    0.03
  -7  -1   3   -0.01    0.05
  -7  -2   3    0.45    0.12
  -7  -2   3    0.44    0.08
  -7  -3   3    0.02    0.04
  -7  -3   3    0.00    0.07
  -7  -4   3    0.05    0.08
  -7  -4   3    0.00    0.04
  -6   5   3    0.16    0.10
  -6   4   3    0.43    0.09
  -6   4   3    0.62    0.14
  -6   3   3    1.19    0.17
  -6   3   3    1.06    0.14
  -6   2   3    9.68    0.44
  -6   2   3    9.59    0.45
  -6   1   3    5.98    0.33
  -6   1   3    6.24    0.30
  -6   0   3    4.05    0.26
  -6   0   3    4.07    0.15
  -6  -1   3    5.78    0.25
  -6  -1   3    6.86    0.35
   6   2  -3    9.53    0.38
  -6  -2   3    9.00    0.37
  -6  -2   3    9.25    0.46
  -6  -3   3    0.92    0.12
  -6  -3   3    1.34    0.18
  -6  -4   3    0.43    0.09
  -6  -4   3    0.37    0.11
  -6  -5   3    0.05    0.05
  -6  -5   3    0.00    0.07
  -5   6   3    0.16    0.09
  -5   5   3    0.16    0.09
  -5   4   3    0.41    0.11
  -5   4   3    0.29    0.07
  -5   3   3    0.60    0.12
  -5   3   3    0.39    0.08
  -5   2   3    0.51    0.10
  -5   2   3    0.58    0.10
  -5   1   3    6.76    0.32
  -5   1   3    7.94    0.36
  -5   0   3    3.40    0.13
  -5   0   3    3.29    0.21
   5   1  -3    5.57    0.26
  -5  -1   3    6.27    0.32
  -5  -1   3    6.41    0.24
   5   2  -3    0.60    0.07
  -5  -2   3    0.44    0.07
  -5  -2   3    0.68    0.12
   5   3  -3    0.41    0.06
  -5  -3   3    0.28    0.07
  -5  -3   3    0.58    0.11
   5   4  -3    0.29    0.07
  -5  -4   3    0.29    0.09
  -5  -4   3    0.45    0.10
  -5  -5   3    0.12    0.06
  -5  -5   3    0.17    0.07
  -4   6   3    0.00    0.07
   4  -5  -3    0.07    0.04
  -4   5   3    0.10    0.08
   4  -4  -3    0.37    0.05
  -4   4   3    0.39    0.10
   4  -3  -3    0.21    0.03
  -4   3   3    0.21    0.06
  -4   3   3    0.26    0.08
  -4   2   3    1.53    0.13
  -4   2   3    1.85    0.15
  -4   1   3   47.18    1.61
  -4   1   3   48.17    1.61
  -4   0   3    0.53    0.04
  -4   0   3    0.67    0.10
   4   1  -3   46.91    1.57
  -4  -1   3   47.77    1.60
   4   2  -3    1.85    0.12
  -4  -2   3    1.45    0.11
  -4  -2   3    1.92    0.15
   4   3  -3    0.28    0.06
  -4  -3   3    0.27    0.07
  -4  -3   3    0.11    0.05
   4   4  -3    0.45    0.08
  -4  -4   3    0.51    0.09
  -4  -4   3    0.56    0.10
   4   5  -3    0.02    0.05
  -4  -5   3    0.13    0.06
  -4  -5   3    0.05    0.05
  -4  -6   3   -0.07    0.04
   3  -6  -3    0.13    0.05
  -3   6   3    0.20    0.10
   3  -5  -3    1.44    0.13
  -3   5   3    1.08    0.16
   3  -4  -3    0.79    0.08
  -3   4   3    1.06    0.14
   3  -3  -3    1.31    0.08
  -3   3   3    1.54    0.16
   3  -2  -3   17.20    0.52
  -3   2   3   17.64    0.65
  -3   2   3   17.83    0.63
  -3   1   3   16.24    0.59
  -3   1   3   16.44    0.59
   3   0  -3    0.07    0.03
   3   0  -3    0.10    0.02
  -3   0   3    0.06    0.02
  -3   0   3    0.08    0.03
   3   1  -3   16.53    0.58
  -3  -1   3   16.98    0.61
  -3  -1   3   16.71    0.53
  -3  -2   3   17.77    0.64
  -3  -2   3   17.25    0.58
  -3  -3   3    1.48    0.13
  -3  -3   3    1.26    0.10
   3   4  -3    0.71    0.10
  -3  -4   3    0.98    0.11
  -3  -4   3    0.91    0.12
   3   5  -3    1.49    0.16
  -3  -5   3    1.30    0.11
  -3  -5   3    1.38    0.16
   3   6  -3    0.05    0.06
  -3  -6   3    0.09    0.06
   2  -6  -3    0.24    0.07
  -2   6   3    0.18    0.09
   2  -5  -3    0.08    0.05
  -2   5   3    0.16    0.07
   2  -4  -3    0.56    0.08
  -2   4   3    0.93    0.13
   2  -3  -3   11.21    0.39
  -2   3   3   11.82    0.47
  -2   2   3    5.66    0.25
  -2   1   3   18.38    0.65
  -2   1   3   18.53    0.64
   2   0  -3   12.20    0.43
   2   0  -3   11.77    0.37
  -2   0   3   11.93    0.36
  -2   0   3   12.03    0.43
   2   1  -3   18.62    0.65
  -2  -1   3   19.53    0.59
  -2  -1   3   19.01    0.66
   2   2  -3    5.71    0.24
  -2  -2   3    5.70    0.23
  -2  -2   3    5.66    0.23
   2   3  -3   11.50    0.44
  -2  -3   3   10.88    0.41
  -2  -3   3   11.56    0.42
   2   4  -3    0.77    0.11
  -2  -4   3    0.61    0.09
  -2  -4   3    0.78    0.08
   2   5  -3    0.08    0.06
  -2  -5   3    0.12    0.04
  -2  -5   3    0.07    0.05
   2   6  -3    0.18    0.08
  -2  -6   3    0.27    0.09
   1  -7  -3    0.45    0.10
  -1   7   3    0.44    0.11
   1  -6  -3    2.05    0.20
  -1   6   3    2.14    0.22
   1  -5  -3    0.28    0.07
   1  -5  -3    0.26    0.06
  -1   5   3    0.37    0.09
   1  -4  -3    0.46    0.07
  -1   4   3    0.50    0.09
  -1   3   3   26.32    0.93
  -1   2   3    0.21    0.04
  -1   1   3    3.56    0.15
   1   0  -3   71.88    2.29
   1   0  -3   71.81    2.02
  -1   0   3   67.90    2.25
   1   1  -3    3.48    0.15
  -1  -1   3    3.53    0.14
  -1  -1   3    3.43    0.14
   1   2  -3    0.25    0.05
  -1  -2   3    0.15    0.04
  -1  -2   3    0.17    0.03
   1   3  -3   26.39    0.94
  -1  -3   3   26.05    0.85
  -1  -3   3   26.89    0.86
   1   4  -3    0.60    0.10
  -1  -4   3    0.62    0.04
  -1  -4   3    0.45    0.08
   1   5  -3    0.30    0.09
  -1  -5   3    0.31    0.08
   1   6  -3    2.09    0.23
  -1  -6   3    1.60    0.18
   1   7  -3    0.49    0.14
  -1  -7   3    0.45    0.11
   0  -7  -3    0.00    0.04
   0   7   3   -0.08    0.05
   0  -6  -3    0.47    0.10
   0   6   3    0.62    0.12
   0  -5  -3    0.18    0.05
   0  -5  -3    0.26    0.08
   0   5   3    0.30    0.08
   0  -4  -3    3.26    0.18
   0  -4  -3    3.27    0.17
   0   4   3    3.22    0.19
   0   3   3    1.00    0.09
   0   2   3   33.10    1.10
   0  -1  -3   27.93    0.94
   0   1   3   28.80    0.94
   0   0  -3    1.62    0.08
   0   0   3    1.67    0.08
   0   1  -3   29.20    0.97
   0  -1   3   28.68    0.86
   0   2  -3   33.26    1.15
   0  -2   3   34.45    1.03
   0   3  -3    1.21    0.13
   0  -3   3    0.86    0.09
   0   4  -3    3.29    0.21
   0  -4   3    3.34    0.19
   0   5  -3    0.37    0.10
   0  -5   3    0.18    0.06
   0   6  -3    0.74    0.15
   0  -6   3    0.39    0.10
   0   7  -3    0.02    0.07
   0  -7   3    0.00    0.06
  -1  -7  -3    0.71    0.14
  -1  -6  -3    0.57    0.12
  -1  -5  -3    4.35    0.25
  -1  -5  -3    4.35    0.23
  -1  -4  -3    3.87    0.21
  -1  -4  -3    4.02    0.20
   1   4   3    3.73    0.19
  -1  -3  -3    5.23    0.23
   1   3   3    5.28    0.22
  -1  -2  -3    0.94    0.07
   1   2   3    1.01    0.06
  -1  -1  -3    0.45    0.03
  -1  -1  -3    0.47    0.06
  -1  -1  -3    0.41    0.03
  -1   0  -3    0.66    0.05
  -1   0  -3    0.62    0.04
  -1   1  -3    0.36    0.03
  -1   1  -3    0.46    0.06
   1  -1   3    0.46    0.04
  -1   2  -3    1.04    0.05
  -1   2  -3    0.93    0.08
   1  -2   3    1.01    0.05
   1  -2   3    1.14    0.07
  -1   3  -3    5.19    0.26
   1  -3   3    5.43    0.23
  -1   4  -3    4.19    0.25
   1  -4   3    4.35    0.21
  -1   5  -3    4.78    0.30
   1  -5   3    4.60    0.25
  -1   6  -3    1.05    0.19
   1  -6   3    0.70    0.11
  -1   7  -3    0.40    0.13
   1  -7   3    0.44    0.11
  -2  -6  -3    0.21    0.08
  -2  -6  -3    0.19    0.08
   2   6   3    0.22    0.08
  -2  -5  -3    5.35    0.29
  -2  -5  -3    5.96    0.31
   2   5   3    5.74    0.27
  -2  -4  -3    0.41    0.08
   2   4   3    0.45    0.06
  -2  -3  -3    4.42    0.22
   2   3   3    4.37    0.18
  -2  -2  -3    1.71    0.11
  -2  -2  -3    1.56    0.07
  -2  -2  -3    1.59    0.06
  -2  -1  -3   19.13    0.70
  -2  -1  -3   20.78    0.66
   2   1   3   20.25    0.65
  -2   0  -3   43.97    1.44
  -2   0  -3   43.40    1.43
  -2   1  -3   19.80    0.69
  -2   1  -3   19.63    0.67
  -2   2  -3    1.73    0.13
  -2   2  -3    1.87    0.10
   2  -2   3    2.03    0.10
  -2   3  -3    4.50    0.17
  -2   3  -3    4.59    0.25
   2  -3   3    4.77    0.20
   2  -3   3    4.96    0.19
  -2   4  -3    0.52    0.11
   2  -4   3    0.42    0.07
  -2   5  -3    5.44    0.34
   2  -5   3    5.89    0.27
  -2   6  -3    0.16    0.10
   2  -6   3    0.20    0.07
  -3  -6  -3    0.72    0.14
  -3  -6  -3    0.81    0.13
  -3  -5  -3    1.09    0.15
  -3  -5  -3    1.11    0.15
  -3  -4  -3    4.66    0.26
   3   4   3    4.75    0.19
  -3  -3  -3    0.25    0.07
  -3  -2  -3    5.88    0.28
  -3  -1  -3    1.12    0.05
  -3  -1  -3    1.39    0.13
  -3   0  -3    2.31    0.14
  -3   0  -3    2.06    0.11
  -3   1  -3    1.27    0.10
  -3   1  -3    1.15    0.09
  -3   3  -3    0.24    0.05
  -3   3  -3    0.32    0.08
   3  -3   3    0.29    0.05
  -3   4  -3    4.74    0.29
  -3   4  -3    4.57    0.19
   3  -4   3    4.82    0.21
  -3   5  -3    1.22    0.19
   3  -5   3    0.98    0.11
  -3   6  -3    0.71    0.16
   3  -6   3    0.77    0.11
  -4  -6  -3    0.53    0.12
  -4  -6  -3    1.04    0.16
  -4  -5  -3    0.07    0.07
  -4  -5  -3    0.20    0.08
  -4  -4  -3    4.22    0.26
  -4  -3  -3    0.13    0.06
  -4  -2  -3    2.10    0.16
  -4  -1  -3    4.67    0.24
  -4  -1  -3    4.27    0.16
   4   1   3    4.31    0.17
  -4   0  -3    5.87    0.28
  -4   0  -3    5.80    0.25
  -4   1  -3    5.00    0.25
  -4   1  -3    4.78    0.24
  -4   2  -3    2.32    0.17
  -4   2  -3    2.34    0.16
  -4   3  -3    0.18    0.07
  -4   3  -3    0.05    0.04
  -4   4  -3    4.23    0.20
  -4   4  -3    5.14    0.32
  -4   5  -3    0.20    0.09
   4  -5   3    0.18    0.05
  -4   6  -3    0.54    0.14
   4  -6   3    0.80    0.11
  -5  -6  -3    0.03    0.07
  -5  -5  -3    0.00    0.06
  -5  -5  -3    0.02    0.05
  -5  -4  -3    1.34    0.16
  -5  -4  -3    1.18    0.17
  -5  -3  -3    5.00    0.30
  -5  -2  -3    0.03    0.04
  -5  -1  -3    2.06    0.10
  -5  -1  -3    1.73    0.18
  -5   0  -3    1.17    0.15
  -5   0  -3    0.87    0.09
  -5   1  -3    2.19    0.16
  -5   1  -3    2.05    0.17
  -5   2  -3   -0.04    0.03
  -5   2  -3   -0.03    0.04
  -5   3  -3    4.60    0.30
  -5   3  -3    4.88    0.26
  -5   4  -3    1.08    0.17
  -5   4  -3    1.53    0.13
  -5   5  -3   -0.04    0.06
  -5   6  -3   -0.08    0.07
  -6  -5  -3   -0.02    0.06
  -6  -5  -3    0.01    0.05
  -6  -4  -3   -0.02    0.06
  -6  -4  -3    0.02    0.05
  -6  -3  -3    1.34    0.18
  -6  -2  -3    0.37    0.10
  -6  -1  -3    0.77    0.07
  -6  -1  -3    0.86    0.14
  -6   0  -3    0.75    0.14
  -6   0  -3    0.85    0.10
  -6   1  -3    0.76    0.11
  -6   1  -3    0.85    0.14
  -6   2  -3    0.45    0.10
  -6   2  -3    0.54    0.11
  -6   3  -3    1.67    0.18
  -6   3  -3    1.25    0.17
  -6   4  -3    0.03    0.04
  -6   4  -3    0.11    0.09
  -6   5  -3    0.06    0.08
  -7  -4  -3    0.35    0.10
  -7  -4  -3    0.23    0.11
  -7  -3  -3    0.52    0.10
  -7  -3  -3    0.38    0.12
  -7  -2  -3    0.47    0.13
  -7  -1  -3    0.20    0.09
  -7   0  -3    2.30    0.26
  -7   0  -3    1.89    0.14
  -7   1  -3    0.26    0.08
  -7   1  -3    0.11    0.08
  -7   2  -3    0.82    0.14
  -7   2  -3    0.84    0.15
  -7   3  -3    0.44    0.12
  -7   3  -3    0.63    0.13
  -7   4  -3    0.47    0.13
  -7   4  -3    0.26    0.09
  -8  -3  -3    0.29    0.09
  -8  -3  -3    0.27    0.12
  -8  -2  -3    0.30    0.11
  -8  -1  -3    0.90    0.17
  -8   0  -3    0.76    0.16
  -8   0  -3    0.85    0.11
  -8   1  -3    1.31    0.20
  -8   1  -3    0.89    0.13
  -8   2  -3    0.31    0.09
  -8   2  -3    0.24    0.11
  -8   3  -3    0.56    0.13
  -8   3  -3    0.24    0.10
  -9  -1  -3    0.14    0.10
  -9   0  -3    0.07    0.08
  -9   1  -3    0.26    0.12
  -9   1  -3    0.21    0.08
   9  -1  -4    0.07    0.07
  -9   1   4    0.12    0.08
   9   0  -4    0.09    0.06
  -9   0   4   -0.04    0.06
  -9  -1   4    0.11    0.09
  -8   3   4    1.46    0.20
  -8   3   4    1.52    0.21
  -8   2   4    1.06    0.16
  -8   2   4    1.38    0.20
   8  -1  -4    0.05    0.06
  -8   1   4    0.09    0.08
   8   0  -4    0.28    0.08
  -8   0   4    0.22    0.10
   8   1  -4    0.04    0.04
  -8  -1   4    0.16    0.10
  -8  -2   4    0.99    0.18
  -8  -3   4    1.46    0.16
  -8  -3   4    1.45    0.21
  -7   4   4    0.05    0.06
  -7   4   4    0.04    0.07
  -7   3   4    0.64    0.13
  -7   3   4    0.74    0.13
  -7   2   4    0.27    0.09
  -7   2   4    0.36    0.10
   7  -1  -4    0.10    0.06
  -7   1   4    0.32    0.11
   7   0  -4    1.33    0.14
  -7   0   4    1.18    0.17
   7   1  -4    0.24    0.06
  -7  -1   4    0.25    0.10
  -7  -1   4    0.22    0.05
   7   2  -4    0.23    0.06
  -7  -2   4    0.29    0.07
  -7  -2   4    0.32    0.10
  -7  -3   4    0.70    0.14
  -7  -3   4    0.82    0.12
  -7  -4   4   -0.06    0.05
  -7  -4   4    0.03    0.05
  -6   5   4    0.38    0.12
  -6   4   4    0.14    0.08
  -6   4   4   -0.03    0.04
  -6   3   4    0.36    0.09
  -6   3   4    0.40    0.10
  -6   2   4    4.57    0.28
  -6   2   4    5.11    0.29
  -6   1   4    0.41    0.10
  -6   1   4    0.61    0.10
   6   0  -4    0.05    0.05
  -6   0   4    0.04    0.02
  -6   0   4    0.05    0.06
   6   1  -4    0.49    0.08
  -6  -1   4    0.65    0.13
  -6  -1   4    0.30    0.06
   6   2  -4    4.92    0.24
  -6  -2   4    5.01    0.24
  -6  -2   4    4.90    0.30
   6   3  -4    0.39    0.08
  -6  -3   4    0.41    0.08
  -6  -3   4    0.37    0.11
  -6  -4   4    0.05    0.07
  -6  -4   4    0.00    0.04
  -6  -5   4    0.50    0.12
  -6  -5   4    0.31    0.09
  -5   5   4    0.03    0.07
  -5   4   4    0.97    0.15
  -5   3   4    0.42    0.09
  -5   3   4    0.43    0.10
  -5   2   4    1.85    0.15
  -5   2   4    2.02    0.16
  -5   1   4    7.40    0.34
  -5   1   4    7.81    0.36
   5   0  -4    0.08    0.04
  -5   0   4    0.12    0.03
  -5   0   4    0.21    0.07
   5   1  -4    7.48    0.31
  -5  -1   4    7.37    0.28
  -5  -1   4    7.30    0.36
  -5  -2   4    1.67    0.12
  -5  -2   4    1.75    0.18
   5   3  -4    0.43    0.07
  -5  -3   4    0.57    0.11
  -5  -3   4    0.45    0.08
  -5  -4   4    0.75    0.12
  -5  -4   4    0.92    0.13
  -5  -5   4    0.02    0.05
  -5  -5   4    0.05    0.06
  -4   6   4    0.00    0.07
   4  -5  -4    0.01    0.03
  -4   5   4    0.04    0.07
   4  -4  -4    1.00    0.07
  -4   4   4    1.23    0.17
   4  -3  -4    0.17    0.03
  -4   3   4    0.08    0.04
  -4   3   4    0.09    0.05
  -4   2   4    0.22    0.07
  -4   2   4    0.22    0.06
  -4   1   4    5.38    0.27
  -4   1   4    5.06    0.25
   4   0  -4    0.36    0.06
  -4   0   4    0.40    0.04
  -4   0   4    0.44    0.08
   4   1  -4    5.56    0.24
  -4  -1   4    5.71    0.28
   4   2  -4    0.23    0.05
  -4  -2   4    0.14    0.06
  -4  -2   4    0.10    0.04
   4   3  -4    0.06    0.04
  -4  -3   4    0.17    0.06
  -4  -3   4    0.10    0.04
   4   4  -4    1.32    0.14
  -4  -4   4    0.99    0.12
  -4  -4   4    1.06    0.13
   4   5  -4    0.10    0.06
  -4  -5   4    0.00    0.04
  -4  -5   4   -0.04    0.03
  -4  -6   4   -0.02    0.04
   3  -6  -4    0.06    0.04
  -3   6   4    0.11    0.09
   3  -5  -4    2.12    0.14
  -3   5   4    2.52    0.21
   3  -4  -4    0.23    0.05
  -3   4   4    0.19    0.07
   3  -3  -4    2.27    0.11
  -3   3   4    2.45    0.17
  -3   2   4   10.36    0.40
  -3   2   4   10.07    0.42
   3  -1  -4    2.52    0.09
  -3   1   4    2.41    0.14
  -3   1   4    2.54    0.14
   3   0  -4    1.99    0.12
  -3   0   4    1.83    0.12
  -3   0   4    1.90    0.08
   3   1  -4    2.53    0.13
  -3  -1   4    2.67    0.13
  -3  -1   4    2.47    0.15
   3   2  -4   10.90    0.41
  -3  -2   4   10.63    0.42
  -3  -2   4   10.78    0.39
   3   3  -4    2.38    0.15
  -3  -3   4    2.16    0.15
  -3  -3   4    2.28    0.14
   3   4  -4    0.20    0.06
  -3  -4   4    0.21    0.06
  -3  -4   4    0.31    0.06
   3   5  -4    2.21    0.18
  -3  -5   4    2.24    0.20
  -3  -5   4    2.32    0.15
   3   6  -4    0.03    0.06
  -3  -6   4    0.03    0.06
   2  -6  -4    0.74    0.12
  -2   6   4    0.57    0.12
   2  -5  -4    0.39    0.08
  -2   5   4    0.51    0.11
   2  -4  -4    0.60    0.08
  -2   4   4    0.78    0.12
  -2   3   4    2.14    0.15
  -2   2   4    7.22    0.31
  -2   1   4    2.50    0.13
  -2   1   4    2.59    0.13
   2   0  -4    9.45    0.35
  -2   0   4    9.39    0.35
   2   1  -4    2.43    0.13
  -2  -1   4    2.40    0.11
  -2  -1   4    2.47    0.13
  -2  -2   4    6.93    0.28
  -2  -2   4    7.32    0.28
   2   3  -4    1.88    0.13
  -2  -3   4    2.25    0.14
  -2  -3   4    2.28    0.12
   2   4  -4    0.68    0.11
  -2  -4   4    0.73    0.07
  -2  -4   4    0.64    0.10
   2   5  -4    0.55    0.11
  -2  -5   4    0.35    0.08
   2   6  -4    0.74    0.14
  -2  -6   4    0.52    0.11
   1  -7  -4    0.23    0.08
  -1   7   4    0.21    0.10
   1  -6  -4    1.81    0.15
   1  -6  -4    2.26    0.21
  -1   6   4    1.94    0.21
   1  -5  -4    0.05    0.04
  -1   5   4    0.07    0.06
   1  -4  -4   11.74    0.43
  -1   4   4   10.96    0.47
  -1   3   4    3.58    0.19
  -1   2   4    6.44    0.27
   1  -1  -4    7.26    0.28
   1   0  -4    1.68    0.09
   1   1  -4    6.87    0.27
  -1  -1   4    7.02    0.25
  -1  -1   4    6.83    0.24
   1   2  -4    6.09    0.26
  -1  -2   4    5.86    0.24
  -1  -2   4    6.29    0.22
   1   3  -4    3.58    0.19
   1   3  -4    3.18    0.14
  -1  -3   4    3.34    0.18
  -1  -3   4    3.49    0.13
   1   4  -4   10.48    0.46
  -1  -4   4   11.16    0.43
   1   5  -4    0.07    0.07
  -1  -5   4    0.10    0.06
   1   6  -4    2.35    0.26
  -1  -6   4    2.04    0.21
   1   7  -4    0.11    0.09
   0  -7  -4    0.39    0.11
   0   7   4    0.33    0.10
   0  -6  -4    1.16    0.16
   0   6   4    1.21    0.16
   0  -5  -4    1.36    0.15
   0  -5  -4    1.39    0.13
   0   5   4    1.45    0.15
   0  -4  -4    3.99    0.20
   0   4   4    3.80    0.21
   0   3   4    6.84    0.28
   0   2   4   10.82    0.39
   0  -1  -4   27.05    0.90
   0   0  -4   42.70    1.40
   0   1  -4   26.64    0.91
   0  -1   4   27.20    0.81
   0   2  -4   10.41    0.40
   0   2  -4   10.07    0.34
   0  -2   4   10.78    0.36
   0   3  -4    6.99    0.31
   0  -3   4    6.49    0.27
   0   4  -4    3.79    0.23
   0  -4   4    4.15    0.21
   0   5  -4    1.51    0.19
   0  -5   4    1.38    0.15
   0   6  -4    1.55    0.22
   0  -6   4    1.40    0.17
   0   7  -4    0.28    0.12
   0  -7   4    0.21    0.08
  -1  -6  -4    1.22    0.15
  -1  -6  -4    1.11    0.16
   1   6   4    1.16    0.15
  -1  -5  -4    6.03    0.30
  -1  -5  -4    6.45    0.32
   1   5   4    6.11    0.29
  -1  -4  -4    1.52    0.12
   1   4   4    1.44    0.11
  -1  -3  -4   11.61    0.44
   1   3   4   11.54    0.42
  -1  -2  -4   10.44    0.39
   1   2   4   10.45    0.37
  -1  -1  -4    5.79    0.21
  -1  -1  -4    5.66    0.23
   1   1   4    5.51    0.21
  -1   0  -4    8.02    0.29
  -1   0  -4    7.74    0.29
  -1   1  -4    5.65    0.24
  -1   2  -4   10.59    0.36
  -1   2  -4   10.57    0.36
  -1   2  -4   10.26    0.42
   1  -2   4   10.44    0.36
  -1   3  -4   12.48    0.51
   1  -3   4   12.38    0.44
  -1   4  -4    1.41    0.16
   1  -4   4    1.56    0.12
  -1   5  -4    5.86    0.35
   1  -5   4    6.25    0.30
  -1   6  -4    1.27    0.20
   1  -6   4    1.33    0.15
  -1   7  -4    0.36    0.13
  -2  -6  -4    0.08    0.06
  -2  -6  -4    0.08    0.07
  -2  -5  -4    0.45    0.10
  -2  -5  -4    0.35    0.09
   2   5   4    0.48    0.08
  -2  -4  -4    0.44    0.08
   2   4   4    0.62    0.07
  -2  -3  -4    4.56    0.24
   2   3   4    5.02    0.19
  -2  -2  -4    7.89    0.34
  -2  -2  -4    8.26    0.29
  -2  -2  -4    8.30    0.28
  -2  -1  -4    0.48    0.04
  -2  -1  -4    0.54    0.07
   2   1   4    0.52    0.04
  -2   0  -4   17.25    0.61
  -2   0  -4   17.06    0.59
  -2   1  -4    0.70    0.08
  -2   1  -4    0.72    0.07
  -2   2  -4    8.35    0.31
  -2   2  -4    8.01    0.35
  -2   3  -4    4.91    0.18
  -2   3  -4    4.50    0.26
   2  -3   4    5.15    0.19
   2  -3   4    4.95    0.21
  -2   4  -4    0.64    0.13
   2  -4   4    0.47    0.07
  -2   5  -4    0.50    0.12
   2  -5   4    0.42    0.09
  -2   6  -4    0.09    0.08
   2  -6   4    0.15    0.07
  -3  -6  -4    0.75    0.14
  -3  -6  -4    0.78    0.14
  -3  -5  -4    0.21    0.08
  -3  -5  -4    0.23    0.08
  -3  -4  -4    5.16    0.29
   3   4   4    5.41    0.20
  -3  -3  -4    7.16    0.34
  -3  -2  -4   17.95    0.68
  -3  -1  -4    4.81    0.25
  -3  -1  -4    5.41    0.19
  -3   0  -4    0.06    0.03
  -3   0  -4    0.07    0.03
  -3   1  -4    5.26    0.24
  -3   1  -4    4.98    0.23
  -3   2  -4   14.73    0.61
  -3   2  -4   20.20    0.68
  -3   3  -4    7.58    0.30
  -3   3  -4    7.53    0.37
  -3   4  -4    5.63    0.21
  -3   4  -4    4.94    0.32
   3  -4   4    5.26    0.24
  -3   5  -4    0.12    0.08
   3  -5   4    0.05    0.04
  -3   6  -4    0.57    0.14
   3  -6   4    0.72    0.11
  -4  -6  -4    0.73    0.14
  -4  -6  -4    0.54    0.13
  -4  -5  -4    0.11    0.07
  -4  -5  -4    0.13    0.07
  -4  -4  -4    2.41    0.20
  -4  -3  -4    2.83    0.20
  -4  -2  -4    7.25    0.35
  -4  -1  -4    6.55    0.32
  -4  -1  -4    6.80    0.24
  -4   0  -4    1.18    0.13
  -4   0  -4    1.04    0.09
  -4   1  -4    6.04    0.29
  -4   1  -4    6.46    0.29
  -4   2  -4    7.50    0.33
  -4   2  -4    7.13    0.35
  -4   3  -4    2.79    0.17
  -4   3  -4    3.03    0.22
  -4   4  -4    2.53    0.27
  -4   4  -4    2.74    0.15
  -4   5  -4    0.11    0.08
   4  -5   4    0.15    0.05
  -4   6  -4    0.48    0.14
   4  -6   4    0.60    0.10
  -5  -5  -4    0.21    0.08
  -5  -5  -4    0.07    0.07
  -5  -4  -4    0.57    0.13
  -5  -3  -4    1.70    0.20
  -5  -2  -4    1.75    0.19
  -5  -1  -4    0.87    0.13
  -5  -1  -4    0.79    0.06
  -5   0  -4    1.14    0.11
  -5   0  -4    1.07    0.14
  -5   1  -4    0.69    0.12
  -5   1  -4    1.03    0.13
  -5   2  -4    1.89    0.16
  -5   2  -4    2.09    0.20
  -5   3  -4    1.74    0.21
  -5   4  -4    0.54    0.09
  -5   4  -4    0.57    0.14
  -5   5  -4    0.11    0.09
  -6  -5  -4    0.05    0.05
  -6  -5  -4    0.14    0.08
  -6  -4  -4    0.89    0.16
  -6  -3  -4    2.30    0.25
  -6  -2  -4    0.43    0.12
  -6  -1  -4    1.00    0.07
  -6  -1  -4    1.24    0.17
  -6   0  -4   11.53    0.45
  -6   0  -4   11.35    0.53
  -6   1  -4    1.39    0.18
  -6   1  -4    1.33    0.15
  -6   2  -4    0.45    0.10
  -6   2  -4    0.42    0.10
  -6   3  -4    2.49    0.25
  -6   3  -4    2.51    0.19
  -6   4  -4    0.96    0.13
  -6   4  -4    0.95    0.17
  -6   5  -4    0.12    0.09
  -7  -4  -4    0.00    0.05
  -7  -4  -4    0.07    0.07
  -7  -3  -4    0.48    0.13
  -7  -2  -4    0.24    0.10
  -7  -1  -4    0.09    0.07
  -7   0  -4    0.34    0.11
  -7   0  -4    0.26    0.06
  -7   1  -4    0.14    0.07
  -7   1  -4    0.06    0.07
  -7   2  -4    0.22    0.08
  -7   2  -4    0.35    0.11
  -7   3  -4    0.51    0.12
  -7   3  -4    0.55    0.12
  -7   4  -4   -0.02    0.03
  -7   4  -4    0.01    0.07
  -8  -3  -4    0.08    0.06
  -8  -3  -4    0.07    0.09
  -8  -2  -4    0.99    0.18
  -8  -1  -4    0.05    0.08
  -8   0  -4   -0.04    0.04
  -8   0  -4   -0.03    0.06
  -8   1  -4    0.14    0.07
  -8   1  -4    0.21    0.11
  -8   2  -4    1.14    0.16
  -8   2  -4    0.98    0.18
  -8   3  -4    0.11    0.08
  -8   3  -4    0.01    0.07
  -9  -1  -4    0.05    0.08
  -9   0  -4    0.00    0.08
  -9   1  -4    0.01    0.06
  -9   1  -4    0.14    0.10
  -9   1   5    0.13    0.09
   9   0  -5    0.02    0.06
  -9   0   5    0.06    0.09
  -9  -1   5    0.07    0.08
  -8   3   5    0.36    0.10
  -8   3   5    0.68    0.15
  -8   2   5    0.12    0.08
  -8   2   5    0.23    0.09
   8  -1  -5    0.24    0.08
  -8   1   5    0.18    0.09
   8   0  -5    0.75    0.12
  -8   0   5    0.88    0.17
   8   1  -5    0.12    0.06
  -8  -1   5    0.01    0.07
  -8  -2   5    0.23    0.11
  -8  -3   5    0.27    0.12
  -8  -3   5    0.42    0.10
  -7   4   5    0.09    0.08
  -7   4   5   -0.05    0.05
  -7   3   5    0.13    0.07
  -7   3   5    0.23    0.09
  -7   2   5    0.05    0.06
  -7   2   5    0.03    0.06
   7  -1  -5    0.66    0.11
  -7   1   5    1.06    0.17
   7   0  -5    0.40    0.09
  -7   0   5    0.34    0.10
   7   1  -5    0.70    0.11
  -7  -1   5    0.79    0.08
  -7  -1   5    0.80    0.15
   7   2  -5    0.07    0.05
  -7  -2   5   -0.03    0.06
  -7  -2   5    0.08    0.05
  -7  -3   5    0.14    0.07
  -7  -3   5    0.12    0.09
  -7  -4   5    0.03    0.06
  -7  -4   5    0.04    0.07
  -6   5   5    0.05    0.08
  -6   4   5   -0.04    0.05
  -6   3   5    0.56    0.12
  -6   3   5    0.51    0.10
  -6   2   5    0.60    0.12
  -6   2   5    0.72    0.12
   6  -1  -5    1.20    0.14
  -6   1   5    1.68    0.19
   6   0  -5    0.08    0.05
  -6   0   5    0.08    0.06
   6   1  -5    1.39    0.14
  -6  -1   5    1.27    0.18
  -6  -1   5    1.43    0.10
  -6  -2   5    0.58    0.09
  -6  -2   5    0.65    0.13
   6   3  -5    0.44    0.08
  -6  -3   5    0.52    0.12
  -6  -3   5    0.52    0.10
  -6  -4   5    0.03    0.05
  -6  -4   5    0.05    0.06
  -6  -5   5   -0.04    0.05
  -6  -5   5    0.03    0.06
  -5   5   5    0.01    0.06
  -5   4   5    0.68    0.13
  -5   3   5    0.59    0.10
  -5   3   5    0.42    0.09
  -5   2   5    3.28    0.21
  -5   2   5    3.32    0.21
   5  -1  -5    0.91    0.11
  -5   1   5    1.07    0.14
   5   0  -5    0.05    0.04
  -5   0   5    0.04    0.04
  -5   0   5    0.01    0.02
   5   1  -5    1.28    0.12
  -5  -1   5    1.09    0.08
  -5  -1   5    1.08    0.14
   5   2  -5    3.39    0.19
  -5  -2   5    3.22    0.18
  -5  -2   5    3.23    0.22
  -5  -3   5    0.57    0.11
  -5  -3   5    0.58    0.10
   5   4  -5    0.51    0.09
  -5  -4   5    0.67    0.12
  -5  -4   5    0.69    0.11
  -5  -5   5    0.04    0.05
  -5  -5   5   -0.03    0.04
  -4   6   5   -0.08    0.05
  -4   5   5    0.24    0.09
   4  -4  -5    0.96    0.08
  -4   4   5    0.70    0.12
   4  -3  -5    3.36    0.13
  -4   3   5    3.48    0.22
   4  -2  -5    3.09    0.10
   4  -2  -5    2.93    0.10
  -4   2   5    3.06    0.19
  -4   2   5    3.06    0.18
   4  -1  -5    8.37    0.27
   4  -1  -5    8.94    0.38
  -4   1   5    9.24    0.38
   4   0  -5    0.78    0.09
  -4   0   5    0.74    0.11
   4   1  -5    8.86    0.36
  -4  -1   5    8.90    0.38
   4   2  -5    3.12    0.18
  -4  -2   5    3.15    0.19
  -4  -2   5    3.21    0.17
   4   3  -5    3.58    0.19
  -4  -3   5    3.29    0.19
  -4  -3   5    3.40    0.20
   4   4  -5    0.67    0.10
  -4  -4   5    1.00    0.13
  -4  -4   5    0.94    0.13
  -4  -5   5    0.46    0.09
  -4  -5   5    0.35    0.09
  -4  -6   5   -0.03    0.05
   3  -6  -5    0.26    0.07
  -3   6   5    0.24    0.09
   3  -5  -5    0.34    0.07
  -3   5   5    0.19    0.08
   3  -4  -5    0.93    0.10
  -3   4   5    1.11    0.14
   3  -3  -5    3.82    0.17
  -3   3   5    4.22    0.23
  -3   2   5    0.82    0.10
  -3   2   5    0.77    0.10
   3  -1  -5    2.62    0.10
   3  -1  -5    2.60    0.16
  -3   1   5    2.81    0.16
   3   0  -5    1.59    0.11
  -3   0   5    1.65    0.11
   3   1  -5    2.52    0.14
  -3  -1   5    2.57    0.15
  -3  -1   5    2.57    0.12
   3   2  -5    0.79    0.10
  -3  -2   5    0.79    0.09
  -3  -2   5    0.64    0.08
   3   3  -5    3.89    0.21
  -3  -3   5    3.93    0.21
  -3  -3   5    4.06    0.20
   3   4  -5    1.07    0.14
  -3  -4   5    0.96    0.10
  -3  -4   5    0.76    0.11
   3   5  -5    0.46    0.10
  -3  -5   5    0.30    0.09
   3   6  -5    0.32    0.10
  -3  -6   5    0.26    0.09
   2  -6  -5    0.42    0.09
  -2   6   5    0.42    0.11
   2  -5  -5    0.81    0.11
  -2   5   5    0.94    0.14
   2  -4  -5    0.07    0.04
  -2   4   5    0.04    0.05
  -2   3   5    2.68    0.17
  -2   2   5   17.77    0.65
   2  -1  -5    4.50    0.20
  -2   1   5    4.15    0.19
   2   0  -5   11.30    0.41
  -2   0   5   10.43    0.40
   2   1  -5    4.81    0.21
  -2  -1   5    4.47    0.18
  -2  -1   5    4.37    0.20
   2   2  -5   17.26    0.63
  -2  -2   5   17.86    0.61
  -2  -2   5   17.40    0.58
   2   3  -5    2.85    0.17
  -2  -3   5    2.75    0.16
  -2  -3   5    2.79    0.14
   2   4  -5    0.11    0.06
  -2  -4   5   -0.01    0.03
  -2  -4   5    0.08    0.03
   2   5  -5    1.23    0.17
  -2  -5   5    0.88    0.13
   2   6  -5    0.46    0.12
  -2  -6   5    0.36    0.10
   1  -6  -5    0.51    0.09
   1  -6  -5    0.76    0.13
  -1   6   5    0.58    0.12
   1  -5  -5    3.64    0.22
  -1   5   5    4.27    0.25
  -1   4   5    1.43    0.15
  -1   3   5    3.54    0.19
  -1   2   5    0.91    0.08
   1  -1  -5   14.45    0.52
   1   0  -5   36.84    1.23
   1   1  -5   14.66    0.53
  -1  -1   5   14.39    0.46
   1   2  -5    1.05    0.10
  -1  -2   5    0.89    0.08
  -1  -2   5    1.00    0.06
   1   3  -5    3.85    0.21
  -1  -3   5    3.90    0.19
   1   4  -5    1.84    0.18
  -1  -4   5    1.43    0.15
   1   5  -5    3.70    0.25
  -1  -5   5    3.69    0.23
   1   6  -5    0.52    0.13
  -1  -6   5    0.48    0.10
   0  -6  -5    0.99    0.15
   0  -6  -5    0.69    0.11
   0   6   5    0.93    0.14
   0  -5  -5    3.85    0.23
   0  -5  -5    4.06    0.22
   0   5   5    3.84    0.22
   0  -4  -5    2.98    0.17
   0   4   5    2.52    0.16
   0   3   5    2.00    0.12
   0  -2  -5    4.67    0.21
   0   2   5    4.89    0.20
   0  -1  -5   20.39    0.70
   0   0  -5    0.98    0.07
   0   1  -5   20.85    0.73
   0   2  -5    4.65    0.22
   0  -2   5    4.77    0.20
   0   3  -5    2.07    0.15
   0  -3   5    2.04    0.13
   0   4  -5    2.67    0.19
   0  -4   5    2.40    0.16
   0   5  -5    4.01    0.27
   0  -5   5    3.84    0.23
   0   6  -5    0.89    0.17
   0  -6   5    0.67    0.12
  -1  -6  -5    1.75    0.20
   1   6   5    2.00    0.16
  -1  -5  -5    1.21    0.14
  -1  -5  -5    1.15    0.15
   1   5   5    1.67    0.14
  -1  -4  -5    0.75    0.10
   1   4   5    0.73    0.09
  -1  -3  -5    2.61    0.16
   1   3   5    2.84    0.14
  -1  -2  -5   11.96    0.44
  -1  -2  -5   10.96    0.40
  -1  -1  -5   11.02    0.40
  -1  -1  -5   11.55    0.42
  -1   0  -5   11.20    0.40
  -1   0  -5   11.12    0.40
  -1   1  -5    8.71    0.35
  -1   1  -5   11.58    0.39
  -1   2  -5   11.23    0.46
  -1   2  -5   11.82    0.40
   1  -2   5   11.54    0.39
  -1   3  -5    3.08    0.19
   1  -3   5    2.81    0.15
  -1   4  -5    0.90    0.14
   1  -4   5    0.70    0.09
  -1   5  -5    1.76    0.22
   1  -5   5    1.76    0.17
  -1   6  -5    1.97    0.25
   1  -6   5    1.84    0.19
  -2  -6  -5    0.46    0.10
  -2  -6  -5    0.58    0.12
  -2  -5  -5    5.25    0.29
   2   5   5    5.79    0.25
  -2  -4  -5    3.56    0.22
   2   4   5    3.51    0.16
  -2  -3  -5    0.11    0.03
  -2  -3  -5    0.10    0.05
  -2  -2  -5    9.22    0.33
  -2  -2  -5    9.50    0.33
  -2  -2  -5    9.87    0.39
  -2  -1  -5   35.48    1.15
  -2  -1  -5   34.17    1.18
  -2   0  -5    1.23    0.08
  -2   0  -5    1.37    0.10
  -2   1  -5   35.08    1.15
  -2   1  -5   34.13    1.18
  -2   2  -5    8.87    0.39
  -2   2  -5    9.27    0.34
  -2   3  -5    0.08    0.03
  -2   3  -5    0.20    0.07
   2  -3   5    0.13    0.04
  -2   4  -5    3.63    0.25
   2  -4   5    3.56    0.19
  -2   5  -5    5.77    0.35
   2  -5   5    5.62    0.28
  -2   6  -5    0.70    0.16
   2  -6   5    0.64    0.11
  -3  -6  -5    0.13    0.08
  -3  -5  -5    0.47    0.11
  -3  -4  -5    0.83    0.06
  -3  -4  -5    1.14    0.15
  -3  -3  -5    0.16    0.06
  -3  -2  -5    1.80    0.14
  -3  -1  -5    4.26    0.23
  -3  -1  -5    4.32    0.17
  -3   0  -5    0.88    0.07
  -3   0  -5    0.82    0.11
  -3   1  -5    4.18    0.21
  -3   1  -5    4.55    0.22
  -3   2  -5    1.81    0.14
  -3   2  -5    1.42    0.11
  -3   3  -5    0.25    0.08
  -3   3  -5    0.30    0.05
  -3   4  -5    1.12    0.07
  -3   4  -5    1.19    0.18
   3  -4   5    1.35    0.12
  -3   5  -5    0.54    0.13
   3  -5   5    0.34    0.07
  -3   6  -5    0.28    0.11
   3  -6   5    0.06    0.05
  -4  -6  -5    0.34    0.10
  -4  -6  -5    0.64    0.13
  -4  -5  -5    0.46    0.11
  -4  -3  -5    4.86    0.28
  -4  -2  -5    4.84    0.27
  -4  -1  -5   12.96    0.53
  -4  -1  -5   12.96    0.45
  -4   0  -5    5.82    0.29
  -4   0  -5    5.70    0.25
  -4   1  -5   12.96    0.52
  -4   1  -5   13.35    0.53
  -4   2  -5    5.08    0.25
  -4   2  -5    4.62    0.27
  -4   3  -5    4.72    0.29
  -4   3  -5    4.48    0.23
  -4   4  -5    0.55    0.13
  -4   4  -5    0.65    0.08
  -4   5  -5    0.37    0.12
  -4   6  -5    0.49    0.15
   4  -6   5    0.45    0.09
  -5  -5  -5    0.30    0.10
  -5  -5  -5    0.31    0.10
  -5  -4  -5    1.06    0.17
  -5  -3  -5    0.33    0.10
  -5  -2  -5    0.65    0.12
  -5  -1  -5    0.31    0.09
  -5  -1  -5    0.54    0.06
  -5   0  -5    1.87    0.20
  -5   0  -5    1.96    0.13
  -5   1  -5    0.45    0.09
  -5   1  -5    0.49    0.10
  -5   2  -5    0.54    0.11
  -5   2  -5    0.61    0.11
  -5   3  -5    0.42    0.12
  -5   3  -5    0.24    0.07
  -5   4  -5    1.45    0.12
  -5   4  -5    1.27    0.20
  -5   5  -5    0.17    0.10
  -6  -5  -5    0.09    0.09
  -6  -5  -5    0.16    0.07
  -6  -4  -5    0.21    0.10
  -6  -3  -5    3.22    0.26
  -6  -2  -5    1.25    0.18
  -6  -1  -5    0.73    0.14
  -6  -1  -5    0.73    0.07
  -6   0  -5    4.49    0.29
  -6   0  -5    4.89    0.24
  -6   1  -5    0.75    0.14
  -6   1  -5    0.77    0.12
  -6   2  -5    2.19    0.23
  -6   2  -5    1.81    0.20
  -6   3  -5    2.85    0.22
  -6   3  -5    3.18    0.25
  -6   4  -5    0.21    0.10
  -6   4  -5    0.39    0.09
  -6   5  -5    0.11    0.10
  -7  -4  -5    0.08    0.08
  -7  -3  -5    0.57    0.14
  -7  -2  -5    0.46    0.13
  -7  -1  -5    0.61    0.14
  -7   0  -5    0.26    0.10
  -7   0  -5    0.39    0.08
  -7   1  -5    0.95    0.13
  -7   1  -5    0.92    0.17
  -7   2  -5    0.25    0.10
  -7   2  -5    0.43    0.11
  -7   3  -5    0.51    0.12
  -7   3  -5    0.50    0.13
  -7   4  -5    0.22    0.09
  -7   4  -5    0.15    0.09
  -8  -3  -5    0.10    0.09
  -8  -2  -5    0.46    0.14
  -8  -1  -5    0.45    0.13
  -8   0  -5   -0.04    0.06
  -8   1  -5    1.21    0.19
  -8   1  -5    0.84    0.13
  -8   2  -5    0.56    0.14
  -8   2  -5    0.47    0.12
  -8   3  -5    0.01    0.07
  -8   3  -5    0.11    0.07
  -9  -1  -5    0.08    0.09
  -9   0  -5    0.21    0.11
  -8   3   6   -0.06    0.06
   8  -2  -6    0.40    0.11
  -8   2   6    0.25    0.10
   8  -1  -6    0.10    0.06
  -8   1   6    0.21    0.09
   8   0  -6   -0.04    0.05
  -8   0   6   -0.02    0.07
   8   1  -6    0.17    0.07
  -8  -1   6    0.22    0.10
   8   2  -6    0.17    0.07
  -8  -2   6    0.22    0.10
  -8  -3   6   -0.03    0.06
  -7   4   6    0.06    0.07
  -7   3   6    0.01    0.05
  -7   3   6    0.00    0.06
   7  -2  -6    0.60    0.13
  -7   2   6    1.06    0.16
   7  -1  -6    0.19    0.08
  -7   1   6    0.16    0.07
   7   0  -6    0.02    0.05
  -7   0   6   -0.04    0.06
   7   1  -6    0.17    0.06
  -7  -1   6    0.26    0.09
   7   2  -6    0.88    0.12
  -7  -2   6    1.22    0.12
  -7  -2   6    1.04    0.17
   7   3  -6    0.02    0.05
  -7  -3   6   -0.03    0.04
  -7  -3   6   -0.01    0.07
  -7  -4   6    0.10    0.06
  -7  -4   6    0.15    0.08
  -6   5   6    0.07    0.08
  -6   4   6    0.79    0.15
  -6   3   6    0.89    0.14
  -6   3   6    0.72    0.12
  -6   2   6    0.07    0.05
  -6   2   6    0.17    0.07
   6  -1  -6    0.13    0.06
  -6   1   6    0.09    0.06
   6   0  -6    2.18    0.16
  -6   0   6    2.13    0.22
   6   1  -6    0.16    0.06
  -6  -1   6    0.20    0.08
  -6  -1   6    0.20    0.05
   6   2  -6    0.15    0.06
  -6  -2   6    0.14    0.08
  -6  -2   6    0.03    0.04
  -6  -3   6    0.60    0.12
  -6  -3   6    0.49    0.09
   6   4  -6    0.32    0.08
  -6  -4   6    0.58    0.11
  -6  -4   6    0.40    0.10
  -6  -5   6    0.12    0.07
  -6  -5   6   -0.01    0.05
  -5   5   6    0.41    0.11
  -5   4   6    0.16    0.09
  -5   3   6    1.45    0.16
  -5   3   6    1.38    0.16
  -5   2   6    0.28    0.07
  -5   2   6    0.30    0.08
   5  -1  -6    2.44    0.17
  -5   1   6    2.33    0.17
   5   0  -6    1.49    0.12
  -5   0   6    1.60    0.17
   5   1  -6    2.27    0.15
  -5  -1   6    2.41    0.18
  -5  -1   6    2.29    0.13
   5   2  -6    0.31    0.07
  -5  -2   6    0.21    0.08
  -5  -2   6    0.24    0.06
   5   3  -6    2.19    0.16
  -5  -3   6    1.89    0.16
  -5  -3   6    1.76    0.16
   5   4  -6    0.04    0.03
  -5  -4   6    0.17    0.07
  -5  -4   6    0.32    0.08
   5   5  -6    0.52    0.11
  -5  -5   6    0.48    0.10
  -5  -5   6    0.56    0.11
  -4   6   6    0.29    0.10
  -4   5   6    0.11    0.07
   4  -4  -6    2.58    0.13
  -4   4   6    2.57    0.21
   4  -3  -6    0.36    0.05
  -4   3   6    0.42    0.09
   4  -2  -6    0.58    0.04
  -4   2   6    0.59    0.09
  -4   2   6    0.40    0.08
   4  -1  -6    1.68    0.14
  -4   1   6    1.54    0.13
   4   0  -6    0.94    0.10
  -4   0   6    1.08    0.12
   4   1  -6    1.58    0.12
  -4  -1   6    1.23    0.13
   4   2  -6    0.67    0.09
  -4  -2   6    0.60    0.09
  -4  -2   6    0.48    0.07
   4   3  -6    0.46    0.08
  -4  -3   6    0.26    0.07
  -4  -3   6    0.22    0.06
   4   4  -6    2.41    0.18
  -4  -4   6    2.69    0.19
  -4  -4   6    2.58    0.17
   4   5  -6    0.15    0.08
  -4  -5   6    0.19    0.07
   4   6  -6    0.22    0.09
  -4  -6   6    0.37    0.10
   3  -6  -6    0.74    0.11
  -3   6   6    0.55    0.13
   3  -5  -6    0.09    0.05
  -3   5   6    0.20    0.08
   3  -4  -6    8.37    0.32
  -3   4   6    8.34    0.40
  -3   3   6    0.67    0.10
  -3   2   6    5.51    0.26
   3  -1  -6    9.58    0.40
  -3   1   6    9.76    0.39
   3   0  -6   17.50    0.62
  -3   0   6   15.92    0.61
   3   1  -6    9.26    0.37
  -3  -1   6    9.19    0.33
  -3  -1   6    9.30    0.37
   3   2  -6    5.67    0.26
  -3  -2   6    5.57    0.24
  -3  -2   6    5.54    0.25
   3   3  -6    0.99    0.12
  -3  -3   6    0.87    0.10
  -3  -3   6    0.94    0.11
   3   4  -6    7.66    0.38
  -3  -4   6    8.37    0.33
  -3  -4   6    8.24    0.37
   3   5  -6    0.10    0.07
  -3  -5   6    0.10    0.06
   3   6  -6    0.68    0.14
  -3  -6   6    0.66    0.13
   2  -6  -6    1.91    0.19
  -2   6   6    1.63    0.20
   2  -5  -6    1.35    0.14
  -2   5   6    1.27    0.16
  -2   4   6    5.96    0.30
  -2   3   6    1.69    0.14
  -2   2   6    0.29    0.06
   2  -1  -6    0.69    0.09
   2   0  -6    1.51    0.10
  -2   0   6    1.51    0.10
   2   1  -6    0.68    0.08
  -2  -1   6    0.85    0.07
  -2  -1   6    0.66    0.07
   2   2  -6    0.35    0.07
  -2  -2   6    0.29    0.05
  -2  -2   6    0.28    0.05
   2   3  -6    1.54    0.13
  -2  -3   6    1.57    0.14
  -2  -3   6    1.65    0.10
   2   4  -6    5.89    0.31
  -2  -4   6    5.47    0.28
  -2  -4   6    6.36    0.24
   2   5  -6    1.59    0.19
  -2  -5   6    1.31    0.15
   2   6  -6    2.71    0.28
  -2  -6   6    1.37    0.17
   1  -6  -6    0.68    0.12
   1  -6  -6    0.72    0.11
  -1   6   6    0.74    0.13
   1  -5  -6    5.57    0.28
  -1   5   6    5.39    0.29
  -1   4   6    0.71    0.10
  -1   3   6    3.27    0.18
   1  -2  -6    3.00    0.16
  -1   2   6    2.96    0.16
   1  -1  -6   15.48    0.56
   1   0  -6   22.92    0.79
   1   1  -6   16.02    0.59
  -1  -1   6   16.30    0.52
   1   2  -6    3.10    0.17
  -1  -2   6    3.00    0.15
   1   3  -6    2.94    0.19
  -1  -3   6    3.32    0.18
   1   4  -6    0.74    0.12
  -1  -4   6    0.58    0.09
   1   5  -6    5.07    0.31
  -1  -5   6    5.19    0.28
   1   6  -6    0.69    0.15
  -1  -6   6    0.73    0.12
   0  -6  -6    0.30    0.08
   0  -6  -6    0.41    0.11
   0   6   6    0.30    0.08
   0  -5  -6    0.73    0.11
   0   5   6    0.76    0.12
   0  -4  -6    0.77    0.10
   0   4   6    0.83    0.10
   0   3   6    5.34    0.24
   0  -2  -6   52.40    1.74
   0  -1  -6   15.45    0.54
   0   0  -6   14.97    0.53
   0   1  -6   15.53    0.56
   0   2  -6   52.78    1.80
   0  -2   6   54.09    1.60
   0   3  -6    5.64    0.19
   0   3  -6    5.12    0.27
   0  -3   6    5.32    0.24
   0   4  -6    0.79    0.13
   0  -4   6    0.74    0.10
   0   5  -6    0.48    0.12
   0  -5   6    0.63    0.11
   0   6  -6    0.51    0.14
   0  -6   6    0.39    0.10
  -1  -6  -6    0.69    0.13
  -1  -6  -6    0.46    0.10
   1   6   6    0.72    0.11
  -1  -5  -6    1.54    0.17
   1   5   6    1.57    0.13
  -1  -4  -6    1.98    0.15
   1   4   6    1.86    0.12
  -1  -3  -6    7.17    0.32
  -1  -3  -6    7.19    0.29
  -1  -2  -6   17.34    0.63
  -1  -2  -6   17.29    0.60
  -1  -1  -6    2.41    0.14
  -1  -1  -6    2.49    0.12
  -1   0  -6    0.48    0.06
  -1   0  -6    0.69    0.06
  -1   1  -6    2.41    0.14
  -1   1  -6    2.52    0.13
  -1   2  -6   17.91    0.60
  -1   2  -6   17.63    0.67
   1  -2   6   17.82    0.58
  -1   3  -6    7.02    0.24
  -1   3  -6    6.98    0.34
  -1   3  -6    7.47    0.25
   1  -3   6    7.30    0.29
  -1   4  -6    2.02    0.17
   1  -4   6    1.99    0.14
  -1   5  -6    1.62    0.20
   1  -5   6    1.53    0.16
  -1   6  -6    0.81    0.18
   1  -6   6    0.61    0.11
  -2  -6  -6    0.30    0.09
  -2  -6  -6    0.29    0.09
  -2  -5  -6    0.03    0.06
   2   5   6    0.08    0.04
  -2  -4  -6    9.22    0.40
  -2  -4  -6    8.15    0.33
  -2  -3  -6    9.52    0.40
  -2  -3  -6    8.99    0.33
  -2  -2  -6   41.16    1.40
  -2  -2  -6   40.81    1.35
  -2  -1  -6   19.80    0.71
  -2  -1  -6   19.63    0.67
  -2   0  -6    2.33    0.14
  -2   0  -6    2.36    0.13
  -2   1  -6   18.99    0.70
  -2   1  -6   19.61    0.68
  -2   2  -6   39.18    1.35
  -2   2  -6   38.53    1.28
  -2   3  -6    9.25    0.34
  -2   3  -6    9.34    0.43
   2  -3   6    9.95    0.36
  -2   4  -6    9.34    0.46
   2  -4   6    9.50    0.37
  -2   5  -6   -0.01    0.06
   2  -5   6    0.17    0.06
  -2   6  -6    0.41    0.13
   2  -6   6    0.44    0.09
  -3  -6  -6    0.31    0.10
  -3  -6  -6    0.24    0.09
  -3  -5  -6    0.54    0.11
  -3  -4  -6    4.01    0.24
  -3  -4  -6    3.44    0.15
  -3  -3  -6    3.77    0.23
  -3  -2  -6    3.59    0.22
  -3  -2  -6    3.60    0.14
  -3  -1  -6    5.51    0.22
  -3  -1  -6    5.25    0.27
  -3   0  -6   11.64    0.44
  -3   0  -6   11.65    0.47
  -3   1  -6    5.19    0.25
  -3   1  -6    5.21    0.25
  -3   2  -6    3.26    0.20
  -3   2  -6    2.59    0.16
  -3   3  -6    3.53    0.18
  -3   3  -6    3.38    0.23
  -3   4  -6    3.92    0.27
  -3   5  -6    0.87    0.18
   3  -5   6    0.87    0.11
  -3   6  -6    0.43    0.14
   3  -6   6    0.27    0.08
  -4  -6  -6    0.46    0.12
  -4  -6  -6    0.50    0.13
  -4  -5  -6    0.65    0.14
  -4  -4  -6    3.27    0.24
  -4  -3  -6    6.11    0.33
  -4  -2  -6    2.24    0.18
  -4  -1  -6    4.72    0.20
  -4  -1  -6    5.00    0.27
  -4   0  -6   28.82    1.01
  -4   0  -6   26.93    0.96
  -4   1  -6    5.12    0.26
  -4   1  -6    4.75    0.25
  -4   2  -6    2.42    0.16
  -4   2  -6    1.86    0.16
  -4   3  -6    6.66    0.36
  -4   3  -6    6.60    0.30
  -4   4  -6    3.66    0.19
  -4   4  -6    3.99    0.29
  -4   5  -6    0.65    0.16
  -4   6  -6    0.53    0.15
  -5  -5  -6    0.83    0.16
  -5  -4  -6    0.50    0.13
  -5  -3  -6    1.74    0.21
  -5  -2  -6    0.86    0.15
  -5  -1  -6    3.39    0.23
  -5  -1  -6    3.49    0.16
  -5   0  -6    5.73    0.26
  -5   0  -6    5.18    0.30
  -5   1  -6    3.41    0.23
  -5   1  -6    3.60    0.22
  -5   2  -6    1.00    0.14
  -5   2  -6    1.02    0.15
  -5   3  -6    1.76    0.18
  -5   3  -6    1.70    0.20
  -5   4  -6    0.44    0.09
  -5   4  -6    0.29    0.10
  -5   5  -6    0.98    0.18
  -6  -5  -6    0.33    0.12
  -6  -4  -6    0.34    0.11
  -6  -3  -6    0.42    0.12
  -6  -2  -6    1.07    0.17
  -6  -1  -6    2.17    0.24
  -6  -1  -6    2.19    0.12
  -6   0  -6    0.05    0.04
  -6   0  -6   -0.02    0.05
  -6   1  -6    2.31    0.23
  -6   1  -6    2.03    0.17
  -6   2  -6    0.83    0.14
  -6   2  -6    0.86    0.14
  -6   3  -6    0.40    0.10
  -6   3  -6    0.45    0.12
  -6   4  -6    0.25    0.11
  -6   5  -6    0.11    0.09
  -7  -4  -6    0.19    0.11
  -7  -3  -6    0.16    0.09
  -7  -2  -6    1.12    0.19
  -7  -1  -6    0.85    0.17
  -7   0  -6    0.37    0.12
  -7   0  -6    0.30    0.07
  -7   1  -6    1.24    0.19
  -7   1  -6    0.64    0.11
  -7   2  -6    1.10    0.16
  -7   2  -6    0.89    0.16
  -7   3  -6    0.17    0.09
  -7   3  -6    0.35    0.11
  -7   4  -6    0.09    0.08
  -8  -3  -6    0.05    0.09
  -8  -2  -6    0.21    0.11
  -8  -1  -6    0.29    0.12
  -8   0  -6    0.15    0.09
  -8   1  -6    0.13    0.10
  -8   1  -6    0.17    0.07
  -8   2  -6    0.16    0.09
  -8   2  -6    0.14    0.08
   8  -2  -7    0.89    0.16
  -8   2   7    0.53    0.13
   8  -1  -7    0.07    0.08
  -8   1   7    0.10    0.07
   8   0  -7    0.00    0.06
  -8   0   7    0.04    0.06
   8   1  -7   -0.02    0.06
  -8  -1   7    0.09    0.08
   8   2  -7    0.45    0.10
  -8  -2   7    0.44    0.13
  -7   3   7    0.19    0.08
  -7   3   7    0.17    0.09
   7  -2  -7    0.83    0.15
  -7   2   7    0.64    0.13
   7  -1  -7    0.65    0.12
  -7   1   7    0.32    0.09
   7   0  -7    0.04    0.05
  -7   0   7   -0.03    0.04
   7   1  -7    0.41    0.09
  -7  -1   7    0.42    0.11
   7   2  -7    0.59    0.11
  -7  -2   7    0.75    0.10
  -7  -2   7    0.90    0.15
   7   3  -7    0.01    0.04
  -7  -3   7    0.13    0.06
  -7  -3   7    0.04    0.06
  -7  -4   7    0.05    0.07
  -6   4   7    0.12    0.08
  -6   3   7    0.90    0.14
  -6   3   7    0.87    0.14
   6  -2  -7    0.48    0.11
  -6   2   7    0.70    0.13
   6  -1  -7    0.25    0.08
  -6   1   7    0.23    0.07
   6   0  -7    0.25    0.08
  -6   0   7    0.18    0.07
   6   1  -7    0.30    0.08
  -6  -1   7    0.22    0.08
  -6  -1   7    0.26    0.05
   6   2  -7    0.56    0.10
  -6  -2   7    0.54    0.09
  -6  -2   7    0.56    0.11
   6   3  -7    0.89    0.12
  -6  -3   7    0.68    0.10
  -6  -3   7    0.80    0.13
   6   4  -7    0.04    0.05
  -6  -4   7    0.08    0.06
  -6  -4   7    0.04    0.06
  -5   5   7    0.16    0.08
  -5   4   7    0.34    0.10
  -5   3   7    1.44    0.17
   5  -2  -7    0.06    0.06
  -5   2   7    0.10    0.05
   5  -1  -7    0.25    0.08
  -5   1   7    0.28    0.07
   5   0  -7    1.16    0.13
  -5   0   7    1.20    0.15
   5   1  -7    0.27    0.07
  -5  -1   7    0.25    0.07
  -5  -1   7    0.27    0.05
   5   2  -7    0.21    0.07
  -5  -2   7    0.23    0.06
  -5  -2   7    0.14    0.06
   5   3  -7    1.81    0.16
  -5  -3   7    1.98    0.15
  -5  -3   7    1.66    0.17
   5   4  -7    0.37    0.09
  -5  -4   7    0.40    0.09
  -5  -4   7    0.41    0.09
   5   5  -7    0.09    0.06
  -5  -5   7    0.21    0.08
  -4   5   7    0.82    0.14
   4  -4  -7    0.48    0.07
  -4   4   7    0.55    0.12
  -4   3   7    2.14    0.17
   4  -2  -7    0.20    0.07
  -4   2   7    0.05    0.04
   4  -1  -7    1.33    0.14
  -4   1   7    1.46    0.15
   4   0  -7    2.08    0.15
  -4   0   7    2.20    0.16
   4   1  -7    1.48    0.13
  -4  -1   7    1.48    0.10
  -4  -1   7    1.52    0.13
   4   2  -7   -0.03    0.03
  -4  -2   7    0.05    0.04
  -4  -2   7    0.05    0.03
   4   3  -7    2.67    0.18
  -4  -3   7    2.68    0.17
  -4  -3   7    2.60    0.17
   4   4  -7    0.31    0.09
  -4  -4   7    0.35    0.07
  -4  -4   7    0.29    0.08
   4   5  -7    0.65    0.12
  -4  -5   7    0.47    0.11
   3  -6  -7    0.04    0.06
  -3   6   7    0.01    0.06
   3  -5  -7    0.38    0.08
  -3   5   7    0.31    0.09
  -3   4   7    1.49    0.18
  -3   3   7    1.51    0.16
   3  -2  -7    0.77    0.11
   3  -1  -7    6.85    0.31
  -3   1   7    6.44    0.30
   3   0  -7   12.65    0.50
  -3   0   7   13.12    0.50
   3   1  -7    6.03    0.28
  -3  -1   7    6.25    0.28
  -3  -1   7    6.11    0.24
   3   2  -7    0.65    0.10
  -3  -2   7    0.75    0.09
  -3  -2   7    0.63    0.08
   3   3  -7    1.51    0.15
  -3  -3   7    1.04    0.12
  -3  -3   7    1.31    0.11
   3   4  -7    1.66    0.18
  -3  -4   7    1.31    0.14
  -3  -4   7    1.30    0.11
   3   5  -7    0.29    0.10
  -3  -5   7    0.17    0.07
   3   6  -7    0.06    0.08
  -3  -6   7    0.02    0.06
   2  -6  -7    1.07    0.15
  -2   6   7    0.86    0.15
   2  -5  -7    0.62    0.10
  -2   5   7    0.63    0.11
  -2   4   7    1.39    0.15
  -2   3   7   16.07    0.61
   2  -2  -7    0.54    0.09
   2  -1  -7    7.39    0.31
   2   0  -7   43.85    1.48
   2   1  -7    7.53    0.32
  -2  -1   7    8.06    0.31
  -2  -1   7    7.34    0.28
   2   2  -7    0.54    0.09
  -2  -2   7    0.36    0.06
  -2  -2   7    0.40    0.06
   2   3  -7   17.57    0.67
  -2  -3   7   16.33    0.60
  -2  -3   7   17.31    0.60
   2   4  -7    1.77    0.18
  -2  -4   7    1.44    0.15
   2   5  -7    0.55    0.12
  -2  -5   7    0.44    0.10
   2   6  -7    1.36    0.20
  -2  -6   7    0.80    0.13
   1  -6  -7    0.71    0.12
   1  -6  -7    0.99    0.14
  -1   6   7    0.76    0.13
  -1   5   7    0.56    0.11
  -1   4   7    2.00    0.15
  -1   3   7    2.64    0.16
   1  -2  -7   28.07    0.98
   1  -1  -7    2.08    0.13
   1   0  -7   19.25    0.69
   1   1  -7    1.85    0.12
   1   2  -7   27.28    0.97
  -1  -2   7   27.23    0.86
   1   3  -7    2.52    0.18
  -1  -3   7    2.48    0.15
   1   4  -7    2.41    0.23
  -1  -4   7    2.25    0.16
   1   5  -7    0.63    0.14
  -1  -5   7    0.51    0.10
   1   6  -7    0.84    0.16
  -1  -6   7    0.74    0.13
   0  -6  -7    0.01    0.05
   0  -6  -7    0.08    0.06
   0   6   7   -0.04    0.05
   0  -5  -7    8.59    0.40
   0   5   7    8.96    0.39
   0   4   7    3.04    0.18
   0  -3  -7    2.68    0.15
   0  -2  -7    6.74    0.28
   0  -1  -7   42.49    1.42
   0   0  -7   20.25    0.71
   0   1  -7   42.36    1.43
   0   2  -7    7.13    0.33
   0  -2   7    7.23    0.28
   0   3  -7    2.65    0.12
   0   3  -7    2.81    0.19
   0  -3   7    2.66    0.16
   0   4  -7    3.06    0.22
   0  -4   7    3.15    0.19
   0   5  -7    8.28    0.43
   0  -5   7    7.58    0.36
   0   6  -7    0.04    0.07
   0  -6   7    0.07    0.06
  -1  -6  -7    0.27    0.08
  -1  -6  -7    0.20    0.08
  -1  -5  -7    0.83    0.13
   1   5   7    0.98    0.11
  -1  -4  -7    0.68    0.08
  -1  -4  -7    0.84    0.12
  -1  -3  -7   11.46    0.43
  -1  -3  -7   11.51    0.47
  -1  -2  -7    0.46    0.08
  -1  -2  -7    0.54    0.06
  -1  -1  -7   34.78    1.17
  -1  -1  -7   35.03    1.18
  -1   0  -7    3.81    0.18
  -1   0  -7    3.66    0.18
  -1   1  -7   36.36    1.25
  -1   1  -7   36.59    1.21
  -1   2  -7    0.68    0.07
  -1   2  -7    0.75    0.11
  -1   3  -7   11.67    0.50
  -1   3  -7   12.03    0.41
  -1   3  -7   11.43    0.39
   1  -3   7   11.12    0.42
  -1   4  -7    0.77    0.14
   1  -4   7    0.73    0.10
  -1   5  -7    1.44    0.21
   1  -5   7    0.89    0.12
  -1   6  -7    0.44    0.14
   1  -6   7    0.27    0.08
  -2  -6  -7    0.59    0.12
  -2  -6  -7    0.36    0.10
  -2  -5  -7    1.50    0.11
  -2  -5  -7    1.25    0.16
  -2  -4  -7    0.76    0.12
  -2  -4  -7    0.93    0.08
  -2  -3  -7    0.97    0.13
  -2  -3  -7    1.21    0.08
  -2  -2  -7   12.76    0.51
  -2  -2  -7   12.69    0.45
  -2  -1  -7   33.14    1.11
  -2  -1  -7   32.75    1.14
  -2   0  -7   15.25    0.57
  -2   0  -7   15.49    0.56
  -2   1  -7   32.61    1.09
  -2   1  -7   31.64    1.12
  -2   2  -7   12.30    0.52
  -2   2  -7   13.09    0.47
  -2   3  -7    1.35    0.17
  -2   3  -7    1.12    0.08
  -2   4  -7    1.18    0.17
  -2   5  -7    1.73    0.22
   2  -5   7    1.61    0.16
  -2   6  -7    0.57    0.14
   2  -6   7    0.45    0.10
  -3  -6  -7    0.14    0.08
  -3  -6  -7    0.20    0.09
  -3  -5  -7    0.41    0.11
  -3  -4  -7    1.09    0.16
  -3  -3  -7    0.54    0.11
  -3  -3  -7    0.62    0.05
  -3  -2  -7    6.26    0.32
  -3  -2  -7    6.40    0.25
  -3  -1  -7    2.54    0.17
  -3  -1  -7    2.65    0.13
  -3   0  -7    1.96    0.12
  -3   0  -7    2.09    0.15
  -3   1  -7    2.49    0.16
  -3   1  -7    2.49    0.16
  -3   3  -7    0.63    0.12
  -3   3  -7    0.70    0.09
  -3   4  -7    0.65    0.13
  -3   5  -7    0.62    0.14
   3  -5   7    0.46    0.09
  -3   6  -7    0.27    0.12
   3  -6   7    0.34    0.08
  -4  -5  -7    0.38    0.11
  -4  -4  -7    0.02    0.05
  -4  -3  -7    5.28    0.31
  -4  -2  -7    1.82    0.20
  -4  -1  -7    6.10    0.25
  -4  -1  -7    6.25    0.32
  -4   0  -7    7.55    0.32
  -4   0  -7    7.48    0.36
  -4   1  -7    6.46    0.31
  -4   1  -7    6.24    0.31
  -4   2  -7    1.66    0.16
  -4   2  -7    1.40    0.16
  -4   3  -7    5.67    0.33
  -4   3  -7    5.69    0.28
  -4   4  -7    0.05    0.06
  -4   5  -7    0.42    0.13
  -5  -5  -7    0.04    0.06
  -5  -4  -7    0.00    0.05
  -5  -3  -7    2.46    0.26
  -5  -2  -7    0.37    0.10
  -5  -1  -7    0.18    0.07
  -5  -1  -7    0.27    0.05
  -5   0  -7    0.07    0.04
  -5   0  -7    0.14    0.07
  -5   1  -7    0.28    0.07
  -5   1  -7    0.27    0.08
  -5   2  -7    0.34    0.09
  -5   2  -7    0.44    0.11
  -5   3  -7    2.69    0.19
  -5   3  -7    2.15    0.23
  -5   4  -7    0.11    0.08
  -5   5  -7    0.02    0.07
  -6  -4  -7   -0.01    0.07
  -6  -3  -7    0.13    0.08
  -6  -2  -7    2.07    0.24
  -6  -1  -7    0.32    0.05
  -6  -1  -7    0.27    0.10
  -6   0  -7    1.15    0.17
  -6   0  -7    1.04    0.12
  -6   1  -7    0.36    0.09
  -6   1  -7    0.19    0.08
  -6   2  -7    1.85    0.21
  -6   2  -7    2.21    0.23
  -6   3  -7    0.14    0.07
  -6   3  -7    0.03    0.07
  -6   4  -7    0.03    0.07
  -7  -4  -7    0.12    0.09
  -7  -3  -7    0.00    0.07
  -7  -2  -7    0.60    0.15
  -7  -1  -7    0.07    0.07
  -7   0  -7   -0.04    0.06
  -7   0  -7    0.02    0.04
  -7   1  -7    0.06    0.07
  -7   1  -7    0.17    0.07
  -7   2  -7    0.46    0.13
  -7   2  -7    0.53    0.12
  -7   3  -7    0.03    0.06
  -7   3  -7   -0.02    0.06
  -8  -2  -7    0.02    0.07
  -8  -1  -7    0.31    0.12
  -8   0  -7    0.00    0.07
  -8   1  -7    0.18    0.08
  -8   1  -7    0.28    0.12
  -8   2  -7    0.08    0.07
  -8   2  -7    0.06    0.08
   8  -2  -8    0.02    0.08
  -8   2   8    0.07    0.07
   8  -1  -8    0.13    0.07
  -8   1   8    0.20    0.09
   8   0  -8    0.13    0.07
  -8   0   8    0.04    0.07
   8   1  -8    0.15    0.08
  -8  -1   8    0.14    0.08
   8   2  -8    0.08    0.07
  -8  -2   8   -0.03    0.07
   7  -3  -8    0.41    0.12
  -7   3   8    0.44    0.11
   7  -2  -8    0.22    0.09
  -7   2   8    0.27    0.09
   7  -1  -8    0.77    0.13
  -7   1   8    0.46    0.11
   7   0  -8    0.10    0.06
  -7   0   8    0.03    0.06
   7   1  -8    0.74    0.12
  -7  -1   8    0.74    0.15
   7   2  -8    0.24    0.08
  -7  -2   8    0.19    0.09
  -7  -2   8    0.27    0.07
   7   3  -8    0.28    0.09
  -7  -3   8    0.48    0.12
  -7  -3   8    0.39    0.09
  -6   4   8    0.66    0.13
   6  -3  -8    0.05    0.08
   6  -2  -8    1.18    0.16
  -6   2   8    1.28    0.17
   6  -1  -8    1.03    0.15
  -6   1   8    0.71    0.12
   6   0  -8    0.21    0.07
  -6   0   8    0.24    0.08
   6   1  -8    1.00    0.13
  -6  -1   8    0.97    0.09
  -6  -1   8    0.83    0.13
   6   2  -8    1.37    0.15
  -6  -2   8    1.24    0.16
  -6  -2   8    1.39    0.13
   6   3  -8    0.07    0.06
  -6  -3   8    0.16    0.06
  -6  -3   8    0.13    0.07
   6   4  -8    0.79    0.13
  -6  -4   8    0.92    0.13
  -6  -4   8    0.99    0.14
  -5   5   8    0.15    0.08
  -5   4   8    0.98    0.15
  -5   3   8    2.64    0.21
   5  -2  -8    1.98    0.17
  -5   2   8    1.52    0.17
   5  -1  -8    0.69    0.12
  -5   1   8    0.74    0.11
   5   0  -8    7.58    0.35
  -5   0   8    7.13    0.36
   5   1  -8    0.93    0.13
  -5  -1   8    0.74    0.08
  -5  -1   8    0.75    0.12
   5   2  -8    1.44    0.16
  -5  -2   8    1.75    0.13
  -5  -2   8    1.47    0.16
   5   3  -8    2.53    0.19
  -5  -3   8    2.72    0.18
  -5  -3   8    2.93    0.20
   5   4  -8    0.96    0.15
  -5  -4   8    1.00    0.14
  -5  -4   8    1.17    0.14
   5   5  -8    0.08    0.07
  -5  -5   8    0.09    0.07
  -4   5   8    0.08    0.07
  -4   4   8    2.51    0.20
  -4   3   8    0.53    0.10
   4  -2  -8    1.84    0.18
   4  -1  -8    4.63    0.25
  -4   1   8    4.55    0.25
   4   0  -8    1.97    0.15
  -4   0   8    1.75    0.14
   4   1  -8    4.84    0.25
  -4  -1   8    4.53    0.25
  -4  -1   8    4.54    0.20
   4   2  -8    1.75    0.17
  -4  -2   8    1.52    0.12
  -4  -2   8    1.60    0.13
   4   3  -8    0.79    0.12
  -4  -3   8    0.58    0.10
  -4  -3   8    0.65    0.10
   4   4  -8    2.24    0.19
  -4  -4   8    2.48    0.16
  -4  -4   8    2.37    0.18
   4   5  -8    0.22    0.09
  -4  -5   8    0.02    0.05
  -3   6   8    0.07    0.08
   3  -5  -8    1.88    0.17
  -3   5   8    2.22    0.22
  -3   4   8    1.59    0.18
  -3   3   8    0.04    0.04
   3  -2  -8    3.11    0.20
   3  -1  -8    9.63    0.40
   3   0  -8    4.70    0.24
  -3   0   8    4.42    0.23
   3   1  -8   10.07    0.43
  -3  -1   8   10.30    0.41
   3   2  -8    2.93    0.19
  -3  -2   8    2.79    0.16
  -3  -2   8    3.03    0.17
   3   3  -8    0.06    0.05
  -3  -3   8    0.05    0.04
  -3  -3   8    0.08    0.05
   3   4  -8    1.76    0.19
  -3  -4   8    1.52    0.16
  -3  -4   8    1.81    0.12
   3   5  -8    2.41    0.25
  -3  -5   8    1.92    0.20
   3   6  -8    0.16    0.09
  -3  -6   8    0.31    0.10
   2  -6  -8    0.65    0.12
  -2   6   8    0.39    0.10
  -2   5   8    0.20    0.08
  -2   4   8    0.33    0.08
   2  -3  -8    0.30    0.08
   2  -2  -8   17.10    0.65
   2  -1  -8    9.81    0.40
   2   0  -8    0.21    0.06
   2   1  -8    9.83    0.40
   2   2  -8   17.25    0.66
  -2  -2   8   17.21    0.58
   2   3  -8    0.26    0.08
  -2  -3   8    0.42    0.08
   2   4  -8    0.50    0.11
  -2  -4   8    0.30    0.07
   2   5  -8    0.25    0.10
  -2  -5   8    0.13    0.07
   2   6  -8    0.35    0.12
  -2  -6   8    0.36    0.09
   1  -6  -8    0.03    0.05
   1  -6  -8    0.05    0.06
  -1   6   8   -0.03    0.05
  -1   5   8    1.28    0.15
  -1   4   8    2.37    0.17
   1  -3  -8    3.17    0.19
   1  -2  -8    0.14    0.05
   1  -1  -8    4.97    0.23
   1   0  -8    7.15    0.31
   1   1  -8    5.95    0.28
   1   2  -8    0.17    0.05
  -1  -2   8    0.14    0.04
   1   3  -8    2.97    0.20
  -1  -3   8    3.07    0.18
   1   4  -8    2.43    0.20
  -1  -4   8    2.61    0.18
   1   5  -8    1.36    0.19
  -1  -5   8    1.50    0.17
   1   6  -8   -0.04    0.06
  -1  -6   8    0.00    0.06
   0  -6  -8    0.01    0.05
   0  -6  -8    0.00    0.05
   0   6   8    0.02    0.05
   0  -5  -8    0.06    0.06
   0   5   8    0.04    0.05
   0  -4  -8    5.35    0.27
   0  -3  -8   14.29    0.54
   0  -2  -8   15.29    0.57
   0  -1  -8    5.23    0.24
   0   0  -8    7.94    0.33
   0   1  -8    5.08    0.24
   0   2  -8   15.61    0.61
   0   3  -8   13.46    0.46
   0   3  -8   13.35    0.56
   0  -3   8   13.02    0.48
   0   4  -8    5.50    0.32
   0  -4   8    5.56    0.27
   0   5  -8    0.22    0.10
   0  -5   8    0.19    0.07
   0   6  -8   -0.05    0.06
   0  -6   8    0.03    0.05
  -1  -6  -8    0.47    0.11
  -1  -6  -8    0.38    0.10
  -1  -5  -8    0.12    0.06
  -1  -5  -8    0.06    0.06
  -1  -4  -8    5.59    0.29
  -1  -4  -8    5.53    0.26
  -1  -3  -8    1.33    0.10
  -1  -3  -8    1.79    0.17
  -1  -2  -8    0.39    0.06
  -1  -2  -8    0.39    0.08
  -1  -1  -8    2.58    0.14
  -1  -1  -8    2.64    0.17
  -1   0  -8   10.89    0.42
  -1   0  -8   10.54    0.42
  -1   1  -8    2.61    0.15
  -1   1  -8    2.82    0.17
  -1   2  -8    0.29    0.07
  -1   2  -8    0.38    0.06
  -1   3  -8    1.43    0.16
  -1   3  -8    1.25    0.08
   1  -3   8    1.20    0.11
  -1   4  -8    5.77    0.33
   1  -4   8    5.86    0.28
  -1   5  -8    0.02    0.07
   1  -5   8    0.10    0.06
  -1   6  -8    0.63    0.15
   1  -6   8    0.34    0.09
  -2  -6  -8    0.38    0.10
  -2  -5  -8    0.99    0.15
  -2  -4  -8    4.26    0.20
  -2  -4  -8    4.16    0.26
  -2  -3  -8    1.44    0.16
  -2  -3  -8    1.52    0.10
  -2  -2  -8   10.58    0.39
  -2  -2  -8   10.01    0.44
  -2  -1  -8    4.78    0.25
  -2  -1  -8    4.81    0.21
  -2   0  -8    2.23    0.15
  -2   0  -8    2.30    0.14
  -2   1  -8    4.62    0.23
  -2   1  -8    4.95    0.24
  -2   2  -8   10.58    0.41
  -2   2  -8   10.28    0.45
  -2   3  -8    1.58    0.10
  -2   3  -8    1.82    0.20
  -2   4  -8    4.98    0.31
   2  -4   8    4.54    0.24
  -2   5  -8    1.41    0.21
   2  -5   8    1.06    0.13
  -2   6  -8    0.26    0.11
   2  -6   8    0.37    0.09
  -3  -6  -8    0.02    0.06
  -3  -5  -8    2.19    0.23
  -3  -4  -8    2.88    0.22
  -3  -3  -8    0.29    0.09
  -3  -3  -8    0.34    0.05
  -3  -2  -8    0.75    0.06
  -3  -2  -8    0.68    0.12
  -3  -1  -8    2.93    0.20
  -3  -1  -8    3.02    0.16
  -3   0  -8    2.04    0.14
  -3   0  -8    2.39    0.16
  -3   1  -8    2.72    0.18
  -3   1  -8    2.91    0.18
  -3   2  -8    1.10    0.15
  -3   3  -8    0.45    0.07
  -3   3  -8    0.35    0.10
  -3   4  -8    3.08    0.25
  -3   5  -8    2.49    0.28
  -3   6  -8    0.02    0.08
  -4  -5  -8    0.11    0.08
  -4  -4  -8    0.24    0.09
  -4  -3  -8    0.47    0.11
  -4  -2  -8    0.78    0.13
  -4  -2  -8    0.68    0.05
  -4  -1  -8    4.74    0.27
  -4  -1  -8    4.32    0.20
  -4   0  -8    0.06    0.05
  -4   0  -8    0.12    0.05
  -4   1  -8    4.25    0.24
  -4   1  -8    4.43    0.25
  -4   2  -8    0.87    0.12
  -4   2  -8    0.93    0.14
  -4   3  -8    0.57    0.09
  -4   3  -8    0.42    0.11
  -4   4  -8    0.19    0.09
  -4   5  -8    0.21    0.11
  -5  -5  -8    0.12    0.09
  -5  -4  -8    0.18    0.09
  -5  -3  -8    0.74    0.15
  -5  -2  -8    0.51    0.12
  -5  -1  -8    0.87    0.14
  -5  -1  -8    0.90    0.09
  -5   0  -8    0.13    0.06
  -5   0  -8    0.14    0.07
  -5   1  -8    1.18    0.15
  -5   1  -8    1.13    0.16
  -5   2  -8    0.52    0.11
  -5   2  -8    0.50    0.11
  -5   3  -8    1.07    0.15
  -5   3  -8    1.02    0.17
  -5   4  -8    0.33    0.11
  -5   5  -8    0.10    0.09
  -6  -4  -8   -0.07    0.05
  -6  -3  -8    0.01    0.06
  -6  -2  -8    0.13    0.08
  -6  -1  -8    0.03    0.06
  -6   0  -8    1.55    0.15
  -6   0  -8    1.86    0.22
  -6   1  -8    0.06    0.06
  -6   1  -8    0.02    0.06
  -6   2  -8    0.12    0.07
  -6   2  -8    0.08    0.06
  -6   3  -8    0.01    0.05
  -6   3  -8    0.07    0.07
  -6   4  -8   -0.07    0.06
  -7  -3  -8    0.10    0.09
  -7  -2  -8    0.55    0.15
  -7  -1  -8   -0.01    0.07
  -7   0  -8   -0.02    0.05
  -7   0  -8    0.05    0.06
  -7   1  -8    0.04    0.06
  -7   1  -8    0.01    0.06
  -7   2  -8    0.68    0.14
  -7   2  -8    0.69    0.15
  -7   3  -8    0.05    0.08
  -7   3  -8    0.09    0.07
  -8  -2  -8    0.03    0.08
  -8  -1  -8    0.14    0.10
  -8   0  -8    0.07    0.08
  -8   1  -8    0.17    0.10
  -8   1  -8    0.05    0.07
  -8   2  -8   -0.01    0.07
  -8   2  -8    0.11    0.08
   8  -1  -9    0.28    0.10
  -8   1   9    0.35    0.11
  -8   0   9    0.14    0.09
   8   1  -9    0.21    0.09
  -8  -1   9    0.11    0.08
   7  -3  -9    0.14    0.08
   7  -2  -9    0.34    0.10
  -7   2   9    0.49    0.12
   7  -1  -9    0.02    0.06
  -7   1   9   -0.05    0.05
   7   0  -9    0.10    0.07
  -7   0   9    0.00    0.06
   7   1  -9   -0.02    0.05
  -7  -1   9    0.06    0.06
   7   2  -9    0.20    0.08
  -7  -2   9    0.32    0.07
  -7  -2   9    0.34    0.11
   7   3  -9    0.16    0.08
  -7  -3   9    0.20    0.07
  -7  -3   9    0.27    0.10
   6  -4  -9    0.11    0.09
   6  -3  -9    0.42    0.12
   6  -2  -9    0.75    0.13
  -6   2   9    0.94    0.15
   6  -1  -9    0.75    0.12
  -6   1   9    0.52    0.11
   6   0  -9    0.20    0.07
  -6   0   9    0.31    0.09
   6   1  -9    0.70    0.12
  -6  -1   9    0.58    0.12
   6   2  -9    0.97    0.14
  -6  -2   9    0.90    0.15
  -6  -2   9    1.05    0.12
   6   3  -9    0.41    0.10
  -6  -3   9    0.19    0.08
  -6  -3   9    0.35    0.08
   6   4  -9   -0.01    0.06
  -6  -4   9    0.32    0.09
  -6  -4   9    0.24    0.08
  -5   5   9   -0.06    0.05
   5  -4  -9    0.11    0.08
  -5   4   9    0.16    0.08
   5  -3  -9    0.10    0.07
   5  -2  -9    0.02    0.06
   5  -1  -9    0.14    0.06
  -5   1   9    0.11    0.06
   5   0  -9    0.06    0.05
  -5   0   9    0.03    0.05
   5   1  -9    0.22    0.07
  -5  -1   9    0.07    0.06
   5   2  -9    0.13    0.06
  -5  -2   9    0.08    0.06
  -5  -2   9    0.08    0.04
   5   3  -9    0.09    0.06
  -5  -3   9    0.05    0.05
  -5  -3   9    0.02    0.05
   5   4  -9    0.25    0.09
  -5  -4   9    0.15    0.07
  -5  -4   9    0.23    0.08
   5   5  -9   -0.05    0.06
  -4   5   9    0.14    0.08
  -4   4   9    0.14    0.08
   4  -3  -9    4.52    0.28
   4  -2  -9    1.24    0.15
   4  -1  -9    2.29    0.17
   4   0  -9   12.36    0.51
  -4   0   9   12.08    0.50
   4   1  -9    2.13    0.17
  -4  -1   9    1.89    0.15
   4   2  -9    1.40    0.16
  -4  -2   9    1.80    0.14
  -4  -2   9    1.58    0.12
  -4  -3   9    4.71    0.25
  -4  -3   9    4.71    0.25
   4   4  -9    0.20    0.08
  -4  -4   9    0.15    0.06
  -4  -4   9    0.10    0.06
   4   5  -9    0.03    0.06
  -4  -5   9    0.01    0.04
   3  -5  -9    0.63    0.10
  -3   5   9    0.69    0.13
   3  -4  -9    0.04    0.06
  -3   4   9    0.08    0.06
   3  -3  -9    0.54    0.11
   3  -2  -9    2.01    0.16
   3  -1  -9    0.87    0.12
   3   0  -9    2.19    0.16
   3   1  -9    0.73    0.11
   3   2  -9    2.04    0.17
  -3  -2   9    2.12    0.14
  -3  -2   9    2.27    0.15
   3   3  -9    0.55    0.10
  -3  -3   9    0.57    0.09
  -3  -3   9    0.68    0.09
   3   4  -9    0.11    0.07
  -3  -4   9    0.01    0.05
   3   5  -9    0.78    0.15
  -3  -5   9    0.73    0.12
   2  -6  -9    0.18    0.07
  -2   6   9    0.07    0.07
  -2   5   9    1.65    0.18
   2  -4  -9    2.41    0.19
   2  -3  -9    1.91    0.16
   2  -2  -9    1.37    0.14
   2  -1  -9    9.50    0.40
   2   0  -9   16.77    0.64
   2   1  -9    9.53    0.40
   2   2  -9    1.47    0.15
  -2  -2   9    1.17    0.11
   2   3  -9    1.90    0.17
  -2  -3   9    1.83    0.16
   2   4  -9    2.63    0.25
  -2  -4   9    2.30    0.17
   2   5  -9    1.67    0.21
  -2  -5   9    1.37    0.16
   2   6  -9    0.12    0.09
  -2  -6   9    0.08    0.06
   1  -6  -9    0.30    0.09
   1  -6  -9    0.40    0.10
  -1   6   9    0.50    0.10
   1  -5  -9    0.34    0.09
  -1   5   9    0.33    0.09
   1  -4  -9    1.33    0.15
   1  -3  -9    6.23    0.30
   1  -2  -9    4.18    0.22
   1  -1  -9   14.41    0.55
   1   0  -9    0.07    0.04
   1   1  -9   13.70    0.54
   1   2  -9    3.87    0.22
   1   3  -9    5.85    0.31
  -1  -3   9    5.81    0.27
   1   4  -9    1.66    0.20
  -1  -4   9    1.20    0.14
   1   5  -9    0.31    0.11
  -1  -5   9    0.36    0.09
   1   6  -9    0.41    0.13
  -1  -6   9    0.33    0.10
   0  -6  -9    0.09    0.07
   0  -6  -9    0.29    0.08
   0  -5  -9    0.65    0.11
   0  -5  -9    0.57    0.11
   0  -4  -9    0.40    0.08
   0  -3  -9    0.49    0.08
   0  -2  -9    5.89    0.27
   0  -1  -9   11.24    0.44
   0   0  -9    4.08    0.21
   0   1  -9   11.32    0.46
   0   2  -9    6.24    0.31
   0   3  -9    0.49    0.10
   0   3  -9    0.40    0.05
   0  -3   9    0.40    0.07
   0   4  -9    0.47    0.12
   0  -4   9    0.26    0.07
   0   5  -9    0.46    0.13
   0  -5   9    0.41    0.09
   0   6  -9    0.12    0.09
   0  -6   9    0.23    0.08
  -1  -6  -9    0.22    0.08
  -1  -5  -9    1.61    0.19
  -1  -5  -9    1.78    0.14
  -1  -4  -9    1.63    0.12
  -1  -4  -9    1.66    0.18
  -1  -3  -9    0.30    0.06
  -1  -3  -9    0.38    0.09
  -1  -2  -9    2.72    0.15
  -1  -2  -9    2.56    0.17
  -1  -1  -9    2.87    0.16
  -1  -1  -9    2.79    0.17
  -1   0  -9    7.21    0.32
  -1   0  -9    7.55    0.32
  -1   1  -9    2.73    0.17
  -1   1  -9    2.93    0.16
  -1   2  -9    2.54    0.18
  -1   2  -9    2.54    0.14
  -1   3  -9    0.34    0.10
  -1   3  -9    0.31    0.05
  -1   4  -9    1.50    0.19
   1  -4   9    1.39    0.14
  -1   5  -9    1.67    0.22
   1  -5   9    1.64    0.17
  -1   6  -9    0.06    0.08
   1  -6   9    0.09    0.06
  -2  -6  -9    0.03    0.06
  -2  -5  -9    0.11    0.07
  -2  -4  -9    0.44    0.11
  -2  -4  -9    0.25    0.05
  -2  -3  -9    3.89    0.24
  -2  -3  -9    4.10    0.19
  -2  -2  -9    1.79    0.11
  -2  -2  -9    1.82    0.15
  -2  -1  -9   13.85    0.55
  -2  -1  -9   13.22    0.50
  -2   0  -9    4.79    0.24
  -2   0  -9    5.18    0.26
  -2   1  -9   14.15    0.54
  -2   1  -9   13.75    0.55
  -2   2  -9    1.76    0.12
  -2   2  -9    1.77    0.15
  -2   3  -9    3.85    0.19
  -2   3  -9    3.91    0.25
  -2   4  -9    0.34    0.11
  -2   5  -9    0.21    0.10
   2  -5   9    0.00    0.04
  -2   6  -9    0.06    0.09
   2  -6   9    0.14    0.07
  -3  -4  -9    0.09    0.07
  -3  -3  -9    1.07    0.16
  -3  -2  -9    0.37    0.09
  -3  -2  -9    0.50    0.06
  -3  -1  -9    0.27    0.06
  -3  -1  -9    0.32    0.08
  -3   0  -9    2.20    0.15
  -3   0  -9    2.13    0.16
  -3   1  -9    0.35    0.08
  -3   1  -9    0.31    0.08
  -3   2  -9    0.47    0.10
  -3   2  -9    0.18    0.05
  -3   3  -9    1.38    0.18
  -3   3  -9    1.29    0.13
  -3   4  -9    0.07    0.07
  -3   5  -9    0.55    0.15
  -4  -5  -9    0.02    0.07
  -4  -4  -9    0.07    0.07
  -4  -3  -9    0.08    0.07
  -4  -2  -9    3.99    0.26
  -4  -2  -9    4.02    0.18
  -4  -1  -9    0.59    0.08
  -4  -1  -9    0.49    0.11
  -4   0  -9    8.76    0.39
  -4   0  -9    9.46    0.43
  -4   1  -9    0.44    0.10
  -4   1  -9    0.58    0.11
  -4   2  -9    3.72    0.23
  -4   2  -9    3.69    0.25
  -4   3  -9    0.12    0.08
  -4   3  -9    0.11    0.06
  -4   4  -9    0.07    0.07
  -4   5  -9    0.01    0.09
  -5  -5  -9    0.25    0.10
  -5  -4  -9    0.00    0.05
  -5  -3  -9    0.11    0.07
  -5  -2  -9    0.70    0.14
  -5  -1  -9    1.25    0.10
  -5  -1  -9    1.27    0.18
  -5   0  -9   -0.01    0.04
  -5   0  -9   -0.02    0.05
  -5   1  -9    1.51    0.19
  -5   1  -9    1.67    0.18
  -5   2  -9    1.37    0.17
  -5   2  -9    1.43    0.19
  -5   3  -9    0.22    0.09
  -5   3  -9    0.19    0.07
  -5   4  -9    0.02    0.06
  -6  -4  -9    0.08    0.08
  -6  -3  -9    0.18    0.10
  -6  -2  -9    0.69    0.15
  -6  -1  -9    2.36    0.28
  -6   0  -9    0.50    0.09
  -6   0  -9    0.34    0.11
  -6   1  -9    2.24    0.22
  -6   1  -9    1.98    0.23
  -6   2  -9    0.74    0.15
  -6   2  -9    0.96    0.16
  -6   3  -9    0.10    0.08
  -6   3  -9    0.03    0.05
  -6   4  -9    0.04    0.07
  -7  -3  -9    0.15    0.09
  -7  -2  -9    0.51    0.14
  -7  -1  -9    0.81    0.17
  -7   0  -9    1.14    0.20
  -7   1  -9    0.61    0.15
  -7   1  -9    0.91    0.14
  -7   2  -9    0.47    0.13
  -7   2  -9    0.44    0.12
  -7   3  -9    0.06    0.08
  -7   3  -9    0.21    0.10
  -8  -1  -9    0.16    0.10
  -8   0  -9    0.02    0.07
  -8   1  -9   -0.02    0.08
   7  -2 -10    0.15    0.07
  -7   2  10    0.11    0.08
   7  -1 -10    0.22    0.09
  -7   1  10    0.15    0.07
   7   0 -10    0.29    0.09
  -7   0  10    0.46    0.11
   7   1 -10    0.20    0.08
  -7  -1  10    0.30    0.10
   7   2 -10    0.17    0.08
  -7  -2  10    0.30    0.11
   6  -3 -10    0.07    0.07
   6  -2 -10    0.33    0.11
   6  -1 -10    1.70    0.19
  -6   1  10    1.57    0.19
   6   0 -10    0.26    0.08
  -6   0  10    0.45    0.10
   6   1 -10    1.57    0.18
  -6  -1  10    1.40    0.17
   6   2 -10    0.42    0.10
  -6  -2  10    0.28    0.07
  -6  -2  10    0.34    0.09
   6   3 -10   -0.03    0.05
  -6  -3  10    0.07    0.06
  -6  -3  10    0.19    0.08
   6   4 -10    0.24    0.10
  -6  -4  10    0.26    0.09
   5  -4 -10    0.35    0.10
   5  -3 -10    0.10    0.07
   5  -2 -10    3.08    0.23
   5  -1 -10    2.42    0.20
   5   0 -10    0.49    0.10
  -5   0  10    0.37    0.09
   5   1 -10    1.65    0.18
  -5  -1  10    1.98    0.16
   5   2 -10    2.64    0.20
  -5  -2  10    2.60    0.19
  -5  -2  10    2.49    0.16
   5   3 -10    0.07    0.06
  -5  -3  10    0.03    0.05
  -5  -3  10    0.08    0.06
   5   4 -10    0.32    0.10
  -5  -4  10    0.44    0.10
  -5  -4  10    0.25    0.08
   4  -5 -10   -0.05    0.06
  -4   5  10    0.00    0.06
   4  -4 -10    0.03    0.06
   4  -3 -10    0.11    0.08
   4  -2 -10    1.41    0.17
   4  -1 -10    1.09    0.13
   4   0 -10    0.61    0.10
   4   1 -10    1.17    0.15
  -4  -1  10    1.23    0.15
   4   2 -10    1.67    0.18
  -4  -2  10    1.74    0.13
  -4  -2  10    1.41    0.15
   4   3 -10    0.13    0.07
  -4  -3  10    0.18    0.07
  -4  -3  10    0.11    0.06
   4   4 -10    0.08    0.08
  -4  -4  10    0.02    0.05
  -4  -4  10   -0.01    0.04
   4   5 -10   -0.03    0.07
  -4  -5  10    0.05    0.06
   3  -5 -10    0.20    0.09
   3  -4 -10    0.65    0.13
   3  -3 -10    6.20    0.33
   3  -2 -10    3.98    0.24
   3  -1 -10    0.62    0.10
   3   0 -10    2.57    0.18
   3   1 -10    0.48    0.09
   3   2 -10    4.12    0.25
  -3  -2  10    4.09    0.21
   3   3 -10    5.65    0.31
  -3  -3  10    5.59    0.28
   3   4 -10    0.66    0.13
  -3  -4  10    0.59    0.10
   3   5 -10    0.21    0.09
  -3  -5  10    0.23    0.09
   2  -5 -10    0.16    0.07
   2  -4 -10    1.15    0.15
   2  -3 -10    4.63    0.26
   2  -2 -10    0.70    0.11
   2  -1 -10    0.20    0.06
   2   0 -10    1.94    0.15
   2   1 -10    0.19    0.06
   2   2 -10    0.60    0.10
   2   3 -10    4.39    0.27
  -2  -3  10    4.09    0.22
   2   4 -10    1.26    0.18
  -2  -4  10    1.26    0.15
   2   5 -10    0.33    0.11
  -2  -5  10    0.13    0.06
   1  -6 -10    0.19    0.08
   1  -5 -10    0.50    0.10
   1  -4 -10    2.61    0.18
   1  -3 -10    2.55    0.17
   1  -2 -10    2.36    0.16
   1  -1 -10    0.69    0.09
   1   0 -10    2.98    0.18
   1   1 -10    0.96    0.13
   1   2 -10    1.90    0.15
   1   3 -10    2.23    0.19
  -1  -3  10    2.39    0.16
   1   4 -10    2.46    0.21
  -1  -4  10    2.20    0.17
   1   5 -10    0.40    0.12
  -1  -5  10    0.54    0.11
   1   6 -10    0.18    0.11
   0  -6 -10    0.00    0.05
   0  -6 -10    0.03    0.06
   0  -5 -10    1.15    0.14
   0  -5 -10    1.08    0.15
   0  -4 -10    2.11    0.16
   0  -3 -10    1.08    0.12
   0  -2 -10    4.95    0.24
   0  -1 -10    1.61    0.12
   0   0 -10    1.45    0.12
   0   1 -10    1.61    0.13
   0   2 -10    4.39    0.25
   0   3 -10    1.01    0.08
   0   3 -10    0.97    0.14
   0   4 -10    2.70    0.27
   0  -4  10    2.43    0.17
   0   5 -10    1.03    0.17
   0  -5  10    0.96    0.13
   0   6 -10   -0.06    0.06
   0  -6  10    0.05    0.06
  -1  -6 -10    0.03    0.06
  -1  -5 -10    0.91    0.11
  -1  -5 -10    0.57    0.12
  -1  -4 -10    4.15    0.22
  -1  -4 -10    3.76    0.25
  -1  -3 -10    0.03    0.05
  -1  -3 -10    0.01    0.04
  -1  -2 -10    0.46    0.09
  -1  -2 -10    0.49    0.08
  -1  -1 -10    1.84    0.13
  -1  -1 -10    1.63    0.16
  -1   0 -10    2.90    0.18
  -1   0 -10    3.01    0.18
  -1   1 -10    1.68    0.13
  -1   1 -10    1.86    0.14
  -1   2 -10    0.38    0.09
  -1   2 -10    0.28    0.06
  -1   3 -10    0.07    0.03
  -1   3 -10   -0.03    0.05
  -1   4 -10    4.19    0.29
  -1   5 -10    1.24    0.20
   1  -5  10    0.65    0.11
  -1   6 -10    0.10    0.09
  -2  -5 -10    0.26    0.09
  -2  -4 -10    1.87    0.13
  -2  -4 -10    1.59    0.20
  -2  -3 -10    1.10    0.16
  -2  -3 -10    1.22    0.10
  -2  -2 -10    0.53    0.10
  -2  -2 -10    0.50    0.08
  -2  -1 -10    2.24    0.17
  -2  -1 -10    2.17    0.14
  -2   0 -10    5.69    0.29
  -2   0 -10    5.88    0.28
  -2   1 -10    2.14    0.15
  -2   1 -10    2.11    0.16
  -2   2 -10    0.61    0.12
  -2   3 -10    1.09    0.11
  -2   3 -10    1.31    0.18
  -2   4 -10    1.91    0.24
  -2   5 -10    0.23    0.10
  -3  -5 -10    0.34    0.11
  -3  -4 -10    0.37    0.11
  -3  -3 -10    1.44    0.19
  -3  -2 -10    1.97    0.22
  -3  -2 -10    2.27    0.13
  -3  -1 -10    3.63    0.20
  -3  -1 -10    3.63    0.24
  -3   0 -10   -0.06    0.04
  -3   0 -10    0.04    0.04
  -3   1 -10    3.35    0.21
  -3   1 -10    3.11    0.21
  -3   2 -10    2.39    0.23
  -3   2 -10    2.04    0.16
  -3   3 -10    2.00    0.23
  -3   3 -10    1.70    0.16
  -3   4 -10    0.43    0.12
  -3   5 -10    0.39    0.13
  -4  -5 -10    0.25    0.10
  -4  -4 -10    0.19    0.09
  -4  -3 -10    1.67    0.22
  -4  -2 -10    0.52    0.12
  -4  -2 -10    0.58    0.07
  -4  -1 -10    0.56    0.13
  -4  -1 -10    0.87    0.11
  -4   0 -10   -0.05    0.04
  -4   0 -10   -0.03    0.04
  -4   1 -10    0.97    0.14
  -4   1 -10    0.76    0.13
  -4   2 -10    0.72    0.13
  -4   2 -10    0.51    0.10
  -4   3 -10    1.75    0.17
  -4   3 -10    1.33    0.20
  -4   4 -10    0.20    0.09
  -4   5 -10    0.30    0.12
  -5  -4 -10    0.03    0.07
  -5  -3 -10    0.06    0.07
  -5  -2 -10    0.18    0.09
  -5  -1 -10   -0.02    0.04
  -5  -1 -10    0.08    0.07
  -5   0 -10    4.32    0.30
  -5   0 -10    4.73    0.26
  -5   1 -10   -0.04    0.05
  -5   1 -10    0.03    0.06
  -5   2 -10    0.19    0.09
  -5   2 -10    0.19    0.08
  -5   3 -10    0.02    0.06
  -5   3 -10    0.06    0.06
  -5   4 -10    0.05    0.08
  -6  -3 -10    0.15    0.09
  -6  -2 -10    0.75    0.16
  -6  -1 -10    1.31    0.20
  -6   0 -10    0.78    0.15
  -6   0 -10    0.93    0.13
  -6   1 -10    1.40    0.18
  -6   1 -10    1.07    0.17
  -6   2 -10    1.20    0.17
  -6   2 -10    0.92    0.16
  -6   3 -10    0.15    0.09
  -6   3 -10    0.00    0.04
  -7  -2 -10    0.09    0.09
  -7  -1 -10    0.70    0.16
  -7   0 -10    0.12    0.09
  -7   1 -10    0.80    0.14
  -7   1 -10    0.61    0.14
  -7   2 -10    0.11    0.09
  -7   2 -10    0.05    0.07
   7  -2 -11   -0.04    0.06
   7  -1 -11    0.76    0.14
  -7   1  11    0.69    0.14
   7   0 -11    0.29    0.10
  -7   0  11    0.31    0.10
   7   1 -11    0.62    0.13
  -7  -1  11    0.69    0.14
   7   2 -11    0.07    0.07
  -7  -2  11    0.04    0.06
   6  -3 -11    0.17    0.09
   6  -2 -11    0.35    0.10
   6  -1 -11    0.23    0.09
   6   0 -11    0.32    0.09
  -6   0  11    0.56    0.12
   6   1 -11    0.29    0.09
  -6  -1  11    0.32    0.09
   6   2 -11    0.27    0.10
  -6  -2  11    0.30    0.09
   6   3 -11    0.13    0.08
  -6  -3  11    0.06    0.05
  -6  -3  11    0.10    0.06
   5  -4 -11    0.50    0.12
   5  -3 -11    0.11    0.07
   5  -2 -11    0.70    0.12
   5  -1 -11    0.63    0.12
   5   0 -11    0.04    0.06
   5   1 -11    0.66    0.12
  -5  -1  11    0.65    0.11
   5   2 -11    1.02    0.15
  -5  -2  11    0.87    0.13
   5   3 -11    0.24    0.09
  -5  -3  11    0.16    0.07
  -5  -3  11    0.23    0.07
   5   4 -11    0.49    0.12
  -5  -4  11    0.39    0.10
  -5  -4  11    0.42    0.09
   4  -4 -11    0.19    0.09
   4  -3 -11    0.17    0.08
   4  -2 -11    0.74    0.13
   4  -1 -11    0.35    0.09
   4   0 -11    0.61    0.11
   4   1 -11    0.39    0.09
   4   2 -11    0.61    0.12
   4   3 -11    0.23    0.09
  -4  -3  11    0.33    0.08
   4   4 -11    0.26    0.10
  -4  -4  11    0.20    0.08
   3  -5 -11    0.35    0.10
   3  -4 -11    0.17    0.08
   3  -3 -11    2.31    0.19
   3  -2 -11    3.30    0.22
   3  -1 -11    0.24    0.07
   3   0 -11   -0.01    0.03
   3   1 -11    0.14    0.06
   3   2 -11    3.13    0.22
   3   3 -11    2.23    0.22
  -3  -3  11    2.26    0.17
   3   4 -11    0.26    0.09
  -3  -4  11    0.35    0.08
   3   5 -11    0.22    0.10
  -3  -5  11    0.29    0.09
   2  -5 -11    0.09    0.07
   2  -4 -11    0.06    0.06
   2  -3 -11    0.60    0.11
   2  -2 -11    0.35    0.08
   2  -1 -11    0.03    0.04
   2   0 -11    0.78    0.11
   2   1 -11    0.03    0.05
   2   2 -11    0.64    0.11
   2   3 -11    0.38    0.10
  -2  -3  11    0.53    0.09
   2   4 -11    0.03    0.07
  -2  -4  11    0.02    0.05
   2   5 -11    0.11    0.08
  -2  -5  11    0.10    0.06
   1  -5 -11    0.53    0.11
   1  -4 -11    1.93    0.16
   1  -3 -11    3.83    0.23
   1  -2 -11    0.99    0.12
   1  -1 -11    2.54    0.17
   1   0 -11    2.01    0.15
   1   1 -11    2.28    0.17
   1   2 -11    0.89    0.12
   1   3 -11    3.46    0.24
   1   4 -11    1.51    0.20
  -1  -4  11    2.20    0.17
   1   5 -11    0.64    0.15
  -1  -5  11    0.56    0.11
   0  -5 -11    0.24    0.08
   0  -5 -11    0.24    0.09
   0  -4 -11    0.36    0.10
   0  -4 -11    0.37    0.08
   0  -3 -11    1.06    0.13
   0  -2 -11    0.80    0.11
   0  -1 -11    3.34    0.20
   0   0 -11    0.58    0.10
   0   1 -11    3.14    0.20
   0   2 -11    0.98    0.13
   0   3 -11    1.14    0.16
   0   3 -11    0.96    0.10
   0   4 -11    0.58    0.13
   0   5 -11    0.25    0.11
   0  -5  11    0.18    0.07
  -1  -5 -11    0.38    0.08
  -1  -5 -11    0.57    0.13
  -1  -4 -11    1.61    0.13
  -1  -4 -11    1.57    0.19
  -1  -3 -11    1.77    0.14
  -1  -3 -11    2.07    0.21
  -1  -2 -11    4.71    0.27
  -1  -2 -11    4.85    0.24
  -1  -1 -11    1.07    0.14
  -1  -1 -11    1.23    0.13
  -1   0 -11    0.60    0.09
  -1   0 -11    0.36    0.08
  -1   1 -11    1.21    0.14
  -1   1 -11    1.24    0.14
  -1   3 -11    1.95    0.13
  -1   3 -11    1.80    0.21
  -1   4 -11    1.48    0.20
  -1   5 -11    0.30    0.11
  -2  -5 -11    0.07    0.06
  -2  -4 -11    0.55    0.09
  -2  -4 -11    0.50    0.12
  -2  -3 -11    2.33    0.24
  -2  -3 -11    2.34    0.15
  -2  -2 -11    1.22    0.16
  -2  -2 -11    1.43    0.12
  -2  -1 -11    4.15    0.22
  -2  -1 -11    4.21    0.26
  -2   0 -11    4.61    0.26
  -2   0 -11    5.31    0.27
  -2   1 -11    4.15    0.24
  -2   1 -11    4.18    0.25
  -2   2 -11    1.32    0.16
  -2   2 -11    0.64    0.10
  -2   3 -11    2.23    0.15
  -2   3 -11    2.10    0.23
  -2   4 -11    0.68    0.15
  -2   5 -11    0.01    0.08
  -3  -5 -11    0.37    0.11
  -3  -4 -11    0.10    0.07
  -3  -3 -11    1.23    0.18
  -3  -2 -11    0.08    0.04
  -3  -2 -11    0.05    0.06
  -3  -1 -11    3.57    0.21
  -3  -1 -11    3.37    0.25
  -3   0 -11    2.15    0.17
  -3   0 -11    2.41    0.20
  -3   1 -11    3.27    0.22
  -3   1 -11    3.15    0.22
  -3   2 -11    0.04    0.05
  -3   2 -11    0.00    0.06
  -3   3 -11    1.39    0.19
  -3   3 -11    1.70    0.16
  -3   4 -11    0.22    0.10
  -3   5 -11    0.40    0.13
  -4  -4 -11    0.60    0.14
  -4  -3 -11    0.12    0.08
  -4  -2 -11    1.94    0.23
  -4  -2 -11    1.79    0.13
  -4  -1 -11    6.14    0.30
  -4  -1 -11    6.22    0.36
  -4   0 -11    6.01    0.34
  -4   0 -11    6.07    0.31
  -4   1 -11    6.39    0.35
  -4   1 -11    6.86    0.36
  -4   2 -11    1.95    0.22
  -4   2 -11    1.82    0.19
  -4   3 -11    0.31    0.11
  -4   3 -11    0.25    0.08
  -4   4 -11    0.62    0.15
  -5  -4 -11   -0.01    0.06
  -5  -3 -11    0.13    0.09
  -5  -2 -11    2.07    0.26
  -5  -1 -11    1.05    0.12
  -5  -1 -11    0.82    0.16
  -5   0 -11    0.82    0.13
  -5   0 -11    0.65    0.14
  -5   1 -11    0.79    0.14
  -5   1 -11    1.07    0.16
  -5   2 -11    1.82    0.21
  -5   2 -11    2.22    0.24
  -5   3 -11    0.17    0.09
  -5   3 -11    0.06    0.05
  -5   4 -11    0.00    0.07
  -6  -3 -11    0.34    0.13
  -6  -2 -11    1.47    0.23
  -6  -1 -11    0.43    0.12
  -6   0 -11    0.62    0.11
  -6   0 -11    0.56    0.14
  -6   1 -11    0.45    0.13
  -6   1 -11    0.46    0.11
  -6   2 -11    1.27    0.19
  -6   2 -11    1.64    0.21
  -6   3 -11    0.51    0.14
  -7  -2 -11    0.30    0.12
  -7  -1 -11    0.26    0.11
  -7   0 -11   -0.02    0.07
  -7   1 -11    0.22    0.09
  -7   1 -11    0.27    0.11
  -7   2 -11    0.23    0.10
  -7   2 -11    0.36    0.11
   7  -1 -12    0.16    0.09
   7   0 -12    0.13    0.09
  -7   0  12    0.07    0.08
   7   1 -12    0.04    0.07
  -7  -1  12    0.20    0.09
   6  -2 -12    0.13    0.08
   6  -1 -12    0.33    0.10
   6   0 -12    0.03    0.06
   6   1 -12    0.34    0.10
  -6  -1  12    0.29    0.09
   6   2 -12    0.07    0.08
  -6  -2  12    0.14    0.07
   6   3 -12    0.05    0.07
  -6  -3  12    0.12    0.07
   5  -3 -12    0.59    0.13
   5  -2 -12    1.27    0.17
   5  -1 -12    0.14    0.07
   5   0 -12   -0.04    0.05
   5   1 -12    0.04    0.06
   5   2 -12    1.05    0.16
   5   3 -12    0.46    0.12
  -5  -3  12    0.59    0.10
   5   4 -12    0.02    0.06
   4  -4 -12    0.00    0.07
   4  -3 -12    0.28    0.09
   4  -2 -12    0.84    0.14
   4  -1 -12    0.02    0.06
   4   0 -12    0.02    0.06
   4   1 -12    0.08    0.06
   4   2 -12    1.03    0.15
   4   3 -12    0.38    0.10
  -4  -3  12    0.21    0.07
   4   4 -12   -0.04    0.06
  -4  -4  12    0.02    0.04
   3  -5 -12    0.19    0.09
   3  -4 -12    0.24    0.09
   3  -3 -12    0.24    0.08
   3  -2 -12    0.49    0.10
   3  -1 -12    0.90    0.13
   3   0 -12   -0.05    0.04
   3   1 -12    1.03    0.14
   3   2 -12    0.40    0.10
   3   3 -12    0.21    0.09
   3   4 -12    0.12    0.08
  -3  -4  12    0.02    0.05
   3   5 -12    0.16    0.10
   2  -5 -12    0.30    0.10
   2  -4 -12    0.31    0.09
   2  -3 -12    0.18    0.08
   2  -2 -12    1.78    0.16
   2  -1 -12    1.03    0.13
   2   0 -12    0.16    0.07
   2   1 -12    1.44    0.17
   2   2 -12    1.90    0.20
   2   3 -12    0.23    0.09
   2   4 -12    0.65    0.14
  -2  -4  12    0.44    0.09
   2   5 -12    0.40    0.13
  -2  -5  12    0.17    0.07
   1  -5 -12    0.08    0.06
   1  -4 -12    0.66    0.11
   1  -3 -12    0.48    0.10
   1  -2 -12    1.03    0.14
   1  -1 -12    0.81    0.12
   1   0 -12    1.27    0.15
   1   1 -12    0.93    0.14
   1   2 -12    1.07    0.15
   1   3 -12    0.48    0.11
   1   4 -12    0.82    0.16
   1   5 -12    0.06    0.08
  -1  -5  12    0.07    0.06
   0  -5 -12    0.16    0.07
   0  -5 -12    0.16    0.08
   0  -4 -12    1.39    0.16
   0  -4 -12    1.40    0.19
   0  -3 -12    0.28    0.08
   0  -2 -12    2.61    0.18
   0  -1 -12    1.93    0.15
   0   0 -12   20.29    0.77
   0   1 -12    1.73    0.15
   0   2 -12    2.36    0.19
   0   3 -12    0.17    0.05
   0   3 -12    0.19    0.08
   0   4 -12    1.81    0.23
   0   5 -12    0.17    0.10
  -1  -5 -12    0.21    0.07
  -1  -5 -12    0.15    0.08
  -1  -4 -12    0.25    0.07
  -1  -4 -12    0.14    0.08
  -1  -3 -12    0.49    0.09
  -1  -3 -12    0.43    0.10
  -1  -2 -12    1.41    0.18
  -1  -2 -12    1.49    0.15
  -1  -1 -12    7.62    0.35
  -1  -1 -12    7.81    0.38
  -1   0 -12    0.87    0.12
  -1   0 -12    1.13    0.13
  -1   1 -12    7.02    0.36
  -1   1 -12    7.48    0.34
  -1   2 -12    1.54    0.15
  -1   2 -12    1.41    0.17
  -1   3 -12    0.42    0.08
  -1   3 -12    0.37    0.11
  -1   4 -12    0.25    0.10
  -1   5 -12    0.07    0.08
  -2  -5 -12    0.09    0.07
  -2  -4 -12    0.22    0.07
  -2  -4 -12    0.14    0.08
  -2  -3 -12    1.75    0.14
  -2  -3 -12    1.61    0.20
  -2  -2 -12    2.14    0.15
  -2  -2 -12    2.29    0.19
  -2  -1 -12    3.86    0.26
  -2  -1 -12    3.63    0.21
  -2   0 -12    9.44    0.43
  -2   0 -12    9.77    0.44
  -2   1 -12    3.93    0.25
  -2   1 -12    3.87    0.24
  -2   2 -12    1.86    0.20
  -2   2 -12    1.91    0.15
  -2   3 -12    1.63    0.14
  -2   3 -12    2.32    0.25
  -2   4 -12    0.22    0.11
  -2   5 -12    0.08    0.09
  -3  -4 -12    0.05    0.07
  -3  -3 -12    0.28    0.07
  -3  -3 -12    0.32    0.11
  -3  -2 -12    0.43    0.08
  -3  -2 -12    0.40    0.11
  -3  -1 -12    1.10    0.13
  -3  -1 -12    0.47    0.12
  -3   0 -12   10.76    0.50
  -3   0 -12   11.31    0.48
  -3   1 -12    0.75    0.13
  -3   1 -12    0.57    0.12
  -3   2 -12    0.33    0.10
  -3   2 -12    0.31    0.09
  -3   3 -12    0.32    0.08
  -3   3 -12    0.43    0.13
  -3   4 -12    0.10    0.09
  -4  -4 -12    0.21    0.11
  -4  -3 -12    0.27    0.11
  -4  -2 -12    3.75    0.22
  -4  -2 -12    3.41    0.28
  -4  -1 -12    2.32    0.17
  -4  -1 -12    2.39    0.26
  -4   0 -12    0.80    0.15
  -4   0 -12    1.23    0.16
  -4   1 -12    2.51    0.21
  -4   1 -12    2.53    0.21
  -4   2 -12    3.35    0.24
  -4   2 -12    3.70    0.28
  -4   3 -12    0.17    0.09
  -4   3 -12    0.21    0.07
  -4   4 -12    0.17    0.09
  -5  -3 -12    0.08    0.09
  -5  -2 -12    0.20    0.10
  -5  -1 -12    2.49    0.18
  -5  -1 -12    2.48    0.28
  -5   0 -12    0.09    0.08
  -5   0 -12    0.24    0.08
  -5   1 -12    2.79    0.24
  -5   1 -12    2.34    0.21
  -5   2 -12    0.27    0.09
  -5   2 -12    0.06    0.08
  -5   3 -12    0.02    0.05
  -5   3 -12    0.00    0.07
  -6  -2 -12    0.69    0.17
  -6  -1 -12    1.27    0.21
  -6   0 -12    0.30    0.09
  -6   0 -12    0.37    0.12
  -6   1 -12    0.84    0.15
  -6   1 -12    1.19    0.19
  -6   2 -12    0.33    0.10
  -6   2 -12    0.54    0.13
  -7  -1 -12    0.07    0.09
  -7   0 -12    0.19    0.10
  -7   1 -12    0.18    0.09
   6  -2 -13    0.08    0.08
   6  -1 -13    0.08    0.08
   6   0 -13    0.04    0.08
   6   1 -13    0.27    0.11
   6   2 -13    0.03    0.08
   5  -3 -13    0.17    0.09
   5  -2 -13    0.84    0.14
   5  -1 -13    0.22    0.08
   5   0 -13    0.00    0.06
   5   1 -13    0.20    0.08
   5   2 -13    0.83    0.14
   5   3 -13    0.36    0.11
   4  -4 -13    0.13    0.08
   4  -3 -13    0.66    0.13
   4  -2 -13    0.13    0.07
   4  -1 -13    0.81    0.14
   4   0 -13    0.45    0.10
   4   1 -13    0.77    0.13
   4   2 -13    0.12    0.08
   4   3 -13    0.69    0.14
   4   4 -13    0.07    0.08
  -4  -4  13    0.17    0.08
   3  -4 -13    0.06    0.07
   3  -3 -13    3.44    0.25
   3  -2 -13    2.17    0.22
   3  -1 -13    2.58    0.21
   3   0 -13    0.07    0.06
   3   1 -13    2.46    0.20
   3   2 -13    1.53    0.18
   3   3 -13    3.16    0.25
   3   4 -13    0.22    0.10
  -3  -4  13    0.07    0.07
   2  -4 -13    0.19    0.08
   2  -3 -13    1.00    0.14
   2  -2 -13    0.21    0.08
   2  -1 -13    5.84    0.32
   2   0 -13    0.20    0.08
   2   1 -13    5.91    0.33
   2   2 -13    0.20    0.08
   2   3 -13    1.18    0.18
   2   4 -13    0.15    0.09
   1  -5 -13   -0.03    0.05
   1  -4 -13    1.50    0.17
   1  -3 -13    1.60    0.17
   1  -2 -13    6.28    0.33
   1  -1 -13    1.67    0.18
   1   0 -13    6.25    0.33
   1   1 -13    1.80    0.19
   1   2 -13    5.42    0.31
   1   3 -13    1.79    0.21
   1   4 -13    1.63    0.22
   1   5 -13    0.02    0.08
   0  -5 -13   -0.01    0.06
   0  -5 -13    0.06    0.07
   0  -4 -13    0.47    0.12
   0  -4 -13    0.34    0.09
   0  -3 -13    2.17    0.17
   0  -2 -13    0.82    0.12
   0  -1 -13    6.04    0.31
   0   0 -13    0.18    0.08
   0   1 -13    6.04    0.32
   0   2 -13    0.61    0.13
   0   3 -13    2.52    0.26
   0   3 -13    2.09    0.15
   0   4 -13    0.38    0.11
   0   5 -13    0.11    0.10
  -1  -5 -13    0.12    0.08
  -1  -4 -13    0.22    0.09
  -1  -4 -13    0.25    0.08
  -1  -3 -13    2.54    0.21
  -1  -3 -13    2.85    0.19
  -1  -2 -13    1.26    0.17
  -1  -2 -13    1.12    0.14
  -1  -1 -13    3.73    0.25
  -1  -1 -13    3.70    0.23
  -1   0 -13    3.61    0.23
  -1   0 -13    3.21    0.23
  -1   1 -13    3.60    0.23
  -1   1 -13    3.82    0.25
  -1   2 -13    1.32    0.14
  -1   2 -13    1.04    0.16
  -1   3 -13    2.37    0.17
  -1   3 -13    2.68    0.27
  -1   4 -13    0.44    0.12
  -1   5 -13    0.39    0.13
  -2  -4 -13    0.37    0.11
  -2  -3 -13    0.03    0.05
  -2  -3 -13    0.12    0.06
  -2  -2 -13    1.05    0.13
  -2  -2 -13    0.95    0.15
  -2  -1 -13    8.89    0.39
  -2  -1 -13    8.34    0.43
  -2   0 -13    7.25    0.36
  -2   0 -13    7.75    0.39
  -2   1 -13    8.62    0.41
  -2   1 -13    8.19    0.41
  -2   2 -13    1.09    0.14
  -2   2 -13    1.07    0.16
  -2   3 -13    0.03    0.05
  -2   3 -13    0.07    0.07
  -2   4 -13    0.50    0.14
  -3  -4 -13    0.14    0.08
  -3  -3 -13    0.03    0.06
  -3  -2 -13    1.92    0.15
  -3  -2 -13    1.56    0.20
  -3  -1 -13    0.63    0.14
  -3  -1 -13    0.71    0.12
  -3   0 -13    0.16    0.08
  -3   0 -13    0.17    0.08
  -3   1 -13    0.83    0.14
  -3   1 -13    0.75    0.14
  -3   2 -13    2.09    0.23
  -3   2 -13    2.04    0.20
  -3   3 -13    0.15    0.08
  -3   3 -13    0.15    0.06
  -3   4 -13    0.35    0.12
  -4  -4 -13   -0.02    0.07
  -4  -3 -13    0.13    0.09
  -4  -2 -13    1.38    0.20
  -4  -1 -13    0.72    0.12
  -4  -1 -13    0.39    0.12
  -4   0 -13    2.27    0.19
  -4   0 -13    1.92    0.23
  -4   1 -13    0.80    0.14
  -4   1 -13    0.55    0.12
  -4   2 -13    1.22    0.17
  -4   2 -13    1.67    0.22
  -4   3 -13    0.16    0.09
  -4   4 -13   -0.08    0.06
  -5  -3 -13    0.07    0.07
  -5  -2 -13    0.12    0.08
  -5  -1 -13    0.21    0.10
  -5   0 -13    0.16    0.08
  -5   0 -13    0.01    0.07
  -5   1 -13    0.13    0.07
  -5   1 -13    0.13    0.08
  -5   2 -13    0.05    0.06
  -5   2 -13   -0.06    0.06
  -5   3 -13    0.00    0.06
  -6  -2 -13    0.03    0.07
  -6  -1 -13    0.14    0.10
  -6   0 -13   -0.03    0.06
  -6   1 -13   -0.02    0.06
  -6   1 -13    0.04    0.07
  -6   2 -13    0.03    0.06
  -6   2 -13   -0.02    0.07
   6  -1 -14    0.08    0.08
   6   0 -14    0.06    0.08
   6   1 -14    0.02    0.07
   5  -2 -14   -0.01    0.06
   5  -1 -14    0.45    0.12
   5   0 -14   -0.08    0.04
   5   1 -14    0.26    0.10
   5   2 -14    0.07    0.08
   4  -3 -14    0.20    0.08
   4  -2 -14    0.70    0.14
   4   0 -14    1.79    0.21
   4   1 -14    0.62    0.13
   4   2 -14    0.88    0.16
   4   3 -14    0.33    0.10
   3  -4 -14   -0.06    0.06
   3  -3 -14    0.50    0.12
   3  -2 -14    0.31    0.10
   3  -1 -14    0.47    0.12
   3   0 -14    0.27    0.09
   3   1 -14    0.35    0.10
   3   2 -14    0.20    0.09
   3   3 -14    0.58    0.14
   3   4 -14   -0.13    0.05
   2  -4 -14    0.14    0.08
   2  -3 -14    0.60    0.12
   2  -2 -14    3.66    0.26
   2  -1 -14    0.38    0.10
   2   0 -14    9.47    0.45
   2   1 -14    0.51    0.11
   2   2 -14    2.99    0.23
   2   3 -14    0.30    0.11
   2   4 -14    0.25    0.10
   1  -4 -14    0.00    0.06
   1  -3 -14    0.04    0.06
   1  -2 -14    1.46    0.17
   1  -1 -14    0.77    0.13
   1   0 -14    1.33    0.16
   1   1 -14    0.72    0.13
   1   2 -14    1.21    0.17
   1   3 -14   -0.05    0.06
   1   4 -14    0.00    0.06
   0  -4 -14    0.12    0.08
   0  -4 -14    0.03    0.05
   0  -3 -14    0.07    0.06
   0  -2 -14    1.04    0.14
   0  -1 -14    3.13    0.22
   0   0 -14    8.71    0.42
   0   1 -14    2.76    0.21
   0   2 -14    0.95    0.15
   0   3 -14    0.11    0.08
   0   3 -14    0.08    0.05
   0   4 -14    0.03    0.07
  -1  -4 -14    0.10    0.08
  -1  -4 -14    0.11    0.07
  -1  -3 -14    0.27    0.09
  -1  -3 -14    0.47    0.10
  -1  -2 -14   -0.02    0.05
  -1  -2 -14    0.04    0.06
  -1  -1 -14    1.30    0.15
  -1  -1 -14    1.79    0.20
  -1   0 -14    2.24    0.22
  -1   0 -14    2.25    0.18
  -1   1 -14    1.50    0.17
  -1   1 -14    1.58    0.19
  -1   2 -14   -0.02    0.04
  -1   2 -14    0.01    0.06
  -1   3 -14    0.40    0.08
  -1   3 -14    0.55    0.13
  -1   4 -14    0.20    0.10
  -2  -4 -14    0.02    0.07
  -2  -3 -14   -0.05    0.05
  -2  -3 -14    0.05    0.05
  -2  -2 -14    0.86    0.16
  -2  -2 -14    0.85    0.12
  -2  -1 -14    0.76    0.13
  -2  -1 -14    0.98    0.13
  -2   0 -14    0.08    0.06
  -2   0 -14    0.21    0.08
  -2   1 -14    0.81    0.13
  -2   1 -14    1.05    0.15
  -2   2 -14    0.94    0.13
  -2   2 -14    0.86    0.15
  -2   3 -14   -0.02    0.06
  -2   3 -14    0.06    0.05
  -2   4 -14    0.10    0.08
  -3  -4 -14    0.37    0.12
  -3  -3 -14    0.12    0.08
  -3  -2 -14    0.32    0.11
  -3  -2 -14    0.41    0.09
  -3  -1 -14    0.80    0.12
  -3  -1 -14    0.54    0.13
  -3   0 -14    0.51    0.11
  -3   0 -14    0.42    0.11
  -3   1 -14    0.72    0.14
  -3   1 -14    0.58    0.12
  -3   2 -14    0.53    0.11
  -3   2 -14    0.42    0.12
  -3   3 -14    0.17    0.10
  -3   4 -14    0.28    0.12
  -4  -3 -14    0.16    0.09
  -4  -2 -14    0.27    0.11
  -4  -1 -14    0.22    0.08
  -4  -1 -14    0.37    0.12
  -4   0 -14    0.06    0.07
  -4   0 -14    0.08    0.06
  -4   1 -14    0.16    0.09
  -4   1 -14    0.35    0.11
  -4   2 -14    0.19    0.08
  -4   2 -14    0.18    0.09
  -4   3 -14    0.14    0.09
  -5  -2 -14    0.10    0.08
  -5  -1 -14    0.13    0.09
  -5   0 -14    0.17    0.08
  -5   0 -14    0.21    0.10
  -5   1 -14    0.12    0.08
  -5   1 -14    0.14    0.08
  -5   2 -14    0.05    0.08
  -5   2 -14   -0.01    0.06
  -6   0 -14   -0.10    0.06
   5  -1 -15    0.25    0.11
   5   0 -15    0.17    0.09
   5   1 -15    0.13    0.09
   4  -2 -15    0.30    0.11
   4  -1 -15    1.24    0.18
   4   0 -15    0.28    0.10
   4   1 -15    1.25    0.17
   4   2 -15    0.13    0.08
   3  -3 -15    0.34    0.10
   3  -2 -15    0.89    0.15
   3  -1 -15    0.73    0.15
   3   0 -15    0.67    0.13
   3   1 -15    0.65    0.14
   3   2 -15    1.03    0.17
   3   3 -15    0.21    0.11
   2  -3 -15    0.05    0.07
   2  -2 -15    0.66    0.14
   2  -1 -15    1.15    0.16
   2   0 -15    0.07    0.07
   2   1 -15    1.06    0.16
   2   2 -15    0.46    0.11
   2   3 -15    0.15    0.09
   1  -4 -15    0.08    0.07
   1  -3 -15    0.45    0.11
   1  -2 -15    0.66    0.13
   1  -1 -15    1.34    0.17
   1   0 -15    0.08    0.07
   1   1 -15    1.30    0.18
   1   2 -15    0.41    0.11
   1   3 -15    0.69    0.15
   1   4 -15    0.17    0.10
   0  -4 -15    0.04    0.06
   0  -4 -15    0.10    0.07
   0  -3 -15    0.09    0.07
   0  -3 -15    0.03    0.06
   0  -2 -15    0.08    0.06
   0  -1 -15    1.51    0.18
   0   0 -15    0.85    0.14
   0   1 -15    1.36    0.17
   0   2 -15    0.10    0.06
   0   2 -15    0.11    0.08
   0   3 -15    0.02    0.07
   0   3 -15    0.07    0.05
   0   4 -15    0.10    0.08
  -1  -4 -15    0.14    0.07
  -1  -4 -15    0.14    0.09
  -1  -3 -15    0.06    0.07
  -1  -3 -15    0.24    0.08
  -1  -2 -15    0.39    0.11
  -1  -2 -15    0.22    0.08
  -1  -1 -15    0.21    0.09
  -1  -1 -15    0.31    0.09
  -1   0 -15    0.35    0.10
  -1   0 -15    0.25    0.08
  -1   1 -15    0.31    0.09
  -1   1 -15    0.08    0.07
  -1   2 -15    0.17    0.09
  -1   2 -15    0.29    0.08
  -1   3 -15    0.14    0.08
  -1   4 -15    0.23    0.10
  -2  -3 -15    0.07    0.06
  -2  -3 -15    0.12    0.07
  -2  -2 -15    0.51    0.10
  -2  -2 -15    0.39    0.11
  -2  -1 -15    0.35    0.10
  -2  -1 -15    0.30    0.09
  -2   0 -15    0.41    0.10
  -2   0 -15    0.32    0.09
  -2   1 -15    0.41    0.11
  -2   1 -15    0.18    0.08
  -2   2 -15    0.43    0.11
  -2   2 -15    0.34    0.09
  -2   3 -15    0.05    0.07
  -3  -3 -15   -0.02    0.06
  -3  -2 -15    0.28    0.10
  -3  -2 -15    0.52    0.10
  -3  -1 -15    0.14    0.08
  -3  -1 -15    0.03    0.06
  -3   0 -15    0.08    0.06
  -3   0 -15   -0.02    0.05
  -3   1 -15    0.06    0.07
  -3   1 -15    0.15    0.07
  -3   2 -15    0.40    0.10
  -3   2 -15    0.55    0.13
  -3   3 -15   -0.02    0.08
  -4  -2 -15    0.03    0.06
  -4  -1 -15    0.12    0.07
  -4  -1 -15    0.21    0.10
  -4   0 -15    0.72    0.15
  -4   0 -15    0.91    0.15
  -4   1 -15    0.07    0.07
  -4   1 -15    0.20    0.09
  -4   2 -15    0.05    0.07
  -4   2 -15    0.10    0.07
  -5  -1 -15   -0.02    0.07
  -5   0 -15    0.06    0.06
  -5   0 -15    0.09    0.08
  -5   1 -15    0.04    0.07
  -5   1 -15    0.02    0.07
   4  -1 -16   -0.01    0.07
   4   0 -16    0.53    0.13
   4   1 -16    0.05    0.09
   3  -2 -16    0.42    0.12
   3  -1 -16    0.23    0.10
   3   0 -16    0.32    0.10
   3   1 -16    0.39    0.12
   3   2 -16    0.41    0.12
   2  -3 -16    0.00    0.06
   2  -2 -16   -0.04    0.06
   2  -1 -16    0.42    0.11
   2   0 -16    0.42    0.11
   2   1 -16    0.30    0.10
   2   2 -16    0.02    0.06
   2   3 -16   -0.02    0.07
   1  -3 -16    0.11    0.08
   1  -2 -16    0.14    0.08
   1  -1 -16    0.60    0.12
   1   0 -16    0.09    0.07
   1   1 -16    0.73    0.15
   1   2 -16    0.13    0.08
   1   3 -16    0.13    0.10
   0  -3 -16   -0.04    0.04
   0  -3 -16   -0.01    0.06
   0  -2 -16    0.17    0.07
   0  -1 -16    0.16    0.08
   0   0 -16    0.73    0.14
   0   1 -16    0.30    0.09
   0   2 -16    0.16    0.08
   0   2 -16    0.16    0.06
   0   3 -16   -0.03    0.05
  -1  -3 -16    0.17    0.07
  -1  -3 -16    0.16    0.09
  -1  -2 -16    0.12    0.08
  -1  -2 -16    0.25    0.09
  -1  -1 -16    0.05    0.06
  -1  -1 -16    0.08    0.07
  -1   0 -16    0.49    0.11
  -1   0 -16    0.24    0.09
  -1   1 -16    0.14    0.08
  -1   1 -16    0.13    0.07
  -1   2 -16    0.21    0.07
  -1   2 -16    0.16    0.09
  -1   3 -16    0.20    0.10
  -2  -3 -16    0.14    0.07
  -2  -3 -16    0.07    0.07
  -2  -2 -16   -0.02    0.05
  -2  -2 -16    0.05    0.07
  -2  -1 -16    0.39    0.09
  -2  -1 -16    0.24    0.09
  -2   0 -16    0.54    0.12
  -2   0 -16    0.40    0.10
  -2   1 -16    0.53    0.12
  -2   1 -16    0.29    0.09
  -2   2 -16    0.10    0.07
  -2   2 -16    0.07    0.05
  -2   3 -16    0.02    0.08
  -3  -2 -16    0.05    0.06
  -3  -2 -16   -0.01    0.07
  -3  -1 -16    0.12    0.07
  -3  -1 -16    0.04    0.07
  -3   0 -16    0.03    0.05
  -3   0 -16    0.04    0.07
  -3   1 -16   -0.03    0.06
  -3   1 -16    0.04    0.06
  -3   2 -16    0.01    0.05
  -3   2 -16   -0.06    0.05
  -4  -1 -16    0.32    0.10
  -4  -1 -16    0.27    0.11
  -4   0 -16    0.05    0.07
  -4   0 -16    0.02    0.06
  -4   1 -16    0.44    0.12
  -4   1 -16    0.18    0.09
   3  -1 -17    0.00    0.07
   3   0 -17    0.10    0.09
   3   1 -17    0.00    0.06
   2  -2 -17    0.01    0.07
   2  -1 -17    0.21    0.10
   2   0 -17   -0.02    0.07
   2   1 -17    0.13    0.08
   2   2 -17    0.01    0.05
   1  -2 -17    0.01    0.06
   1  -1 -17    0.21    0.09
   1   0 -17    0.41    0.12
   1   1 -17    0.20    0.09
   1   2 -17   -0.02    0.07
   0  -2 -17    0.06    0.07
   0  -2 -17    0.12    0.07
   0  -1 -17    0.18    0.09
   0   0 -17   -0.04    0.06
   0   1 -17    0.23    0.09
   0   1 -17    0.20    0.08
   0   2 -17    0.13    0.09
   0   2 -17    0.14    0.07
  -1  -2 -17    0.11    0.09
  -1  -2 -17    0.21    0.09
  -1  -1 -17    0.12    0.07
  -1  -1 -17    0.14    0.08
  -1   0 -17    0.13    0.07
  -1   0 -17    0.00    0.06
  -1   1 -17    0.04    0.07
  -1   1 -17    0.14    0.07
  -1   2 -17    0.10    0.06
  -1   2 -17    0.17    0.09
  -2  -2 -17    0.09    0.08
  -2  -2 -17    0.13    0.07
  -2  -1 -17    0.00    0.05
  -2  -1 -17    0.03    0.07
  -2   0 -17    0.79    0.14
  -2   0 -17    0.58    0.13
  -2   1 -17   -0.01    0.05
  -2   1 -17   -0.02    0.06
  -2   2 -17    0.09    0.06
  -2   2 -17    0.14    0.08
  -3  -1 -17    0.00    0.06
  -3  -1 -17    0.05    0.07
  -3   0 -17    0.28    0.10
  -3   0 -17    0.14    0.09
  -3   1 -17    0.06    0.08
  -3   1 -17   -0.06    0.05
   2   0 -18    0.09    0.09
   1  -1 -18    0.11    0.08
   1   0 -18   -0.06    0.05
   1   1 -18    0.08    0.07
   0  -1 -18   -0.03    0.06
   0  -1 -18    0.01    0.06
   0   0 -18   -0.01    0.06
   0   0 -18   -0.14    0.05
   0   1 -18    0.02    0.06
   0   1 -18    0.07    0.07
  -1  -1 -18    0.18    0.09
  -1  -1 -18    0.16    0.09
  -1   0 -18   -0.07    0.05
  -1   0 -18    0.00    0.06
  -1   1 -18    0.09    0.07
  -1   1 -18    0.24    0.10
   0   0   0    0.00    0.00
;
loop_
_space_group_symop_operation_xyz
'x, y, z'
'-x, y+1/2, -z'
loop_
_atom_site_label
_atom_site_type_symbol
_atom_site_fract_x
_atom_site_fract_y
_atom_site_fract_z
_atom_site_U_iso_or_equiv
_atom_site_adp_type
_atom_site_occupancy
_atom_site_site_symmetry_order
_atom_site_calc_flag
_atom_site_refinement_flags_posn
_atom_site_refinement_flags_adp
_atom_site_refinement_flags_occupancy
_atom_site_disorder_assembly
_atom_site_disorder_group
C1 C 0.1106(4) 0.4691(7) 0.6429(3) 0.0744(10) Uani 1 1 d . . . . .
C2 C 0.1149(4) 0.5379(6) 0.7264(2) 0.0739(10) Uani 1 1 d . . . . .
H2 H 0.0689 0.6728 0.7419 0.089 Uiso 1 1 calc R U . . .
C3 C 0.1888(4) 0.4029(6) 0.7871(2) 0.0661(9) Uani 1 1 d . . . . .
H3 H 0.1925 0.4464 0.8439 0.079 Uiso 1 1 calc R U . . .
C4 C 0.2576(4) 0.2019(5) 0.7628(2) 0.0560(8) Uani 1 1 d . . . . .
C5 C 0.2508(4) 0.1385(6) 0.6775(2) 0.0693(9) Uani 1 1 d . . . . .
H5 H 0.2972 0.0047 0.6609 0.083 Uiso 1 1 calc R U . . .
C6 C 0.1754(4) 0.2736(7) 0.6170(3) 0.0785(11) Uani 1 1 d . . . . .
H6 H 0.1695 0.2312 0.5601 0.094 Uiso 1 1 calc R U . . .
C7 C 0.3388(4) 0.0599(5) 0.8258(2) 0.0566(8) Uani 1 1 d . . . . .
C8 C 0.4258(5) -0.0442(6) 0.9472(2) 0.0783(10) Uani 1 1 d . . . . .
H8 H 0.4477 -0.0500 1.0053 0.094 Uiso 1 1 calc R U . . .
C9 C 0.3655(4) 0.8908(7) 0.4014(3) 0.0812(11) Uani 1 1 d . . . . .
C10 C 0.2907(4) 0.6886(7) 0.4021(2) 0.0803(11) Uani 1 1 d . . . . .
H10 H 0.2766 0.6112 0.4527 0.096 Uiso 1 1 calc R U . . .
C11 C 0.2361(4) 0.6019(6) 0.3247(2) 0.0663(9) Uani 1 1 d . . . . .
H11 H 0.1853 0.4642 0.3233 0.080 Uiso 1 1 calc R U . . .
C12 C 0.2571(3) 0.7198(6) 0.2496(2) 0.0561(8) Uani 1 1 d . . . . .
C13 C 0.3348(4) 0.9241(5) 0.2519(2) 0.0685(9) Uani 1 1 d . . . . .
H13 H 0.3497 1.0035 0.2019 0.082 Uiso 1 1 calc R U . . .
C14 C 0.3901(4) 1.0095(7) 0.3287(3) 0.0804(11) Uani 1 1 d . . . . .
H14 H 0.4432 1.1457 0.3308 0.096 Uiso 1 1 calc R U . . .
C15 C 0.1985(4) 0.6311(6) 0.1674(2) 0.0600(8) Uani 1 1 d . . . . .
C16 C 0.0946(5) 0.4029(9) 0.0806(3) 0.0905(12) Uani 1 1 d . . . . .
H16 H 0.0469 0.2758 0.0581 0.109 Uiso 1 1 calc R U . . .
F1 F 0.0381(3) 0.6011(4) 0.58288(15) 0.1069(8) Uani 1 1 d . . . . .
F2 F 0.4186(3) 0.9754(5) 0.47792(16) 0.1269(11) Uani 1 1 d . . . . .
N1 N 0.4158(4) -0.1219(5) 0.81395(18) 0.0702(8) Uani 1 1 d . . . . .
N2 N 0.4732(4) -0.1923(5) 0.8952(2) 0.0768(8) Uani 1 1 d . . . . .
N3 N 0.1987(4) 0.7232(6) 0.0931(2) 0.0812(9) Uani 1 1 d . . . . .
N4 N 0.1296(4) 0.5694(7) 0.0357(2) 0.0912(10) Uani 1 1 d . . . . .
O1 O 0.3413(3) 0.1213(4) 0.90992(14) 0.0765(7) Uani 1 1 d . . . . .
O2 O 0.1333(3) 0.4263(4) 0.16505(15) 0.0762(7) Uani 1 1 d . . . . .
loop_
_atom_site_aniso_label
_atom_site_aniso_U_11
_atom_site_aniso_U_22
_atom_site_aniso_U_33
_atom_site_aniso_U_23
_atom_site_aniso_U_13
_atom_site_aniso_U_12
C1 0.061(2) 0.079(3) 0.083(3) 0.016(2) -0.0005(18) -0.0061(19)
C2 0.067(2) 0.066(2) 0.088(3) 0.003(2) 0.0069(18) 0.0004(17)
C3 0.0628(17) 0.064(2) 0.072(2) -0.0087(18) 0.0072(16) -0.0095(17)
C4 0.0484(15) 0.0561(18) 0.064(2) -0.0023(16) 0.0051(14) -0.0136(13)
C5 0.0696(19) 0.071(2) 0.067(2) -0.0085(19) 0.0064(16) -0.0049(18)
C6 0.075(2) 0.094(3) 0.066(2) 0.002(2) 0.0017(18) -0.009(2)
C7 0.0554(16) 0.056(2) 0.058(2) -0.0089(16) 0.0072(14) -0.0125(14)
C8 0.099(3) 0.073(3) 0.062(2) 0.006(2) 0.0027(19) -0.002(2)
C9 0.068(2) 0.091(3) 0.085(3) -0.022(3) -0.005(2) 0.009(2)
C10 0.080(2) 0.094(3) 0.067(2) 0.004(2) 0.0064(19) 0.001(2)
C11 0.0651(19) 0.066(2) 0.068(2) 0.0061(18) 0.0024(16) 0.0018(17)
C12 0.0482(15) 0.0544(16) 0.066(2) 0.0048(15) 0.0061(13) 0.0094(13)
C13 0.0625(18) 0.058(2) 0.086(3) 0.0059(19) 0.0078(17) 0.0035(18)
C14 0.069(2) 0.064(2) 0.109(3) -0.016(2) 0.002(2) 0.0012(18)
C15 0.0517(16) 0.0604(19) 0.068(2) 0.0088(17) 0.0043(15) 0.0047(16)
C16 0.084(3) 0.108(3) 0.079(3) -0.008(3) -0.012(2) -0.014(3)
F1 0.0995(16) 0.1164(18) 0.1046(19) 0.0347(16) -0.0083(13) 0.0088(15)
F2 0.128(2) 0.148(3) 0.1043(19) -0.0529(19) -0.0172(16) -0.0023(19)
N1 0.0862(18) 0.0591(17) 0.0654(19) -0.0052(15) -0.0007(15) -0.0038(15)
N2 0.096(2) 0.0640(17) 0.070(2) 0.0026(16) 0.0006(17) -0.0050(16)
N3 0.087(2) 0.088(2) 0.069(2) 0.0162(18) -0.0002(16) 0.0003(19)
N4 0.093(2) 0.111(3) 0.069(2) 0.007(2) -0.0126(17) -0.001(2)
O1 0.0986(16) 0.0724(15) 0.0585(15) -0.0050(13) 0.0072(12) 0.0095(14)
O2 0.0823(15) 0.0774(18) 0.0690(16) 0.0040(13) -0.0043(12) -0.0151(13)
loop_
_atom_type_symbol
_atom_type_description
_atom_type_scat_dispersion_real
_atom_type_scat_dispersion_imag
_atom_type_scat_source
C C 0.0033 0.0016 'International Tables Vol C Tables 4.2.6.8 and 6.1.1.4'
H H 0.0000 0.0000 'International Tables Vol C Tables 4.2.6.8 and 6.1.1.4'
N N 0.0061 0.0033 'International Tables Vol C Tables 4.2.6.8 and 6.1.1.4'
O O 0.0106 0.0060 'International Tables Vol C Tables 4.2.6.8 and 6.1.1.4'
F F 0.0171 0.0103 'International Tables Vol C Tables 4.2.6.8 and 6.1.1.4'
loop_
_geom_angle_atom_site_label_1
_geom_angle_atom_site_label_2
_geom_angle_atom_site_label_3
_geom_angle
_geom_angle_site_symmetry_1
_geom_angle_site_symmetry_3
C6 C1 F1 117.8(4) . .
C6 C1 C2 122.9(4) . .
F1 C1 C2 119.2(4) . .
C1 C2 C3 118.9(4) . .
C2 C3 C4 119.8(4) . .
C3 C4 C5 119.5(3) . .
C3 C4 C7 120.4(3) . .
C5 C4 C7 120.1(3) . .
C6 C5 C4 120.5(3) . .
C1 C6 C5 118.3(4) . .
N1 C7 O1 111.8(3) . .
N1 C7 C4 128.5(3) . .
O1 C7 C4 119.7(3) . .
N2 C8 O1 113.5(3) . .
C14 C9 C10 123.1(4) . .
C14 C9 F2 119.3(4) . .
C10 C9 F2 117.6(4) . .
C9 C10 C11 117.9(4) . .
C10 C11 C12 120.5(3) . .
C13 C12 C11 119.6(3) . .
C13 C12 C15 119.3(3) . .
C11 C12 C15 121.1(3) . .
C14 C13 C12 119.9(4) . .
C9 C14 C13 119.0(4) . .
N3 C15 O2 112.1(3) . .
N3 C15 C12 129.0(3) . .
O2 C15 C12 118.8(3) . .
N4 C16 O2 114.1(4) . .
C7 N1 N2 106.4(3) . .
C8 N2 N1 105.6(3) . .
C15 N3 N4 106.7(3) . .
C16 N4 N3 105.1(3) . .
C8 O1 C7 102.8(3) . .
C15 O2 C16 102.0(3) . .
loop_
_geom_bond_atom_site_label_1
_geom_bond_atom_site_label_2
_geom_bond_distance
_geom_bond_site_symmetry_2
C1 C6 1.358(6) .
C1 F1 1.364(4) .
C1 C2 1.377(5) .
C2 C3 1.387(5) .
C3 C4 1.392(5) .
C4 C5 1.396(5) .
C4 C7 1.461(5) .
C5 C6 1.390(5) .
C7 N1 1.276(4) .
C7 O1 1.373(4) .
C8 N2 1.272(5) .
C8 O1 1.342(4) .
C9 C14 1.366(6) .
C9 C10 1.365(6) .
C9 F2 1.372(4) .
C10 C11 1.393(5) .
C11 C12 1.391(5) .
C12 C13 1.387(5) .
C12 C15 1.473(5) .
C13 C14 1.383(5) .
C15 N3 1.294(4) .
C15 O2 1.349(4) .
C16 N4 1.265(5) .
C16 O2 1.367(4) .
N1 N2 1.420(4) .
N3 N4 1.409(5) .
loop_
_geom_torsion_atom_site_label_1
_geom_torsion_atom_site_label_2
_geom_torsion_atom_site_label_3
_geom_torsion_atom_site_label_4
_geom_torsion
_geom_torsion_site_symmetry_1
_geom_torsion_site_symmetry_2
_geom_torsion_site_symmetry_3
_geom_torsion_site_symmetry_4
C6 C1 C2 C3 0.2(5) . . . .
F1 C1 C2 C3 180.0(3) . . . .
C1 C2 C3 C4 0.2(5) . . . .
C2 C3 C4 C5 -0.2(4) . . . .
C2 C3 C4 C7 178.8(3) . . . .
C3 C4 C5 C6 -0.4(4) . . . .
C7 C4 C5 C6 -179.3(3) . . . .
F1 C1 C6 C5 179.5(3) . . . .
C2 C1 C6 C5 -0.7(5) . . . .
C4 C5 C6 C1 0.8(5) . . . .
C3 C4 C7 N1 -175.8(3) . . . .
C5 C4 C7 N1 3.2(5) . . . .
C3 C4 C7 O1 2.6(4) . . . .
C5 C4 C7 O1 -178.5(3) . . . .
C14 C9 C10 C11 -0.6(5) . . . .
F2 C9 C10 C11 179.9(3) . . . .
C9 C10 C11 C12 -0.4(5) . . . .
C10 C11 C12 C13 0.8(4) . . . .
C10 C11 C12 C15 -179.4(3) . . . .
C11 C12 C13 C14 -0.3(4) . . . .
C15 C12 C13 C14 179.9(3) . . . .
C10 C9 C14 C13 1.0(6) . . . .
F2 C9 C14 C13 -179.4(3) . . . .
C12 C13 C14 C9 -0.6(5) . . . .
C13 C12 C15 N3 -4.8(5) . . . .
C11 C12 C15 N3 175.4(3) . . . .
C13 C12 C15 O2 175.7(3) . . . .
C11 C12 C15 O2 -4.1(4) . . . .
O1 C7 N1 N2 0.9(3) . . . .
C4 C7 N1 N2 179.3(3) . . . .
O1 C8 N2 N1 0.1(4) . . . .
C7 N1 N2 C8 -0.6(4) . . . .
O2 C15 N3 N4 -0.5(4) . . . .
C12 C15 N3 N4 180.0(3) . . . .
O2 C16 N4 N3 0.0(5) . . . .
C15 N3 N4 C16 0.3(4) . . . .
N2 C8 O1 C7 0.4(4) . . . .
N1 C7 O1 C8 -0.8(3) . . . .
C4 C7 O1 C8 -179.4(3) . . . .
N3 C15 O2 C16 0.4(3) . . . .
C12 C15 O2 C16 -179.9(3) . . . .
N4 C16 O2 C15 -0.2(4) . . . .
