#------------------------------------------------------------------------------
#$Date: 2022-07-01 09:45:35 +0300 (Fri, 01 Jul 2022) $
#$Revision: 276468 $
#$URL: file:///home/coder/svn-repositories/cod/cif/8/10/55/8105597.cif $
#------------------------------------------------------------------------------
#
# This file is available in the Crystallography Open Database (COD),
# http://www.crystallography.net/
#
# All data on this site have been placed in the public domain by the
# contributors.
#
data_8105597
loop_
_publ_author_name
'Mach\'alkov\'a, Aneta'
'Charamzov\'a, Iva'
'Honz\'i\<cek, Jan'
'Vinkl\'arek, Jarom\'ir'
'C\'isa\<rov\'a, Ivana'
_publ_section_title
;
 Crystal structure of oxidobis(piperidine-1-carbodithioato-\k2
 S,S&#x2032;)vanadium(IV), C12H20N2OS4V
;
_journal_issue                   2
_journal_name_full
'Zeitschrift f\"ur Kristallographie - New Crystal Structures'
_journal_page_first              223
_journal_page_last               225
_journal_paper_doi               10.1515/ncrs-2018-0265
_journal_volume                  234
_journal_year                    2019
_chemical_compound_source        'synthesized by the authors'
_chemical_formula_moiety         'C12 H20 N2 O S4 V'
_chemical_formula_sum            'C12 H20 N2 O S4 V'
_chemical_formula_weight         387.48
_space_group_crystal_system      triclinic
_space_group_IT_number           2
_space_group_name_Hall           '-P 1'
_space_group_name_H-M_alt        'P -1'
_atom_sites_solution_hydrogens   geom
_cell_angle_alpha                87.1010(10)
_cell_angle_beta                 82.3160(10)
_cell_angle_gamma                71.4110(10)
_cell_formula_units_Z            2
_cell_length_a                   7.0892(2)
_cell_length_b                   8.8797(2)
_cell_length_c                   13.8486(3)
_cell_measurement_reflns_used    8541
_cell_measurement_temperature    150(2)
_cell_measurement_theta_max      27.5583
_cell_measurement_theta_min      2.8284
_cell_volume                     818.84(3)
_computing_cell_refinement       'SAINT V8.37A (Bruker AXS Inc., 2015)'
_computing_data_collection       'Bruker Instrument Service v2016.1.0.1'
_computing_data_reduction        'SAINT V8.37A (Bruker AXS Inc., 2015)'
_computing_structure_refinement  'SHELXL-2018/1 (Sheldrick, 2018)'
_computing_structure_solution    'XT, VERSION 2014/5'
_diffrn_ambient_temperature      150(2)
_diffrn_measured_fraction_theta_full 0.999
_diffrn_measured_fraction_theta_max 0.992
_diffrn_measurement_device_type  'NoniusKappa+Bruker APEX-II CCD'
_diffrn_measurement_method       '\f and \w scans'
_diffrn_radiation_type           MoK\a
_diffrn_radiation_wavelength     0.71073
_diffrn_reflns_av_unetI/netI     0.0308
_diffrn_reflns_Laue_measured_fraction_full 0.999
_diffrn_reflns_Laue_measured_fraction_max 0.992
_diffrn_reflns_limit_h_max       9
_diffrn_reflns_limit_h_min       -9
_diffrn_reflns_limit_k_max       11
_diffrn_reflns_limit_k_min       -11
_diffrn_reflns_limit_l_max       17
_diffrn_reflns_limit_l_min       0
_diffrn_reflns_number            3755
_diffrn_reflns_point_group_measured_fraction_full 0.999
_diffrn_reflns_point_group_measured_fraction_max 0.992
_diffrn_reflns_theta_full        25.242
_diffrn_reflns_theta_max         27.578
_diffrn_reflns_theta_min         2.420
_diffrn_source                   'fine-focus sealed tube'
_exptl_absorpt_coefficient_mu    1.111
_exptl_absorpt_correction_T_max  0.84
_exptl_absorpt_correction_T_min  0.70
_exptl_absorpt_correction_type   multi-scan
_exptl_absorpt_process_details
;
 TWINABS - Bruker AXS scaling for twinned crystals - Version 2012/1
;
_exptl_crystal_colour            green
_exptl_crystal_density_diffrn    1.572
_exptl_crystal_description       prism
_exptl_crystal_F_000             402
_exptl_crystal_size_max          0.300
_exptl_crystal_size_mid          0.266
_exptl_crystal_size_min          0.163
_refine_diff_density_max         0.404
_refine_diff_density_min         -0.319
_refine_diff_density_rms         0.070
_refine_ls_extinction_coef       .
_refine_ls_extinction_method     none
_refine_ls_goodness_of_fit_ref   1.097
_refine_ls_hydrogen_treatment    constr
_refine_ls_matrix_type           full
_refine_ls_number_parameters     182
_refine_ls_number_reflns         3755
_refine_ls_number_restraints     0
_refine_ls_restrained_S_all      1.097
_refine_ls_R_factor_all          0.0291
_refine_ls_R_factor_gt           0.0249
_refine_ls_shift/su_max          0.001
_refine_ls_shift/su_mean         0.000
_refine_ls_structure_factor_coef Fsqd
_refine_ls_weighting_details
'w=1/[\s^2^(Fo^2^)+(0.0324P)^2^+0.1903P] where P=(Fo^2^+2Fc^2^)/3'
_refine_ls_weighting_scheme      calc
_refine_ls_wR_factor_gt          0.0682
_refine_ls_wR_factor_ref         0.0707
_reflns_Friedel_coverage         0.000
_reflns_Friedel_fraction_full    .
_reflns_Friedel_fraction_max     .
_reflns_number_gt                3414
_reflns_number_total             3755
_reflns_threshold_expression     'I > 2\s(I)'
_cod_data_source_file            suppl_ncrs-2018-0265_suppl.cif
_cod_data_source_block           jv
_cod_database_code               8105597
_shelx_space_group_comment
;
The symmetry employed for this shelxl refinement is uniquely defined
by the following loop, which should always be used as a source of
symmetry information in preference to the above space-group names.
They are only intended as comments.
;
_shelx_estimated_absorpt_t_min   0.732
_shelx_estimated_absorpt_t_max   0.840
_shelx_res_file
;
TITL jv160422v1_vinklarek_0m_4_a.res in P-1
    jv160422v1_vinklarek_5.res
    created by SHELXL-2018/1 at 19:49:50 on 18-Jul-2018
REM Old TITL jv160422v1_vinklarek_0m_4 in P-1
REM SHELXT solution in P-1
REM R1 0.090,  Rweak 0.005,  Alpha 0.033,  Orientation as input
REM Formula found by SHELXT:  C12 N2 O S4 V
CELL  0.71073   7.0892   8.8797  13.8486   87.101   82.316   71.411
ZERR    2.000   0.0002   0.0002   0.0003    0.001    0.001    0.001
LATT  1
SFAC  C   H   N   O   S   V
UNIT   24   40   4   2   8   2
TEMP -123.000
SIZE 0.163 0.266 0.30
L.S. 10
BOND $H
LIST 4
MERG 0
ACTA
FMAP 2
PLAN 20
WGHT    0.032400    0.190300
BASF   0.49288
FVAR       0.88065
C1    1    0.229047    0.458752    0.160315    11.00000    0.01396    0.01517 =
         0.01155    0.00253   -0.00274   -0.00429
C2    1    0.377799    0.240588    0.044216    11.00000    0.01479    0.01593 =
         0.01791   -0.00345   -0.00063   -0.00274
AFIX  23
H2A   2    0.439807    0.135674    0.074027    11.00000   -1.20000
H2B   2    0.482136    0.293318    0.028912    11.00000   -1.20000
AFIX   0
C3    1    0.299273    0.217924   -0.049031    11.00000    0.02247    0.01869 =
         0.01647   -0.00353   -0.00175   -0.00811
AFIX  23
H3A   2    0.409628    0.147035   -0.093244    11.00000   -1.20000
H3B   2    0.250277    0.321801   -0.082363    11.00000   -1.20000
AFIX   0
C4    1    0.129164    0.146096   -0.027273    11.00000    0.02561    0.02160 =
         0.02246   -0.00512   -0.00384   -0.01237
AFIX  23
H4A   2    0.076247    0.136277   -0.088477    11.00000   -1.20000
H4B   2    0.180111    0.038559    0.001403    11.00000   -1.20000
AFIX   0
C5    1   -0.037885    0.251874    0.043695    11.00000    0.01823    0.01866 =
         0.02867   -0.00141   -0.00623   -0.00890
AFIX  23
H5A   2   -0.097162    0.355873    0.012231    11.00000   -1.20000
H5B   2   -0.144755    0.202010    0.060365    11.00000   -1.20000
AFIX   0
C6    1    0.040908    0.277390    0.136279    11.00000    0.01587    0.01829 =
         0.02225   -0.00120    0.00114   -0.00856
AFIX  23
H6A   2   -0.067455    0.354145    0.178302    11.00000   -1.20000
H6B   2    0.082610    0.175593    0.172544    11.00000   -1.20000
AFIX   0
C7    1    0.365574    0.737104    0.454938    11.00000    0.01445    0.01522 =
         0.01746   -0.00280   -0.00072   -0.00479
C8    1    0.261971    0.799305    0.628028    11.00000    0.01834    0.03635 =
         0.01577   -0.00527    0.00120   -0.01239
AFIX  23
H8A   2    0.272599    0.709082    0.674268    11.00000   -1.20000
H8B   2    0.125969    0.832947    0.607555    11.00000   -1.20000
AFIX   0
C9    1    0.292790    0.935847    0.678042    11.00000    0.02178    0.02683 =
         0.01829   -0.00283   -0.00325   -0.00485
AFIX  23
H9A   2    0.195490    0.964245    0.737718    11.00000   -1.20000
H9B   2    0.267610    1.029794    0.634146    11.00000   -1.20000
AFIX   0
C10   1    0.505198    0.892039    0.704996    11.00000    0.02729    0.02166 =
         0.02165    0.00113   -0.00979   -0.01074
AFIX  23
H10A  2    0.524606    0.985406    0.733312    11.00000   -1.20000
H10B  2    0.525708    0.806007    0.754635    11.00000   -1.20000
AFIX   0
C11   1    0.657465    0.837367    0.615378    11.00000    0.02045    0.02614 =
         0.02550    0.00359   -0.00876   -0.01175
AFIX  23
H11A  2    0.794238    0.800834    0.634988    11.00000   -1.20000
H11B  2    0.648512    0.928064    0.569658    11.00000   -1.20000
AFIX   0
C12   1    0.622159    0.703192    0.564065    11.00000    0.01349    0.02498 =
         0.02200    0.00082   -0.00548   -0.00326
AFIX  23
H12A  2    0.714844    0.677803    0.502713    11.00000   -1.20000
H12B  2    0.650772    0.606990    0.606072    11.00000   -1.20000
AFIX   0
N1    3    0.213285    0.338172    0.113847    11.00000    0.01258    0.01631 =
         0.01364   -0.00137   -0.00101   -0.00412
N2    3    0.413070    0.748064    0.542098    11.00000    0.01368    0.02273 =
         0.01581   -0.00257   -0.00058   -0.00681
O1    4    0.213279    0.881432    0.205157    11.00000    0.03076    0.01686 =
         0.02829    0.00211   -0.00921   -0.00632
S1    5    0.443208    0.514754    0.146714    11.00000    0.01600    0.01977 =
         0.01776   -0.00479    0.00167   -0.00932
S2    5    0.038156    0.571622    0.243395    11.00000    0.01457    0.01967 =
         0.01823   -0.00589    0.00160   -0.00519
S3    5    0.542463    0.676716    0.353710    11.00000    0.01427    0.02186 =
         0.01747   -0.00445    0.00053   -0.00481
S4    5    0.121170    0.779595    0.430645    11.00000    0.01329    0.03283 =
         0.01956   -0.01005   -0.00198   -0.00507
V1    6    0.262441    0.717440    0.264311    11.00000    0.01694    0.01247 =
         0.01532   -0.00111   -0.00314   -0.00438
HKLF 5




REM  jv160422v1_vinklarek_0m_4_a.res in P-1
REM R1 =  0.0249 for    3414 Fo > 4sig(Fo)  and  0.0291 for all    3755 data
REM    182 parameters refined using      0 restraints

END

WGHT      0.0324      0.1903

REM Highest difference peak  0.404,  deepest hole -0.319,  1-sigma level  0.070
Q1    1   0.6188  0.7753  0.5977  11.00000  0.05    0.40
Q2    1   0.6348  0.6442  0.3945  11.00000  0.05    0.36
Q3    1   0.2804  0.8514  0.6580  11.00000  0.05    0.33
Q4    1   0.2244  0.1710 -0.0416  11.00000  0.05    0.31
Q5    1   0.2896  0.2984  0.0837  11.00000  0.05    0.30
Q6    1   0.3342  0.2388 -0.0005  11.00000  0.05    0.30
Q7    1   0.4003  0.9148  0.6879  11.00000  0.05    0.29
Q8    1   0.2477  0.8068  0.1868  11.00000  0.05    0.29
Q9    1   0.4518  0.6808  0.3028  11.00000  0.05    0.28
Q10   1   0.2390  0.2739 -0.0595  11.00000  0.05    0.27
Q11   1   0.0098  0.2599  0.0961  11.00000  0.05    0.26
Q12   1   0.2021  0.4205  0.1249  11.00000  0.05    0.26
Q13   1   0.1211  0.3203  0.1242  11.00000  0.05    0.26
Q14   1   0.5717  0.8692  0.6517  11.00000  0.05    0.25
Q15   1   0.3249  0.6204  0.6616  11.00000  0.05    0.25
Q16   1   0.4929  0.4392  0.0953  11.00000  0.05    0.25
Q17   1   0.2025  0.6046  0.6398  11.00000  0.05    0.25
Q18   1  -0.0306  0.9968  0.5965  11.00000  0.05    0.23
Q19   1   0.1151  1.0408  0.2440  11.00000  0.05    0.22
Q20   1   0.4129  0.6199  0.1592  11.00000  0.05    0.22
;
_shelx_hkl_file
;
   1   0   0 418.752 5.52894   1
  -2  -1   1 2.90172 1.16133  -2
   2   0   0 2.90172 1.16133   1
   3   0   0 3.19382 0.38884   1
   4   0   0 377.044 5.86503   1
  -5  -2   2 6.07264 3.54784  -2
   5   0   0 6.07264 3.54784   1
   6   0   0 227.804 5.11070   1
  -7  -3   3 96.7492 4.34125  -2
   7   0   0 96.7492 4.34125   1
   8   0   0 25.0136 2.70647   1
  -8  -4   5 33.2585 5.53524  -2
  -8   1   0 33.2585 5.53524   1
  -7   1   0 143.276 4.30156   1
  -6  -3   4 146.594 3.77390  -2
  -6   1   0 146.594 3.77390   1
  -5   1   0 297.098 5.61478   1
  -4  -2   3 1459.71 57.8621  -2
  -4   1   0 1459.71 57.8621   1
  -3   1   0 118.354 2.01286   1
  -2   1   0 2248.03 29.1256   1
  -1  -1   2 556.969 21.9119  -2
  -1   1   0 556.969 21.9119   1
   0   1   0 608.885 18.7809   1
   1   0   1 1686.42 22.0850  -2
   1   1   0 1686.42 22.0850   1
   2   1   0 7.56998 0.39354   1
   3   1   0 700.057 14.9383  -2
   3   1   0 700.057 14.9383   1
   4   1   0 -0.0772 0.40245   1
   5   1   0 2.33692 0.64832   1
  -6  -2   1 38.6097 3.00533  -2
   6   1   0 38.6097 3.00533   1
   7   1   0 392.044 9.83212   1
  -8  -3   2 621.075 17.4154  -2
   8   1   0 621.075 17.4154   1
  -8   2   0 29.5615 5.03694   1
  -7  -4   6 17.5804 1.89901  -2
  -7   2   0 17.5804 1.89901   1
  -6   2   0 138.276 3.99024   1
  -5  -3   5 189.581 4.39549  -2
  -5   2   0 189.581 4.39549   1
  -4   2   0 474.953 8.84221   1
  -3   2   0 0.13901 0.35965   1
  -2   2   0 422.565 6.31263   1
  -1   2   0 32.6423 0.83008   1
   0   2   0 3901.53 119.418   1
   1   2   0 79.2812 1.49411   1
   2   0   2 1319.77 17.3709  -2
   2   2   0 1319.77 17.3709   1
   3   2   0 336.283 5.36732   1
   4   1   1 379.827 10.3889  -2
   4   2   0 379.827 10.3889   1
   5   2   0 89.3529 2.56282   1
   6   2   0 5.68547 1.00519   1
   7   2   0 46.4190 3.54541  -2
   7   2   0 46.4190 3.54541   1
   8   2   0 744.484 17.3251   1
  -9  -3   1 3.88581 4.47505  -2
   9   2   0 3.88581 4.47505   1
  -7   3   0 350.640 10.4455   1
  -6  -4   7 276.251 6.64462  -2
  -6   3   0 276.251 6.64462   1
  -5   3   0 12.4838 1.12240   1
  -4  -3   6 292.235 5.29137  -2
  -4   3   0 292.235 5.29137   1
  -3   3   0 52.0284 1.55879   1
  -2   3   0 4.16202 0.48513   1
  -1   3   0 75.3204 1.80174   1
   0   3   0 49.3588 2.35909   1
   1  -1   4 1569.10 30.0302  -2
   1   3   0 1569.10 30.0302   1
   2   3   0 197.662 3.23665   1
   3   0   3 740.252 11.1807  -2
   3   3   0 740.252 11.1807   1
   4   3   0 416.053 7.27516   1
   5   1   2 41.4937 2.81340  -2
   5   3   0 41.4937 2.81340   1
   6   1   2 291.897 14.7397  -2
   6   3   0 291.897 14.7397   1
   7   3   0 323.490 8.49065   1
   8   2   1 85.0893 4.16135  -2
   8   3   0 85.0893 4.16135   1
   9   3   0 111.976 8.66242   1
  -7  -5   9 491.193 23.5336  -2
  -7   4   0 491.193 23.5336   1
  -6   4   0 99.0147 3.31895   1
  -5  -4   8 74.4805 2.65508  -2
  -5   4   0 74.4805 2.65508   1
  -4   4   0 97.3044 2.60463   1
  -3  -3   7 2412.77 49.1464  -2
  -3   4   0 2412.77 49.1464   1
  -2   4   0 27.5707 1.23146   1
  -1   4   0 193.355 6.79793   1
   0   4   0 1056.66 33.3068   1
   1   4   0 11.0134 0.50567   1
   2  -1   5 330.500 6.22171  -2
   2   4   0 330.500 6.22171   1
   3   4   0 629.048 11.4194   1
   4   0   4 165.812 3.46794  -2
   4   4   0 165.812 3.46794   1
   5   4   0 138.220 3.51381   1
   6   1   3 352.287 17.0572  -2
   6   4   0 352.287 17.0572   1
   7   4   0 3.34741 1.22458   1
   8   4   0 45.9591 3.00255   1
   9   2   2 61.1016 7.81489  -2
   9   4   0 61.1016 7.81489   1
  -6  -5  10 221.030 12.5480  -2
  -6   5   0 221.030 12.5480   1
  -5   5   0 166.835 4.45370   1
  -4  -4   9 720.331 18.3207  -2
  -4   5   0 720.331 18.3207   1
  -3   5   0 20.9337 1.33970   1
  -2  -3   8 34.6305 1.60006  -2
  -2   5   0 34.6305 1.60006   1
  -1   5   0 35.0370 1.67411   1
   0   5   0 653.816 21.3850   1
   1   5   0 2789.64 86.2300   1
   2   5   0 1.51182 0.42456   1
   3  -1   6 1334.45 21.2874  -2
   3   5   0 1334.45 21.2874   1
   4   5   0 466.911 8.97343   1
   5   0   5 175.382 4.24898  -2
   5   5   0 175.382 4.24898   1
   6   5   0 -0.8449 0.84499   1
   7   5   0 3.60700 1.18222   1
   9   5   0 53.0860 7.14472   1
  -5  -5  11 102.530 7.47823  -2
  -5   6   0 102.530 7.47823   1
  -4   6   0 3.38433 1.12876   1
  -3  -4  10 1629.49 33.5867  -2
  -3   6   0 1629.49 33.5867   1
  -2   6   0 23.4943 1.08837   1
  -1  -3   9 167.320 6.63205  -2
  -1   6   0 167.320 6.63205   1
   0   6   0 36.9455 2.68938   1
   1   6   0 851.206 27.7276   1
   2  -2   8 402.163 16.4995  -2
   2   6   0 402.163 16.4995   1
   3   6   0 20.8005 1.15135   1
   4  -1   7 67.7742 1.92825  -2
   4   6   0 67.7742 1.92825   1
   5   6   0 266.487 5.86022   1
   6   0   6 180.589 6.61318  -2
   6   6   0 180.589 6.61318   1
   7   6   0 2.82657 1.42013   1
   8   6   0 232.631 13.5216   1
  -5   7   0 44.6144 4.90237   1
  -4  -5  12 100.896 6.78584  -2
  -4   7   0 100.896 6.78584   1
  -3   7   0 141.408 3.79198   1
  -2  -4  11 161.546 3.52708  -2
  -2   7   0 161.546 3.52708   1
  -1   7   0 352.395 8.86556   1
   0   7   0 85.3943 4.55813   1
   1   7   0 0.78265 1.20968   1
   2   7   0 43.3580 1.47353   1
   3  -2   9 247.667 5.34058  -2
   3   7   0 247.667 5.34058   1
   4   7   0 382.221 7.74827   1
   5  -1   8 29.4098 2.08902  -2
   5   7   0 29.4098 2.08902   1
   6   7   0 18.2189 2.30164   1
   7   0   7 172.310 10.9293  -2
   7   7   0 172.310 10.9293   1
   8   7   0 149.291 10.2723   1
  -4   8   0 78.4458 5.63267   1
  -3  -5  13 186.264 9.32129  -2
  -3   8   0 186.264 9.32129   1
  -2   8   0 21.6420 1.42712   1
  -1  -4  12 414.657 8.85465  -2
  -1   8   0 414.657 8.85465   1
   0   8   0 2.72364 0.95502   1
   1  -3  11 7.13223 0.81187  -2
   1   8   0 7.13223 0.81187   1
   2   8   0 36.9991 1.56936   1
   3   8   0 554.265 12.5747   1
   4  -2  10 102.036 4.63910  -2
   4   8   0 102.036 4.63910   1
   5   8   0 313.911 9.86385   1
   6  -1   9 7.89899 3.04652  -2
   6   8   0 7.89899 3.04652   1
   7   8   0 -0.1386 2.10867   1
   8   0   8 25.5092 6.44262  -2
   8   8   0 25.5092 6.44262   1
  -3   9   0 167.842 8.58434   1
  -2  -5  14 546.168 22.4133  -2
  -2   9   0 546.168 22.4133   1
  -1   9   0 53.8192 2.29807   1
   0  -4  13 1.32902 2.23472  -2
   0   9   0 1.32902 2.23472   1
   1   9   0 7.90345 0.65209   1
   2  -3  12 3.40058 1.85806  -2
   2   9   0 3.40058 1.85806   1
   3   9   0 -0.0582 1.14391   1
   4   9   0 195.383 6.85544   1
   5  -2  11 6.51359 3.56343  -2
   5   9   0 6.51359 3.56343   1
   6   9   0 1.46840 2.07057   1
   7  -1  10 1.51045 2.41695  -2
   7   9   0 1.51045 2.41695   1
  -1  -5  15 9.66190 1.58734  -2
  -1  10   0 9.66190 1.58734   1
   0  10   0 3.54107 1.59715   1
   1  -4  14 327.127 13.4570  -2
   1  10   0 327.127 13.4570   1
   2  10   0 182.100 8.35097   1
   3  10   0 2.42808 1.38435   1
   4  10   0 237.287 11.7522   1
   5  10   0 247.199 12.6828   1
   6  -2  12 123.845 8.96152  -2
   6  10   0 123.845 8.96152   1
   1  11   0 99.2527 3.67241   1
   2  -4  15 155.896 7.67109  -2
   2  11   0 155.896 7.67109   1
   3  11   0 2.56506 1.59501   1
   4  11   0 7.13747 2.12423   1
   5  11   0 19.2300 3.42141   1
  -5 -11   1 27.2391 3.98127   1
  -4 -11   1 23.8229 3.44413   1
  -3 -11   1 20.2815 2.76486   1
  -2 -11   1 32.6030 3.01078   1
   1  -5  15 242.601 7.21139  -2
  -1 -11   1 242.601 7.21139   1
  -6 -10   1 71.3114 6.29806   1
   5  -3  12 151.937 9.52076  -2
  -5 -10   1 151.937 9.52076   1
  -4 -10   1 0.90327 1.64403   1
  -3 -10   1 9.74070 2.03302   1
  -2 -10   1 169.318 7.91650   1
  -1 -10   1 114.707 3.95627   1
   0  -5  14 67.1391 4.68225  -2
   0 -10   1 67.1391 4.68225   1
  -7  -9   1 8.37297 3.23446   1
   6  -2  10 165.527 10.0203  -2
  -6  -9   1 165.527 10.0203   1
  -5  -9   1 1.40282 1.51571   1
   4  -3  11 446.970 13.0254  -2
  -4  -9   1 446.970 13.0254   1
  -3  -9   1 165.017 5.85015   1
  -2  -9   1 21.3444 1.45682   1
   1  -4  12 11.3919 1.09569  -2
  -1  -9   1 11.3919 1.09569   1
   0  -9   1 6.01243 1.72359   1
  -1  -5  13 126.163 3.88791  -2
   1  -9   1 126.163 3.88791   1
   2  -9   1 286.756 8.50178   1
  -3  -6  14 95.0855 5.93464  -2
   3  -9   1 95.0855 5.93464   1
  -8  -8   1 336.925 17.9284   1
   7  -1   8 27.8173 5.33240  -2
  -7  -8   1 27.8173 5.33240   1
  -6  -8   1 25.3860 3.89990   1
   5  -2   9 82.8202 4.09184  -2
  -5  -8   1 82.8202 4.09184   1
  -4  -8   1 354.640 10.5998   1
   3  -3  10 98.7496 3.38426  -2
  -3  -8   1 98.7496 3.38426   1
  -2  -8   1 253.295 6.09761   1
  -1  -8   1 2.93040 1.30780   1
   0  -8   1 5.01885 1.47496   1
   1  -8   1 205.025 5.89260   1
  -2  -5  12 794.141 15.9966  -2
   2  -8   1 794.141 15.9966   1
   3  -8   1 14.6387 1.62586   1
  -4  -6  13 11.3540 3.53879  -2
   4  -8   1 11.3540 3.53879   1
   8   0   6 596.718 28.2708  -2
  -8  -7   1 596.718 28.2708   1
  -7  -7   1 3.62077 2.43841   1
   6  -1   7 77.7626 4.27758  -2
  -6  -7   1 77.7626 4.27758   1
  -5  -7   1 115.019 3.96754   1
   4  -2   8 55.0604 2.49378  -2
  -4  -7   1 55.0604 2.49378   1
  -3  -7   1 0.91756 0.59658   1
   2  -3   9 1469.06 30.6695  -2
  -2  -7   1 1469.06 30.6695   1
  -1  -7   1 1746.83 55.1651   1
   0  -7   1 7.61330 1.11408   1
  -1  -4  10 65.1057 4.21916  -2
   1  -7   1 65.1057 4.21916   1
   2  -7   1 22.6796 1.10332   1
  -3  -5  11 38.9985 1.91029  -2
   3  -7   1 38.9985 1.91029   1
   4  -7   1 95.0457 3.84519   1
  -5  -6  12 245.584 12.9528  -2
   5  -7   1 245.584 12.9528   1
   8   0   5 5.52553 5.66924  -2
  -8  -6   1 5.52553 5.66924   1
  -7  -6   1 71.5729 4.01455   1
  -6  -6   1 118.520 5.05314   1
   5  -1   6 56.5738 2.78228  -2
  -5  -6   1 56.5738 2.78228   1
  -4  -6   1 33.4437 1.31922   1
   3  -2   7 187.983 4.18162  -2
  -3  -6   1 187.983 4.18162   1
  -2  -6   1 380.273 7.22612   1
  -1  -6   1 272.278 10.0636   1
   0  -6   1 626.486 20.7335   1
   1  -6   1 50.2670 2.18379   1
  -2  -4   9 106.981 3.01289  -2
   2  -6   1 106.981 3.01289   1
   3  -6   1 32.0796 1.42976   1
  -4  -5  10 272.146 7.97225  -2
   4  -6   1 272.146 7.97225   1
   5  -6   1 32.5181 2.49678   1
  -8  -5   1 3.01485 2.81539   1
  -7  -5   1 44.2353 2.70504   1
   6   0   4 312.564 15.6847  -2
  -6  -5   1 312.564 15.6847   1
  -5  -5   1 19.3839 1.38924   1
   4  -1   5 43.9719 1.83873  -2
  -4  -5   1 43.9719 1.83873   1
  -3  -5   1 241.736 4.45510   1
   2  -2   6 735.378 13.1326  -2
  -2  -5   1 735.378 13.1326   1
  -1  -5   1 2206.19 48.4659   1
   0  -5   1 235.173 8.51685   1
   1  -5   1 97.1298 3.05736   1
   2  -5   1 151.522 3.21006   1
  -3  -4   8 387.943 8.80063  -2
   3  -5   1 387.943 8.80063   1
   4  -5   1 10.1311 1.12826   1
  -5  -5   9 127.972 3.73160  -2
   5  -5   1 127.972 3.73160   1
   6  -5   1 0.96191 1.29019   1
  -9  -4   1 43.1199 6.35014   1
   8   1   2 535.475 25.3950  -2
  -8  -4   1 535.475 25.3950   1
  -7  -4   1 101.734 3.88785   1
  -6  -4   1 152.165 3.97332   1
   5   0   3 552.730 15.0980  -2
  -5  -4   1 552.730 15.0980   1
  -4  -4   1 8.23828 0.74956   1
   3  -1   4 2054.64 35.3917  -2
  -3  -4   1 2054.64 35.3917   1
  -2  -4   1 853.908 15.0185   1
   1  -2   5 2675.31 45.9222  -2
  -1  -4   1 2675.31 45.9222   1
   0  -4   1 27.3734 1.86240   1
   1  -4   1 61.7630 2.14084   1
   2  -4   1 879.812 18.2685   1
   3  -4   1 7.23533 0.90523   1
  -4  -4   7 42.3933 1.89052  -2
   4  -4   1 42.3933 1.89052   1
   5  -4   1 2.39362 0.88828   1
  -6  -5   8 991.329 25.3680  -2
   6  -4   1 991.329 25.3680   1
   7  -4   1 18.6127 2.37385   1
   9   2   0 1.40447 3.69730  -2
  -9  -3   1 1.40447 3.69730   1
  -8  -3   1 615.271 14.8333   1
   7   1   1 1036.82 27.2468  -2
  -7  -3   1 1036.82 27.2468   1
  -6  -3   1 0.51179 0.80165   1
  -5  -3   1 807.147 14.8238   1
   4   0   2 749.743 30.8784  -2
  -4  -3   1 749.743 30.8784   1
  -3  -3   1 428.941 6.75745   1
   2  -1   3 3132.26 48.7314  -2
  -2  -3   1 3132.26 48.7314   1
  -1  -3   1 489.908 8.62945   1
   0  -3   1 93.9215 3.66218   1
   1  -3   1 146.948 5.40148   1
   2  -3   1 1271.01 21.6467   1
   3  -3   1 55.3757 1.99557   1
   4  -3   1 132.721 2.75620   1
  -5  -4   6 85.7975 2.60907  -2
   5  -3   1 85.7975 2.60907   1
   6  -3   1 31.1148 1.93457   1
  -7  -5   7 539.446 15.1653  -2
   7  -3   1 539.446 15.1653   1
  -8  -2   1 14.9577 2.14665  -2
  -8  -2   1 14.9577 2.14665   1
  -7  -2   1 831.954 18.8627   1
   6   1   0 33.3054 3.24231  -2
  -6  -2   1 33.3054 3.24231   1
  -5  -2   1 0.09927 0.68729   1
  -4  -2   1 114.963 2.64689   1
   3   0   1 30.3095 2.17684  -2
  -3  -2   1 30.3095 2.17684   1
  -2  -2   1 334.318 5.20322   1
   1  -1   2 8460.88 122.905  -2
  -1  -2   1 8460.88 122.905   1
   0  -2   1 3411.64 74.9187   1
  -1  -2   3 107.118 4.52065  -2
   1  -2   1 107.118 4.52065   1
   2  -2   1 798.642 11.6488   1
   3  -2   1 240.996 3.58775   1
   4  -2   1 209.523 3.95270   1
   5  -2   1 234.860 5.03883   1
  -6  -4   5 479.289 10.3895  -2
   6  -2   1 479.289 10.3895   1
   7  -2   1 25.0958 1.86060   1
  -8  -5   6 69.2757 4.24249  -2
   8  -2   1 69.2757 4.24249   1
  -8  -1   1 142.079 5.84180   1
  -7  -2   2 6.48577 1.74977  -2
  -7  -1   1 6.48577 1.74977   1
  -6  -1   1 160.670 4.85741   1
  -5  -1   1 3.59773 3.34931  -2
  -5  -1   1 3.59773 3.34931   1
  -4  -1   1 722.105 12.0063   1
  -3  -1   1 0.07439 0.36127   1
   2   0   0 0.40097 1.11642  -2
  -2  -1   1 0.40097 1.11642   1
  -1  -1   1 2510.87 41.3378   1
   0  -1   1 3632.49 81.0827  -2
   0  -1   1 3632.49 81.0827   1
   1  -1   1 2914.12 41.8181   1
   2  -1   1 394.936 6.13869   1
   3  -1   1 160.839 2.55545   1
   4  -1   1 55.8060 1.59315   1
  -5  -3   3 404.016 17.8032  -2
   5  -1   1 404.016 17.8032   1
   6  -1   1 114.266 3.12153   1
  -7  -4   4 515.399 11.2853  -2
   7  -1   1 515.399 11.2853   1
   8  -1   1 63.9252 3.79569   1
  -8  -3   4 18.4685 2.65120  -2
  -8   0   1 18.4685 2.65120   1
  -7   0   1 47.4492 3.15134   1
  -6  -2   3 258.479 6.92397  -2
  -6   0   1 258.479 6.92397   1
  -5   0   1 716.071 13.0885   1
  -4  -1   2 440.473 13.4909  -2
  -4   0   1 440.473 13.4909   1
  -3   0   1 17.9547 0.69199   1
  -2   0   1 148.932 2.09313   1
  -1   0   1 9361.69 361.502  -2
  -1   0   1 9361.69 361.502   1
   1   1   0 1700.12 20.5205  -2
   1   0   1 1700.12 20.5205   1
   2   0   1 64.2907 1.12235   1
  -3  -2   1 30.5260 1.53523  -2
   3   0   1 30.5260 1.53523   1
   4   0   1 76.6063 1.70618   1
   5   0   1 73.6317 2.23401   1
  -6  -3   2 179.302 6.07171  -2
   6   0   1 179.302 6.07171   1
   7   0   1 3.16643 1.00295   1
  -8  -4   3 356.588 10.9749  -2
   8   0   1 356.588 10.9749   1
  -8   1   1 3.41522 1.47702   1
  -7  -3   5 229.291 7.76113  -2
  -7   1   1 229.291 7.76113   1
  -6   1   1 162.200 4.83840   1
  -5  -2   4 1773.91 30.7621  -2
  -5   1   1 1773.91 30.7621   1
  -4   1   1 61.7867 1.75009   1
  -3  -1   3 53.5677 4.06350  -2
  -3   1   1 53.5677 4.06350   1
  -2   1   1 4.89806 0.36708   1
  -1   1   1 342.889 5.40073   1
   0   1   1 200.674 3.30300   1
   1   1   1 63.0847 1.07664   1
   2   1   1 1001.76 12.1625  -2
   2   1   1 1001.76 12.1625   1
   3   1   1 16.5051 0.62662   1
   4   2   0 376.401 8.63666  -2
   4   1   1 376.401 8.63666   1
   5   2   0 358.512 16.3984  -2
   5   1   1 358.512 16.3984   1
   6   1   1 -0.5405 0.60173   1
  -7  -3   1 1029.53 26.7015  -2
   7   1   1 1029.53 26.7015   1
   8   1   1 79.0481 4.00687   1
  -7   2   1 262.071 8.61201   1
  -6  -3   6 419.073 9.32179  -2
  -6   2   1 419.073 9.32179   1
  -5   2   1 207.307 4.17849   1
  -4  -2   5 2363.52 40.4185  -2
  -4   2   1 2363.52 40.4185   1
  -3   2   1 271.815 4.55237   1
  -2   2   1 312.346 4.74937   1
  -1   2   1 256.340 4.48629   1
   1   0   3 36.7000 1.17587  -2
   1   2   1 36.7000 1.17587   1
   2   2   1 119.189 1.75876   1
   3   1   2 9913.64 118.199  -2
   3   2   1 9913.64 118.199   1
   4   2   1 92.1890 1.96379   1
   5   2   1 47.2087 2.81772  -2
   5   2   1 47.2087 2.81772   1
   6   2   1 30.4404 4.87351  -2
   6   2   1 30.4404 4.87351   1
   7   2   1 256.051 5.86958   1
   8   3   0 80.4145 3.92708  -2
   8   2   1 80.4145 3.92708   1
   9   2   1 116.651 9.00930   1
  -7  -4   8 283.226 15.7519  -2
  -7   3   1 283.226 15.7519   1
  -6   3   1 281.315 6.72195   1
  -5  -3   7 142.886 3.93226  -2
  -5   3   1 142.886 3.93226   1
  -4   3   1 31.2927 1.21985   1
  -3  -2   6 591.400 12.6608  -2
  -3   3   1 591.400 12.6608   1
  -2   3   1 601.628 10.4388   1
  -1   3   1 425.985 8.84384   1
   1   3   1 4008.64 68.1978   1
   2   0   4 23.7677 1.00414  -2
   2   3   1 23.7677 1.00414   1
   3   3   1 2405.15 34.9110   1
   4   1   3 1040.28 16.8638  -2
   4   3   1 1040.28 16.8638   1
   5   3   1 323.222 6.57877   1
   6   2   2 43.0112 5.49151  -2
   6   3   1 43.0112 5.49151   1
   7   2   2 16.6068 4.43021  -2
   7   3   1 16.6068 4.43021   1
   8   3   1 153.185 5.20611   1
   9   3   1 -4.5471 5.23778  -2
   9   3   1 -4.5471 5.23778   1
  -7   4   1 -0.8962 2.36718   1
  -6  -4   9 68.4759 2.83309  -2
  -6   4   1 68.4759 2.83309   1
  -5   4   1 41.4302 2.02398   1
  -4  -3   8 549.027 10.1934  -2
  -4   4   1 549.027 10.1934   1
  -3   4   1 32.2425 1.22692   1
  -2  -2   7 617.997 12.9840  -2
  -2   4   1 617.997 12.9840   1
  -1   4   1 511.091 10.5989   1
   0   4   1 1.88162 0.86030   1
   1  -1   6 2754.08 107.107  -2
   1   4   1 2754.08 107.107   1
   2   4   1 0.02683 0.20067   1
   3   0   5 21.3447 1.14449  -2
   3   4   1 21.3447 1.14449   1
   4   4   1 619.440 10.4339   1
   5   1   4 675.919 12.5968  -2
   5   4   1 675.919 12.5968   1
   6   4   1 0.10344 0.74614   1
   7   2   3 28.3950 5.08505  -2
   7   4   1 28.3950 5.08505   1
   8   4   1 42.1094 2.82669   1
   9   4   1 -2.3913 2.66833   1
  -6   5   1 -0.8284 1.96424   1
  -5  -4  10 96.2411 3.30657  -2
  -5   5   1 96.2411 3.30657   1
  -4   5   1 91.1777 3.40247   1
  -3  -3   9 1827.31 37.4378  -2
  -3   5   1 1827.31 37.4378   1
  -2   5   1 3.81815 0.63532   1
  -1  -2   8 173.202 4.72671  -2
  -1   5   1 173.202 4.72671   1
   0   5   1 37.5331 2.59249   1
   1   5   1 31.9852 1.03548   1
   2  -1   7 34.5399 2.02125  -2
   2   5   1 34.5399 2.02125   1
   3   5   1 94.2670 2.11587   1
   4   0   6 2.80900 0.69697  -2
   4   5   1 2.80900 0.69697   1
   5   5   1 206.028 4.31741   1
   6   1   5 -3.0556 1.56140  -2
   6   5   1 -3.0556 1.56140   1
   7   5   1 66.3700 3.07115   1
   8   5   1 34.7255 3.50227   1
   9   2   4 280.844 16.6877  -2
   9   5   1 280.844 16.6877   1
  -5   6   1 43.5985 3.02818   1
  -4  -4  11 870.465 21.7855  -2
  -4   6   1 870.465 21.7855   1
  -3   6   1 21.1289 1.36560   1
  -2  -3  10 3.81094 0.91320  -2
  -2   6   1 3.81094 0.91320   1
  -1   6   1 40.3887 1.20325   1
   0   6   1 264.402 9.98413   1
   1   6   1 0.75724 0.31199   1
   2   6   1 270.352 5.40402   1
   3  -1   8 597.212 12.4996  -2
   3   6   1 597.212 12.4996   1
   4   6   1 173.582 3.59659   1
   5   0   7 235.370 5.32941  -2
   5   6   1 235.370 5.32941   1
   6   6   1 300.638 7.85882   1
   7   1   6 13.4955 2.56103  -2
   7   6   1 13.4955 2.56103   1
   8   6   1 64.7911 6.29454   1
  -5   7   1 16.3255 3.27966   1
  -4   7   1 169.715 9.12314   1
  -3  -4  12 1308.37 31.8988  -2
  -3   7   1 1308.37 31.8988   1
  -2   7   1 587.545 10.6715   1
  -1  -3  11 551.580 9.97690  -2
  -1   7   1 551.580 9.97690   1
   0   7   1 6.69688 1.01804   1
   1  -2  10 209.119 8.76250  -2
   1   7   1 209.119 8.76250   1
   2   7   1 68.3207 2.21574   1
   3   7   1 281.061 5.82810   1
   4  -1   9 895.626 19.6644  -2
   4   7   1 895.626 19.6644   1
   5   7   1 566.538 13.2130   1
   6   0   8 274.840 8.94718  -2
   6   7   1 274.840 8.94718   1
   7   7   1 87.3092 7.02501   1
   8   1   7 209.644 13.0766  -2
   8   7   1 209.644 13.0766   1
  -4   8   1 0.67883 1.67026   1
  -3   8   1 37.3834 3.55190   1
  -2  -4  13 486.808 12.5916  -2
  -2   8   1 486.808 12.5916   1
  -1   8   1 0.81462 0.45997   1
   0  -3  12 468.025 16.9110  -2
   0   8   1 468.025 16.9110   1
   1   8   1 6.97783 0.61328   1
   2  -2  11 20.9486 2.53599  -2
   2   8   1 20.9486 2.53599   1
   3   8   1 0.04062 0.63447   1
   4   8   1 1156.44 25.0913   1
   5  -1  10 252.259 8.50397  -2
   5   8   1 252.259 8.50397   1
   6   8   1 55.0102 3.62891   1
   7   0   9 54.8470 6.21128  -2
   7   8   1 54.8470 6.21128   1
   8   8   1 147.846 10.2870   1
  -3   9   1 67.5081 4.89082   1
  -2   9   1 12.6417 2.02270   1
  -1  -4  14 129.573 6.07062  -2
  -1   9   1 129.573 6.07062   1
   0   9   1 65.4901 2.32918   1
   1  -3  13 15.2869 1.18485  -2
   1   9   1 15.2869 1.18485   1
   2   9   1 405.446 11.8285   1
   3   9   1 3.13150 1.31202   1
   4   9   1 15.7529 1.96888   1
   5   9   1 361.743 11.4049   1
   6  -1  11 280.901 14.6723  -2
   6   9   1 280.901 14.6723   1
   7   9   1 2.89117 2.61680   1
  -1  10   1 58.5549 3.60380   1
   0  -4  15 0.37406 1.31450  -2
   0  10   1 0.37406 1.31450   1
   1  10   1 11.5595 1.26352   1
   2  -3  14 359.532 15.4067  -2
   2  10   1 359.532 15.4067   1
   3  10   1 -0.4433 1.12222   1
   4  10   1 0.50481 1.53388   1
   5  10   1 6.88723 2.32481   1
   6  10   1 260.081 13.7270   1
   1  -4  16 69.9347 4.04683  -2
   1  11   1 69.9347 4.04683   1
   2  11   1 74.1107 4.50287   1
   3  -3  15 13.3713 3.12927  -2
   3  11   1 13.3713 3.12927   1
   4  11   1 24.4456 3.38668   1
   5  11   1 81.4078 6.20363   1
  -4 -11   2 15.0058 2.93385   1
  -3 -11   2 46.6314 4.08679   1
  -2 -11   2 269.650 12.0309   1
  -1 -11   2 2.04875 0.96699   1
   6  -3  11 252.101 13.6730  -2
  -6 -10   2 252.101 13.6730   1
  -5 -10   2 17.7406 3.28248   1
   4  -4  12 213.117 11.1179  -2
  -4 -10   2 213.117 11.1179   1
  -3 -10   2 72.4928 4.95491   1
  -2 -10   2 14.4155 2.04567   1
  -1 -10   2 2.45164 0.99359   1
   0 -10   2 -1.2827 1.37149   1
  -1  -6  14 57.6869 2.57321  -2
   1 -10   2 57.6869 2.57321   1
   7  -2   9 14.1723 5.27920  -2
  -7  -9   2 14.1723 5.27920   1
  -6  -9   2 30.3461 4.37132   1
   5  -3  10 15.6272 3.38788  -2
  -5  -9   2 15.6272 3.38788   1
  -4  -9   2 46.3032 3.16973   1
   3  -4  11 14.6523 3.13820  -2
  -3  -9   2 14.6523 3.13820   1
  -2  -9   2 557.700 15.9533   1
  -1  -9   2 126.843 3.86332   1
   0  -5  12 3.16413 3.12541  -2
   0  -9   2 3.16413 3.12541   1
   1  -9   2 3.85930 0.59505   1
  -2  -6  13 188.328 5.99904  -2
   2  -9   2 188.328 5.99904   1
   3  -9   2 93.5946 5.67935   1
  -7  -8   2 113.334 8.39958   1
   6  -2   8 25.2980 4.81798  -2
  -6  -8   2 25.2980 4.81798   1
  -5  -8   2 49.6014 3.32013   1
   4  -3   9 95.4167 4.24819  -2
  -4  -8   2 95.4167 4.24819   1
  -3  -8   2 405.563 9.58256   1
   2  -4  10 20.9861 1.89687  -2
  -2  -8   2 20.9861 1.89687   1
  -1  -8   2 121.866 3.11708   1
   0  -8   2 48.7976 2.40827   1
  -1  -5  11 360.561 13.2661  -2
   1  -8   2 360.561 13.2661   1
   2  -8   2 164.515 4.35052   1
  -3  -6  12 22.7229 2.11568  -2
   3  -8   2 22.7229 2.11568   1
   4  -8   2 78.6289 5.64996   1
  -7  -7   2 58.6546 5.90722   1
  -6  -7   2 77.5490 4.10279   1
   5  -2   7 21.3169 2.60585  -2
  -5  -7   2 21.3169 2.60585   1
  -4  -7   2 1.17480 0.73976   1
   3  -3   8 1214.77 21.6100  -2
  -3  -7   2 1214.77 21.6100   1
  -2  -7   2 491.161 9.24296   1
   1  -4   9 551.424 21.7672  -2
  -1  -7   2 551.424 21.7672   1
   0  -7   2 322.641 8.29417   1
   1  -7   2 100.616 3.48621   1
  -2  -5  10 19.9878 1.37433  -2
   2  -7   2 19.9878 1.37433   1
   3  -7   2 61.3850 2.42633   1
  -4  -6  11 85.6806 3.82287  -2
   4  -7   2 85.6806 3.82287   1
   5  -7   2 27.5975 3.95991   1
  -8  -6   2 -3.1967 2.25639   1
  -7  -6   2 3.55712 1.46717   1
   6  -1   5 289.335 15.0111  -2
  -6  -6   2 289.335 15.0111   1
  -5  -6   2 437.297 10.5831   1
   4  -2   6 519.584 9.01863  -2
  -4  -6   2 519.584 9.01863   1
  -3  -6   2 0.11799 0.53547   1
   2  -3   7 61.1211 1.86860  -2
  -2  -6   2 61.1211 1.86860   1
  -1  -6   2 1306.84 22.6284   1
   0  -6   2 23.8742 1.62758   1
   1  -6   2 96.5801 3.22649   1
   2  -6   2 3.80027 0.57573   1
  -3  -5   9 20.4281 1.72097  -2
   3  -6   2 20.4281 1.72097   1
   4  -6   2 63.0490 2.40292   1
  -5  -6  10 530.280 14.4791  -2
   5  -6   2 530.280 14.4791   1
   8   0   3 526.396 25.3268  -2
  -8  -5   2 526.396 25.3268   1
  -7  -5   2 160.169 5.37776   1
  -6  -5   2 44.6265 2.56147   1
   5  -1   4 1913.29 47.5951  -2
  -5  -5   2 1913.29 47.5951   1
  -4  -5   2 51.4300 1.90114   1
   3  -2   5 375.087 6.55339  -2
  -3  -5   2 375.087 6.55339   1
  -2  -5   2 405.138 7.58725   1
   1  -3   6 119.089 2.56327  -2
  -1  -5   2 119.089 2.56327   1
   0  -5   2 446.053 14.8772   1
  -1  -4   7 473.137 15.9764  -2
   1  -5   2 473.137 15.9764   1
   2  -5   2 722.318 12.7622   1
   3  -5   2 21.3172 1.15325   1
  -4  -5   8 3.52979 1.33658  -2
   4  -5   2 3.52979 1.33658   1
   5  -5   2 47.8467 2.16662   1
  -6  -6   9 449.794 12.8567  -2
   6  -5   2 449.794 12.8567   1
  -8  -4   2 23.7227 3.06349   1
   7   0   2 503.786 14.7966  -2
  -7  -4   2 503.786 14.7966   1
  -6  -4   2 182.096 5.41904   1
  -5  -4   2 308.300 6.48956   1
   4  -1   3 4.52664 1.81597  -2
  -4  -4   2 4.52664 1.81597   1
  -3  -4   2 940.013 16.7058   1
   2  -2   4 152.343 2.63046  -2
  -2  -4   2 152.343 2.63046   1
  -1  -4   2 1123.41 19.3987   1
   0  -3   5 1028.98 32.3321  -2
   0  -4   2 1028.98 32.3321   1
   1  -4   2 38.5986 1.60842   1
   2  -4   2 887.322 15.4288   1
   3  -4   2 568.820 12.3891   1
   4  -4   2 5.43852 0.80130   1
  -5  -5   7 4.19887 1.28449  -2
   5  -4   2 4.19887 1.28449   1
   6  -4   2 7.24816 1.70195   1
  -7  -6   8 751.932 20.2316  -2
   7  -4   2 751.932 20.2316   1
   8   1   0 621.575 20.0829  -2
  -8  -3   2 621.575 20.0829   1
  -7  -3   2 245.907 7.00240   1
   6   0   1 182.462 10.7114  -2
  -6  -3   2 182.462 10.7114   1
  -5  -3   2 130.933 3.44595   1
  -4  -3   2 14.0316 0.94851   1
   3  -1   2 955.604 23.9305  -2
  -3  -3   2 955.604 23.9305   1
  -2  -3   2 89.8202 1.91673   1
   1  -2   3 34.5337 1.00798  -2
  -1  -3   2 34.5337 1.00798   1
   0  -3   2 1282.55 28.0850   1
  -1  -3   4 403.521 8.62821  -2
   1  -3   2 403.521 8.62821   1
   2  -3   2 103.571 2.34387   1
   3  -3   2 576.757 10.3518   1
  -4  -4   5 3.03417 2.87995  -2
   4  -3   2 3.03417 2.87995   1
   5  -3   2 244.689 5.21454   1
  -6  -5   6 421.282 9.33908  -2
   6  -3   2 421.282 9.33908   1
   7  -3   2 9.02894 1.89565   1
  -8  -2   2 109.836 4.80107   1
  -7  -1   1 6.59221 1.93517  -2
  -7  -2   2 6.59221 1.93517   1
  -6  -2   2 118.935 3.39859   1
   5   0   0 13.0248 3.97341  -2
  -5  -2   2 13.0248 3.97341   1
  -4  -2   2 322.936 6.45532   1
  -3  -2   2 88.0007 1.89700   1
   2  -1   1 634.618 13.4999  -2
  -2  -2   2 634.618 13.4999   1
  -1  -2   2 775.317 11.3563   1
   0  -2   2 9217.61 176.087  -2
   0  -2   2 9217.61 176.087   1
   1  -2   2 178.452 2.91911   1
  -2  -3   3 979.123 38.4174  -2
   2  -2   2 979.123 38.4174   1
   3  -2   2 40.8637 1.19024   1
   4  -2   2 14.8613 0.89039   1
  -5  -4   4 262.673 12.9044  -2
   5  -2   2 262.673 12.9044   1
   6  -2   2 8.04660 1.13542   1
  -7  -5   5 168.815 6.39335  -2
   7  -2   2 168.815 6.39335   1
   8  -2   2 1.65881 1.50359   1
  -8  -2   3 5.33575 4.55375  -2
  -8  -1   2 5.33575 4.55375   1
  -7  -1   2 1.81289 1.08016   1
  -6  -1   2 0.96654 1.64560  -2
  -6  -1   2 0.96654 1.64560   1
  -5  -1   2 644.135 12.1064   1
  -4   0   1 425.161 18.6574  -2
  -4  -1   2 425.161 18.6574   1
  -3  -1   2 44.3683 1.21754   1
  -2  -1   2 2180.97 31.5773   1
  -1   1   0 571.817 16.0301  -2
  -1  -1   2 571.817 16.0301   1
   0  -1   2 1789.11 27.9656   1
  -1  -2   1 8526.17 122.428  -2
   1  -1   2 8526.17 122.428   1
   2  -1   2 201.866 3.47202   1
  -3  -3   2 923.701 19.3086  -2
   3  -1   2 923.701 19.3086   1
   4  -1   2 -0.1179 0.44112   1
   5  -1   2 432.454 7.59517   1
  -6  -4   3 98.7030 3.58234  -2
   6  -1   2 98.7030 3.58234   1
   7  -1   2 52.4343 2.53591   1
  -8  -5   4 22.5183 2.97733  -2
   8  -1   2 22.5183 2.97733   1
  -8   0   2 0.72219 1.39627   1
  -7  -2   4 261.771 8.68430  -2
  -7   0   2 261.771 8.68430   1
  -6   0   2 12.5230 1.51478   1
  -5  -1   3 1420.71 30.2009  -2
  -5   0   2 1420.71 30.2009   1
  -4   0   2 4622.64 83.5102   1
  -3   0   2 5.53150 2.51497  -2
  -3   0   2 5.53150 2.51497   1
  -2   0   2 83.2122 1.62083   1
  -1   0   2 105.802 2.07344   1
   0   0   2 397.326 5.80833   1
   1   0   2 250.640 3.14059   1
   2   2   0 1335.91 16.1197  -2
   2   0   2 1335.91 16.1197   1
   3   0   2 2.22018 0.34945   1
  -4  -3   1 709.881 15.2781  -2
   4   0   2 709.881 15.2781   1
  -5  -3   1 1511.07 60.1389  -2
   5   0   2 1511.07 60.1389   1
   6   0   2 119.041 3.18573   1
  -7  -4   2 496.290 11.0510  -2
   7   0   2 496.290 11.0510   1
   8   0   2 70.9430 3.04614   1
  -8  -3   6 149.974 10.9283  -2
  -8   1   2 149.974 10.9283   1
  -7   1   2 46.6753 3.29798   1
  -6  -2   5 222.100 7.41359  -2
  -6   1   2 222.100 7.41359   1
  -5   1   2 32.4485 2.01621   1
  -4  -1   4 1080.26 20.3717  -2
  -4   1   2 1080.26 20.3717   1
  -3   1   2 533.613 7.81722   1
  -2   1   2 32.6990 0.98262   1
  -1   1   2 631.166 10.4010   1
   0   1   2 1.28052 0.14987   1
   1   1   2 645.663 17.9948  -2
   1   1   2 645.663 17.9948   1
   2   1   2 21.3276 0.59131   1
   3   2   1 9999.99 119.098  -2
   3   1   2 9999.99 119.098   1
   4   1   2 628.882 9.28863   1
   5   3   0 38.8582 2.46968  -2
   5   1   2 38.8582 2.46968   1
   6   3   0 268.151 13.4566  -2
   6   1   2 268.151 13.4566   1
   7   1   2 173.190 3.81748   1
  -8  -4   1 517.381 14.8740  -2
   8   1   2 517.381 14.8740   1
  -7  -3   7 26.1949 3.24794  -2
  -7   2   2 26.1949 3.24794   1
  -6   2   2 227.924 7.59502   1
  -5  -2   6 464.064 10.8547  -2
  -5   2   2 464.064 10.8547   1
  -4   2   2 403.285 6.21537   1
  -3   2   2 55.3329 1.66084   1
  -2   2   2 993.102 14.3716   1
  -1   2   2 13.1750 0.45544   1
   0   2   2 0.32531 0.16792   1
   1   2   2 1529.01 21.0763   1
   2   1   3 2291.84 39.0650  -2
   2   2   2 2291.84 39.0650   1
   3   2   2 216.374 3.07058   1
   4   2   2 4595.83 68.0393  -2
   4   2   2 4595.83 68.0393   1
   5   2   2 15.3520 0.99247   1
   6   2   2 37.5343 1.62648   1
   7   3   1 15.0256 4.85073  -2
   7   2   2 15.0256 4.85073   1
   8   2   2 44.5237 2.87482   1
   9   4   0 50.8521 7.33979  -2
   9   2   2 50.8521 7.33979   1
  -7   3   2 97.5884 4.75603   1
  -6  -3   8 71.3593 4.18894  -2
  -6   3   2 71.3593 4.18894   1
  -5   3   2 0.36314 0.71996   1
  -4  -2   7 69.7922 1.64250  -2
  -4   3   2 69.7922 1.64250   1
  -3   3   2 658.641 10.5476   1
  -2  -1   6 2861.05 110.605  -2
  -2   3   2 2861.05 110.605   1
  -1   3   2 16.1761 0.72911   1
   0   3   2 281.340 7.92330   1
   1   3   2 1.31324 0.18564   1
   2   3   2 8.78490 0.50663   1
   3   1   4 2704.97 42.2915  -2
   3   3   2 2704.97 42.2915   1
   4   3   2 69.6104 1.67564   1
   5   2   3 455.550 7.70276  -2
   5   3   2 455.550 7.70276   1
   6   3   2 0.30625 0.69717   1
   7   3   2 892.239 38.0573  -2
   7   3   2 892.239 38.0573   1
   8   3   2 -5.2545 4.62412  -2
   8   3   2 -5.2545 4.62412   1
   9   3   2 3.36124 2.68067   1
  -6   4   2 1.47623 1.31822   1
  -5  -3   9 53.1071 2.46449  -2
  -5   4   2 53.1071 2.46449   1
  -4   4   2 622.896 13.5151   1
  -3  -2   8 44.6641 1.38416  -2
  -3   4   2 44.6641 1.38416   1
  -2   4   2 46.2895 1.52409   1
  -1  -1   7 1080.75 25.9500  -2
  -1   4   2 1080.75 25.9500   1
   0   4   2 54.1084 1.81055   1
   1   4   2 3.09787 0.48436   1
   2   0   6 898.182 35.5957  -2
   2   4   2 898.182 35.5957   1
   3   4   2 238.095 4.36374   1
   4   1   5 660.469 11.0607  -2
   4   4   2 660.469 11.0607   1
   5   4   2 7.49323 0.83783   1
   6   2   4 805.257 14.9887  -2
   6   4   2 805.257 14.9887   1
   7   4   2 15.7003 1.72493   1
   8   4   2 75.9029 3.53758   1
   9   3   3 -2.0022 5.86935  -2
   9   4   2 -2.0022 5.86935   1
  -6   5   2 5.79627 1.70358   1
  -5   5   2 10.1782 1.74872   1
  -4  -3  10 1124.79 27.5728  -2
  -4   5   2 1124.79 27.5728   1
  -3   5   2 819.883 17.2108   1
  -2  -2   9 257.371 5.78528  -2
  -2   5   2 257.371 5.78528   1
  -1   5   2 629.894 13.0746   1
   0   5   2 421.438 9.11565   1
   1   5   2 289.093 6.51554   1
   2   5   2 26.1985 1.23226   1
   3   0   7 174.464 4.44888  -2
   3   5   2 174.464 4.44888   1
   4   5   2 14.5965 0.95467   1
   5   1   6 430.562 8.49163  -2
   5   5   2 430.562 8.49163   1
   6   5   2 623.144 11.9908   1
   7   2   5 492.002 12.0364  -2
   7   5   2 492.002 12.0364   1
   8   5   2 289.174 9.68963   1
   9   3   4 13.4781 6.66052  -2
   9   5   2 13.4781 6.66052   1
  -5   6   2 0.71484 1.33853   1
  -4   6   2 27.9525 3.63311   1
  -3  -3  11 583.358 14.6796  -2
  -3   6   2 583.358 14.6796   1
  -2   6   2 259.968 5.89321   1
  -1  -2  10 14.1713 0.96463  -2
  -1   6   2 14.1713 0.96463   1
   0   6   2 0.49729 0.36794   1
   1  -1   9 1046.41 41.0021  -2
   1   6   2 1046.41 41.0021   1
   2   6   2 1.16160 0.52693   1
   3   6   2 0.25947 0.51802   1
   4   0   8 3314.65 56.9590  -2
   4   6   2 3314.65 56.9590   1
   5   6   2 51.6727 2.08403   1
   6   1   7 204.554 7.09589  -2
   6   6   2 204.554 7.09589   1
   7   6   2 274.911 9.15388   1
   8   2   6 249.197 14.3979  -2
   8   6   2 249.197 14.3979   1
  -4  -4  13 89.9133 6.96982  -2
  -4   7   2 89.9133 6.96982   1
  -3   7   2 68.3615 4.76430   1
  -2  -3  12 333.304 7.46446  -2
  -2   7   2 333.304 7.46446   1
  -1   7   2 141.738 3.10359   1
   0  -2  11 1315.82 27.4978  -2
   0   7   2 1315.82 27.4978   1
   1   7   2 4.87369 0.61140   1
   2   7   2 18.9166 1.19980   1
   3   7   2 33.1760 1.55688   1
   4   7   2 989.846 18.0150   1
   5   0   9 263.734 8.59093  -2
   5   7   2 263.734 8.59093   1
   6   7   2 13.3638 2.01515   1
   7   1   8 12.5586 3.28869  -2
   7   7   2 12.5586 3.28869   1
   8   7   2 74.3774 7.04053   1
  -4   8   2 4.78079 2.10087   1
  -3  -4  14 15.6635 3.87653  -2
  -3   8   2 15.6635 3.87653   1
  -2   8   2 48.5167 3.59856   1
  -1  -3  13 514.013 11.0528  -2
  -1   8   2 514.013 11.0528   1
   0   8   2 166.943 3.58034   1
   1  -2  12 99.2703 2.92303  -2
   1   8   2 99.2703 2.92303   1
   2   8   2 2.45657 0.73130   1
   3   8   2 39.9582 2.28942   1
   4   8   2 68.5090 3.00926   1
   5   8   2 18.3966 2.11815   1
   6   0  10 99.3942 7.56914  -2
   6   8   2 99.3942 7.56914   1
   7   8   2 37.2376 5.15337   1
   8   1   9 -1.7665 3.53135  -2
   8   8   2 -1.7665 3.53135   1
  -3   9   2 70.9894 5.14865   1
  -2  -4  15 92.2779 5.85609  -2
  -2   9   2 92.2779 5.85609   1
  -1   9   2 56.2741 3.57227   1
   0  -3  14 171.120 5.18419  -2
   0   9   2 171.120 5.18419   1
   1   9   2 52.9716 2.23167   1
   2  -2  13 158.994 7.87179  -2
   2   9   2 158.994 7.87179   1
   3   9   2 1.11171 1.23789   1
   4   9   2 172.359 9.09794   1
   5   9   2 17.2270 2.42268   1
   6   9   2 71.7533 6.12664   1
   7   0  11 321.628 17.0381  -2
   7   9   2 321.628 17.0381   1
  -1  -4  16 16.5228 2.88200  -2
  -1  10   2 16.5228 2.88200   1
   0  10   2 238.407 10.4893   1
   1  -3  15 651.662 26.4176  -2
   1  10   2 651.662 26.4176   1
   2  10   2 39.8371 3.20955   1
   3  -2  14 12.6533 3.06003  -2
   3  10   2 12.6533 3.06003   1
   4  10   2 1.66160 1.55203   1
   5  10   2 3.69367 1.99475   1
   6  -1  13 33.4810 5.62742  -2
   6  10   2 33.4810 5.62742   1
   1  11   2 126.888 6.40498   1
   2  -3  16 157.213 7.89616  -2
   2  11   2 157.213 7.89616   1
   3  11   2 31.4991 3.39201   1
   4  -2  15 17.7642 3.97376  -2
   4  11   2 17.7642 3.97376   1
   5  11   2 112.680 7.52812   1
  -4 -11   3 27.1693 3.81103   1
  -3 -11   3 10.7063 2.36785   1
  -2 -11   3 176.273 8.70151   1
   1  -6  14 147.854 8.23453  -2
  -1 -11   3 147.854 8.23453   1
  -6 -10   3 15.2156 3.60983   1
   5  -4  11 17.1716 3.84321  -2
  -5 -10   3 17.1716 3.84321   1
  -4 -10   3 1.59608 1.82796   1
   3  -5  12 433.123 19.0396  -2
  -3 -10   3 433.123 19.0396   1
  -2 -10   3 29.9504 2.97325   1
  -1 -10   3 46.9010 2.51425   1
   0  -6  13 65.0100 5.37179  -2
   0 -10   3 65.0100 5.37179   1
   1 -10   3 125.800 4.44147   1
  -7  -9   3 80.5527 7.25999   1
   6  -3   9 40.5870 5.63207  -2
  -6  -9   3 40.5870 5.63207   1
  -5  -9   3 -0.8106 1.73111   1
   4  -4  10 23.1363 2.55585  -2
  -4  -9   3 23.1363 2.55585   1
  -3  -9   3 369.871 10.9254   1
  -2  -9   3 532.117 21.9883   1
  -1  -9   3 94.7614 2.48427   1
   0  -9   3 3.99478 1.20448   1
  -1  -6  12 370.230 10.4066  -2
   1  -9   3 370.230 10.4066   1
   2  -9   3 7.48324 1.27820   1
  -3  -7  13 28.3620 3.23027  -2
   3  -9   3 28.3620 3.23027   1
   7  -2   7 129.088 10.1342  -2
  -7  -8   3 129.088 10.1342   1
  -6  -8   3 77.6739 6.43508   1
   5  -3   8 147.294 5.93936  -2
  -5  -8   3 147.294 5.93936   1
  -4  -8   3 11.0760 1.70208   1
   3  -4   9 447.718 10.5117  -2
  -3  -8   3 447.718 10.5117   1
  -2  -8   3 106.572 2.77228   1
   1  -5  10 495.764 19.8175  -2
  -1  -8   3 495.764 19.8175   1
   0  -8   3 94.5310 3.54439   1
   1  -8   3 43.1244 1.37336   1
  -2  -6  11 4.76822 1.79930  -2
   2  -8   3 4.76822 1.79930   1
   3  -8   3 8.22798 1.44679   1
  -4  -7  12 7.39017 2.81511  -2
   4  -8   3 7.39017 2.81511   1
  -8  -7   3 3.73737 3.11042   1
  -7  -7   3 36.2491 5.24432   1
   6  -2   6 270.606 14.5635  -2
  -6  -7   3 270.606 14.5635   1
  -5  -7   3 726.994 19.7691   1
   4  -3   7 18.0817 1.77412  -2
  -4  -7   3 18.0817 1.77412   1
  -3  -7   3 249.207 5.34414   1
   2  -4   8 148.667 3.47064  -2
  -2  -7   3 148.667 3.47064   1
  -1  -7   3 180.990 3.82335   1
   0  -7   3 6.10154 1.38787   1
  -1  -5   9 142.115 7.09155  -2
   1  -7   3 142.115 7.09155   1
   2  -7   3 13.2937 0.90512   1
  -3  -6  10 19.6674 2.31314  -2
   3  -7   3 19.6674 2.31314   1
   4  -7   3 13.8500 1.83245   1
  -5  -7  11 255.017 13.0509  -2
   5  -7   3 255.017 13.0509   1
   8  -1   4 -0.6798 5.80346  -2
  -8  -6   3 -0.6798 5.80346   1
  -7  -6   3 30.5427 4.69115   1
  -6  -6   3 161.908 6.29330   1
   5  -2   5 600.798 16.6164  -2
  -5  -6   3 600.798 16.6164   1
  -4  -6   3 197.788 4.05607   1
   3  -3   6 13.7408 1.22255  -2
  -3  -6   3 13.7408 1.22255   1
  -2  -6   3 160.480 3.57683   1
   1  -4   7 221.461 4.45966  -2
  -1  -6   3 221.461 4.45966   1
   0  -6   3 443.679 10.7256   1
  -1  -5   8 380.904 10.3054  -2
   1  -6   3 380.904 10.3054   1
  -2  -5   8 377.958 13.8088  -2
   2  -6   3 377.958 13.8088   1
   3  -6   3 67.0745 1.99146   1
  -4  -6   9 34.1124 2.85630  -2
   4  -6   3 34.1124 2.85630   1
   5  -6   3 57.8041 3.33227   1
  -8  -5   3 88.1894 7.81741   1
   7  -1   3 30.0328 3.54142  -2
  -7  -5   3 30.0328 3.54142   1
  -6  -5   3 497.493 12.0086   1
  -5  -5   3 280.303 6.11912   1
   4  -2   4 137.210 4.06530  -2
  -4  -5   3 137.210 4.06530   1
  -3  -5   3 22.7704 1.00671   1
   2  -3   5 650.284 11.7517  -2
  -2  -5   3 650.284 11.7517   1
  -1  -5   3 396.117 7.29577   1
   0  -4   6 613.809 19.9693  -2
   0  -5   3 613.809 19.9693   1
   1  -5   3 158.811 3.21408   1
   2  -5   3 15.0436 0.87501   1
  -3  -5   7 919.214 29.7516  -2
   3  -5   3 919.214 29.7516   1
   4  -5   3 64.0693 1.86645   1
  -5  -6   8 18.5635 2.61721  -2
   5  -5   3 18.5635 2.61721   1
   6  -5   3 44.5683 3.34045   1
   8   0   1 368.562 18.9028  -2
  -8  -4   3 368.562 18.9028   1
  -7  -4   3 -0.0707 0.99089   1
   6  -1   2 98.9138 7.78325  -2
  -6  -4   3 98.9138 7.78325   1
  -5  -4   3 327.068 6.85766   1
  -4  -4   3 67.3723 1.96438   1
   3  -2   3 681.999 17.5927  -2
  -3  -4   3 681.999 17.5927   1
  -2  -4   3 1038.33 15.3401   1
   1  -3   4 1072.98 18.6282  -2
  -1  -4   3 1072.98 18.6282   1
   0  -4   3 16.0676 0.67466   1
  -1  -4   5 141.486 2.88619  -2
   1  -4   3 141.486 2.88619   1
   2  -4   3 1908.86 32.5137   1
   3  -4   3 225.371 4.55338   1
   4  -4   3 1.87461 0.64685   1
   5  -4   3 40.3854 1.88030   1
  -6  -6   7 197.688 7.03247  -2
   6  -4   3 197.688 7.03247   1
   7  -4   3 2.74841 1.56082   1
  -8  -3   3 125.487 6.35558   1
   7   0   0 101.582 4.08447  -2
  -7  -3   3 101.582 4.08447   1
  -6  -3   3 202.258 5.90184   1
   5  -1   1 429.410 19.6646  -2
  -5  -3   3 429.410 19.6646   1
  -4  -3   3 4.25624 0.69623   1
  -3  -3   3 253.424 4.68654   1
   2  -2   2 1022.39 21.4278  -2
  -2  -3   3 1022.39 21.4278   1
  -1  -3   3 3.50631 0.28026   1
   0  -3   3 491.813 8.64877  -2
   0  -3   3 491.813 8.64877   1
   1  -3   3 41.2930 1.11599   1
  -2  -4   4 2089.68 42.6483  -2
   2  -3   3 2089.68 42.6483   1
   3  -3   3 239.746 4.71712   1
   4  -3   3 9.36488 0.64420   1
  -5  -5   5 132.681 8.44871  -2
   5  -3   3 132.681 8.44871   1
   6  -3   3 55.7865 2.33626   1
  -7  -6   6 16.2658 2.89857  -2
   7  -3   3 16.2658 2.89857   1
  -8  -1   2 8.64003 4.20959  -2
  -8  -2   3 8.64003 4.20959   1
  -7  -2   3 4.17824 1.23686   1
  -6   0   1 247.473 6.87537  -2
  -6  -2   3 247.473 6.87537   1
  -5  -2   3 969.417 17.6704   1
  -4   1   0 1570.42 62.5145  -2
  -4  -2   3 1570.42 62.5145   1
  -3  -2   3 142.239 2.76213   1
  -2  -2   3 1460.71 23.0526   1
   1  -2   1 98.0445 2.57598  -2
  -1  -2   3 98.0445 2.57598   1
   0  -2   3 2579.71 37.1603   1
  -1  -3   2 30.9321 0.67521  -2
   1  -2   3 30.9321 0.67521   1
   2  -2   3 431.481 5.90573   1
  -3  -4   3 656.816 16.3494  -2
   3  -2   3 656.816 16.3494   1
   4  -2   3 81.6447 1.95957   1
   5  -2   3 509.497 9.59668   1
  -6  -5   4 1046.44 20.9482  -2
   6  -2   3 1046.44 20.9482   1
   7  -2   3 93.8537 4.52614   1
  -8  -6   5 25.3552 2.94371  -2
   8  -2   3 25.3552 2.94371   1
  -8  -1   3 95.6730 7.82345   1
  -7  -1   3 0.25477 1.72553  -2
  -7  -1   3 0.25477 1.72553   1
  -6  -1   3 -0.7766 0.89367   1
  -5   0   2 1410.90 30.1041  -2
  -5  -1   3 1410.90 30.1041   1
  -4  -1   3 2814.03 48.3942   1
  -3  -1   3 22.1907 0.92606   1
  -2  -1   3 2.16561 0.41476   1
  -1  -1   3 204.308 3.73268   1
   0   2   0 7450.14 203.860  -2
   0  -1   3 7450.14 203.860   1
   1  -1   3 8.31697 0.49859   1
  -2  -3   1 3089.35 40.2903  -2
   2  -1   3 3089.35 40.2903   1
   3  -1   3 1355.06 21.3021   1
  -4  -4   2 4.09166 1.09236  -2
   4  -1   3 4.09166 1.09236   1
   5  -1   3 28.2791 1.31253   1
   6  -1   3 520.844 9.95598   1
  -7  -5   3 28.3076 2.32952  -2
   7  -1   3 28.3076 2.32952   1
   8  -1   3 162.901 6.54237   1
  -8  -2   5 152.013 10.9923  -2
  -8   0   3 152.013 10.9923   1
  -7   0   3 14.2239 2.08731   1
  -6  -1   4 24.2096 2.06637  -2
  -6   0   3 24.2096 2.06637   1
  -5   0   3 1982.23 41.6047   1
  -4   0   3 15.6747 1.93421  -2
  -4   0   3 15.6747 1.93421   1
  -3   0   3 585.496 9.67577   1
  -2   0   3 65.1412 1.65585   1
  -1   0   3 582.783 9.86679   1
   0   0   3 41.9116 1.03139   1
   1   2   1 36.1700 1.63343  -2
   1   0   3 36.1700 1.63343   1
   2   0   3 2.29253 0.24602   1
   3   3   0 744.241 10.0599  -2
   3   0   3 744.241 10.0599   1
   4   0   3 375.883 5.79095   1
  -5  -4   1 531.932 13.9271  -2
   5   0   3 531.932 13.9271   1
  -6  -4   1 190.467 10.2993  -2
   6   0   3 190.467 10.2993   1
   7   0   3 66.8337 2.75069   1
  -8  -5   2 492.678 14.6668  -2
   8   0   3 492.678 14.6668   1
  -8   1   3 16.1368 3.76735   1
  -7  -2   6 304.920 10.0464  -2
  -7   1   3 304.920 10.0464   1
  -6   1   3 6.09020 1.47348   1
  -5  -1   5 236.873 6.37067  -2
  -5   1   3 236.873 6.37067   1
  -4   1   3 353.632 6.32119   1
  -3   0   4 25.1209 1.72249  -2
  -3   1   3 25.1209 1.72249   1
  -2   1   3 186.402 3.49264   1
  -1   1   3 18.8596 0.88025   1
   0   1   3 9.26933 0.39014   1
   1   1   3 270.811 4.72904   1
   2   2   2 2335.00 39.7590  -2
   2   1   3 2335.00 39.7590   1
   3   1   3 2764.49 36.0495   1
   4   3   1 1031.79 14.7994  -2
   4   1   3 1031.79 14.7994   1
   5   1   3 207.326 3.93684   1
   6   4   0 367.150 13.1360  -2
   6   1   3 367.150 13.1360   1
   7   4   0 -2.6631 3.87317  -2
   7   1   3 -2.6631 3.87317   1
   8   1   3 5.37403 1.24070   1
  -7   2   3 110.098 5.07375   1
  -6  -2   7 8.43136 2.68288  -2
  -6   2   3 8.43136 2.68288   1
  -5   2   3 66.2057 2.79379   1
  -4  -1   6 257.032 4.82323  -2
  -4   2   3 257.032 4.82323   1
  -3   2   3 449.661 8.67899   1
  -2   0   5 52.9648 3.73165  -2
  -2   2   3 52.9648 3.73165   1
  -1   2   3 3135.85 70.1104   1
   0   2   3 -0.0066 0.14260   1
   1   2   3 184.828 2.68087   1
   2   2   3 19.0087 0.61280   1
   3   2   3 5400.86 77.6583  -2
   3   2   3 5400.86 77.6583   1
   4   2   3 22.8096 1.02955   1
   5   3   2 460.924 7.73062  -2
   5   2   3 460.924 7.73062   1
   6   2   3 50.9704 1.78025   1
   7   4   1 28.1327 5.38249  -2
   7   2   3 28.1327 5.38249   1
   8   4   1 81.9719 7.91334  -2
   8   2   3 81.9719 7.91334   1
   9   2   3 35.7936 5.48208   1
  -7   3   3 144.123 6.07252   1
  -6   3   3 0.34296 1.20390   1
  -5  -2   8 7.77645 2.54368  -2
  -5   3   3 7.77645 2.54368   1
  -4   3   3 432.115 7.50503   1
  -3  -1   7 495.006 9.44825  -2
  -3   3   3 495.006 9.44825   1
  -2   3   3 127.393 2.43241   1
  -1   0   6 4551.47 175.131  -2
  -1   3   3 4551.47 175.131   1
   0   3   3 500.562 9.09981   1
   1   3   3 1434.14 20.7215   1
   2   1   5 913.938 36.3149  -2
   2   3   3 913.938 36.3149   1
   3   3   3 52.0373 1.25563   1
   4   2   4 951.338 13.7888  -2
   4   3   3 951.338 13.7888   1
   5   3   3 5.90585 0.73624   1
   6   3   3 2573.80 38.8931  -2
   6   3   3 2573.80 38.8931   1
   7   3   3 13.4670 1.18845   1
   8   4   2 154.856 10.6212  -2
   8   3   3 154.856 10.6212   1
   9   3   3 6.00550 1.83904   1
  -6   4   3 29.2211 2.77620   1
  -5   4   3 7.44121 1.61189   1
  -4  -2   9 64.5141 3.74085  -2
  -4   4   3 64.5141 3.74085   1
  -3   4   3 1060.71 21.9860   1
  -2  -1   8 126.219 3.03504  -2
  -2   4   3 126.219 3.03504   1
  -1   4   3 32.3964 0.99781   1
   0   4   3 448.010 9.34363   1
   1   4   3 858.409 14.8970   1
   2   4   3 47.9433 1.14826   1
   3   1   6 70.3412 2.40635  -2
   3   4   3 70.3412 2.40635   1
   4   4   3 844.147 13.8988   1
   5   2   5 283.413 5.93040  -2
   5   4   3 283.413 5.93040   1
   6   4   3 197.318 4.67623   1
   7   3   4 565.038 13.4256  -2
   7   4   3 565.038 13.4256   1
   8   4   3 37.5451 2.63935   1
  -6   5   3 32.7026 3.02513   1
  -5  -3  11 12.0554 4.84550  -2
  -5   5   3 12.0554 4.84550   1
  -4   5   3 252.666 12.3906   1
  -3  -2  10 108.571 2.92866  -2
  -3   5   3 108.571 2.92866   1
  -2   5   3 67.3660 1.86923   1
  -1  -1   9 19.5792 0.97606  -2
  -1   5   3 19.5792 0.97606   1
   0   5   3 46.0969 1.93321   1
   1   0   8 451.812 18.5133  -2
   1   5   3 451.812 18.5133   1
   2   5   3 266.475 5.26351   1
   3   5   3 2.51344 0.48390   1
   4   1   7 660.129 13.7293  -2
   4   5   3 660.129 13.7293   1
   5   5   3 152.812 3.78311   1
   6   2   6 232.054 5.31509  -2
   6   5   3 232.054 5.31509   1
   7   5   3 199.993 5.96434   1
   8   3   5 45.7841 3.69731  -2
   8   5   3 45.7841 3.69731   1
   9   5   3 147.029 10.6161   1
  -5   6   3 3.79664 1.53208   1
  -4  -3  12 196.552 10.7693  -2
  -4   6   3 196.552 10.7693   1
  -3   6   3 23.3923 1.24027   1
  -2  -2  11 25.4086 1.22257  -2
  -2   6   3 25.4086 1.22257   1
  -1   6   3 274.351 6.05935   1
   0  -1  10 1329.49 36.6474  -2
   0   6   3 1329.49 36.6474   1
   1   6   3 23.3096 1.02373   1
   2   0   9 564.572 23.2078  -2
   2   6   3 564.572 23.2078   1
   3   6   3 180.615 4.10946   1
   4   6   3 135.766 3.02640   1
   5   1   8 520.699 10.2418  -2
   5   6   3 520.699 10.2418   1
   6   6   3 386.981 9.61243   1
   7   2   7 8.81234 1.88155  -2
   7   6   3 8.81234 1.88155   1
   8   6   3 2.00411 2.51529   1
  -4   7   3 20.9256 3.15608   1
  -3  -3  13 39.0000 4.56417  -2
  -3   7   3 39.0000 4.56417   1
  -2   7   3 41.3331 3.33833   1
  -1  -2  12 1199.17 24.6628  -2
  -1   7   3 1199.17 24.6628   1
   0   7   3 72.4721 1.91755   1
   1  -1  11 498.706 11.1279  -2
   1   7   3 498.706 11.1279   1
   2   7   3 479.145 10.7996   1
   3   7   3 430.757 9.99741   1
   4   7   3 124.410 3.44682   1
   5   7   3 50.9185 2.52252   1
   6   1   9 18.9359 2.70177  -2
   6   7   3 18.9359 2.70177   1
   7   7   3 45.4032 3.67625   1
   8   2   8 20.6190 4.60097  -2
   8   7   3 20.6190 4.60097   1
  -3  -3  14 4.40143 3.85117  -2
  -3   8   3 4.40143 3.85117   1
  -2  -3  14 5.60426 3.07856  -2
  -2   8   3 5.60426 3.07856   1
  -1   8   3 52.2548 2.19377   1
   0  -2  13 1709.30 34.9880  -2
   0   8   3 1709.30 34.9880   1
   1   8   3 141.138 4.70889   1
   2  -1  12 34.7877 2.18252  -2
   2   8   3 34.7877 2.18252   1
   3   8   3 4.25586 1.08099   1
   4   8   3 281.173 13.2493   1
   5   8   3 139.903 5.54776   1
   6   8   3 3.55879 1.52368   1
   7   1  10 523.635 24.6173  -2
   7   8   3 523.635 24.6173   1
   8   8   3 0.83059 2.54660   1
  -2   9   3 156.554 8.17657   1
  -1  -3  15 17.6239 2.92946  -2
  -1   9   3 17.6239 2.92946   1
   0   9   3 76.7306 2.95593   1
   1  -2  14 851.312 34.2207  -2
   1   9   3 851.312 34.2207   1
   2   9   3 192.638 9.22807   1
   3  -1  13 370.107 16.5302  -2
   3   9   3 370.107 16.5302   1
   4   9   3 42.6084 3.94952   1
   5   9   3 5.21535 2.01351   1
   6   9   3 86.9918 6.71399   1
   7   9   3 518.379 24.3357   1
  -1  10   3 3.82839 1.52060   1
   0  -3  16 28.6064 3.22830  -2
   0  10   3 28.6064 3.22830   1
   1  10   3 16.1008 2.21168   1
   2  -2  15 534.966 22.4921  -2
   2  10   3 534.966 22.4921   1
   3  10   3 117.494 6.74961   1
   4  -1  14 110.301 7.36108  -2
   4  10   3 110.301 7.36108   1
   5  10   3 182.621 10.2604   1
   6  10   3 12.1129 3.12853   1
   1  -3  17 267.058 12.2095  -2
   1  11   3 267.058 12.2095   1
   2  11   3 79.3420 5.08760   1
   3  -2  16 18.4388 2.88040  -2
   3  11   3 18.4388 2.88040   1
   4  11   3 1.75112 1.64818   1
   5  -1  15 35.9270 5.35978  -2
   5  11   3 35.9270 5.35978   1
  -3 -11   4 355.851 16.3263   1
  -2 -11   4 20.6391 2.15640   1
  -5 -10   4 26.6706 4.27874   1
   4  -5  11 8.69815 3.14236  -2
  -4 -10   4 8.69815 3.14236   1
  -3 -10   4 53.1555 3.40760   1
   2  -6  12 208.874 10.1626  -2
  -2 -10   4 208.874 10.1626   1
  -1 -10   4 7.72704 1.34082   1
   0 -10   4 5.79813 1.15689   1
  -1  -7  13 146.928 5.32197  -2
   1 -10   4 146.928 5.32197   1
  -6  -9   4 221.167 12.7524   1
   5  -4   9 25.4427 4.59145  -2
  -5  -9   4 25.4427 4.59145   1
  -4  -9   4 22.7554 2.46527   1
   3  -5  10 263.363 8.41643  -2
  -3  -9   4 263.363 8.41643   1
  -2  -9   4 94.0412 4.02826   1
  -1  -9   4 86.6298 3.45340   1
   0  -9   4 -0.7223 0.59664   1
   1  -9   4 40.3539 2.33608   1
  -2  -7  12 388.446 11.1428  -2
   2  -9   4 388.446 11.1428   1
  -7  -8   4 59.5354 6.73182   1
   6  -3   7 5.82539 5.09450  -2
  -6  -8   4 5.82539 5.09450   1
  -5  -8   4 131.587 5.56684   1
   4  -4   8 296.283 9.30072  -2
  -4  -8   4 296.283 9.30072   1
  -3  -8   4 2.55466 1.14954   1
   2  -5   9 200.761 4.52930  -2
  -2  -8   4 200.761 4.52930   1
  -1  -8   4 10.0327 0.89744   1
   0  -6  10 97.4040 6.14762  -2
   0  -8   4 97.4040 6.14762   1
   1  -8   4 310.873 5.51602   1
   2  -8   4 14.7493 1.62743   1
  -3  -7  11 6.79648 2.26378  -2
   3  -8   4 6.79648 2.26378   1
   4  -8   4 21.8465 2.31447   1
  -7  -7   4 177.212 11.2561   1
  -6  -7   4 799.662 22.1291   1
   5  -3   6 6.27234 2.72969  -2
  -5  -7   4 6.27234 2.72969   1
  -4  -7   4 107.676 3.70481   1
   3  -4   7 24.1056 1.52697  -2
  -3  -7   4 24.1056 1.52697   1
  -2  -7   4 22.0540 1.24416   1
   1  -5   8 264.930 6.26716  -2
  -1  -7   4 264.930 6.26716   1
   0  -7   4 199.783 4.09675   1
  -1  -6   9 26.2215 2.24893  -2
   1  -7   4 26.2215 2.24893   1
  -2  -6   9 52.6287 3.18092  -2
   2  -7   4 52.6287 3.18092   1
   3  -7   4 9.20556 1.48853   1
  -4  -7  10 170.076 6.20465  -2
   4  -7   4 170.076 6.20465   1
   5  -7   4 5.04414 1.67992   1
  -8  -6   4 105.301 8.82163   1
   7  -2   4 32.0741 6.34221  -2
  -7  -6   4 32.0741 6.34221   1
  -6  -6   4 15.9146 2.20815   1
  -5  -6   4 778.200 20.9416   1
   4  -3   5 333.857 7.05483  -2
  -4  -6   4 333.857 7.05483   1
  -3  -6   4 17.0738 1.19156   1
   2  -4   6 120.606 2.94162  -2
  -2  -6   4 120.606 2.94162   1
  -1  -6   4 11.3452 0.80958   1
   0  -5   7 580.053 12.3813  -2
   0  -6   4 580.053 12.3813   1
   1  -6   4 813.388 14.3416   1
  -2  -6   8 520.503 18.2716  -2
   2  -6   4 520.503 18.2716   1
   3  -6   4 47.0958 1.67966   1
   4  -6   4 182.970 6.28085   1
  -5  -7   9 104.028 4.78301  -2
   5  -6   4 104.028 4.78301   1
   8  -1   2 16.3040 4.88952  -2
  -8  -5   4 16.3040 4.88952   1
  -7  -5   4 40.7570 5.28909   1
   6  -2   3 1092.56 45.9012  -2
  -6  -5   4 1092.56 45.9012   1
  -5  -5   4 175.415 5.16737   1
  -4  -5   4 54.8469 1.82284   1
   3  -3   4 18.6753 1.48227  -2
  -3  -5   4 18.6753 1.48227   1
  -2  -5   4 1473.19 25.6549   1
   1  -4   5 0.06300 0.51465  -2
  -1  -5   4 0.06300 0.51465   1
   0  -5   4 157.119 2.87980   1
  -1  -5   6 73.8810 1.96125  -2
   1  -5   4 73.8810 1.96125   1
   2  -5   4 1280.40 22.1396   1
   3  -5   4 7.84603 0.73626   1
  -4  -6   7 148.541 5.76045  -2
   4  -5   4 148.541 5.76045   1
   5  -5   4 34.1081 2.78353   1
  -6  -7   8 18.9077 2.93845  -2
   6  -5   4 18.9077 2.93845   1
  -8  -4   4 0.64302 2.71197   1
   7  -1   1 525.544 12.9620  -2
  -7  -4   4 525.544 12.9620   1
  -6  -4   4 94.5438 3.66171   1
   5  -2   2 282.074 9.06033  -2
  -5  -4   4 282.074 9.06033   1
  -4  -4   4 82.0174 2.24604   1
  -3  -4   4 26.1386 1.15817   1
   2  -3   3 2184.26 45.0163  -2
  -2  -4   4 2184.26 45.0163   1
  -1  -4   4 186.663 3.76907   1
   0  -4   4 97.3170 1.92447  -2
   0  -4   4 97.3170 1.92447   1
   1  -4   4 384.111 6.99936   1
  -2  -5   5 389.339 7.20205  -2
   2  -4   4 389.339 7.20205   1
   3  -4   4 640.949 9.98240   1
   4  -4   4 349.350 5.81906   1
  -5  -6   6 126.806 3.65826  -2
   5  -4   4 126.806 3.65826   1
   6  -4   4 97.5600 4.55422   1
  -7  -7   7 49.6233 3.87096  -2
   7  -4   4 49.6233 3.87096   1
  -8   0   1 15.9031 3.46307  -2
  -8  -3   4 15.9031 3.46307   1
  -7  -3   4 98.5081 4.02952   1
  -6   1   0 145.968 4.88093  -2
  -6  -3   4 145.968 4.88093   1
  -5  -3   4 18.0575 1.37249   1
   4  -2   1 765.048 32.0327  -2
  -4  -3   4 765.048 32.0327   1
  -3  -3   4 187.665 3.73690   1
  -2  -3   4 13.3540 0.70255   1
   1  -3   2 410.665 7.90231  -2
  -1  -3   4 410.665 7.90231   1
   0  -3   4 210.564 3.97360   1
  -1  -4   3 1075.44 18.5263  -2
   1  -3   4 1075.44 18.5263   1
   2  -3   4 1307.34 22.3982   1
  -3  -5   4 17.4563 0.99091  -2
   3  -3   4 17.4563 0.99091   1
   4  -3   4 134.506 2.70167   1
   5  -3   4 6.79396 0.81340   1
  -6  -6   5 339.066 10.6107  -2
   6  -3   4 339.066 10.6107   1
   7  -3   4 20.1995 2.54630   1
  -8  -2   4 35.8277 5.19551   1
  -7   0   2 267.452 7.61916  -2
  -7  -2   4 267.452 7.61916   1
  -6  -2   4 45.5888 2.62975   1
  -5   1   1 1832.98 32.2848  -2
  -5  -2   4 1832.98 32.2848   1
  -4  -2   4 53.3493 1.98659   1
  -3  -2   4 1.18772 0.57229   1
  -2  -2   4 543.530 8.37085   1
  -1  -2   4 39.8108 1.13760   1
   0  -3   1 181.108 3.32049  -2
   0  -2   4 181.108 3.32049   1
   1  -2   4 935.678 11.6684   1
  -2  -4   2 151.253 3.00813  -2
   2  -2   4 151.253 3.00813   1
   3  -2   4 351.874 5.94947   1
  -4  -5   3 138.854 4.13946  -2
   4  -2   4 138.854 4.13946   1
   5  -2   4 612.546 10.3166   1
   6  -2   4 128.759 3.69122   1
  -7  -6   4 25.5328 3.60078  -2
   7  -2   4 25.5328 3.60078   1
   8  -2   4 26.4824 2.97350   1
  -8  -1   4 6.78835 5.09759  -2
  -8  -1   4 6.78835 5.09759   1
  -7  -1   4 77.7861 3.50114   1
  -6   0   3 28.8432 2.25967  -2
  -6  -1   4 28.8432 2.25967   1
  -5  -1   4 863.313 19.1210   1
  -4   1   2 1069.73 27.1639  -2
  -4  -1   4 1069.73 27.1639   1
  -3  -1   4 528.675 9.00701   1
  -2  -1   4 95.5092 1.97706   1
  -1  -1   4 203.236 3.81974   1
   0  -1   4 204.542 3.29507   1
   1   3   0 1583.94 28.6623  -2
   1  -1   4 1583.94 28.6623   1
   2  -1   4 547.070 8.28432   1
  -3  -4   1 2099.60 32.8199  -2
   3  -1   4 2099.60 32.8199   1
   4  -1   4 19.4290 0.92948   1
  -5  -5   2 1837.40 44.7409  -2
   5  -1   4 1837.40 44.7409   1
   6  -1   4 2.29983 0.70042   1
   7  -1   4 82.6279 2.96666   1
  -8  -6   3 4.68430 3.43532  -2
   8  -1   4 4.68430 3.43532   1
  -8   0   4 195.217 12.3240   1
  -7  -1   5 85.1089 4.81578  -2
  -7   0   4 85.1089 4.81578   1
  -6   0   4 54.4345 2.84620   1
  -5   0   4 6.76978 1.59370  -2
  -5   0   4 6.76978 1.59370   1
  -4   0   4 77.2737 2.87715   1
  -3   1   3 23.8464 1.81296  -2
  -3   0   4 23.8464 1.81296   1
  -2   0   4 473.254 8.36383   1
  -1   0   4 39.5731 1.37739   1
   0   0   4 5.81874 0.49009   1
   1   0   4 4266.15 64.0035   1
   2   3   1 22.6786 0.90369  -2
   2   0   4 22.6786 0.90369   1
   3   0   4 1330.12 17.5963   1
   4   4   0 161.098 2.86986  -2
   4   0   4 161.098 2.86986   1
   5   0   4 1.40849 0.54668   1
  -6  -5   1 293.433 8.49018  -2
   6   0   4 293.433 8.49018   1
   7   0   4 20.1409 1.63821   1
   8   0   4 28.0870 2.96486   1
  -7   1   4 21.7709 2.44683   1
  -6  -1   6 132.437 5.72708  -2
  -6   1   4 132.437 5.72708   1
  -5   1   4 86.0179 3.26800   1
  -4   0   5 3.26514 0.98840  -2
  -4   1   4 3.26514 0.98840   1
  -3   1   4 3.41023 0.55511   1
  -2   1   4 10.9130 1.87352  -2
  -2   1   4 10.9130 1.87352   1
  -1   1   4 6162.97 119.898   1
   0   1   4 18.9379 0.62552   1
   1   1   4 92.1429 1.71683   1
   2   1   4 10.1663 0.53865   1
   3   3   2 2666.50 34.8542  -2
   3   1   4 2666.50 34.8542   1
   4   1   4 354.596 5.56486   1
   5   4   1 682.422 10.9235  -2
   5   1   4 682.422 10.9235   1
   6   1   4 16.1800 1.09050   1
   7   5   0 31.1463 2.75010  -2
   7   1   4 31.1463 2.75010   1
   8   1   4 54.6780 2.76641   1
  -7   2   4 9.93348 3.14484   1
  -6   2   4 48.6705 3.38830   1
  -5  -1   7 97.5834 4.62799  -2
  -5   2   4 97.5834 4.62799   1
  -4   2   4 0.52352 0.58822   1
  -3   0   6 651.922 12.3205  -2
  -3   2   4 651.922 12.3205   1
  -2   2   4 1567.05 28.3122   1
  -1   2   4 2193.89 37.9807   1
   0   2   4 1105.72 14.9485   1
   1   2   4 127.546 2.20000   1
   2   2   4 27.7521 2.95029  -2
   2   2   4 27.7521 2.95029   1
   3   2   4 50.5385 1.19895   1
   4   3   3 963.782 14.9025  -2
   4   2   4 963.782 14.9025   1
   5   2   4 -0.1773 0.51096   1
   6   4   2 834.609 13.4001  -2
   6   2   4 834.609 13.4001   1
   7   2   4 124.922 3.05451   1
   8   2   4 47.6686 2.63559   1
   9   2   4 173.636 11.4969   1
  -7  -2   9 127.062 10.1339  -2
  -7   3   4 127.062 10.1339   1
  -6   3   4 280.880 9.26097   1
  -5   3   4 1.96867 1.26897   1
  -4  -1   8 471.933 9.75528  -2
  -4   3   4 471.933 9.75528   1
  -3   3   4 53.7959 1.58521   1
  -2   0   7 111.401 3.31420  -2
  -2   3   4 111.401 3.31420   1
  -1   3   4 870.200 17.1486   1
   0   3   4 0.01243 0.26024   1
   1   3   4 215.615 3.69882   1
   2   3   4 151.149 2.42837   1
   3   2   5 431.315 11.4615  -2
   3   3   4 431.315 11.4615   1
   4   3   4 126.445 2.48865   1
   5   3   4 349.736 6.13697  -2
   5   3   4 349.736 6.13697   1
   6   3   4 115.840 2.83566   1
   7   4   3 579.207 9.92866  -2
   7   3   4 579.207 9.92866   1
   8   3   4 104.344 3.41765   1
   9   3   4 20.2473 3.10889   1
  -6  -2  10 211.137 12.5279  -2
  -6   4   4 211.137 12.5279   1
  -5   4   4 74.5300 3.94088   1
  -4   4   4 87.8364 4.91090   1
  -3  -1   9 1.03531 1.86421  -2
  -3   4   4 1.03531 1.86421   1
  -2   4   4 12.7997 1.41575   1
  -1   0   8 796.724 22.5493  -2
  -1   4   4 796.724 22.5493   1
   0   4   4 247.911 5.41195   1
   1   1   7 637.590 25.8573  -2
   1   4   4 637.590 25.8573   1
   2   4   4 87.0064 1.78063   1
   3   4   4 40.8644 1.19993   1
   4   2   6 185.034 4.70930  -2
   4   4   4 185.034 4.70930   1
   5   4   4 66.9621 1.94997   1
   6   3   5 1988.04 30.3788  -2
   6   4   4 1988.04 30.3788   1
   7   4   4 4.39220 1.13377   1
   8   4   4 23.7329 2.55392  -2
   8   4   4 23.7329 2.55392   1
   9   4   4 12.2646 6.48920  -2
   9   4   4 12.2646 6.48920   1
  -6   5   4 6.21686 2.62835   1
  -5   5   4 64.4926 3.93895   1
  -4   5   4 188.113 10.0622   1
  -3   5   4 33.9039 2.48960   1
  -2  -1  10 14.9975 1.89205  -2
  -2   5   4 14.9975 1.89205   1
  -1   5   4 129.661 4.55632   1
   0   0   9 44.6305 1.46260  -2
   0   5   4 44.6305 1.46260   1
   1   5   4 1.70116 0.46780   1
   2   1   8 4146.91 160.234  -2
   2   5   4 4146.91 160.234   1
   3   5   4 214.628 4.13315   1
   4   5   4 1267.88 20.5253   1
   5   2   7 536.445 11.6218  -2
   5   5   4 536.445 11.6218   1
   6   5   4 22.3501 1.53233   1
   7   3   6 343.893 8.90664  -2
   7   5   4 343.893 8.90664   1
   8   5   4 -1.9999 1.14597   1
   9   4   5 282.856 16.4731  -2
   9   5   4 282.856 16.4731   1
  -5  -3  13 116.050 8.86385  -2
  -5   6   4 116.050 8.86385   1
  -4   6   4 100.532 6.71047   1
  -3   6   4 123.103 7.11587   1
  -2   6   4 23.1581 1.91654   1
  -1  -1  11 795.321 22.6288  -2
  -1   6   4 795.321 22.6288   1
   0   6   4 1646.00 28.2268   1
   1   0  10 329.769 6.31480  -2
   1   6   4 329.769 6.31480   1
   2   6   4 288.035 6.93568   1
   3   1   9 706.631 29.2610  -2
   3   6   4 706.631 29.2610   1
   4   6   4 745.426 12.5520   1
   5   6   4 61.3701 2.04956   1
   6   2   8 5.66056 2.20220  -2
   6   6   4 5.66056 2.20220   1
   7   6   4 0.41233 1.26806   1
   8   3   7 242.279 13.9118  -2
   8   6   4 242.279 13.9118   1
  -4  -3  14 335.106 16.5266  -2
  -4   7   4 335.106 16.5266   1
  -3   7   4 3.75913 1.76650   1
  -2  -2  13 35.4234 4.03839  -2
  -2   7   4 35.4234 4.03839   1
  -1   7   4 65.7785 2.67363   1
   0  -1  12 2213.36 44.9313  -2
   0   7   4 2213.36 44.9313   1
   1   7   4 38.0747 1.43078   1
   2   0  11 31.6549 1.86325  -2
   2   7   4 31.6549 1.86325   1
   3   7   4 4.27165 0.92175   1
   4   1  10 314.705 14.9278  -2
   4   7   4 314.705 14.9278   1
   5   7   4 37.6691 2.38650   1
   6   7   4 58.0815 3.71231   1
   7   2   9 164.740 10.5857  -2
   7   7   4 164.740 10.5857   1
   8   7   4 -0.3732 2.51880   1
  -3  -3  15 30.7627 4.89546  -2
  -3   8   4 30.7627 4.89546   1
  -2   8   4 37.3988 3.57337   1
  -1  -2  14 243.073 11.3595  -2
  -1   8   4 243.073 11.3595   1
   0   8   4 122.815 2.88282   1
   1  -1  13 58.4883 2.74826  -2
   1   8   4 58.4883 2.74826   1
   2   8   4 46.0463 2.46625   1
   3   0  12 627.577 18.5364  -2
   3   8   4 627.577 18.5364   1
   4   8   4 5.31884 1.94979   1
   5   8   4 22.1429 2.37511   1
   6   1  11 16.5671 4.65425  -2
   6   8   4 16.5671 4.65425   1
   7   8   4 -0.3149 2.26417   1
   8   2  10 635.439 29.5864  -2
   8   8   4 635.439 29.5864   1
  -2   9   4 6.76774 2.02211   1
  -1   9   4 27.0393 3.03479   1
   0  -2  15 115.002 6.57187  -2
   0   9   4 115.002 6.57187   1
   1   9   4 163.512 8.20030   1
   2  -1  14 811.330 33.2078  -2
   2   9   4 811.330 33.2078   1
   3   9   4 44.0304 3.97738   1
   4   0  13 73.9107 6.07626  -2
   4   9   4 73.9107 6.07626   1
   5   9   4 19.9290 3.36725   1
   6   9   4 33.7444 4.53656   1
   7   1  12 142.864 10.5858  -2
   7   9   4 142.864 10.5858   1
  -1  10   4 8.33743 2.02648   1
   0  10   4 24.2103 2.86405   1
   1  -2  16 176.720 9.02745  -2
   1  10   4 176.720 9.02745   1
   2  10   4 53.6464 4.20806   1
   3  -1  15 725.804 30.3759  -2
   3  10   4 725.804 30.3759   1
   4  10   4 54.3978 4.72516   1
   5   0  14 13.6678 4.50161  -2
   5  10   4 13.6678 4.50161   1
   6  10   4 0.37947 1.90974   1
   1  11   4 101.317 6.10479   1
   2  -2  17 24.2958 3.69721  -2
   2  11   4 24.2958 3.69721   1
   3  11   4 63.2970 4.88731   1
   4  -1  16 216.514 11.4118  -2
   4  11   4 216.514 11.4118   1
   5  11   4 98.6340 7.18059   1
   5  -5  10 28.3844 5.43618  -2
  -5 -10   5 28.3844 5.43618   1
  -4 -10   5 38.7618 4.67191   1
   3  -6  11 157.765 8.95519  -2
  -3 -10   5 157.765 8.95519   1
  -2 -10   5 31.6131 3.49508   1
   1  -7  12 39.4372 2.91479  -2
  -1 -10   5 39.4372 2.91479   1
   0 -10   5 2.69211 1.10133   1
   1 -10   5 247.188 7.77076   1
   6  -4   8 162.056 11.3111  -2
  -6  -9   5 162.056 11.3111   1
  -5  -9   5 14.9822 3.40275   1
   4  -5   9 1.10054 2.16880  -2
  -4  -9   5 1.10054 2.16880   1
  -3  -9   5 560.933 15.7184   1
   2  -6  10 58.5512 4.64861  -2
  -2  -9   5 58.5512 4.64861   1
  -1  -9   5 2.30696 0.85586   1
   0  -7  11 297.510 9.00044  -2
   0  -9   5 297.510 9.00044   1
  -1  -7  11 410.228 15.9852  -2
   1  -9   5 410.228 15.9852   1
   2  -9   5 6.96081 1.39830   1
  -7  -8   5 73.6741 7.30399   1
  -6  -8   5 156.688 10.1526   1
   5  -4   7 379.186 11.8169  -2
  -5  -8   5 379.186 11.8169   1
  -4  -8   5 70.2112 3.73719   1
   3  -5   8 376.220 11.0139  -2
  -3  -8   5 376.220 11.0139   1
  -2  -8   5 64.7195 2.30373   1
   1  -6   9 98.1384 3.06987  -2
  -1  -8   5 98.1384 3.06987   1
   0  -8   5 177.688 3.91968   1
  -1  -7  10 698.832 18.4183  -2
   1  -8   5 698.832 18.4183   1
  -2  -7  10 57.5966 3.54001  -2
   2  -8   5 57.5966 3.54001   1
   3  -8   5 3.12400 1.28656   1
   7  -3   5 8.58798 5.72152  -2
  -7  -7   5 8.58798 5.72152   1
  -6  -7   5 47.7593 5.78267   1
  -5  -7   5 329.705 10.4088   1
   4  -4   6 5.48027 2.43674  -2
  -4  -7   5 5.48027 2.43674   1
  -3  -7   5 155.979 3.87355   1
   2  -5   7 2.35536 0.95656  -2
  -2  -7   5 2.35536 0.95656   1
  -1  -7   5 4.60440 0.68149   1
   0  -6   8 74.7884 2.17371  -2
   0  -7   5 74.7884 2.17371   1
   1  -7   5 271.473 5.42167   1
  -2  -7   9 381.151 14.5939  -2
   2  -7   5 381.151 14.5939   1
  -3  -7   9 7.38468 2.61475  -2
   3  -7   5 7.38468 2.61475   1
   4  -7   5 2.64491 1.42600   1
   8  -2   3 18.1850 5.44061  -2
  -8  -6   5 18.1850 5.44061   1
  -7  -6   5 65.6979 6.72246   1
   6  -3   4 359.607 18.2563  -2
  -6  -6   5 359.607 18.2563   1
  -5  -6   5 0.52272 1.19549   1
  -4  -6   5 68.8375 2.44964   1
   3  -4   5 101.531 3.02937  -2
  -3  -6   5 101.531 3.02937   1
  -2  -6   5 197.846 4.34322   1
   1  -5   6 4.63252 0.81723  -2
  -1  -6   5 4.63252 0.81723   1
   0  -6   5 28.3592 1.07027   1
  -1  -6   7 63.2545 1.90184  -2
   1  -6   5 63.2545 1.90184   1
   2  -6   5 89.8429 2.29894   1
  -3  -7   8 151.808 5.86448  -2
   3  -6   5 151.808 5.86448   1
  -4  -7   8 331.429 10.1622  -2
   4  -6   5 331.429 10.1622   1
   5  -6   5 2.73167 1.45268   1
  -8  -5   5 7.20995 3.43934   1
   7  -2   2 149.728 10.3011  -2
  -7  -5   5 149.728 10.3011   1
  -6  -5   5 1.24372 1.47710   1
   5  -3   3 146.769 9.63786  -2
  -5  -5   5 146.769 9.63786   1
  -4  -5   5 22.3501 1.28609   1
  -3  -5   5 704.005 11.8083   1
   2  -4   4 399.492 7.70967  -2
  -2  -5   5 399.492 7.70967   1
  -1  -5   5 446.349 8.28229   1
   0  -5   5 0.09163 0.57012  -2
   0  -5   5 0.09163 0.57012   1
   1  -5   5 68.2326 1.81499   1
  -2  -6   6 564.442 10.2833  -2
   2  -5   5 564.442 10.2833   1
   3  -5   5 583.548 9.17022   1
   4  -5   5 72.4890 3.58840   1
  -5  -7   7 35.4916 3.67987  -2
   5  -5   5 35.4916 3.67987   1
   6  -5   5 3.65736 1.64104   1
  -8   1   0 28.5594 5.48663  -2
  -8  -4   5 28.5594 5.48663   1
  -7  -4   5 249.675 9.61728   1
   6  -2   1 507.688 12.3673  -2
  -6  -4   5 507.688 12.3673   1
  -5  -4   5 484.547 11.5576   1
   4  -3   2 6.02440 4.15938  -2
  -4  -4   5 6.02440 4.15938   1
  -3  -4   5 462.727 8.07408   1
  -2  -4   5 1029.96 16.6030   1
   1  -4   3 146.214 3.21710  -2
  -1  -4   5 146.214 3.21710   1
   0  -4   5 93.7007 1.93591   1
  -1  -5   4 -0.1045 0.55535  -2
   1  -4   5 -0.1045 0.55535   1
   2  -4   5 302.857 5.71780   1
  -3  -6   5 104.179 3.56094  -2
   3  -4   5 104.179 3.56094   1
   4  -4   5 129.801 4.04632   1
   5  -4   5 119.109 4.96426   1
  -6  -7   6 6.68509 3.33691  -2
   6  -4   5 6.68509 3.33691   1
   7  -4   5 46.5740 3.72297   1
  -8  -3   5 -1.5023 1.62824   1
  -7   1   1 246.465 9.64036  -2
  -7  -3   5 246.465 9.64036   1
  -6  -3   5 150.670 4.94093   1
  -5   2   0 187.612 4.72796  -2
  -5  -3   5 187.612 4.72796   1
  -4  -3   5 315.023 6.56604   1
   3  -3   1 118.945 7.29720  -2
  -3  -3   5 118.945 7.29720   1
  -2  -3   5 1045.79 16.8380   1
  -1  -3   5 82.5817 1.68400   1
   0  -4   2 1020.16 14.9589  -2
   0  -3   5 1020.16 14.9589   1
   1  -3   5 1084.27 16.3170   1
  -2  -5   3 657.472 14.2124  -2
   2  -3   5 657.472 14.2124   1
   3  -3   5 16.6458 0.85706   1
  -4  -6   4 326.936 8.16777  -2
   4  -3   5 326.936 8.16777   1
   5  -3   5 949.794 18.7807   1
   6  -3   5 12.9930 2.15719   1
  -7  -7   5 10.0256 3.56881  -2
   7  -3   5 10.0256 3.56881   1
  -8   0   3 134.979 10.3546  -2
  -8  -2   5 134.979 10.3546   1
  -7  -2   5 1.22582 1.17434   1
  -6   1   2 219.081 6.42266  -2
  -6  -2   5 219.081 6.42266   1
  -5  -2   5 51.1259 2.26830   1
  -4   2   1 2479.84 47.9221  -2
  -4  -2   5 2479.84 47.9221   1
  -3  -2   5 252.295 4.82123   1
  -2  -2   5 1.76682 0.52669   1
  -1  -2   5 26.4840 0.91832   1
   0  -2   5 29.2652 0.85063   1
  -1  -4   1 2727.05 39.3225  -2
   1  -2   5 2727.05 39.3225   1
   2  -2   5 626.765 10.7311   1
  -3  -5   2 385.473 7.77139  -2
   3  -2   5 385.473 7.77139   1
   4  -2   5 89.5621 1.96814   1
  -5  -6   3 572.336 24.8672  -2
   5  -2   5 572.336 24.8672   1
   6  -2   5 377.936 8.36815   1
   7  -2   5 171.202 6.64560   1
  -8  -1   5 260.792 14.8186   1
  -7   0   4 63.3054 6.69907  -2
  -7  -1   5 63.3054 6.69907   1
  -6  -1   5 7.63676 1.41804   1
  -5   1   3 240.001 6.54914  -2
  -5  -1   5 240.001 6.54914   1
  -4  -1   5 668.633 15.0006   1
  -3   2   2 197.704 9.91501  -2
  -3  -1   5 197.704 9.91501   1
  -2  -1   5 1200.44 20.1890   1
  -1  -1   5 629.108 11.9230   1
   0  -1   5 557.182 8.39221   1
   1  -1   5 1023.53 13.5563   1
   2   4   0 335.327 6.75034  -2
   2  -1   5 335.327 6.75034   1
   3  -1   5 174.021 4.01158   1
  -4  -5   1 46.6280 1.42278  -2
   4  -1   5 46.6280 1.42278   1
   5  -1   5 265.346 5.43836   1
  -6  -6   2 286.346 14.7712  -2
   6  -1   5 286.346 14.7712   1
   7  -1   5 0.71882 1.56733   1
   8  -1   5 3.66891 1.94701   1
  -8   0   5 33.4404 5.38249   1
  -7   0   5 34.3470 4.94018   1
  -6   0   5 1.16051 2.19944  -2
  -6   0   5 1.16051 2.19944   1
  -5   0   5 43.6367 2.53793   1
  -4   1   4 2.60106 1.23527  -2
  -4   0   5 2.60106 1.23527   1
  -3   0   5 37.4704 1.32895   1
  -2   2   3 47.2486 2.91770  -2
  -2   0   5 47.2486 2.91770   1
  -1   0   5 1449.05 28.4160   1
   0   0   5 59.7539 1.51968   1
   1   0   5 94.4311 1.85663   1
   2   0   5 8.83776 0.50468   1
   3   4   1 20.7863 0.93700  -2
   3   0   5 20.7863 0.93700   1
   4   0   5 876.940 12.6495   1
   5   5   0 177.554 3.47672  -2
   5   0   5 177.554 3.47672   1
   6   0   5 66.8954 2.24884   1
   7   0   5 36.2471 2.00252   1
   8   0   5 0.91982 1.65660   1
  -7   1   5 0.65499 2.08087   1
  -6   1   5 223.866 7.81161   1
  -5   0   6 194.932 5.84466  -2
  -5   1   5 194.932 5.84466   1
  -4   1   5 36.2693 1.59294   1
  -3   1   5 0.76516 0.73463  -2
  -3   1   5 0.76516 0.73463   1
  -2   1   5 4571.77 101.829   1
  -1   1   5 1682.82 32.8796   1
   0   1   5 1158.16 15.7710   1
   1   1   5 1339.84 19.4369   1
   2   3   3 841.222 23.8452  -2
   2   1   5 841.222 23.8452   1
   3   1   5 147.003 2.58112   1
   4   4   2 647.530 10.2383  -2
   4   1   5 647.530 10.2383   1
   5   1   5 113.956 2.53419   1
   6   5   1 3.02686 1.13423  -2
   6   1   5 3.02686 1.13423   1
   7   1   5 109.498 3.23542   1
   8   1   5 218.046 7.99146   1
  -7   2   5 256.778 14.4967   1
  -6   2   5 320.048 10.2707   1
  -5   2   5 103.755 4.64729   1
  -4   0   7 824.857 18.3012  -2
  -4   2   5 824.857 18.3012   1
  -3   2   5 32.7215 1.30316   1
  -2   1   6 235.913 4.81370  -2
  -2   2   5 235.913 4.81370   1
  -1   2   5 2034.20 30.5851   1
   0   2   5 5.99670 0.41431   1
   1   2   5 181.325 3.03019   1
   2   2   5 376.105 5.35438   1
   3   3   4 472.259 12.3308  -2
   3   2   5 472.259 12.3308   1
   4   2   5 650.592 10.3459   1
   5   4   3 282.894 5.11114  -2
   5   2   5 282.894 5.11114   1
   6   2   5 691.686 11.2903   1
   7   5   2 482.419 8.44291  -2
   7   2   5 482.419 8.44291   1
   8   2   5 172.560 5.09713   1
   9   2   5 198.403 7.74073   1
  -6   3   5 83.2520 4.46977   1
  -5   3   5 488.379 14.1107   1
  -4   3   5 149.187 3.96683   1
  -3   0   8 408.933 10.2952  -2
  -3   3   5 408.933 10.2952   1
  -2   3   5 416.768 10.1948   1
  -1   1   7 103.542 3.10931  -2
  -1   3   5 103.542 3.10931   1
   0   3   5 542.967 8.03563   1
   1   3   5 428.133 6.50331   1
   2   3   5 4101.20 53.1071   1
   3   3   5 9.46348 0.73834   1
   4   3   5 94.6620 2.89113  -2
   4   3   5 94.6620 2.89113   1
   5   3   5 49.2557 1.66440   1
   6   4   4 2008.20 30.6256  -2
   6   3   5 2008.20 30.6256   1
   7   3   5 175.722 3.90941   1
   8   5   3 47.0303 2.61617  -2
   8   3   5 47.0303 2.61617   1
   9   3   5 72.0997 7.02676   1
  -6   4   5 45.7557 5.72574   1
  -5   4   5 103.746 4.85104   1
  -4   4   5 111.892 7.23671   1
  -3   4   5 149.431 4.34382   1
  -2   0   9 64.7040 3.31702  -2
  -2   4   5 64.7040 3.31702   1
  -1   4   5 114.576 2.72793   1
   0   1   8 1034.68 17.0797  -2
   0   4   5 1034.68 17.0797   1
   1   4   5 582.296 9.84976   1
   2   2   7 839.350 34.0401  -2
   2   4   5 839.350 34.0401   1
   3   4   5 228.626 4.30890   1
   4   4   5 206.438 3.68039   1
   5   3   6 136.286 4.01101  -2
   5   4   5 136.286 4.01101   1
   6   4   5 19.6374 1.31397   1
   7   4   5 1114.01 20.3482  -2
   7   4   5 1114.01 20.3482   1
   8   4   5 1.42206 1.09969   1
  -5   5   5 51.2183 3.68860   1
  -4   5   5 65.2929 5.42412   1
  -3   5   5 96.8220 6.15024   1
  -2   5   5 10.6284 1.45233   1
  -1   0  10 127.284 4.80341  -2
  -1   5   5 127.284 4.80341   1
   0   5   5 905.823 16.5859   1
   1   1   9 105.132 2.91883  -2
   1   5   5 105.132 2.91883   1
   2   5   5 218.743 4.04675   1
   3   2   8 46.2052 4.51130  -2
   3   5   5 46.2052 4.51130   1
   4   5   5 600.147 10.3010   1
   5   5   5 513.053 9.94243   1
   6   3   7 134.869 4.25052  -2
   6   5   5 134.869 4.25052   1
   7   5   5 7.28832 1.35015   1
   8   4   6 114.064 5.14366  -2
   8   5   5 114.064 5.14366   1
   9   5   5 -0.0033 2.80668   1
  -5  -2  13 163.952 10.5775  -2
  -5   6   5 163.952 10.5775   1
  -4   6   5 193.230 10.5725   1
  -3   6   5 56.7936 4.68064   1
  -2  -1  12 21.9182 3.76721  -2
  -2   6   5 21.9182 3.76721   1
  -1   6   5 856.496 24.4790   1
   0   0  11 20.5996 1.06728  -2
   0   6   5 20.5996 1.06728   1
   1   6   5 17.0534 1.00725   1
   2   1  10 425.546 9.90306  -2
   2   6   5 425.546 9.90306   1
   3   6   5 39.9272 1.49926   1
   4   6   5 41.5652 1.76334   1
   5   2   9 224.992 12.1157  -2
   5   6   5 224.992 12.1157   1
   6   6   5 0.51807 1.07668   1
   7   3   8 70.8108 4.28313  -2
   7   6   5 70.8108 4.28313   1
   8   6   5 -0.4298 2.08960   1
  -4  -2  14 12.1610 4.74803  -2
  -4   7   5 12.1610 4.74803   1
  -3   7   5 23.8097 3.37469   1
  -2   7   5 162.340 8.56933   1
  -1  -1  13 588.850 24.6823  -2
  -1   7   5 588.850 24.6823   1
   0   7   5 119.158 2.28128   1
   1   0  12 15.6963 1.13909  -2
   1   7   5 15.6963 1.13909   1
   2   7   5 10.3761 1.15052   1
   3   1  11 266.490 8.90666  -2
   3   7   5 266.490 8.90666   1
   4   7   5 13.2004 1.84716   1
   5   7   5 100.798 4.53546   1
   6   2  10 3.70356 4.49120  -2
   6   7   5 3.70356 4.49120   1
   7   7   5 306.793 10.1540   1
   8   3   9 117.373 9.33190  -2
   8   7   5 117.373 9.33190   1
  -3  -2  15 155.863 9.41371  -2
  -3   8   5 155.863 9.41371   1
  -2   8   5 13.6573 2.58655   1
  -1   8   5 1.07970 1.31911   1
   0  -1  14 227.148 10.9564  -2
   0   8   5 227.148 10.9564   1
   1   8   5 98.7974 4.05108   1
   2   0  13 216.991 7.34046  -2
   2   8   5 216.991 7.34046   1
   3   8   5 461.139 20.3005   1
   4   1  12 142.748 8.69872  -2
   4   8   5 142.748 8.69872   1
   5   8   5 464.422 21.1279   1
   6   8   5 58.2181 4.12070   1
   7   2  11 753.802 33.7016  -2
   7   8   5 753.802 33.7016   1
   8   8   5 6.73626 3.05751   1
  -2  -2  16 17.0951 4.10263  -2
  -2   9   5 17.0951 4.10263   1
  -1   9   5 16.6980 2.69416   1
   0   9   5 1.56468 1.43734   1
   1  -1  15 29.0459 3.75802  -2
   1   9   5 29.0459 3.75802   1
   2   9   5 178.989 9.24604   1
   3   0  14 1881.73 74.7682  -2
   3   9   5 1881.73 74.7682   1
   4   9   5 16.4997 2.96007   1
   5   1  13 59.0496 5.98411  -2
   5   9   5 59.0496 5.98411   1
   6   9   5 6.58507 2.69051   1
   7   9   5 146.260 9.94576   1
  -1  -2  17 114.058 7.62197  -2
  -1  10   5 114.058 7.62197   1
   0  10   5 5.06527 1.82920   1
   1  10   5 136.772 7.62955   1
   2  -1  16 32.3335 4.05415  -2
   2  10   5 32.3335 4.05415   1
   3  10   5 4.24872 1.93910   1
   4   0  15 195.737 10.7004  -2
   4  10   5 195.737 10.7004   1
   5  10   5 30.3680 4.22422   1
   6   1  14 53.4176 6.62998  -2
   6  10   5 53.4176 6.62998   1
   2  11   5 14.8540 2.75436   1
   3  -1  17 94.4031 6.79227  -2
   3  11   5 94.4031 6.79227   1
   4  11   5 0.47430 1.85166   1
   4  -6  10 47.2125 5.56236  -2
  -4 -10   6 47.2125 5.56236   1
  -3 -10   6 230.634 8.30328   1
   2  -7  11 330.816 15.2962  -2
  -2 -10   6 330.816 15.2962   1
  -1 -10   6 16.9691 1.93198   1
   0  -8  12 331.075 10.2116  -2
   0 -10   6 331.075 10.2116   1
  -6  -9   6 -0.0453 2.48928   1
   5  -5   8 369.286 18.5921  -2
  -5  -9   6 369.286 18.5921   1
  -4  -9   6 46.7125 3.48911   1
   3  -6   9 58.3085 3.55504  -2
  -3  -9   6 58.3085 3.55504   1
  -2  -9   6 8.55923 1.52004   1
   1  -7  10 39.2249 3.87482  -2
  -1  -9   6 39.2249 3.87482   1
   0  -9   6 29.5318 2.31224   1
  -1  -8  11 369.657 11.0768  -2
   1  -9   6 369.657 11.0768   1
  -2  -8  11 56.2270 3.91276  -2
   2  -9   6 56.2270 3.91276   1
  -7  -8   6 61.4075 7.41981   1
  -6  -8   6 -2.5103 2.03372   1
  -5  -8   6 72.3553 6.30287   1
   4  -5   7 0.92332 2.55714  -2
  -4  -8   6 0.92332 2.55714   1
  -3  -8   6 77.6970 3.84140   1
   2  -6   8 25.4296 1.84166  -2
  -2  -8   6 25.4296 1.84166   1
  -1  -8   6 11.6444 1.08662   1
   0  -7   9 225.475 5.65649  -2
   0  -8   6 225.475 5.65649   1
   1  -8   6 10.1322 1.17546   1
  -2  -8  10 19.4804 4.94609  -2
   2  -8   6 19.4804 4.94609   1
  -3  -8  10 15.1225 3.04791  -2
   3  -8   6 15.1225 3.04791   1
  -7  -7   6 2.98021 2.98627   1
   6  -4   5 9.87816 5.32493  -2
  -6  -7   6 9.87816 5.32493   1
  -5  -7   6 7.43780 1.70894   1
  -4  -7   6 234.012 7.88626   1
   3  -5   6 139.920 4.30064  -2
  -3  -7   6 139.920 4.30064   1
  -2  -7   6 0.72077 0.61804   1
   1  -6   7 19.2149 1.21008  -2
  -1  -7   6 19.2149 1.21008   1
   0  -7   6 284.037 5.74862   1
  -1  -7   8 129.742 3.70413  -2
   1  -7   6 129.742 3.70413   1
   2  -7   6 5.94451 1.11694   1
  -3  -8   9 199.302 9.81464  -2
   3  -7   6 199.302 9.81464   1
  -4  -8   9 258.035 8.70366  -2
   4  -7   6 258.035 8.70366   1
   7  -3   3 10.7110 4.80376  -2
  -7  -6   6 10.7110 4.80376   1
  -6  -6   6 41.2152 4.16060   1
   5  -4   4 128.282 9.18161  -2
  -5  -6   6 128.282 9.18161   1
  -4  -6   6 465.566 11.2098   1
  -3  -6   6 847.642 15.5828   1
   2  -5   5 583.712 10.9604  -2
  -2  -6   6 583.712 10.9604   1
  -1  -6   6 117.420 2.87969   1
   0  -6   6 947.188 16.7110  -2
   0  -6   6 947.188 16.7110   1
   1  -6   6 2.52554 0.55398   1
  -2  -7   7 555.476 10.2569  -2
   2  -6   6 555.476 10.2569   1
   3  -6   6 106.453 4.42445   1
   4  -6   6 190.971 6.73272   1
  -5  -8   8 33.2458 3.72449  -2
   5  -6   6 33.2458 3.72449   1
   8  -2   1 56.4889 7.48671  -2
  -8  -5   6 56.4889 7.48671   1
  -7  -5   6 35.8807 5.28339   1
   6  -3   2 437.355 13.2647  -2
  -6  -5   6 437.355 13.2647   1
  -5  -5   6 66.0494 2.97593   1
   4  -4   3 86.4464 4.35158  -2
  -4  -5   6 86.4464 4.35158   1
  -3  -5   6 126.927 2.94211   1
  -2  -5   6 1785.98 28.2661   1
   1  -5   4 79.5902 2.25526  -2
  -1  -5   6 79.5902 2.25526   1
   0  -5   6 9.91572 0.69543   1
  -1  -6   5 4.98348 0.75256  -2
   1  -5   6 4.98348 0.75256   1
   2  -5   6 1.86820 0.43024   1
  -3  -7   6 144.570 5.54636  -2
   3  -5   6 144.570 5.54636   1
   4  -5   6 249.084 8.02537   1
   5  -5   6 22.3005 2.55100   1
  -6  -8   7 3.13691 3.33027  -2
   6  -5   6 3.13691 3.33027   1
  -8  -4   6 17.4068 4.51198   1
  -7   2   0 16.4216 5.06602  -2
  -7  -4   6 16.4216 5.06602   1
  -6  -4   6 231.054 6.75206   1
   5  -3   1 97.8987 3.82767  -2
  -5  -4   6 97.8987 3.82767   1
  -4  -4   6 87.2622 2.72711   1
   3  -4   2 967.617 39.7047  -2
  -3  -4   6 967.617 39.7047   1
  -2  -4   6 364.593 6.45132   1
  -1  -4   6 92.0296 2.02936   1
   0  -5   3 638.006 11.3841  -2
   0  -4   6 638.006 11.3841   1
   1  -4   6 327.807 5.37253   1
  -2  -6   4 125.087 3.72656  -2
   2  -4   6 125.087 3.72656   1
   3  -4   6 3.65798 0.93119   1
  -4  -7   5 5.09353 2.82224  -2
   4  -4   6 5.09353 2.82224   1
   5  -4   6 349.931 10.6030   1
   6  -4   6 79.5850 4.28254   1
  -7  -3   6 105.163 5.67788   1
  -6   2   1 411.787 10.4477  -2
  -6  -3   6 411.787 10.4477   1
  -5  -3   6 27.7160 2.03667   1
  -4   3   0 312.185 6.68190  -2
  -4  -3   6 312.185 6.68190   1
  -3  -3   6 2.48742 0.66636   1
  -2  -3   6 700.789 11.6283   1
  -1  -3   6 19.4952 1.03817   1
   0  -3   6 651.918 8.87158   1
  -1  -5   2 124.190 2.00483  -2
   1  -3   6 124.190 2.00483   1
   2  -3   6 371.669 6.66641   1
  -3  -6   3 11.4519 0.96704  -2
   3  -3   6 11.4519 0.96704   1
   4  -3   6 69.6322 2.23480   1
  -5  -7   4 5.01426 3.08842  -2
   5  -3   6 5.01426 3.08842   1
   6  -3   6 739.672 20.0237   1
   7  -3   6 146.488 6.26085   1
  -8  -2   6 126.444 9.36999   1
  -7   1   3 313.346 11.7359  -2
  -7  -2   6 313.346 11.7359   1
  -6  -2   6 93.4672 3.81682   1
  -5   2   2 482.692 11.6306  -2
  -5  -2   6 482.692 11.6306   1
  -4  -2   6 243.985 6.48217   1
  -3   3   1 620.431 16.5059  -2
  -3  -2   6 620.431 16.5059   1
  -2  -2   6 96.0560 2.30200   1
  -1  -2   6 337.060 5.87720   1
   0   4   0 1964.38 76.5942  -2
   0  -2   6 1964.38 76.5942   1
   1  -2   6 1175.37 17.2475   1
  -2  -5   1 748.729 16.1155  -2
   2  -2   6 748.729 16.1155   1
   3  -2   6 72.8834 2.66657   1
  -4  -6   2 544.930 12.4739  -2
   4  -2   6 544.930 12.4739   1
   5  -2   6 494.900 11.7846   1
  -6  -7   3 274.519 14.6230  -2
   6  -2   6 274.519 14.6230   1
   7  -2   6 2.16455 1.72480   1
  -8  -1   6 26.8407 4.94774   1
  -7  -1   6 17.6702 3.84651   1
  -6   1   4 126.201 4.82683  -2
  -6  -1   6 126.201 4.82683   1
  -5  -1   6 78.0225 3.25974   1
  -4   2   3 264.091 6.92588  -2
  -4  -1   6 264.091 6.92588   1
  -3  -1   6 562.039 12.6975   1
  -2   3   2 3043.35 83.6472  -2
  -2  -1   6 3043.35 83.6472   1
  -1  -1   6 380.769 6.89191   1
   0  -1   6 2.61911 0.45269   1
   1   4   1 1095.14 43.3653  -2
   1  -1   6 1095.14 43.3653   1
   2  -1   6 19.1543 0.55052   1
   3   5   0 1360.40 25.1415  -2
   3  -1   6 1360.40 25.1415   1
   4  -1   6 165.809 4.11036   1
  -5  -6   1 54.4264 1.75358  -2
   5  -1   6 54.4264 1.75358   1
   6  -1   6 87.4205 2.77177   1
   7  -1   6 48.0146 3.71063   1
   8  -1   6 286.278 9.85890   1
  -7   0   6 2.90912 2.52199   1
  -6   0   6 265.176 7.49696   1
  -5   1   5 200.678 6.04719  -2
  -5   0   6 200.678 6.04719   1
  -4   0   6 25.7642 1.95687   1
  -3   2   4 654.198 14.5885  -2
  -3   0   6 654.198 14.5885   1
  -2   0   6 127.970 3.26607   1
  -1   3   3 4738.25 182.927  -2
  -1   0   6 4738.25 182.927   1
   0   0   6 381.424 6.79998   1
   1   0   6 4.74096 0.55372   1
   2   0   6 326.559 6.02359   1
   3   0   6 133.729 2.73114   1
   4   5   1 4.31568 0.88225  -2
   4   0   6 4.31568 0.88225   1
   5   0   6 372.826 6.30509   1
   6   6   0 192.429 4.53680  -2
   6   0   6 192.429 4.53680   1
   7   0   6 0.28919 0.89859   1
   8   0   6 224.358 8.31035   1
  -7   1   6 7.50151 3.21450   1
  -6   1   6 58.4747 3.93362   1
  -5   1   6 557.373 13.1858   1
  -4   1   6 1.58143 1.84687  -2
  -4   1   6 1.58143 1.84687   1
  -3   1   6 71.0357 2.07083   1
  -2   2   5 237.424 6.44587  -2
  -2   1   6 237.424 6.44587   1
  -1   1   6 1816.02 29.8451   1
   0   1   6 0.25271 0.41496   1
   1   1   6 452.838 6.56196   1
   2   1   6 16.0552 0.78856   1
   3   4   3 70.5129 2.72111  -2
   3   1   6 70.5129 2.72111   1
   4   1   6 395.584 6.55834   1
   5   5   2 447.388 7.48543  -2
   5   1   6 447.388 7.48543   1
   6   1   6 456.435 7.78826   1
   7   6   1 12.6148 1.87644  -2
   7   1   6 12.6148 1.87644   1
   8   1   6 24.2647 2.88808   1
  -7   2   6 2.71100 2.49448   1
  -6   2   6 168.346 6.70740   1
  -5   2   6 326.741 10.2345   1
  -4   2   6 47.7601 2.44000   1
  -3   1   7 282.542 7.71286  -2
  -3   2   6 282.542 7.71286   1
  -2   2   6 98.0172 2.38803   1
  -1   2   6 17.0715 0.95629  -2
  -1   2   6 17.0715 0.95629   1
   0   2   6 633.106 10.1366   1
   1   2   6 404.041 6.26826   1
   2   2   6 2966.17 40.9831   1
   3   2   6 7.78609 0.70363   1
   4   4   4 176.721 5.52256  -2
   4   2   6 176.721 5.52256   1
   5   2   6 2.15562 0.58821   1
   6   5   3 230.564 4.50539  -2
   6   2   6 230.564 4.50539   1
   7   2   6 383.496 6.96060   1
   8   6   2 273.942 9.68696  -2
   8   2   6 273.942 9.68696   1
  -6   3   6 177.980 10.9031   1
  -5   3   6 93.2117 4.53287   1
  -4   3   6 0.28758 1.24090   1
  -3   3   6 92.8874 4.30184   1
  -2   1   8 197.349 6.97557  -2
  -2   3   6 197.349 6.97557   1
  -1   3   6 58.6327 2.23948   1
   0   2   7 506.141 9.58780  -2
   0   3   6 506.141 9.58780   1
   1   3   6 1476.25 23.0316   1
   2   3   6 7.61549 0.61591   1
   3   3   6 240.965 4.93179   1
   4   3   6 34.6424 1.33076   1
   5   4   5 126.332 3.64006  -2
   5   3   6 126.332 3.64006   1
   6   3   6 5.07398 0.84713   1
   7   5   4 346.275 6.45135  -2
   7   3   6 346.275 6.45135   1
   8   3   6 8.41133 1.28654   1
   9   6   3 20.2049 5.21361  -2
   9   3   6 20.2049 5.21361   1
  -6  -1  11 27.9784 5.68585  -2
  -6   4   6 27.9784 5.68585   1
  -5   4   6 57.4384 3.82865   1
  -4   4   6 186.351 10.2579   1
  -3   0  10 299.714 14.4112  -2
  -3   4   6 299.714 14.4112   1
  -2   4   6 9.11139 1.01489   1
  -1   1   9 1171.42 26.7848  -2
  -1   4   6 1171.42 26.7848   1
   0   4   6 31.7137 1.00687   1
   1   2   8 27.3620 1.17332  -2
   1   4   6 27.3620 1.17332   1
   2   4   6 1489.36 20.9387   1
   3   3   7 35.9416 4.15710  -2
   3   4   6 35.9416 4.15710   1
   4   4   6 249.110 5.27253   1
   5   4   6 99.0600 2.50938   1
   6   4   6 420.631 8.52008  -2
   6   4   6 420.631 8.52008   1
   7   4   6 8.33903 1.05413   1
   8   5   5 120.531 3.77802  -2
   8   4   6 120.531 3.77802   1
  -5  -1  12 417.181 20.2754  -2
  -5   5   6 417.181 20.2754   1
  -4   5   6 60.9093 5.26870   1
  -3   5   6 244.581 12.1859   1
  -2   0  11 714.900 21.1233  -2
  -2   5   6 714.900 21.1233   1
  -1   5   6 255.814 8.42067   1
   0   1  10 1334.59 37.4502  -2
   0   5   6 1334.59 37.4502   1
   1   5   6 178.644 3.76384   1
   2   2   9 970.887 20.9232  -2
   2   5   6 970.887 20.9232   1
   3   5   6 243.402 5.13776   1
   4   5   6 0.15276 0.56095   1
   5   5   6 246.056 4.78848   1
   6   5   6 122.071 3.03641   1
   7   4   7 25.8754 2.45963  -2
   7   5   6 25.8754 2.45963   1
   8   5   6 -0.1044 1.25112   1
  -5   6   6 299.385 15.6442   1
  -4  -1  13 414.691 19.7112  -2
  -4   6   6 414.691 19.7112   1
  -3   6   6 52.9137 4.74937   1
  -2   6   6 186.803 9.64013   1
  -1   0  12 657.360 19.4233  -2
  -1   6   6 657.360 19.4233   1
   0   6   6 300.502 9.57850   1
   1   1  11 96.1284 2.83143  -2
   1   6   6 96.1284 2.83143   1
   2   6   6 18.2002 1.51018   1
   3   2  10 2.52295 1.53625  -2
   3   6   6 2.52295 1.53625   1
   4   6   6 6.88243 1.12833   1
   5   6   6 513.656 12.7132   1
   6   3   9 168.204 10.6173  -2
   6   6   6 168.204 10.6173   1
   7   6   6 245.512 8.46513   1
   8   4   8 17.7328 4.99822  -2
   8   6   6 17.7328 4.99822   1
  -4   7   6 327.119 16.2137   1
  -3  -1  14 12.1292 4.36237  -2
  -3   7   6 12.1292 4.36237   1
  -2   7   6 0.86118 1.54516   1
  -1   7   6 10.2564 2.13737   1
   0   0  13 263.348 8.77295  -2
   0   7   6 263.348 8.77295   1
   1   7   6 47.7412 1.83392   1
   2   1  12 7.10732 1.56923  -2
   2   7   6 7.10732 1.56923   1
   3   7   6 221.422 7.75421   1
   4   2  11 240.871 8.65896  -2
   4   7   6 240.871 8.65896   1
   5   7   6 47.0532 4.73580   1
   6   3  10 371.802 18.6192  -2
   6   7   6 371.802 18.6192   1
   7   3  10 533.552 25.2295  -2
   7   7   6 533.552 25.2295   1
   8   7   6 185.343 11.8530   1
  -3   8   6 28.7855 4.00876   1
  -2  -1  15 109.993 7.52368  -2
  -2   8   6 109.993 7.52368   1
  -1   8   6 333.703 15.3952   1
   0   8   6 1.11912 1.40936   1
   1   0  14 20.5681 3.68479  -2
   1   8   6 20.5681 3.68479   1
   2   8   6 514.629 22.3920   1
   3   1  13 530.841 23.2623  -2
   3   8   6 530.841 23.2623   1
   4   8   6 39.3324 4.49185   1
   5   2  12 122.967 8.49936  -2
   5   8   6 122.967 8.49936   1
   6   8   6 16.8211 3.63240   1
   7   3  11 191.981 12.4632  -2
   7   8   6 191.981 12.4632   1
   8   8   6 61.4477 7.38119   1
  -2   9   6 215.839 11.2857   1
  -1  -1  16 29.5225 4.70257  -2
  -1   9   6 29.5225 4.70257   1
   0   9   6 36.9164 3.73184   1
   1   9   6 11.1733 2.38130   1
   2   0  15 458.542 20.4472  -2
   2   9   6 458.542 20.4472   1
   3   9   6 31.3190 3.97511   1
   4   1  14 177.897 10.0313  -2
   4   9   6 177.897 10.0313   1
   5   9   6 10.1107 2.69995   1
   6   2  13 495.810 23.6344  -2
   6   9   6 495.810 23.6344   1
   7   9   6 67.6806 6.69488   1
   0  -1  17 133.902 8.43323  -2
   0  10   6 133.902 8.43323   1
   1  -1  17 18.9278 4.25260  -2
   1  10   6 18.9278 4.25260   1
   2  10   6 5.38888 1.94276   1
   3   0  16 487.251 22.0083  -2
   3  10   6 487.251 22.0083   1
   4  10   6 115.341 7.65781   1
   5   1  15 126.866 8.70746  -2
   5  10   6 126.866 8.70746   1
   6  10   6 -0.1700 2.04435   1
   3  11   6 85.6303 6.30026   1
  -4 -10   7 21.3595 3.87223   1
   3  -7  10 389.940 18.4063  -2
  -3 -10   7 389.940 18.4063   1
  -2 -10   7 337.314 10.5756   1
   1  -8  11 10.0210 2.69276  -2
  -1 -10   7 10.0210 2.69276   1
   0 -10   7 0.64423 1.23439   1
  -5  -9   7 -3.3494 2.14143   1
   4  -6   8 99.7897 8.00356  -2
  -4  -9   7 99.7897 8.00356   1
  -3  -9   7 42.3124 3.11778   1
   2  -7   9 72.2314 3.74648  -2
  -2  -9   7 72.2314 3.74648   1
  -1  -9   7 84.0239 3.99799   1
   0  -8  10 307.623 9.66724  -2
   0  -9   7 307.623 9.66724   1
   1  -9   7 5.41496 1.39670   1
   2  -9   7 15.7603 2.00177   1
   6  -5   6 -2.2709 5.62294  -2
  -6  -8   7 -2.2709 5.62294   1
  -5  -8   7 3.09135 2.47161   1
  -4  -8   7 411.368 12.4231   1
   3  -6   7 303.234 9.56680  -2
  -3  -8   7 303.234 9.56680   1
  -2  -8   7 5.54325 1.06981   1
   1  -7   8 20.4540 1.98959  -2
  -1  -8   7 20.4540 1.98959   1
   0  -8   7 277.406 8.59168   1
  -1  -8   9 287.598 9.05445  -2
   1  -8   7 287.598 9.05445   1
   2  -8   7 25.7539 2.41453   1
  -3  -9  10 172.850 9.67643  -2
   3  -8   7 172.850 9.67643   1
   7  -4   4 46.5090 6.95413  -2
  -7  -7   7 46.5090 6.95413   1
  -6  -7   7 52.9880 6.16258   1
   5  -5   5 40.7269 6.35138  -2
  -5  -7   7 40.7269 6.35138   1
  -4  -7   7 60.6403 3.61160   1
  -3  -7   7 203.852 6.92836   1
   2  -6   6 578.218 12.3547  -2
  -2  -7   7 578.218 12.3547   1
  -1  -7   7 36.5984 1.46025   1
   0  -7   7 91.3033 2.24546  -2
   0  -7   7 91.3033 2.24546   1
   1  -7   7 63.9019 2.03754   1
  -2  -8   8 65.5588 3.78532  -2
   2  -7   7 65.5588 3.78532   1
   3  -7   7 -0.2621 1.18716   1
  -4  -9   9 313.058 13.9213  -2
   4  -7   7 313.058 13.9213   1
  -7  -6   7 1.73024 2.78865   1
   6  -4   3 204.229 12.4118  -2
  -6  -6   7 204.229 12.4118   1
  -5  -6   7 104.319 4.90268   1
   4  -5   4 138.175 9.25481  -2
  -4  -6   7 138.175 9.25481   1
  -3  -6   7 31.2256 1.75818   1
  -2  -6   7 473.706 9.16172   1
   1  -6   5 61.7194 2.13432  -2
  -1  -6   7 61.7194 2.13432   1
   0  -6   7 235.470 4.31031   1
  -1  -7   6 15.8523 1.10463  -2
   1  -6   7 15.8523 1.10463   1
   2  -6   7 14.4702 0.92177   1
  -3  -8   7 299.382 9.56125  -2
   3  -6   7 299.382 9.56125   1
  -4  -8   7 711.653 30.4910  -2
   4  -6   7 711.653 30.4910   1
   5  -6   7 27.3869 2.84348   1
   7  -3   1 560.698 26.7662  -2
  -7  -5   7 560.698 26.7662   1
  -6  -5   7 95.8273 7.70671   1
   5  -4   2 3.23906 2.27396  -2
  -5  -5   7 3.23906 2.27396   1
  -4  -5   7 18.8781 1.64776   1
   3  -5   3 871.935 25.6474  -2
  -3  -5   7 871.935 25.6474   1
  -2  -5   7 0.25213 0.47472   1
  -1  -5   7 664.903 12.1186   1
   0  -6   4 560.600 9.05445  -2
   0  -5   7 560.600 9.05445   1
   1  -5   7 8.94965 0.77995   1
  -2  -7   5 3.34787 1.22959  -2
   2  -5   7 3.34787 1.22959   1
   3  -5   7 61.3991 3.37474   1
  -4  -8   6 -2.6393 2.88949  -2
   4  -5   7 -2.6393 2.88949   1
   5  -5   7 0.28307 1.39327   1
   6  -5   7 59.4293 4.05295   1
  -7  -4   7 321.216 17.1830   1
  -6   3   0 274.340 7.78696  -2
  -6  -4   7 274.340 7.78696   1
  -5  -4   7 14.7173 1.61635   1
   4  -4   1 43.2418 2.25304  -2
  -4  -4   7 43.2418 2.25304   1
  -3  -4   7 23.3785 1.32311   1
  -2  -4   7 385.738 7.57215   1
   1  -5   2 502.605 15.0904  -2
  -1  -4   7 502.605 15.0904   1
   0  -4   7 864.165 13.3970   1
  -1  -6   3 229.287 4.03114  -2
   1  -4   7 229.287 4.03114   1
   2  -4   7 109.238 3.47339   1
  -3  -7   4 23.9133 1.93540  -2
   3  -4   7 23.9133 1.93540   1
   4  -4   7 24.2729 2.40203   1
  -5  -8   5 378.661 11.7399  -2
   5  -4   7 378.661 11.7399   1
   6  -4   7 102.993 5.01505   1
  -7   2   2 12.2280 5.86933  -2
  -7  -3   7 12.2280 5.86933   1
  -6  -3   7 230.602 6.82121   1
  -5   3   1 147.119 4.83248  -2
  -5  -3   7 147.119 4.83248   1
  -4  -3   7 54.8177 2.21127   1
  -3   4   0 2520.23 48.6596  -2
  -3  -3   7 2520.23 48.6596   1
  -2  -3   7 309.690 5.70319   1
  -1  -3   7 27.0686 1.13189   1
   0  -5   1 363.386 15.7375  -2
   0  -3   7 363.386 15.7375   1
   1  -3   7 2328.76 33.7066   1
  -2  -6   2 56.8584 1.95128  -2
   2  -3   7 56.8584 1.95128   1
   3  -3   7 38.1812 1.56743   1
  -4  -7   3 13.9411 1.98781  -2
   4  -3   7 13.9411 1.98781   1
   5  -3   7 181.000 6.62632   1
  -6  -8   4 3.27757 3.35070  -2
   6  -3   7 3.27757 3.35070   1
   7  -3   7 264.775 9.27264   1
  -7  -2   7 45.3094 4.14922   1
  -6   2   3 8.49266 2.46431  -2
  -6  -2   7 8.49266 2.46431   1
  -5  -2   7 23.3855 1.91761   1
  -4   3   2 71.5919 3.03083  -2
  -4  -2   7 71.5919 3.03083   1
  -3  -2   7 557.830 12.7385   1
  -2   4   1 641.683 19.0207  -2
  -2  -2   7 641.683 19.0207   1
  -1  -2   7 670.771 12.8834   1
   0  -2   7 318.085 6.09971   1
   1   5   0 4262.91 101.470  -2
   1  -2   7 4262.91 101.470   1
   2  -2   7 98.1960 3.13981   1
  -3  -6   1 182.790 5.09633  -2
   3  -2   7 182.790 5.09633   1
   4  -2   7 1.83241 0.40992   1
  -5  -7   2 18.5871 2.86924  -2
   5  -2   7 18.5871 2.86924   1
   6  -2   7 7.00257 1.81978   1
  -7  -8   3 133.665 6.64044  -2
   7  -2   7 133.665 6.64044   1
  -7  -1   7 2.66759 2.36044   1
  -6  -1   7 134.410 4.79812   1
  -5   2   4 101.458 4.13437  -2
  -5  -1   7 101.458 4.13437   1
  -4  -1   7 45.3026 2.38340   1
  -3   3   3 499.788 11.5822  -2
  -3  -1   7 499.788 11.5822   1
  -2  -1   7 152.907 4.30860   1
  -1   4   2 1130.59 32.0493  -2
  -1  -1   7 1130.59 32.0493   1
   0  -1   7 7.43302 0.67652   1
   1  -1   7 70.5197 1.74435   1
   2   5   1 28.2389 3.20192  -2
   2  -1   7 28.2389 3.20192   1
   3  -1   7 0.83580 0.66899   1
   4   6   0 69.8884 2.55299  -2
   4  -1   7 69.8884 2.55299   1
   5  -1   7 267.683 7.06803   1
  -6  -7   1 97.1244 5.03211  -2
   6  -1   7 97.1244 5.03211   1
   7  -1   7 8.57376 2.03499   1
  -8  -8   2 83.6418 8.14306  -2
   8  -1   7 83.6418 8.14306   1
  -7   0   7 -1.2969 1.87177   1
  -6   0   7 66.8171 3.33169   1
  -5   0   7 376.172 9.60672   1
  -4   2   5 827.868 18.5550  -2
  -4   0   7 827.868 18.5550   1
  -3   0   7 1.59307 0.92614   1
  -2   3   4 113.161 3.58980  -2
  -2   0   7 113.161 3.58980   1
  -1   0   7 369.303 5.98446   1
   0   4   3 890.131 18.8385  -2
   0   0   7 890.131 18.8385   1
   1   0   7 593.379 10.3433   1
   2   5   2 22.2850 3.42532  -2
   2   0   7 22.2850 3.42532   1
   3   5   2 172.502 4.32795  -2
   3   0   7 172.502 4.32795   1
   4   0   7 35.0714 1.35999   1
   5   6   1 238.393 5.09257  -2
   5   0   7 238.393 5.09257   1
   6   0   7 80.8472 2.48235   1
   7   7   0 169.365 7.02955  -2
   7   0   7 169.365 7.02955   1
   8   0   7 376.648 12.1016   1
  -7   1   7 2.58456 2.70906   1
  -6   1   7 1333.89 36.6505   1
  -5   1   7 4.94121 1.21907   1
  -4   1   7 4.35649 1.15225   1
  -3   2   6 293.833 7.57364  -2
  -3   1   7 293.833 7.57364   1
  -2   1   7 257.028 7.01566   1
  -1   3   5 109.479 2.79275  -2
  -1   1   7 109.479 2.79275   1
   0   1   7 519.577 9.13203   1
   1   4   4 577.295 23.9740  -2
   1   1   7 577.295 23.9740   1
   2   1   7 29.8602 1.42763   1
   3   1   7 21.5457 1.12929   1
   4   5   3 682.744 17.4390  -2
   4   1   7 682.744 17.4390   1
   5   1   7 164.091 3.89141   1
   6   6   2 212.297 4.14648  -2
   6   1   7 212.297 4.14648   1
   7   1   7 221.407 5.26192   1
   8   7   1 215.534 8.46793  -2
   8   1   7 215.534 8.46793   1
  -6   2   7 200.543 11.9679   1
  -5   2   7 438.257 13.1128   1
  -4   2   7 3.47290 1.11557   1
  -3   2   7 156.666 4.05024   1
  -2   2   7 21.7300 0.90956  -2
  -2   2   7 21.7300 0.90956   1
  -1   2   7 24.2593 1.03522   1
   0   3   6 518.215 9.99408  -2
   0   2   7 518.215 9.99408   1
   1   2   7 1208.66 17.7434   1
   2   2   7 410.849 7.09131   1
   3   2   7 323.887 6.36179   1
   4   2   7 844.902 15.2148   1
   5   5   4 533.866 12.2052  -2
   5   2   7 533.866 12.2052   1
   6   2   7 243.405 4.70222   1
   7   6   3 11.4597 1.27694  -2
   7   2   7 11.4597 1.27694   1
   8   2   7 60.6456 4.13436   1
  -6   0  10 142.570 10.3158  -2
  -6   3   7 142.570 10.3158   1
  -5   3   7 14.8143 2.23115   1
  -4   3   7 53.8209 3.45352   1
  -3   3   7 243.657 6.70878   1
  -2   3   7 532.290 13.0853   1
  -1   2   8 187.774 5.36922  -2
  -1   3   7 187.774 5.36922   1
   0   3   7 84.7147 2.17323   1
   1   3   7 17.3931 1.06906  -2
   1   3   7 17.3931 1.06906   1
   2   3   7 1906.73 30.0133   1
   3   4   6 49.2193 4.91255  -2
   3   3   7 49.2193 4.91255   1
   4   3   7 15.3350 1.14837   1
   5   3   7 379.977 7.67239   1
   6   5   5 127.761 3.70895  -2
   6   3   7 127.761 3.70895   1
   7   3   7 3.01758 0.76105   1
   8   6   4 248.364 7.47464  -2
   8   3   7 248.364 7.47464   1
  -6   4   7 2.74003 2.55366   1
  -5   0  11 158.278 10.4224  -2
  -5   4   7 158.278 10.4224   1
  -4   4   7 -1.4602 1.31677   1
  -3   4   7 73.7761 3.97918   1
  -2   1  10 1152.54 33.0864  -2
  -2   4   7 1152.54 33.0864   1
  -1   4   7 2.09382 0.71410   1
   0   2   9 895.627 20.8173  -2
   0   4   7 895.627 20.8173   1
   1   4   7 165.670 3.12912   1
   2   3   8 482.904 11.8958  -2
   2   4   7 482.904 11.8958   1
   3   4   7 742.877 12.3449   1
   4   4   7 0.58906 3.49943  -2
   4   4   7 0.58906 3.49943   1
   5   4   7 1593.27 27.9994   1
   6   4   7 138.401 3.28039   1
   7   5   6 30.1404 2.80569  -2
   7   4   7 30.1404 2.80569   1
   8   4   7 0.90688 0.90421   1
  -5   5   7 1.77091 2.26727   1
  -4   0  12 441.477 20.7718  -2
  -4   5   7 441.477 20.7718   1
  -3   5   7 405.497 18.6664   1
  -2   5   7 2.28219 1.25030   1
  -1   1  11 63.4546 3.77302  -2
  -1   5   7 63.4546 3.77302   1
   0   5   7 1037.53 23.8532   1
   1   2  10 18.2720 1.08268  -2
   1   5   7 18.2720 1.08268   1
   2   5   7 83.4173 2.08492   1
   3   3   9 51.6640 2.46892  -2
   3   5   7 51.6640 2.46892   1
   4   5   7 478.851 9.25533   1
   5   5   7 305.875 6.51360   1
   6   4   8 273.908 14.4877  -2
   6   5   7 273.908 14.4877   1
   7   5   7 7.68827 1.15053   1
   8   5   7 2.57605 3.62290  -2
   8   5   7 2.57605 3.62290   1
  -4   6   7 100.721 7.46186   1
  -3   0  13 2.57644 4.11677  -2
  -3   6   7 2.57644 4.11677   1
  -2   6   7 204.560 10.6418   1
  -1   6   7 32.2045 2.67024   1
   0   1  12 153.626 6.01778  -2
   0   6   7 153.626 6.01778   1
   1   6   7 10.6635 0.88640   1
   2   2  11 36.0985 1.44690  -2
   2   6   7 36.0985 1.44690   1
   3   6   7 146.448 3.75539   1
   4   3  10 188.977 6.61224  -2
   4   6   7 188.977 6.61224   1
   5   6   7 519.087 16.1602   1
   6   4   9 44.1366 6.49260  -2
   6   6   7 44.1366 6.49260   1
   7   4   9 27.1965 5.68579  -2
   7   6   7 27.1965 5.68579   1
   8   6   7 178.627 11.5738   1
  -3   7   7 0.64615 1.93856   1
  -2   0  14 109.593 7.51483  -2
  -2   7   7 109.593 7.51483   1
  -1   7   7 134.680 7.78588   1
   0   7   7 17.5084 2.80165   1
   1   1  13 11.1139 2.65271  -2
   1   7   7 11.1139 2.65271   1
   2   7   7 96.1741 4.35586   1
   3   2  12 435.857 13.7770  -2
   3   7   7 435.857 13.7770   1
   4   7   7 62.7896 5.29024   1
   5   3  11 1209.91 50.1923  -2
   5   7   7 1209.91 50.1923   1
   6   7   7 84.5009 6.93593   1
   7   4  10 160.884 11.1581  -2
   7   7   7 160.884 11.1581   1
   8   4  10 93.1062 9.29710  -2
   8   7   7 93.1062 9.29710   1
  -3  -1  16 168.803 10.0121  -2
  -3   8   7 168.803 10.0121   1
  -2   8   7 200.020 10.7465   1
  -1   0  15 91.5315 6.90510  -2
  -1   8   7 91.5315 6.90510   1
   0   8   7 0.02196 1.45855   1
   1   8   7 209.733 10.8621   1
   2   1  14 700.083 29.9125  -2
   2   8   7 700.083 29.9125   1
   3   8   7 907.404 38.0161   1
   4   2  13 99.5575 7.00313  -2
   4   8   7 99.5575 7.00313   1
   5   8   7 15.8920 3.34257   1
   6   3  12 195.083 11.9368  -2
   6   8   7 195.083 11.9368   1
   7   8   7 106.094 8.40188   1
  -1   9   7 320.403 15.5150   1
   0   0  16 57.2403 5.76504  -2
   0   9   7 57.2403 5.76504   1
   1   9   7 41.6403 4.11156   1
   2   9   7 16.2168 2.97633   1
   3   1  15 318.276 15.6529  -2
   3   9   7 318.276 15.6529   1
   4   9   7 148.525 9.04537   1
   5   2  14 46.7347 5.26090  -2
   5   9   7 46.7347 5.26090   1
   6   9   7 211.931 12.3319   1
   7   3  13 37.4538 6.82106  -2
   7   9   7 37.4538 6.82106   1
   0  10   7 53.8275 4.97356   1
   1  10   7 60.6979 5.20854   1
   2   0  17 93.1676 7.22833  -2
   2  10   7 93.1676 7.22833   1
   3  10   7 8.90739 2.58454   1
   4   1  16 52.8528 5.69288  -2
   4  10   7 52.8528 5.69288   1
   5  10   7 142.341 9.34995   1
   6   2  15 320.922 17.0867  -2
   6  10   7 320.922 17.0867   1
   2  -8  10 19.8057 4.20350  -2
  -2 -10   8 19.8057 4.20350   1
  -5  -9   8 10.8085 3.48433   1
  -4  -9   8 77.9318 6.69378   1
   3  -7   8 282.218 9.37336  -2
  -3  -9   8 282.218 9.37336   1
  -2  -9   8 4.09909 1.23123   1
   1  -8   9 28.4114 2.79478  -2
  -1  -9   8 28.4114 2.79478   1
   0  -9   8 74.6101 3.85398   1
  -1  -9  10 207.610 7.51059  -2
   1  -9   8 207.610 7.51059   1
  -6  -8   8 3.65158 3.03769   1
   5  -6   6 27.8879 6.22928  -2
  -5  -8   8 27.8879 6.22928   1
  -4  -8   8 97.1790 4.78955   1
  -3  -8   8 0.57947 1.26566   1
   2  -7   7 59.5236 3.64565  -2
  -2  -8   8 59.5236 3.64565   1
  -1  -8   8 12.1407 1.19599   1
   0  -8   8 250.685 8.22140  -2
   0  -8   8 250.685 8.22140   1
   1  -8   8 44.7067 2.40603   1
  -2  -9   9 4.61701 2.77595  -2
   2  -8   8 4.61701 2.77595   1
   3  -8   8 1.51484 1.48142   1
   6  -5   4 17.0513 5.15282  -2
  -6  -7   8 17.0513 5.15282   1
  -5  -7   8 49.2011 5.74834   1
   4  -6   5 361.829 18.0765  -2
  -4  -7   8 361.829 18.0765   1
  -3  -7   8 25.5071 2.38631   1
  -2  -7   8 3.85642 0.96779   1
   1  -7   6 142.503 4.09121  -2
  -1  -7   8 142.503 4.09121   1
   0  -7   8 178.225 3.96141   1
  -1  -8   7 23.7065 1.90046  -2
   1  -7   8 23.7065 1.90046   1
   2  -7   8 11.7470 1.86884   1
  -3  -9   8 279.589 9.33829  -2
   3  -7   8 279.589 9.33829   1
   4  -7   8 3.60219 1.64829   1
   7  -4   2 823.215 37.2519  -2
  -7  -6   8 823.215 37.2519   1
  -6  -6   8 31.2396 5.15526   1
   5  -5   3 21.0225 3.14819  -2
  -5  -6   8 21.0225 3.14819   1
  -4  -6   8 137.348 5.59696   1
   3  -6   4 66.6416 6.42914  -2
  -3  -6   8 66.6416 6.42914   1
  -2  -6   8 151.178 3.76547   1
  -1  -6   8 584.361 9.63745   1
   0  -7   5 72.6368 2.08360  -2
   0  -6   8 72.6368 2.08360   1
   1  -6   8 11.5348 0.88899   1
  -2  -8   6 22.0203 2.46595  -2
   2  -6   8 22.0203 2.46595   1
   3  -6   8 134.483 5.43396   1
  -4  -9   7 90.6068 5.20150  -2
   4  -6   8 90.6068 5.20150   1
   5  -6   8 21.6510 2.70447   1
  -7  -5   8 254.231 14.9856   1
   6  -4   1 968.727 41.8523  -2
  -6  -5   8 968.727 41.8523   1
  -5  -5   8 21.5494 2.54913   1
   4  -5   2 -0.2127 2.17694  -2
  -4  -5   8 -0.2127 2.17694   1
  -3  -5   8 32.0952 1.48994   1
   2  -6   3 133.564 7.66278  -2
  -2  -5   8 133.564 7.66278   1
   1  -6   3 340.956 15.4704  -2
  -1  -5   8 340.956 15.4704   1
   0  -5   8 208.683 3.91623   1
  -1  -7   4 255.019 5.30023  -2
   1  -5   8 255.019 5.30023   1
   2  -5   8 -0.5655 0.75851   1
  -3  -8   5 364.864 10.9437  -2
   3  -5   8 364.864 10.9437   1
   4  -5   8 50.1959 3.45013   1
  -5  -9   6 367.929 11.7506  -2
   5  -5   8 367.929 11.7506   1
  -7   3   1 270.752 16.0392  -2
  -7  -4   8 270.752 16.0392   1
  -6  -4   8 117.879 8.81166   1
  -5   4   0 73.7970 3.27871  -2
  -5  -4   8 73.7970 3.27871   1
  -4  -4   8 1.03443 0.95854   1
   3  -5   1 412.790 9.38384  -2
  -3  -4   8 412.790 9.38384   1
  -2  -4   8 104.065 2.87104   1
  -1  -4   8 2.10910 0.55847   1
   0  -6   2 23.9731 2.16400  -2
   0  -4   8 23.9731 2.16400   1
   1  -4   8 814.047 13.3331   1
  -2  -7   3 135.582 4.27315  -2
   2  -4   8 135.582 4.27315   1
   3  -4   8 31.1513 2.09739   1
  -4  -8   4 286.145 9.24201  -2
   4  -4   8 286.145 9.24201   1
   5  -4   8 1.34582 1.49781   1
  -6  -9   5 162.604 7.27223  -2
   6  -4   8 162.604 7.27223   1
  -7  -3   8 125.760 9.58902   1
  -6   3   2 63.5653 7.35313  -2
  -6  -3   8 63.5653 7.35313   1
  -5  -3   8 7.52720 1.47490   1
  -4   4   1 578.697 13.5333  -2
  -4  -3   8 578.697 13.5333   1
  -3  -3   8 81.3205 3.06329   1
  -2   5   0 35.9246 2.38896  -2
  -2  -3   8 35.9246 2.38896   1
  -1  -3   8 15.5691 1.11926   1
   0  -6   1 1106.68 35.5356  -2
   0  -3   8 1106.68 35.5356   1
  -1  -6   1 384.861 9.14530  -2
   1  -3   8 384.861 9.14530   1
   2  -3   8 823.690 15.7059   1
  -3  -7   2 1211.67 22.7243  -2
   3  -3   8 1211.67 22.7243   1
   4  -3   8 79.0635 3.30109   1
  -5  -8   3 161.652 6.41393  -2
   5  -3   8 161.652 6.41393   1
   6  -3   8 52.2949 3.93417   1
   7  -3   8 24.0325 3.10381   1
  -7  -2   8 15.1614 2.64492   1
  -6  -2   8 0.98962 1.51149   1
  -5   3   3 1.61011 2.12564  -2
  -5  -2   8 1.61011 2.12564   1
  -4  -2   8 763.643 17.2774   1
  -3   4   2 41.4424 2.23426  -2
  -3  -2   8 41.4424 2.23426   1
  -2  -2   8 4.88944 1.00644   1
  -1   5   1 191.430 6.93179  -2
  -1  -2   8 191.430 6.93179   1
   0  -2   8 12.2928 0.85242   1
   1  -2   8 387.283 6.23870   1
   2   6   0 392.931 9.34030  -2
   2  -2   8 392.931 9.34030   1
   3  -2   8 1.27069 0.62533   1
  -4  -7   1 57.9121 2.91862  -2
   4  -2   8 57.9121 2.91862   1
   5  -2   8 83.1131 4.24984   1
  -6  -8   2 28.2228 3.50110  -2
   6  -2   8 28.2228 3.50110   1
   7  -2   8 84.0381 4.82245   1
  -7  -1   8 228.123 13.3815   1
  -6  -1   8 428.760 14.6163   1
  -5  -1   8 17.3032 1.88614   1
  -4   3   4 468.809 11.4005  -2
  -4  -1   8 468.809 11.4005   1
  -3  -1   8 427.458 10.2557   1
  -2   4   3 122.784 3.83976  -2
  -2  -1   8 122.784 3.83976   1
  -1  -1   8 228.539 4.39907   1
   0   5   2 945.549 20.1726  -2
   0  -1   8 945.549 20.1726   1
   1  -1   8 3.32498 0.58126   1
   2   6   1 530.903 22.6644  -2
   2  -1   8 530.903 22.6644   1
   3   6   1 581.552 11.6007  -2
   3  -1   8 581.552 11.6007   1
   4  -1   8 894.339 19.5268   1
   5   7   0 29.5563 2.22897  -2
   5  -1   8 29.5563 2.22897   1
   6  -1   8 1.94209 1.50247   1
  -7  -8   1 28.5441 3.77852  -2
   7  -1   8 28.5441 3.77852   1
  -7   0   8 0.89084 2.50685   1
  -6   0   8 446.993 21.5480   1
  -5   0   8 397.329 10.1688   1
  -4   0   8 133.824 4.46504   1
  -3   3   5 394.685 9.66331  -2
  -3   0   8 394.685 9.66331   1
  -2   0   8 230.545 6.05642   1
  -1   4   4 799.868 14.3584  -2
  -1   0   8 799.868 14.3584   1
   0   0   8 215.983 4.41052   1
   1   5   3 397.497 12.3812  -2
   1   0   8 397.497 12.3812   1
   2   0   8 410.215 8.36637   1
   3   0   8 0.89353 0.43341   1
   4   6   2 3277.69 67.1834  -2
   4   0   8 3277.69 67.1834   1
   5   0   8 173.720 3.96787   1
   6   7   1 274.105 8.99010  -2
   6   0   8 274.105 8.99010   1
   7   0   8 17.5932 2.57539   1
   8   8   0 24.7967 4.26794  -2
   8   0   8 24.7967 4.26794   1
  -7   1   8 68.9836 8.00282  -2
  -7   1   8 68.9836 8.00282   1
  -6   1   8 10.1851 3.12616   1
  -5   1   8 500.743 12.3625   1
  -4   1   8 5.67107 1.24779   1
  -3   1   8 132.866 4.30499   1
  -2   3   6 211.266 7.65479  -2
  -2   1   8 211.266 7.65479   1
  -1   1   8 47.7413 1.93601   1
   0   4   5 1052.61 22.1339  -2
   0   1   8 1052.61 22.1339   1
   1   1   8 211.971 5.35670   1
   2   1   8 2258.96 46.4047   1
   3   1   8 268.083 5.45664   1
   4   1   8 221.337 4.78011   1
   5   6   3 520.629 9.99619  -2
   5   1   8 520.629 9.99619   1
   6   1   8 108.569 3.24781   1
   7   7   2 14.0032 2.66171  -2
   7   1   8 14.0032 2.66171   1
   8   1   8 148.753 6.52550   1
  -6   1   9 111.700 9.15826  -2
  -6   2   8 111.700 9.15826   1
  -5   2   8 -0.6239 1.39674   1
  -4   2   8 183.910 5.58968   1
  -3   2   8 7.50818 0.83241   1
  -2   2   8 900.273 18.9771   1
  -1   3   7 186.293 4.22043  -2
  -1   2   8 186.293 4.22043   1
   0   2   8 116.521 2.94943   1
   1   4   6 29.1312 1.34483  -2
   1   2   8 29.1312 1.34483   1
   2   2   8 790.857 17.0126   1
   3   2   8 28.7241 1.42665   1
   4   2   8 869.395 15.7009   1
   5   2   8 8.00572 0.99824   1
   6   6   4 7.55191 1.54917  -2
   6   2   8 7.55191 1.54917   1
   7   2   8 1.37065 1.22653   1
   8   7   3 23.8109 3.25232  -2
   8   2   8 23.8109 3.25232   1
  -6   3   8 19.5079 4.24218   1
  -5   1  10 2.01108 4.59150  -2
  -5   3   8 2.01108 4.59150   1
  -4   3   8 8.23253 1.79400   1
  -3   3   8 962.035 22.7492   1
  -2   2   9 242.603 12.3631  -2
  -2   3   8 242.603 12.3631   1
  -1   3   8 73.7543 2.11352   1
   0   3   8 2.34523 0.98253  -2
   0   3   8 2.34523 0.98253   1
   1   3   8 107.377 2.21853   1
   2   4   7 499.693 9.94948  -2
   2   3   8 499.693 9.94948   1
   3   3   8 724.095 13.2149   1
   4   5   6 27.7254 4.56750  -2
   4   3   8 27.7254 4.56750   1
   5   5   6 288.094 14.6455  -2
   5   3   8 288.094 14.6455   1
   6   3   8 132.264 3.64336   1
   7   6   5 70.9559 3.78096  -2
   7   3   8 70.9559 3.78096   1
   8   3   8 2.38556 1.50501   1
  -5   4   8 369.424 18.4751   1
  -4   1  11 147.874 6.55475  -2
  -4   4   8 147.874 6.55475   1
  -3   4   8 222.214 11.6820   1
  -2   4   8 388.647 10.0396   1
  -1   2  10 353.133 11.5501  -2
  -1   4   8 353.133 11.5501   1
   0   4   8 30.1332 1.12509   1
   1   3   9 100.045 2.24259  -2
   1   4   8 100.045 2.24259   1
   2   4   8 411.044 7.25311   1
   3   4   8 7.16874 1.52831  -2
   3   4   8 7.16874 1.52831   1
   4   4   8 1086.20 19.4552   1
   5   4   8 422.879 8.49720   1
   6   5   7 263.421 8.57528  -2
   6   4   8 263.421 8.57528   1
   7   4   8 128.485 3.82448   1
   8   6   6 18.4641 2.70931  -2
   8   4   8 18.4641 2.70931   1
  -5   0  13 682.918 30.7934  -2
  -5   5   8 682.918 30.7934   1
  -4   5   8 63.8256 5.81542   1
  -3   1  12 19.0221 4.52693  -2
  -3   5   8 19.0221 4.52693   1
  -2   5   8 269.255 13.2594   1
  -1   2  11 865.199 36.0976  -2
  -1   5   8 865.199 36.0976   1
   0   2  11 71.8123 4.01781  -2
   0   5   8 71.8123 4.01781   1
   1   5   8 31.9592 1.25332   1
   2   3  10 89.6701 2.52979  -2
   2   5   8 89.6701 2.52979   1
   3   5   8 0.23006 0.58019   1
   4   4   9 38.2518 2.87286  -2
   4   5   8 38.2518 2.87286   1
   5   5   8 1151.82 20.7577   1
   6   5   8 14.2203 5.32782  -2
   6   5   8 14.2203 5.32782   1
   7   5   8 199.329 12.2899  -2
   7   5   8 199.329 12.2899   1
   8   5   8 28.2053 2.35239   1
  -4   0  14 75.7374 6.94897  -2
  -4   6   8 75.7374 6.94897   1
  -3   6   8 2.20507 2.12268   1
  -2   1  13 4.08064 3.78820  -2
  -2   6   8 4.08064 3.78820   1
  -1   6   8 0.54605 1.55462   1
   0   6   8 98.6206 4.50139   1
   1   2  12 854.719 18.1225  -2
   1   6   8 854.719 18.1225   1
   2   6   8 36.3164 1.65630   1
   3   3  11 959.293 18.4888  -2
   3   6   8 959.293 18.4888   1
   4   6   8 32.3983 1.94694   1
   5   4  10 672.205 29.7884  -2
   5   6   8 672.205 29.7884   1
   6   4  10 562.429 26.0292  -2
   6   6   8 562.429 26.0292   1
   7   5   9 174.615 11.7793  -2
   7   6   8 174.615 11.7793   1
   8   5   9 3.24130 5.41340  -2
   8   6   8 3.24130 5.41340   1
  -3   0  15 30.5804 4.33983  -2
  -3   7   8 30.5804 4.33983   1
  -2   7   8 17.4348 3.26603   1
  -1   1  14 556.322 24.6607  -2
  -1   7   8 556.322 24.6607   1
   0   7   8 269.812 13.2257   1
   1   7   8 222.858 11.5309   1
   2   2  13 49.3726 4.61072  -2
   2   7   8 49.3726 4.61072   1
   3   7   8 885.650 37.3133   1
   4   3  12 33.4536 4.22835  -2
   4   7   8 33.4536 4.22835   1
   5   7   8 86.5256 6.85213   1
   6   4  11 -10.202 3.97777  -2
   6   7   8 -10.202 3.97777   1
   7   4  11 67.8257 7.69903  -2
   7   7   8 67.8257 7.69903   1
   8   5  10 181.678 12.7435  -2
   8   7   8 181.678 12.7435   1
  -2   0  16 451.346 21.0434  -2
  -2   8   8 451.346 21.0434   1
  -1   8   8 240.101 12.5357   1
   0   1  15 123.906 8.37480  -2
   0   8   8 123.906 8.37480   1
   1   8   8 25.3629 3.63368   1
   2   8   8 9.17758 2.64260   1
   3   2  14 346.104 16.8976  -2
   3   8   8 346.104 16.8976   1
   4   8   8 25.1240 3.92921   1
   5   3  13 10.6519 3.56205  -2
   5   8   8 10.6519 3.56205   1
   6   8   8 78.0761 7.02494   1
   7   4  12 72.3370 8.21329  -2
   7   8   8 72.3370 8.21329   1
  -1   0  17 36.7133 5.19293  -2
  -1   9   8 36.7133 5.19293   1
   0   9   8 13.8811 2.99291   1
   1   9   8 10.3523 2.62740   1
   2   1  16 337.596 16.6861  -2
   2   9   8 337.596 16.6861   1
   3   9   8 82.7043 6.56812   1
   4   2  15 17.5927 4.24247  -2
   4   9   8 17.5927 4.24247   1
   5   9   8 130.698 8.95453   1
   6   3  14 16.9607 4.49907  -2
   6   9   8 16.9607 4.49907   1
   1  10   8 17.5619 3.31962   1
   2  10   8 57.6027 5.40980   1
   3   1  17 50.4215 6.35951  -2
   3  10   8 50.4215 6.35951   1
   4  10   8 32.6138 4.62659   1
   5   2  16 89.3832 7.77521  -2
   5  10   8 89.3832 7.77521   1
  -4  -9   9 93.6887 7.64330   1
  -3  -9   9 0.49061 1.41273   1
   2  -8   8 -3.9145 4.00169  -2
  -2  -9   9 -3.9145 4.00169   1
  -1  -9   9 2.83534 1.65366   1
   0  -9   9 302.250 9.79780  -2
   0  -9   9 302.250 9.79780   1
   1  -9   9 58.1568 3.67973   1
  -5  -8   9 4.88023 2.98526   1
   4  -7   6 271.773 15.1952  -2
  -4  -8   9 271.773 15.1952   1
  -3  -8   9 43.7253 3.28364   1
  -2  -8   9 27.2927 2.12237   1
   1  -8   7 292.554 14.2968  -2
  -1  -8   9 292.554 14.2968   1
   0  -8   9 75.8579 3.97232   1
  -1  -9   8 23.0580 2.66656  -2
   1  -8   9 23.0580 2.66656   1
   2  -8   9 141.013 5.79497   1
  -6  -7   9 116.000 9.15861   1
   5  -6   4 116.481 9.26772  -2
  -5  -7   9 116.481 9.26772   1
  -4  -7   9 225.023 7.97686   1
   3  -7   5 9.38507 4.88307  -2
  -3  -7   9 9.38507 4.88307   1
  -2  -7   9 118.693 3.78033   1
  -1  -7   9 43.6629 1.90033   1
   0  -8   6 237.050 8.12593  -2
   0  -7   9 237.050 8.12593   1
   1  -7   9 2.47075 1.04361   1
  -2  -9   7 68.0285 3.88807  -2
   2  -7   9 68.0285 3.88807   1
   3  -7   9 149.835 6.06260   1
   6  -5   2 444.633 22.1564  -2
  -6  -6   9 444.633 22.1564   1
  -5  -6   9 41.8251 5.72620   1
   4  -6   3 34.9992 3.29011  -2
  -4  -6   9 34.9992 3.29011   1
  -3  -6   9 22.9242 2.30717   1
  -2  -6   9 29.9144 1.90741   1
   1  -7   4 18.0532 4.36501  -2
  -1  -6   9 18.0532 4.36501   1
   0  -6   9 203.368 4.31374   1
  -1  -8   5 92.0040 4.51136  -2
   1  -6   9 92.0040 4.51136   1
   2  -6   9 2.41229 1.33949   1
  -3  -9   6 60.0449 3.89870  -2
   3  -6   9 60.0449 3.89870   1
   4  -6   9 64.9480 4.10072   1
  -7   4   0 475.266 24.3337  -2
  -7  -5   9 475.266 24.3337   1
  -6  -5   9 45.9516 6.33268   1
   5  -5   1 134.154 5.81920  -2
  -5  -5   9 134.154 5.81920   1
  -4  -5   9 38.7672 3.01436   1
   3  -6   2 15.8887 2.11555  -2
  -3  -5   9 15.8887 2.11555   1
  -2  -5   9 48.2037 1.98588   1
   1  -7   3 115.523 5.39563  -2
  -1  -5   9 115.523 5.39563   1
   0  -7   3 7.32860 2.91819  -2
   0  -5   9 7.32860 2.91819   1
   1  -5   9 43.5948 1.50339   1
  -2  -8   4 195.427 6.98380  -2
   2  -5   9 195.427 6.98380   1
   3  -5   9 340.620 10.4565   1
  -4  -9   5 0.44725 2.52693  -2
   4  -5   9 0.44725 2.52693   1
   5  -5   9 4.34888 1.80867   1
  -7  -4   9 1.14887 3.04211   1
  -6   4   1 66.5213 7.87060  -2
  -6  -4   9 66.5213 7.87060   1
  -5  -4   9 89.2770 4.49933   1
  -4   5   0 748.871 17.0669  -2
  -4  -4   9 748.871 17.0669   1
  -3  -4   9 38.2197 1.90230   1
   2  -6   1 110.236 3.85349  -2
  -2  -4   9 110.236 3.85349   1
  -1  -4   9 70.1978 2.02548   1
   0  -7   2 643.047 22.3468  -2
   0  -4   9 643.047 22.3468   1
  -1  -7   2 638.577 14.4577  -2
   1  -4   9 638.577 14.4577   1
   2  -4   9 546.384 12.5914   1
  -3  -8   3 431.979 12.6154  -2
   3  -4   9 431.979 12.6154   1
   4  -4   9 36.7087 3.13474   1
  -5  -9   4 22.8768 3.30401  -2
   5  -4   9 22.8768 3.30401   1
   6  -4   9 117.217 5.66753   1
  -7  -3   9 177.033 11.7349   1
  -6  -3   9 41.7572 3.83327   1
  -5   4   2 55.3294 3.32473  -2
  -5  -3   9 55.3294 3.32473   1
  -4  -3   9 466.834 11.3950   1
  -3   5   1 1925.99 40.6058  -2
  -3  -3   9 1925.99 40.6058   1
  -2  -3   9 2.61744 0.90569   1
  -1   6   0 174.004 6.73484  -2
  -1  -3   9 174.004 6.73484   1
   0  -3   9 5.29707 0.67135   1
   1  -3   9 1008.73 15.1642   1
  -2  -7   1 1558.31 32.8654  -2
   2  -3   9 1558.31 32.8654   1
   3  -3   9 497.285 10.3230   1
  -4  -8   2 103.670 4.92912  -2
   4  -3   9 103.670 4.92912   1
   5  -3   9 -0.3586 1.32329   1
  -6  -9   3 41.6892 4.11352  -2
   6  -3   9 41.6892 4.11352   1
  -7  -2   9 92.4950 7.84230   1
  -6  -2   9 293.548 11.0080   1
  -5  -2   9 44.0652 2.76678   1
  -4   4   3 70.2261 3.45211  -2
  -4  -2   9 70.2261 3.45211   1
  -3  -2   9 1049.19 22.9576   1
  -2   5   2 258.114 6.71651  -2
  -2  -2   9 258.114 6.71651   1
  -1  -2   9 367.057 6.69862   1
   0   6   1 576.999 15.4184  -2
   0  -2   9 576.999 15.4184   1
   1  -2   9 77.6185 1.88987   1
   2   7   0 70.0064 5.78718  -2
   2  -2   9 70.0064 5.78718   1
   3   7   0 238.770 5.68138  -2
   3  -2   9 238.770 5.68138   1
   4  -2   9 811.851 21.4533   1
  -5  -8   1 90.4905 4.54840  -2
   5  -2   9 90.4905 4.54840   1
   6  -2   9 49.9701 3.94902   1
  -7  -9   2 23.6345 3.98782  -2
   7  -2   9 23.6345 3.98782   1
  -7  -1   9 4.95787 3.01667   1
  -6  -1   9 31.5993 3.46422   1
  -5  -1   9 430.573 10.9609   1
  -4  -1   9 67.6388 3.14598   1
  -3   4   4 3.71924 1.83444  -2
  -3  -1   9 3.71924 1.83444   1
  -2  -1   9 77.1115 2.99766   1
  -1   5   3 18.6625 1.40008  -2
  -1  -1   9 18.6625 1.40008   1
   0  -1   9 50.9632 1.73392   1
   1   6   2 992.133 25.1035  -2
   1  -1   9 992.133 25.1035   1
   2  -1   9 13.9590 0.87319   1
   3  -1   9 128.642 4.05560   1
   4   7   1 897.729 19.7727  -2
   4  -1   9 897.729 19.7727   1
   5  -1   9 703.430 19.0739   1
   6   8   0 5.63905 2.27926  -2
   6  -1   9 5.63905 2.27926   1
   7  -1   9 16.1998 2.66167   1
  -6   0   9 211.664 12.4779   1
  -5   0   9 227.103 6.80374   1
  -4   0   9 7.03177 1.30536   1
  -3   0   9 117.815 4.04666   1
  -2   4   5 66.3358 3.03085  -2
  -2   0   9 66.3358 3.03085   1
  -1   0   9 151.387 3.60923   1
   0   5   4 42.3679 2.16702  -2
   0   0   9 42.3679 2.16702   1
   1   0   9 8.68442 1.10413   1
   2   6   3 556.634 24.1896  -2
   2   0   9 556.634 24.1896   1
   3   0   9 0.53980 0.48343   1
   4   0   9 633.736 11.6959   1
   5   7   2 249.792 7.06103  -2
   5   0   9 249.792 7.06103   1
   6   0   9 32.9931 3.14307   1
   7   8   1 51.4858 3.91395  -2
   7   0   9 51.4858 3.91395   1
   8   0   9 87.0642 5.21404   1
  -6   2   8 121.382 9.59054  -2
  -6   1   9 121.382 9.59054   1
  -5   1   9 -0.0783 1.33871   1
  -4   1   9 85.1759 3.58201   1
  -3   1   9 356.372 9.03821   1
  -2   1   9 115.794 3.02784   1
  -1   4   6 1209.43 25.4021  -2
  -1   1   9 1209.43 25.4021   1
   0   1   9 148.809 4.15323   1
   1   5   5 109.852 3.52644  -2
   1   1   9 109.852 3.52644   1
   2   1   9 2.33120 0.94901   1
   3   1   9 333.638 6.66601   1
   4   1   9 306.332 6.28421   1
   5   1   9 87.0201 2.59651   1
   6   7   3 15.9068 2.60495  -2
   6   1   9 15.9068 2.60495   1
   7   1   9 77.6938 4.46664   1
   8   8   2 -4.8498 2.64196  -2
   8   1   9 -4.8498 2.64196   1
  -6   2   9 0.00650 2.20057   1
  -5   2   9 3.17943 4.70872  -2
  -5   2   9 3.17943 4.70872   1
  -4   2   9 -0.1423 1.27899   1
  -3   2   9 1099.63 19.6171   1
  -2   2   9 193.339 4.39252   1
  -1   2   9 8.16154 0.95790   1
   0   4   7 977.574 20.7063  -2
   0   2   9 977.574 20.7063   1
   1   2   9 235.376 5.89609   1
   2   5   6 1065.99 22.6902  -2
   2   2   9 1065.99 22.6902   1
   3   2   9 179.020 4.12562   1
   4   2   9 177.503 4.15883   1
   5   6   5 224.472 12.2592  -2
   5   2   9 224.472 12.2592   1
   6   2   9 58.9826 2.39248   1
   7   7   4 171.510 5.91759  -2
   7   2   9 171.510 5.91759   1
   8   2   9 -3.2681 1.54625   1
  -5   3   9 219.029 12.5750   1
  -4   2  10 57.4367 4.37367  -2
  -4   3   9 57.4367 4.37367   1
  -3   3   9 9.39664 2.72821   1
  -2   3   9 1181.30 33.9392   1
  -1   3   9 -3.2338 3.58209  -2
  -1   3   9 -3.2338 3.58209   1
   0   3   9 430.593 8.61278   1
   1   4   8 104.049 3.22392  -2
   1   3   9 104.049 3.22392   1
   2   3   9 168.145 4.62932   1
   3   5   7 53.9008 2.20796  -2
   3   3   9 53.9008 2.20796   1
   4   3   9 192.813 4.49217   1
   5   3   9 819.335 15.1435   1
   6   6   6 149.297 9.95676  -2
   6   3   9 149.297 9.95676   1
   7   3   9 221.187 6.74552   1
   8   7   5 131.203 6.37603  -2
   8   3   9 131.203 6.37603   1
  -5   1  12 10.7727 4.17271  -2
  -5   4   9 10.7727 4.17271   1
  -4   4   9 245.587 13.2823   1
  -3   2  11 193.740 11.3025  -2
  -3   4   9 193.740 11.3025   1
  -2   4   9 91.2731 6.49620   1
  -1   4   9 95.9454 4.22337   1
   0   3  10 47.3877 3.64889  -2
   0   4   9 47.3877 3.64889   1
   1   4   9 1242.60 19.7265   1
   2   4   9 14.2718 1.22826  -2
   2   4   9 14.2718 1.22826   1
   3   4   9 43.2988 1.87192   1
   4   5   8 40.8561 2.44072  -2
   4   4   9 40.8561 2.44072   1
   5   4   9 878.995 16.2192   1
   6   6   7 38.1412 6.55551  -2
   6   4   9 38.1412 6.55551   1
   7   6   7 25.0412 5.54367  -2
   7   4   9 25.0412 5.54367   1
   8   4   9 229.695 7.23921   1
  -4   1  13 190.197 11.4387  -2
  -4   5   9 190.197 11.4387   1
  -3   5   9 23.0778 3.71834   1
  -2   2  12 68.4917 6.35460  -2
  -2   5   9 68.4917 6.35460   1
  -1   5   9 39.3714 3.18247   1
   0   5   9 68.3976 2.80633   1
   1   3  11 1426.75 26.3595  -2
   1   5   9 1426.75 26.3595   1
   2   5   9 28.3807 1.35265   1
   3   4  10 86.7215 2.62056  -2
   3   5   9 86.7215 2.62056   1
   4   5   9 150.380 3.83107   1
   5   5   9 4.81504 1.89639  -2
   5   5   9 4.81504 1.89639   1
   6   5   9 587.980 27.0362  -2
   6   5   9 587.980 27.0362   1
   7   6   8 159.293 11.1919  -2
   7   5   9 159.293 11.1919   1
   8   6   8 7.89417 5.64441  -2
   8   5   9 7.89417 5.64441   1
  -4   6   9 12.1211 3.33905   1
  -3   1  14 7.94319 3.65772  -2
  -3   6   9 7.94319 3.65772   1
  -2   6   9 15.3881 3.10544   1
  -1   2  13 261.410 13.6319  -2
  -1   6   9 261.410 13.6319   1
   0   6   9 455.168 20.5944   1
   1   6   9 195.057 4.71880   1
   2   3  12 58.7812 4.06541  -2
   2   6   9 58.7812 4.06541   1
   3   6   9 2.25147 2.02949   1
   4   4  11 325.397 9.64247  -2
   4   6   9 325.397 9.64247   1
   5   6   9 225.932 7.62148   1
   6   5  10 12.0268 4.29982  -2
   6   6   9 12.0268 4.29982   1
   7   5  10 203.607 13.1820  -2
   7   6   9 203.607 13.1820   1
   8   6   9 -0.0926 6.30514  -2
   8   6   9 -0.0926 6.30514   1
  -3   7   9 9.07925 2.98431   1
  -2   1  15 681.560 29.9242  -2
  -2   7   9 681.560 29.9242   1
  -1   7   9 4.19956 2.18822   1
   0   2  14 50.1638 5.72261  -2
   0   7   9 50.1638 5.72261   1
   1   7   9 514.756 23.1117   1
   2   7   9 284.365 14.4130   1
   3   3  13 39.9499 4.52924  -2
   3   7   9 39.9499 4.52924   1
   4   7   9 91.6189 7.08151   1
   5   4  12 8.30456 3.33793  -2
   5   7   9 8.30456 3.33793   1
   6   7   9 -0.4324 2.05947   1
   7   5  11 105.735 9.35544  -2
   7   7   9 105.735 9.35544   1
  -2   8   9 367.214 18.0261   1
  -1   1  16 491.707 22.6798  -2
  -1   8   9 491.707 22.6798   1
   0   8   9 1.34699 2.04283   1
   1   8   9 22.1429 3.65276   1
   2   2  15 441.362 20.8359  -2
   2   8   9 441.362 20.8359   1
   3   8   9 24.9176 4.05332   1
   4   3  14 15.0788 4.36830  -2
   4   8   9 15.0788 4.36830   1
   5   8   9 27.1141 4.49986   1
   6   4  13 124.374 9.07271  -2
   6   8   9 124.374 9.07271   1
   7   8   9 90.7846 8.11922   1
   0   1  17 43.3561 5.53890  -2
   0   9   9 43.3561 5.53890   1
   1   9   9 170.940 10.1509   1
   2   9   9 158.747 9.75529   1
   3   2  16 268.945 14.7029  -2
   3   9   9 268.945 14.7029   1
   4   9   9 84.7445 7.04876   1
   5   3  15 22.8342 5.11294  -2
   5   9   9 22.8342 5.11294   1
   6   9   9 298.831 16.2239   1
   2  10   9 255.665 13.7716   1
   3  10   9 4.00111 2.63586   1
   4   2  17 107.159 8.82932  -2
   4  10   9 107.159 8.82932   1
  -3  -9  10 83.6563 7.01962   1
  -2  -9  10 13.2564 2.31685   1
   1  -9   8 224.430 8.47061  -2
  -1  -9  10 224.430 8.47061   1
   0  -9  10 1.90941 1.46315   1
  -4  -8  10 21.0999 4.25859   1
   3  -8   6 7.53706 5.07719  -2
  -3  -8  10 7.53706 5.07719   1
  -2  -8  10 9.84760 1.98196   1
  -1  -8  10 -1.5753 1.34350   1
   0  -9   7 296.816 9.90119  -2
   0  -8  10 296.816 9.90119   1
   1  -8  10 75.0611 4.14746   1
  -2 -10   8 31.2303 3.27100  -2
   2  -8  10 31.2303 3.27100   1
  -5  -7  10 -2.6676 2.53510   1
   4  -7   4 172.289 11.2640  -2
  -4  -7  10 172.289 11.2640   1
  -3  -7  10 6.16306 1.60944   1
   2  -8   5 50.3560 6.16150  -2
  -2  -7  10 50.3560 6.16150   1
   1  -8   5 644.470 17.9835  -2
  -1  -7  10 644.470 17.9835   1
   0  -7  10 24.4448 2.57137   1
  -1  -9   6 36.9103 3.41816  -2
   1  -7  10 36.9103 3.41816   1
   2  -7  10 52.1330 3.59658   1
  -3 -10   7 371.586 11.7781  -2
   3  -7  10 371.586 11.7781   1
  -6  -6  10 0.96370 3.28883   1
   5  -6   2 518.256 24.7641  -2
  -5  -6  10 518.256 24.7641   1
  -4  -6  10 7.45541 1.82215   1
   3  -7   3 20.7526 2.86092  -2
  -3  -6  10 20.7526 2.86092   1
  -2  -6  10 76.9887 2.97123   1
   1  -8   4 591.151 26.1489  -2
  -1  -6  10 591.151 26.1489   1
   0  -8   4 107.542 5.32565  -2
   0  -6  10 107.542 5.32565   1
   1  -6  10 30.7184 2.25186   1
  -2  -9   5 58.9823 3.95675  -2
   2  -6  10 58.9823 3.95675   1
   3  -6  10 297.528 9.70508   1
  -4 -10   6 34.8951 3.69792  -2
   4  -6  10 34.8951 3.69792   1
  -6   5   0 233.848 14.6610  -2
  -6  -5  10 233.848 14.6610   1
  -5  -5  10 105.312 8.37845   1
   4  -6   1 287.457 9.45658  -2
  -4  -5  10 287.457 9.45658   1
  -3  -5  10 178.679 6.51305   1
   2  -7   2 20.2457 2.18554  -2
  -2  -5  10 20.2457 2.18554   1
  -1  -5  10 134.023 3.64118   1
   0  -8   3 180.517 9.27507  -2
   0  -5  10 180.517 9.27507   1
  -1  -8   3 550.390 11.6572  -2
   1  -5  10 550.390 11.6572   1
   2  -5  10 92.5653 4.36283   1
  -3  -9   4 257.708 8.82528  -2
   3  -5  10 257.708 8.82528   1
   4  -5  10 5.23250 1.77477   1
  -5 -10   5 21.8929 3.56233  -2
   5  -5  10 21.8929 3.56233   1
  -6  -4  10 16.1904 3.93607   1
  -5   5   1 86.3955 8.14550  -2
  -5  -4  10 86.3955 8.14550   1
  -4  -4  10 2.29934 1.31620   1
  -3   6   0 1706.24 36.2771  -2
  -3  -4  10 1706.24 36.2771   1
  -2  -4  10 4.50666 1.03710   1
   1  -7   1 64.4362 4.09140  -2
  -1  -4  10 64.4362 4.09140   1
   0  -4  10 0.87559 0.54831   1
   1  -4  10 218.425 4.37085   1
  -2  -8   2 26.2702 3.33295  -2
   2  -4  10 26.2702 3.33295   1
   3  -4  10 603.321 16.7329   1
  -4  -9   3 23.8756 3.13958  -2
   4  -4  10 23.8756 3.13958   1
   5  -4  10 10.3372 2.24365   1
   6  -4  10 14.5363 2.52123   1
  -6  -3  10 -0.5351 2.70292   1
  -5  -3  10 55.1998 3.07232   1
  -4   5   2 1141.44 25.2359  -2
  -4  -3  10 1141.44 25.2359   1
  -3  -3  10 177.648 5.33526   1
  -2   6   1 3.93809 1.34237  -2
  -2  -3  10 3.93809 1.34237   1
  -1  -3  10 65.7523 2.24801   1
   0   7   0 210.711 6.02010  -2
   0  -3  10 210.711 6.02010   1
   1  -3  10 5.26179 0.66114   1
   2  -3  10 13.2652 1.16134   1
  -3  -8   1 105.485 5.25830  -2
   3  -3  10 105.485 5.25830   1
   4  -3  10 73.9428 4.13494   1
  -5  -9   2 13.9749 2.74933  -2
   5  -3  10 13.9749 2.74933   1
   6  -3  10 0.14310 1.62673   1
  -6   4   4 237.783 14.7383  -2
  -6  -2  10 237.783 14.7383   1
  -5   4   4 135.280 10.2414  -2
  -5  -2  10 135.280 10.2414   1
  -4  -2  10 68.3205 3.27821   1
  -3   5   3 108.570 4.11955  -2
  -3  -2  10 108.570 4.11955   1
  -2  -2  10 6.03631 1.22063   1
  -1   6   2 13.3504 1.41265  -2
  -1  -2  10 13.3504 1.41265   1
   0  -2  10 1.10969 0.71791   1
   1   7   1 182.434 5.42684  -2
   1  -2  10 182.434 5.42684   1
   2  -2  10 4.35811 0.53330   1
   3  -2  10 543.307 12.5849   1
   4   8   0 108.410 5.46272  -2
   4  -2  10 108.410 5.46272   1
   5  -2  10 165.940 6.58552   1
  -6  -9   1 180.467 7.18858  -2
   6  -2  10 180.467 7.18858   1
   7  -2  10 0.16038 1.89517   1
  -6  -1  10 115.560 7.07631   1
  -5   4   5 99.1883 8.63246  -2
  -5  -1  10 99.1883 8.63246   1
  -4  -1  10 162.590 5.27622   1
  -3  -1  10 14.9313 1.71937   1
  -2   5   4 12.9839 2.03880  -2
  -2  -1  10 12.9839 2.03880   1
  -1  -1  10 481.688 9.27795   1
   0   6   3 1399.86 24.5773  -2
   0  -1  10 1399.86 24.5773   1
   1  -1  10 31.6559 1.55101   1
   2   7   2 63.4668 3.92956  -2
   2  -1  10 63.4668 3.92956   1
   3  -1  10 46.5296 1.17606   1
   4  -1  10 1062.93 23.1705   1
   5   8   1 254.355 8.87646  -2
   5  -1  10 254.355 8.87646   1
   6  -1  10 10.4435 2.20223   1
   7   9   0 1.65388 2.67254  -2
   7  -1  10 1.65388 2.67254   1
  -6   3   7 162.218 11.1934  -2
  -6   0  10 162.218 11.1934   1
  -5   0  10 5.51901 1.96691   1
  -4   0  10 137.714 4.75524   1
  -3   0  10 181.445 5.52116   1
  -2   0  10 50.6814 1.98462   1
  -1   5   5 129.272 3.44065  -2
  -1   0  10 129.272 3.44065   1
   0   0  10 1856.57 34.1643   1
   1   6   4 344.806 8.41339  -2
   1   0  10 344.806 8.41339   1
   2   0  10 514.933 11.8832   1
   3   7   3 1087.35 44.9127  -2
   3   0  10 1087.35 44.9127   1
   4   0  10 1.71131 0.54642   1
   5   0  10 2.67527 1.23761   1
   6   8   2 98.6273 5.41108  -2
   6   0  10 98.6273 5.41108   1
   7   0  10 150.645 6.66995   1
  -6   1  10 12.8230 3.67725   1
  -5   3   8 -1.3222 4.35468  -2
  -5   1  10 -1.3222 4.35468   1
  -4   1  10 6.54392 1.48116   1
  -3   1  10 326.088 6.81209   1
  -2   4   7 1230.76 38.2367  -2
  -2   1  10 1230.76 38.2367   1
  -1   1  10 93.9252 2.80723   1
   0   5   6 1371.31 28.8167  -2
   0   1  10 1371.31 28.8167   1
   1   1  10 32.1149 1.95219   1
   2   6   5 471.255 11.0218  -2
   2   1  10 471.255 11.0218   1
   3   1  10 -0.2587 0.58733   1
   4   1  10 155.148 3.77623   1
   5   1  10 1.87366 0.69941   1
   6   1  10 1.17805 1.21238   1
   7   8   3 488.592 14.8256  -2
   7   1  10 488.592 14.8256   1
   8   1  10 83.4342 5.07254   1
  -5   2  10 13.9156 3.55770   1
  -4   3   9 51.4305 4.15732  -2
  -4   2  10 51.4305 4.15732   1
  -3   2  10 45.3576 1.88624   1
  -2   2  10 575.137 11.3459   1
  -1   4   8 362.189 17.0286  -2
  -1   2  10 362.189 17.0286   1
   0   2  10 661.485 14.4961   1
   1   5   7 17.0763 1.71534  -2
   1   2  10 17.0763 1.71534   1
   2   2  10 17.4224 1.53479   1
   3   6   6 7.60856 1.43931  -2
   3   2  10 7.60856 1.43931   1
   4   2  10 1.31464 0.77801   1
   5   7   5 286.404 14.8410  -2
   5   2  10 286.404 14.8410   1
   6   7   5 5.28588 4.52852  -2
   6   2  10 5.28588 4.52852   1
   7   2  10 2.03688 1.51330   1
   8   8   4 643.430 18.7942  -2
   8   2  10 643.430 18.7942   1
  -5   2  11 116.707 8.88380  -2
  -5   3  10 116.707 8.88380   1
  -4   3  10 37.5472 4.97585   1
  -3   3  10 699.418 30.8144  -2
  -3   3  10 699.418 30.8144   1
  -2   3  10 8.31300 1.71484   1
  -1   3  10 67.4730 2.31510   1
   0   4   9 46.3870 5.33099  -2
   0   3  10 46.3870 5.33099   1
   1   3  10 272.232 6.68502   1
   2   5   8 92.4054 3.22739  -2
   2   3  10 92.4054 3.22739   1
   3   3  10 83.6640 2.62539   1
   4   6   7 193.936 4.68836  -2
   4   3  10 193.936 4.68836   1
   5   3  10 118.761 3.37556   1
   6   7   6 408.819 20.0979  -2
   6   3  10 408.819 20.0979   1
   7   7   6 496.012 23.7805  -2
   7   3  10 496.012 23.7805   1
   8   3  10 -0.5093 1.65212   1
  -5   4  10 127.110 9.25341   1
  -4   2  12 12.6826 4.13989  -2
  -4   4  10 12.6826 4.13989   1
  -3   4  10 36.5566 4.77000   1
  -2   3  11 260.629 13.9532  -2
  -2   4  10 260.629 13.9532   1
  -1   4  10 27.9920 2.45388   1
   0   4  10 2726.59 55.5317   1
   1   4  10 30.2217 5.03037  -2
   1   4  10 30.2217 5.03037   1
   2   4  10 43.9885 2.14183   1
   3   5   9 86.4611 2.65998  -2
   3   4  10 86.4611 2.65998   1
   4   4  10 75.7076 2.56735   1
   5   6   8 659.416 12.6434  -2
   5   4  10 659.416 12.6434   1
   6   6   8 522.913 24.6051  -2
   6   4  10 522.913 24.6051   1
   7   7   7 140.305 10.3673  -2
   7   4  10 140.305 10.3673   1
   8   7   7 114.017 9.82365  -2
   8   4  10 114.017 9.82365   1
  -4   5  10 13.8425 3.46294   1
  -3   2  13 26.7015 4.97970  -2
  -3   5  10 26.7015 4.97970   1
  -2   5  10 168.078 9.96619   1
  -1   5  10 10.1058 2.72611   1
   0   5  10 80.3980 6.12867   1
   1   5  10 882.468 15.4710   1
   2   4  11 6.83830 3.98216  -2
   2   5  10 6.83830 3.98216   1
   3   5  10 235.787 5.26278   1
   4   5  10 25.3335 1.63902  -2
   4   5  10 25.3335 1.63902   1
   5   5  10 163.739 4.40995   1
   6   6   9 11.1715 5.01291  -2
   6   5  10 11.1715 5.01291   1
   7   6   9 224.181 14.0407  -2
   7   5  10 224.181 14.0407   1
   8   7   8 187.643 13.2655  -2
   8   5  10 187.643 13.2655   1
  -3   6  10 47.8014 5.74585   1
  -2   2  14 184.052 11.0583  -2
  -2   6  10 184.052 11.0583   1
  -1   6  10 229.162 12.2480   1
   0   3  13 453.890 21.1732  -2
   0   6  10 453.890 21.1732   1
   1   6  10 437.967 20.3322   1
   2   6  10 201.670 11.3361   1
   3   4  12 658.235 29.0537  -2
   3   6  10 658.235 29.0537   1
   4   6  10 54.1187 3.26025   1
   5   5  11 31.3484 2.89800  -2
   5   6  10 31.3484 2.89800   1
   6   6  10 52.3078 3.81288   1
   7   6  10 -0.2515 4.79751  -2
   7   6  10 -0.2515 4.79751   1
  -2   7  10 1.46979 2.34206   1
  -1   2  15 668.467 29.5469  -2
  -1   7  10 668.467 29.5469   1
   0   7  10 27.9269 4.23879   1
   1   7  10 22.2970 3.69625   1
   2   7  10 15.6847 3.29248   1
   3   7  10 39.7137 5.05897   1
   4   4  13 307.080 15.8946  -2
   4   7  10 307.080 15.8946   1
   5   7  10 1.69002 2.15551   1
   6   5  12 290.982 15.8863  -2
   6   7  10 290.982 15.8863   1
   7   7  10 41.7804 6.14405   1
  -1   8  10 68.7200 6.15320   1
   0   2  16 74.5149 6.86054  -2
   0   8  10 74.5149 6.86054   1
   1   8  10 15.4484 3.41692   1
   2   8  10 210.458 12.0211   1
   3   3  15 159.910 10.6110  -2
   3   8  10 159.910 10.6110   1
   4   8  10 1.25920 2.26744   1
   5   4  14 9.16713 3.78939  -2
   5   8  10 9.16713 3.78939   1
   6   8  10 108.152 8.60451   1
   0   9  10 11.4124 3.21365   1
   1   2  17 569.940 26.1883  -2
   1   9  10 569.940 26.1883   1
   2   9  10 15.8304 3.63108   1
   3   9  10 61.9518 6.14666   1
   4   3  16 92.8341 8.62261  -2
   4   9  10 92.8341 8.62261   1
   5   9  10 6.17687 3.05442   1
  -3  -8  11 44.5644 4.20687   1
   2  -9   6 44.8786 6.16747  -2
  -2  -8  11 44.8786 6.16747   1
   1  -9   6 333.230 11.2112  -2
  -1  -8  11 333.230 11.2112   1
   0  -8  11 25.4914 2.74267   1
  -1 -10   7 12.8196 3.24208  -2
   1  -8  11 12.8196 3.24208   1
   5  -7   3 260.692 15.1122  -2
  -5  -7  11 260.692 15.1122   1
  -4  -7  11 16.3898 4.05100   1
   3  -8   4 6.21185 2.78783  -2
  -3  -7  11 6.21185 2.78783   1
  -2  -7  11 0.17962 1.03728   1
   1  -9   5 449.433 13.6847  -2
  -1  -7  11 449.433 13.6847   1
   0  -9   5 307.549 10.2886  -2
   0  -7  11 307.549 10.2886   1
   1  -7  11 5.32674 1.64164   1
  -2 -10   6 316.547 10.5203  -2
   2  -7  11 316.547 10.5203   1
  -5  -6  11 3.26627 3.11110   1
   4  -7   2 92.4258 4.70833  -2
  -4  -6  11 92.4258 4.70833   1
  -3  -6  11 54.0402 3.70469   1
   2  -8   3 -3.2473 2.22049  -2
  -2  -6  11 -3.2473 2.22049   1
  -1  -6  11 88.7525 3.23369   1
   0  -9   4 -2.1995 4.29943  -2
   0  -6  11 -2.1995 4.29943   1
  -1  -9   4 149.987 6.48019  -2
   1  -6  11 149.987 6.48019   1
   2  -6  11 -0.7781 1.36947   1
  -3 -10   5 160.082 6.80043  -2
   3  -6  11 160.082 6.80043   1
   4  -6  11 20.0578 2.74685   1
  -6  -5  11 17.2297 4.68745   1
  -5   6   0 81.2841 8.49802  -2
  -5  -5  11 81.2841 8.49802   1
  -4  -5  11 77.1330 4.28327   1
   3  -7   1 44.2112 3.19896  -2
  -3  -5  11 44.2112 3.19896   1
  -2  -5  11 49.1873 2.60363   1
   1  -8   2 388.514 11.8463  -2
  -1  -5  11 388.514 11.8463   1
   0  -5  11 2.68490 0.85988   1
   1  -5  11 3.62361 1.28646   1
  -2  -9   3 939.732 24.9656  -2
   2  -5  11 939.732 24.9656   1
   3  -5  11 28.2532 2.85098   1
  -4 -10   4 11.4236 3.01204  -2
   4  -5  11 11.4236 3.01204   1
  -6  -4  11 27.9067 5.24249   1
  -5  -4  11 9.01569 3.65395   1
  -4   6   1 890.560 24.1019  -2
  -4  -4  11 890.560 24.1019   1
  -3  -4  11 50.4461 3.28978   1
  -2   7   0 185.856 5.20904  -2
  -2  -4  11 185.856 5.20904   1
  -1  -4  11 237.229 6.01884   1
   0  -8   1 15.0765 2.76883  -2
   0  -4  11 15.0765 2.76883   1
   1  -4  11 6.78531 0.87999   1
   2  -4  11 428.024 12.5848   1
  -3  -9   2 11.3201 3.36114  -2
   3  -4  11 11.3201 3.36114   1
   4  -4  11 1.14691 1.57993   1
  -5 -10   3 15.5642 3.14195  -2
   5  -4  11 15.5642 3.14195   1
  -6   5   3 65.3273 8.87909  -2
  -6  -3  11 65.3273 8.87909   1
  -5  -3  11 17.8767 4.15319   1
  -4  -3  11 47.1090 2.89660   1
  -3   6   2 545.805 13.0579  -2
  -3  -3  11 545.805 13.0579   1
  -2  -3  11 805.393 15.0004   1
  -1   7   1 613.681 11.6698  -2
  -1  -3  11 613.681 11.6698   1
   0  -3  11 93.9209 2.71692   1
   1   8   0 8.88781 2.89484  -2
   1  -3  11 8.88781 2.89484   1
   2  -3  11 41.3150 3.22564   1
   3  -3  11 118.748 5.18155   1
  -4  -9   1 457.258 13.7987  -2
   4  -3  11 457.258 13.7987   1
   5  -3  11 22.4600 2.78514   1
  -6 -10   2 234.292 8.87216  -2
   6  -3  11 234.292 8.87216   1
  -6  -2  11 16.0226 2.90705   1
  -5   5   4 115.369 9.39003  -2
  -5  -2  11 115.369 9.39003   1
  -4   5   4 324.799 16.8201  -2
  -4  -2  11 324.799 16.8201   1
  -3  -2  11 20.6915 1.96531   1
  -2   6   3 32.1740 2.52073  -2
  -2  -2  11 32.1740 2.52073   1
  -1  -2  11 167.556 4.12768   1
   0   7   2 1386.18 22.4498  -2
   0  -2  11 1386.18 22.4498   1
   1  -2  11 27.0990 1.46532   1
   2   8   1 27.7306 3.39179  -2
   2  -2  11 27.7306 3.39179   1
   3  -2  11 -0.8391 0.99416   1
   4  -2  11 291.192 9.46672   1
   5   9   0 9.28656 3.45936  -2
   5  -2  11 9.28656 3.45936   1
   6  -2  11 260.105 9.33389   1
  -6   4   6 33.7733 6.39233  -2
  -6  -1  11 33.7733 6.39233   1
  -5  -1  11 39.4965 3.69782   1
  -4  -1  11 145.259 5.04880   1
  -3   5   5 238.696 13.5830  -2
  -3  -1  11 238.696 13.5830   1
  -2  -1  11 4.53722 0.93486   1
  -1   6   4 806.977 14.8929  -2
  -1  -1  11 806.977 14.8929   1
   0  -1  11 661.769 11.3353   1
   1   7   3 526.803 10.0728  -2
   1  -1  11 526.803 10.0728   1
   2  -1  11 246.469 5.26537   1
   3   8   2 75.0332 4.48744  -2
   3  -1  11 75.0332 4.48744   1
   4  -1  11 7.07642 1.40933   1
   5  -1  11 172.864 6.76753   1
   6   9   1 271.849 9.70472  -2
   6  -1  11 271.849 9.70472   1
   7  -1  11 121.064 6.13108   1
  -6   0  11 1.42909 2.22343   1
  -5   4   7 161.055 10.9920  -2
  -5   0  11 161.055 10.9920   1
  -4   0  11 -0.7099 1.07427   1
  -3   0  11 160.234 4.14762   1
  -2   5   6 754.697 19.6657  -2
  -2   0  11 754.697 19.6657   1
  -1   0  11 463.273 8.34281   1
   0   6   5 24.1143 1.73035  -2
   0   0  11 24.1143 1.73035   1
   1   0  11 7.28224 1.31123   1
   2   7   4 31.4797 2.44992  -2
   2   0  11 31.4797 2.44992   1
   3   0  11 14.9580 1.14840   1
   4   0  11 183.674 4.20930   1
   5   0  11 9.52502 1.57605   1
   6   0  11 106.117 5.19784   1
   7   9   2 345.805 11.8296  -2
   7   0  11 345.805 11.8296   1
  -5   1  11 304.985 16.2285   1
  -4   4   8 155.355 10.5244  -2
  -4   1  11 155.355 10.5244   1
  -3   1  11 269.712 5.95671   1
  -2   1  11 73.9795 2.46936   1
  -1   5   7 64.3118 3.53309  -2
  -1   1  11 64.3118 3.53309   1
   0   1  11 440.530 10.3161   1
   1   6   6 95.9202 3.47867  -2
   1   1  11 95.9202 3.47867   1
   2   1  11 24.5247 1.91580   1
   3   7   5 266.997 5.80916  -2
   3   1  11 266.997 5.80916   1
   4   1  11 -0.1623 0.59905   1
   5   1  11 18.7267 1.98657   1
   6   1  11 0.26510 1.70757   1
   7   1  11 421.935 13.2218   1
  -5   3  10 125.755 9.39200  -2
  -5   2  11 125.755 9.39200   1
  -4   2  11 75.5436 6.51874   1
  -3   4   9 205.936 12.2627  -2
  -3   2  11 205.936 12.2627   1
  -2   2  11 171.720 4.23487   1
  -1   2  11 520.754 11.7947   1
   0   5   8 77.7740 4.64844  -2
   0   2  11 77.7740 4.64844   1
   1   2  11 79.4853 3.00723   1
   2   6   7 39.7344 2.35542  -2
   2   2  11 39.7344 2.35542   1
   3   2  11 250.755 5.53843   1
   4   7   6 258.535 5.81146  -2
   4   2  11 258.535 5.81146   1
   5   2  11 366.713 7.63767   1
   6   8   5 191.257 11.8644  -2
   6   2  11 191.257 11.8644   1
   7   2  11 236.229 8.68286   1
  -5   3  11 31.1655 5.07778   1
  -4   3  11 20.4749 4.84573  -2
  -4   3  11 20.4749 4.84573   1
  -3   3  11 20.1148 2.61656   1
  -2   4  10 264.901 14.3127  -2
  -2   3  11 264.901 14.3127   1
  -1   3  11 75.7346 2.57461   1
   0   3  11 626.703 13.8335   1
   1   5   9 1449.23 41.3855  -2
   1   3  11 1449.23 41.3855   1
   2   3  11 75.7775 2.95020   1
   3   6   8 1007.35 18.2568  -2
   3   3  11 1007.35 18.2568   1
   4   3  11 49.1441 2.11482   1
   5   7   7 1169.19 21.1917  -2
   5   3  11 1169.19 21.1917   1
   6   3  11 6.50124 1.51006   1
   7   3  11 135.066 5.98757   1
   8   8   6 45.3139 6.62778  -2
   8   3  11 45.3139 6.62778   1
  -4   4  11 18.2411 4.00484   1
  -3   3  12 185.853 11.4597  -2
  -3   4  11 185.853 11.4597   1
  -2   4  11 50.8861 5.71788   1
  -1   4  11 5.05345 2.30441   1
   0   4  11 10.8152 1.04511   1
   1   4  11 892.028 19.1785   1
   2   5  10 3.24276 2.53283  -2
   2   4  11 3.24276 2.53283   1
   3   4  11 93.6387 2.88963   1
   4   6   9 311.937 6.72246  -2
   4   4  11 311.937 6.72246   1
   5   4  11 98.1196 3.16281   1
   6   7   8 1.54740 2.43467  -2
   6   4  11 1.54740 2.43467   1
   7   7   8 59.3360 7.80378  -2
   7   4  11 59.3360 7.80378   1
  -3   5  11 70.0509 6.54214   1
  -2   3  13 16.4198 4.37428  -2
  -2   5  11 16.4198 4.37428   1
  -1   5  11 218.071 11.8957   1
   0   4  12 499.349 23.0895  -2
   0   5  11 499.349 23.0895   1
   1   5  11 12.7570 1.37839   1
   2   5  11 43.8448 2.23791   1
   3   5  11 -4.9132 1.88058  -2
   3   5  11 -4.9132 1.88058   1
   4   5  11 19.2902 1.82475   1
   5   6  10 28.5684 2.90268  -2
   5   5  11 28.5684 2.90268   1
   6   5  11 13.6887 2.29516   1
   7   7   9 108.065 5.98149  -2
   7   5  11 108.065 5.98149   1
  -3   2  15 3.10484 4.09446  -2
  -3   6  11 3.10484 4.09446   1
  -2   6  11 245.029 13.6400   1
  -1   3  14 83.3889 7.09404  -2
  -1   6  11 83.3889 7.09404   1
   0   6  11 7.14214 2.66584   1
   1   6  11 159.682 9.78799   1
   2   4  13 11.6834 4.96522  -2
   2   6  11 11.6834 4.96522   1
   3   6  11 221.117 7.06631   1
   4   5  12 224.986 7.64801  -2
   4   6  11 224.986 7.64801   1
   5   6  11 45.7593 3.40545   1
   6   6  11 -2.3713 2.04959  -2
   6   6  11 -2.3713 2.04959   1
   7   6  11 5.57709 2.01365   1
  -2   2  16 457.552 22.0354  -2
  -2   7  11 457.552 22.0354   1
  -1   7  11 2.75148 2.33320   1
   0   3  15 42.9418 5.76679  -2
   0   7  11 42.9418 5.76679   1
   1   7  11 62.2715 5.83583   1
   2   7  11 13.3454 3.18021   1
   3   4  14 339.457 17.5140  -2
   3   7  11 339.457 17.5140   1
   4   7  11 249.576 14.0397   1
   5   5  13 14.9725 4.12793  -2
   5   7  11 14.9725 4.12793   1
   6   7  11 62.5864 7.24264   1
   7   6  12 24.8783 5.29724  -2
   7   7  11 24.8783 5.29724   1
  -1   2  17 16.7951 4.17543  -2
  -1   8  11 16.7951 4.17543   1
   0   8  11 -1.9791 1.79060   1
   1   3  16 146.072 9.89164  -2
   1   8  11 146.072 9.89164   1
   2   8  11 14.8166 3.50966   1
   3   8  11 4.34606 2.63830   1
   4   4  15 1125.63 48.1546  -2
   4   8  11 1125.63 48.1546   1
   5   8  11 31.9153 5.14100   1
   6   5  14 217.376 13.4432  -2
   6   8  11 217.376 13.4432   1
   1   9  11 4.08556 2.65279   1
   2   3  17 432.423 21.3801  -2
   2   9  11 432.423 21.3801   1
   3   9  11 13.7818 3.64515   1
   4   9  11 121.914 9.13456   1
   5   9  11 197.753 12.5516   1
  -2  -8  12 35.5647 3.44608   1
  -1  -8  12 4.03399 1.92143   1
   0 -10   6 308.392 8.90964  -2
   0  -8  12 308.392 8.90964   1
   4  -8   3 8.46372 4.32517  -2
  -4  -7  12 8.46372 4.32517   1
  -3  -7  12 4.88832 1.46666   1
   2  -9   4 403.818 20.1560  -2
  -2  -7  12 403.818 20.1560   1
  -1  -7  12 59.4301 4.23883   1
   0 -10   5 28.8245 6.07899  -2
   0  -7  12 28.8245 6.07899   1
  -1 -10   5 25.6107 3.95563  -2
   1  -7  12 25.6107 3.95563   1
   2  -7  12 20.3701 2.76658   1
   5  -7   1 245.992 15.3316  -2
  -5  -6  12 245.992 15.3316   1
  -4  -6  12 88.2488 7.83125   1
   3  -8   2 27.1622 2.86339  -2
  -3  -6  12 27.1622 2.86339   1
  -2  -6  12 -0.6794 0.99888   1
   1  -9   3 361.511 11.6269  -2
  -1  -6  12 361.511 11.6269   1
   0  -6  12 6.88877 1.82753   1
  -1 -10   4 11.4934 5.34596  -2
   1  -6  12 11.4934 5.34596   1
  -2 -10   4 218.715 8.42156  -2
   2  -6  12 218.715 8.42156   1
   3  -6  12 5.53602 1.96747   1
  -5  -5  12 60.8806 7.50550   1
  -4   7   0 101.000 8.95294  -2
  -4  -5  12 101.000 8.95294   1
  -3  -5  12 89.1774 4.47521   1
   2  -8   1 807.452 17.1003  -2
  -2  -5  12 807.452 17.1003   1
  -1  -5  12 5.22076 1.09897   1
   0  -9   2 8.88684 3.11464  -2
   0  -5  12 8.88684 3.11464   1
   1  -5  12 1.83917 1.49755   1
  -2 -10   3 268.541 12.6611  -2
   2  -5  12 268.541 12.6611   1
  -3 -10   3 417.710 13.1097  -2
   3  -5  12 417.710 13.1097   1
   4  -5  12 3.99339 1.70577   1
  -5   6   2 -2.7892 6.51903  -2
  -5  -4  12 -2.7892 6.51903   1
  -4  -4  12 44.2376 3.61299   1
  -3   7   1 1368.81 35.2751  -2
  -3  -4  12 1368.81 35.2751   1
  -2  -4  12 66.5664 2.89989   1
  -1   8   0 415.665 9.53991  -2
  -1  -4  12 415.665 9.53991   1
   0  -4  12 93.2466 3.17519   1
  -1  -9   1 10.0820 3.11475  -2
   1  -4  12 10.0820 3.11475   1
  -2  -9   1 144.593 8.90174  -2
   2  -4  12 144.593 8.90174   1
   3  -4  12 20.8073 2.62511   1
  -4 -10   2 213.313 8.31231  -2
   4  -4  12 213.313 8.31231   1
   5  -4  12 5.35807 2.08802   1
  -5   6   3 1.96638 5.56003  -2
  -5  -3  12 1.96638 5.56003   1
  -4   6   3 176.339 11.7845  -2
  -4  -3  12 176.339 11.7845   1
  -3  -3  12 19.8216 2.04052   1
  -2   7   2 341.547 8.83573  -2
  -2  -3  12 341.547 8.83573   1
  -1  -3  12 15.0603 1.37429   1
   0   8   1 499.290 9.84627  -2
   0  -3  12 499.290 9.84627   1
   1  -3  12 8.39034 1.02125   1
   2   9   0 7.36123 3.08969  -2
   2  -3  12 7.36123 3.08969   1
   3  -3  12 -2.2218 1.26486   1
   4  -3  12 5.39117 1.78837   1
  -5 -10   1 155.346 7.12945  -2
   5  -3  12 155.346 7.12945   1
  -5  -2  12 66.2750 4.86797   1
  -4   6   4 156.325 11.5303  -2
  -4  -2  12 156.325 11.5303   1
  -3   6   4 184.062 11.9716  -2
  -3  -2  12 184.062 11.9716   1
  -2  -2  12 -1.3722 0.76996   1
  -1   7   3 1263.84 22.6615  -2
  -1  -2  12 1263.84 22.6615   1
   0  -2  12 59.9990 2.07267   1
   1   8   2 112.134 3.17612  -2
   1  -2  12 112.134 3.17612   1
   2  -2  12 87.4012 2.53254   1
   3   9   1 8.46148 3.40978  -2
   3  -2  12 8.46148 3.40978   1
   4   9   1 71.1600 6.73257  -2
   4  -2  12 71.1600 6.73257   1
   5  -2  12 306.375 10.3380   1
   6  10   0 111.479 6.31877  -2
   6  -2  12 111.479 6.31877   1
  -5   5   6 417.655 14.9698  -2
  -5  -1  12 417.655 14.9698   1
  -4  -1  12 70.0559 3.83206   1
  -3  -1  12 159.197 4.25481   1
  -2   6   5 23.7110 3.12260  -2
  -2  -1  12 23.7110 3.12260   1
  -1  -1  12 66.3379 2.46104   1
   0   7   4 2245.16 38.9401  -2
   0  -1  12 2245.16 38.9401   1
   1  -1  12 143.557 3.67632   1
   2   8   3 32.9323 1.78965  -2
   2  -1  12 32.9323 1.78965   1
   3  -1  12 18.2591 1.13685   1
   4   9   2 289.852 9.87434  -2
   4  -1  12 289.852 9.87434   1
   5  -1  12 7.01213 1.96247   1
   6  -1  12 180.419 7.38533   1
  -5   0  12 196.777 12.1362   1
  -4   5   7 426.239 14.8843  -2
  -4   0  12 426.239 14.8843   1
  -3   0  12 286.041 6.38372   1
  -2   0  12 90.5648 2.93618   1
  -1   6   6 682.633 18.0586  -2
  -1   0  12 682.633 18.0586   1
   0   0  12 2.24613 0.88033   1
   1   7   5 14.9863 1.96560  -2
   1   0  12 14.9863 1.96560   1
   2   0  12 63.8393 2.99421   1
   3   8   4 674.984 12.6771  -2
   3   0  12 674.984 12.6771   1
   4   0  12 40.8378 2.71729   1
   5   0  12 22.7004 2.70621   1
   6   0  12 17.0483 2.65953   1
   7   0  12 495.258 15.3114   1
  -5   4   9 18.5332 4.84921  -2
  -5   1  12 18.5332 4.84921   1
  -4   1  12 173.917 10.9138   1
  -3   5   8 11.9341 2.17496  -2
  -3   1  12 11.9341 2.17496   1
  -2   1  12 183.794 4.12745   1
  -1   1  12 81.4141 2.46316   1
   0   6   7 166.123 5.13519  -2
   0   1  12 166.123 5.13519   1
   1   1  12 0.91120 0.97368   1
   2   7   6 7.12899 1.68449  -2
   2   1  12 7.12899 1.68449   1
   3   1  12 418.567 8.41486   1
   4   8   5 134.837 4.90497  -2
   4   1  12 134.837 4.90497   1
   5   1  12 469.973 11.6922   1
   6   1  12 19.6960 2.73881   1
   7   9   4 124.624 9.17463  -2
   7   1  12 124.624 9.17463   1
  -5   2  12 87.7268 7.82207   1
  -4   4  10 24.3955 5.08877  -2
  -4   2  12 24.3955 5.08877   1
  -3   2  12 67.0384 4.26151   1
  -2   5   9 74.5167 6.89633  -2
  -2   2  12 74.5167 6.89633   1
  -1   2  12 22.3336 1.69990   1
   0   2  12 138.543 4.23951   1
   1   6   8 883.157 19.3781  -2
   1   2  12 883.157 19.3781   1
   2   2  12 21.6670 1.84333   1
   3   7   7 433.651 8.66706  -2
   3   2  12 433.651 8.66706   1
   4   2  12 71.8132 2.56960   1
   5   8   6 117.057 4.75412  -2
   5   2  12 117.057 4.75412   1
   6   2  12 54.9347 3.40724   1
   7   2  12 244.783 9.08710   1
  -4   3  12 13.1263 3.69642   1
  -3   4  11 178.718 11.2299  -2
  -3   3  12 178.718 11.2299   1
  -2   3  12 95.5865 7.06962   1
  -1   5  10 14.8599 3.18403  -2
  -1   3  12 14.8599 3.18403   1
   0   3  12 198.873 5.37843   1
   1   3  12 525.906 12.0631   1
   2   6   9 57.0575 2.99164  -2
   2   3  12 57.0575 2.99164   1
   3   3  12 330.156 7.03691   1
   4   7   8 26.6031 1.69965  -2
   4   3  12 26.6031 1.69965   1
   5   3  12 0.65722 1.13862   1
   6   8   7 196.336 6.57228  -2
   6   3  12 196.336 6.57228   1
   7   3  12 70.6858 4.67986   1
  -4   3  13 1212.44 51.7263  -2
  -4   4  12 1212.44 51.7263   1
  -3   4  12 0.45508 2.37831   1
  -2   4  12 79.5076 7.30569  -2
  -2   4  12 79.5076 7.30569   1
  -1   4  12 2.17379 2.16200   1
   0   4  12 204.046 6.16491   1
   1   4  12 163.596 4.67146   1
   2   4  12 149.833 4.55591   1
   3   6  10 687.600 13.0758  -2
   3   4  12 687.600 13.0758   1
   4   4  12 72.1470 2.66499   1
   5   7   9 2.35025 1.27625  -2
   5   4  12 2.35025 1.27625   1
   6   4  12 13.2014 1.89160   1
   7   8   8 61.9769 5.05599  -2
   7   4  12 61.9769 5.05599   1
  -3   3  14 299.350 16.3775  -2
  -3   5  12 299.350 16.3775   1
  -2   5  12 29.5588 4.51154   1
  -1   4  13 133.963 9.46181  -2
  -1   5  12 133.963 9.46181   1
   0   5  12 1.92907 2.11142   1
   1   5  12 368.551 10.3317   1
   2   5  12 5.41095 4.60733  -2
   2   5  12 5.41095 4.60733   1
   3   5  12 351.785 10.3934   1
   4   6  11 219.126 7.69106  -2
   4   5  12 219.126 7.69106   1
   5   5  12 14.2619 2.31041   1
   6   7  10 292.425 9.85088  -2
   6   5  12 292.425 9.85088   1
   7   5  12 133.677 6.20754   1
  -2   3  15 416.902 20.5508  -2
  -2   6  12 416.902 20.5508   1
  -1   6  12 169.477 10.5318   1
   0   4  14 35.5582 5.45129  -2
   0   6  12 35.5582 5.45129   1
   1   6  12 9.00951 2.79923   1
   2   6  12 40.5411 3.23392   1
   3   5  13 189.988 11.8850  -2
   3   6  12 189.988 11.8850   1
   4   6  12 818.346 21.6751   1
   5   6  12 17.9343 2.74104  -2
   5   6  12 17.9343 2.74104   1
   6   6  12 169.201 6.80911   1
   7   7  11 32.0433 3.68264  -2
   7   6  12 32.0433 3.68264   1
  -1   3  16 1.16161 3.07833  -2
  -1   7  12 1.16161 3.07833   1
   0   7  12 15.1781 3.63869   1
   1   4  15 12.9321 4.81615  -2
   1   7  12 12.9321 4.81615   1
   2   7  12 136.223 9.41755   1
   3   7  12 199.822 12.1494   1
   4   5  14 1038.99 44.9947  -2
   4   7  12 1038.99 44.9947   1
   5   7  12 124.441 5.40230   1
   6   6  13 44.1334 3.71711  -2
   6   7  12 44.1334 3.71711   1
   0   3  17 94.9353 7.87566  -2
   0   8  12 94.9353 7.87566   1
   1   8  12 7.05112 2.95903   1
   2   4  16 399.753 20.3144  -2
   2   8  12 399.753 20.3144   1
   3   8  12 31.2492 5.04216   1
   4   8  12 78.1800 7.38120   1
   5   5  15 69.0329 7.83833  -2
   5   8  12 69.0329 7.83833   1
   3  -9   3 25.9051 3.37637  -2
  -3  -7  13 25.9051 3.37637   1
  -2  -7  13 136.979 6.27764   1
   1 -10   4 142.817 6.89890  -2
  -1  -7  13 142.817 6.89890   1
   0  -7  13 1.67228 1.32971   1
   1  -7  13 12.2275 2.31652   1
   4  -8   1 17.3205 5.62700  -2
  -4  -6  13 17.3205 5.62700   1
  -3  -6  13 98.5930 3.99461   1
   2  -9   2 169.668 7.04102  -2
  -2  -6  13 169.668 7.04102   1
  -1  -6  13 92.7160 4.93698   1
   0 -10   3 67.3111 4.79210  -2
   0  -6  13 67.3111 4.79210   1
   1  -6  13 5.57278 1.91680   1
  -2 -11   4 25.8852 6.50671  -2
   2  -6  13 25.8852 6.50671   1
  -4  -5  13 51.1761 6.55603   1
  -3   8   0 191.093 7.43113  -2
  -3  -5  13 191.093 7.43113   1
  -2  -5  13 342.828 8.48691   1
   1  -9   1 143.490 6.22290  -2
  -1  -5  13 143.490 6.22290   1
   0  -5  13 3.14755 1.34628   1
  -1 -10   2 6.32179 3.33180  -2
   1  -5  13 6.32179 3.33180   1
  -2 -10   2 18.3423 5.92914  -2
   2  -5  13 18.3423 5.92914   1
   3  -5  13 56.4942 4.28486   1
  -5  -4  13 -0.2173 3.17181   1
  -4   7   2 95.5061 9.50499  -2
  -4  -4  13 95.5061 9.50499   1
  -3  -4  13 48.1137 2.90416   1
  -2   8   1 491.073 11.3021  -2
  -2  -4  13 491.073 11.3021   1
  -1  -4  13 27.5916 2.07551   1
   0   9   0 1.86293 2.20994  -2
   0  -4  13 1.86293 2.20994   1
   1  -4  13 26.9443 2.88268   1
  -2 -10   1 254.176 9.12642  -2
   2  -4  13 254.176 9.12642   1
   3  -4  13 1.48076 1.52861   1
   4  -4  13 34.7612 3.50063   1
  -5  -3  13 90.8117 8.47427   1
  -4   7   3 109.436 10.2578  -2
  -4  -3  13 109.436 10.2578   1
  -3   7   3 38.5583 6.95272  -2
  -3  -3  13 38.5583 6.95272   1
  -2  -3  13 6.54008 1.29699   1
  -1   8   2 518.822 11.6052  -2
  -1  -3  13 518.822 11.6052   1
   0  -3  13 235.431 5.47652   1
   1   9   1 13.7558 2.84803  -2
   1  -3  13 13.7558 2.84803   1
   2  -3  13 289.087 9.58865   1
   3  10   0 2.28052 3.27696  -2
   3  -3  13 2.28052 3.27696   1
   4  10   0 273.806 10.0347  -2
   4  -3  13 273.806 10.0347   1
   5  -3  13 62.2316 4.69583   1
  -5   6   5 175.835 12.5902  -2
  -5  -2  13 175.835 12.5902   1
  -4  -2  13 295.388 11.5399   1
  -3  -2  13 -0.6916 0.87425   1
  -2   7   4 39.2874 3.72994  -2
  -2  -2  13 39.2874 3.72994   1
  -1  -2  13 15.6257 1.44593   1
   0   8   3 1745.30 30.7243  -2
   0  -2  13 1745.30 30.7243   1
   1  -2  13 117.383 3.26272   1
   2   9   2 156.941 6.44368  -2
   2  -2  13 156.941 6.44368   1
   3  -2  13 31.1934 2.99521   1
   4  10   1 0.54270 3.48348  -2
   4  -2  13 0.54270 3.48348   1
   5  10   1 38.0857 4.91871  -2
   5  -2  13 38.0857 4.91871   1
   6  -2  13 177.596 10.1289   1
  -5  -1  13 60.6790 6.93894   1
  -4   6   6 418.974 14.7995  -2
  -4  -1  13 418.974 14.7995   1
  -3  -1  13 11.9015 1.41137   1
  -2  -1  13 364.058 7.78835   1
  -1   7   5 557.803 15.5437  -2
  -1  -1  13 557.803 15.5437   1
   0  -1  13 51.5604 2.06149   1
   1   8   4 56.8574 2.30256  -2
   1  -1  13 56.8574 2.30256   1
   2  -1  13 93.5486 2.83893   1
   3   9   3 379.445 11.8138  -2
   3  -1  13 379.445 11.8138   1
   4  -1  13 64.8652 4.04520   1
   5  10   2 4.52216 4.04491  -2
   5  -1  13 4.52216 4.04491   1
   6  10   2 40.3422 5.09272  -2
   6  -1  13 40.3422 5.09272   1
  -5   5   8 664.487 30.8141  -2
  -5   0  13 664.487 30.8141   1
  -4   0  13 2.86974 1.87124   1
  -3   6   7 9.90552 2.36970  -2
  -3   0  13 9.90552 2.36970   1
  -2   0  13 91.2209 2.76424   1
  -1   0  13 12.7352 1.25819   1
   0   7   6 260.010 7.22410  -2
   0   0  13 260.010 7.22410   1
   1   0  13 15.3054 1.40960   1
   2   8   5 236.415 6.70204  -2
   2   0  13 236.415 6.70204   1
   3   0  13 171.650 5.47618   1
   4   9   4 80.3382 4.98251  -2
   4   0  13 80.3382 4.98251   1
   5   0  13 21.0438 2.69501   1
   6  10   3 16.4333 6.01170  -2
   6   0  13 16.4333 6.01170   1
  -4   5   9 185.806 11.9812  -2
  -4   1  13 185.806 11.9812   1
  -3   1  13 -0.2963 1.19518   1
  -2   6   8 3.29367 2.41290  -2
  -2   1  13 3.29367 2.41290   1
  -1   1  13 4.32577 1.02057   1
   0   1  13 14.4257 1.59454   1
   1   7   7 13.5551 2.36419  -2
   1   1  13 13.5551 2.36419   1
   2   1  13 121.798 4.28691   1
   3   8   6 524.445 10.2644  -2
   3   1  13 524.445 10.2644   1
   4   1  13 5.92796 1.52314   1
   5   9   5 44.5501 4.23394  -2
   5   1  13 44.5501 4.23394   1
   6   1  13 55.0893 4.38496   1
   7   1  13 47.7833 4.34111   1
  -4   2  13 50.4335 6.49581   1
  -3   5  10 30.2488 5.24619  -2
  -3   2  13 30.2488 5.24619   1
  -2   2  13 111.981 4.41418   1
  -1   6   9 251.874 13.6959  -2
  -1   2  13 251.874 13.6959   1
   0   2  13 528.630 12.3088   1
   1   2  13 81.0429 3.25655   1
   2   7   8 58.6952 3.28062  -2
   2   2  13 58.6952 3.28062   1
   3   2  13 900.447 16.6673   1
   4   8   7 105.384 4.16570  -2
   4   2  13 105.384 4.16570   1
   5   2  13 0.23517 1.09096   1
   6   9   6 474.015 14.6014  -2
   6   2  13 474.015 14.6014   1
   7   2  13 3.37927 1.99076   1
  -4   4  12 1170.02 50.2823  -2
  -4   3  13 1170.02 50.2823   1
  -3   3  13 66.6651 6.56624   1
  -2   5  11 19.0859 4.81858  -2
  -2   3  13 19.0859 4.81858   1
  -1   3  13 252.657 13.7048   1
   0   3  13 221.334 5.96049   1
   1   3  13 500.294 11.6971   1
   2   3  13 331.743 8.45256   1
   3   7   9 45.6039 3.04270  -2
   3   3  13 45.6039 3.04270   1
   4   3  13 -0.1570 0.76791   1
   5   8   8 4.50650 1.98535  -2
   5   3  13 4.50650 1.98535   1
   6   3  13 190.128 6.29342   1
   7   9   7 34.4214 4.64151  -2
   7   3  13 34.4214 4.64151   1
  -3   4  13 866.149 38.3437  -2
  -3   4  13 866.149 38.3437   1
  -2   4  13 1.36862 2.11448   1
  -1   5  12 127.835 9.29040  -2
  -1   4  13 127.835 9.29040   1
   0   4  13 22.1720 4.10213   1
   1   4  13 174.687 5.83933   1
   2   4  13 0.48064 0.95959   1
   3   4  13 107.235 3.91078   1
   4   7  10 321.295 8.61278  -2
   4   4  13 321.295 8.61278   1
   5   4  13 4.96569 1.46609   1
   6   8   9 126.140 5.94351  -2
   6   4  13 126.140 5.94351   1
   7   4  13 19.3769 2.99675   1
  -2   4  14 26.5860 4.85020  -2
  -2   5  13 26.5860 4.85020   1
  -1   5  13 59.5463 6.03869   1
   0   5  13 97.4416 8.13142  -2
   0   5  13 97.4416 8.13142   1
   1   5  13 6.94101 2.80632   1
   2   5  13 69.1426 3.33791   1
   3   6  12 201.874 12.7204  -2
   3   5  13 201.874 12.7204   1
   4   5  13 350.725 10.8274   1
   5   7  11 10.3441 2.91706  -2
   5   5  13 10.3441 2.91706   1
   6   5  13 17.1962 2.58768   1
  -1   4  15 209.821 12.5498  -2
  -1   6  13 209.821 12.5498   1
   0   6  13 45.1885 5.66850   1
   1   5  14 3.43252 4.65853  -2
   1   6  13 3.43252 4.65853   1
   2   6  13 30.9863 4.73815   1
   3   6  13 328.179 9.87976   1
   4   6  13 76.4392 8.25436  -2
   4   6  13 76.4392 8.25436   1
   5   6  13 219.518 7.96009   1
   6   7  12 36.1055 3.67419  -2
   6   6  13 36.1055 3.67419   1
   0   4  16 78.3990 7.22071  -2
   0   7  13 78.3990 7.22071   1
   1   7  13 134.777 9.55092   1
   2   5  15 6.72756 4.96661  -2
   2   7  13 6.72756 4.96661   1
   3   7  13 7.30926 3.27289   1
   4   7  13 459.744 13.2805   1
   5   6  14 25.9650 6.06895  -2
   5   7  13 25.9650 6.06895   1
   1   4  17 211.888 12.9514  -2
   1   8  13 211.888 12.9514   1
   2   8  13 226.146 13.6462   1
   3   5  16 31.2991 6.14578  -2
   3   8  13 31.2991 6.14578   1
   4   8  13 0.88746 2.58963   1
   3  -9   1 91.9263 9.08591  -2
  -3  -6  14 91.9263 9.08591   1
  -2  -6  14 159.080 6.86662   1
   1 -10   2 43.4612 3.87212  -2
  -1  -6  14 43.4612 3.87212   1
   0  -6  14 9.50396 1.78109   1
  -1 -11   3 127.194 6.60195  -2
   1  -6  14 127.194 6.60195   1
  -4   8   1 2.74975 7.11633  -2
  -4  -5  14 2.74975 7.11633   1
  -3  -5  14 17.4679 2.66204   1
  -2   9   0 557.612 16.5343  -2
  -2  -5  14 557.612 16.5343   1
  -1  -5  14 86.6184 4.76086   1
   0 -10   1 65.3438 4.44054  -2
   0  -5  14 65.3438 4.44054   1
   1  -5  14 16.7478 2.54367   1
  -2 -11   2 582.477 17.2281  -2
   2  -5  14 582.477 17.2281   1
  -3 -11   2 39.8799 7.13835  -2
   3  -5  14 39.8799 7.13835   1
  -4   8   2 1.69592 6.65762  -2
  -4  -4  14 1.69592 6.65762   1
  -3   8   2 13.8220 6.62318  -2
  -3  -4  14 13.8220 6.62318   1
  -2  -4  14 181.837 5.44467   1
  -1   9   1 121.368 4.27136  -2
  -1  -4  14 121.368 4.27136   1
   0  -4  14 88.4942 3.88530   1
   1  10   0 277.813 9.65837  -2
   1  -4  14 277.813 9.65837   1
   2  -4  14 6.99230 2.05208   1
  -3 -11   1 22.6079 4.11775  -2
   3  -4  14 22.6079 4.11775   1
  -4 -11   1 23.6720 4.76729  -2
   4  -4  14 23.6720 4.76729   1
  -4  -3  14 189.415 7.45133   1
  -3  -3  14 3.37275 1.30814   1
  -2   8   3 4.90536 3.38671  -2
  -2  -3  14 4.90536 3.38671   1
  -1  -3  14 48.3686 2.61843   1
   0   9   2 171.424 5.05461  -2
   0  -3  14 171.424 5.05461   1
   1  -3  14 17.8148 2.43004   1
   2  10   1 346.974 11.2938  -2
   2  -3  14 346.974 11.2938   1
   3  -3  14 7.30912 2.13858   1
   4  11   0 4.12918 3.97065  -2
   4  -3  14 4.12918 3.97065   1
  -4   7   5 13.3815 6.65115  -2
  -4  -2  14 13.3815 6.65115   1
  -3  -2  14 14.9457 1.83300   1
  -2  -2  14 0.77237 1.08458   1
  -1   8   4 220.982 8.04416  -2
  -1  -2  14 220.982 8.04416   1
   0  -2  14 0.88076 0.88988   1
   1   9   3 810.349 16.8976  -2
   1  -2  14 810.349 16.8976   1
   2  -2  14 3.31825 1.72057   1
   3  10   2 21.7451 3.43107  -2
   3  -2  14 21.7451 3.43107   1
   4  -2  14 4.37261 1.86528   1
   5  11   1 128.463 7.09008  -2
   5  -2  14 128.463 7.09008   1
  -4  -1  14 135.591 4.87417   1
  -3   7   6 10.1072 2.96234  -2
  -3  -1  14 10.1072 2.96234   1
  -2  -1  14 23.1844 1.75198   1
  -1  -1  14 15.1481 1.39189   1
   0   8   5 201.423 6.25293  -2
   0  -1  14 201.423 6.25293   1
   1  -1  14 35.8077 1.99226   1
   2   9   4 785.762 21.3041  -2
   2  -1  14 785.762 21.3041   1
   3  -1  14 90.4613 4.74785   1
   4  10   3 103.909 5.62390  -2
   4  -1  14 103.909 5.62390   1
   5  -1  14 147.903 6.68860   1
  -4   6   8 76.0528 7.59660  -2
  -4   0  14 76.0528 7.59660   1
  -3   0  14 17.8091 1.97767   1
  -2   7   7 107.568 5.09211  -2
  -2   0  14 107.568 5.09211   1
  -1   0  14 237.926 5.17783   1
   0   0  14 26.1723 1.80606   1
   1   8   6 21.3723 2.73859  -2
   1   0  14 21.3723 2.73859   1
   2   0  14 122.979 3.56176   1
   3   9   5 1831.24 38.9799  -2
   3   0  14 1831.24 38.9799   1
   4   0  14 12.3255 2.35073   1
   5  10   4 17.6125 3.82825  -2
   5   0  14 17.6125 3.82825   1
   6   0  14 11.0710 2.61967   1
  -4   1  14 40.0518 5.54760   1
  -3   6   9 10.7609 4.71334  -2
  -3   1  14 10.7609 4.71334   1
  -2   1  14 2.62299 0.94140   1
  -1   7   8 523.593 14.6432  -2
  -1   1  14 523.593 14.6432   1
   0   1  14 130.535 3.75462   1
   1   1  14 557.922 13.2003   1
   2   8   7 689.649 16.0335  -2
   2   1  14 689.649 16.0335   1
   3   1  14 31.7775 2.50288   1
   4   9   6 187.330 6.02864  -2
   4   1  14 187.330 6.02864   1
   5   1  14 3.59718 1.91813   1
   6  10   5 51.1091 5.06458  -2
   6   1  14 51.1091 5.06458   1
  -3   2  14 163.275 10.6690   1
  -2   6  10 175.445 11.3190  -2
  -2   2  14 175.445 11.3190   1
  -1   2  14 104.541 3.71376   1
   0   2  14 3.96228 1.14365   1
   1   2  14 309.173 8.11029   1
   2   2  14 18.9324 1.90850   1
   3   8   8 342.658 9.11323  -2
   3   2  14 342.658 9.11323   1
   4   2  14 12.7310 1.81465   1
   5   9   7 50.0262 3.20763  -2
   5   2  14 50.0262 3.20763   1
   6   2  14 62.6588 4.62933   1
  -3   5  12 283.307 15.8911  -2
  -3   3  14 283.307 15.8911   1
  -2   3  14 62.3523 6.28740   1
  -1   6  11 79.6279 7.44394  -2
  -1   3  14 79.6279 7.44394   1
   0   3  14 19.3474 1.77672   1
   1   3  14 19.3196 1.83770   1
   2   3  14 79.0800 3.34756   1
   3   3  14 -0.7371 0.85813   1
   4   8   9 19.7655 2.62297  -2
   4   3  14 19.7655 2.62297   1
   5   3  14 39.1213 2.96301   1
   6   9   8 10.1740 2.62922  -2
   6   3  14 10.1740 2.62922   1
  -2   5  13 21.5800 4.78059  -2
  -2   4  14 21.5800 4.78059   1
  -1   4  14 114.399 8.58104   1
   0   6  12 40.2315 5.91057  -2
   0   4  14 40.2315 5.91057   1
   1   4  14 8.87722 1.57552   1
   2   4  14 14.5056 1.87408   1
   3   7  11 354.418 18.5158  -2
   3   4  14 354.418 18.5158   1
   4   4  14 -0.0100 1.39557   1
   5   8  10 4.42779 2.97824  -2
   5   4  14 4.42779 2.97824   1
   6   4  14 232.556 8.66584   1
  -2   5  14 2.65463 2.90087   1
  -1   5  14 565.850 26.6803  -2
  -1   5  14 565.850 26.6803   1
   0   5  14 38.1761 5.47716   1
   1   6  13 5.66651 4.55038  -2
   1   5  14 5.66651 4.55038   1
   2   5  14 76.0569 6.99572   1
   3   5  14 224.973 7.64390   1
   4   7  12 1005.62 43.9420  -2
   4   5  14 1005.62 43.9420   1
   5   5  14 81.6655 4.54283   1
   6   8  11 203.971 8.10823  -2
   6   5  14 203.971 8.10823   1
  -1   6  14 184.283 11.8355   1
   0   5  15 640.623 29.6499  -2
   0   6  14 640.623 29.6499   1
   1   6  14 35.8157 5.64089   1
   2   6  14 329.107 17.7838  -2
   2   6  14 329.107 17.7838   1
   3   6  14 24.4141 4.89728   1
   4   6  14 436.109 12.9422   1
   5   7  13 19.8607 6.15037  -2
   5   6  14 19.8607 6.15037   1
   1   5  16 18.4340 4.66027  -2
   1   7  14 18.4340 4.66027   1
   2   7  14 60.5729 7.07844   1
   3   6  15 65.6734 7.78670  -2
   3   7  14 65.6734 7.78670   1
   4   7  14 19.8180 4.62513   1
   5   7  14 69.9970 4.87949   1
  -2  -5  15 2.11010 1.85548   1
  -1  10   0 -0.4148 3.08750  -2
  -1  -5  15 -0.4148 3.08750   1
   0  -5  15 19.7263 2.32800   1
  -1 -11   1 234.390 8.99677  -2
   1  -5  15 234.390 8.99677   1
   2  -5  15 112.913 5.83613   1
  -3  -4  15 28.0791 3.27695   1
  -2   9   2 89.1496 5.70902  -2
  -2  -4  15 89.1496 5.70902   1
  -1  -4  15 40.7861 2.99069   1
   0  10   1 -1.0754 2.72449  -2
   0  -4  15 -1.0754 2.72449   1
   1  -4  15 232.397 8.48006   1
   2  11   0 137.268 6.60184  -2
   2  -4  15 137.268 6.60184   1
   3  -4  15 0.91509 1.75161   1
  -3  -3  15 4.93820 1.86763   1
  -2  -3  15 145.220 4.82939   1
  -1   9   3 16.5517 3.68458  -2
  -1  -3  15 16.5517 3.68458   1
   0  -3  15 74.4234 3.63864   1
   1  10   2 610.503 17.5960  -2
   1  -3  15 610.503 17.5960   1
   2  -3  15 79.6144 4.96277   1
   3  11   1 14.7751 3.53566  -2
   3  -3  15 14.7751 3.53566   1
   4  -3  15 12.2275 2.63825   1
  -4  -2  15 197.447 7.53199   1
  -3   8   5 158.720 7.07592  -2
  -3  -2  15 158.720 7.07592   1
  -2  -2  15 6.08410 1.46386   1
  -1  -2  15 73.5749 2.86310   1
   0   9   4 98.5749 5.38063  -2
   0  -2  15 98.5749 5.38063   1
   1  -2  15 94.1069 4.86196   1
   2  10   3 527.667 15.5845  -2
   2  -2  15 527.667 15.5845   1
   3  -2  15 232.166 8.52675   1
   4  11   2 2.57144 3.36927  -2
   4  -2  15 2.57144 3.36927   1
  -4  -1  15 76.4785 9.76242   1
  -3  -1  15 0.88089 1.51142   1
  -2   8   6 118.266 5.74103  -2
  -2  -1  15 118.266 5.74103   1
  -1  -1  15 295.585 6.19216   1
   0  -1  15 36.8254 2.15529   1
   1   9   5 21.5642 3.56688  -2
   1  -1  15 21.5642 3.56688   1
   2  -1  15 9.87349 2.20042   1
   3  10   4 716.812 20.0533  -2
   3  -1  15 716.812 20.0533   1
   4  -1  15 8.45738 2.23831   1
   5  11   3 41.7526 4.67085  -2
   5  -1  15 41.7526 4.67085   1
  -3   7   8 30.8620 4.01854  -2
  -3   0  15 30.8620 4.01854   1
  -2   0  15 93.0142 3.43133   1
  -1   8   7 85.1587 4.80301  -2
  -1   0  15 85.1587 4.80301   1
   0   0  15 11.6630 1.40745   1
   1   0  15 30.5268 2.01271   1
   2   9   6 409.022 10.6263  -2
   2   0  15 409.022 10.6263   1
   3   0  15 48.7658 3.82930   1
   4  10   5 193.862 7.66341  -2
   4   0  15 193.862 7.66341   1
   5   0  15 3.84081 1.95163   1
  -3   1  15 5.29727 2.78069   1
  -2   7   9 697.735 31.7247  -2
  -2   1  15 697.735 31.7247   1
  -1   1  15 63.5158 2.69153   1
   0   8   8 114.442 5.37616  -2
   0   1  15 114.442 5.37616   1
   1   1  15 13.7838 1.77466   1
   2   1  15 114.116 4.36124   1
   3   9   7 297.746 8.43976  -2
   3   1  15 297.746 8.43976   1
   4   1  15 109.615 5.28874   1
   5  10   6 123.819 6.07727  -2
   5   1  15 123.819 6.07727   1
  -3   6  11 11.4771 4.66639  -2
  -3   2  15 11.4771 4.66639   1
  -2   2  15 65.6051 6.59936   1
  -1   7  10 669.560 30.5651  -2
  -1   2  15 669.560 30.5651   1
   0   2  15 2.13212 1.11681   1
   1   2  15 1.03193 1.12718   1
   2   2  15 243.712 6.97124   1
   3   2  15 0.64456 1.21356   1
   4   9   8 20.0413 2.77591  -2
   4   2  15 20.0413 2.77591   1
   5   2  15 48.6172 3.99429   1
   6  10   7 321.679 11.1894  -2
   6   2  15 321.679 11.1894   1
  -2   6  12 420.885 21.2889  -2
  -2   3  15 420.885 21.2889   1
  -1   3  15 10.7394 3.31994   1
   0   7  11 42.1932 6.23326  -2
   0   3  15 42.1932 6.23326   1
   1   3  15 34.6965 2.83183   1
   2   3  15 141.207 4.78543   1
   3   3  15 76.0837 3.56739   1
   4   3  15 125.324 4.78942   1
   5   9   9 25.8753 3.00625  -2
   5   3  15 25.8753 3.00625   1
   6   3  15 215.714 8.79720   1
  -2   4  15 10.3150 3.55714   1
  -1   6  13 206.519 12.7615  -2
  -1   4  15 206.519 12.7615   1
   0   4  15 117.783 8.90835   1
   1   7  12 9.33997 5.23632  -2
   1   4  15 9.33997 5.23632   1
   2   4  15 38.5693 2.96406   1
   3   4  15 24.1880 2.65907   1
   4   8  11 1031.73 44.8688  -2
   4   4  15 1031.73 44.8688   1
   5   4  15 0.41461 1.61896   1
  -1   5  15 63.6964 7.30368   1
   0   6  14 614.559 28.8002  -2
   0   5  15 614.559 28.8002   1
   1   5  15 69.6303 7.83064   1
   2   7  13 3.38552 4.65278  -2
   2   5  15 3.38552 4.65278   1
   3   5  15 36.1737 3.09007   1
   4   5  15 109.754 5.22160   1
   5   8  12 63.8750 8.06434  -2
   5   5  15 63.8750 8.06434   1
   1   6  15 0.25018 3.65041  -2
   1   6  15 0.25018 3.65041   1
   2   6  15 0.56936 2.40333   1
   3   7  14 56.2712 7.77025  -2
   3   6  15 56.2712 7.77025   1
   4   6  15 -0.6675 1.46730   1
  -2  -4  16 10.5091 2.37482   1
  -1  10   2 21.8505 4.07105  -2
  -1  -4  16 21.8505 4.07105   1
   0  -4  16 26.1991 3.22003   1
   1  11   1 70.9353 4.99393  -2
   1  -4  16 70.9353 4.99393   1
   2  -4  16 128.116 6.28319   1
  -2  -3  16 20.4645 2.87925   1
  -1  -3  16 6.82279 1.76318   1
   0  10   3 37.7430 4.33233  -2
   0  -3  16 37.7430 4.33233   1
   1  -3  16 1.16579 1.66154   1
   2  11   2 149.140 6.88765  -2
   2  -3  16 149.140 6.88765   1
   3  -3  16 56.3751 4.53032   1
  -3  -2  16 166.682 6.91282   1
  -2   9   5 17.7514 3.77561  -2
  -2  -2  16 17.7514 3.77561   1
  -1  -2  16 14.6427 1.63419   1
   0  -2  16 37.1301 3.42365   1
   1  10   4 168.828 7.28957  -2
   1  -2  16 168.828 7.28957   1
   2  -2  16 53.1489 4.16824   1
   3  11   3 17.1977 3.11891  -2
   3  -2  16 17.1977 3.11891   1
  -3   8   7 175.066 12.1800  -2
  -3  -1  16 175.066 12.1800   1
  -2  -1  16 345.498 9.36048   1
  -1   9   6 34.4412 4.12498  -2
  -1  -1  16 34.4412 4.12498   1
   0  -1  16 1.04164 1.13738   1
   1  -1  16 82.6308 4.60951   1
   2  10   5 38.4611 4.19155  -2
   2  -1  16 38.4611 4.19155   1
   3  -1  16 24.4251 2.88418   1
   4  11   4 225.098 8.73695  -2
   4  -1  16 225.098 8.73695   1
  -2   8   8 432.014 21.7813  -2
  -2   0  16 432.014 21.7813   1
  -1   0  16 299.896 6.98781   1
   0   9   7 49.6308 4.40708  -2
   0   0  16 49.6308 4.40708   1
   1   0  16 14.4541 1.57113   1
   2   0  16 39.0244 3.44775   1
   3  10   6 448.188 13.8692  -2
   3   0  16 448.188 13.8692   1
   4   0  16 2.89568 1.98390   1
  -2   1  16 142.923 10.2097   1
  -1   8   9 473.149 16.3934  -2
  -1   1  16 473.149 16.3934   1
   0   1  16 13.6676 1.54976   1
   1   9   8 5.05873 3.30710  -2
   1   1  16 5.05873 3.30710   1
   2   9   8 345.662 18.4220  -2
   2   1  16 345.662 18.4220   1
   3   1  16 23.8788 2.90939   1
   4  10   7 50.4510 4.64532  -2
   4   1  16 50.4510 4.64532   1
   5   1  16 45.6904 4.13644   1
  -2   7  11 418.992 21.4400  -2
  -2   2  16 418.992 21.4400   1
  -1   2  16 42.2254 5.90257   1
   0   8  10 79.5009 8.06418  -2
   0   2  16 79.5009 8.06418   1
   1   2  16 61.1135 3.15453   1
   2   2  16 218.269 6.63774   1
   3   9   9 233.664 13.9888  -2
   3   2  16 233.664 13.9888   1
   4   2  16 184.326 6.25370   1
   5  10   8 91.6912 5.65268  -2
   5   2  16 91.6912 5.65268   1
  -1   7  12 2.75630 3.56010  -2
  -1   3  16 2.75630 3.56010   1
   0   3  16 7.46070 3.18202   1
   1   8  11 134.415 10.1595  -2
   1   3  16 134.415 10.1595   1
   2   3  16 0.23550 1.44548   1
   3   3  16 94.6637 4.89745   1
   4   9  10 76.4200 8.26571  -2
   4   3  16 76.4200 8.26571   1
   5   3  16 4.16563 2.11672   1
  -1   4  16 362.948 19.2807   1
   0   7  13 80.3615 7.66722  -2
   0   4  16 80.3615 7.66722   1
   1   4  16 15.8070 4.06288   1
   2   8  12 414.538 21.3905  -2
   2   4  16 414.538 21.3905   1
   3   4  16 22.8822 2.69395   1
   4   4  16 69.0761 4.42953   1
   5   9  11 382.526 15.8696  -2
   5   4  16 382.526 15.8696   1
   1   7  14 19.6375 4.80158  -2
   1   5  16 19.6375 4.80158   1
   2   5  16 69.8607 7.93585   1
   3   8  13 31.5766 6.89432  -2
   3   5  16 31.5766 6.89432   1
   4   5  16 26.8796 3.02741   1
   0  -3  17 25.7553 3.13211   1
   1  11   3 273.215 10.1967  -2
   1  -3  17 273.215 10.1967   1
  -1  10   5 119.348 6.39073  -2
  -1  -2  17 119.348 6.39073   1
   0  10   5 32.8979 6.01828  -2
   0  -2  17 32.8979 6.01828   1
   1  -2  17 89.5900 5.08067   1
   2  11   4 36.2667 4.41996  -2
   2  -2  17 36.2667 4.41996   1
  -1  -1  17 326.306 10.6827   1
   0  10   6 135.751 6.76083  -2
   0  -1  17 135.751 6.76083   1
   1  10   6 33.3914 5.86845  -2
   1  -1  17 33.3914 5.86845   1
   2  -1  17 4.85768 1.98961   1
   3  11   5 99.8977 5.96099  -2
   3  -1  17 99.8977 5.96099   1
  -1   9   8 45.8444 3.93577  -2
  -1   0  17 45.8444 3.93577   1
   0   0  17 74.9086 3.46299   1
   1  10   7 61.0842 5.17963  -2
   1   0  17 61.0842 5.17963   1
   2  10   7 89.2778 5.73986  -2
   2   0  17 89.2778 5.73986   1
   3   0  17 101.369 5.32841   1
  -1   1  17 52.3162 6.75180   1
   0   9   9 42.5526 3.30066  -2
   0   1  17 42.5526 3.30066   1
   1   1  17 177.922 5.95030   1
   2  10   8 88.8078 9.39437  -2
   2   1  17 88.8078 9.39437   1
   3  10   8 46.5189 6.27608  -2
   3   1  17 46.5189 6.27608   1
   4   1  17 6.71127 2.23371   1
  -1   8  11 14.5916 4.56826  -2
  -1   2  17 14.5916 4.56826   1
   0   2  17 -0.8425 2.36221   1
   1   9  10 516.698 15.0303  -2
   1   2  17 516.698 15.0303   1
   2   2  17 59.6627 3.49225   1
   3   2  17 28.2637 2.67154   1
   4  10   9 117.178 6.58488  -2
   4   2  17 117.178 6.58488   1
   0   8  12 94.4099 8.44599  -2
   0   3  17 94.4099 8.44599   1
   1   3  17 4.91345 2.84536   1
   2   9  11 447.457 13.4802  -2
   2   3  17 447.457 13.4802   1
   3   3  17 11.7887 2.28846   1
   1   8  13 177.384 11.8565  -2
   1   4  17 177.384 11.8565   1
   2   4  17 81.5987 8.85464   1
   3   4  17 3.68381 1.84021   1
   0   0   0    0.00    0.00   0
;
loop_
_space_group_symop_operation_xyz
'x, y, z'
'-x, -y, -z'
loop_
_atom_site_label
_atom_site_type_symbol
_atom_site_fract_x
_atom_site_fract_y
_atom_site_fract_z
_atom_site_U_iso_or_equiv
_atom_site_adp_type
_atom_site_occupancy
_atom_site_site_symmetry_order
_atom_site_calc_flag
_atom_site_refinement_flags_posn
_atom_site_refinement_flags_adp
_atom_site_refinement_flags_occupancy
_atom_site_disorder_assembly
_atom_site_disorder_group
C1 C 0.2290(3) 0.4588(2) 0.16031(12) 0.0136(3) Uani 1 1 d . . . . .
C2 C 0.3778(3) 0.2406(2) 0.04422(13) 0.0167(4) Uani 1 1 d . . . . .
H2A H 0.439807 0.135674 0.074027 0.020 Uiso 1 1 calc R U . . .
H2B H 0.482136 0.293318 0.028912 0.020 Uiso 1 1 calc R U . . .
C3 C 0.2993(3) 0.2179(2) -0.04903(14) 0.0188(4) Uani 1 1 d . . . . .
H3A H 0.409628 0.147035 -0.093244 0.023 Uiso 1 1 calc R U . . .
H3B H 0.250277 0.321801 -0.082363 0.023 Uiso 1 1 calc R U . . .
C4 C 0.1292(3) 0.1461(2) -0.02727(15) 0.0218(4) Uani 1 1 d . . . . .
H4A H 0.076247 0.136277 -0.088477 0.026 Uiso 1 1 calc R U . . .
H4B H 0.180111 0.038559 0.001403 0.026 Uiso 1 1 calc R U . . .
C5 C -0.0379(3) 0.2519(2) 0.04369(15) 0.0208(4) Uani 1 1 d . . . . .
H5A H -0.097162 0.355873 0.012231 0.025 Uiso 1 1 calc R U . . .
H5B H -0.144755 0.202010 0.060365 0.025 Uiso 1 1 calc R U . . .
C6 C 0.0409(3) 0.2774(2) 0.13628(14) 0.0183(4) Uani 1 1 d . . . . .
H6A H -0.067455 0.354145 0.178302 0.022 Uiso 1 1 calc R U . . .
H6B H 0.082610 0.175593 0.172544 0.022 Uiso 1 1 calc R U . . .
C7 C 0.3656(3) 0.7371(2) 0.45494(13) 0.0157(4) Uani 1 1 d . . . . .
C8 C 0.2620(3) 0.7993(3) 0.62803(14) 0.0227(4) Uani 1 1 d . . . . .
H8A H 0.272599 0.709082 0.674268 0.027 Uiso 1 1 calc R U . . .
H8B H 0.125969 0.832947 0.607555 0.027 Uiso 1 1 calc R U . . .
C9 C 0.2928(3) 0.9358(2) 0.67804(15) 0.0228(4) Uani 1 1 d . . . . .
H9A H 0.195490 0.964245 0.737718 0.027 Uiso 1 1 calc R U . . .
H9B H 0.267610 1.029794 0.634146 0.027 Uiso 1 1 calc R U . . .
C10 C 0.5052(3) 0.8920(2) 0.70500(14) 0.0222(4) Uani 1 1 d . . . . .
H10A H 0.524606 0.985406 0.733312 0.027 Uiso 1 1 calc R U . . .
H10B H 0.525708 0.806007 0.754635 0.027 Uiso 1 1 calc R U . . .
C11 C 0.6575(3) 0.8374(2) 0.61538(15) 0.0226(4) Uani 1 1 d . . . . .
H11A H 0.794238 0.800834 0.634988 0.027 Uiso 1 1 calc R U . . .
H11B H 0.648512 0.928064 0.569658 0.027 Uiso 1 1 calc R U . . .
C12 C 0.6222(3) 0.7032(2) 0.56407(15) 0.0205(4) Uani 1 1 d . . . . .
H12A H 0.714844 0.677803 0.502713 0.025 Uiso 1 1 calc R U . . .
H12B H 0.650772 0.606990 0.606072 0.025 Uiso 1 1 calc R U . . .
N1 N 0.2133(2) 0.33817(18) 0.11385(11) 0.0143(3) Uani 1 1 d . . . . .
N2 N 0.4131(2) 0.74806(19) 0.54210(11) 0.0172(3) Uani 1 1 d . . . . .
O1 O 0.2133(2) 0.88143(15) 0.20516(11) 0.0251(3) Uani 1 1 d . . . . .
S1 S 0.44321(7) 0.51475(5) 0.14671(3) 0.01716(11) Uani 1 1 d . . . . .
S2 S 0.03816(7) 0.57162(5) 0.24339(3) 0.01768(11) Uani 1 1 d . . . . .
S3 S 0.54246(7) 0.67672(6) 0.35371(3) 0.01816(11) Uani 1 1 d . . . . .
S4 S 0.12117(7) 0.77960(6) 0.43065(4) 0.02207(12) Uani 1 1 d . . . . .
V1 V 0.26244(5) 0.71744(3) 0.26431(2) 0.01483(8) Uani 1 1 d . . . . .
loop_
_atom_site_aniso_label
_atom_site_aniso_U_11
_atom_site_aniso_U_22
_atom_site_aniso_U_33
_atom_site_aniso_U_23
_atom_site_aniso_U_13
_atom_site_aniso_U_12
C1 0.0140(8) 0.0152(8) 0.0116(8) 0.0025(7) -0.0027(7) -0.0043(7)
C2 0.0148(9) 0.0159(8) 0.0179(9) -0.0034(7) -0.0006(7) -0.0027(7)
C3 0.0225(10) 0.0187(9) 0.0165(9) -0.0035(7) -0.0017(8) -0.0081(8)
C4 0.0256(11) 0.0216(9) 0.0225(10) -0.0051(8) -0.0038(9) -0.0124(8)
C5 0.0182(10) 0.0187(9) 0.0287(11) -0.0014(8) -0.0062(8) -0.0089(8)
C6 0.0159(9) 0.0183(9) 0.0222(10) -0.0012(8) 0.0011(8) -0.0086(8)
C7 0.0145(8) 0.0152(8) 0.0175(9) -0.0028(7) -0.0007(7) -0.0048(7)
C8 0.0183(10) 0.0364(11) 0.0158(9) -0.0053(8) 0.0012(8) -0.0124(9)
C9 0.0218(10) 0.0268(10) 0.0183(10) -0.0028(8) -0.0032(8) -0.0049(8)
C10 0.0273(11) 0.0217(9) 0.0216(10) 0.0011(8) -0.0098(9) -0.0107(8)
C11 0.0205(10) 0.0261(10) 0.0255(11) 0.0036(8) -0.0088(9) -0.0117(8)
C12 0.0135(9) 0.0250(10) 0.0220(10) 0.0008(8) -0.0055(8) -0.0033(8)
N1 0.0126(7) 0.0163(7) 0.0136(7) -0.0014(6) -0.0010(6) -0.0041(6)
N2 0.0137(8) 0.0227(8) 0.0158(8) -0.0026(6) -0.0006(6) -0.0068(6)
O1 0.0308(7) 0.0169(7) 0.0283(8) 0.0021(6) -0.0092(6) -0.0063(6)
S1 0.0160(2) 0.0198(2) 0.0178(2) -0.00479(18) 0.00167(18) -0.00932(18)
S2 0.0146(2) 0.0197(2) 0.0182(2) -0.00589(18) 0.00160(18) -0.00519(18)
S3 0.0143(2) 0.0219(2) 0.0175(2) -0.00445(18) 0.00053(18) -0.00481(18)
S4 0.0133(2) 0.0328(3) 0.0196(2) -0.0101(2) -0.00198(19) -0.0051(2)
V1 0.01694(15) 0.01247(16) 0.01532(18) -0.00111(12) -0.00314(12) -0.00438(14)
loop_
_atom_type_symbol
_atom_type_description
_atom_type_scat_dispersion_real
_atom_type_scat_dispersion_imag
_atom_type_scat_source
C C 0.0033 0.0016 'International Tables Vol C Tables 4.2.6.8 and 6.1.1.4'
H H 0.0000 0.0000 'International Tables Vol C Tables 4.2.6.8 and 6.1.1.4'
N N 0.0061 0.0033 'International Tables Vol C Tables 4.2.6.8 and 6.1.1.4'
O O 0.0106 0.0060 'International Tables Vol C Tables 4.2.6.8 and 6.1.1.4'
S S 0.1246 0.1234 'International Tables Vol C Tables 4.2.6.8 and 6.1.1.4'
V V 0.3005 0.5294 'International Tables Vol C Tables 4.2.6.8 and 6.1.1.4'
loop_
_geom_angle_atom_site_label_1
_geom_angle_atom_site_label_2
_geom_angle_atom_site_label_3
_geom_angle
_geom_angle_site_symmetry_1
_geom_angle_site_symmetry_3
N1 C1 S1 123.31(14) . .
N1 C1 S2 122.67(14) . .
S1 C1 S2 113.99(10) . .
N1 C2 C3 110.51(15) . .
N1 C2 H2A 109.5 . .
C3 C2 H2A 109.5 . .
N1 C2 H2B 109.5 . .
C3 C2 H2B 109.5 . .
H2A C2 H2B 108.1 . .
C2 C3 C4 110.87(16) . .
C2 C3 H3A 109.5 . .
C4 C3 H3A 109.5 . .
C2 C3 H3B 109.5 . .
C4 C3 H3B 109.5 . .
H3A C3 H3B 108.1 . .
C5 C4 C3 109.64(16) . .
C5 C4 H4A 109.7 . .
C3 C4 H4A 109.7 . .
C5 C4 H4B 109.7 . .
C3 C4 H4B 109.7 . .
H4A C4 H4B 108.2 . .
C6 C5 C4 111.15(16) . .
C6 C5 H5A 109.4 . .
C4 C5 H5A 109.4 . .
C6 C5 H5B 109.4 . .
C4 C5 H5B 109.4 . .
H5A C5 H5B 108.0 . .
N1 C6 C5 111.11(15) . .
N1 C6 H6A 109.4 . .
C5 C6 H6A 109.4 . .
N1 C6 H6B 109.4 . .
C5 C6 H6B 109.4 . .
H6A C6 H6B 108.0 . .
N2 C7 S4 123.15(14) . .
N2 C7 S3 123.09(14) . .
S4 C7 S3 113.75(10) . .
N2 C8 C9 110.56(16) . .
N2 C8 H8A 109.5 . .
C9 C8 H8A 109.5 . .
N2 C8 H8B 109.5 . .
C9 C8 H8B 109.5 . .
H8A C8 H8B 108.1 . .
C8 C9 C10 111.11(17) . .
C8 C9 H9A 109.4 . .
C10 C9 H9A 109.4 . .
C8 C9 H9B 109.4 . .
C10 C9 H9B 109.4 . .
H9A C9 H9B 108.0 . .
C11 C10 C9 110.31(16) . .
C11 C10 H10A 109.6 . .
C9 C10 H10A 109.6 . .
C11 C10 H10B 109.6 . .
C9 C10 H10B 109.6 . .
H10A C10 H10B 108.1 . .
C10 C11 C12 111.59(17) . .
C10 C11 H11A 109.3 . .
C12 C11 H11A 109.3 . .
C10 C11 H11B 109.3 . .
C12 C11 H11B 109.3 . .
H11A C11 H11B 108.0 . .
N2 C12 C11 110.85(16) . .
N2 C12 H12A 109.5 . .
C11 C12 H12A 109.5 . .
N2 C12 H12B 109.5 . .
C11 C12 H12B 109.5 . .
H12A C12 H12B 108.1 . .
C1 N1 C2 122.47(15) . .
C1 N1 C6 122.69(15) . .
C2 N1 C6 114.41(14) . .
C7 N2 C8 122.87(16) . .
C7 N2 C12 123.20(16) . .
C8 N2 C12 113.86(15) . .
C1 S1 V1 85.83(6) . .
C1 S2 V1 86.01(6) . .
C7 S3 V1 85.98(6) . .
C7 S4 V1 86.00(6) . .
O1 V1 S3 112.09(6) . .
O1 V1 S2 112.55(6) . .
S3 V1 S2 135.360(18) . .
O1 V1 S4 106.85(6) . .
S3 V1 S4 74.231(19) . .
S2 V1 S4 92.64(2) . .
O1 V1 S1 105.83(6) . .
S3 V1 S1 94.08(2) . .
S2 V1 S1 74.168(18) . .
S4 V1 S1 147.307(19) . .
loop_
_geom_bond_atom_site_label_1
_geom_bond_atom_site_label_2
_geom_bond_distance
_geom_bond_site_symmetry_2
C1 N1 1.318(2) .
C1 S1 1.7272(18) .
C1 S2 1.7306(18) .
C2 N1 1.477(2) .
C2 C3 1.519(3) .
C2 H2A 0.9900 .
C2 H2B 0.9900 .
C3 C4 1.525(3) .
C3 H3A 0.9900 .
C3 H3B 0.9900 .
C4 C5 1.524(3) .
C4 H4A 0.9900 .
C4 H4B 0.9900 .
C5 C6 1.520(3) .
C5 H5A 0.9900 .
C5 H5B 0.9900 .
C6 N1 1.478(2) .
C6 H6A 0.9900 .
C6 H6B 0.9900 .
C7 N2 1.312(2) .
C7 S4 1.7274(19) .
C7 S3 1.7328(19) .
C8 N2 1.474(2) .
C8 C9 1.514(3) .
C8 H8A 0.9900 .
C8 H8B 0.9900 .
C9 C10 1.523(3) .
C9 H9A 0.9900 .
C9 H9B 0.9900 .
C10 C11 1.520(3) .
C10 H10A 0.9900 .
C10 H10B 0.9900 .
C11 C12 1.520(3) .
C11 H11A 0.9900 .
C11 H11B 0.9900 .
C12 N2 1.477(2) .
C12 H12A 0.9900 .
C12 H12B 0.9900 .
O1 V1 1.5954(12) .
S1 V1 2.4086(6) .
S2 V1 2.4005(6) .
S3 V1 2.3997(6) .
S4 V1 2.4027(6) .
