#------------------------------------------------------------------------------
#$Date: 2022-09-26 11:19:32 +0300 (Mon, 26 Sep 2022) $
#$Revision: 278166 $
#$URL: file:///home/coder/svn-repositories/cod/cif/8/10/58/8105861.cif $
#------------------------------------------------------------------------------
#
# This file is available in the Crystallography Open Database (COD),
# http://www.crystallography.net/
#
# All data on this site have been placed in the public domain by the
# contributors.
#
data_8105861
loop_
_publ_author_name
'Yeo, Chien Ing'
'Tiekink, Edward R.T.'
_publ_section_title
;
 Crystal structure of 4-phenyl-2,4-dihydro-3H-1,2,4-triazole-3-thione,
 C8H7N3S
;
_journal_issue                   4
_journal_name_full
'Zeitschrift f\"ur Kristallographie - New Crystal Structures'
_journal_page_first              819
_journal_page_last               820
_journal_paper_doi               10.1515/ncrs-2019-0128
_journal_volume                  234
_journal_year                    2019
_chemical_formula_moiety         'C8 H7 N3 S'
_chemical_formula_sum            'C8 H7 N3 S'
_chemical_formula_weight         177.23
_space_group_crystal_system      monoclinic
_space_group_IT_number           14
_space_group_name_Hall           '-P 2ybc'
_space_group_name_H-M_alt        'P 1 21/c 1'
_atom_sites_solution_hydrogens   mixed
_audit_creation_method           SHELXL-2017/1
_cell_angle_alpha                90
_cell_angle_beta                 98.8710(10)
_cell_angle_gamma                90
_cell_formula_units_Z            4
_cell_length_a                   6.01550(10)
_cell_length_b                   14.10620(10)
_cell_length_c                   10.19900(10)
_cell_measurement_reflns_used    7111
_cell_measurement_temperature    100(2)
_cell_measurement_theta_max      74.8980
_cell_measurement_theta_min      5.3790
_cell_volume                     855.092(18)
_computing_cell_refinement       'CrysAlisPro [1]'
_computing_data_collection       'CrysAlisPro [1]'
_computing_data_reduction        'CrysAlisPro [1]'
_computing_molecular_graphics    'ORTEP-3 for Windows [4]'
_computing_publication_material  'SHELXL2018/3 [3]'
_computing_structure_refinement  'SHELXL2018/3 [3]'
_computing_structure_solution    'SHELXS-97 [2]'
_diffrn_ambient_temperature      100(2)
_diffrn_detector_area_resol_mean 10.5115
_diffrn_measured_fraction_theta_full 0.999
_diffrn_measured_fraction_theta_max 0.999
_diffrn_measurement_device_type  'XtaLAB Synergy, Dualflex, AtlasS2'
_diffrn_measurement_method       '\w scans'
_diffrn_radiation_type           CuK\a
_diffrn_radiation_wavelength     1.54178
_diffrn_reflns_av_R_equivalents  0.0180
_diffrn_reflns_av_unetI/netI     0.0106
_diffrn_reflns_Laue_measured_fraction_full 0.999
_diffrn_reflns_Laue_measured_fraction_max 0.999
_diffrn_reflns_limit_h_max       7
_diffrn_reflns_limit_h_min       -7
_diffrn_reflns_limit_k_max       16
_diffrn_reflns_limit_k_min       -16
_diffrn_reflns_limit_l_max       12
_diffrn_reflns_limit_l_min       -12
_diffrn_reflns_number            9519
_diffrn_reflns_point_group_measured_fraction_full 0.999
_diffrn_reflns_point_group_measured_fraction_max 0.999
_diffrn_reflns_theta_full        67.064
_diffrn_reflns_theta_max         67.064
_diffrn_reflns_theta_min         5.395
_diffrn_source                   'micro-focus sealed X-ray tube'
_exptl_absorpt_coefficient_mu    2.906
_exptl_absorpt_correction_T_max  1.000
_exptl_absorpt_correction_T_min  0.263
_exptl_absorpt_correction_type   gaussian
_exptl_absorpt_process_details   'CrysAlisPro [1]'
_exptl_crystal_colour            colourless
_exptl_crystal_density_diffrn    1.377
_exptl_crystal_description       prism
_exptl_crystal_F_000             368
_exptl_crystal_size_max          0.245
_exptl_crystal_size_mid          0.164
_exptl_crystal_size_min          0.126
_refine_diff_density_max         0.195
_refine_diff_density_min         -0.250
_refine_diff_density_rms         0.041
_refine_ls_extinction_coef       .
_refine_ls_extinction_method     none
_refine_ls_goodness_of_fit_ref   1.061
_refine_ls_hydrogen_treatment    mixed
_refine_ls_matrix_type           full
_refine_ls_number_parameters     112
_refine_ls_number_reflns         1525
_refine_ls_number_restraints     1
_refine_ls_restrained_S_all      1.061
_refine_ls_R_factor_all          0.0250
_refine_ls_R_factor_gt           0.0241
_refine_ls_shift/su_max          0.000
_refine_ls_shift/su_mean         0.000
_refine_ls_structure_factor_coef Fsqd
_refine_ls_weighting_details
'w=1/[\s^2^(Fo^2^)+(0.0263P)^2^+0.4832P] where P=(Fo^2^+2Fc^2^)/3'
_refine_ls_weighting_scheme      calc
_refine_ls_wR_factor_gt          0.0603
_refine_ls_wR_factor_ref         0.0609
_reflns_Friedel_coverage         0.000
_reflns_Friedel_fraction_full    .
_reflns_Friedel_fraction_max     .
_reflns_number_gt                1477
_reflns_number_total             1525
_reflns_threshold_expression     'I > 2\s(I)'
_cod_data_source_file            suppl_ncrs-2019-0128_suppl.cif
_cod_data_source_block           shelx
_cod_original_sg_symbol_H-M      'P 21/c'
_cod_database_code               8105861
_shelx_shelxl_version_number     2017/1
_shelx_space_group_comment
;
The symmetry employed for this shelxl refinement is uniquely defined
by the following loop, which should always be used as a source of
symmetry information in preference to the above space-group names.
They are only intended as comments.
;
_shelx_estimated_absorpt_t_min   0.536
_shelx_estimated_absorpt_t_max   0.711
_shelx_res_file
;
TITL P21/c
    a.res
    created by SHELXL-2017/1 at 00:03:36 on 01-Dec-2017
CELL 1.54178 6.0155 14.1062 10.1990 90.000 98.871 90.000
ZERR 4       0.0001  0.0001  0.0001  0.000  0.001  0.000
LATT 1
SYMM -X,0.5+Y,0.5-Z
SFAC C  H  N  S
UNIT 32 28 12 4
OMIT -1 16 3
OMIT -6 9 3
OMIT  -3.00 150.00
L.S. 20
BOND $H
FMAP 2
ACTA
DFIX 0.88 0.01 N1 H1n
PLAN -1
CONF
SIZE 0.126 0.164 0.245
TEMP -173
WGHT    0.026300    0.483200
FVAR       0.27691
S1    4    0.263162    0.427590   -0.114056    11.00000    0.02046    0.02008 =
         0.01403    0.00194    0.00534    0.00436
N1    3    0.179010    0.437451    0.139882    11.00000    0.01853    0.01895 =
         0.01504    0.00057    0.00429    0.00390
H1N   2    0.069380    0.479777    0.127331    11.00000   -1.50000
N2    3    0.229912    0.395944    0.262851    11.00000    0.02638    0.02532 =
         0.01450    0.00144    0.00512    0.00516
N3    3    0.423833    0.331631    0.117662    11.00000    0.01751    0.01810 =
         0.01360    0.00003    0.00351    0.00290
C1    1    0.290676    0.399857    0.048313    11.00000    0.01423    0.01524 =
         0.01659   -0.00112    0.00325   -0.00135
C2    1    0.378277    0.332690    0.245749    11.00000    0.02647    0.02487 =
         0.01407    0.00137    0.00439    0.00534
AFIX  43
H2    2    0.447849    0.291655    0.313813    11.00000   -1.20000
AFIX   0
C3    1    0.575063    0.266399    0.069127    11.00000    0.01639    0.01877 =
         0.01386   -0.00149    0.00121    0.00322
C4    1    0.560446    0.171213    0.101722    11.00000    0.02580    0.02249 =
         0.01974    0.00499    0.00877    0.00285
AFIX  43
H4    2    0.449929    0.150148    0.152328    11.00000   -1.20000
AFIX   0
C5    1    0.709759    0.107391    0.059221    11.00000    0.03390    0.01865 =
         0.02910    0.00571    0.01010    0.00717
AFIX  43
H5    2    0.703335    0.042280    0.082143    11.00000   -1.20000
AFIX   0
C6    1    0.868263    0.138175   -0.016526    11.00000    0.02488    0.02408 =
         0.03053    0.00003    0.00907    0.00824
AFIX  43
H6    2    0.968920    0.094062   -0.046267    11.00000   -1.20000
AFIX   0
C7    1    0.879964    0.233419   -0.048932    11.00000    0.01783    0.02525 =
         0.02805   -0.00126    0.00814   -0.00114
AFIX  43
H7    2    0.988158    0.254157   -0.101366    11.00000   -1.20000
AFIX   0
C8    1    0.734497    0.298682   -0.005213    11.00000    0.01673    0.01699 =
         0.02208   -0.00099    0.00242   -0.00143
AFIX  43
H8    2    0.744028    0.364092   -0.025813    11.00000   -1.20000
AFIX   0
HKLF 4




REM  P21/c
REM R1 =  0.0241 for    1477 Fo > 4sig(Fo)  and  0.0250 for all    1525 data
REM    112 parameters refined using      1 restraints

END

WGHT      0.0263      0.4830

REM Highest difference peak  0.195,  deepest hole -0.250,  1-sigma level  0.041
Q1    1   0.4999  0.2993  0.0946  11.00000  0.05    0.19
;
_shelx_res_checksum              69905
_shelx_hkl_file
;
   0   0  -1    0.01    0.01
   0   0   1    0.04    0.01
   0   0  -1    0.01    0.02
   0   0  -1    0.01    0.01
   0   0   2  368.93    1.12
   0   0   2  364.57    0.69
   0   0  -2  396.02    1.39
   0   0  -2  391.38    1.14
   0   0  -2  379.32    0.89
   0   0   3    0.07    0.03
   0   0  -3    0.22    0.05
   0   0  -3    0.02    0.02
   0   0  -3    0.19    0.04
   0   0  -4   60.19    0.47
   0   0   4   59.99    0.78
   0   0  -4   61.16    0.77
   0   0  -4   61.71    0.79
   0   0  -4   61.99    0.78
   0   0  -5    0.09    0.07
   0   0   5   -0.03    0.06
   0   0  -5    0.08    0.04
   0   0  -5    0.04    0.02
   0   0  -6  119.41    1.42
   0   0   6  122.20    1.27
   0   0  -6  121.86    1.49
   0   0  -7    0.01    0.07
   0   0   7    0.02    0.08
   0   0  -7   -0.02    0.07
   0   0  -8  131.81    1.99
   0   0  -8  128.74    1.90
   0   0  -8  131.99    1.89
   0   0  -9    0.10    0.11
   0   0  -9   -0.09    0.10
   0   0  -9   -0.04    0.09
   0   0 -10    0.27    0.11
   0   0  10    0.22    0.09
   0   0 -10    0.54    0.15
   0   0 -10    0.38    0.14
   0   0 -11   -0.02    0.09
   0   0 -11   -0.03    0.08
   0   0  12    9.95    0.39
   0   0 -12   10.01    0.41
   0   1   0    0.00    0.01
   0  -1   0    0.03    0.01
   0  -1  -1  172.37    0.66
   0   1  -1  171.25    0.60
   0   1  -1  169.21    0.65
   0   1  -1  166.77    0.64
   0   1   1  170.72    0.39
   0   1   1  168.82    0.64
   0  -1  -1  168.05    0.37
   0  -1   1  170.53    0.66
   0  -1   1  170.65    0.64
   0   1  -2   75.55    0.61
   0  -1   2   73.06    0.45
   0   1  -2   73.25    0.46
   0  -1   2   73.84    0.47
   0   1   2   74.24    0.60
   0  -1  -2   75.03    0.61
   0  -1   2   74.62    0.56
   0  -1  -2   69.92    0.45
   0  -1   2   71.93    0.61
   0   1  -3  149.95    0.73
   0  -1   3  149.20    1.08
   0   1  -3  151.45    1.04
   0  -1  -3  151.76    0.71
   0  -1   3  149.23    0.73
   0   1   3  149.39    1.06
   0  -1  -3  151.66    0.79
   0  -1  -3  151.01    1.06
   0  -1  -4   15.57    0.39
   0  -1   4   16.48    0.35
   0  -1   4   16.20    0.41
   0  -1  -4   16.44    0.31
   0  -1  -4   15.80    0.40
   0   1  -4   15.03    0.37
   0  -1  -4   15.71    0.41
   0   1  -4   15.97    0.40
   0   1  -4   15.56    0.26
   0  -1   4   15.32    0.39
   0   1   4   15.29    0.40
   0  -1  -4   15.60    0.24
   0   1  -4   15.07    0.38
   0  -1  -5  128.46    1.27
   0   1  -5  126.80    1.28
   0   1   5  128.64    1.30
   0  -1  -5  131.29    1.38
   0  -1  -5  127.97    1.01
   0  -1   5  127.61    1.31
   0  -1   5  130.86    1.27
   0   1  -5  126.57    0.73
   0   1  -5  127.64    1.26
   0  -1  -5  128.45    0.69
   0  -1  -6    6.36    0.25
   0  -1  -6    6.09    0.32
   0   1  -6    6.12    0.32
   0   1  -6    6.54    0.34
   0  -1   6    6.06    0.29
   0   1   6    6.39    0.29
   0  -1  -6    6.45    0.36
   0   1  -7   48.52    1.02
   0   1   7   48.31    0.86
   0  -1  -7   47.43    1.02
   0   1  -7   47.82    1.03
   0  -1  -7   49.21    1.09
   0  -1  -8    2.35    0.27
   0   1  -8    2.25    0.27
   0   1   8    2.26    0.21
   0   1  -8    2.17    0.26
   0   1  -8    2.61    0.27
   0  -1  -8    2.47    0.28
   0  -1  -8    2.14    0.27
   0   1  -9   30.89    0.99
   0  -1  -9   32.15    1.02
   0  -1  -9   30.59    1.00
   0  -1  -9   29.58    0.95
   0   1  -9   31.41    0.91
   0   1   9   31.55    0.77
   0   1  -9   31.16    1.00
   0  -1 -10   12.61    0.62
   0   1 -10   13.35    0.64
   0  -1 -10   12.52    0.59
   0   1  10   13.09    0.50
   0   1 -10   13.66    0.67
   0  -1 -10   12.99    0.65
   0   1 -10   13.32    0.56
   0  -1  11    2.88    0.21
   0   1 -11    2.82    0.28
   0  -1 -11    2.69    0.26
   0   1 -11    2.73    0.26
   0  -1 -11    2.96    0.29
   0   1 -12    6.42    0.32
   0   1  12    6.43    0.31
   0  -1  12    6.61    0.32
   0  -1 -12    6.03    0.31
   0  -2   0   54.49    0.44
   0  -2   0   53.67    0.43
   0  -2   0   54.40    0.38
   0   2   0   54.96    0.42
   0   2   0   53.37    0.37
   0  -2  -1   74.40    0.43
   0   2  -1   74.91    0.55
   0  -2   1   72.45    0.55
   0  -2   1   73.84    0.55
   0   2  -1   70.79    0.53
   0  -2   1   73.80    0.43
   0   2  -1   72.70    0.42
   0   2  -1   71.29    0.52
   0   2   1   76.30    0.43
   0   2   1   75.09    0.43
   0  -2  -1   73.03    0.43
   0  -2   1   72.79    0.52
   0   2   1   73.52    0.41
   0  -2   2   82.05    0.68
   0   2   2   81.83    0.63
   0   2  -2   82.27    0.63
   0  -2   2   81.32    0.63
   0  -2  -2   82.29    0.64
   0  -2   2   81.20    0.58
   0  -2   2   82.45    0.65
   0   2  -2   80.60    0.58
   0  -2  -3  190.46    1.19
   0  -2   3  192.35    1.02
   0   2  -3  192.06    0.96
   0   2   3  195.71    1.20
   0  -2  -3  184.35    0.89
   0  -2   3  200.86    1.19
   0  -2   3  193.50    0.96
   0  -2   3  187.15    1.26
   0  -2   3  193.66    1.22
   0   2  -3  190.50    1.17
   0  -2   4   99.60    0.92
   0   2  -4  107.20    1.03
   0  -2  -4  110.55    0.76
   0   2   4  106.12    1.04
   0  -2  -4  105.16    0.70
   0  -2  -4  107.10    1.05
   0  -2   4  108.21    1.09
   0   2  -4  104.99    0.92
   0  -2  -4  105.18    1.09
   0  -2   4  105.99    1.06
   0  -2   4  108.98    0.75
   0  -2  -4  105.51    1.02
   0   2  -4  105.25    1.00
   0   2  -4  105.81    0.75
   0  -2   4  106.77    0.78
   0  -2  -5   63.60    0.64
   0   2  -5   61.14    0.87
   0  -2  -5   60.65    0.87
   0  -2  -5   63.09    0.53
   0   2  -5   61.70    0.57
   0  -2   5   64.85    0.93
   0  -2   5   61.98    0.92
   0  -2  -5   62.30    0.98
   0   2   5   63.60    0.91
   0  -2   5   61.65    0.80
   0  -2  -5   61.73    0.83
   0   2  -5   59.82    0.85
   0  -2  -6    0.55    0.12
   0   2  -6    0.53    0.10
   0   2   6    0.80    0.12
   0   2  -6    0.54    0.10
   0  -2  -6    0.48    0.10
   0  -2  -6    0.51    0.09
   0  -2  -7   12.51    0.53
   0   2  -7   12.83    0.51
   0   2  -7   12.64    0.53
   0  -2  -7   12.66    0.42
   0   2   7   12.74    0.49
   0  -2  -7   12.61    0.57
   0   2  -8   16.64    0.70
   0   2  -8   16.30    0.63
   0   2  -8   17.19    0.69
   0   2   8   16.46    0.59
   0  -2  -8   17.28    0.72
   0  -2  -8   16.74    0.71
   0  -2  -8   16.65    0.68
   0   2   9   30.45    0.79
   0  -2  -9   31.81    1.00
   0   2  -9   30.87    0.98
   0  -2  -9   29.22    0.96
   0  -2  -9   29.56    0.96
   0   2  -9   30.57    0.99
   0   2  -9   29.25    0.85
   0   2   9   30.15    0.81
   0  -2 -10    0.52    0.14
   0   2 -10    0.41    0.15
   0   2 -10    0.42    0.11
   0  -2 -10    0.40    0.13
   0  -2 -10    0.36    0.13
   0   2  10    0.34    0.10
   0   2 -10    0.40    0.14
   0  -2 -11   28.13    0.77
   0  -2  11   28.21    0.67
   0   2 -11   27.86    0.76
   0   2 -11   27.72    0.83
   0  -2 -11   29.76    0.86
   0  -2 -11   27.81    0.75
   0  -3   0    0.00    0.02
   0   3   0    0.00    0.03
   0  -3   0    0.02    0.03
   0  -3   0    0.00    0.03
   0  -3  -1   20.13    0.33
   0  -3   1   19.93    0.33
   0  -3  -1   19.48    0.26
   0   3  -1   19.31    0.21
   0  -3   1   19.70    0.33
   0   3  -1   18.86    0.32
   0  -3  -1   19.52    0.29
   0   3  -1   20.12    0.32
   0  -3  -1   19.70    0.21
   0   3   1   21.16    0.29
   0   3   1   20.58    0.21
   0   3  -1   19.54    0.33
   0   3   1   19.91    0.26
   0  -3   1   21.53    0.23
   0  -3   2   18.73    0.31
   0   3  -2   18.19    0.33
   0   3   2   18.58    0.28
   0   3  -2   18.57    0.29
   0  -3  -2   18.01    0.30
   0  -3   2   18.51    0.35
   0   3   2   18.93    0.30
   0  -3   2   18.32    0.32
   0   3   3    7.49    0.23
   0  -3   3    7.43    0.26
   0   3  -3    7.66    0.23
   0   3  -3    7.15    0.22
   0  -3   3    7.42    0.24
   0  -3   3    6.96    0.26
   0  -3   3    7.57    0.24
   0   3   3    7.49    0.21
   0  -3  -3    7.63    0.24
   0  -3   4    2.35    0.16
   0   3   4    2.26    0.15
   0   3  -4    2.32    0.15
   0  -3   4    2.31    0.14
   0  -3  -4    2.25    0.15
   0  -3   4    2.42    0.13
   0  -3  -4    2.45    0.12
   0   3  -4    2.21    0.13
   0  -3  -4    2.40    0.18
   0  -3   4    2.43    0.17
   0  -3   4    2.29    0.16
   0  -3  -5    3.16    0.24
   0   3  -5    3.07    0.14
   0  -3  -5    2.93    0.19
   0  -3  -5    3.25    0.21
   0   3  -5    3.18    0.20
   0  -3  -5    3.03    0.13
   0  -3   5    3.11    0.14
   0   3  -5    2.88    0.19
   0  -3  -5    3.43    0.14
   0  -3   5    2.97    0.21
   0  -3   5    3.12    0.19
   0  -3   5    3.05    0.21
   0   3   5    3.33    0.22
   0   3  -6   68.61    1.07
   0  -3  -6   69.35    1.07
   0  -3  -6   70.15    1.24
   0   3   6   70.90    1.07
   0  -3  -6   68.65    1.04
   0   3  -6   67.74    1.01
   0   3  -7    0.23    0.08
   0   3  -7    0.08    0.08
   0  -3  -7    0.14    0.09
   0  -3  -7    0.12    0.07
   0   3   7    0.20    0.09
   0  -3  -7    0.13    0.09
   0   3   7    0.16    0.07
   0   3   8   73.04    1.18
   0  -3  -8   73.31    1.42
   0  -3  -8   72.31    1.11
   0   3   8   74.90    1.32
   0  -3  -8   73.75    1.51
   0  -3  -8   71.48    1.44
   0   3  -8   70.38    1.23
   0   3  -8   72.93    1.41
   0   3  -8   74.71    1.45
   0  -3  -9    0.03    0.10
   0  -3  -9    0.14    0.10
   0   3   9    0.02    0.09
   0  -3  -9   -0.04    0.09
   0   3  -9    0.23    0.13
   0   3  -9    0.17    0.12
   0  -3 -10   20.46    0.77
   0  -3 -10   19.38    0.74
   0   3  10   20.16    0.65
   0   3 -10   19.21    0.75
   0  -3 -10   19.99    0.74
   0   3 -10   18.50    0.70
   0   3 -10   18.56    0.62
   0  -3 -11   -0.05    0.09
   0   3  11    0.05    0.05
   0  -3 -11   -0.03    0.08
   0   3 -11   -0.05    0.08
   0   3 -11   -0.04    0.07
   0  -3 -11    0.03    0.07
   0   4   0  310.40    1.41
   0   4   0  306.80    1.23
   0  -4   0  310.37    1.30
   0  -4   0  304.90    1.46
   0  -4   0  306.66    1.49
   0  -4  -1   55.54    0.51
   0  -4  -1   56.30    0.64
   0   4   1   58.44    0.51
   0   4   1   56.69    0.32
   0  -4   1   58.04    0.34
   0  -4  -1   57.95    0.59
   0   4   1   56.71    0.32
   0  -4   1   56.89    0.65
   0  -4   1   56.12    0.33
   0   4  -1   55.28    0.58
   0   4  -1   57.46    0.65
   0  -4   1   57.03    0.63
   0  -4  -2    6.47    0.22
   0   4   2    6.07    0.17
   0   4  -2    5.94    0.16
   0  -4  -2    6.12    0.17
   0  -4   2    6.34    0.22
   0  -4   2    6.15    0.23
   0   4  -2    6.34    0.22
   0   4   2    6.23    0.17
   0  -4   2    5.66    0.17
   0   4  -3   73.47    0.70
   0   4  -3   72.52    0.76
   0   4   3   73.07    0.72
   0  -4  -3   73.90    0.73
   0  -4   3   73.66    0.91
   0  -4  -3   71.56    0.83
   0  -4   3   72.11    0.74
   0  -4   3   72.85    0.76
   0  -4   3   72.08    0.85
   0   4   3   70.75    0.64
   0  -4  -3   75.63    0.77
   0  -4   3   71.39    0.81
   0  -4   4    6.57    0.28
   0  -4   4    6.68    0.30
   0  -4   4    7.35    0.24
   0   4   4    7.49    0.23
   0  -4  -4    7.38    0.28
   0  -4  -4    7.64    0.25
   0  -4  -4    7.30    0.21
   0   4   4    6.68    0.22
   0  -4   4    7.29    0.28
   0   4  -4    7.26    0.25
   0   4  -4    7.14    0.26
   0   4   4    6.89    0.24
   0  -4   4    7.20    0.27
   0  -4  -4    7.62    0.33
   0   4   4    7.58    0.28
   0  -4  -5    0.31    0.07
   0  -4  -5    0.16    0.04
   0   4   5    0.11    0.07
   0  -4  -5    0.10    0.03
   0  -4  -5    0.04    0.05
   0   4   5    0.35    0.08
   0   4   5    0.13    0.07
   0  -4   5    0.05    0.07
   0  -4   5    0.11    0.04
   0  -4  -5    0.17    0.07
   0   4   5    0.16    0.06
   0  -4   5    0.11    0.06
   0  -4  -6   10.75    0.42
   0   4  -6   11.43    0.44
   0   4  -6   10.76    0.39
   0   4   6   10.66    0.38
   0  -4  -6   10.88    0.45
   0   4   6   11.82    0.47
   0  -4  -6   10.86    0.50
   0   4  -7   59.19    1.12
   0  -4  -7   63.20    1.24
   0  -4  -7   60.15    1.11
   0   4  -7   62.31    1.21
   0  -4  -7   62.89    1.33
   0   4   7   60.92    0.99
   0   4  -7   60.43    1.00
   0  -4  -7   63.74    1.17
   0   4   7   61.32    1.17
   0  -4  -8   29.93    0.89
   0  -4  -8   30.07    0.92
   0  -4  -8   28.29    0.76
   0  -4  -8   29.01    0.96
   0   4  -8   30.11    0.89
   0   4  -8   29.31    0.89
   0   4   8   29.39    0.70
   0   4   8   30.76    0.89
   0   4  -9    0.20    0.11
   0  -4  -9    0.34    0.13
   0   4  -9   -0.01    0.08
   0  -4  -9    0.27    0.11
   0   4   9   -0.06    0.08
   0   4  -9    0.13    0.11
   0  -4  -9    0.21    0.11
   0   4 -10    0.14    0.08
   0  -4 -10    0.33    0.12
   0   4 -10    0.15    0.09
   0  -4 -10    0.15    0.10
   0   4  10    0.04    0.08
   0   4 -10    0.21    0.11
   0  -4 -10    0.24    0.11
   0   4 -11   21.21    0.58
   0   4  11   20.51    0.53
   0  -4 -11   22.22    0.65
   0  -4 -11   20.55    0.63
   0   4 -11   20.93    0.64
   0  -4 -11   21.15    0.58
   0   5   0    0.01    0.02
   0  -5   0    0.03    0.03
   0  -5   0    0.00    0.03
   0  -5   0    0.01    0.03
   0   5   1    1.20    0.08
   0   5   1    1.62    0.12
   0  -5  -1    1.22    0.11
   0   5  -1    1.31    0.10
   0  -5   1    1.26    0.11
   0  -5  -1    1.22    0.09
   0  -5  -1    1.12    0.10
   0  -5   1    1.16    0.11
   0  -5   1    1.17    0.10
   0  -5   2  122.82    0.72
   0  -5  -2  127.91    1.09
   0  -5   2  126.39    1.08
   0  -5   2  124.25    1.14
   0  -5   2  126.91    1.14
   0   5   2  125.75    0.71
   0  -5   2  121.07    0.74
   0   5   2  127.09    0.84
   0   5   2  126.57    1.12
   0  -5  -2  125.91    0.92
   0   5   2  125.39    0.72
   0   5  -3   46.85    0.54
   0   5   3   47.98    0.54
   0   5   3   48.61    0.58
   0   5   3   48.30    0.73
   0  -5   3   47.59    0.67
   0  -5   3   46.76    0.77
   0  -5  -3   48.19    0.57
   0   5   3   46.98    0.57
   0  -5   3   46.92    0.60
   0  -5  -3   48.55    0.67
   0  -5   3   46.72    0.57
   0  -5  -3   46.50    0.72
   0  -5   3   46.60    0.71
   0  -5   3   46.95    0.74
   0   5  -4   13.96    0.35
   0  -5   4   15.15    0.40
   0   5   4   15.18    0.39
   0   5   4   15.18    0.43
   0   5   4   15.09    0.33
   0  -5   4   14.53    0.36
   0  -5   4   14.89    0.47
   0  -5   4   14.72    0.41
   0  -5  -4   15.83    0.48
   0  -5   4   14.47    0.37
   0   5   4   14.92    0.34
   0  -5  -4   16.24    0.40
   0  -5  -4   15.51    0.38
   0   5   4   15.52    0.39
   0   5   5   66.17    0.87
   0   5   5   66.88    0.88
   0   5   5   66.87    1.04
   0  -5  -5   70.06    1.15
   0   5   5   66.68    0.82
   0   5  -5   66.63    1.06
   0  -5   5   66.49    0.73
   0  -5   5   65.19    0.88
   0  -5  -5   67.98    1.15
   0  -5  -5   67.28    0.74
   0   5   6   47.82    0.77
   0  -5  -6   49.74    1.04
   0   5  -6   48.46    0.98
   0   5  -6   47.65    0.93
   0   5  -6   46.86    0.86
   0   5   6   49.02    0.99
   0   5  -6   49.64    1.04
   0  -5  -6   49.60    1.10
   0  -5  -6   47.06    0.84
   0  -5  -6   50.33    0.98
   0   5  -7    2.87    0.25
   0  -5  -7    3.21    0.32
   0   5   7    2.87    0.27
   0  -5  -7    2.86    0.25
   0  -5  -7    3.17    0.28
   0  -5  -7    2.88    0.27
   0   5  -7    2.99    0.27
   0   5  -7    2.63    0.25
   0   5  -8   34.29    0.95
   0   5  -8   33.29    0.91
   0   5   8   33.58    0.97
   0  -5  -8   34.09    0.93
   0  -5  -8   33.75    0.88
   0   5  -8   33.12    0.90
   0  -5  -8   33.86    1.04
   0  -5  -9    0.58    0.14
   0   5  -9    1.19    0.18
   0   5  -9    0.78    0.17
   0   5  -9    0.50    0.14
   0  -5  -9    0.89    0.16
   0  -5  -9    0.87    0.19
   0   5   9    0.78    0.16
   0  -5  -9    0.63    0.12
   0  -5 -10   15.29    0.56
   0  -5 -10   15.57    0.64
   0  -5 -10   14.42    0.57
   0   5 -10   14.86    0.54
   0   5 -10   14.86    0.58
   0   5  10   15.24    0.60
   0   5 -10   14.51    0.53
   0  -5 -11    0.70    0.12
   0   5 -11    0.93    0.12
   0   5 -11    0.76    0.11
   0  -5  11    0.94    0.12
   0   5  11    0.80    0.11
   0   5  11    0.87    0.12
   0  -6   0  183.27    1.41
   0  -6   0  188.48    1.43
   0   6   0  187.75    1.15
   0   6   0  185.68    1.39
   0  -6   0  185.87    1.23
   0  -6  -1    2.36    0.16
   0   6  -1    2.28    0.14
   0   6   1    2.36    0.17
   0  -6   1    2.39    0.16
   0   6  -1    2.17    0.15
   0   6   1    2.36    0.13
   0  -6  -1    2.40    0.17
   0   6  -1    2.28    0.14
   0  -6   1    2.18    0.16
   0  -6   1    2.31    0.17
   0  -6  -1    2.34    0.13
   0   6   2   30.55    0.62
   0   6  -2   29.73    0.51
   0  -6   2   30.72    0.61
   0   6   2   31.29    0.44
   0  -6   2   28.99    0.29
   0  -6  -2   31.41    0.60
   0  -6   2   30.48    0.60
   0  -6   2   30.19    0.58
   0   6   2   30.09    0.29
   0  -6  -3    6.57    0.28
   0  -6   3    6.28    0.27
   0  -6  -3    7.07    0.30
   0   6  -3    6.43    0.22
   0  -6   3    6.30    0.21
   0  -6   3    6.24    0.28
   0   6   3    6.62    0.20
   0   6   3    6.16    0.29
   0   6   3    6.22    0.20
   0  -6   3    6.12    0.19
   0   6   3    6.49    0.20
   0   6   3    6.57    0.21
   0  -6   3    6.58    0.31
   0  -6   4   30.40    0.48
   0   6   4   30.49    0.67
   0  -6   4   31.33    0.71
   0  -6   4   30.70    0.57
   0  -6   4   31.33    0.53
   0   6   4   31.01    0.50
   0   6   4   31.30    0.45
   0  -6  -4   30.33    0.70
   0  -6  -4   31.36    0.76
   0  -6  -4   31.43    0.60
   0   6   4   31.95    0.52
   0   6   4   30.51    0.49
   0   6   5    2.27    0.19
   0  -6  -5    2.50    0.23
   0  -6  -5    2.54    0.19
   0   6  -5    2.08    0.21
   0   6  -5    2.35    0.22
   0   6   5    2.63    0.23
   0  -6  -5    2.49    0.24
   0   6  -5    2.42    0.18
   0  -6  -6   14.43    0.61
   0   6  -6   14.69    0.60
   0  -6  -6   13.88    0.59
   0   6  -6   13.61    0.55
   0  -6  -6   14.61    0.51
   0   6  -6   13.88    0.45
   0   6  -6   13.69    0.48
   0   6   6   12.88    0.54
   0   6   7   13.73    0.61
   0   6  -7   13.39    0.59
   0  -6  -7   14.61    0.52
   0  -6  -7   13.12    0.63
   0  -6  -7   14.61    0.62
   0   6  -7   14.03    0.53
   0  -6  -7   14.78    0.55
   0   6  -7   13.65    0.53
   0   6  -8    1.95    0.21
   0   6  -8    1.95    0.24
   0   6   8    2.01    0.26
   0  -6  -8    1.93    0.24
   0   6  -8    1.66    0.21
   0  -6  -8    1.94    0.26
   0  -6  -8    1.75    0.21
   0  -6  -8    1.65    0.21
   0   6   9    3.05    0.30
   0   6  -9    2.87    0.28
   0  -6  -9    2.76    0.25
   0  -6  -9    2.97    0.25
   0  -6  -9    2.99    0.26
   0  -6  -9    3.21    0.32
   0   6  -9    3.15    0.26
   0   6  -9    2.70    0.26
   0  -6 -10    3.84    0.27
   0  -6 -10    4.15    0.32
   0   6  10    4.28    0.32
   0   6 -10    3.75    0.26
   0   6 -10    3.59    0.26
   0   6 -10    3.68    0.23
   0  -6 -10    3.51    0.23
   0  -6 -11   14.15    0.46
   0   6  11   14.10    0.45
   0   7   0   -0.01    0.03
   0   7   0    0.17    0.07
   0  -7   0    0.00    0.06
   0  -7   0    0.00    0.04
   0  -7   0   -0.03    0.05
   0   7   0   -0.03    0.06
   0   7   1  225.06    1.30
   0  -7   1  219.95    1.58
   0   7  -1  224.75    1.47
   0   7   1  224.67    1.31
   0   7   1  223.74    1.80
   0  -7   1  228.02    1.74
   0  -7  -1  228.29    1.73
   0   7  -1  232.96    1.68
   0  -7   1  223.35    1.70
   0  -7  -1  223.53    1.36
   0  -7  -1  220.41    1.60
   0   7  -1  224.45    1.55
   0   7  -2   34.79    0.64
   0   7   2   34.03    0.48
   0  -7  -2   33.54    0.67
   0  -7  -2   33.43    0.52
   0   7   2   33.82    0.50
   0   7   2   34.31    0.74
   0  -7   2   34.45    0.69
   0  -7   2   34.04    0.67
   0   7   3    6.11    0.20
   0   7   3    6.72    0.34
   0  -7   3    5.92    0.28
   0   7   3    6.23    0.22
   0  -7   3    6.13    0.31
   0  -7  -3    5.79    0.28
   0  -7  -3    6.60    0.30
   0   7  -3    6.34    0.26
   0   7  -4   15.82    0.51
   0   7  -4   16.40    0.55
   0   7   4   15.22    0.50
   0  -7   4   14.93    0.41
   0  -7  -4   16.00    0.43
   0  -7  -4   15.50    0.52
   0   7   4   14.36    0.51
   0  -7  -4   15.12    0.57
   0  -7  -5   33.73    0.85
   0   7  -5   34.29    0.86
   0  -7  -5   34.67    0.92
   0   7   5   34.10    0.82
   0   7  -5   35.19    0.85
   0   7   5   34.35    0.79
   0   7   6   31.72    0.72
   0   7  -6   33.04    0.91
   0   7  -6   33.41    0.91
   0   7   6   31.78    0.88
   0  -7  -6   32.78    0.95
   0  -7  -6   32.02    0.91
   0  -7  -7   25.94    0.87
   0   7  -7   26.94    0.67
   0  -7  -7   26.21    0.87
   0   7   7   28.81    0.90
   0   7  -7   26.65    0.86
   0   7  -8    7.69    0.39
   0   7  -8    8.03    0.48
   0  -7  -8    8.00    0.49
   0  -7  -8    7.84    0.46
   0   7   8    7.08    0.47
   0   7  -9   38.43    0.80
   0   7  -9   39.72    0.98
   0  -7  -9   39.89    0.88
   0   7   9   42.28    1.08
   0  -7  -9   41.32    1.05
   0   7 -10   19.96    0.58
   0  -7 -10   19.85    0.63
   0   7  10   19.76    0.65
   0   8   0   66.07    1.04
   0  -8   0   65.31    0.86
   0   8   0   65.49    0.75
   0   8   0   67.02    0.86
   0  -8   0   65.35    1.00
   0  -8   0   68.00    0.85
   0   8   1    1.42    0.13
   0   8   1    1.38    0.16
   0  -8   1    1.60    0.16
   0  -8   1    1.36    0.14
   0  -8  -1    1.25    0.15
   0   8   1    1.43    0.11
   0  -8  -1    1.57    0.12
   0   8  -1    1.42    0.15
   0  -8  -2   10.08    0.43
   0   8  -2   10.42    0.39
   0   8   2   10.21    0.30
   0  -8   2   10.37    0.38
   0   8  -2    9.78    0.41
   0   8   2   10.96    0.41
   0  -8  -2   10.10    0.39
   0   8   2   10.51    0.45
   0   8  -3    1.83    0.17
   0   8   3    1.60    0.19
   0   8   3    1.90    0.16
   0   8  -3    1.27    0.17
   0  -8  -3    1.84    0.20
   0   8  -3    1.62    0.15
   0  -8  -3    1.62    0.15
   0   8  -4  156.14    1.73
   0   8   4  152.51    1.65
   0  -8  -4  157.64    1.97
   0  -8  -4  153.44    1.65
   0   8  -4  152.99    1.81
   0   8   4  153.71    1.82
   0   8  -5   30.04    0.81
   0   8   5   29.22    0.80
   0  -8  -5   30.39    0.81
   0  -8  -5   29.59    0.91
   0   8   5   29.96    0.80
   0   8  -5   28.45    0.85
   0   8  -6    0.02    0.09
   0   8   6    0.06    0.06
   0  -8  -6   -0.04    0.08
   0   8  -6    0.05    0.16
   0   8   6    0.08    0.09
   0  -8  -6    0.05    0.10
   0  -8  -7   20.30    0.78
   0   8   7   19.73    0.76
   0   8  -7   19.94    0.77
   0  -8  -7   20.40    0.75
   0   8   8   99.07    1.70
   0  -8  -8  101.38    1.64
   0   8  -8   97.39    1.65
   0  -8  -9    5.36    0.36
   0  -8  -9    5.13    0.32
   0   8   9    5.22    0.38
   0   8  -9    5.60    0.36
   0   8  10   24.42    0.69
   0  -8 -10   24.00    0.62
   0   8 -10   23.78    0.58
   0  -9   0   -0.01    0.05
   0   9   0    0.00    0.06
   0   9   0   -0.02    0.09
   0   9   0    0.04    0.04
   0  -9   0    0.06    0.08
   0   9   0    0.00    0.09
   0   9   1   26.77    0.76
   0  -9   1   26.21    0.54
   0   9  -1   26.44    0.72
   0   9   1   27.55    0.71
   0   9   1   26.84    0.54
   0   9  -1   26.05    0.62
   0   9  -1   26.32    0.70
   0  -9  -1   25.48    0.66
   0   9   1   25.71    0.61
   0  -9  -2   20.17    0.65
   0   9  -2   20.64    0.66
   0   9  -2   20.02    0.59
   0   9   2   18.66    0.55
   0   9  -2   20.33    0.58
   0   9   2   21.11    0.64
   0   9   2   19.96    0.68
   0   9   3   41.50    0.80
   0   9  -3   42.80    0.90
   0   9  -3   41.65    0.98
   0   9   3   44.24    1.04
   0   9  -3   43.40    0.81
   0  -9  -3   44.38    1.04
   0   9   4    0.32    0.10
   0   9  -4    0.59    0.13
   0   9   4    0.15    0.09
   0  -9  -4    0.26    0.11
   0   9  -4    0.29    0.10
   0  -9  -4    0.21    0.08
   0  -9  -5   13.81    0.65
   0   9   5   14.36    0.58
   0   9  -5   13.45    0.58
   0   9  -5   12.92    0.61
   0  -9  -5   13.62    0.53
   0   9   5   13.41    0.56
   0   9  -6   32.58    0.99
   0  -9  -6   33.69    1.03
   0  -9  -6   33.16    0.88
   0   9   6   33.72    0.96
   0   9   6   33.13    0.83
   0   9  -6   33.06    0.95
   0  -9  -7    5.22    0.40
   0   9  -7    5.30    0.40
   0  -9  -7    4.82    0.35
   0   9   7    5.12    0.39
   0  -9  -8   20.16    0.68
   0  -9  -8   21.14    0.74
   0   9  -8   20.55    0.75
   0   9   8   21.29    0.78
   0  -9  -9   17.12    0.55
   0   9   9   17.92    0.65
   0   9  -9   17.21    0.59
   0  -9  -9   16.59    0.55
   0   9  10    3.20    0.23
   0   9 -10    2.76    0.18
   0  10   0    0.69    0.13
   0  10   0    0.78    0.15
   0 -10   0    0.71    0.11
   0  10   0    0.79    0.16
   0  10   1   10.10    0.34
   0  10   1    9.43    0.49
   0  10   1    9.03    0.41
   0  10  -1    9.54    0.46
   0  10  -1    9.88    0.43
   0  10   1    9.59    0.46
   0  10  -1    9.96    0.48
   0 -10  -1    9.60    0.42
   0  10  -2    0.33    0.12
   0  10  -2    0.33    0.10
   0 -10  -2    0.39    0.11
   0  10   2    0.38    0.13
   0  10  -2    0.62    0.14
   0  10   2    0.38    0.11
   0  10   2    0.49    0.13
   0  10   3   67.07    1.20
   0  10   3   68.88    1.06
   0  10  -3   70.54    1.36
   0  10  -3   66.87    1.08
   0 -10  -3   70.68    1.37
   0  10   3   67.78    1.38
   0  10  -3   69.04    1.19
   0 -10  -4   39.29    1.08
   0  10   4   38.99    1.04
   0  10  -4   37.99    0.94
   0  10  -4   37.87    1.04
   0  10   4   37.77    0.88
   0  10  -5    0.11    0.09
   0  10   5    0.25    0.11
   0 -10  -5    0.04    0.08
   0 -10  -5    0.13    0.10
   0  10   5    0.29    0.12
   0  10  -5    0.21    0.11
   0  10   6    0.07    0.09
   0 -10  -6    0.15    0.12
   0  10  -6   -0.12    0.20
   0 -10  -6   -0.02    0.08
   0  10  -6    0.11    0.08
   0  10   6    0.01    0.08
   0  10   7   10.51    0.54
   0  10  -7   10.50    0.56
   0 -10  -7   10.87    0.47
   0 -10  -7   10.33    0.55
   0  10  -8    3.42    0.30
   0 -10  -8    3.15    0.24
   0  10   8    3.69    0.31
   0 -10  -8    3.45    0.29
   0 -10  -9    1.88    0.18
   0  10  -9    1.61    0.17
   0  10   9    1.88    0.20
   0  10   9    1.77    0.17
   0  11   0    0.04    0.08
   0  11   0    0.09    0.09
   0  11   0    0.05    0.07
   0  11   1   12.63    0.60
   0  11  -1   12.38    0.56
   0 -11  -1   12.93    0.49
   0  11  -1   12.69    0.52
   0  11   1   12.19    0.51
   0  11  -1   12.43    0.58
   0  11   1   12.55    0.57
   0  11   2   10.08    0.47
   0  11   2   10.74    0.53
   0  11  -2   10.23    0.54
   0  11   2   10.39    0.56
   0 -11  -2   10.47    0.50
   0  11  -2    9.90    0.47
   0  11  -2   10.15    0.46
   0  11   3    3.33    0.23
   0  11  -3    3.08    0.27
   0  11  -3    3.30    0.33
   0  11   3    3.12    0.32
   0  11  -3    3.03    0.25
   0 -11  -3    3.18    0.31
   0  11   3    3.12    0.27
   0  11   4   20.86    0.66
   0  11   4   20.96    0.80
   0  11  -4   19.76    0.79
   0  11  -4   20.37    0.71
   0  11   4   20.10    0.69
   0 -11  -4   21.16    0.80
   0  11   5    0.53    0.14
   0  11  -5    0.75    0.18
   0  11   5    0.57    0.14
   0  11   5    0.54    0.13
   0 -11  -5    0.49    0.15
   0  11  -5    0.75    0.16
   0  11   6    1.68    0.21
   0  11  -6    1.51    0.23
   0  11   6    1.51    0.20
   0  11  -6    2.37    0.32
   0 -11  -6    1.67    0.24
   0  11   6    1.55    0.21
   0  11   7    5.96    0.38
   0 -11  -7    6.56    0.42
   0  11   7    5.99    0.37
   0  11  -7    5.71    0.40
   0  11  -8    0.66    0.13
   0 -11  -8    0.74    0.13
   0  11   8    0.76    0.12
   0  11   8    0.72    0.14
   0  11   9    2.09    0.18
   0  11  -9    1.79    0.15
   0  12   0   65.90    1.19
   0  12   0   66.32    1.38
   0  12   1    6.03    0.42
   0  12  -1    5.50    0.35
   0  12  -1    5.63    0.41
   0  12   1    5.63    0.36
   0 -12  -1    6.28    0.34
   0  12  -1    5.79    0.40
   0  12   1    6.03    0.44
   0  12  -2    2.79    0.26
   0  12   2    3.29    0.32
   0  12  -2    2.79    0.30
   0 -12  -2    2.92    0.27
   0  12  -2    3.02    0.28
   0  12   2    2.83    0.31
   0  12   2    2.55    0.25
   0  12  -3    2.07    0.23
   0  12  -3    2.18    0.28
   0  12  -3    2.24    0.22
   0  12   3    2.34    0.29
   0  12   3    1.86    0.22
   0 -12  -3    2.45    0.27
   0  12  -4   52.26    1.12
   0  12   4   50.15    0.97
   0  12   4   52.19    1.25
   0 -12  -4   51.90    1.22
   0  12   4   48.89    1.06
   0  12  -4   52.93    1.31
   0  12   5    1.85    0.21
   0  12   5    2.12    0.22
   0 -12  -5    2.18    0.26
   0  12  -5    2.03    0.27
   0  12   5    1.95    0.24
   0  12  -5    1.73    0.22
   0 -12  -6   32.60    0.93
   0  12  -6   31.43    0.95
   0  12   6   31.01    0.80
   0  12   6   32.07    0.83
   0  12   6   31.21    0.78
   0  12  -7   31.10    0.85
   0 -12  -7   29.96    0.81
   0  12   7   29.75    0.76
   0  12   7   28.52    0.67
   0  12   8   12.67    0.44
   0 -12  -8   12.62    0.44
   0  12  -8   12.39    0.45
   0  13   0   -0.21    0.11
   0  13   0    0.11    0.10
   0  13   0    0.01    0.09
   0  13   1   19.85    0.78
   0  13  -1   19.46    0.78
   0  13   1   19.19    0.77
   0  13  -1   19.41    0.71
   0  13  -1   18.08    0.62
   0  13   1   18.83    0.63
   0  13  -2   23.16    0.71
   0  13  -2   24.78    0.75
   0  13  -2   23.08    0.86
   0 -13  -2   23.11    0.67
   0  13   2   23.91    0.71
   0  13   2   25.14    0.89
   0  13  -3   30.50    0.98
   0  13  -3   29.74    0.71
   0 -13  -3   29.55    0.83
   0  13   3   28.33    0.77
   0  13   3   31.06    0.99
   0  13  -3   29.86    0.80
   0  13   4   22.80    0.80
   0 -13   4   21.30    0.56
   0  13  -4   22.71    0.84
   0  13  -4   20.50    0.66
   0  13   4   20.36    0.64
   0 -13  -4   21.93    0.75
   0  13   5   44.01    0.83
   0  13  -5   45.34    1.14
   0  13   5   44.37    0.89
   0 -13  -5   46.42    1.06
   0  13   5   45.31    1.01
   0  13  -5   44.27    0.93
   0  13   6    0.20    0.09
   0 -13  -6    0.28    0.10
   0  13  -6    0.21    0.10
   0  13   6    0.19    0.08
   0  13   7    0.09    0.06
   0 -13  -7    0.15    0.08
   0  13  -7    0.16    0.08
   0  14   0    2.97    0.29
   0  14   0    2.88    0.23
   0  14   0    2.86    0.31
   0  14  -1    2.40    0.24
   0  14  -1    3.08    0.32
   0  14  -1    2.38    0.22
   0  14   1    3.11    0.31
   0  14   1    2.79    0.23
   0  14  -2    2.67    0.23
   0  14   2    2.85    0.30
   0  14   2    2.69    0.22
   0  14  -2    2.47    0.29
   0  14  -2    2.68    0.24
   0  14   3    0.84    0.17
   0 -14  -3    0.62    0.12
   0  14   3    0.90    0.13
   0  14  -3    0.65    0.12
   0  14  -3    0.73    0.17
   0 -14  -4   23.01    0.66
   0  14  -4   23.37    0.60
   0  14   4   24.90    0.77
   0  14  -4   24.77    0.82
   0 -14  -5   19.30    0.59
   0  14  -5   19.32    0.67
   0  14   5   18.59    0.58
   0 -14  -6    8.83    0.36
   0  14  -6    8.76    0.40
   0  15   0    0.08    0.08
   0  15   0    0.09    0.09
   0  15  -1   13.90    0.61
   0  15  -1   14.25    0.52
   0  15   1   14.91    0.59
   0  15  -2   16.89    0.66
   0  15  -2   17.13    0.49
   0  15   2   17.03    0.63
   0 -15   3    6.90    0.30
   0  15   3    7.22    0.40
   0  15  -3    7.67    0.43
   0  15  -4    1.93    0.21
   0 -15  -4    2.00    0.18
   0  15   4    2.02    0.20
   0 -15  -4    1.84    0.14
   0  15  -5    7.31    0.36
   0 -16   0    1.77    0.18
   0  16   0    1.77    0.18
   0 -16  -1   24.32    0.65
   0 -16   1   22.83    0.59
   0  16   1   23.70    0.63
   0  16   2    0.10    0.07
   0 -16   2    0.21    0.07
   0 -16  -2    0.16    0.09
   0  16  -2    0.08    0.07
   0 -16  -3    6.46    0.29
   0  16  -3    7.07    0.36
   0  16   3    6.99    0.33
   1   0 -12   10.37    0.40
   1   0 -12   11.43    0.45
  -1   0  11    0.00    0.07
   1   0 -11   -0.02    0.09
   1   0 -11    0.04    0.09
   1   0 -10   11.18    0.60
   1   0 -10   11.64    0.61
  -1   0  10   11.03    0.54
   1   0  -9    0.07    0.10
   1   0  -9    0.01    0.10
   1   0  -9   -0.04    0.09
   1   0  -8   80.06    1.47
   1   0  -8   79.49    1.50
   1   0  -8   79.07    1.54
  -1   0   8   80.76    1.08
  -1   0   7    0.04    0.07
   1   0  -7    0.03    0.07
   1   0  -7   -0.07    0.08
   1   0  -7   -0.03    0.07
   1   0  -6  216.70    1.87
   1   0  -6  220.89    2.06
   1   0  -6  217.42    2.07
   1   0  -6  212.43    1.55
   1   0  -6  215.79    1.36
  -1   0   5    0.01    0.04
   1   0  -5    0.10    0.05
   1   0  -5    0.01    0.05
  -1   0   5    0.05    0.02
  -1   0   5    0.02    0.06
   1   0  -5    0.02    0.06
   1   0  -5    0.15    0.05
   1   0  -4   25.40    0.52
   1   0  -4   26.10    0.47
  -1   0   4   26.28    0.53
  -1   0   4   24.77    0.51
   1   0  -4   24.28    0.51
  -1   0   3   -0.01    0.03
  -1   0   3    0.01    0.03
  -1   0   2   30.71    0.20
   1   0  -2   30.72    0.41
  -1   0   1    0.03    0.02
  -1   0   1    0.08    0.03
  -1   0   0  164.23    0.83
  -1   0   0  164.76    0.81
   1   0   0  163.71    0.70
  -1   0   0  164.73    0.69
  -1   0  -1    0.03    0.03
   1   0   1    0.03    0.02
  -1   0  -1    0.02    0.02
  -1   0  -2  105.01    0.81
   1   0   2  104.93    0.71
  -1   0  -2  106.68    0.84
   1   0   2  105.85    0.47
   1   0   3    0.02    0.03
   1   0   3    0.02    0.03
   1   0   3    0.05    0.02
  -1   0  -3    0.01    0.04
  -1   0  -3    0.03    0.03
  -1   0  -4   57.72    0.80
  -1   0  -4   56.22    0.43
  -1   0  -4   60.16    0.85
  -1   0  -4   56.10    0.68
   1   0   4   60.89    0.74
  -1   0  -4   59.80    0.81
   1   0   4   58.17    0.85
  -1   0  -5    0.08    0.07
  -1   0  -5    0.04    0.05
   1   0   5    0.14    0.06
  -1   0  -5    0.00    0.05
   1   0   5    0.09    0.06
  -1   0  -6    0.54    0.12
  -1   0  -6    0.31    0.10
  -1   0  -6    0.58    0.12
   1   0   7    0.09    0.09
  -1   0  -7   -0.11    0.08
  -1   0  -7   -0.01    0.08
  -1   0  -8  108.38    1.68
  -1   0  -8  104.64    1.81
  -1   0  -9    0.01    0.10
  -1   0  -9   -0.02    0.08
  -1   0 -10    0.21    0.08
  -1   0 -10    0.28    0.10
  -1   0 -10    0.29    0.13
  -1   0 -11    0.07    0.08
  -1   0 -11   -0.07    0.08
   1   0  11   -0.05    0.08
   1  -1 -12    4.76    0.29
   1   1 -12    4.69    0.26
   1  -1 -12    4.83    0.27
   1   1 -12    4.86    0.30
   1   1 -11   52.14    1.17
  -1   1  11   48.86    0.92
   1  -1 -11   49.76    1.10
  -1  -1  11   50.31    0.99
   1   1 -11   50.10    1.10
   1  -1 -11   50.79    1.15
   1  -1 -10    0.26    0.12
   1   1 -10    0.39    0.14
   1   1 -10    0.27    0.11
  -1   1  10    0.21    0.08
   1  -1 -10    0.38    0.14
  -1   1  10    0.34    0.10
   1  -1  -9    0.91    0.19
   1   1  -9    1.14    0.20
  -1   1   9    0.90    0.14
   1  -1  -9    1.11    0.21
  -1   1   9    1.27    0.20
   1  -1  -9    0.84    0.19
   1   1  -9    0.85    0.18
  -1   1   8   20.11    0.61
   1   1  -8   19.54    0.73
   1  -1  -8   19.79    0.73
   1   1  -8   21.14    0.79
   1   1  -8   19.36    0.73
   1  -1  -8   19.79    0.76
   1  -1  -8   20.58    0.79
   1   1  -7   23.99    0.77
  -1   1   7   25.80    0.63
   1  -1  -7   26.02    0.74
   1   1  -7   26.01    0.78
   1  -1  -7   26.73    0.82
   1  -1  -7   26.64    0.58
   1   1  -7   26.05    0.75
   1  -1  -7   25.45    0.81
   1  -1  -6   17.81    0.54
   1  -1  -6   19.10    0.62
   1  -1  -6   17.38    0.43
   1  -1  -6   17.74    0.47
   1   1  -6   18.23    0.60
   1  -1  -6   17.38    0.59
   1   1  -6   18.24    0.55
   1   1  -6   18.00    0.58
  -1  -1   5   44.83    0.50
   1   1  -5   46.52    0.83
   1  -1  -5   46.90    0.85
   1   1  -5   46.52    0.80
   1  -1  -5   46.16    0.82
   1  -1  -5   46.68    0.66
  -1  -1   5   45.93    0.78
   1   1  -5   45.91    0.70
   1  -1  -5   44.83    0.68
  -1   1   5   46.37    0.78
  -1   1   5   45.29    0.77
   1   1  -4    5.63    0.24
  -1   1   4    5.97    0.25
  -1   1   4    5.93    0.25
  -1  -1   4    6.24    0.19
   1  -1  -4    5.78    0.22
  -1  -1   4    5.85    0.25
  -1  -1   4    5.67    0.25
   1   1  -4    6.03    0.26
   1   1  -4    5.76    0.23
   1  -1  -4    6.25    0.26
   1  -1  -4    6.11    0.26
   1  -1  -3  107.93    0.87
   1   1  -3  104.08    0.87
  -1   1   3  105.61    0.92
  -1   1   3  107.59    0.93
  -1  -1   3  106.44    0.94
  -1  -1   3  105.33    0.93
  -1  -1   3  106.24    0.92
   1   1  -2   12.97    0.27
  -1   1   2   13.87    0.29
   1  -1  -2   13.94    0.17
  -1   1   2   13.92    0.16
   1  -1  -2   13.71    0.29
  -1  -1   2   13.68    0.29
  -1   1   2   13.23    0.28
   1  -1  -1   18.59    0.30
   1   1  -1   18.52    0.30
  -1  -1   1   18.23    0.29
  -1  -1   1   17.67    0.28
  -1   1   1   18.31    0.24
   1   1  -1   17.59    0.27
  -1   1   1   17.93    0.29
   1  -1  -1   18.49    0.24
  -1   1   0    4.23    0.14
   1  -1   0    4.23    0.14
  -1  -1   0    4.23    0.09
  -1   1   0    4.44    0.13
  -1  -1   0    4.19    0.13
   1  -1   0    4.43    0.14
   1   1   0    4.14    0.10
   1  -1   0    4.42    0.14
  -1   1   0    4.25    0.14
   1   1   0    4.31    0.14
   1  -1   1   79.76    0.65
  -1   1  -1   82.55    0.64
   1   1   1   79.05    0.38
  -1   1  -1   82.57    0.60
  -1  -1  -1   82.07    0.65
  -1  -1  -1   82.85    0.38
   1  -1   1   81.36    0.63
  -1   1  -2  980.10    2.51
  -1  -1  -2  972.93    2.52
   1  -1   2  954.26    2.48
   1  -1   2  951.33    2.44
  -1   1  -2  967.94    2.36
   1   1   2  955.00    1.82
  -1   1  -2 1000.00    2.57
  -1  -1  -2  992.33    2.58
  -1  -1  -3    6.54    0.22
   1   1   3    6.87    0.20
  -1   1  -3    6.38    0.18
   1  -1   3    7.17    0.19
  -1   1  -3    6.51    0.22
   1  -1   3    6.29    0.26
   1   1   3    6.36    0.25
  -1  -1  -3    6.74    0.24
  -1   1  -3    6.37    0.24
  -1   1  -3    6.32    0.23
   1  -1   3    6.99    0.24
  -1   1  -4  276.95    1.18
  -1   1  -4  275.82    1.82
  -1   1  -4  281.45    1.76
  -1  -1  -4  282.80    1.78
   1   1   4  280.09    1.47
  -1  -1  -4  284.86    1.53
  -1  -1  -4  281.59    1.82
   1   1   4  278.22    1.86
   1  -1   4  285.22    1.72
   1  -1   4  290.65    1.25
   1  -1   4  274.29    1.88
  -1  -1  -4  277.05    1.84
  -1   1  -4  277.67    1.63
  -1   1  -4  280.38    1.53
   1  -1   5   74.79    0.66
   1  -1   5   72.63    0.96
   1   1   5   75.40    1.08
  -1   1  -5   72.67    0.80
   1  -1   5   74.25    1.08
  -1  -1  -5   75.32    1.12
  -1   1  -5   74.41    1.01
  -1   1  -5   74.56    1.10
  -1  -1  -5   73.62    0.79
  -1  -1  -5   76.42    1.10
   1   1   5   74.87    0.86
  -1  -1  -6   36.37    0.86
   1   1   6   35.82    0.70
  -1   1  -6   36.42    0.87
  -1   1  -6   36.43    0.80
  -1   1  -6   36.38    0.85
  -1  -1  -6   37.05    0.89
  -1  -1  -6   35.87    0.86
  -1  -1  -7   20.54    0.72
  -1  -1  -7   21.79    0.75
   1   1   7   20.11    0.61
  -1   1  -7   21.39    0.75
  -1   1  -7   21.30    0.67
   1   1   8   46.10    0.96
  -1  -1  -8   47.39    1.15
  -1   1  -8   48.46    1.23
  -1  -1  -8   48.83    1.23
  -1   1  -8   48.57    1.07
  -1   1  -9    8.53    0.45
  -1   1  -9    8.50    0.54
   1   1   9    8.76    0.40
  -1  -1  -9    9.05    0.51
  -1  -1  -9    8.57    0.55
  -1   1 -10    2.08    0.25
  -1   1 -10    1.96    0.20
  -1  -1 -10    2.13    0.27
  -1  -1 -10    1.95    0.22
  -1   1 -10    2.14    0.27
  -1  -1 -10    2.17    0.25
  -1   1 -11   43.01    0.80
   1   1  11   44.28    0.96
   1  -1  11   45.46    0.98
  -1  -1 -11   42.50    0.77
  -1  -1 -11   43.08    0.89
  -1   1 -11   43.06    0.89
   1  -2 -12    4.80    0.28
   1   2 -12    4.35    0.27
  -1   2  11    9.84    0.38
   1  -2 -11    9.75    0.48
   1   2 -11   10.50    0.52
   1  -2 -11    9.92    0.50
  -1  -2  11    9.95    0.45
   1   2 -11   10.30    0.48
   1  -2 -10   13.25    0.64
  -1   2  10   12.16    0.48
   1   2 -10   12.67    0.62
   1   2 -10   12.92    0.62
   1  -2 -10   13.11    0.63
   1  -2 -10   13.08    0.63
  -1   2  10   13.18    0.55
  -1   2   9    8.33    0.47
  -1   2   9    9.24    0.45
   1   2  -9    7.98    0.51
   1  -2  -9    8.54    0.52
   1  -2  -9    8.13    0.52
   1  -2  -9    9.00    0.55
   1   2  -9    8.41    0.51
  -1   2   8   19.31    0.64
   1   2  -8   18.19    0.71
   1  -2  -8   20.39    0.56
  -1   2   8   20.06    0.72
   1   2  -8   18.80    0.75
   1  -2  -8   19.04    0.76
   1  -2  -8   18.77    0.71
   1  -2  -8   19.53    0.77
   1  -2  -7    0.48    0.10
   1  -2  -7    0.33    0.10
   1  -2  -7    0.42    0.12
   1  -2  -7    0.34    0.11
   1   2  -7    0.43    0.11
   1   2  -7    0.72    0.15
  -1   2   7    0.40    0.11
   1   2  -7    0.39    0.11
   1   2  -6    0.29    0.08
   1   2  -6    0.29    0.10
   1  -2  -6    0.37    0.11
   1  -2  -6    0.35    0.09
   1   2  -6    0.74    0.12
   1  -2  -6    0.33    0.08
   1  -2  -6    0.38    0.08
  -1   2   6    0.39    0.09
   1  -2  -6    0.57    0.12
  -1  -2   5  146.91    1.36
   1  -2  -5  145.28    1.49
  -1  -2   5  151.38    1.41
   1  -2  -5  144.19    1.50
   1   2  -5  147.96    1.43
   1  -2  -5  147.70    1.34
  -1   2   5  152.82    1.40
   1   2  -5  149.95    1.47
  -1   2   5  147.73    1.39
  -1  -2   5  145.96    1.02
   1  -2  -5  152.50    1.19
  -1  -2   4   72.18    0.87
  -1  -2   4   71.20    0.87
  -1  -2   4   71.87    0.72
  -1   2   4   71.94    0.87
   1   2  -4   69.97    0.83
   1  -2  -4   72.91    0.85
  -1   2   4   72.77    0.87
   1  -2  -4   75.44    0.79
   1   2  -4   70.35    0.86
   1   2  -4   73.88    0.89
  -1  -2   4   71.58    0.34
  -1  -2   4   69.71    0.85
   1  -2  -4   72.14    0.91
   1  -2  -4   71.74    0.90
  -1  -2   3   92.79    0.54
  -1   2   3   93.45    0.87
   1   2  -3   93.47    0.88
  -1  -2   3   90.21    0.86
  -1  -2   3   92.55    0.86
  -1  -2   3   89.00    0.88
  -1   2   3   93.46    0.86
   1  -2  -3   94.54    0.48
  -1   2   2   86.32    0.55
  -1  -2   2   84.43    0.72
  -1   2   2   86.05    0.73
   1  -2  -2   87.00    0.55
  -1  -2   2   86.10    0.72
   1   2  -2   86.75    0.75
  -1   2   2   87.10    0.71
  -1   2   2   87.94    0.72
  -1  -2   1  571.52    1.63
  -1   2   1  566.37    1.60
   1  -2  -1  591.59    1.66
   1  -2  -1  564.52    1.56
  -1   2   1  564.02    1.57
  -1  -2   1  541.62    1.67
  -1   2   1  558.49    1.73
   1   2  -1  543.95    1.65
   1   2  -1  584.41    1.66
  -1  -2   0   95.24    0.64
   1   2   0   94.37    0.64
  -1  -2   0   96.32    0.56
  -1   2   0   97.18    0.64
   1  -2   0   96.97    0.65
  -1   2   0   96.34    0.70
   1  -2   0   95.23    0.70
  -1  -2  -1  511.51    1.61
   1  -2   1  510.75    1.75
  -1   2  -1  516.36    1.69
  -1   2  -1  515.97    1.59
   1   2   1  516.42    1.68
   1  -2   1  496.90    1.69
  -1   2  -1  520.25    1.71
  -1  -2  -1  489.33    0.82
   1  -2   2   12.91    0.32
   1   2   2   12.84    0.16
   1  -2   2   13.42    0.31
  -1  -2  -2   13.30    0.30
  -1   2  -2   13.91    0.31
  -1   2  -2   13.24    0.29
  -1   2  -2   12.75    0.30
   1  -2   3    0.23    0.05
  -1   2  -3    0.03    0.03
   1  -2   3    0.10    0.05
   1  -2   3    0.15    0.05
  -1   2  -3    0.12    0.04
  -1   2  -3    0.16    0.05
  -1  -2  -3    0.17    0.05
  -1  -2  -3    0.07    0.04
   1   2   3    0.12    0.05
   1   2   3    0.09    0.03
  -1   2  -3    0.07    0.03
  -1   2  -4    0.77    0.08
  -1   2  -4    0.69    0.10
   1  -2   4    0.98    0.11
   1  -2   4    0.59    0.10
  -1  -2  -4    0.85    0.11
  -1  -2  -4    0.76    0.11
  -1   2  -4    0.72    0.08
   1   2   4    0.85    0.11
   1  -2   4    0.70    0.08
   1   2   4    0.65    0.07
  -1  -2  -4    0.66    0.10
  -1   2  -4    0.79    0.09
  -1  -2  -4    1.03    0.10
  -1   2  -4    0.65    0.09
   1  -2   5  137.35    1.39
   1  -2   5  145.32    1.01
  -1  -2  -5  138.15    1.08
  -1   2  -5  138.70    1.12
  -1  -2  -5  141.99    1.54
   1   2   5  138.66    1.08
  -1  -2  -5  140.60    1.58
  -1   2  -5  141.06    1.31
   1   2   5  142.69    1.48
  -1   2  -5  141.00    1.50
   1  -2   5  140.75    1.50
  -1  -2  -6   19.42    0.64
  -1   2  -6   18.90    0.63
  -1   2  -6   20.12    0.64
  -1   2  -6   18.67    0.55
  -1  -2  -6   18.92    0.62
  -1  -2  -6   19.18    0.51
  -1  -2  -6   19.82    0.67
   1   2   6   18.91    0.57
   1   2   7   13.41    0.53
  -1   2  -7   13.61    0.52
  -1   2  -7   13.54    0.59
  -1  -2  -7   13.72    0.60
  -1  -2  -7   13.87    0.61
  -1  -2  -8    0.92    0.18
  -1   2  -8    1.08    0.20
  -1   2  -8    1.12    0.17
   1   2   8    1.40    0.20
  -1  -2  -8    0.72    0.16
   1   2   9    4.35    0.31
  -1   2  -9    4.70    0.31
  -1  -2  -9    4.67    0.38
  -1   2  -9    4.66    0.39
  -1  -2  -9    4.67    0.39
  -1  -2  -9    4.94    0.41
  -1   2  -9    4.40    0.39
  -1   2 -10   15.36    0.63
  -1   2 -10   16.24    0.70
  -1  -2 -10   15.45    0.61
   1   2  10   14.94    0.48
  -1  -2 -10   14.85    0.63
  -1  -2 -10   15.92    0.69
   1  -2  11    1.21    0.17
  -1   2 -11    1.04    0.13
  -1  -2 -11    1.22    0.15
  -1  -2 -11    1.14    0.16
   1   2  11    1.12    0.16
  -1   2 -11    1.06    0.15
   1   3 -11    5.07    0.35
  -1   3  11    5.34    0.28
   1   3 -11    4.42    0.30
  -1  -3  11    5.01    0.33
   1  -3 -11    4.68    0.33
   1  -3 -11    4.30    0.30
  -1   3  10    1.89    0.21
   1   3 -10    1.96    0.25
   1  -3 -10    1.86    0.25
  -1   3  10    1.74    0.21
   1  -3 -10    1.91    0.24
   1   3 -10    2.29    0.27
   1  -3 -10    1.74    0.23
   1   3  -9   -0.03    0.11
   1  -3  -9    0.11    0.12
  -1   3   9    0.00    0.09
  -1   3   9    0.08    0.09
   1  -3  -9    0.07    0.11
   1   3  -9    0.05    0.08
   1  -3  -9   -0.02    0.10
   1   3  -8   82.55    1.46
   1  -3  -8   83.72    1.57
   1  -3  -8   80.99    1.46
   1   3  -8   81.08    1.13
  -1   3   8   79.83    1.35
  -1   3   8   82.23    1.42
   1  -3  -8   81.85    1.58
   1   3  -8   82.28    1.53
   1  -3  -8   79.61    1.23
   1   3  -7   48.18    0.81
   1  -3  -7   51.26    1.04
  -1   3   7   52.95    1.02
  -1   3   7   51.33    1.06
   1   3  -7   49.62    1.10
   1  -3  -7   49.91    0.97
   1  -3  -7   51.59    1.14
   1  -3  -7   48.61    1.14
   1   3  -7   49.54    1.02
   1   3  -6    8.50    0.41
   1   3  -6    9.37    0.44
   1  -3  -6    9.11    0.39
   1  -3  -6    8.72    0.43
   1  -3  -6    7.91    0.27
   1  -3  -6    8.80    0.44
   1   3  -6    8.84    0.38
  -1   3   6    8.74    0.40
   1  -3  -6    8.31    0.37
  -1   3   6    9.31    0.39
  -1  -3   5    7.32    0.25
   1  -3  -5    7.69    0.27
  -1   3   5    7.06    0.32
  -1  -3   5    7.20    0.32
  -1   3   5    7.33    0.29
   1  -3  -5    7.37    0.33
  -1  -3   5    7.05    0.30
  -1   3   5    7.57    0.32
  -1   3   5    7.72    0.31
   1  -3  -5    7.33    0.35
   1  -3  -5    7.48    0.34
  -1  -3   5    7.02    0.32
   1   3  -5    7.19    0.33
   1   3  -4  132.20    1.18
  -1  -3   4  127.61    1.16
   1  -3  -4  133.03    1.27
  -1  -3   4  128.85    0.73
  -1   3   4  130.17    1.16
   1  -3  -4  128.57    0.64
  -1   3   4  128.25    1.19
  -1  -3   4  128.76    1.17
   1  -3  -4  131.70    1.07
  -1   3   4  130.98    1.16
   1  -3  -4  131.00    1.23
   1  -3  -4  130.13    1.22
  -1   3   4  129.78    1.13
  -1   3   4  131.08    0.62
  -1  -3   4  133.65    1.23
  -1  -3   4  132.31    1.07
  -1  -3   3    1.45    0.11
  -1   3   3    1.59    0.12
  -1   3   3    1.59    0.12
  -1  -3   3    1.46    0.11
  -1  -3   3    1.52    0.09
  -1   3   3    1.59    0.09
  -1  -3   3    1.53    0.12
   1  -3  -3    1.48    0.12
   1  -3  -3    1.53    0.08
  -1   3   3    1.52    0.12
  -1  -3   3    1.78    0.13
  -1   3   3    1.60    0.11
   1  -3  -2   36.98    0.43
  -1  -3   2   38.31    0.48
  -1   3   2   37.14    0.51
  -1  -3   2   37.48    0.45
  -1  -3   2   37.03    0.47
  -1  -3   2   36.41    0.53
  -1   3   2   38.07    0.47
  -1   3   2   37.30    0.44
  -1   3   2   37.32    0.47
  -1  -3   1    5.64    0.19
  -1  -3   1    6.09    0.17
  -1  -3   1    5.80    0.16
   1  -3  -1    6.07    0.17
   1  -3  -1    5.88    0.20
   1  -3  -1    6.00    0.19
  -1   3   1    5.73    0.18
  -1   3   1    5.92    0.19
  -1   3   1    5.75    0.18
  -1   3   1    5.90    0.16
   1   3  -1    5.89    0.17
   1  -3   0  861.90    2.35
  -1   3   0  850.17    2.32
   1  -3   0  860.77    1.92
  -1  -3   0  853.84    1.99
   1   3   0  861.93    1.90
  -1   3   0  870.54    2.33
  -1  -3  -1  209.18    0.78
   1  -3   1  207.29    1.07
  -1   3  -1  210.44    1.20
  -1   3  -1  205.74    1.20
  -1  -3  -1  209.40    1.03
  -1   3  -1  207.77    1.00
   1   3   1  208.75    1.06
   1  -3   1  207.76    1.22
   1  -3   2   46.63    0.61
   1  -3   2   45.98    0.66
  -1  -3  -2   46.47    0.55
  -1   3  -2   45.06    0.60
  -1   3  -2   46.70    0.59
  -1   3  -2   45.86    0.62
  -1   3  -2   47.00    0.54
  -1   3  -3    3.20    0.16
  -1  -3  -3    3.24    0.17
   1   3   3    3.30    0.18
   1  -3   3    3.09    0.19
   1  -3   3    3.27    0.19
   1  -3   3    3.35    0.18
  -1   3  -3    3.24    0.17
   1   3   3    3.17    0.10
  -1  -3  -3    3.22    0.11
  -1   3  -3    3.19    0.17
  -1  -3  -3    3.15    0.17
  -1   3  -3    2.98    0.17
  -1  -3  -4   24.11    0.52
  -1   3  -4   23.12    0.44
  -1   3  -4   23.89    0.54
   1  -3   4   24.42    0.48
   1   3   4   22.96    0.35
   1   3   4   22.87    0.53
  -1  -3  -4   23.53    0.55
  -1  -3  -4   23.11    0.47
   1  -3   4   23.06    0.55
   1  -3   4   24.04    0.57
   1   3   4   22.71    0.46
  -1  -3  -4   23.70    0.58
  -1   3  -4   22.47    0.49
  -1   3  -4   23.24    0.50
   1  -3   4   22.93    0.47
  -1   3  -5   16.09    0.51
   1   3   5   15.27    0.48
  -1  -3  -5   15.01    0.36
  -1  -3  -5   15.69    0.55
  -1   3  -5   15.96    0.39
  -1   3  -5   15.44    0.40
   1   3   5   15.65    0.38
   1  -3   5   15.04    0.48
   1   3   5   16.07    0.32
   1  -3   5   15.50    0.36
  -1  -3  -5   16.52    0.53
   1  -3   5   15.54    0.50
  -1  -3  -6   32.90    0.83
  -1  -3  -6   32.88    0.88
  -1   3  -6   32.64    0.81
  -1   3  -6   33.53    0.82
  -1  -3  -6   32.63    0.82
  -1   3  -6   32.06    0.67
   1   3   6   32.32    0.79
  -1  -3  -7   11.45    0.57
  -1  -3  -7   10.59    0.43
  -1   3  -7   10.79    0.53
  -1   3  -7   10.65    0.42
   1   3   7   11.52    0.52
  -1  -3  -7   10.88    0.53
   1   3   8   46.61    1.09
  -1  -3  -8   55.91    1.32
  -1   3  -8   52.54    0.98
  -1  -3  -8   48.25    1.21
  -1   3  -8   54.73    1.28
   1   3   9    2.19    0.24
  -1  -3  -9    2.31    0.28
  -1  -3  -9    2.12    0.27
  -1  -3  -9    2.33    0.27
  -1   3  -9    1.74    0.25
  -1   3  -9    2.16    0.26
   1  -3  10    0.03    0.07
  -1   3 -10    0.21    0.10
  -1  -3 -10    0.12    0.08
  -1   3 -10    0.22    0.10
  -1   3 -10    0.07    0.08
  -1  -3 -10    0.20    0.09
  -1  -3 -10    0.15    0.09
   1   3  10    0.28    0.11
   1   3  10    0.17    0.09
   1  -3  11    0.84    0.14
   1   3  11    0.80    0.13
  -1   3 -11    0.91    0.14
  -1   3 -11    0.78    0.11
  -1  -3 -11    0.80    0.13
  -1  -3 -11    0.58    0.11
  -1   4  11   -0.01    0.06
   1  -4 -11   -0.17    0.09
   1   4 -11   -0.06    0.07
   1   4 -11    0.02    0.08
   1  -4 -11    0.14    0.10
   1  -4 -10    0.26    0.11
  -1   4  10    0.60    0.12
   1   4 -10    0.31    0.11
   1  -4 -10    0.40    0.14
   1  -4 -10    0.33    0.12
  -1   4  10    0.53    0.13
   1   4 -10    0.22    0.08
  -1   4   9    5.29    0.36
   1  -4  -9    5.16    0.31
  -1   4   9    5.37    0.38
   1   4  -9    4.95    0.38
   1  -4  -9    5.14    0.41
   1   4  -9    5.38    0.39
   1  -4  -9    5.28    0.40
   1  -4  -9    5.85    0.41
  -1   4   8    1.43    0.21
   1   4  -8    1.36    0.21
   1  -4  -8    1.61    0.22
   1  -4  -8    1.55    0.20
   1   4  -8    1.43    0.20
  -1   4   8    1.50    0.20
   1  -4  -8    1.70    0.24
   1  -4  -8    1.56    0.22
   1   4  -8    1.52    0.18
   1   4  -7   66.64    1.04
  -1   4   7   67.74    1.20
   1  -4  -7   67.06    1.18
   1  -4  -7   68.07    1.20
   1  -4  -7   70.08    1.38
   1   4  -7   67.97    1.18
   1   4  -7   67.37    1.26
   1  -4  -7   66.90    1.29
  -1   4   7   68.02    1.21
  -1   4   6    9.22    0.41
   1   4  -6    9.05    0.34
   1  -4  -6    9.70    0.44
   1  -4  -6    9.53    0.44
  -1   4   6    9.41    0.41
   1   4  -6    9.43    0.42
   1  -4  -6    9.04    0.45
   1   4  -6    9.24    0.44
   1   4  -6    9.18    0.38
   1  -4  -6    9.25    0.39
  -1   4   5   30.28    0.61
  -1  -4   5   28.65    0.65
   1  -4  -5   29.36    0.70
   1   4  -5   29.96    0.65
   1  -4  -5   30.29    0.55
  -1  -4   5   27.38    0.51
  -1  -4   5   29.59    0.62
  -1   4   5   30.35    0.67
   1  -4  -5   28.92    0.67
   1  -4  -5   31.11    0.73
  -1  -4   4   17.73    0.47
  -1   4   4   16.62    0.44
  -1  -4   4   15.79    0.44
  -1   4   4   17.78    0.43
  -1  -4   4   16.65    0.42
  -1  -4   4   16.29    0.41
  -1  -4   4   16.16    0.32
  -1  -4   4   16.63    0.42
   1  -4  -4   16.42    0.43
   1  -4  -4   16.87    0.47
  -1   4   4   16.63    0.25
  -1   4   4   16.92    0.41
   1   4  -4   17.02    0.42
  -1   4   4   16.13    0.41
   1  -4  -4   16.98    0.31
   1  -4  -4   17.52    0.49
  -1   4   4   16.10    0.35
  -1   4   3    9.44    0.29
  -1   4   3    9.78    0.23
  -1  -4   3    9.25    0.31
  -1   4   3    9.39    0.27
  -1   4   3    9.62    0.31
  -1  -4   3    9.73    0.28
   1  -4  -3    9.89    0.25
  -1  -4   3    9.82    0.31
  -1  -4   3    9.95    0.26
  -1  -4   3    9.51    0.28
   1  -4  -3    9.44    0.32
  -1  -4   3    8.91    0.30
  -1   4   3   10.02    0.28
  -1  -4   2    1.72    0.10
  -1  -4   2    1.77    0.12
  -1   4   2    1.74    0.10
  -1  -4   2    1.74    0.12
   1  -4  -2    1.77    0.13
   1  -4  -2    1.72    0.11
  -1   4   2    1.80    0.12
  -1  -4   2    1.80    0.13
  -1   4   2    1.85    0.11
  -1  -4   2    1.79    0.11
  -1   4   2    1.79    0.10
  -1  -4   2    1.70    0.13
  -1   4   1  103.40    0.87
  -1   4   1  105.88    0.65
   1   4  -1  103.99    0.67
   1  -4  -1  106.66    0.68
  -1   4   1  102.02    0.84
  -1  -4   1  105.74    0.75
  -1   4   1  102.85    0.87
  -1  -4   1  103.63    0.66
   1  -4  -1  107.63    0.90
  -1  -4   1  101.51    0.88
   1  -4  -1  106.34    0.93
  -1   4   0   15.66    0.34
  -1  -4   0   15.44    0.31
   1  -4   0   16.13    0.37
   1  -4   0   15.45    0.35
  -1   4   0   15.39    0.34
  -1   4   0   14.92    0.35
   1  -4   0   16.11    0.26
  -1  -4   0   16.10    0.21
   1   4   0   15.86    0.25
  -1   4  -1  529.68    1.56
  -1   4  -1  523.15    2.05
   1  -4   1  526.19    2.13
   1   4   1  533.30    1.65
   1  -4   1  531.97    2.25
  -1   4  -1  537.31    2.10
  -1  -4  -1  535.15    1.55
  -1   4  -1  537.96    2.17
  -1  -4  -1  528.89    1.59
   1  -4   1  529.21    1.68
  -1   4  -2   18.72    0.41
  -1  -4  -2   18.19    0.34
   1  -4   2   18.01    0.41
   1   4   2   18.58    0.41
  -1   4  -2   19.08    0.34
  -1  -4  -2   18.94    0.35
   1  -4   2   18.61    0.46
  -1   4  -2   17.94    0.41
  -1   4  -2   17.98    0.42
  -1   4  -2   18.47    0.41
  -1   4  -3    9.59    0.30
  -1   4  -3    9.58    0.28
  -1   4  -3    9.45    0.28
   1   4   3    9.47    0.32
  -1   4  -3    9.19    0.31
  -1  -4  -3    9.99    0.30
   1  -4   3    9.33    0.35
   1  -4   3    9.25    0.30
  -1  -4  -3    8.92    0.27
   1   4   3    8.69    0.11
   1   4   3    8.38    0.12
  -1  -4  -3    9.77    0.21
   1   4   4    6.51    0.15
  -1   4  -4    6.39    0.27
   1  -4   4    6.39    0.32
   1   4   4    6.39    0.15
   1  -4   4    6.60    0.28
   1   4   4    6.60    0.28
   1  -4   4    6.36    0.27
  -1   4  -4    6.18    0.28
  -1  -4  -4    6.81    0.33
  -1   4  -4    6.34    0.26
  -1   4  -4    6.50    0.26
  -1  -4  -4    6.71    0.27
  -1  -4  -4    6.93    0.30
   1   4   5   58.21    0.83
  -1  -4  -5   60.46    1.11
   1  -4   5   59.43    0.77
   1   4   5   58.98    1.01
  -1  -4  -5   58.00    0.99
  -1   4  -5   57.75    0.96
  -1   4  -6    0.23    0.09
   1   4   6    0.35    0.11
  -1   4  -6    0.26    0.11
  -1  -4  -6    0.40    0.11
  -1  -4  -6    0.33    0.11
  -1  -4  -6    0.29    0.09
  -1  -4  -7    4.51    0.31
  -1  -4  -7    3.95    0.35
  -1  -4  -7    4.67    0.35
   1   4   7    4.24    0.34
  -1   4  -7    4.53    0.34
  -1   4  -8   10.65    0.56
  -1  -4  -8    9.81    0.43
  -1  -4  -8   10.58    0.56
  -1  -4  -8   10.22    0.58
   1   4   8   10.55    0.55
  -1  -4  -9   34.58    1.03
   1   4   9   35.44    0.96
  -1  -4  -9   34.39    1.00
  -1   4  -9   33.59    0.93
  -1  -4  -9   34.04    0.95
  -1   4  -9   33.23    0.99
  -1   4 -10    3.27    0.28
  -1  -4 -10    3.42    0.30
   1  -4  10    3.24    0.28
   1   4  10    3.74    0.29
  -1   4 -10    3.36    0.30
  -1   4 -10    3.13    0.26
  -1  -4 -10    3.41    0.27
  -1  -4 -10    3.33    0.29
   1   4  10    3.24    0.26
   1  -4  11    0.86    0.12
  -1  -4 -11    1.10    0.14
   1   4  11    1.19    0.14
  -1   4 -11    0.98    0.12
   1  -5 -11   52.65    0.90
   1  -5 -11   50.47    0.76
   1   5 -11   50.21    0.77
  -1   5  11   51.44    0.91
   1   5 -11   51.57    0.90
   1   5 -10    0.15    0.08
  -1   5  10    0.18    0.10
   1   5 -10    0.24    0.11
   1  -5 -10    0.13    0.08
   1  -5 -10    0.25    0.10
   1  -5 -10    0.12    0.08
   1   5  -9    1.12    0.18
   1  -5  -9    1.29    0.19
   1  -5  -9    0.77    0.13
   1   5  -9    1.03    0.17
   1  -5  -9    1.32    0.22
  -1   5   9    1.19    0.20
  -1   5   9    0.91    0.14
   1  -5  -9    1.10    0.18
   1   5  -9    1.38    0.17
  -1   5   8   42.57    0.97
   1  -5  -8   44.70    1.05
   1   5  -8   46.23    1.04
   1  -5  -8   43.96    1.16
   1   5  -8   42.41    0.93
  -1   5   8   39.89    1.04
   1   5  -8   43.77    1.05
   1  -5  -8   44.08    1.02
   1  -5  -8   45.85    1.09
   1  -5  -7   38.78    0.89
  -1   5   7   38.50    0.90
   1   5  -7   38.85    0.93
   1   5  -7   40.36    1.08
   1   5  -7   40.50    0.90
   1   5  -7   37.53    0.85
   1  -5  -7   39.70    1.05
   1  -5  -7   37.59    0.94
  -1   5   7   37.94    0.95
   1  -5  -7   39.27    0.98
   1   5  -6   59.40    1.15
   1  -5  -6   54.29    0.88
   1   5  -6   54.99    0.94
   1  -5  -6   57.36    1.13
  -1   5   6   57.99    1.03
   1  -5  -6   58.19    1.16
  -1   5   6   56.78    1.05
   1   5  -6   57.43    1.02
   1   5  -6   57.08    0.93
   1  -5  -6   58.35    1.06
   1   5  -5   73.60    1.01
   1  -5  -5   72.59    1.18
   1  -5  -5   74.69    1.17
  -1   5   5   70.35    1.04
   1  -5  -5   71.39    1.04
   1  -5  -5   70.91    0.84
  -1   5   5   72.78    1.06
  -1   5   5   72.29    0.89
   1   5  -5   72.45    1.15
  -1   5   5   70.69    0.83
  -1  -5   5   70.94    0.89
  -1   5   4   50.70    0.49
  -1   5   4   50.47    0.80
  -1   5   4   51.25    0.70
  -1   5   4   50.87    0.72
   1   5  -4   49.59    0.69
   1  -5  -4   50.82    0.83
   1  -5  -4   50.73    0.91
  -1  -5   4   52.03    0.78
  -1   5   4   48.58    0.74
   1  -5  -4   51.33    0.62
  -1   5   4   49.70    0.69
  -1  -5   4   48.98    0.81
  -1  -5   4   49.85    0.63
   1  -5  -4   50.23    0.71
  -1  -5   4   49.50    0.69
  -1  -5   4   50.22    0.72
  -1  -5   3   10.43    0.29
  -1   5   3   10.20    0.31
   1  -5  -3   10.45    0.38
   1  -5  -3   10.58    0.30
  -1   5   3   10.25    0.26
  -1   5   3   10.86    0.35
  -1  -5   3   10.73    0.31
   1  -5  -3   10.39    0.30
  -1  -5   3   10.85    0.36
  -1  -5   3   10.43    0.28
  -1   5   3   10.30    0.34
  -1   5   3   10.34    0.27
  -1  -5   3    9.93    0.33
  -1   5   3   10.66    0.28
  -1  -5   3   10.53    0.35
   1  -5  -2    5.37    0.24
  -1  -5   2    5.29    0.24
  -1   5   2    5.14    0.24
   1  -5  -2    5.67    0.22
  -1  -5   2    5.41    0.22
  -1  -5   2    5.17    0.17
  -1   5   2    5.50    0.22
  -1  -5   2    5.09    0.24
  -1   5   2    5.26    0.16
  -1   5   2    5.27    0.20
  -1   5   2    5.16    0.23
  -1  -5   2    5.47    0.22
  -1  -5   2    5.48    0.17
  -1   5   2    5.49    0.17
  -1  -5   1    4.41    0.17
   1  -5  -1    4.30    0.20
  -1   5   1    4.35    0.19
   1  -5  -1    4.32    0.21
  -1  -5   1    4.48    0.20
  -1  -5   1    4.79    0.13
  -1   5   1    4.23    0.20
  -1   5   1    4.39    0.19
  -1   5   1    4.22    0.12
  -1  -5   1    4.40    0.13
  -1  -5   1    4.39    0.20
  -1   5   1    4.48    0.13
  -1   5   1    4.16    0.21
  -1  -5   1    4.62    0.22
  -1   5   1    4.56    0.20
  -1   5   0   79.92    0.84
   1   5   0   79.75    0.52
  -1   5   0   80.29    0.87
   1  -5   0   79.39    0.51
  -1   5   0   80.08    0.82
  -1  -5   0   78.49    0.77
  -1  -5   0   80.49    0.88
   1  -5   0   81.01    0.89
  -1   5   0   79.76    0.85
   1   5   0   79.08    0.82
  -1  -5   0   81.30    0.50
  -1   5   0   80.50    0.49
  -1   5   0   78.38    0.87
  -1  -5   0   80.63    0.55
   1  -5   1    0.34    0.04
  -1   5  -1    0.42    0.07
   1   5   1    0.53    0.08
  -1   5  -1    0.37    0.07
  -1  -5  -1    0.32    0.06
  -1  -5  -1    0.40    0.05
  -1   5  -1    0.43    0.07
   1  -5   1    0.28    0.07
  -1   5  -1    0.31    0.07
  -1   5  -1    0.38    0.04
   1   5   1    0.34    0.04
  -1   5  -1    0.31    0.07
   1  -5   1    0.35    0.07
  -1   5  -2   81.87    0.69
  -1   5  -2   81.38    0.94
  -1   5  -2   81.06    0.86
  -1   5  -2   81.04    0.93
  -1   5  -2   83.50    0.95
  -1  -5  -2   82.10    0.72
   1  -5   2   82.18    1.02
   1  -5   2   80.79    0.76
   1  -5   2   79.53    0.92
  -1  -5  -2   80.32    0.79
   1   5   2   83.01    0.74
  -1   5  -2   80.83    0.91
   1   5   2   80.44    0.95
   1  -5   3   10.74    0.40
  -1  -5  -3   11.01    0.31
  -1   5  -3   11.10    0.37
  -1  -5  -3   10.60    0.28
  -1   5  -3   10.83    0.35
   1  -5   3   10.28    0.28
   1   5   3   10.61    0.37
  -1  -5  -3    9.49    0.15
  -1  -5  -3   10.75    0.24
  -1   5  -3   10.77    0.30
  -1   5  -3   10.38    0.27
   1  -5   3   11.19    0.36
  -1  -5  -4  134.09    1.27
  -1  -5  -4  136.68    1.55
  -1  -5  -4  134.28    1.13
   1  -5   4  134.77    1.25
   1  -5   4  136.98    1.50
  -1   5  -4  132.49    1.24
   1   5   4  132.11    1.36
  -1   5  -4  132.33    1.11
  -1   5  -4  132.01    1.23
   1  -5   5   91.69    0.93
  -1   5  -5   86.38    1.14
  -1   5  -5   88.01    1.09
  -1  -5  -5   87.78    1.18
  -1  -5  -5   85.83    1.39
   1   5   5   88.57    1.14
   1   5   5   86.80    1.28
  -1  -5  -5   86.32    1.04
  -1  -5  -6   10.46    0.45
  -1  -5  -6   11.39    0.56
   1   5   6   11.25    0.38
  -1   5  -6   10.46    0.46
   1   5   6   10.16    0.49
  -1   5  -7   40.74    0.98
   1   5   7   40.81    1.06
  -1  -5  -7   40.11    1.11
  -1  -5  -7   41.71    0.99
  -1  -5  -7   41.91    1.00
  -1   5  -8   20.23    0.79
  -1  -5  -8   19.78    0.64
   1   5   8   20.18    0.78
  -1  -5  -8   20.89    0.83
  -1  -5  -8   20.13    0.73
  -1   5  -8   20.33    0.71
  -1   5  -8   19.71    0.73
  -1  -5  -8   19.66    0.71
  -1  -5  -9    0.97    0.18
  -1   5  -9    0.77    0.15
  -1   5  -9    1.00    0.19
   1   5   9    0.79    0.15
   1  -5   9    0.76    0.15
  -1  -5  -9    0.71    0.17
  -1   5  -9    0.81    0.16
   1   5   9    0.70    0.16
  -1  -5  -9    0.81    0.15
  -1   5 -10   44.39    0.98
   1   5  10   44.15    0.95
   1  -5  10   44.47    0.92
   1   5  10   45.62    0.91
  -1  -5 -10   45.40    1.01
  -1   5 -10   42.42    0.84
  -1  -5 -10   42.50    0.84
   1  -5  11   23.57    0.50
  -1  -5 -11   24.61    0.57
  -1   5 -11   23.36    0.51
   1  -6 -11    4.96    0.21
  -1   6  11    5.73    0.30
  -1   6  10   21.04    0.70
   1  -6 -10   20.05    0.59
   1  -6 -10   19.38    0.49
   1  -6 -10   20.93    0.70
   1  -6 -10   21.06    0.56
   1   6 -10   19.78    0.55
   1   6 -10   20.77    0.61
   1   6  -9    6.51    0.38
   1  -6  -9    6.61    0.44
   1   6  -9    6.16    0.36
  -1   6   9    5.96    0.42
   1   6  -9    6.45    0.35
   1  -6  -9    7.25    0.40
   1  -6  -9    6.30    0.36
   1  -6  -9    6.43    0.38
  -1   6   8   90.29    1.34
   1  -6  -8   93.30    1.55
   1   6  -8   86.31    1.37
   1  -6  -8   91.19    1.65
  -1   6   8   89.05    1.60
   1  -6  -8   90.25    1.42
   1  -6  -8   90.92    1.36
   1   6  -8   88.88    1.40
   1   6  -8   91.82    1.40
   1  -6  -7    2.82    0.28
   1   6  -7    2.33    0.23
   1  -6  -7    2.69    0.28
   1   6  -7    2.56    0.34
  -1   6   7    2.35    0.25
   1  -6  -7    2.58    0.23
  -1   6   7    2.73    0.24
   1   6  -7    2.62    0.24
   1  -6  -7    2.67    0.25
   1   6  -7    2.91    0.24
   1  -6  -6   12.05    0.47
  -1   6   6   12.21    0.48
   1  -6  -6   13.06    0.55
   1  -6  -6   12.44    0.56
   1   6  -6   11.85    0.40
  -1   6   6   12.46    0.52
   1   6  -6   13.00    0.50
   1   6  -6   12.65    0.46
   1   6  -6   12.46    0.56
   1   6  -5   16.34    0.51
  -1   6   5   15.69    0.47
   1  -6  -5   18.04    0.63
   1   6  -5   16.52    0.46
   1   6  -5   15.80    0.57
   1  -6  -5   16.27    0.56
  -1   6   5   16.43    0.52
  -1   6   5   15.95    0.53
   1  -6  -5   16.27    0.46
   1  -6  -5   16.18    0.39
  -1  -6   4   23.64    0.45
  -1   6   4   23.71    0.58
  -1   6   4   24.31    0.45
  -1   6   4   23.19    0.48
   1  -6  -4   24.19    0.68
  -1   6   4   22.87    0.57
   1  -6  -4   24.87    0.60
  -1  -6   4   23.97    0.59
   1   6  -4   23.30    0.62
   1  -6  -4   24.19    0.47
  -1  -6   4   23.26    0.43
  -1  -6   4   23.14    0.46
  -1   6   4   23.97    0.44
   1  -6  -3  129.95    1.16
  -1  -6   3  128.31    0.93
  -1   6   3  128.56    1.13
   1  -6  -3  128.72    1.44
   1   6  -3  126.77    0.91
   1  -6  -3  124.77    1.04
  -1  -6   3  124.75    1.24
  -1   6   3  129.89    1.00
  -1   6   3  131.47    0.92
  -1   6   3  126.97    1.25
  -1   6   3  132.00    0.93
  -1  -6   3  128.94    1.18
  -1   6   3  124.45    1.32
  -1  -6   3  126.61    0.90
  -1  -6   2  137.89    0.78
  -1  -6   2  133.60    1.26
  -1  -6   2  136.86    1.22
   1   6  -2  135.30    1.09
   1  -6  -2  140.10    1.34
  -1  -6   2  137.45    0.77
  -1   6   2  134.33    1.33
  -1  -6   2  135.02    1.30
  -1   6   2  139.38    1.17
  -1   6   2  137.40    1.23
  -1   6   2  136.14    0.75
  -1  -6   2  136.91    1.16
  -1   6   2  140.28    1.10
   1  -6  -2  139.36    1.22
  -1   6   2  137.22    0.76
  -1   6   1    7.61    0.31
  -1   6   1    7.72    0.29
  -1   6   1    7.32    0.12
  -1  -6   1    7.40    0.28
   1  -6  -1    7.59    0.29
  -1  -6   1    7.41    0.12
  -1  -6   1    7.95    0.24
  -1   6   1    7.97    0.28
   1  -6  -1    7.57    0.28
   1   6  -1    7.54    0.28
  -1   6   1    7.86    0.28
   1  -6  -1    7.56    0.29
  -1  -6   1    7.41    0.30
  -1  -6   1    7.61    0.29
   1  -6   0   70.99    0.90
  -1   6   0   57.83    0.29
  -1   6   0   74.13    0.89
  -1  -6   0   73.24    0.58
  -1   6   0   74.15    0.88
   1   6   0   74.42    0.90
  -1  -6   0   69.45    0.79
   1  -6   0   74.02    0.92
  -1   6   0   70.49    0.84
  -1   6   0   63.35    0.29
  -1  -6   0   59.80    0.27
  -1  -6   0   73.62    0.92
  -1  -6   0   55.55    0.26
  -1  -6   0   74.00    0.93
  -1   6   0   70.22    0.89
  -1   6   0   72.68    0.92
  -1   6  -1    7.52    0.15
  -1   6  -1    7.80    0.30
  -1   6  -1    7.69    0.30
  -1  -6  -1    7.87    0.29
   1  -6   1    8.18    0.32
   1  -6   1    8.48    0.33
  -1   6  -1    7.69    0.30
  -1   6  -1    7.82    0.29
   1   6   1    7.87    0.31
  -1  -6  -1    7.63    0.16
   1   6   1    7.28    0.16
  -1   6  -1    7.45    0.29
   1  -6   1    7.36    0.16
  -1   6  -2   26.14    0.54
   1   6   2   26.08    0.60
   1   6   2   26.39    0.39
  -1   6  -2   27.24    0.58
  -1   6  -2   25.87    0.57
  -1  -6  -2   26.94    0.38
  -1   6  -2   26.92    0.56
   1  -6   2   27.64    0.63
  -1   6  -2   26.78    0.38
  -1   6  -2   26.13    0.59
  -1  -6  -2   26.36    0.49
   1  -6   2   26.45    0.57
   1  -6   2   26.04    0.40
   1  -6   3   89.95    1.22
   1   6   3   94.50    0.88
   1  -6   3   91.10    1.09
  -1   6  -3   92.56    1.08
  -1   6  -3   90.59    0.78
  -1  -6  -3   97.34    0.83
  -1  -6  -3   95.74    0.77
  -1  -6  -3   93.64    1.20
   1  -6   3   91.94    0.90
   1   6   3   94.36    1.21
   1   6   4    3.46    0.25
  -1   6  -4    3.52    0.19
  -1  -6  -4    4.17    0.21
  -1   6  -4    3.79    0.27
   1   6   4    3.54    0.25
   1  -6   4    3.61    0.21
  -1  -6  -4    3.82    0.28
   1   6   5   50.77    0.94
   1   6   5   51.30    1.03
  -1  -6  -5   54.66    1.14
  -1   6  -5   54.16    1.10
   1   6   6   54.46    1.18
  -1  -6  -6   54.38    1.17
  -1  -6  -6   53.82    0.95
  -1   6  -6   53.23    0.98
  -1  -6  -6   55.34    1.25
   1   6   6   56.36    0.96
  -1   6  -6   55.17    1.22
  -1  -6  -7    0.21    0.10
  -1  -6  -7    0.11    0.10
  -1   6  -7    0.20    0.09
  -1  -6  -7    0.10    0.10
   1   6   7    0.06    0.09
  -1   6  -7    0.13    0.11
  -1   6  -8    2.27    0.24
  -1  -6  -8    2.51    0.25
  -1   6  -8    2.32    0.29
  -1  -6  -8    2.45    0.24
   1   6   8    2.20    0.22
  -1  -6  -8    2.24    0.28
   1   6   8    2.50    0.29
   1  -6   8    2.41    0.23
  -1   6  -8    2.23    0.23
  -1  -6  -8    2.25    0.24
   1  -6   9   13.72    0.52
  -1   6  -9   14.13    0.51
  -1   6  -9   13.80    0.62
  -1  -6  -9   14.78    0.52
   1   6   9   12.96    0.50
  -1  -6  -9   13.74    0.62
   1   6   9   14.85    0.64
  -1  -6  -9   13.79    0.46
   1   6  10   18.86    0.62
   1  -6  10   18.27    0.50
  -1  -6 -10   18.85    0.62
  -1   6 -10   17.84    0.60
  -1   7  11   19.23    0.51
   1  -7 -10    0.54    0.10
  -1   7  10    0.53    0.13
   1   7  -9    6.51    0.33
   1  -7  -9    6.89    0.39
   1  -7  -9    6.41    0.41
  -1   7   9    6.18    0.42
   1   7  -9    6.23    0.35
  -1   7   8   14.56    0.50
   1  -7  -8   16.30    0.67
   1   7  -8   15.55    0.53
   1  -7  -8   15.51    0.66
  -1   7   8   14.95    0.66
   1   7  -8   15.07    0.59
   1   7  -8   15.55    0.52
   1   7  -7  124.62    1.95
   1   7  -7  121.45    1.67
  -1   7   7  122.40    1.52
   1  -7  -7  127.37    1.83
  -1   7   7  123.40    1.83
   1  -7  -7  122.52    1.89
   1   7  -7  121.55    1.43
   1   7  -6   27.21    0.86
   1  -7  -6   26.78    0.86
   1   7  -6   26.08    0.75
  -1   7   6   27.42    0.80
   1  -7  -6   27.18    0.80
  -1   7   6   26.62    0.70
  -1   7   6   26.30    0.60
   1  -7  -5    7.87    0.39
  -1   7   5    8.08    0.37
  -1   7   5    8.08    0.37
   1   7  -5    8.23    0.40
   1   7  -5    8.14    0.43
   1  -7  -5    8.30    0.46
  -1   7   5    8.33    0.40
  -1   7   4   36.93    0.81
   1   7  -4   37.66    0.79
   1  -7  -4   38.66    0.92
   1   7  -4   37.21    0.84
  -1   7   4   36.62    0.75
  -1  -7   4   36.12    0.59
   1  -7  -4   37.06    0.73
  -1   7   4   37.45    0.76
   1  -7  -4   35.51    0.59
  -1   7   3   73.23    0.84
  -1   7   3   73.20    1.13
  -1   7   3   74.13    1.01
   1  -7  -3   78.04    1.20
   1   7  -3   75.10    1.10
   1   7  -3   74.17    0.82
  -1  -7   3   73.04    0.94
   1  -7  -3   74.89    0.95
  -1  -7   3   74.50    0.98
  -1   7   2    7.04    0.30
   1   7  -2    6.83    0.29
   1  -7  -2    7.28    0.33
  -1   7   2    7.78    0.36
  -1  -7   2    7.09    0.28
  -1   7   2    7.33    0.27
  -1  -7   2    7.35    0.31
   1  -7  -2    7.25    0.31
  -1   7   2    7.70    0.28
   1  -7  -1   37.42    0.68
  -1  -7   1   38.39    0.56
   1   7  -1   37.59    0.69
  -1  -7   1   38.04    0.71
   1  -7  -1   36.91    0.70
  -1   7   1   37.95    0.63
   1  -7  -1   37.31    0.68
  -1  -7   1   36.38    0.64
  -1   7   1   38.61    0.67
  -1   7   1   37.01    0.68
  -1   7   1   37.67    0.77
   1  -7   0    0.95    0.12
  -1  -7   0    1.05    0.12
   1   7   0    1.00    0.12
  -1   7   0    1.15    0.13
  -1  -7   0    1.12    0.08
  -1  -7   0    1.10    0.13
  -1   7   0    1.11    0.13
   1  -7   0    1.06    0.13
  -1   7   0    1.28    0.14
  -1   7   0    0.92    0.11
   1  -7   0    1.27    0.11
  -1  -7   0    1.25    0.13
  -1  -7  -1   15.63    0.38
  -1  -7  -1   17.34    0.49
  -1   7  -1   16.95    0.48
   1  -7   1   17.87    0.52
  -1   7  -1   17.11    0.49
  -1   7  -1   17.47    0.48
   1   7   1   17.98    0.52
  -1  -7  -1   16.31    0.44
   1  -7   1   17.31    0.50
   1   7   2    1.01    0.14
  -1   7  -2    0.75    0.11
  -1   7  -2    0.90    0.13
  -1   7  -2    0.96    0.12
   1  -7   2    0.94    0.13
  -1  -7  -2    0.74    0.10
   1  -7   2    0.98    0.13
  -1  -7  -2    0.85    0.12
   1   7   3   33.35    0.70
   1   7   3   33.11    0.79
  -1   7  -3   32.72    0.66
  -1   7  -3   32.54    0.77
  -1  -7  -3   32.42    0.75
   1   7   4    0.96    0.15
  -1  -7  -4    1.18    0.17
  -1   7  -4    0.72    0.14
   1  -7   4    0.97    0.11
   1   7   4    1.01    0.15
  -1   7  -4    1.09    0.14
  -1   7  -5    0.50    0.13
   1   7   5    0.47    0.12
  -1  -7  -5    0.45    0.13
   1   7   5    0.49    0.12
   1   7   6   16.00    0.55
   1   7   6   15.85    0.66
  -1   7  -6   15.44    0.67
  -1  -7  -6   15.73    0.68
  -1  -7  -6   15.96    0.67
  -1   7  -7   22.28    0.62
   1   7   7   25.27    0.88
  -1  -7  -7   23.41    0.81
  -1   7  -7   23.45    0.86
  -1  -7  -7   24.95    0.88
  -1   7  -8    0.68    0.16
  -1  -7  -8    0.59    0.14
  -1  -7  -8    0.60    0.16
   1   7   8    0.59    0.14
  -1  -7  -9    0.12    0.06
  -1   7  -9    0.00    0.07
   1   7   9    0.16    0.09
  -1  -7  -9    0.00    0.09
  -1  -7 -10    6.62    0.34
   1   7  10    6.73    0.36
  -1   7 -10    6.60    0.34
   1  -8 -10   18.46    0.46
  -1   8  10   20.31    0.64
   1  -8  -9   18.79    0.63
   1  -8  -9   19.68    0.64
   1   8  -9   18.33    0.57
  -1   8   9   19.44    0.71
   1   8  -8    0.18    0.08
   1  -8  -8    0.07    0.10
  -1   8   8    0.12    0.12
   1  -8  -8    0.20    0.11
  -1   8   7    0.38    0.10
   1  -8  -7    0.27    0.13
   1  -8  -7    0.49    0.14
   1   8  -7    0.69    0.24
   1   8  -7    0.35    0.12
  -1   8   7    0.44    0.14
  -1   8   6   22.33    0.63
   1  -8  -6   23.69    0.84
  -1   8   6   23.30    0.64
  -1   8   6   24.06    0.78
   1   8  -6   23.31    0.82
   1  -8  -6   22.88    0.70
   1   8  -6   22.33    0.73
  -1   8   5   21.04    0.65
  -1   8   5   20.62    0.60
   1  -8  -5   20.43    0.75
   1   8  -5   21.29    0.73
   1  -8  -5   21.82    0.63
  -1   8   5   20.66    0.65
   1   8  -5   20.24    0.67
  -1   8   4   13.98    0.55
   1   8  -4   14.47    0.54
   1  -8  -4   13.82    0.59
   1  -8  -4   15.24    0.44
  -1   8   4   13.85    0.49
  -1   8   4   13.95    0.48
   1   8  -4   14.56    0.57
   1  -8  -3    2.48    0.24
   1   8  -3    2.62    0.24
   1   8  -3    2.48    0.22
  -1   8   3    2.69    0.24
  -1   8   3    2.49    0.18
  -1   8   3    2.34    0.19
   1   8  -3    2.34    0.17
   1   8  -2   24.27    0.64
  -1   8   2   24.14    0.59
   1  -8  -2   23.28    0.64
  -1   8   2   23.32    0.69
  -1  -8   2   24.35    0.50
   1   8  -2   24.72    0.59
   1   8  -2   25.28    0.67
   1   8  -1    1.95    0.18
  -1   8   1    2.08    0.18
  -1   8   1    1.83    0.19
   1  -8  -1    1.84    0.17
   1   8  -1    1.75    0.17
  -1   8   1    1.81    0.15
   1  -8  -1    1.75    0.16
   1   8  -1    1.69    0.17
  -1  -8   1    2.06    0.13
  -1   8   0   23.90    0.66
   1  -8   0   22.63    0.57
  -1   8   0   22.97    0.59
   1  -8   0   22.50    0.46
  -1   8   0   22.64    0.55
   1   8   0   22.58    0.61
   1   8   0   23.36    0.63
   1   8   0   21.62    0.60
  -1   8  -1   22.56    0.62
   1   8   1   21.41    0.61
  -1   8  -1   21.69    0.58
   1   8   1   21.64    0.64
   1   8   1   21.07    0.61
  -1   8  -1   21.13    0.59
  -1  -8  -1   20.22    0.43
   1   8   2   12.18    0.50
  -1   8  -2   11.90    0.47
  -1   8  -2   11.68    0.44
   1   8   2   12.70    0.50
  -1   8  -2   11.87    0.47
   1   8   3    5.63    0.36
  -1   8  -3    5.58    0.29
   1   8   3    5.18    0.30
  -1  -8  -3    5.04    0.31
  -1   8  -3    4.86    0.32
  -1   8  -4    9.72    0.49
  -1   8  -4    9.72    0.39
  -1  -8  -4   10.39    0.48
   1   8   4   10.44    0.47
   1  -8   4   10.03    0.36
   1   8   4    9.59    0.47
  -1   8  -5   16.37    0.68
   1   8   5   17.84    0.64
   1   8   5   17.53    0.67
  -1  -8  -5   16.80    0.65
  -1   8  -6    7.89    0.50
  -1  -8  -6    9.04    0.53
   1   8   6    8.47    0.50
   1   8   6    7.81    0.40
  -1  -8  -6    8.64    0.50
  -1  -8  -7    4.90    0.39
  -1  -8  -7    4.95    0.39
  -1   8  -7    4.33    0.38
   1   8   7    4.68    0.39
  -1  -8  -8   26.13    0.78
   1   8   8   26.10    0.87
  -1   8  -8   25.32    0.86
  -1   8  -9    0.04    0.08
  -1  -8  -9    0.11    0.08
  -1  -8  -9    0.01    0.07
   1   8   9    0.03    0.08
  -1   8 -10    1.15    0.14
   1   8  10    1.17    0.14
  -1  -8 -10    0.95    0.12
  -1   9  10    0.19    0.08
   1  -9  -9    2.33    0.22
   1   9  -9    2.12    0.19
  -1   9   9    2.51    0.25
   1  -9  -8    6.94    0.43
   1  -9  -8    6.53    0.37
  -1   9   8    6.91    0.45
   1   9  -8    6.91    0.40
   1   9  -7    0.06    0.09
   1  -9  -7    0.14    0.11
  -1   9   7    0.19    0.11
   1  -9  -7   -0.03    0.08
   1   9  -7    0.20    0.24
  -1   9   6   20.68    0.63
   1  -9  -6   21.08    0.81
  -1   9   6   20.47    0.57
   1  -9  -6   21.01    0.63
  -1   9   6   20.31    0.73
   1   9  -6   22.14    0.82
   1   9  -6   20.83    0.74
   1   9  -5    9.11    0.51
   1  -9  -5    9.27    0.53
   1   9  -5    8.63    0.47
  -1   9   5    8.82    0.45
  -1   9   5    9.01    0.40
  -1   9   5    8.08    0.44
  -1   9   4   50.35    1.12
  -1   9   4   50.90    0.92
   1  -9  -4   51.27    1.18
   1   9  -4   49.42    1.10
  -1   9   4   50.22    0.96
   1   9  -4   49.49    1.07
  -1   9   3   -0.02    0.10
   1   9  -3    0.11    0.07
   1   9  -3   -0.04    0.06
  -1   9   3    0.13    0.06
  -1   9   3    0.12    0.09
   1   9  -3    0.03    0.07
  -1   9   3    0.23    0.08
   1  -9  -3    0.13    0.08
  -1   9   2    0.41    0.10
  -1   9   2    0.65    0.11
   1   9  -2    0.61    0.13
   1   9  -2    0.51    0.12
   1   9  -2    0.36    0.09
   1  -9  -2    0.34    0.10
  -1   9   2    0.34    0.11
   1   9  -1    1.32    0.17
   1   9  -1    1.62    0.19
  -1   9   1    1.40    0.16
   1  -9  -1    1.24    0.15
  -1   9   1    1.47    0.19
   1   9  -1    1.43    0.18
  -1   9   1    1.39    0.16
  -1   9   0  123.60    1.64
  -1   9   0  122.66    1.45
   1   9   0  124.45    1.55
  -1   9   0  125.53    1.49
   1   9   0  123.41    1.58
   1   9   0  126.14    1.58
   1  -9   0  123.28    1.12
  -1   9  -1   17.85    0.60
   1   9   1   17.15    0.59
  -1   9  -1   17.90    0.58
   1   9   1   18.36    0.62
  -1   9  -1   17.33    0.59
   1   9   1   17.81    0.63
  -1   9  -2    8.60    0.41
   1   9   2    8.78    0.45
  -1   9  -2    9.17    0.45
   1   9   2    8.82    0.47
   1   9   2    9.31    0.36
   1   9   2    9.59    0.46
  -1  -9  -2    8.81    0.37
   1   9   3   10.40    0.52
  -1   9  -3   10.74    0.43
   1   9   3   10.78    0.45
  -1   9  -3   10.99    0.52
  -1  -9  -3   10.92    0.45
  -1   9  -4   16.96    0.53
   1   9   4   18.17    0.64
   1   9   4   18.01    0.69
  -1  -9  -4   17.84    0.63
   1  -9   4   17.75    0.52
  -1   9  -4   17.06    0.69
  -1   9  -5    4.90    0.40
   1   9   5    4.52    0.35
  -1  -9  -5    4.67    0.39
  -1  -9  -5    4.85    0.36
   1   9   5    4.46    0.34
  -1  -9  -6    5.74    0.44
   1   9   6    6.16    0.43
  -1   9  -6    6.21    0.45
  -1  -9  -6    5.92    0.40
   1   9   6    5.79    0.36
  -1  -9  -7    8.35    0.47
  -1  -9  -7    8.68    0.50
   1   9   7    8.89    0.52
  -1   9  -7    8.19    0.52
  -1  -9  -8   13.64    0.55
  -1  -9  -8   13.33    0.55
   1   9   8   13.99    0.62
  -1   9  -8   13.40    0.61
  -1   9  -9    5.19    0.33
  -1  -9  -9    4.90    0.26
  -1  -9  -9    4.90    0.29
   1   9   9    5.23    0.34
  -1  10   9   82.45    1.29
   1 -10  -9   79.02    1.13
   1  10  -8    0.09    0.07
   1 -10  -8    0.16    0.10
  -1  10   8    0.20    0.10
   1  10  -7    9.81    0.59
   1 -10  -7    9.80    0.54
  -1  10   7    9.53    0.51
   1  10  -7    9.50    0.50
   1  10  -6    7.26    0.46
   1 -10  -6    6.81    0.48
  -1  10   6    7.62    0.40
  -1  10   6    7.46    0.44
   1  10  -6    7.65    0.49
   1  10  -5   41.52    1.11
   1  10  -5   41.07    1.08
   1 -10  -5   42.01    1.14
  -1  10   5   44.54    1.02
  -1  10   5   42.21    1.03
   1  10  -4    0.06    0.09
  -1  10   4    0.30    0.10
   1  10  -4    0.13    0.10
  -1  10   4    0.26    0.09
   1 -10  -4    0.05    0.10
  -1  10   4    0.17    0.10
  -1  10   3   92.40    1.60
   1 -10  -3   92.67    1.53
   1  10  -3   93.10    1.53
  -1  10   3   89.08    1.23
  -1  10   3   89.15    1.14
   1  10  -3   88.84    1.50
   1  10  -3   90.49    1.23
   1  10  -2   10.02    0.45
  -1  10   2   10.07    0.53
   1  10  -2   10.80    0.51
  -1  10   2    9.95    0.42
   1 -10  -2    9.75    0.45
   1  10  -2    9.42    0.48
  -1  10   2   10.52    0.46
   1  10  -1   46.18    1.00
   1 -10  -1   44.82    0.86
  -1  10   1   44.72    0.95
   1  10  -1   44.09    1.01
  -1  10   1   46.06    1.09
   1  10  -1   47.55    1.06
  -1  10   1   46.96    0.92
  -1  10   0   -0.02    0.08
  -1  10   0    0.02    0.07
   1  10   0   -0.01    0.09
  -1  10   0   -0.09    0.08
   1  10   0   -0.03    0.08
   1  10   0    0.10    0.09
   1  10   1   34.09    0.94
  -1  10  -1   33.64    0.89
  -1  10  -1   33.94    0.84
   1  10   1   34.03    0.89
   1  10   1   34.70    0.93
  -1  10  -1   33.69    0.87
  -1  10  -2    0.97    0.17
  -1  10  -2    1.26    0.18
   1  10   2    1.17    0.19
   1  10   2    1.11    0.14
   1  10   2    1.22    0.19
  -1  10  -3   26.70    0.72
   1  10   3   25.95    0.87
  -1 -10  -3   27.36    0.70
   1  10   3   24.60    0.70
   1  10   3   25.67    0.84
  -1  10  -3   26.04    0.85
   1  10   4    8.73    0.50
  -1  10  -4    7.79    0.49
  -1  10  -4    8.19    0.38
  -1 -10  -4    8.74    0.42
   1  10   4    8.35    0.44
   1 -10   4    8.56    0.38
  -1 -10  -4    8.27    0.51
   1  10   5   71.44    1.37
  -1  10  -5   74.55    1.54
  -1 -10  -5   76.04    1.56
  -1 -10  -5   72.14    1.28
   1  10   5   74.22    1.40
  -1 -10  -6    3.70    0.35
  -1  10  -6    3.82    0.36
  -1 -10  -6    3.24    0.28
   1  10   6    3.27    0.32
   1  10   6    3.02    0.26
  -1  10  -7    4.54    0.37
  -1 -10  -7    4.77    0.36
  -1 -10  -7    4.65    0.32
   1  10   7    4.21    0.35
  -1 -10  -8    0.93    0.15
  -1  10  -8    0.62    0.14
   1  10   8    0.71    0.15
  -1 -10  -8    0.75    0.14
   1  10   9   14.93    0.51
   1  10   9   15.66    0.51
  -1  10  -9   15.29    0.50
   1  11  -9   -0.08    0.07
  -1  11   9    0.09    0.07
   1 -11  -9    0.11    0.07
   1 -11  -8   26.10    0.73
  -1  11   8   27.16    0.75
   1  11  -8   24.59    0.65
   1 -11  -7    0.26    0.11
  -1  11   7    0.39    0.12
   1  11  -7    0.27    0.10
  -1  11   6    0.33    0.11
   1  11  -6    0.30    0.13
   1  11  -6    0.32    0.13
   1 -11  -6    0.33    0.12
  -1  11   6    0.29    0.10
  -1  11   5   35.94    0.97
   1  11  -5   34.48    1.02
   1 -11  -5   36.13    1.06
   1 -11  -5   36.29    0.87
  -1  11   5   35.43    0.89
   1  11  -5   36.24    1.04
   1  11  -4   36.64    1.03
   1 -11  -4   36.01    1.02
  -1  11   4   35.28    0.82
  -1  11   4   35.61    1.02
   1  11  -4   33.51    1.00
  -1  11   3    7.51    0.36
   1 -11  -3    7.65    0.45
  -1  11   3    7.14    0.47
   1  11  -3    7.22    0.45
   1  11  -3    7.58    0.47
   1  11  -3    7.20    0.36
  -1  11   2   19.08    0.59
  -1  11   2   19.67    0.66
   1 -11  -2   19.09    0.64
   1  11  -2   19.09    0.72
   1  11  -2   18.29    0.64
  -1  11   2   19.19    0.76
   1  11  -2   17.84    0.71
  -1  11   1   20.95    0.64
   1 -11  -1   20.62    0.58
  -1  11   1   21.17    0.79
   1  11  -1   21.03    0.77
   1  11  -1   20.20    0.73
   1  11  -1   22.00    0.73
  -1  11   1   21.85    0.71
   1  11   0   90.54    1.55
  -1  11   0   91.90    1.37
  -1 -11   0   92.28    1.24
  -1  11   0   92.50    1.60
   1  11   0   93.29    1.55
  -1  11   0   93.46    1.50
   1  11   0   91.00    1.59
   1  11   1    0.62    0.15
   1  11   1    0.57    0.15
  -1  11  -1    0.68    0.15
   1  11   1    0.70    0.15
  -1  11  -1    0.69    0.15
  -1 -11  -1    0.65    0.13
  -1  11  -2    0.43    0.13
  -1  11  -2    0.39    0.14
   1  11   2    0.37    0.14
   1  11   2    0.31    0.11
  -1 -11  -2    0.35    0.12
   1  11   3    3.46    0.34
  -1 -11  -3    3.46    0.32
   1  11   3    3.75    0.28
   1  11   3    3.59    0.33
   1 -11   3    3.72    0.29
   1 -11   4   66.34    1.04
   1  11   4   64.66    1.38
  -1 -11  -4   66.37    1.44
   1  11   4   63.51    1.39
  -1  11  -4   62.18    1.42
   1  11   4   63.47    1.19
   1  11   5   34.84    0.96
   1  11   5   36.00    0.95
  -1 -11  -5   35.19    1.05
  -1 -11  -5   35.41    0.81
   1  11   5   35.85    1.05
  -1  11  -5   35.32    1.07
  -1  11  -6    0.13    0.11
   1  11   6    0.27    0.12
  -1 -11  -6    0.05    0.08
   1  11   6    0.06    0.09
   1  11   6    0.08    0.09
  -1  11  -7   11.60    0.56
   1  11   7   11.28    0.54
  -1 -11  -7   11.41    0.52
   1  11   7   11.05    0.51
  -1 -11  -7   11.59    0.41
  -1 -11  -8   48.70    0.88
   1  11   8   50.23    0.97
   1  11   8   51.11    0.98
  -1  11  -8   50.91    1.01
   1  12  -8    0.99    0.12
  -1  12   8    1.02    0.13
   1 -12  -8    1.31    0.15
   1 -12  -7   11.05    0.50
  -1  12   7   10.70    0.45
   1  12  -7   11.25    0.48
  -1  12   6   29.84    0.74
   1 -12  -6   30.85    0.90
   1  12  -6   29.69    0.89
  -1  12   6   29.44    0.78
   1  12  -6   30.05    0.88
   1  12  -5    0.85    0.17
  -1  12   5    0.63    0.15
   1 -12  -5    0.73    0.16
  -1  12   5    0.81    0.14
   1  12  -5    0.91    0.18
   1 -12  -5    1.00    0.16
   1  12  -4    0.39    0.15
  -1  12   4    0.65    0.16
   1 -12  -4    0.33    0.11
  -1  12   4    0.60    0.12
   1  12  -4    0.63    0.16
   1  12  -3   16.49    0.55
   1 -12  -3   16.42    0.63
   1  12  -3   17.31    0.70
  -1  12   3   17.65    0.75
   1  12  -3   18.05    0.75
   1  12  -2    9.77    0.48
   1 -12  -2   10.41    0.46
  -1  12   2   11.28    0.60
   1  12  -2    9.78    0.55
   1  12  -2   10.69    0.55
  -1  12   2   11.23    0.52
  -1  12   2   10.25    0.42
   1  12  -1    8.49    0.47
  -1  12   1    8.34    0.40
  -1  12   1    9.28    0.54
  -1  12   1   10.21    0.51
   1  12  -1    8.29    0.51
   1  12  -1    8.30    0.49
   1  12   0   19.99    0.76
  -1  12   0   20.38    0.77
   1  12   0   21.58    0.77
   1  12   0   22.41    0.83
   1  12   1   13.85    0.65
  -1  12  -1   13.45    0.61
  -1 -12  -1   13.16    0.52
   1  12   1   13.62    0.63
   1  12   1   14.45    0.68
  -1  12  -1   14.07    0.64
  -1 -12  -2   12.50    0.55
   1  12   2   12.14    0.62
  -1  12  -2   12.87    0.56
   1  12   2   12.31    0.60
  -1  12  -2   13.01    0.63
  -1 -12  -3   10.30    0.54
   1  12   3   10.67    0.56
   1  12   3   11.55    0.61
   1 -12   3   10.53    0.48
  -1  12  -3   11.33    0.60
  -1  12  -4    4.35    0.38
   1  12   4    4.30    0.36
  -1 -12  -4    3.78    0.34
   1  12   4    4.28    0.36
   1  12   4    3.74    0.28
   1 -12   4    4.44    0.26
  -1  12  -5    6.39    0.46
   1  12   5    5.68    0.36
   1  12   5    6.12    0.42
   1  12   5    6.36    0.40
   1  12   6    1.66    0.19
  -1 -12  -6    1.82    0.22
   1  12   6    1.65    0.21
   1  12   6    1.77    0.20
  -1  12  -6    1.74    0.23
  -1 -12  -7   21.02    0.63
  -1  12  -7   21.02    0.68
   1  12   7   20.51    0.61
   1  12   7   20.48    0.63
   1  12   8   10.52    0.36
  -1  12  -8   11.37    0.42
  -1  13   7   14.92    0.43
   1 -13  -7   15.14    0.50
   1  13  -7   15.07    0.49
   1 -13  -6    1.73    0.20
  -1  13   6    1.74    0.16
   1  13  -6    1.90    0.26
  -1  13   6    1.67    0.17
   1  13  -6    1.74    0.20
   1 -13  -5    0.37    0.12
   1  13  -5    0.13    0.09
   1 -13  -5    0.09    0.07
   1  13  -5    0.34    0.11
  -1  13   5    0.52    0.12
  -1  13   4   61.49    1.30
   1  13  -4   61.85    1.29
   1  13  -4   61.85    1.34
   1 -13  -4   60.42    1.19
   1 -13  -4   63.69    1.20
   1  13  -3   51.02    1.25
   1  13  -3   49.47    1.17
   1 -13  -3   48.61    0.99
  -1  13   3   52.20    1.26
  -1  13   2   18.90    0.77
   1  13  -2   16.91    0.60
   1  13  -2   17.26    0.69
   1 -13  -2   17.87    0.55
   1  13  -2   17.45    0.75
   1  13  -1   51.62    1.15
  -1  13   1   53.54    1.28
   1  13  -1   51.81    1.20
  -1  13   1   53.19    1.16
   1  13  -1   52.84    1.30
   1  13   0    1.24    0.21
   1  13   0    1.12    0.19
  -1  13   0    1.02    0.19
   1  13   0    1.24    0.20
  -1  13   0    1.17    0.20
  -1  13  -1    4.77    0.36
  -1 -13  -1    4.00    0.27
   1  13   1    5.08    0.40
   1  13   1    4.73    0.37
  -1  13  -1    3.78    0.34
   1  13   2   15.63    0.70
  -1  13  -2   15.36    0.59
   1  13   2   15.93    0.67
   1 -13   2   15.21    0.62
  -1  13  -2   15.18    0.68
  -1 -13  -2   15.50    0.57
   1  13   3   29.06    0.93
  -1 -13  -3   26.84    0.80
   1 -13   3   27.25    0.74
   1  13   3   28.10    0.88
  -1  13  -3   28.71    0.94
   1  13   4   25.68    0.83
  -1 -13  -4   26.14    0.80
   1  13   4   24.39    0.80
  -1  13  -4   25.54    0.87
   1  13   5    5.55    0.35
  -1 -13  -5    5.32    0.36
   1  13   5    4.97    0.34
   1  13   5    4.72    0.28
  -1  13  -5    5.67    0.40
  -1 -13  -6    4.84    0.31
   1  13   6    4.41    0.29
   1  13   6    4.53    0.26
   1  13   6    4.46    0.25
  -1  13  -6    4.60    0.33
  -1 -13  -7    2.41    0.19
   1  13   7    2.30    0.17
  -1  13  -7    2.62    0.21
   1  14  -6   14.61    0.50
   1 -14  -6   14.52    0.45
   1  14  -5    0.32    0.11
  -1  14   5    0.45    0.11
   1 -14  -5    0.44    0.12
   1  14  -5    0.41    0.12
   1 -14  -5    0.36    0.10
   1  14  -4    4.01    0.30
  -1  14   4    3.89    0.31
   1 -14  -4    4.29    0.29
   1 -14  -4    3.45    0.25
   1  14  -4    4.21    0.34
   1  14  -3    3.80    0.31
   1  14  -3    3.80    0.34
   1 -14  -3    3.95    0.24
   1 -14  -3    3.92    0.32
  -1  14   3    3.68    0.32
  -1  14   2    9.89    0.53
   1  14  -2    9.09    0.48
   1 -14  -2   10.37    0.54
   1  14  -2    9.80    0.55
   1  14  -2    9.10    0.41
   1  14  -1   13.21    0.55
  -1  14   1   13.07    0.60
  -1  14   1   13.26    0.57
   1  14  -1   13.52    0.59
   1  14  -1   14.11    0.66
   1  14   0    9.81    0.56
   1  14   0    9.66    0.50
   1  14   0    9.37    0.49
   1 -14   0    9.61    0.52
  -1  14   0    9.15    0.49
  -1  14   0    9.58    0.50
  -1  14  -1    0.22    0.10
  -1  14  -1    0.24    0.10
   1  14   1    0.34    0.12
   1 -14   1    0.24    0.10
   1  14   1    0.14    0.07
  -1  14  -2   24.34    0.82
  -1 -14  -2   21.35    0.57
   1  14   2   23.44    0.76
   1 -14   2   23.67    0.71
   1  14   2   24.69    0.82
   1  14   3    1.91    0.24
   1  14   3    1.92    0.21
  -1  14  -3    1.81    0.23
  -1 -14  -3    1.58    0.18
   1 -14   3    1.75    0.18
  -1  14  -4    0.86    0.16
   1  14   4    1.08    0.17
  -1 -14  -4    1.00    0.15
   1  14   4    0.72    0.13
  -1 -14  -5    0.17    0.09
  -1  14  -5    0.14    0.07
   1  14   5    0.11    0.08
   1  14   5    0.19    0.07
   1  14   6   18.10    0.44
  -1  14  -6   19.45    0.57
   1  15  -5    4.93    0.28
   1  15  -4    9.89    0.45
  -1  15   4   10.22    0.42
   1 -15  -4    9.69    0.37
   1  15  -4    9.24    0.38
  -1  15   3   11.91    0.50
   1  15  -3   11.38    0.45
   1 -15  -3   11.49    0.47
   1  15  -3   11.97    0.54
   1  15  -2    0.16    0.09
   1  15  -2    0.20    0.08
  -1  15   2    0.13    0.10
   1  15  -2    0.10    0.07
   1 -15  -2    0.16    0.09
  -1  15   1   12.84    0.54
   1  15  -1   12.13    0.49
   1  15  -1   12.56    0.47
   1 -15  -1   12.61    0.54
   1  15   0    4.38    0.30
   1  15   0    3.81    0.28
  -1  15   0    4.16    0.30
   1 -15   0    4.48    0.32
  -1  15   0    4.40    0.32
   1  15   1   30.90    0.77
   1 -15   1   31.46    0.80
  -1  15  -1   32.72    0.87
   1  15   1   33.19    0.85
  -1  15  -2    2.23    0.24
   1  15   2    2.51    0.24
   1 -15   2    1.98    0.19
   1  15   2    2.21    0.21
   1  15   3    4.56    0.25
   1  15   3    4.38    0.27
   1 -15   3    4.05    0.20
  -1  15  -3    4.31    0.31
   1  15   3    4.57    0.31
   1  15   4    6.51    0.33
   1  15   4    5.96    0.28
   1  15   4    5.50    0.27
  -1  15  -4    6.13    0.34
   1  16  -3   -0.02    0.06
   1 -16  -2    2.13    0.19
   1  16  -2    0.02    0.03
   1  16  -1    1.16    0.12
   1 -16  -1    1.16    0.15
   1 -16   0    2.46    0.21
   1  16   0    2.33    0.19
   1  16   1    1.00    0.14
   1 -16   1    1.02    0.13
   1  16   2    3.05    0.22
  -1  16  -2    2.77    0.22
  -1  16  -3    8.24    0.35
   2   0 -12    7.69    0.36
   2   0 -11    0.08    0.09
   2   0 -11    0.01    0.08
  -2   0  11   -0.02    0.09
  -2   0  10    0.60    0.15
   2   0 -10    0.52    0.15
   2   0 -10    0.65    0.16
  -2   0   9    0.22    0.10
   2   0  -9   -0.04    0.09
   2   0  -9   -0.08    0.11
  -2   0   9    0.10    0.11
  -2   0   8   34.22    0.77
   2   0  -8   33.44    1.03
   2   0  -8   33.65    0.97
   2   0  -7    0.05    0.06
   2   0  -7    0.05    0.06
   2   0  -7    0.13    0.09
  -2   0   7    0.07    0.09
   2   0  -6    9.64    0.36
   2   0  -6    8.82    0.41
   2   0  -6    9.03    0.45
   2   0  -5    0.03    0.05
   2   0  -5    0.01    0.05
  -2   0   5    0.00    0.04
   2   0  -5    0.03    0.04
   2   0  -4   43.61    0.69
   2   0  -4   43.97    0.69
  -2   0   4   44.52    0.74
  -2   0   4   43.15    0.74
   2   0  -4   45.68    0.79
   2   0  -3    0.04    0.04
   2   0  -3    0.05    0.04
   2   0  -3    0.02    0.04
   2   0  -3    0.02    0.04
  -2   0   3    0.04    0.04
  -2   0   3    0.02    0.02
  -2   0   3   -0.02    0.04
   2   0  -2   41.35    0.58
   2   0  -2   43.17    0.65
  -2   0   2   41.78    0.62
  -2   0   2   42.59    0.58
  -2   0   2   42.37    0.49
  -2   0   1    0.01    0.04
  -2   0   1    0.15    0.04
   2   0  -1    0.04    0.04
  -2   0   1    0.20    0.05
   2   0  -1    0.00    0.03
  -2   0   0  505.74    2.06
   2   0   0  500.59    2.15
  -2   0   0  505.05    1.68
  -2   0   0  498.51    2.02
  -2   0  -1    0.02    0.04
  -2   0  -1    0.05    0.03
  -2   0  -1    0.03    0.03
   2   0   1    0.01    0.04
  -2   0  -1    0.03    0.03
   2   0   1    0.01    0.02
  -2   0  -2  161.68    1.28
   2   0   2  166.17    1.40
  -2   0  -2  168.76    0.98
   2   0   2  164.81    1.03
  -2   0  -2  169.89    1.29
  -2   0  -2  164.29    1.30
  -2   0  -3    0.01    0.06
   2   0   3    0.04    0.05
  -2   0  -3    0.08    0.06
   2   0   3   -0.01    0.03
  -2   0  -3   -0.01    0.03
  -2   0  -4   43.98    0.84
  -2   0  -4   44.50    0.53
   2   0   4   42.66    0.63
  -2   0  -5    0.05    0.07
  -2   0  -5    0.14    0.09
  -2   0  -5    0.10    0.07
   2   0   5   -0.05    0.07
  -2   0  -6    0.70    0.15
  -2   0  -6    0.34    0.11
   2   0   6    0.17    0.10
  -2   0  -6    0.92    0.17
   2   0   7   -0.03    0.08
  -2   0  -7   -0.02    0.10
  -2   0  -7   -0.07    0.11
  -2   0  -7    0.00    0.08
  -2   0  -8   65.02    1.50
   2   0   8   65.38    1.44
  -2   0  -8   65.26    1.25
   2   0   9    0.03    0.09
  -2   0  -9   -0.04    0.10
   2   0  10    0.19    0.10
  -2   0 -10    0.01    0.09
  -2   0 -10    0.12    0.08
  -2   0 -11   -0.02    0.04
   2   0  11    0.06    0.05
   2   1 -12    2.04    0.19
   2  -1 -12    1.87    0.18
  -2  -1  11   -0.03    0.07
  -2   1  11   -0.05    0.07
   2  -1 -11    0.00    0.08
   2   1 -11    0.02    0.08
   2   1 -11   -0.02    0.08
   2  -1 -11   -0.06    0.09
  -2  -1  10    5.14    0.39
  -2   1  10    4.66    0.36
   2  -1 -10    5.02    0.40
  -2   1  10    4.92    0.29
   2  -1 -10    4.87    0.39
   2   1 -10    4.71    0.39
   2   1 -10    4.52    0.38
   2  -1  -9   23.80    0.86
  -2   1   9   25.10    0.88
   2   1  -9   24.51    0.90
  -2   1   9   25.56    0.72
   2   1  -9   24.88    0.88
   2  -1  -9   25.16    0.92
  -2   1   8    3.51    0.33
   2  -1  -8    2.92    0.29
   2   1  -8    2.75    0.28
   2  -1  -8    3.21    0.23
  -2   1   8    2.71    0.24
   2   1  -8    2.85    0.31
   2  -1  -8    3.24    0.34
   2  -1  -7   43.97    1.10
  -2   1   7   43.10    1.07
   2  -1  -7   43.61    0.85
   2   1  -7   42.86    0.99
   2  -1  -7   42.18    1.07
   2  -1  -7   43.51    1.00
   2   1  -7   44.73    1.10
  -2  -1   7   42.44    0.71
  -2   1   7   43.95    0.89
   2   1  -6   24.43    0.53
   2  -1  -6   23.37    0.66
   2   1  -6   24.34    0.68
   2  -1  -6   24.82    0.62
   2  -1  -6   24.95    0.74
   2  -1  -6   24.79    0.76
   2   1  -6   26.05    0.77
  -2   1   5    1.26    0.14
   2  -1  -5    1.08    0.13
   2  -1  -5    1.14    0.15
   2   1  -5    1.25    0.13
  -2  -1   5    1.18    0.14
   2   1  -5    1.37    0.14
   2  -1  -5    1.21    0.13
   2  -1  -5    1.27    0.16
   2   1  -5    1.21    0.15
  -2   1   4   33.36    0.67
   2  -1  -4   33.59    0.63
   2   1  -4   32.28    0.56
  -2   1   4   34.79    0.66
  -2  -1   4   32.93    0.65
   2   1  -4   33.23    0.68
   2  -1  -4   32.47    0.68
   2  -1  -4   32.71    0.60
   2   1  -4   32.10    0.60
  -2   1   4   32.89    0.65
  -2  -1   4   32.19    0.64
  -2   1   3    8.25    0.17
  -2   1   3    8.83    0.30
  -2   1   3    8.87    0.31
   2   1  -3    8.26    0.27
   2  -1  -3    8.06    0.29
   2  -1  -3    8.13    0.28
  -2  -1   3    8.04    0.30
   2   1  -3    8.72    0.31
  -2   1   3    8.11    0.30
   2  -1  -3    8.52    0.31
   2   1  -3    8.49    0.28
  -2  -1   3    8.46    0.30
  -2   1   3    8.54    0.30
   2  -1  -3    8.31    0.31
  -2  -1   3    8.48    0.19
   2   1  -3    8.54    0.31
   2  -1  -2   81.46    0.83
   2  -1  -2   81.06    0.89
  -2  -1   2   78.65    0.69
  -2   1   2   84.56    0.88
  -2   1   2   79.73    0.81
   2   1  -2   81.93    0.86
   2   1  -2   80.44    0.79
  -2   1   2   78.58    0.67
   2   1  -2   80.95    0.89
  -2  -1   2   82.93    0.87
  -2   1   1  145.70    1.02
  -2  -1   1  146.33    0.92
  -2  -1   1  143.90    1.03
  -2   1   1  140.05    1.01
  -2   1   1  143.91    1.10
   2   1  -1  146.16    1.16
   2  -1  -1  145.42    1.15
  -2  -1   1  144.82    1.10
   2   1  -1  141.26    0.95
   2  -1   0   51.78    0.69
   2   1   0   51.35    0.50
  -2  -1   0   52.13    0.49
  -2  -1   0   51.17    0.65
   2  -1   0   51.92    0.61
  -2   1   0   51.17    0.65
  -2  -1   0   50.96    0.66
   2   1   0   51.96    0.69
  -2   1   0   52.67    0.59
  -2   1   0   51.46    0.65
  -2   1  -1  122.19    1.01
  -2  -1  -1  124.43    0.69
   2  -1   1  122.94    0.97
  -2  -1  -1  122.37    1.01
  -2   1  -1  122.86    0.89
  -2  -1  -1  121.52    1.04
   2   1   1  122.24    0.72
   2   1   1  118.98    1.10
  -2   1  -1  122.50    1.04
   2   1   1  120.92    0.61
  -2   1  -1  123.46    1.08
  -2  -1  -1  124.36    1.08
   2  -1   1  119.14    1.11
  -2   1  -2   55.37    0.75
  -2   1  -2   52.06    0.71
   2  -1   2   50.87    0.78
   2  -1   2   52.13    0.66
  -2  -1  -2   52.91    0.73
   2   1   2   51.74    0.49
  -2   1  -2   50.94    0.60
  -2  -1  -2   54.40    0.76
  -2  -1  -2   52.20    0.72
  -2   1  -2   51.54    0.74
   2   1   2   51.47    0.78
  -2  -1  -3   33.54    0.63
  -2   1  -3   32.03    0.63
   2  -1   3   33.46    0.57
   2   1   3   33.31    0.68
  -2   1  -3   34.11    0.63
  -2   1  -3   34.08    0.53
   2  -1   3   32.02    0.45
   2   1   3   31.95    0.47
  -2  -1  -3   32.21    0.64
  -2  -1  -3   34.71    0.64
   2   1   3   32.59    0.44
  -2   1  -3   34.12    0.63
   2  -1   3   33.35    0.69
  -2   1  -4    5.54    0.30
  -2  -1  -4    5.17    0.28
  -2   1  -4    5.55    0.27
  -2  -1  -4    5.41    0.30
   2   1   4    5.57    0.20
   2  -1   4    5.50    0.25
  -2  -1  -4    5.34    0.17
  -2   1  -4    5.83    0.21
  -2  -1  -5  145.18    1.74
  -2   1  -5  141.57    1.73
  -2   1  -5  144.01    1.72
  -2  -1  -5  143.40    1.65
   2   1   5  140.41    1.49
  -2   1  -5  145.97    1.50
   2  -1   5  140.85    1.23
  -2  -1  -5  136.80    1.69
  -2   1  -6   25.58    0.82
  -2   1  -6   26.41    0.81
  -2  -1  -6   25.91    0.81
  -2  -1  -6   26.30    0.78
   2   1   6   25.14    0.71
  -2   1  -6   26.30    0.70
  -2  -1  -6   26.70    0.83
  -2  -1  -7    9.72    0.53
  -2   1  -7    9.11    0.54
  -2  -1  -7    9.86    0.51
  -2   1  -7   10.11    0.47
   2   1   7    8.84    0.44
  -2   1  -7   10.21    0.54
  -2  -1  -7    9.30    0.55
   2  -1   8   42.97    1.17
  -2  -1  -8   41.23    1.05
  -2   1  -8   39.38    0.91
   2   1   8   40.43    0.92
   2   1   8   42.05    1.15
  -2  -1  -8   38.78    1.15
  -2   1  -8   40.18    1.17
   2  -1   9   20.58    0.79
   2   1   9   20.78    0.80
  -2  -1  -9   20.14    0.67
  -2   1  -9   18.79    0.57
   2   1  10   14.75    0.61
   2  -1  10   14.27    0.61
  -2  -1 -10   13.24    0.46
  -2   1 -10   13.78    0.55
  -2  -1 -10   13.55    0.54
   2   1  11    0.08    0.06
   2  -1  11    0.05    0.06
  -2   1 -11    0.06    0.05
  -2  -2  11   21.72    0.69
   2   2 -11   22.01    0.69
   2  -2 -11   21.59    0.69
  -2   2  11   21.25    0.62
  -2   2  11   21.57    0.48
   2  -2 -11   22.31    0.73
   2   2 -11   21.67    0.71
   2  -2 -10    3.85    0.35
  -2  -2  10    4.05    0.35
  -2   2  10    3.72    0.32
   2   2 -10    4.07    0.35
  -2   2  10    3.39    0.26
   2   2 -10    3.39    0.32
   2  -2 -10    3.55    0.34
  -2   2   9    0.92    0.18
   2  -2  -9    0.80    0.18
   2   2  -9    0.76    0.17
  -2   2   9    0.44    0.12
   2   2  -9    0.80    0.18
   2  -2  -9    0.79    0.18
  -2   2   8    8.47    0.51
   2  -2  -8    9.35    0.42
  -2   2   8    8.72    0.44
   2   2  -8    8.88    0.50
   2  -2  -8    8.88    0.50
   2   2  -8    8.59    0.52
   2  -2  -8    8.27    0.52
  -2   2   7   60.53    1.26
   2  -2  -7   59.28    1.16
   2   2  -7   60.86    1.18
   2  -2  -7   59.53    1.07
   2  -2  -7   60.30    1.28
  -2   2   7   58.32    1.06
   2   2  -7   60.35    1.27
   2  -2  -7   61.49    1.31
  -2   2   6    0.06    0.07
   2  -2  -6    0.14    0.06
   2  -2  -6   -0.01    0.07
   2   2  -6    0.00    0.10
   2  -2  -6   -0.02    0.09
   2   2  -6    0.02    0.07
  -2   2   6    0.04    0.06
   2   2  -6    0.11    0.07
   2  -2  -6    0.06    0.08
   2   2  -5  112.13    1.24
  -2   2   5  112.38    1.42
  -2   2   5  116.31    1.30
   2   2  -5  113.57    1.42
  -2  -2   5  115.34    1.31
   2  -2  -5  114.27    1.42
   2  -2  -5  116.66    1.33
   2  -2  -5  117.65    1.20
   2  -2  -5  113.76    1.46
   2   2  -5  111.74    1.00
  -2   2   4   32.28    0.67
   2   2  -4   33.36    0.68
   2  -2  -4   33.00    0.62
   2  -2  -4   33.21    0.65
  -2  -2   4   32.27    0.64
   2  -2  -4   32.40    0.66
   2   2  -4   32.52    0.53
   2  -2  -4   31.98    0.45
   2  -2  -4   32.45    0.68
  -2   2   4   32.23    0.63
  -2  -2   4   32.53    0.64
  -2   2   4   32.76    0.63
  -2   2   4   32.93    0.65
   2   2  -4   33.01    0.63
  -2  -2   4   31.46    0.25
  -2  -2   4   31.06    0.26
   2  -2  -3   61.43    0.84
  -2   2   3   58.86    0.81
   2  -2  -3   59.19    0.81
  -2  -2   3   61.06    0.80
   2  -2  -3   61.36    0.81
  -2   2   3   58.59    0.78
   2   2  -3   59.38    0.82
  -2   2   3   62.88    0.82
   2  -2  -3   59.09    0.66
   2   2  -3   59.68    0.69
  -2  -2   3   59.21    0.56
  -2  -2   3   59.92    0.81
   2   2  -3   60.20    0.78
  -2   2   3   60.41    0.52
   2   2  -3   60.17    0.82
  -2   2   3   60.74    0.80
  -2   2   2    0.62    0.08
   2  -2  -2    0.57    0.08
  -2  -2   2    0.62    0.08
   2   2  -2    0.60    0.08
   2  -2  -2    0.71    0.08
  -2   2   2    0.62    0.08
  -2   2   2    0.68    0.09
   2  -2  -2    0.65    0.09
  -2   2   2    0.65    0.07
   2  -2  -2    0.82    0.08
   2   2  -2    0.53    0.08
   2  -2  -2    0.66    0.09
   2   2  -2    0.54    0.08
   2  -2  -1    6.00    0.21
  -2  -2   1    5.94    0.18
  -2  -2   1    6.03    0.23
   2  -2  -1    6.15    0.24
   2   2  -1    5.85    0.23
  -2   2   1    5.82    0.22
   2   2  -1    6.49    0.21
  -2   2   1    6.15    0.22
  -2   2   1    6.46    0.23
   2   2   0  269.09    1.57
  -2  -2   0  271.83    0.96
  -2   2   0  269.02    1.45
   2  -2   0  268.22    1.52
   2   2   0  269.64    1.16
  -2   2   0  267.45    1.54
   2  -2   0  268.17    1.59
  -2   2  -1    0.22    0.06
  -2  -2  -1    0.20    0.06
  -2   2  -1    0.18    0.05
  -2   2  -1    0.13    0.05
  -2  -2  -1    0.13    0.02
   2  -2   1    0.06    0.03
   2   2   1    0.14    0.04
   2   2   1    0.16    0.05
   2  -2   1    0.09    0.04
  -2   2  -1    0.15    0.05
  -2  -2  -1    0.15    0.04
   2  -2   1    0.08    0.04
   2  -2   1    0.06    0.04
  -2  -2  -2    0.09    0.05
  -2  -2  -2    0.07    0.05
  -2   2  -2    0.09    0.06
  -2   2  -2    0.06    0.04
  -2   2  -2    0.12    0.06
   2   2   2    0.09    0.05
   2  -2   2    0.03    0.04
   2   2   2    0.08    0.05
   2  -2   2    0.29    0.06
  -2   2  -2    0.15    0.05
  -2  -2  -2    0.10    0.05
  -2   2  -2    0.05    0.04
   2  -2   2    0.27    0.07
   2  -2   2    0.07    0.05
  -2  -2  -3  181.17    1.52
  -2   2  -3  184.96    1.51
   2  -2   3  178.33    1.43
  -2   2  -3  180.36    1.12
   2   2   3  174.96    1.56
   2  -2   3  177.83    1.11
   2   2   3  177.58    0.74
   2   2   3  178.10    1.20
  -2   2  -3  179.00    1.28
  -2   2  -3  179.71    1.42
  -2  -2  -3  181.02    1.43
  -2   2  -3  188.30    1.51
  -2  -2  -3  183.25    1.48
   2  -2   3  172.89    1.58
  -2  -2  -4  225.41    1.94
  -2   2  -4  230.97    1.93
   2   2   4  227.48    1.92
   2  -2   4  225.26    1.70
  -2   2  -4  227.60    1.52
  -2   2  -4  229.40    1.39
   2  -2   4  223.62    1.95
  -2  -2  -5    0.66    0.13
  -2   2  -5    0.62    0.13
  -2  -2  -5    0.57    0.14
  -2   2  -5    0.68    0.14
  -2  -2  -5    0.56    0.12
  -2   2  -5    0.71    0.11
   2   2   5    0.41    0.11
  -2   2  -6  114.74    1.67
  -2  -2  -6  115.36    1.69
  -2   2  -6  113.62    1.36
   2   2   6  110.13    1.54
  -2  -2  -6  116.79    1.73
  -2   2  -6  112.78    1.71
  -2  -2  -6  116.51    1.70
  -2   2  -7    1.14    0.19
  -2  -2  -7    1.34    0.21
  -2  -2  -7    1.29    0.22
  -2   2  -7    0.95    0.19
  -2  -2  -7    1.44    0.22
  -2   2  -7    1.14    0.16
   2   2   7    0.98    0.17
   2   2   8    4.84    0.39
   2  -2   8    5.06    0.40
  -2  -2  -8    4.74    0.37
  -2   2  -8    4.58    0.29
   2   2   8    4.65    0.34
  -2  -2  -8    4.90    0.41
  -2   2  -8    4.69    0.40
   2   2   9    5.30    0.40
   2  -2   9    5.76    0.42
  -2  -2  -9    5.28    0.37
   2   2  10    6.98    0.41
   2  -2  10    7.90    0.44
  -2  -2 -10    6.83    0.34
  -2   2 -10    7.26    0.38
  -2  -2 -10    6.68    0.37
  -2  -3  11   13.65    0.54
   2  -3 -11   12.41    0.50
   2  -3 -11   13.04    0.53
  -2   3  11   12.50    0.45
   2   3 -11   13.12    0.50
  -2   3  11   12.50    0.42
   2   3 -11   13.39    0.54
  -2   3  10   77.62    1.35
  -2   3  10   78.75    1.29
   2   3 -10   80.15    1.47
   2  -3 -10   75.84    1.44
   2  -3 -10   79.68    1.47
   2   3 -10   79.20    1.47
   2   3  -9    6.86    0.45
  -2   3   9    6.76    0.45
   2  -3  -9    6.82    0.35
   2  -3  -9    7.39    0.47
  -2   3   9    7.29    0.43
   2  -3  -9    7.22    0.48
   2   3  -9    7.05    0.47
   2  -3  -8   39.39    1.03
   2   3  -8   39.17    1.02
  -2   3   8   38.93    1.06
   2  -3  -8   39.72    0.93
   2  -3  -8   37.63    1.08
  -2   3   8   37.95    0.95
   2   3  -8   37.45    1.06
   2  -3  -8   38.81    1.10
   2   3  -7    7.90    0.46
  -2   3   7    8.46    0.48
   2   3  -7    8.27    0.43
   2  -3  -7    7.87    0.47
   2  -3  -7    7.81    0.41
  -2   3   7    8.75    0.43
   2  -3  -7    8.46    0.44
   2  -3  -7    7.51    0.46
   2   3  -6   92.30    1.35
  -2   3   6   93.63    1.45
   2  -3  -6   96.24    1.33
   2   3  -6   94.41    1.32
   2  -3  -6   92.12    1.35
   2  -3  -6   92.01    1.45
  -2   3   6   94.66    1.30
   2   3  -6   95.25    1.43
   2  -3  -6   92.89    1.46
  -2   3   5   33.69    0.79
   2  -3  -5   32.49    0.75
   2  -3  -5   31.45    0.75
   2   3  -5   32.49    0.76
   2  -3  -5   31.12    0.77
  -2  -3   5   31.95    0.68
  -2   3   5   32.73    0.68
  -2  -3   5   30.49    0.55
   2  -3  -5   32.26    0.63
   2  -3  -4   11.12    0.40
  -2  -3   4   11.54    0.22
  -2   3   4   10.67    0.40
   2  -3  -4   10.92    0.40
   2  -3  -4   11.19    0.37
  -2   3   4   12.01    0.38
   2  -3  -4   11.31    0.40
   2  -3  -4   11.23    0.31
  -2  -3   4   11.57    0.39
   2   3  -4   10.57    0.37
   2   3  -4   11.28    0.40
  -2  -3   4   11.30    0.37
  -2   3   4   11.26    0.37
   2  -3  -3  105.32    0.78
  -2  -3   3  107.95    1.07
   2   3  -3  108.59    1.08
  -2   3   3  106.50    1.13
   2  -3  -3  101.79    1.11
  -2  -3   3  105.84    1.12
   2  -3  -3  104.16    0.98
  -2   3   3  101.18    1.07
   2   3  -3  103.61    0.88
  -2   3   3  107.54    1.06
  -2  -3   3  102.98    1.05
   2   3  -3  103.70    1.07
   2  -3  -3  104.38    1.11
  -2   3   3  104.50    0.78
  -2   3   3  104.88    1.04
  -2  -3   2   60.14    0.74
  -2   3   2   59.16    0.78
  -2   3   2   57.65    0.66
   2  -3  -2   61.16    0.79
  -2  -3   2   60.56    0.77
   2  -3  -2   58.46    0.75
   2   3  -2   60.08    0.70
  -2   3   2   58.90    0.76
   2   3  -2   58.56    0.71
   2  -3  -2   60.75    0.74
   2  -3  -2   61.47    0.78
   2   3  -2   59.78    0.74
   2  -3  -2   61.93    0.67
   2   3  -2   62.78    0.78
  -2   3   2   60.05    0.73
   2   3  -1  108.07    0.89
  -2   3   1  108.90    1.01
   2  -3  -1  109.73    0.97
  -2  -3   1  110.67    0.96
   2  -3  -1  107.13    1.00
   2   3  -1  108.17    0.97
  -2   3   1  110.08    0.95
  -2   3   1  107.58    1.00
   2  -3  -1  109.79    1.06
  -2   3   1  109.72    0.97
   2  -3  -1  110.73    0.96
   2  -3  -1  108.89    1.00
   2   3  -1  106.63    0.98
  -2  -3   0    1.62    0.06
   2   3   0    1.52    0.12
  -2   3   0    1.72    0.13
   2  -3   0    1.41    0.13
   2  -3   0    1.55    0.13
   2   3   0    1.47    0.12
  -2   3   0    1.68    0.13
  -2   3   0    1.54    0.13
   2  -3   0    1.53    0.12
   2  -3   0    1.55    0.13
  -2  -3  -1   71.71    0.77
  -2   3  -1   73.97    0.82
   2  -3   1   71.39    0.82
  -2   3  -1   72.05    0.77
   2  -3   1   77.30    0.91
   2   3   1   71.79    0.83
  -2   3  -1   74.22    0.82
  -2  -3  -1   74.91    0.80
  -2   3  -1   74.46    0.79
  -2   3  -1   68.58    0.85
   2  -3   1   71.08    0.86
   2  -3   1   73.64    0.88
   2   3   1   72.21    0.84
  -2  -3  -2    0.82    0.11
  -2   3  -2    0.62    0.09
   2  -3   2    1.30    0.13
  -2   3  -2    0.79    0.10
   2  -3   2    0.69    0.09
   2   3   2    0.66    0.09
  -2   3  -2    0.59    0.08
  -2   3  -2    0.87    0.10
  -2  -3  -2    0.72    0.09
  -2   3  -2    1.30    0.12
   2  -3   2    0.88    0.11
  -2   3  -2    0.69    0.10
   2   3   2    0.85    0.10
   2  -3   2    0.71    0.10
  -2   3  -3    0.14    0.05
  -2   3  -3    0.17    0.06
  -2   3  -3    0.10    0.06
   2  -3   3    0.02    0.07
   2   3   3    0.09    0.07
  -2  -3  -3    0.10    0.06
   2  -3   3    0.07    0.06
   2   3   3    0.06    0.05
  -2   3  -3    0.12    0.05
  -2  -3  -3    0.02    0.04
  -2   3  -3    0.08    0.05
  -2  -3  -3    0.17    0.06
   2  -3   3    0.24    0.06
  -2   3  -4   19.44    0.56
   2   3   4   18.48    0.56
  -2  -3  -4   19.46    0.57
  -2   3  -4   18.63    0.42
   2  -3   4   18.54    0.55
   2  -3   4   19.04    0.53
   2   3   4   19.06    0.54
  -2  -3  -5    5.06    0.33
  -2   3  -5    4.87    0.32
   2   3   5    4.52    0.25
  -2  -3  -5    5.01    0.35
   2   3   5    5.01    0.33
  -2  -3  -5    4.91    0.33
  -2   3  -5    4.67    0.32
  -2  -3  -6   48.23    1.09
  -2  -3  -6   47.84    1.13
   2   3   6   48.20    1.08
  -2  -3  -6   49.17    1.12
  -2   3  -6   47.84    1.11
  -2   3  -6   49.47    1.09
   2   3   6   47.99    0.77
  -2  -3  -7   11.31    0.56
  -2  -3  -7   10.88    0.43
   2   3   7   11.08    0.55
   2  -3   7   11.15    0.57
  -2  -3  -7   11.05    0.58
   2   3   7   10.99    0.55
  -2   3  -7   10.87    0.54
  -2  -3  -7   11.41    0.59
  -2   3  -7   11.05    0.58
   2   3   8   29.43    0.93
   2  -3   8   28.09    0.92
  -2  -3  -8   29.02    0.93
   2   3   8   29.05    0.88
  -2   3  -8   27.12    0.93
   2   3   9   11.84    0.57
   2  -3   9   11.47    0.57
  -2  -3  -9   11.45    0.54
   2  -3  10    9.59    0.46
  -2   3 -10    8.46    0.43
   2   3  10    8.92    0.43
  -2  -3 -10    9.01    0.40
  -2   3 -10    8.72    0.40
  -2  -3 -10    8.26    0.39
  -2  -4  11   37.15    0.85
  -2   4  11   33.14    0.64
   2   4 -11   37.51    0.82
  -2   4  11   35.28    0.72
   2   4 -11   35.31    0.75
   2  -4 -11   34.23    0.75
   2  -4 -11   35.55    0.81
  -2   4  10   12.05    0.51
   2   4 -10   11.55    0.54
  -2   4  10   11.67    0.52
   2  -4 -10   11.95    0.55
   2   4 -10   12.09    0.54
   2  -4 -10   11.90    0.54
   2   4  -9   16.76    0.68
  -2   4   9   15.22    0.64
   2  -4  -9   15.89    0.57
  -2   4   9   16.70    0.66
   2   4  -9   17.38    0.70
   2  -4  -9   16.21    0.69
   2  -4  -9   16.44    0.67
   2  -4  -8    2.05    0.24
   2   4  -8    2.65    0.27
  -2   4   8    2.60    0.28
   2  -4  -8    2.36    0.28
   2  -4  -8    2.30    0.24
   2   4  -8    2.50    0.27
   2  -4  -8    2.20    0.26
   2  -4  -7   93.15    1.60
  -2   4   7   96.43    1.60
   2  -4  -7   96.07    1.45
   2   4  -7   93.11    1.42
   2  -4  -7   96.74    1.52
  -2   4   7   93.85    1.47
   2   4  -7   93.51    1.54
   2  -4  -7   94.43    1.59
   2   4  -7   95.92    1.57
  -2   4   6   11.55    0.52
   2   4  -6   12.44    0.52
   2   4  -6   12.05    0.47
   2  -4  -6   12.23    0.52
   2  -4  -6   11.89    0.47
   2  -4  -6   11.91    0.53
  -2   4   6   12.78    0.50
   2   4  -6   11.59    0.50
   2  -4  -6   11.97    0.52
  -2   4   5    0.10    0.07
   2   4  -5    0.04    0.05
   2  -4  -5    0.13    0.06
   2   4  -5    0.10    0.08
   2  -4  -5    0.14    0.07
   2   4  -5    0.21    0.08
   2  -4  -5    0.22    0.08
   2  -4  -5    0.13    0.06
  -2   4   5    0.03    0.05
  -2  -4   4   19.14    0.47
  -2   4   4   20.11    0.57
  -2   4   4   19.79    0.45
   2  -4  -4   19.88    0.57
  -2   4   4   19.43    0.39
   2  -4  -4   19.30    0.52
   2  -4  -4   19.81    0.54
  -2  -4   4   20.35    0.35
  -2  -4   4   20.43    0.51
  -2   4   4   20.98    0.50
   2   4  -4   20.35    0.52
   2  -4  -4   20.40    0.47
   2  -4  -4   20.62    0.33
  -2   4   4   21.16    0.49
  -2  -4   3  271.65    1.68
  -2  -4   3  277.89    1.88
  -2   4   3  276.05    1.94
   2  -4  -3  267.40    1.92
  -2   4   3  267.25    1.73
   2  -4  -3  270.04    1.73
   2   4  -3  264.27    1.69
   2  -4  -3  273.18    1.41
  -2   4   3  268.71    1.65
  -2   4   3  264.31    1.54
  -2   4   3  286.53    1.85
  -2  -4   3  266.21    1.68
  -2   4   3  277.10    1.67
   2  -4  -3  267.94    1.75
  -2  -4   3  275.10    1.47
  -2   4   2   32.05    0.60
  -2   4   2   30.79    0.52
   2  -4  -2   32.06    0.61
   2  -4  -2   31.05    0.59
   2   4  -2   30.43    0.50
   2   4  -2   30.48    0.54
  -2   4   2   31.12    0.59
  -2  -4   2   31.64    0.54
   2  -4  -2   30.97    0.51
  -2  -4   2   32.41    0.59
   2  -4  -2   32.52    0.56
   2  -4  -2   32.72    0.53
   2   4  -2   31.52    0.54
  -2   4   2   32.11    0.62
  -2   4   2   32.30    0.53
  -2   4   1    8.98    0.31
  -2   4   1    9.81    0.33
   2  -4  -1    9.61    0.29
  -2   4   1    9.72    0.33
   2  -4  -1    9.27    0.32
   2  -4  -1    9.96    0.31
   2   4  -1    9.21    0.30
   2  -4  -1   10.19    0.34
  -2  -4   1    9.52    0.21
  -2   4   1    9.47    0.31
   2  -4  -1    9.72    0.31
   2   4  -1    9.37    0.29
  -2  -4   1    9.67    0.28
  -2   4   1    9.22    0.27
  -2  -4   1    9.77    0.29
   2   4   0  119.12    1.03
  -2   4   0  119.09    1.12
  -2   4   0  117.71    1.10
   2   4   0  117.42    1.10
   2  -4   0  122.27    1.19
  -2   4   0  118.33    1.10
  -2  -4   0  117.50    0.86
  -2   4   0  121.04    1.14
   2  -4   0  123.09    1.13
   2  -4   0  120.94    1.05
   2  -4   0  119.74    1.13
  -2  -4  -1    2.16    0.13
  -2   4  -1    1.45    0.11
  -2   4  -1    1.43    0.13
   2  -4   1    1.37    0.14
  -2   4  -1    1.38    0.13
   2  -4   1    1.21    0.13
   2   4   1    1.22    0.11
  -2   4  -1    1.32    0.13
   2   4   1    1.26    0.12
   2  -4   1    1.24    0.12
  -2   4  -1    1.30    0.12
  -2  -4  -1    2.02    0.13
  -2   4  -1    1.99    0.13
   2  -4   1    1.27    0.13
  -2  -4  -2    7.53    0.28
  -2   4  -2    8.01    0.29
  -2   4  -2    8.32    0.32
  -2   4  -2    8.23    0.28
   2   4   2    8.49    0.31
   2  -4   2    7.55    0.29
   2  -4   2    8.46    0.32
   2  -4   2    8.40    0.34
  -2   4  -2    7.83    0.29
  -2  -4  -2    8.28    0.29
  -2   4  -2    8.18    0.31
  -2   4  -2    8.50    0.33
   2  -4   2    8.35    0.33
   2   4   3    1.40    0.15
  -2   4  -3    1.71    0.15
   2  -4   3    1.44    0.16
   2  -4   3    1.22    0.12
   2  -4   3    1.35    0.15
  -2   4  -3    1.51    0.13
  -2  -4  -3    1.73    0.14
  -2   4  -3    1.29    0.13
   2  -4   3    1.46    0.15
  -2  -4  -3    1.77    0.16
  -2  -4  -4    0.46    0.10
  -2   4  -4    0.55    0.10
   2   4   4    0.43    0.09
  -2   4  -4    0.53    0.12
   2   4   4    0.42    0.10
   2  -4   4    0.37    0.08
   2   4   4    0.51    0.11
  -2   4  -4    0.41    0.08
  -2   4  -5   38.88    0.87
  -2  -4  -5   35.90    0.86
  -2  -4  -5   38.04    0.87
   2   4   5   38.28    0.84
   2  -4   5   38.23    0.87
  -2  -4  -5   36.89    0.95
  -2   4  -5   36.23    0.87
   2   4   5   36.33    0.90
   2   4   5   34.99    0.74
  -2   4  -6   31.20    0.85
  -2  -4  -6   31.45    0.86
  -2  -4  -6   29.08    0.85
   2   4   6   31.52    0.83
   2  -4   6   31.70    0.87
  -2  -4  -6   31.06    0.94
   2   4   6   30.25    0.89
  -2   4  -6   31.12    0.88
   2   4   6   29.94    0.67
  -2   4  -7   15.09    0.62
  -2  -4  -7   15.41    0.63
  -2  -4  -7   14.74    0.54
   2   4   7   15.20    0.63
   2  -4   7   14.69    0.64
  -2  -4  -7   14.87    0.68
   2   4   7   16.13    0.69
  -2  -4  -7   13.43    0.63
  -2   4  -7   14.94    0.66
   2   4   8    0.57    0.16
   2  -4   8    0.32    0.12
  -2  -4  -8    0.50    0.15
   2   4   8    0.29    0.12
   2   4   9    0.09    0.07
   2  -4   9    0.27    0.10
  -2  -4  -9    0.12    0.09
   2   4   9    0.18    0.10
  -2   4  -9    0.10    0.08
  -2  -4  -9    0.15    0.08
  -2   4 -10    3.02    0.26
   2   4  10    3.31    0.25
   2  -4  10    3.08    0.25
  -2  -4 -10    2.88    0.23
  -2   4 -10    2.83    0.21
  -2  -4 -10    3.01    0.22
  -2  -5  11    7.43    0.36
   2   5 -11    6.98    0.32
  -2   5  11    6.94    0.33
   2   5 -11    6.37    0.27
   2  -5 -11    6.19    0.30
   2  -5 -10    7.32    0.39
  -2   5  10    7.66    0.42
   2   5 -10    6.32    0.35
   2  -5 -10    6.51    0.37
  -2   5  10    6.69    0.36
   2   5 -10    6.71    0.38
   2  -5 -10    7.19    0.31
  -2   5   9    0.54    0.13
   2  -5  -9    0.38    0.11
   2  -5  -9    0.32    0.12
   2   5  -9    0.20    0.10
  -2   5   9    0.15    0.11
   2   5  -9    0.23    0.10
   2  -5  -9    0.24    0.11
  -2   5   8   35.99    0.99
   2  -5  -8   36.58    0.94
   2  -5  -8   36.55    0.97
   2  -5  -8   37.82    1.00
   2   5  -8   35.50    0.92
   2  -5  -8   35.93    1.03
  -2   5   8   37.04    1.01
   2   5  -8   35.70    0.96
   2  -5  -7   38.53    0.90
   2   5  -7   39.97    0.91
  -2   5   7   40.69    1.04
   2  -5  -7   40.00    1.02
   2  -5  -7   38.56    1.02
  -2   5   7   39.24    0.99
   2   5  -7   40.30    1.07
   2   5  -7   39.63    0.97
   2  -5  -7   39.36    0.99
   2  -5  -6    8.02    0.38
   2   5  -6    8.12    0.38
   2   5  -6    8.37    0.45
   2  -5  -6    8.07    0.45
  -2   5   6    7.87    0.44
   2  -5  -6    8.73    0.45
  -2   5   6    8.36    0.43
   2   5  -6    8.47    0.41
   2  -5  -6    7.68    0.41
   2   5  -5   35.06    0.83
  -2   5   5   36.20    0.86
   2  -5  -5   34.17    0.64
   2   5  -5   35.31    0.66
   2  -5  -5   34.93    0.87
   2  -5  -5   34.31    0.79
   2  -5  -5   36.28    0.63
  -2   5   5   35.38    0.79
   2   5  -5   35.89    0.76
   2  -5  -5   34.42    0.78
  -2   5   5   34.72    0.61
  -2   5   4    6.31    0.34
  -2   5   4    6.38    0.26
  -2   5   4    5.82    0.28
  -2  -5   4    6.24    0.22
   2  -5  -4    6.37    0.35
   2  -5  -4    5.82    0.29
   2  -5  -4    6.46    0.29
  -2   5   4    6.28    0.22
  -2  -5   4    5.78    0.27
  -2  -5   4    6.63    0.28
  -2   5   4    6.30    0.27
   2   5  -4    6.06    0.29
   2  -5  -4    6.35    0.30
  -2  -5   4    6.30    0.26
  -2   5   3   17.98    0.53
  -2   5   3   16.76    0.48
   2  -5  -3   17.59    0.53
   2  -5  -3   17.13    0.48
  -2   5   3   16.64    0.40
  -2  -5   3   16.81    0.42
  -2  -5   3   17.31    0.42
  -2   5   3   17.12    0.41
   2   5  -3   16.71    0.41
   2  -5  -3   16.05    0.41
  -2  -5   3   16.79    0.40
   2  -5  -3   17.51    0.40
  -2  -5   3   16.67    0.40
  -2   5   3   17.27    0.40
   2   5  -3   17.03    0.34
  -2   5   2   11.77    0.38
  -2   5   2   11.04    0.39
   2  -5  -2   11.37    0.32
   2  -5  -2   11.71    0.39
  -2  -5   2   12.06    0.38
   2  -5  -2   11.74    0.40
  -2  -5   2   11.41    0.30
  -2  -5   2   11.23    0.31
  -2   5   2   11.66    0.32
  -2   5   2   11.91    0.35
   2   5  -2   11.21    0.29
   2  -5  -2   11.52    0.29
  -2   5   2   11.46    0.35
   2  -5  -2   11.69    0.34
  -2   5   2   11.36    0.40
   2   5  -2   11.56    0.32
   2   5  -2   11.88    0.33
  -2  -5   2   11.63    0.32
  -2   5   2   11.93    0.32
   2   5  -1    3.65    0.20
  -2  -5   1    3.24    0.18
  -2   5   1    3.49    0.22
  -2   5   1    3.08    0.20
   2  -5  -1    3.24    0.20
   2  -5  -1    3.48    0.22
  -2   5   1    3.31    0.20
   2  -5  -1    3.97    0.23
  -2   5   1    3.06    0.19
  -2  -5   1    3.44    0.13
  -2   5   1    3.53    0.20
   2  -5  -1    3.22    0.19
   2  -5  -1    3.44    0.17
   2   5  -1    3.50    0.17
  -2  -5   1    3.38    0.17
  -2   5   1    3.39    0.16
  -2   5   0   59.37    0.89
  -2  -5   0   56.48    0.64
  -2   5   0   58.38    0.86
   2  -5   0   56.97    0.69
   2  -5   0   59.12    0.88
   2  -5   0   59.27    0.88
  -2   5   0   58.45    0.82
  -2  -5   0   59.36    0.67
  -2   5   0   58.14    0.66
  -2   5   0   56.85    0.81
  -2   5   0   57.02    0.83
   2  -5   0   58.58    0.84
   2  -5   0   57.60    0.71
   2   5   0   57.30    0.69
  -2  -5  -1   65.89    0.69
  -2   5  -1   67.70    0.68
   2  -5   1   68.60    0.93
  -2   5  -1   71.81    0.97
   2  -5   1   68.32    0.98
  -2   5  -1   70.92    0.91
  -2   5  -1   70.16    0.75
  -2  -5  -1   67.17    0.75
  -2   5  -1   68.63    0.91
  -2   5  -1   68.57    0.95
   2  -5   1   68.63    0.94
   2   5   1   69.19    0.79
   2  -5   1   67.11    0.81
  -2  -5  -2    0.99    0.11
  -2   5  -2    0.87    0.10
  -2   5  -2    0.99    0.13
  -2   5  -2    1.01    0.12
   2  -5   2    0.93    0.12
   2  -5   2    0.78    0.13
  -2   5  -2    1.03    0.10
  -2  -5  -2    0.85    0.10
   2  -5   2    1.02    0.12
   2  -5   2    0.89    0.12
   2   5   2    0.96    0.13
   2   5   2    0.91    0.11
  -2  -5  -3   34.62    0.66
  -2   5  -3   33.91    0.56
   2  -5   3   32.48    0.65
  -2   5  -3   33.75    0.64
   2   5   3   34.52    0.76
   2  -5   3   35.03    0.64
   2   5   3   34.36    0.65
  -2  -5  -3   33.96    0.56
  -2   5  -3   33.71    0.64
   2   5   3   35.08    0.76
  -2  -5  -4   10.66    0.42
   2   5   4   10.26    0.36
   2  -5   4    9.72    0.36
   2   5   4   10.45    0.46
  -2   5  -4   10.29    0.40
   2   5   4   10.41    0.43
  -2   5  -5   90.27    1.28
   2   5   5   90.69    1.28
   2  -5   5   88.69    1.31
  -2  -5  -5   90.80    1.54
   2   5   5   87.96    1.46
  -2  -5  -5   89.58    1.30
   2   5   5   87.00    1.24
  -2   5  -6    1.47    0.19
   2   5   6    1.55    0.17
  -2  -5  -6    1.78    0.21
   2   5   6    1.87    0.21
  -2  -5  -6    1.64    0.23
   2  -5   6    1.28    0.18
   2   5   6    1.75    0.24
  -2  -5  -7    5.63    0.36
   2   5   7    5.52    0.37
   2  -5   7    6.17    0.40
  -2  -5  -7    6.50    0.46
   2   5   7    5.96    0.44
  -2  -5  -8    0.12    0.07
   2   5   8    0.12    0.09
   2  -5   8    0.07    0.08
  -2  -5  -8    0.23    0.11
   2   5   8    0.17    0.11
   2   5   8    0.27    0.11
  -2   5  -9    5.89    0.41
   2   5   9    5.93    0.36
   2  -5   9    6.02    0.36
  -2  -5  -9    6.31    0.40
   2   5   9    6.30    0.40
  -2   5  -9    5.76    0.33
  -2  -5  -9    5.63    0.33
   2   5  10    0.50    0.09
   2  -5  10    0.32    0.08
  -2  -5 -10    0.23    0.09
  -2   5 -10    0.19    0.08
  -2   6  11   15.87    0.48
  -2  -6  11   15.11    0.47
  -2   6  10    1.14    0.14
   2  -6 -10    1.02    0.13
   2  -6 -10    0.85    0.12
   2   6 -10    1.01    0.14
  -2   6  10    1.22    0.18
   2  -6 -10    0.97    0.14
   2   6 -10    1.15    0.14
  -2   6   9   14.13    0.57
   2  -6  -9   13.85    0.56
  -2   6   9   14.26    0.63
   2   6  -9   13.94    0.53
   2  -6  -9   14.46    0.55
   2  -6  -9   13.93    0.53
   2   6  -9   14.07    0.55
   2   6  -8   50.83    1.04
   2  -6  -8   50.16    1.02
   2  -6  -8   51.20    1.18
  -2   6   8   51.09    1.15
  -2   6   8   50.63    1.20
   2   6  -8   50.41    1.05
   2  -6  -8   51.54    1.08
   2  -6  -7    1.01    0.16
  -2   6   7    0.76    0.15
   2   6  -7    1.02    0.16
   2  -6  -7    1.11    0.19
   2  -6  -7    0.79    0.15
   2  -6  -7    0.92    0.15
   2   6  -7    0.78    0.14
   2   6  -7    0.83    0.21
  -2   6   7    1.19    0.20
   2  -6  -6   12.20    0.42
   2   6  -6   12.85    0.45
  -2   6   6   12.59    0.56
   2  -6  -6   13.41    0.60
   2  -6  -6   12.87    0.54
  -2   6   6   13.47    0.56
   2   6  -6   12.56    0.48
   2  -6  -6   12.27    0.49
   2   6  -6   12.70    0.58
  -2   6   5    7.81    0.42
  -2   6   5    8.30    0.35
   2   6  -5    8.20    0.43
   2  -6  -5    7.91    0.44
   2  -6  -5    7.91    0.37
   2  -6  -5    8.15    0.34
  -2   6   5    8.44    0.41
   2   6  -5    8.18    0.36
   2  -6  -5    7.89    0.36
  -2   6   4  132.33    1.45
  -2   6   4  129.01    1.59
   2  -6  -4  135.43    1.70
   2   6  -4  134.94    1.61
   2  -6  -4  129.98    1.28
   2  -6  -4  135.02    1.44
  -2   6   4  135.03    1.47
   2   6  -4  132.11    1.23
   2  -6  -4  134.73    1.24
   2   6  -3    1.78    0.14
  -2   6   3    1.52    0.17
   2   6  -3    1.61    0.13
  -2  -6   3    1.97    0.15
   2  -6  -3    1.81    0.19
   2   6  -3    1.61    0.17
   2  -6  -3    1.77    0.17
  -2   6   3    1.69    0.17
  -2  -6   3    1.54    0.14
  -2  -6   3    1.49    0.12
  -2   6   3    1.70    0.12
  -2   6   3    1.66    0.14
   2  -6  -3    1.75    0.14
  -2   6   3    1.52    0.12
  -2   6   2   55.73    0.95
  -2  -6   2   54.39    0.81
  -2   6   2   54.62    0.63
   2  -6  -2   56.37    0.95
   2  -6  -2   56.40    0.92
  -2   6   2   54.74    0.93
   2   6  -2   54.34    0.78
  -2  -6   2   55.68    0.66
  -2  -6   2   54.80    0.65
  -2   6   2   55.55    0.65
  -2   6   2   57.50    0.81
  -2  -6   2   55.55    0.80
  -2   6   2   54.07    0.76
   2  -6  -2   55.64    0.81
  -2  -6   2   55.52    0.62
  -2   6   1    1.53    0.16
  -2   6   1    1.39    0.15
  -2   6   1    1.34    0.13
   2  -6  -1    1.45    0.14
   2  -6  -1    1.49    0.16
   2  -6  -1    1.35    0.15
  -2  -6   1    1.52    0.08
  -2   6   1    1.46    0.14
  -2  -6   1    1.96    0.15
   2  -6  -1    1.48    0.11
   2  -6  -1    1.43    0.14
   2   6  -1    1.54    0.11
   2   6  -1    1.50    0.14
   2  -6   0  305.28    2.18
  -2   6   0  316.16    2.22
  -2   6   0  303.80    2.12
   2  -6   0  307.07    2.14
   2  -6   0  313.31    1.71
  -2  -6   0  302.28    1.55
  -2   6   0  307.19    1.99
  -2  -6   0  310.68    1.40
  -2   6   0  308.48    1.40
   2  -6   0  312.31    2.08
   2  -6   0  312.79    1.53
   2   6   0  306.91    1.52
   2   6   0  313.40    2.07
   2  -6   1   41.70    0.82
  -2   6  -1   38.60    0.78
   2  -6   1   41.05    0.79
  -2   6  -1   42.29    0.53
  -2  -6  -1   43.15    0.54
  -2   6  -1   40.57    0.74
  -2  -6  -1   40.14    0.67
  -2  -6  -1   41.97    0.47
   2  -6   1   40.71    0.77
   2   6   1   40.96    0.58
   2  -6   1   40.63    0.59
   2   6   1   40.61    0.79
  -2  -6  -2   39.59    0.56
  -2   6  -2   39.62    0.56
  -2   6  -2   39.77    0.82
   2  -6   2   38.63    0.76
  -2   6  -2   38.53    0.53
  -2  -6  -2   38.14    0.60
   2   6   2   39.46    0.60
   2  -6   2   39.33    0.61
   2   6   2   39.77    0.83
  -2  -6  -3    0.24    0.07
  -2   6  -3    0.33    0.07
  -2   6  -3    0.09    0.07
   2   6   3    0.17    0.07
   2  -6   3    0.10    0.06
   2   6   3    0.14    0.09
  -2   6  -4   49.68    0.85
  -2  -6  -4   51.91    0.88
  -2  -6  -4   51.33    1.10
   2   6   4   51.77    1.07
   2  -6   4   50.38    0.73
   2   6   4   50.00    1.00
  -2  -6  -5    1.35    0.17
  -2   6  -5    1.18    0.15
   2   6   5    0.94    0.13
   2  -6   5    1.17    0.16
  -2  -6  -5    1.03    0.19
   2   6   5    1.22    0.19
   2   6   5    1.29    0.17
   2   6   6   37.42    0.83
   2   6   6   36.47    0.86
   2  -6   6   34.53    0.86
  -2  -6  -6   35.14    1.04
   2   6   6   37.44    1.06
  -2   6  -7   17.55    0.77
  -2  -6  -7   17.75    0.65
   2   6   7   17.38    0.61
   2  -6   7   17.21    0.62
  -2  -6  -7   17.73    0.75
   2   6   7   17.71    0.76
  -2   6  -8   38.83    1.10
  -2  -6  -8   36.38    0.82
   2   6   8   35.90    0.86
   2  -6   8   36.08    0.86
  -2  -6  -8   37.14    1.04
   2   6   8   36.90    1.05
   2   6   8   37.20    0.85
  -2   6  -8   36.72    0.84
  -2  -6  -8   37.00    0.83
  -2   6  -9    2.92    0.28
   2   6   9    2.59    0.21
   2  -6   9    3.00    0.23
  -2  -6  -9    2.90    0.27
   2   6   9    2.92    0.27
  -2   6  -9    2.25    0.18
  -2   6 -10    5.22    0.30
  -2  -6 -10    5.72    0.29
   2  -7 -10    0.78    0.12
  -2   7  10    1.08    0.16
  -2   7   9   25.60    0.69
   2  -7  -9   26.42    0.76
  -2   7   9   26.03    0.84
   2   7  -9   24.20    0.61
  -2   7   8    5.93    0.38
   2  -7  -8    5.67    0.40
   2   7  -8    5.60    0.32
  -2   7   8    5.70    0.41
  -2   7   7   65.67    1.30
   2   7  -7   68.69    1.48
   2  -7  -7   67.76    1.42
   2  -7  -7   66.63    1.25
  -2   7   7   66.76    1.36
   2   7  -7   63.56    1.06
  -2   7   6    7.88    0.45
   2   7  -6    7.74    0.47
   2  -7  -6    8.00    0.49
   2  -7  -6    7.65    0.40
  -2   7   6    7.35    0.43
   2   7  -6    7.58    0.36
  -2   7   5   16.93    0.54
  -2   7   5   16.25    0.62
   2   7  -5   17.73    0.67
   2  -7  -5   17.23    0.68
   2  -7  -5   17.75    0.54
   2  -7  -5   16.56    0.52
  -2   7   5   17.50    0.60
   2   7  -5   17.11    0.52
  -2   7   4   29.70    0.75
  -2   7   4   30.19    0.80
   2  -7  -4   30.90    0.86
   2  -7  -4   30.84    0.75
  -2   7   4   29.61    0.72
   2   7  -4   29.57    0.81
   2   7  -4   29.25    0.66
   2   7  -3   47.14    0.72
  -2   7   3   48.10    0.96
  -2   7   3   44.99    0.93
   2  -7  -3   46.75    0.98
   2   7  -3   46.52    0.96
   2  -7  -3   47.74    0.95
  -2   7   3   45.74    0.78
  -2   7   3   47.16    0.68
  -2  -7   3   45.66    0.70
   2   7  -3   46.14    0.79
   2  -7  -3   46.15    0.71
   2   7  -2    0.36    0.08
  -2   7   2    0.34    0.10
  -2   7   2    0.55    0.11
   2  -7  -2    0.40    0.10
   2  -7  -2    0.61    0.12
   2   7  -2    0.42    0.09
  -2   7   2    0.63    0.10
  -2  -7   2    0.48    0.09
   2  -7  -2    0.31    0.08
  -2   7   1   29.35    0.74
  -2   7   1   29.79    0.72
   2   7  -1   29.20    0.65
   2  -7  -1   28.55    0.63
   2   7  -1   28.89    0.71
   2  -7  -1   29.54    0.75
  -2   7   1   29.00    0.61
  -2  -7   1   26.83    0.51
   2  -7  -1   28.69    0.64
  -2  -7   0    2.52    0.15
  -2   7   0    2.53    0.23
  -2   7   0    2.66    0.22
   2  -7   0    2.79    0.18
   2  -7   0    2.59    0.23
   2   7   0    2.57    0.22
   2   7   0    2.99    0.22
   2   7   0    2.50    0.21
  -2   7  -1  204.93    1.95
  -2   7  -1  204.20    1.93
   2   7   1  206.39    1.93
   2  -7   1  202.66    1.92
   2   7   1  204.83    1.97
  -2   7  -2   52.93    0.93
  -2   7  -2   52.98    1.02
   2   7   2   52.02    0.93
   2  -7   2   52.25    0.95
   2   7   2   52.67    1.04
  -2   7  -3    2.11    0.22
   2   7   3    1.85    0.21
   2   7   3    2.06    0.21
   2  -7   3    1.79    0.17
  -2   7  -4   13.86    0.58
  -2  -7  -4   13.50    0.59
   2   7   4   13.37    0.57
   2  -7   4   13.72    0.42
   2   7   4   12.92    0.54
   2   7   5   37.21    0.91
  -2   7  -5   37.55    1.05
  -2  -7  -5   37.65    1.04
   2   7   5   37.62    1.03
   2   7   6    8.81    0.42
  -2   7  -6    9.34    0.55
  -2  -7  -6    9.21    0.54
   2   7   6    9.12    0.54
  -2   7  -7    3.59    0.35
  -2  -7  -7    3.42    0.30
  -2  -7  -7    3.53    0.34
   2   7   7    3.28    0.34
  -2   7  -8    0.35    0.13
  -2  -7  -8    0.35    0.10
  -2  -7  -8    0.35    0.13
   2   7   8    0.47    0.14
   2   7   8    0.34    0.10
  -2   7  -9   51.12    1.08
   2   7   9   50.60    0.74
  -2  -7  -9   51.94    1.01
   2   7   9   52.05    1.07
   2  -8 -10    5.15    0.25
  -2   8  10    5.80    0.33
  -2   8   9    4.27    0.24
   2  -8  -9    4.96    0.33
  -2   8   9    4.35    0.33
  -2   8   8   35.49    0.85
   2  -8  -8   35.28    0.98
  -2   8   8   35.85    1.01
   2   8  -7    0.31    0.10
  -2   8   7    0.35    0.11
   2  -8  -7    0.38    0.13
   2   8  -7    0.37    0.17
  -2   8   7    0.38    0.13
  -2   8   6   22.32    0.60
   2   8  -6   24.62    0.87
   2  -8  -6   21.44    0.81
  -2   8   6   21.83    0.73
  -2   8   6   22.29    0.76
   2   8  -6   21.93    0.67
   2   8  -5    0.11    0.09
  -2   8   5    0.15    0.08
  -2   8   5    0.26    0.10
   2  -8  -5    0.16    0.11
   2   8  -5    0.15    0.10
   2  -8  -5    0.12    0.09
  -2   8   5    0.25    0.09
   2   8  -4   15.14    0.62
  -2   8   4   15.28    0.59
   2  -8  -4   14.77    0.62
   2  -8  -4   16.00    0.58
  -2   8   4   14.84    0.58
  -2   8   4   15.26    0.53
   2   8  -4   14.93    0.54
   2   8  -3   57.63    0.88
  -2   8   3   55.84    1.13
  -2   8   3   58.25    1.11
   2  -8  -3   57.45    1.13
   2   8  -3   56.33    1.14
   2  -8  -3   58.57    1.14
  -2   8   3   57.87    0.93
   2   8  -3   57.54    1.02
   2   8  -2    1.69    0.17
   2  -8  -2    1.90    0.20
   2   8  -2    1.79    0.21
   2  -8  -2    1.84    0.21
  -2   8   2    1.72    0.21
  -2   8   2    1.74    0.14
  -2   8   2    1.88    0.20
   2   8  -2    1.71    0.19
   2   8  -1    1.96    0.19
  -2   8   1    2.09    0.22
   2  -8  -1    2.18    0.19
   2   8  -1    2.23    0.17
   2   8  -1    1.76    0.20
   2   8  -1    1.87    0.20
  -2   8   0   42.10    0.95
   2   8   0   42.50    0.91
   2  -8   0   43.75    0.68
   2   8   0   40.88    0.92
   2  -8   0   40.72    0.95
   2   8   0   41.97    0.90
  -2   8   0   41.45    0.90
  -2   8   0   41.47    0.70
  -2   8  -1    6.32    0.37
  -2   8  -1    6.01    0.36
   2   8   1    5.51    0.28
   2  -8   1    6.15    0.37
   2   8   1    6.00    0.37
  -2   8  -1    5.69    0.30
   2   8   1    6.18    0.37
   2   8   2    7.59    0.42
  -2   8  -2    7.74    0.42
  -2   8  -2    7.61    0.40
   2   8   2    7.92    0.39
   2  -8   2    7.59    0.39
   2   8   3   15.17    0.61
  -2   8  -3   15.76    0.60
   2   8   3   15.05    0.57
   2  -8   3   14.58    0.51
  -2   8  -4   80.14    1.47
   2   8   4   78.13    1.39
  -2  -8  -4   80.76    1.45
   2   8   4   79.55    1.42
   2  -8   4   79.74    1.07
   2   8   5   21.06    0.71
  -2  -8  -5   22.18    0.80
   2   8   5   20.73    0.78
  -2   8  -6    8.52    0.53
   2   8   6    8.61    0.43
  -2  -8  -6    8.64    0.51
   2   8   6    8.81    0.53
  -2  -8  -7    6.61    0.41
  -2  -8  -7    5.84    0.41
   2   8   7    6.70    0.46
  -2   8  -7    6.43    0.46
  -2   8  -8   14.96    0.64
  -2  -8  -8   14.80    0.51
  -2  -8  -8   15.26    0.60
   2   8   8   15.31    0.64
   2   8   8   14.43    0.54
  -2   8  -9    0.63    0.12
  -2  -8  -9    0.73    0.12
   2   8   9    0.74    0.09
  -2   9  10   17.45    0.52
   2  -9  -9    5.21    0.32
  -2   9   9    5.43    0.35
  -2   9   8   19.93    0.55
   2  -9  -8   18.27    0.69
  -2   9   8   20.35    0.73
  -2   9   7   28.62    0.77
   2   9  -7   29.24    0.98
   2  -9  -7   28.50    0.93
  -2   9   7   28.42    0.89
   2   9  -7   28.06    0.74
  -2   9   6   63.21    1.21
   2   9  -6   63.67    1.44
   2  -9  -6   64.27    1.42
  -2   9   6   64.09    1.29
   2   9  -6   62.58    1.17
   2   9  -5   14.70    0.57
  -2   9   5   14.33    0.57
  -2   9   5   15.04    0.60
   2   9  -5   14.54    0.67
   2  -9  -5   14.95    0.67
   2  -9  -5   14.74    0.56
  -2   9   5   15.62    0.60
  -2   9   4    4.38    0.34
  -2   9   4    4.50    0.33
   2  -9  -4    4.25    0.35
   2   9  -4    4.51    0.36
   2  -9  -4    4.54    0.33
  -2   9   4    4.49    0.30
   2   9  -4    4.82    0.33
  -2   9   3   46.55    1.10
  -2   9   3   43.93    1.00
   2  -9  -3   44.38    1.03
   2   9  -3   43.69    1.07
   2  -9  -3   45.09    1.06
   2   9  -3   44.41    0.83
  -2   9   3   44.30    0.84
   2   9  -3   44.67    0.97
   2   9  -2    8.69    0.40
  -2   9   2    9.07    0.49
   2  -9  -2    8.81    0.42
   2   9  -2    8.59    0.47
   2  -9  -2    8.52    0.47
  -2   9   2    8.61    0.44
   2   9  -2    9.00    0.44
  -2   9   1   42.63    1.03
   2  -9  -1   42.70    0.82
  -2   9   1   41.23    0.95
   2   9  -1   41.00    0.76
   2   9  -1   42.99    1.02
   2   9  -1   42.78    0.93
   2  -9  -1   42.98    1.05
   2   9  -1   43.81    0.97
   2   9   0    3.92    0.30
  -2   9   0    3.88    0.32
  -2   9   0    3.75    0.30
   2   9   0    4.09    0.32
   2  -9   0    3.75    0.31
   2   9   0    4.03    0.31
  -2   9   0    4.19    0.27
   2   9   1    5.25    0.36
  -2   9  -1    5.66    0.37
  -2   9  -1    5.47    0.36
   2   9   1    6.25    0.41
   2  -9   1    5.51    0.37
  -2   9  -1    5.96    0.35
   2   9   2   41.32    1.04
  -2   9  -2   38.76    0.98
   2   9   2   38.85    0.87
   2  -9   2   39.88    0.95
   2   9   2   39.73    1.05
  -2   9  -2   40.63    0.95
   2   9   3    3.20    0.31
  -2  -9  -3    3.06    0.28
   2   9   3    2.89    0.27
   2  -9   3    3.10    0.26
  -2   9  -3    3.28    0.30
  -2   9  -4    5.39    0.40
   2   9   4    4.58    0.36
  -2  -9  -4    5.04    0.37
   2   9   4    4.78    0.36
   2  -9   4    4.89    0.28
  -2   9  -5   30.21    0.98
   2   9   5   30.26    0.88
  -2  -9  -5   30.54    0.92
   2   9   5   30.69    0.95
  -2   9  -6   10.47    0.58
   2   9   6    9.45    0.45
  -2  -9  -6   10.05    0.54
  -2  -9  -6    9.95    0.53
   2   9   6   10.25    0.57
  -2  -9  -7    9.04    0.47
  -2  -9  -7    9.42    0.48
   2   9   7    8.96    0.51
  -2   9  -7    9.48    0.53
  -2  -9  -8    4.38    0.27
  -2  -9  -8    4.14    0.29
   2   9   8    4.21    0.32
   2   9   8    4.09    0.28
  -2   9  -8    4.46    0.33
   2   9   9    8.46    0.28
   2   9   9    9.27    0.40
  -2   9  -9    9.60    0.39
   2 -10  -9   12.79    0.45
  -2  10   9   13.11    0.49
   2 -10  -8    0.33    0.11
  -2  10   8    0.42    0.11
  -2  10   7   45.65    0.86
   2  10  -7   47.82    1.22
  -2  10   7   46.18    1.09
   2  10  -7   44.01    0.90
  -2  10   6    0.31    0.11
   2 -10  -6    0.31    0.12
   2  10  -6    0.20    0.14
  -2  10   6    0.36    0.12
   2  10  -6    0.51    0.14
  -2  10   5   29.00    0.83
  -2  10   5   28.55    0.80
   2  10  -5   28.03    0.95
   2 -10  -5   29.46    0.95
   2 -10  -5   29.48    0.80
  -2  10   5   29.61    0.82
   2  10  -5   28.14    0.83
  -2  10   4   43.57    1.09
  -2  10   4   42.49    0.99
   2  10  -4   42.01    1.14
   2 -10  -4   42.53    1.09
   2 -10  -4   42.73    1.04
  -2  10   4   41.82    0.90
   2  10  -4   42.63    1.02
   2  10  -3   15.85    0.52
  -2  10   3   15.75    0.67
  -2  10   3   15.91    0.61
   2 -10  -3   16.25    0.64
   2  10  -3   15.50    0.68
   2 -10  -3   16.25    0.67
  -2  10   3   16.22    0.50
   2  10  -3   16.44    0.64
   2  10  -2   21.04    0.66
  -2  10   2   21.14    0.78
   2 -10  -2   21.92    0.67
   2  10  -2   21.80    0.79
   2 -10  -2   21.72    0.79
  -2  10   2   22.14    0.72
   2  10  -2   21.69    0.73
   2  10  -1   84.91    1.40
   2  10  -1   86.05    1.14
   2 -10  -1   90.39    1.20
   2  10  -1   85.05    1.54
   2 -10  -1   86.49    1.56
  -2  10   1   88.46    1.57
   2  10  -1   84.87    1.46
  -2  10   1   83.79    1.41
  -2  10   1   89.20    1.18
   2  10   0   35.38    0.95
  -2  10   0   36.72    1.00
  -2  10   0   34.06    0.91
   2  10   0   33.42    0.97
   2 -10   0   36.59    1.01
   2  10   0   34.82    0.82
   2  10   0   35.42    0.97
  -2  10   0   34.16    0.82
   2  10   1    3.99    0.34
  -2  10  -1    4.08    0.33
  -2  10  -1    4.21    0.34
   2  10   1    4.09    0.35
   2 -10   1    4.07    0.33
  -2  10  -1    3.74    0.30
   2  10   2    0.21    0.11
  -2 -10  -2    0.07    0.06
   2 -10   2    0.01    0.08
   2  10   2    0.18    0.10
   2  10   2    0.05    0.08
  -2  10  -2    0.08    0.08
   2  10   3    4.60    0.38
  -2  10  -3    4.28    0.36
  -2 -10  -3    4.75    0.34
   2  10   3    4.34    0.32
   2 -10   3    4.66    0.31
   2  10   3    4.53    0.39
   2  10   4    8.18    0.49
  -2 -10  -4    7.90    0.44
   2  10   4    7.27    0.45
   2 -10   4    7.66    0.35
   2  10   4    7.48    0.51
  -2  10  -4    7.98    0.50
   2  10   5    0.90    0.17
  -2  10  -5    0.79    0.17
  -2 -10  -5    0.85    0.18
  -2 -10  -5    0.82    0.16
   2  10   5    0.72    0.16
   2  10   6    5.08    0.32
  -2 -10  -6    4.95    0.37
  -2 -10  -6    5.53    0.36
   2  10   6    5.21    0.39
  -2  10  -6    5.55    0.42
  -2 -10  -7   17.39    0.61
  -2 -10  -7   17.25    0.58
   2  10   7   16.93    0.65
  -2  10  -7   17.58    0.68
  -2 -10  -8    1.96    0.17
   2  10   8    2.36    0.20
  -2 -10  -8    2.14    0.18
   2  10   8    2.29    0.23
  -2  10  -8    2.23    0.22
  -2  11   9    0.04    0.05
   2 -11  -8    1.27    0.17
  -2  11   8    1.34    0.16
   2  11  -7    7.10    0.48
   2 -11  -7    7.21    0.43
  -2  11   7    7.16    0.40
   2  11  -7    6.84    0.34
  -2  11   6   36.76    0.76
   2  11  -6   38.38    1.09
   2 -11  -6   39.02    1.05
  -2  11   6   37.56    0.92
   2  11  -6   35.01    0.88
  -2  11   5    5.30    0.32
   2  11  -5    6.15    0.45
   2 -11  -5    5.78    0.42
   2 -11  -5    6.03    0.36
  -2  11   5    5.41    0.34
  -2  11   5    5.95    0.38
   2  11  -5    6.07    0.39
  -2  11   4   41.57    1.08
  -2  11   4   39.56    0.93
   2  11  -4   39.80    1.13
   2 -11  -4   40.53    1.05
   2 -11  -4   40.45    1.03
  -2  11   4   39.97    0.85
   2  11  -4   40.53    1.03
  -2  11   3    5.20    0.41
   2 -11  -3    4.79    0.34
   2  11  -3    4.86    0.40
  -2  11   3    5.10    0.35
   2 -11  -3    5.10    0.39
   2  11  -3    4.92    0.30
   2  11  -3    4.67    0.36
   2  11  -2   55.06    1.10
  -2  11   2   58.38    1.34
  -2  11   2   57.53    1.17
   2 -11  -2   57.93    1.06
   2  11  -2   57.77    1.34
   2 -11  -2   57.48    1.32
   2  11  -2   56.33    1.25
  -2  11   1   30.98    0.97
   2  11  -1   30.31    0.87
  -2  11   1   29.17    0.84
   2  11  -1   30.29    0.97
   2 -11  -1   28.98    0.95
   2  11  -1   29.22    0.92
  -2  11   1   30.44    0.76
   2  11   0    7.96    0.47
  -2  11   0    7.99    0.49
  -2  11   0    8.12    0.46
   2  11   0    8.40    0.42
   2  11   0    8.36    0.51
   2 -11   0    8.34    0.50
   2  11   0    8.66    0.51
  -2  11   0    8.45    0.43
  -2  11  -1    0.59    0.12
   2  11   1    0.49    0.15
  -2  11  -1    0.59    0.14
   2 -11   1    0.36    0.14
   2  11   1    0.59    0.16
   2  11   2   66.72    1.44
  -2 -11  -2   71.90    1.13
   2  11   2   68.84    1.49
   2 -11   2   68.27    1.31
  -2  11  -2   68.23    1.35
  -2  11  -3    0.81    0.17
   2  11   3    0.61    0.16
  -2 -11  -3    0.78    0.14
   2 -11   3    0.79    0.15
   2  11   3    0.60    0.17
  -2 -11  -4    9.74    0.45
   2  11   4    9.38    0.48
   2  11   4   10.06    0.59
   2  11   4    9.51    0.53
  -2  11  -4    9.93    0.56
   2  11   5    2.17    0.24
  -2 -11  -5    2.28    0.25
  -2 -11  -5    2.28    0.23
   2  11   5    3.08    0.29
   2  11   5    2.50    0.29
  -2  11  -5    2.41    0.28
   2  11   6    5.83    0.33
  -2 -11  -6    6.28    0.39
  -2 -11  -6    5.21    0.31
   2  11   6    5.88    0.38
   2  11   6    5.37    0.40
  -2  11  -6    6.36    0.42
  -2 -11  -7    3.22    0.25
  -2 -11  -7    3.23    0.21
   2  11   7    3.63    0.29
   2  11   7    3.72    0.28
  -2  11  -7    3.60    0.29
   2 -12  -8    2.97    0.21
  -2  12   8    3.02    0.20
   2  12  -7   11.40    0.55
   2 -12  -7   11.40    0.47
  -2  12   7   10.95    0.42
   2  12  -6    1.15    0.17
   2 -12  -6    1.46    0.20
   2  12  -6    1.10    0.19
  -2  12   6    1.05    0.15
   2  12  -5    1.23    0.18
  -2  12   5    1.10    0.14
   2 -12  -5    1.37    0.20
   2  12  -5    1.39    0.22
   2 -12  -5    0.91    0.15
  -2  12   5    1.04    0.15
  -2  12   4   14.78    0.64
  -2  12   4   14.89    0.53
   2  12  -4   15.28    0.70
   2 -12  -4   14.92    0.60
   2 -12  -4   15.87    0.63
   2  12  -4   14.71    0.63
   2  12  -3    0.86    0.18
  -2  12   3    1.10    0.20
  -2  12   3    0.57    0.12
   2 -12  -3    0.83    0.16
   2  12  -3    0.74    0.18
   2 -12  -3    0.91    0.18
   2  12  -2    2.22    0.23
  -2  12   2    2.72    0.30
  -2  12   2    2.35    0.24
   2 -12  -2    2.28    0.21
   2  12  -2    2.40    0.30
   2 -12  -2    2.38    0.28
   2  12  -2    2.43    0.28
   2  12  -1    1.47    0.23
   2  12  -1    1.40    0.20
  -2  12   1    1.49    0.20
  -2  12   1    1.39    0.22
  -2  12   1    1.37    0.17
   2  12  -1    1.72    0.25
   2 -12  -1    1.45    0.23
  -2  12   0    0.30    0.11
  -2  12   0    0.12    0.09
  -2  12   0    0.30    0.12
   2  12   0    0.42    0.11
   2  12   0    0.03    0.08
   2 -12   0    0.16    0.11
   2  12   0    0.28    0.14
   2  12   1   79.53    1.55
   2  12   1   78.36    1.59
   2  12   1   75.08    1.31
   2 -12   1   78.45    1.47
  -2  12  -1   78.92    1.38
   2  12   2    1.94    0.26
   2 -12   2    1.91    0.23
   2  12   2    1.51    0.24
  -2  12  -2    1.72    0.23
   2  12   3   15.25    0.68
  -2 -12  -3   15.63    0.65
   2  12   3   15.34    0.70
   2 -12   3   14.56    0.53
  -2  12  -3   15.57    0.67
  -2 -12  -4    6.20    0.42
   2  12   4    4.98    0.40
   2  12   4    5.61    0.39
  -2  12  -4    5.02    0.38
   2  12   5    1.95    0.21
  -2 -12  -5    1.74    0.22
   2  12   5    1.78    0.24
  -2  12  -5    2.29    0.25
   2  12   6    1.08    0.13
   2  12   6    1.07    0.16
  -2 -12  -6    1.09    0.16
   2  12   6    0.99    0.17
  -2  12  -6    0.99    0.16
  -2 -12  -7   19.91    0.51
   2  12   7   19.92    0.56
   2  12   7   20.87    0.59
  -2  12  -7   21.05    0.60
   2 -13  -7    0.37    0.08
  -2  13   7    0.06    0.06
   2  13  -6    3.38    0.29
   2 -13  -6    3.32    0.25
   2  13  -6    3.16    0.23
   2  13  -5   14.53    0.62
   2 -13  -5   14.52    0.54
   2 -13  -5   13.74    0.46
   2  13  -5   14.06    0.55
   2  13  -4    9.27    0.52
   2 -13  -4    8.83    0.42
   2 -13  -4    9.11    0.45
   2  13  -4    8.71    0.47
  -2  13   3   33.50    0.98
  -2  13   3   31.14    0.73
   2  13  -3   32.47    0.99
   2 -13  -3   33.36    0.75
   2 -13  -3   35.18    0.97
   2  13  -3   34.87    0.99
  -2  13   2    4.87    0.39
  -2  13   2    4.20    0.29
   2  13  -2    4.46    0.30
   2 -13  -2    4.82    0.38
   2  13  -2    4.15    0.36
   2  13  -2    4.21    0.37
   2  13  -1    9.08    0.47
  -2  13   1    9.38    0.45
   2  13  -1    9.52    0.55
   2 -13  -1    9.19    0.53
  -2  13   1   10.25    0.55
   2  13  -1   10.12    0.56
  -2  13   1    9.72    0.42
  -2  13   0    0.70    0.13
   2  13   0    0.61    0.14
   2 -13   0    0.66    0.16
   2  13   0    0.67    0.17
   2  13   1   11.02    0.56
   2  13   1   10.05    0.46
  -2 -13  -1   10.12    0.43
   2  13   1   10.39    0.57
   2 -13   1   10.52    0.53
  -2  13  -1   10.84    0.50
   2  13   2    2.67    0.29
  -2 -13  -2    2.32    0.23
   2  13   2    2.05    0.26
   2  13   2    2.25    0.24
   2 -13   2    2.34    0.24
  -2  13  -2    2.76    0.27
   2  13   3    4.61    0.36
  -2 -13  -3    4.28    0.32
   2  13   3    3.92    0.34
   2 -13   3    3.99    0.26
   2  13   3    4.17    0.32
  -2  13  -3    4.30    0.33
   2  13   4    3.08    0.27
  -2 -13  -4    2.97    0.26
   2  13   4    3.44    0.31
   2  13   4    3.48    0.29
  -2  13  -4    3.28    0.29
   2  13   5   27.63    0.70
  -2 -13  -5   28.53    0.72
   2  13   5   28.74    0.80
   2  13   5   29.35    0.78
  -2  13  -5   28.80    0.79
   2  13   6    1.17    0.15
  -2 -13  -6    1.29    0.14
   2  13   6    1.22    0.15
  -2  13  -6    1.12    0.15
   2  14  -6    0.15    0.07
   2  14  -6    0.68    0.17
   2  14  -5    1.92    0.21
   2 -14  -5    2.12    0.16
   2 -14  -5    1.69    0.14
   2  14  -5    1.70    0.17
   2  14  -4   45.56    1.03
   2 -14  -4   42.90    0.69
   2 -14  -4   45.93    0.88
   2  14  -4   46.57    1.00
   2  14  -3    0.13    0.09
   2  14  -3    0.07    0.07
   2 -14  -3    0.11    0.09
   2  14  -2    0.29    0.08
   2  14  -2    0.41    0.13
   2 -14  -2    0.47    0.14
   2  14  -1    1.56    0.18
   2  14  -1    1.50    0.22
   2 -14  -1    1.09    0.19
   2  14   0   19.76    0.67
   2  14   0   19.83    0.74
   2 -14   0   19.59    0.69
  -2  14   0   19.08    0.59
  -2  14  -1    0.02    0.09
   2  14   1    0.07    0.08
   2  14   1    0.10    0.07
   2  14   1    0.05    0.08
   2 -14   1    0.04    0.07
   2  14   2    8.15    0.45
  -2 -14  -2    7.21    0.33
   2  14   2    8.41    0.47
   2  14   2    7.57    0.37
   2 -14   2    7.78    0.38
  -2  14  -2    8.03    0.41
   2  14   3    3.84    0.30
   2  14   3    3.76    0.27
  -2 -14  -3    3.65    0.25
   2  14   3    3.94    0.31
   2 -14   3    3.85    0.21
  -2  14  -3    3.69    0.28
   2  14   4   48.41    0.92
   2  14   4   48.40    0.92
  -2 -14  -4   46.08    0.83
  -2  14  -4   47.65    0.94
   2  14   4   48.41    0.98
   2  14   5    2.39    0.19
   2  14   5    2.26    0.19
  -2  14  -5    2.32    0.19
   2  15  -4    0.72    0.12
   2  15  -3   22.13    0.65
   2 -15  -3   21.71    0.59
   2  15  -2   10.94    0.48
   2 -15  -2   11.13    0.46
   2  15  -1    2.29    0.19
   2  15  -1    2.19    0.22
   2 -15  -1    2.46    0.23
   2  15   0    1.51    0.17
   2  15   0    1.42    0.18
   2 -15   0    1.47    0.18
   2  15   1   62.25    1.13
   2  15   1   63.56    1.06
   2 -15   1   61.74    1.00
  -2  15  -1   59.75    0.93
   2  15   2    5.69    0.32
   2  15   2    5.45    0.32
   2 -15   2    5.69    0.26
  -2  15  -2    5.69    0.29
  -2  15  -3    0.03    0.05
   2  15   3   -0.02    0.07
   2  15   3    0.03    0.05
   2  15   3   -0.02    0.05
   2  16  -2    2.01    0.17
   2  16  -1    2.82    0.20
   2 -16  -1    2.96    0.20
   2  16   0    5.91    0.29
   2  16   1   13.88    0.42
  -3   0  11   -0.06    0.10
   3   0 -11    0.07    0.07
  -3   0  10   64.76    1.33
   3   0 -10   66.65    1.36
  -3   0   9    0.06    0.10
   3   0  -9    0.07    0.09
  -3   0   9    0.01    0.07
   3   0  -9    0.05    0.09
  -3   0   8   22.00    0.84
   3   0  -8   23.78    0.63
   3   0  -8   22.03    0.81
  -3   0   8   24.06    0.70
   3   0  -8   23.40    0.89
  -3   0   7    0.05    0.08
   3   0  -7    0.06    0.07
   3   0  -7    0.02    0.09
   3   0  -7   -0.03    0.08
  -3   0   6  115.86    1.72
   3   0  -6  114.46    1.45
   3   0  -6  116.22    1.78
  -3   0   5   -0.11    0.07
   3   0  -5    0.17    0.07
   3   0  -5   -0.01    0.06
   3   0  -5    0.03    0.07
   3   0  -5   -0.03    0.07
  -3   0   4    5.44    0.30
   3   0  -4    5.83    0.30
   3   0  -4    5.54    0.25
   3   0  -4    5.39    0.33
  -3   0   3    0.03    0.05
   3   0  -3   -0.02    0.05
   3   0  -3    0.02    0.04
  -3   0   3    0.08    0.05
   3   0  -3    0.00    0.04
  -3   0   3    0.01    0.03
   3   0  -3    0.06    0.05
   3   0  -3    0.09    0.07
  -3   0   2  135.65    1.19
  -3   0   2  127.77    1.31
   3   0  -2  131.95    1.33
   3   0  -2  135.58    1.27
  -3   0   2  128.45    1.15
   3   0  -2  134.29    1.19
   3   0  -2  135.45    1.43
  -3   0   2  132.52    1.14
   3   0  -2  137.06    1.39
  -3   0   1    0.02    0.04
   3   0  -1   -0.02    0.05
  -3   0   1    0.08    0.04
   3   0  -1   -0.04    0.04
  -3   0   1    0.05    0.05
   3   0  -1   -0.01    0.05
   3   0  -1    0.02    0.06
  -3   0   1    0.08    0.05
  -3   0   0    2.72    0.20
   3   0   0    2.48    0.18
  -3   0   0    2.65    0.15
   3   0   0    3.02    0.15
  -3   0   0    2.67    0.19
   3   0   0    2.30    0.19
  -3   0  -1   -0.01    0.05
   3   0   1    0.08    0.06
  -3   0  -1    0.01    0.04
   3   0   1    0.03    0.07
   3   0   1    0.07    0.03
  -3   0  -2   81.80    1.16
   3   0   2   75.57    0.99
  -3   0  -2   79.84    0.71
   3   0   2   78.58    0.80
   3   0   2   77.07    1.13
  -3   0  -3    0.02    0.06
   3   0   3    0.03    0.06
   3   0   3   -0.02    0.04
  -3   0  -4    0.99    0.16
   3   0   4    1.03    0.17
  -3   0  -4    1.04    0.14
   3   0   4    1.19    0.12
  -3   0  -5    0.00    0.08
   3   0   5    0.10    0.09
  -3   0  -5    0.03    0.08
  -3   0  -6   12.04    0.59
   3   0   6   11.81    0.61
  -3   0  -6   12.97    0.54
  -3   0  -7    0.09    0.10
   3   0   7    0.00    0.11
  -3   0  -7    0.05    0.08
  -3   0  -8    6.74    0.43
   3   0   8    7.15    0.49
  -3   0  -8    6.64    0.35
   3   0   9    0.02    0.08
   3   0  10   34.64    0.77
  -3   0 -10   31.99    0.66
  -3  -1  11   53.31    1.01
  -3   1  11   53.33    0.99
   3   1 -11   52.66    0.99
   3  -1 -11   51.15    0.99
   3  -1 -11   51.99    1.04
   3   1 -11   52.56    1.03
  -3  -1  10    0.18    0.11
  -3   1  10    0.12    0.09
   3  -1 -10    0.14    0.11
   3   1 -10    0.10    0.09
  -3   1  10    0.12    0.07
   3   1 -10    0.25    0.10
   3  -1 -10    0.10    0.10
  -3  -1   9    3.59    0.35
  -3   1   9    4.15    0.37
   3  -1  -9    3.64    0.34
   3   1  -9    4.01    0.36
  -3   1   9    3.64    0.28
   3   1  -9    3.95    0.37
   3  -1  -9    4.05    0.38
  -3  -1   8    0.12    0.11
  -3   1   8    0.03    0.11
   3  -1  -8    0.02    0.06
   3  -1  -8    0.09    0.11
   3   1  -8    0.03    0.09
  -3  -1   8    0.11    0.07
  -3   1   8    0.17    0.10
   3   1  -8    0.20    0.11
   3  -1  -8    0.22    0.13
  -3  -1   7  111.27    1.81
  -3   1   7  111.61    1.81
   3  -1  -7  111.39    1.72
   3   1  -7  111.63    1.73
   3  -1  -7  113.17    1.54
   3   1  -7  112.44    1.35
   3   1  -7  112.04    1.85
   3  -1  -7  110.63    1.86
  -3  -1   6    1.00    0.17
  -3   1   6    0.68    0.14
   3  -1  -6    0.94    0.15
   3   1  -6    1.07    0.15
   3   1  -6    1.11    0.17
   3   1  -6    0.89    0.14
   3  -1  -6    0.77    0.15
   3   1  -6    0.92    0.18
   3  -1  -6    0.91    0.18
  -3  -1   5   54.09    1.06
  -3   1   5   54.37    1.08
   3  -1  -5   53.08    1.00
   3   1  -5   52.04    0.92
   3  -1  -5   52.48    0.72
   3   1  -5   53.35    0.69
   3   1  -5   52.93    1.10
   3  -1  -5   53.98    1.13
   3  -1  -5   53.65    1.04
   3   1  -5   52.84    0.93
   3  -1  -4    0.73    0.12
  -3  -1   4    0.69    0.11
  -3   1   4    0.81    0.13
   3  -1  -4    0.80    0.13
   3   1  -4    0.84    0.12
   3  -1  -4    0.85    0.11
   3   1  -4    0.83    0.10
   3   1  -4    0.89    0.14
   3  -1  -4    0.83    0.14
  -3  -1   3   96.28    1.10
  -3   1   3   95.02    1.16
   3  -1  -3   95.48    1.21
   3   1  -3   97.93    1.18
   3  -1  -3   98.47    1.10
   3   1  -3   98.30    1.07
  -3  -1   3   99.98    1.02
   3   1  -3   98.29    1.29
   3  -1  -3  100.28    1.32
   3  -1  -3   96.77    1.12
   3   1  -3   96.86    1.08
  -3   1   3   95.60    0.80
  -3  -1   3   98.10    0.83
   3  -1  -3   98.10    1.23
   3   1  -3  100.82    1.23
  -3  -1   2    3.52    0.18
  -3   1   2    3.72    0.22
   3  -1  -2    3.84    0.23
   3  -1  -2    3.70    0.22
   3   1  -2    3.50    0.21
   3  -1  -2    3.70    0.24
   3  -1  -2    3.72    0.21
  -3  -1   2    4.05    0.20
  -3   1   2    3.57    0.20
   3   1  -2    3.83    0.20
   3   1  -2    3.77    0.24
   3  -1  -2    3.71    0.24
  -3   1   2    3.82    0.20
  -3  -1   2    3.69    0.20
   3   1  -2    3.76    0.24
  -3  -1   2    4.01    0.23
  -3   1   2    3.96    0.23
   3   1  -1   32.66    0.68
  -3   1   1   30.06    0.56
   3  -1  -1   31.21    0.64
   3  -1  -1   31.82    0.63
   3   1  -1   30.87    0.62
  -3  -1   1   32.46    0.52
  -3   1   1   31.71    0.57
   3   1  -1   32.37    0.53
   3   1  -1   32.41    0.68
   3  -1  -1   32.02    0.68
  -3   1   1   32.27    0.62
  -3  -1   1   32.01    0.62
   3  -1  -1   31.67    0.68
  -3  -1   1   31.32    0.63
  -3   1   1   32.36    0.64
   3  -1   0   47.42    0.78
   3   1   0   47.75    0.78
  -3  -1   0   48.87    0.57
  -3   1   0   47.66    0.67
   3   1   0   47.29    0.57
  -3   1   0   47.35    0.79
  -3  -1   0   47.44    0.79
  -3   1   0   45.71    0.61
   3   1   0   46.98    0.82
   3  -1   0   46.65    0.83
  -3  -1   0   47.25    0.81
  -3   1   0   48.36    0.82
  -3  -1  -1    4.33    0.26
  -3   1  -1    4.38    0.26
  -3   1  -1    4.25    0.18
   3  -1   1    4.34    0.24
   3   1   1    4.39    0.24
  -3   1  -1    3.95    0.19
  -3  -1  -1    4.40    0.16
   3  -1   1    4.31    0.21
   3   1   1    4.62    0.14
   3   1   1    4.24    0.26
   3  -1   1    4.05    0.26
  -3  -1  -2   18.15    0.55
  -3   1  -2   17.69    0.36
  -3   1  -2   17.25    0.54
   3  -1   2   17.47    0.48
   3   1   2   17.79    0.49
   3  -1   2   17.45    0.42
  -3   1  -2   18.48    0.38
   3   1   2   17.57    0.54
   3  -1   2   17.64    0.55
  -3   1  -3   13.42    0.50
  -3  -1  -3   13.53    0.51
   3   1   3   13.63    0.51
   3  -1   3   14.30    0.53
   3   1   3   13.12    0.42
   3  -1   3   13.20    0.41
   3   1   3   12.95    0.42
   3  -1   3   14.18    0.37
  -3  -1  -4   25.36    0.75
  -3   1  -4   24.87    0.73
   3   1   4   23.07    0.55
   3   1   4   23.94    0.73
   3  -1   4   25.52    0.77
  -3   1  -4   24.44    0.62
   3  -1   4   27.14    0.54
   3   1   4   25.04    0.54
  -3   1  -5   50.17    1.13
  -3  -1  -5   49.98    1.13
   3   1   5   52.67    1.18
   3  -1   5   52.08    1.20
  -3  -1  -5   52.03    1.07
  -3   1  -5   51.14    0.95
  -3   1  -6   76.50    1.46
  -3  -1  -6   77.43    1.47
   3   1   6   74.21    1.51
   3  -1   6   74.97    1.53
  -3  -1  -6   77.65    1.38
  -3   1  -6   73.87    1.19
  -3   1  -7   43.70    1.13
  -3  -1  -7   43.62    1.13
   3   1   7   45.60    1.22
   3  -1   7   46.80    1.25
  -3  -1  -7   45.33    1.05
  -3   1  -7   42.36    0.88
  -3   1  -8    7.35    0.45
  -3  -1  -8    7.16    0.44
   3   1   8    8.27    0.52
   3  -1   8    8.11    0.51
  -3  -1  -8    7.40    0.40
   3   1   9    3.82    0.32
   3  -1   9    3.36    0.30
  -3  -1  -9    3.40    0.22
   3   1  10    0.01    0.05
   3  -1  10    0.11    0.06
  -3   1 -10    0.05    0.07
  -3  -1 -10    0.01    0.06
  -3  -2  11    7.10    0.37
  -3   2  11    7.34    0.36
   3   2 -11    7.66    0.39
  -3   2  11    7.25    0.25
   3   2 -11    7.50    0.37
   3  -2 -11    6.84    0.36
   3  -2 -11    6.89    0.38
  -3   2  10    4.17    0.33
   3   2 -10    3.52    0.31
  -3  -2  10    3.77    0.32
   3  -2 -10    3.71    0.32
  -3   2  10    3.73    0.27
   3   2 -10    4.01    0.33
   3  -2 -10    3.98    0.33
  -3  -2   9   10.11    0.56
   3  -2  -9   10.18    0.55
   3   2  -9    9.49    0.54
  -3   2   9   10.00    0.56
   3  -2  -9   10.23    0.42
  -3   2   9    9.47    0.47
   3   2  -9    9.90    0.56
   3  -2  -9    9.68    0.56
  -3  -2   8   43.25    1.16
  -3   2   8   42.32    1.17
   3  -2  -8   41.31    1.10
   3   2  -8   42.21    1.11
   3  -2  -8   42.64    0.96
  -3   2   8   42.75    1.02
   3   2  -8   41.03    1.15
   3  -2  -8   40.47    1.15
  -3  -2   7    0.18    0.10
  -3   2   7    0.23    0.11
   3  -2  -7    0.06    0.08
   3  -2  -7    0.15    0.09
   3   2  -7    0.22    0.11
  -3   2   7    0.21    0.09
   3   2  -7    0.09    0.09
   3  -2  -7    0.24    0.12
  -3   2   6   32.12    0.92
   3   2  -6   32.70    0.74
   3  -2  -6   32.88    0.86
   3  -2  -6   30.36    0.84
   3   2  -6   32.46    0.86
   3   2  -6   31.62    0.69
   3   2  -6   32.14    0.92
   3  -2  -6   32.59    0.95
  -3   2   5   19.22    0.66
   3  -2  -5   18.72    0.62
   3  -2  -5   19.78    0.47
   3   2  -5   19.19    0.42
   3  -2  -5   18.59    0.63
   3   2  -5   19.64    0.67
   3  -2  -5   18.77    0.67
   3   2  -5   19.33    0.54
  -3  -2   4    4.75    0.27
  -3   2   4    4.93    0.31
   3  -2  -4    5.05    0.31
   3  -2  -4    5.12    0.26
   3   2  -4    5.06    0.25
   3   2  -4    4.58    0.30
   3  -2  -4    4.87    0.32
   3  -2  -4    4.62    0.30
  -3   2   3   40.31    0.80
   3  -2  -3   40.34    0.81
   3   2  -3   40.57    0.78
   3  -2  -3   38.96    0.77
   3  -2  -3   40.90    0.73
   3   2  -3   41.20    0.71
  -3  -2   3   40.06    0.63
   3   2  -3   41.69    0.83
   3  -2  -3   39.92    0.83
   3  -2  -3   43.43    0.77
   3   2  -3   40.96    0.72
  -3  -2   3   40.16    0.69
  -3   2   3   42.23    0.55
  -3  -2   3   41.28    0.56
   3  -2  -2  113.66    1.29
  -3  -2   2  110.96    0.98
  -3  -2   2  108.99    0.87
  -3   2   2  115.13    1.24
   3  -2  -2  109.43    1.26
   3  -2  -2  112.13    1.22
   3   2  -2  110.78    1.18
  -3   2   2  109.72    1.13
   3   2  -2  110.76    1.28
   3  -2  -2  111.78    1.31
   3   2  -2  113.39    1.10
  -3   2   2  109.65    1.05
  -3  -2   2  109.01    1.08
   3   2  -2  113.97    1.27
  -3  -2   1    1.76    0.11
  -3   2   1    2.03    0.16
   3  -2  -1    1.78    0.17
   3  -2  -1    2.00    0.17
   3  -2  -1    2.36    0.18
   3   2  -1    1.87    0.16
  -3   2   1    2.17    0.16
   3   2  -1    1.80    0.13
   3   2  -1    1.86    0.17
   3  -2  -1    1.81    0.17
  -3   2   1    1.82    0.16
  -3  -2   1    1.68    0.15
   3   2  -1    2.01    0.18
  -3  -2   1    1.84    0.16
  -3   2   1    1.61    0.15
  -3   2   0    3.98    0.21
   3  -2   0    4.22    0.23
  -3  -2   0    3.86    0.24
   3  -2   0    3.67    0.23
   3   2   0    3.85    0.23
  -3  -2   0    3.82    0.14
  -3   2   0    3.90    0.21
   3   2   0    3.89    0.16
  -3   2   0    3.99    0.23
  -3  -2   0    3.78    0.23
   3   2   0    3.97    0.24
   3  -2   0    4.05    0.25
  -3   2   0    3.60    0.23
  -3  -2  -1   23.06    0.59
  -3   2  -1   23.28    0.59
  -3   2  -1   23.25    0.49
   3  -2   1   23.43    0.61
   3  -2   1   23.59    0.57
   3   2   1   24.82    0.59
   3  -2   1   24.43    0.54
  -3   2  -1   22.12    0.46
   3   2   1   23.01    0.59
  -3   2  -2    2.87    0.18
  -3  -2  -2    2.67    0.22
   3  -2   2    2.71    0.20
   3   2   2    2.50    0.19
   3  -2   2    2.48    0.18
  -3   2  -2    2.59    0.15
   3   2   2    2.93    0.22
   3  -2   2    2.40    0.21
  -3   2  -2    2.92    0.23
  -3  -2  -3    0.14    0.08
  -3   2  -3    0.14    0.08
   3   2   3    0.18    0.09
   3  -2   3    0.14    0.09
   3  -2   3    0.12    0.06
   3  -2   3    0.08    0.06
  -3   2  -3    0.13    0.07
   3   2   3    0.11    0.06
  -3   2  -4    7.63    0.41
   3   2   4    8.06    0.38
   3   2   4    8.28    0.43
   3  -2   4    8.47    0.45
  -3   2  -4    7.98    0.32
  -3  -2  -4    7.98    0.42
   3  -2   4    8.19    0.30
   3   2   4    7.52    0.31
  -3   2  -5   53.73    1.17
   3   2   5   53.67    0.96
  -3  -2  -5   53.88    1.17
   3   2   5   56.50    1.22
   3  -2   5   55.08    1.23
  -3  -2  -5   55.85    1.17
  -3   2  -5   56.00    0.89
  -3   2  -6    1.91    0.24
  -3  -2  -6    1.52    0.22
   3  -2   6    1.67    0.24
  -3  -2  -6    1.59    0.21
   3   2   6    1.72    0.24
   3   2   6    1.87    0.18
  -3   2  -7    0.79    0.17
  -3  -2  -7    0.71    0.16
   3   2   7    1.02    0.20
   3  -2   7    0.82    0.19
  -3  -2  -7    0.76    0.16
   3   2   8    2.23    0.27
   3  -2   8    2.69    0.30
  -3  -2  -8    2.18    0.23
   3   2   9    0.02    0.08
   3  -2   9    0.20    0.10
  -3  -2  -9    0.08    0.07
  -3   2 -10    0.07    0.05
   3   2  10    0.06    0.05
   3  -2  10    0.05    0.05
   3   3 -11   -0.01    0.08
  -3   3  11    0.00    0.08
   3  -3 -11    0.11    0.07
   3   3 -11    0.02    0.06
  -3   3  11    0.08    0.06
   3  -3 -11    0.01    0.07
   3  -3 -10    5.54    0.37
   3   3 -10    6.14    0.39
  -3  -3  10    5.10    0.37
  -3   3  10    5.71    0.37
  -3   3  10    5.95    0.35
   3   3 -10    5.59    0.37
   3  -3 -10    5.75    0.38
  -3  -3   9    0.13    0.10
  -3   3   9    0.19    0.13
   3  -3  -9    0.03    0.06
   3  -3  -9    0.05    0.10
   3   3  -9    0.04    0.09
  -3   3   9    0.12    0.09
   3   3  -9    0.06    0.09
   3  -3  -9    0.03    0.09
  -3  -3   8  102.76    1.77
  -3   3   8  101.46    1.81
   3  -3  -8  101.49    1.69
   3   3  -8  100.79    1.69
   3  -3  -8  103.31    1.56
  -3   3   8  103.71    1.64
   3   3  -8   99.41    1.75
   3  -3  -8  100.62    1.79
  -3   3   7   12.06    0.61
   3  -3  -7   10.97    0.54
   3   3  -7   11.94    0.56
   3  -3  -7   11.78    0.55
  -3   3   7   11.97    0.55
   3   3  -7   11.75    0.59
   3  -3  -7   12.37    0.61
  -3   3   6   20.58    0.75
   3   3  -6   20.45    0.64
   3  -3  -6   21.71    0.73
   3  -3  -6   21.10    0.69
   3   3  -6   21.75    0.70
   3   3  -6   21.06    0.74
   3  -3  -6   21.37    0.76
  -3   3   5    1.63    0.20
   3   3  -5    1.64    0.17
   3  -3  -5    1.78    0.20
   3  -3  -5    1.59    0.15
   3   3  -5    1.53    0.17
   3   3  -5    1.46    0.19
   3  -3  -5    1.67    0.20
   3  -3  -4    1.86    0.20
  -3   3   4    1.39    0.17
   3  -3  -4    1.63    0.16
   3   3  -4    1.48    0.14
   3  -3  -4    1.66    0.19
   3   3  -4    1.40    0.17
   3  -3  -4    1.35    0.17
  -3  -3   3    0.52    0.09
  -3   3   3    0.48    0.10
   3   3  -3    1.71    0.15
   3  -3  -3    0.50    0.11
   3  -3  -3    1.34    0.15
   3   3  -3    0.55    0.09
  -3  -3   3    0.39    0.07
  -3  -3   3    2.19    0.14
  -3   3   3    0.52    0.08
   3  -3  -3    0.41    0.10
   3   3  -3    0.44    0.09
   3  -3  -3    0.63    0.12
   3  -3  -3    0.60    0.10
   3   3  -3    0.49    0.10
  -3   3   2   35.21    0.73
   3  -3  -2   34.88    0.74
   3  -3  -2   34.77    0.72
   3   3  -2   35.80    0.71
  -3  -3   2   34.49    0.51
   3   3  -2   35.09    0.72
   3  -3  -2   35.19    0.74
   3   3  -2   35.84    0.63
  -3   3   2   33.95    0.59
  -3  -3   2   33.35    0.61
   3  -3  -2   33.87    0.71
   3   3  -2   35.12    0.71
  -3   3   1   45.47    0.79
   3  -3  -1   43.82    0.77
   3  -3  -1   45.05    0.82
   3   3  -1   44.51    0.80
  -3  -3   1   45.39    0.50
   3   3  -1   44.31    0.63
   3   3  -1   43.50    0.77
   3  -3  -1   47.57    0.82
  -3   3   1   41.61    0.71
  -3  -3   1   46.95    0.77
   3  -3  -1   44.59    0.81
   3   3  -1   44.90    0.79
  -3  -3   1   44.44    0.73
  -3   3   1   45.11    0.73
  -3   3   0  105.23    1.16
   3  -3   0  107.78    1.15
  -3  -3   0  105.59    1.21
   3  -3   0  102.79    1.24
   3   3   0  104.85    1.24
   3  -3   0  108.07    1.22
   3   3   0  102.82    1.21
   3  -3   0  102.47    1.26
  -3   3   0  107.37    1.21
  -3  -3  -1    3.03    0.22
  -3   3  -1    2.80    0.21
  -3   3  -1    2.96    0.20
   3  -3   1    2.98    0.21
   3   3   1    3.24    0.23
   3  -3   1    2.75    0.20
   3   3   1    3.12    0.22
   3  -3   1    2.90    0.22
  -3   3  -2    0.50    0.10
  -3   3  -2    0.59    0.10
   3   3   2    0.44    0.10
   3  -3   2    0.57    0.12
   3   3   2    0.61    0.11
   3  -3   2    0.60    0.10
   3   3   2    0.60    0.11
   3  -3   2    0.76    0.11
  -3  -3  -2    0.52    0.11
  -3  -3  -3    3.28    0.25
  -3   3  -3    3.01    0.24
   3   3   3    2.83    0.24
   3   3   3    3.06    0.25
   3  -3   3    3.15    0.26
   3  -3   3    2.93    0.21
   3   3   3    3.12    0.22
  -3  -3  -4   32.17    0.83
  -3   3  -4   32.63    0.84
   3   3   4   30.75    0.80
   3   3   4   32.50    0.84
   3  -3   4   32.14    0.86
   3  -3   4   33.01    0.61
  -3   3  -5   17.85    0.67
   3   3   5   17.13    0.60
  -3  -3  -5   18.36    0.68
   3   3   5   18.81    0.70
   3  -3   5   18.45    0.71
  -3  -3  -5   17.32    0.68
  -3   3  -6   25.43    0.83
  -3  -3  -6   25.49    0.83
   3   3   6   25.19    0.70
   3   3   6   24.82    0.85
   3  -3   6   26.28    0.90
  -3  -3  -6   25.28    0.85
   3   3   6   25.03    0.64
  -3   3  -7   17.17    0.68
  -3  -3  -7   16.89    0.67
   3   3   7   18.08    0.74
   3  -3   7   17.59    0.75
  -3  -3  -7   17.57    0.70
   3   3   8   65.94    1.35
   3  -3   8   66.39    1.37
  -3  -3  -8   67.00    1.26
   3   3   9    0.21    0.10
   3  -3   9    0.31    0.11
  -3  -3  -9    0.15    0.08
  -3  -4  11    0.18    0.08
  -3   4  11    0.06    0.06
   3  -4 -11    0.08    0.05
   3   4 -11    0.11    0.06
  -3   4  11    0.06    0.05
  -3  -4  10    1.05    0.16
  -3   4  10    1.20    0.17
   3  -4 -10    1.01    0.16
   3   4 -10    1.09    0.17
  -3   4  10    1.19    0.17
   3   4 -10    0.98    0.15
   3  -4 -10    1.03    0.16
   3  -4  -9   43.73    1.05
   3   4  -9   42.54    1.05
  -3  -4   9   42.52    1.09
  -3   4   9   41.82    1.09
   3  -4  -9   43.50    0.93
  -3   4   9   41.37    1.02
   3   4  -9   40.98    1.03
   3  -4  -9   41.88    1.06
  -3   4   8   31.85    1.00
   3  -4  -8   31.32    0.91
   3   4  -8   31.93    0.92
   3  -4  -8   32.32    0.91
  -3   4   8   31.58    0.93
   3   4  -8   33.37    0.97
   3  -4  -8   30.12    0.95
  -3   4   7   85.15    1.61
   3   4  -7   86.14    1.48
   3  -4  -7   84.79    1.44
   3   4  -7   84.47    1.44
   3  -4  -7   82.86    1.49
  -3   4   7   85.93    1.49
   3   4  -7   84.14    1.52
   3  -4  -7   84.75    1.56
  -3   4   6   12.86    0.60
   3   4  -6   12.72    0.53
   3  -4  -6   12.83    0.53
   3   4  -6   12.80    0.53
   3  -4  -6   13.19    0.59
   3   4  -6   13.95    0.59
   3  -4  -6   13.12    0.59
  -3   4   5   33.99    0.91
   3   4  -5   34.00    0.80
   3  -4  -5   34.50    0.91
   3  -4  -5   33.63    0.81
   3   4  -5   33.03    0.79
   3  -4  -5   33.72    0.69
   3   4  -5   34.06    0.85
   3  -4  -5   32.78    0.86
  -3   4   4    0.09    0.08
   3  -4  -4    0.19    0.08
   3   4  -4    0.27    0.08
   3   4  -4    0.07    0.06
   3  -4  -4    0.15    0.06
   3   4  -4    0.06    0.06
   3  -4  -4    0.13    0.07
  -3  -4   3   17.65    0.40
  -3   4   3   16.39    0.56
   3  -4  -3   16.93    0.57
   3  -4  -3   16.82    0.53
   3   4  -3   16.67    0.49
   3  -4  -3   16.84    0.57
  -3  -4   3   16.30    0.46
  -3   4   3   17.35    0.48
   3   4  -3   16.39    0.51
   3  -4  -3   16.55    0.53
   3  -4  -3   17.20    0.48
   3   4  -3   16.83    0.47
   3  -4  -2   46.21    0.81
  -3   4   2   46.60    0.89
   3   4  -2   45.17    0.78
   3  -4  -2   43.93    0.86
   3  -4  -2   44.72    0.87
   3   4  -2   45.46    0.83
   3   4  -2   45.79    0.81
   3  -4  -2   46.32    0.84
  -3   4   2   45.13    0.68
   3  -4  -2   46.41    0.72
  -3   4   1   91.55    1.21
   3  -4  -1   90.33    1.12
  -3   4   1   91.74    1.11
   3  -4  -1   89.89    1.14
   3  -4  -1   90.98    1.22
   3   4  -1   92.92    1.21
   3   4  -1   90.77    1.10
   3  -4  -1   90.64    1.13
   3  -4  -1   92.02    1.08
   3   4  -1   93.12    1.12
  -3  -4   1   89.19    1.12
  -3  -4   0    2.90    0.21
  -3   4   0    2.73    0.20
  -3   4   0    2.78    0.21
   3  -4   0    2.67    0.19
   3  -4   0    2.29    0.20
   3   4   0    2.63    0.21
   3  -4   0    2.95    0.22
   3  -4   0    3.07    0.21
   3   4   0    2.77    0.21
   3  -4   0    2.62    0.20
  -3  -4  -1  392.65    2.42
  -3   4  -1  392.79    2.37
  -3   4  -1  396.17    2.45
   3   4   1  400.51    2.63
   3   4   1  392.60    2.34
   3  -4   1  392.03    2.52
   3   4   1  404.03    2.58
   3  -4   1  405.13    2.44
   3  -4   1  387.93    2.40
  -3   4  -2    6.17    0.32
  -3   4  -2    6.24    0.31
   3   4   2    6.70    0.31
   3  -4   2    6.37    0.31
   3   4   2    6.51    0.36
  -3  -4  -2    6.03    0.32
   3  -4   2    6.23    0.32
   3   4   2    6.39    0.33
  -3  -4  -3    3.17    0.25
  -3   4  -3    3.48    0.26
   3   4   3    3.55    0.26
   3  -4   3    3.51    0.27
   3   4   3    3.58    0.28
   3  -4   3    3.54    0.23
  -3  -4  -4    0.53    0.12
  -3   4  -4    0.54    0.12
   3   4   4    0.45    0.12
   3   4   4    0.49    0.13
   3  -4   4    0.47    0.12
   3   4   4    0.38    0.11
   3  -4   4    0.47    0.09
  -3   4  -5   89.85    1.46
  -3  -4  -5   87.88    1.45
   3   4   5   91.84    1.50
   3  -4   5   85.21    1.49
   3   4   5   85.38    1.40
  -3  -4  -5   87.03    1.56
   3   4   5   82.55    1.54
   3   4   5   85.67    1.31
   3   4   6    0.31    0.10
  -3   4  -6    0.53    0.14
  -3  -4  -6    0.42    0.12
   3   4   6    0.43    0.11
   3   4   6    0.53    0.14
   3  -4   6    0.51    0.15
  -3  -4  -6    0.49    0.15
  -3   4  -7    0.11    0.09
  -3  -4  -7   -0.04    0.09
   3   4   7    0.51    0.15
   3  -4   7    0.31    0.12
   3   4   7   -0.26    0.10
  -3  -4  -7    0.13    0.09
   3   4   8    0.15    0.09
   3  -4   8    0.10    0.09
  -3  -4  -8    0.11    0.07
  -3   4  -9   65.13    1.21
   3   4   9   64.43    1.07
   3  -4   9   63.47    1.09
  -3  -4  -9   66.16    1.04
  -3   4  -9   61.96    0.97
  -3  -4  -9   59.65    0.95
  -3   5  11    9.80    0.35
   3  -5 -11    8.75    0.30
   3   5 -11    9.10    0.31
  -3  -5  10    3.58    0.27
  -3   5  10    4.04    0.28
   3  -5 -10    4.09    0.23
  -3   5  10    4.06    0.29
   3   5 -10    4.05    0.26
   3  -5 -10    3.89    0.26
   3  -5 -10    4.04    0.27
   3   5 -10    3.86    0.27
  -3  -5   9    0.08    0.09
  -3   5   9    0.12    0.09
   3  -5  -9    0.08    0.08
   3  -5  -9    0.14    0.09
   3   5  -9    0.22    0.10
  -3   5   9    0.12    0.11
   3   5  -9    0.06    0.07
   3  -5  -9    0.18    0.08
   3  -5  -8    7.96    0.44
   3   5  -8    7.83    0.44
  -3   5   8    7.18    0.47
   3  -5  -8    7.52    0.45
  -3   5   8    7.89    0.47
   3   5  -8    8.06    0.45
   3  -5  -8    7.34    0.44
  -3   5   7    1.76    0.25
   3   5  -7    2.25    0.24
   3  -5  -7    1.68    0.24
   3   5  -7    1.91    0.27
   3  -5  -7    1.71    0.20
  -3   5   7    1.87    0.24
   3   5  -7    1.83    0.22
   3  -5  -7    1.44    0.21
  -3   5   6    7.10    0.45
   3   5  -6    7.12    0.42
   3  -5  -6    6.77    0.38
   3   5  -6    7.17    0.39
   3  -5  -6    7.04    0.45
  -3   5   6    7.23    0.43
   3   5  -6    7.29    0.41
   3  -5  -6    7.43    0.42
  -3   5   5   23.17    0.78
   3   5  -5   22.70    0.70
   3  -5  -5   22.42    0.77
   3  -5  -5   21.94    0.64
   3   5  -5   22.95    0.66
   3  -5  -5   22.51    0.60
   3   5  -5   22.39    0.67
   3  -5  -5   22.22    0.69
  -3   5   4   39.69    0.96
   3   5  -4   39.62    0.71
   3   5  -4   40.33    0.87
   3  -5  -4   41.64    0.99
   3  -5  -4   40.69    0.85
   3   5  -4   39.71    0.83
   3  -5  -4   38.79    0.84
  -3   5   3   20.41    0.66
   3  -5  -3   19.96    0.64
   3   5  -3   18.81    0.55
   3   5  -3   19.24    0.52
   3  -5  -3   19.93    0.61
  -3   5   3   19.28    0.47
   3   5  -3   19.45    0.54
   3  -5  -3   18.82    0.55
   3   5  -3   19.16    0.47
  -3   5   2    5.54    0.33
   3  -5  -2    5.63    0.32
   3   5  -2    5.65    0.29
   3  -5  -2    5.48    0.32
   3   5  -2    5.26    0.28
   3   5  -2    5.45    0.30
   3  -5  -2    5.15    0.30
   3   5  -2    5.18    0.27
   3  -5  -2    5.29    0.28
   3  -5  -2    5.14    0.25
   3  -5  -2    5.14    0.25
   3   5  -2    5.23    0.25
  -3   5   1   12.98    0.49
   3  -5  -1   13.44    0.41
   3   5  -1   13.66    0.41
   3  -5  -1   13.05    0.45
   3  -5  -1   14.31    0.52
   3   5  -1   13.46    0.48
   3  -5  -1   13.68    0.43
   3   5  -1   13.50    0.47
  -3  -5   1   13.09    0.42
  -3   5   1   13.25    0.42
  -3  -5   0  147.53    1.41
  -3   5   0  145.94    1.38
   3   5   0  147.07    1.61
  -3   5   0  146.32    1.60
   3  -5   0  149.77    1.40
   3   5   0  148.58    1.44
   3  -5   0  147.42    1.65
   3   5   0  151.06    1.64
   3  -5   0  140.89    1.33
   3   5   0  144.80    1.33
  -3  -5  -1    3.03    0.21
  -3   5  -1    2.93    0.21
  -3   5  -1    2.72    0.22
   3   5   1    2.83    0.25
   3  -5   1    2.92    0.23
   3   5   1    3.23    0.24
   3   5   1    3.04    0.20
   3  -5   1    3.07    0.20
  -3  -5  -2   17.29    0.52
  -3   5  -2   17.37    0.57
   3   5   2   17.04    0.48
   3  -5   2   16.68    0.49
   3   5   2   17.80    0.61
   3  -5   2   16.28    0.54
  -3  -5  -3   12.68    0.47
  -3   5  -3   12.98    0.48
   3   5   3   12.94    0.48
   3  -5   3   13.04    0.49
   3   5   3   12.98    0.54
   3  -5   3   12.70    0.45
  -3  -5  -4   49.97    1.00
   3   5   4   49.03    1.01
   3  -5   4   48.74    1.04
  -3   5  -4   49.11    0.99
   3   5   4   49.55    1.17
   3   5   4   49.44    1.10
   3  -5   4   50.36    0.80
   3   5   4   49.63    1.05
  -3   5  -5   14.64    0.57
  -3  -5  -5   14.53    0.57
   3   5   5   15.09    0.59
   3  -5   5   14.90    0.61
  -3  -5  -5   13.97    0.64
   3   5   5   14.75    0.62
   3   5   5   14.65    0.68
   3   5   5   14.97    0.57
  -3   5  -6   37.10    0.92
  -3  -5  -6   35.96    0.90
   3   5   6   36.93    0.95
   3   5   6   39.36    0.99
   3  -5   6   37.62    1.00
  -3  -5  -6   37.51    1.07
   3   5   6   37.29    0.83
  -3  -5  -7    0.44    0.10
   3   5   7    0.81    0.16
   3  -5   7    0.48    0.13
  -3  -5  -7    0.53    0.15
   3   5   7    0.54    0.12
  -3   5  -8   10.87    0.55
   3   5   8   10.66    0.47
   3  -5   8   10.99    0.49
  -3  -5  -8   10.84    0.51
  -3   5  -9    2.28    0.22
   3   5   9    2.14    0.17
   3  -5   9    2.06    0.18
  -3  -5  -9    2.15    0.20
  -3   5  -9    1.77    0.15
  -3  -6  10   36.32    0.77
  -3   6  10   36.45    0.76
   3  -6 -10   34.96    0.63
  -3   6  10   37.04    0.85
   3  -6 -10   35.79    0.65
   3  -6  -9    5.11    0.30
   3   6  -9    5.18    0.31
  -3  -6   9    5.28    0.35
  -3   6   9    5.14    0.35
   3  -6  -9    5.11    0.33
  -3   6   9    4.94    0.36
   3   6  -9    4.81    0.29
   3  -6  -9    5.12    0.30
   3  -6  -8   20.56    0.64
   3   6  -8   20.61    0.66
  -3   6   8   21.05    0.78
   3  -6  -8   21.68    0.77
  -3   6   8   21.16    0.77
   3   6  -8   20.52    0.65
   3  -6  -8   20.43    0.66
  -3   6   7    0.09    0.10
   3  -6  -7    0.15    0.11
   3  -6  -7    0.14    0.10
   3   6  -7    0.12    0.15
   3   6  -7    0.09    0.08
  -3   6   7    0.08    0.08
   3   6  -7    0.00    0.07
   3  -6  -7    0.10    0.08
  -3   6   6   22.70    0.82
   3   6  -6   22.40    0.78
   3  -6  -6   22.34    0.64
   3   6  -6   22.63    0.66
   3  -6  -6   23.53    0.84
  -3   6   6   23.11    0.78
   3   6  -6   21.96    0.67
   3  -6  -6   22.55    0.68
  -3   6   5    0.40    0.13
   3  -6  -5    0.43    0.13
   3   6  -5    0.49    0.13
   3  -6  -5    0.65    0.11
   3   6  -5    0.37    0.11
   3  -6  -5    0.49    0.11
   3   6  -5    0.43    0.10
   3  -6  -5    0.47    0.12
  -3   6   4    0.49    0.13
   3  -6  -4    0.50    0.14
   3   6  -4    0.66    0.13
   3  -6  -4    0.43    0.11
   3   6  -4    0.66    0.11
   3   6  -4    0.42    0.09
   3  -6  -4    0.36    0.10
  -3   6   3   48.86    1.06
   3  -6  -3   50.17    1.06
   3   6  -3   48.79    0.99
   3   6  -3   48.03    0.83
   3  -6  -3   49.17    1.01
   3   6  -3   48.35    0.83
   3  -6  -3   48.84    0.84
   3   6  -3   49.71    0.79
  -3   6   2   83.25    1.34
   3  -6  -2   88.07    1.30
   3   6  -2   86.89    1.28
   3  -6  -2   86.32    1.34
   3   6  -2   87.68    1.19
   3   6  -2   85.33    1.03
   3  -6  -2   86.79    1.04
   3   6  -2   83.92    1.12
  -3  -6   2   86.64    1.04
  -3   6   2   86.99    1.03
   3   6  -1    2.97    0.24
  -3   6   1    3.00    0.25
   3  -6  -1    3.10    0.23
   3   6  -1    2.81    0.24
   3  -6  -1    2.98    0.26
   3   6  -1    3.07    0.23
  -3  -6   1    2.88    0.19
  -3   6   1    2.98    0.19
  -3  -6   0    0.68    0.09
  -3   6   0    0.91    0.11
   3   6   0    0.65    0.13
   3   6   0    0.79    0.14
  -3   6   0    0.78    0.13
   3  -6   0    0.75    0.11
   3  -6   0    0.79    0.14
   3   6   0    0.75    0.14
  -3  -6  -1    1.79    0.16
  -3   6  -1    1.74    0.19
   3   6   1    1.95    0.21
   3   6   1    1.65    0.20
  -3   6  -1    1.64    0.15
   3   6   1    1.86    0.20
  -3  -6  -2    0.91    0.12
  -3   6  -2    0.93    0.12
  -3   6  -2    1.10    0.15
   3   6   2    1.11    0.17
  -3   6  -2    1.00    0.16
   3   6   2    1.25    0.18
   3  -6   2    0.86    0.13
  -3  -6  -3    1.82    0.18
  -3   6  -3    1.61    0.17
  -3   6  -3    1.93    0.21
   3   6   3    1.89    0.18
   3  -6   3    1.62    0.17
   3  -6   3    1.62    0.17
   3   6   3    1.88    0.23
   3   6   3    1.63    0.20
  -3  -6  -4    9.36    0.41
  -3   6  -4    9.13    0.41
  -3   6  -4    9.11    0.49
   3   6   4    9.39    0.42
   3  -6   4    8.80    0.42
   3   6   4    9.08    0.52
   3  -6   4    9.14    0.35
   3   6   4    9.17    0.50
   3   6   4    9.52    0.48
  -3   6  -5   18.79    0.61
  -3  -6  -5   19.18    0.61
  -3   6  -5   19.03    0.75
   3   6   5   19.53    0.64
   3  -6   5   19.21    0.65
  -3  -6  -5   19.44    0.77
   3   6   5   18.07    0.76
   3   6   5   18.83    0.73
   3   6   5   18.59    0.65
   3   6   6   12.99    0.50
  -3   6  -6   11.77    0.48
  -3  -6  -6   12.60    0.49
  -3   6  -6   12.64    0.63
   3   6   6   11.67    0.51
   3  -6   6   11.83    0.52
   3   6   6   11.86    0.56
  -3  -6  -6   12.38    0.61
  -3   6  -7    0.20    0.11
  -3  -6  -7    0.16    0.08
   3   6   7    0.28    0.09
   3  -6   7    0.42    0.12
  -3  -6  -7    0.22    0.11
   3   6   7    0.29    0.11
  -3   6  -8    4.63    0.35
   3   6   8    5.00    0.28
   3  -6   8    4.65    0.28
  -3  -6  -8    5.13    0.34
   3   6   8    5.33    0.27
  -3   6  -9    6.42    0.34
  -3  -6  -9    6.01    0.30
  -3  -7  10    1.78    0.15
  -3   7  10    2.31    0.17
   3  -7 -10    2.34    0.16
  -3   7  10    2.00    0.19
  -3  -7   9    1.14    0.16
  -3   7   9    1.37    0.17
   3  -7  -9    1.69    0.19
  -3   7   9    1.47    0.20
   3   7  -8   11.15    0.43
  -3   7   8   11.53    0.55
   3  -7  -8   11.43    0.56
  -3   7   8   12.29    0.59
   3   7  -7   41.22    0.84
  -3   7   7   43.71    1.13
   3   7  -7   40.61    1.12
   3  -7  -7   42.82    1.14
  -3   7   7   41.08    1.08
  -3   7   6    0.44    0.13
   3  -7  -6    0.79    0.18
   3   7  -6    0.86    0.17
  -3   7   6    0.56    0.14
   3   7  -6    0.52    0.11
  -3   7   5   41.92    1.08
   3   7  -5   40.41    1.05
   3  -7  -5   38.28    1.06
   3  -7  -5   39.98    0.89
  -3   7   5   40.20    0.99
  -3   7   4   38.30    1.01
   3   7  -4   38.28    0.97
   3  -7  -4   39.77    1.04
   3  -7  -4   38.43    0.92
   3   7  -3   16.53    0.48
  -3   7   3   16.77    0.65
   3  -7  -3   17.16    0.64
   3   7  -3   17.39    0.63
   3   7  -3   16.37    0.49
   3  -7  -3   17.05    0.63
  -3   7   2   11.30    0.52
   3  -7  -2   11.55    0.49
   3   7  -2   11.90    0.52
   3  -7  -2   11.64    0.53
   3   7  -2   11.16    0.45
   3   7  -2   11.50    0.41
   3   7  -2   11.63    0.45
   3   7  -1    2.35    0.22
  -3   7   1    2.21    0.23
   3  -7  -1    2.27    0.21
   3   7  -1    2.17    0.23
   3  -7  -1    2.20    0.23
   3   7  -1    2.42    0.22
  -3   7   0   70.73    1.26
   3   7   0   72.57    1.23
   3  -7   0   74.47    0.99
   3   7   0   68.88    1.23
   3  -7   0   72.52    1.30
   3   7   0   71.79    1.22
  -3   7  -1    3.20    0.28
   3   7   1    3.58    0.30
   3   7   1    3.34    0.29
   3  -7   1    3.59    0.29
   3   7   1    3.35    0.28
  -3   7  -2   13.17    0.49
  -3   7  -2   13.08    0.56
   3   7   2   13.74    0.59
   3  -7   2   13.60    0.54
   3   7   2   13.26    0.59
   3   7   2   13.93    0.59
  -3   7  -3    7.59    0.42
   3  -7   3    7.42    0.38
   3   7   3    7.71    0.47
   3   7   3    7.46    0.45
  -3   7  -4    0.00    0.06
  -3   7  -4    0.14    0.09
   3   7   4    0.10    0.09
  -3  -7  -4    0.08    0.09
   3  -7   4    0.21    0.08
   3   7   4   -0.02    0.09
   3   7   5    9.13    0.47
  -3   7  -5    9.98    0.54
  -3   7  -5    8.96    0.38
  -3  -7  -5    9.48    0.54
   3   7   5    8.87    0.52
   3   7   6    8.44    0.41
   3   7   6    9.41    0.51
  -3  -7  -6    8.31    0.50
  -3   7  -6    8.74    0.52
  -3   7  -7    7.59    0.46
   3   7   7    8.42    0.43
  -3  -7  -7    7.90    0.39
  -3  -7  -7    7.92    0.46
  -3   7  -8    0.71    0.14
   3   7   8    0.88    0.12
  -3  -7  -8    0.82    0.14
  -3   8  10   13.26    0.45
  -3  -8   9    3.22    0.21
  -3   8   9    3.37    0.24
   3  -8  -9    3.17    0.24
  -3   8   9    3.79    0.29
  -3   8   8    3.42    0.28
   3  -8  -8    3.40    0.30
  -3   8   8    3.64    0.32
  -3   8   7    3.57    0.32
   3   8  -7    3.51    0.34
   3  -8  -7    3.31    0.32
  -3   8   7    3.57    0.32
  -3   8   6   48.65    1.18
   3   8  -6   49.54    1.23
   3  -8  -6   49.39    1.24
  -3   8   6   48.73    1.15
  -3   8   5   63.18    1.35
   3   8  -5   60.34    1.34
   3  -8  -5   64.36    1.39
   3  -8  -5   63.50    1.16
  -3   8   5   62.02    1.23
  -3   8   4   23.37    0.81
   3   8  -4   21.66    0.78
   3  -8  -4   21.57    0.78
   3  -8  -4   22.73    0.74
  -3   8   4   22.79    0.70
   3   8  -3    4.43    0.27
  -3   8   3    4.24    0.35
   3  -8  -3    4.32    0.33
   3   8  -3    4.53    0.35
   3  -8  -3    4.23    0.34
  -3   8   3    4.54    0.30
   3   8  -3    4.54    0.28
   3   8  -2   41.99    0.88
  -3   8   2   42.26    1.05
   3  -8  -2   42.65    0.95
   3   8  -2   41.87    1.04
   3  -8  -2   42.29    1.06
   3   8  -2   42.57    0.89
   3   8  -2   40.94    0.89
   3   8  -1   19.13    0.63
  -3   8   1   18.45    0.68
   3  -8  -1   19.14    0.57
   3   8  -1   19.16    0.70
   3   8  -1   19.62    0.64
   3  -8  -1   19.54    0.72
  -3   8   0    2.08    0.24
   3   8   0    1.83    0.21
   3   8   0    2.02    0.24
   3  -8   0    2.21    0.25
   3   8   0    2.04    0.23
  -3   8  -1   81.14    1.42
   3   8   1   80.33    1.42
   3   8   1   80.90    1.48
   3  -8   1   80.79    1.42
   3   8   1   81.52    1.44
  -3   8  -2   18.37    0.69
   3   8   2   19.24    0.73
   3   8   2   20.04    0.77
   3  -8   2   19.96    0.68
   3   8   2   19.32    0.72
  -3   8  -2   19.44    0.63
  -3   8  -3    6.73    0.41
   3  -8   3    6.50    0.36
   3   8   3    6.76    0.45
   3   8   3    6.50    0.43
   3   8   4    1.89    0.24
  -3   8  -4    2.36    0.26
  -3  -8  -4    2.08    0.26
   3  -8   4    2.04    0.18
   3   8   4    2.13    0.27
  -3   8  -5   24.02    0.84
   3   8   5   23.50    0.76
  -3  -8  -5   24.35    0.85
   3   8   5   24.27    0.86
   3   8   6   16.99    0.57
  -3   8  -6   18.18    0.72
   3   8   6   17.32    0.69
  -3   8  -7    4.06    0.32
   3   8   7    4.11    0.30
  -3  -8  -7    4.02    0.27
  -3  -8  -7    3.65    0.29
  -3  -8  -8   14.86    0.49
   3   8   8   15.39    0.56
   3   8   8   14.27    0.43
  -3   8  -8   14.13    0.52
   3  -9  -9    7.46    0.34
  -3   9   9    8.04    0.38
  -3   9   8   10.89    0.44
   3  -9  -8   11.40    0.51
  -3   9   8   11.99    0.53
  -3   9   7   50.08    1.07
   3   9  -7   49.79    1.22
   3  -9  -7   52.47    1.20
  -3   9   7   49.25    1.13
  -3   9   6    4.62    0.36
   3   9  -6    5.10    0.40
   3  -9  -6    4.53    0.38
  -3   9   6    4.46    0.35
  -3   9   5    6.26    0.42
   3   9  -5    6.07    0.45
   3  -9  -5    6.55    0.45
   3  -9  -5    6.13    0.37
  -3   9   5    6.50    0.40
  -3   9   4   50.88    1.20
   3   9  -4   50.84    1.25
   3  -9  -4   50.64    1.19
   3  -9  -4   49.69    1.12
  -3   9   4   51.39    1.05
   3   9  -4   50.76    0.97
   3   9  -3   48.59    0.91
  -3   9   3   50.74    1.19
   3  -9  -3   50.03    1.11
   3   9  -3   49.21    1.21
   3  -9  -3   50.59    1.18
  -3   9   3   49.49    0.95
   3   9  -3   49.61    1.02
   3   9  -2   23.03    0.69
  -3   9   2   24.18    0.81
   3  -9  -2   23.34    0.70
   3   9  -2   23.39    0.83
   3  -9  -2   22.78    0.81
   3   9  -2   23.37    0.66
   3   9  -2   23.00    0.71
   3   9  -1   60.50    1.18
  -3   9   1   62.17    1.29
   3  -9  -1   61.22    1.01
   3   9  -1   60.01    1.32
   3  -9  -1   60.08    1.31
   3   9  -1   60.16    1.13
   3   9   0   10.81    0.53
   3   9   0   12.06    0.54
  -3   9   0   11.19    0.55
   3   9   0   11.58    0.59
   3  -9   0   11.01    0.56
   3   9   1   85.52    1.53
  -3   9  -1   81.16    1.49
   3   9   1   81.04    1.47
   3   9   1   81.33    1.57
   3  -9   1   82.41    1.48
  -3   9  -1   80.78    1.15
   3   9   2    1.05    0.20
  -3   9  -2    1.08    0.17
   3   9   2    0.91    0.18
  -3   9  -2    1.02    0.19
   3  -9   2    0.76    0.15
   3   9   2    1.14    0.21
   3   9   3   41.32    1.10
  -3  -9  -3   40.85    1.05
   3   9   3   39.69    1.11
   3   9   3   41.14    1.17
   3  -9   3   41.69    0.92
  -3   9  -3   42.27    1.02
   3   9   4   35.74    0.99
  -3  -9  -4   33.98    0.98
   3   9   4   35.59    1.06
   3   9   4   36.12    1.10
  -3   9  -4   35.51    0.99
   3   9   5   25.43    0.78
  -3  -9  -5   25.28    0.83
   3   9   5   26.25    0.88
   3   9   5   25.27    0.91
  -3   9  -5   25.01    0.83
   3   9   6   17.58    0.56
  -3  -9  -6   18.16    0.64
   3   9   6   19.83    0.72
  -3  -9  -6   18.34    0.66
   3   9   6   18.64    0.75
  -3   9  -6   18.38    0.69
   3   9   7   11.86    0.48
  -3  -9  -7   11.36    0.43
  -3  -9  -7   11.62    0.47
   3   9   7   12.04    0.54
  -3   9  -7   12.18    0.52
   3   9   8   10.66    0.42
   3   9   8   10.00    0.33
  -3   9  -8    9.92    0.39
  -3  10   9   10.04    0.38
  -3  10   8    6.52    0.28
   3 -10  -8    6.47    0.35
  -3  10   8    7.21    0.38
  -3  10   7   15.71    0.54
   3  10  -7   16.59    0.69
   3 -10  -7   16.03    0.63
  -3  10   7   16.00    0.60
  -3  10   6    3.92    0.31
   3  10  -6    4.08    0.36
   3 -10  -6    3.34    0.31
  -3  10   6    3.94    0.31
  -3  10   5    6.97    0.43
   3  10  -5    7.38    0.49
   3 -10  -5    7.35    0.46
   3 -10  -5    7.25    0.39
  -3  10   5    6.56    0.39
   3  10  -4    0.82    0.15
  -3  10   4    0.82    0.17
   3 -10  -4    0.72    0.16
   3  10  -4    0.66    0.17
   3 -10  -4    0.58    0.14
  -3  10   4    0.72    0.13
   3  10  -3    6.96    0.35
  -3  10   3    7.52    0.46
   3 -10  -3    6.60    0.40
   3  10  -3    6.93    0.48
   3 -10  -3    7.25    0.46
  -3  10   3    7.57    0.36
   3  10  -3    7.49    0.42
   3  10  -2    9.61    0.46
  -3  10   2    9.45    0.52
   3 -10  -2    9.66    0.44
   3  10  -2    9.81    0.56
   3 -10  -2    9.43    0.54
   3  10  -2    9.71    0.42
   3  10  -1    5.93    0.39
  -3  10   1    6.08    0.42
   3  10  -1    6.18    0.45
   3 -10  -1    5.79    0.42
   3  10  -1    6.25    0.37
   3  10   0   15.52    0.65
   3  10   0   14.74    0.61
  -3  10   0   16.12    0.68
   3  10   0   14.89    0.70
   3 -10   0   14.94    0.67
   3  10   1    6.78    0.45
  -3  10  -1    6.62    0.44
   3  10   1    7.01    0.45
   3  10   1    6.72    0.47
   3 -10   1    7.26    0.46
  -3  10  -1    7.14    0.36
   3  10   2   22.60    0.83
   3  10   2   22.09    0.81
   3  10   2   23.16    0.88
   3 -10   2   22.28    0.74
  -3  10  -2   22.14    0.70
  -3  10  -3    0.14    0.09
   3  10   3    0.02    0.09
  -3 -10  -3    0.10    0.08
   3 -10   3    0.01    0.08
   3  10   3    0.09    0.12
   3  10   3    0.35    0.15
  -3  10  -4    1.19    0.19
   3  10   4    1.27    0.20
  -3 -10  -4    1.28    0.19
   3  10   4    1.53    0.24
   3  10   4    1.03    0.21
   3  10   5   24.69    0.74
   3  10   5   25.08    0.84
  -3 -10  -5   25.05    0.75
   3  10   5   25.71    0.89
  -3  10  -5   25.96    0.81
  -3  10  -6    0.67    0.14
   3  10   6    0.77    0.13
   3  10   6    0.67    0.14
  -3 -10  -6    0.71    0.13
  -3 -10  -6    0.82    0.14
   3  10   6    0.86    0.17
   3  10   7    2.21    0.20
  -3 -10  -7    2.13    0.18
  -3 -10  -7    2.16    0.18
   3  10   7    2.20    0.22
  -3  10  -7    1.98    0.19
   3 -11  -8    4.99    0.27
  -3  11   8    4.94    0.27
   3  11  -7    6.41    0.43
  -3  11   7    6.00    0.28
   3 -11  -7    6.45    0.36
  -3  11   7    5.98    0.33
  -3  11   6    2.63    0.22
   3  11  -6    2.43    0.28
   3 -11  -6    2.65    0.26
  -3  11   6    2.29    0.22
  -3  11   5    3.90    0.30
   3  11  -5    3.91    0.36
   3 -11  -5    3.81    0.32
   3 -11  -5    4.15    0.29
  -3  11   5    3.96    0.28
   3  11  -5    3.87    0.26
  -3  11   4   41.58    1.01
   3  11  -4   43.34    1.18
   3 -11  -4   42.16    1.00
   3 -11  -4   43.35    1.03
  -3  11   4   41.47    0.84
   3  11  -4   42.07    0.95
  -3  11   3    9.00    0.49
   3  11  -3    9.46    0.56
   3 -11  -3    9.11    0.44
   3 -11  -3    9.74    0.53
   3  11  -3    9.00    0.47
   3  11  -2    0.36    0.11
  -3  11   2    0.28    0.12
   3 -11  -2    0.27    0.10
   3  11  -2    0.33    0.13
   3 -11  -2    0.33    0.14
   3  11  -1    4.68    0.35
  -3  11   1    5.03    0.38
   3  11  -1    5.23    0.43
   3 -11  -1    4.87    0.40
   3  11  -1    5.27    0.33
   3  11   0   42.14    1.07
   3  11   0   42.39    1.01
  -3  11   0   42.12    1.08
   3  11   0   44.32    1.21
   3 -11   0   43.21    1.13
   3  11   1   10.10    0.55
   3  11   1   10.29    0.53
  -3  11  -1   10.18    0.54
   3  11   1   10.37    0.59
   3 -11   1   10.07    0.53
  -3  11  -1   10.94    0.44
   3  11   2   87.41    1.60
   3  11   2   87.33    1.58
  -3 -11  -2   87.05    1.33
   3  11   2   87.22    1.70
   3 -11   2   90.95    1.45
  -3  11  -2   87.60    1.34
   3  11   3   36.41    1.01
   3  11   3   37.32    1.05
   3  11   3   35.99    1.09
   3 -11   3   36.60    0.81
  -3  11  -3   37.25    0.92
   3  11   4   15.09    0.62
   3  11   4   15.45    0.66
  -3 -11  -4   14.29    0.53
   3  11   4   14.76    0.68
  -3  11  -4   14.50    0.58
  -3  11  -5    0.00    0.06
   3  11   5   -0.02    0.07
  -3 -11  -5    0.03    0.07
   3  11   5    0.07    0.10
  -3 -11  -5    0.04    0.07
   3  11   5    0.04    0.08
   3  11   6    3.36    0.19
   3  11   6    3.53    0.27
  -3 -11  -6    3.63    0.25
  -3 -11  -6    3.60    0.22
   3  11   6    3.24    0.27
  -3  11  -6    3.40    0.25
   3 -12  -7    1.12    0.14
  -3  12   7    1.44    0.14
  -3  12   6   16.68    0.46
   3  12  -6   17.92    0.66
   3 -12  -6   17.64    0.57
  -3  12   6   17.84    0.49
  -3  12   5    9.64    0.41
   3  12  -5   10.06    0.53
   3 -12  -5    9.69    0.44
   3 -12  -5    9.92    0.41
  -3  12   4    0.89    0.15
   3 -12  -4    0.79    0.14
   3  12  -4    0.59    0.16
   3 -12  -4    0.89    0.15
  -3  12   3   55.86    1.12
   3  12  -3   58.47    1.34
   3 -12  -3   56.38    0.97
   3 -12  -3   57.15    1.22
   3  12  -2    9.95    0.44
  -3  12   2   11.22    0.52
   3  12  -2   10.66    0.58
   3 -12  -2   10.70    0.56
   3  12  -1    0.04    0.08
  -3  12   1    0.16    0.09
   3  12  -1    0.13    0.09
   3  12  -1    0.06    0.10
   3 -12  -1    0.13    0.11
   3  12   0    0.89    0.16
   3  12   0    0.84    0.17
  -3  12   0    0.74    0.16
   3 -12   0    0.62    0.15
   3  12   0    0.74    0.18
   3  12   1   19.39    0.73
   3  12   1   19.48    0.70
   3  12   1   18.97    0.79
   3 -12   1   19.84    0.71
   3  12   2   21.37    0.76
   3  12   2   20.08    0.73
   3  12   2   19.53    0.78
   3 -12   2   20.49    0.65
  -3  12  -2   19.60    0.60
  -3  12  -3    0.92    0.15
   3  12   3    0.75    0.16
  -3 -12  -3    1.01    0.13
   3 -12   3    0.96    0.13
   3  12   3    0.98    0.19
   3  12   3    0.96    0.17
   3  12   4    1.59    0.19
   3  12   4    1.42    0.20
  -3 -12  -4    1.50    0.19
   3  12   4    1.50    0.21
  -3 -12  -4    1.69    0.16
  -3  12  -4    1.60    0.18
   3  12   5   19.51    0.55
   3  12   5   20.25    0.64
  -3 -12  -5   19.22    0.56
   3  12   5   19.23    0.65
  -3  12  -5   19.45    0.57
   3  12   6   10.63    0.40
   3  12   6   10.85    0.42
   3  13  -6   -0.06    0.12
  -3  13   5    8.85    0.30
   3  13  -5   10.01    0.48
   3 -13  -5    9.34    0.35
   3 -13  -5    9.96    0.33
  -3  13   4   10.46    0.41
   3  13  -4   10.76    0.53
   3 -13  -4   10.38    0.36
   3 -13  -4   10.95    0.44
  -3  13   3    7.30    0.36
   3  13  -3    8.34    0.48
   3 -13  -3    7.93    0.42
   3  13  -2    7.83    0.34
  -3  13   2    7.81    0.40
   3  13  -2    7.93    0.48
   3 -13  -2    8.19    0.45
   3  13  -1   27.14    0.71
  -3  13   1   27.43    0.76
   3  13  -1   27.46    0.90
   3 -13  -1   28.85    0.85
   3  13   0    0.77    0.15
   3  13   0    0.75    0.17
   3 -13   0    0.72    0.15
   3  13   0    0.91    0.13
   3  13   1    8.64    0.45
  -3 -13  -1    7.26    0.35
   3  13   1    8.45    0.50
   3 -13   1    8.83    0.43
   3  13   1    8.40    0.41
   3  13   2    1.84    0.21
   3  13   2    1.83    0.21
  -3 -13  -2    1.73    0.18
   3  13   2    2.29    0.26
   3 -13   2    1.89    0.19
  -3  13  -2    1.90    0.17
   3  13   3    4.12    0.29
   3  13   3    4.14    0.30
  -3 -13  -3    3.98    0.27
   3  13   3    4.33    0.33
  -3  13  -3    3.52    0.23
   3  13   4    5.81    0.33
   3  13   4    5.86    0.31
  -3 -13  -4    5.40    0.29
   3  13   4    5.51    0.34
  -3  13  -4    5.28    0.27
   3  14  -5    1.08    0.15
   3  14  -4    0.19    0.08
   3 -14  -4    0.29    0.08
   3  14  -3    5.41    0.35
   3 -14  -3    5.35    0.31
   3  14  -2    9.65    0.48
   3 -14  -2    9.51    0.43
   3  14  -1    4.25    0.26
   3  14  -1    4.41    0.33
   3 -14  -1    4.25    0.30
   3  14   0    1.45    0.17
   3  14   0    1.38    0.20
   3 -14   0    1.56    0.18
   3  14   1    0.19    0.10
   3  14   1    0.29    0.11
   3 -14   1    0.20    0.08
   3  14   2   24.81    0.65
   3  14   2   24.23    0.72
   3 -14   2   23.76    0.50
   3  14   2   23.86    0.58
   3  14   3    2.79    0.21
   3  14   3    3.19    0.25
   3  14   3    3.13    0.21
   3  15  -2    1.22    0.15
   3 -15  -2    1.44    0.15
   3  15  -1    6.27    0.34
   3 -15  -1    6.71    0.31
   3  15   0    4.99    0.30
   3 -15   0    4.78    0.25
   3  15   1    2.63    0.21
   4   0 -11    0.00    0.04
   4   0 -10    1.40    0.19
  -4   0  10    1.38    0.18
   4   0 -10    1.47    0.19
  -4   0   9    0.04    0.08
   4   0  -9   -0.03    0.10
  -4   0   9   -0.07    0.07
   4   0  -9    0.01    0.09
  -4   0   8   14.99    0.67
   4   0  -8   14.43    0.67
  -4   0   8   16.25    0.59
   4   0  -8   14.49    0.69
  -4   0   7    0.00    0.09
   4   0  -7    0.00    0.10
   4   0  -7    0.02    0.11
  -4   0   6   18.30    0.70
   4   0  -6   18.32    0.66
   4   0  -6   18.15    0.74
   4   0  -6   18.40    0.71
   4   0  -6   17.33    0.74
  -4   0   5   -0.02    0.07
   4   0  -5    0.00    0.08
   4   0  -5    0.16    0.07
   4   0  -5    0.05    0.08
   4   0  -5   -0.04    0.07
  -4   0   4   10.48    0.45
   4   0  -4    9.89    0.48
   4   0  -4    9.79    0.48
   4   0  -4   10.35    0.43
   4   0  -4   10.17    0.52
   4   0  -4   11.11    0.53
  -4   0   3    0.04    0.06
   4   0  -3   -0.05    0.09
   4   0  -3    0.03    0.07
   4   0  -3   -0.08    0.06
   4   0  -3   -0.02    0.07
  -4   0   2    9.58    0.35
   4   0  -2    9.82    0.48
   4   0  -2    9.47    0.44
   4   0  -2    9.65    0.43
   4   0  -2    8.96    0.45
  -4   0   1   -0.05    0.08
   4   0  -1    0.05    0.08
   4   0  -1    0.01    0.06
   4   0  -1    0.07    0.09
  -4   0   0   42.87    0.96
   4   0   0   44.85    0.97
   4   0   0   45.08    0.99
   4   0   0   44.08    0.94
  -4   0  -1    0.05    0.07
   4   0   1    0.02    0.08
   4   0   1    0.08    0.06
   4   0   1    0.06    0.10
  -4   0  -2   17.56    0.66
   4   0   2   18.91    0.69
   4   0   2   18.94    0.63
   4   0   2   19.03    0.61
   4   0   3   -0.08    0.08
  -4   0  -3   -0.03    0.07
   4   0   3    0.08    0.09
   4   0   3    0.16    0.08
  -4   0  -4   53.46    1.21
   4   0   4   52.05    1.28
  -4   0  -4   52.20    1.03
   4   0   4   52.82    0.89
  -4   0  -5    0.01    0.09
   4   0   5    0.03    0.10
  -4   0  -5    0.00    0.09
  -4   0  -6   51.32    1.20
   4   0   6   53.24    1.33
  -4   0  -6   51.40    0.97
  -4   0  -7   -0.01    0.07
   4   0   7    0.12    0.10
   4   0   8   16.27    0.63
   4  -1 -11    1.52    0.16
   4   1 -11    1.67    0.16
   4  -1 -10   11.87    0.52
   4   1 -10   12.06    0.53
  -4  -1  10   12.30    0.49
  -4   1  10   11.46    0.49
  -4   1  10   11.80    0.39
   4   1 -10   11.83    0.50
   4  -1 -10   11.21    0.49
  -4  -1   9    7.79    0.45
  -4   1   9    7.52    0.46
   4  -1  -9    8.20    0.48
   4   1  -9    8.10    0.48
  -4  -1   9    7.70    0.32
  -4   1   9    8.51    0.41
   4   1  -9    8.21    0.48
   4  -1  -9    7.48    0.46
  -4  -1   8   39.15    1.06
  -4   1   8   40.84    1.12
   4  -1  -8   38.85    1.09
   4   1  -8   40.44    1.11
   4  -1  -8   41.36    0.92
  -4  -1   8   39.61    0.86
  -4   1   8   40.13    0.98
   4   1  -8   38.64    1.11
   4  -1  -8   39.05    1.12
  -4  -1   7   77.99    1.48
  -4   1   7   79.54    1.55
   4  -1  -7   76.18    1.53
   4   1  -7   76.81    1.53
   4  -1  -7   81.11    1.40
   4   1  -7   77.61    1.59
   4  -1  -7   76.95    1.58
  -4  -1   6   63.22    1.26
  -4   1   6   62.07    1.30
   4  -1  -6   63.25    1.26
   4  -1  -6   58.77    1.31
   4   1  -6   58.46    1.32
   4   1  -6   63.00    1.27
   4   1  -6   62.94    1.40
   4  -1  -6   62.99    1.41
   4   1  -5    1.03    0.17
  -4  -1   5    0.98    0.15
  -4   1   5    1.09    0.18
   4  -1  -5    0.97    0.17
   4  -1  -5    1.00    0.13
   4   1  -5    0.91    0.13
   4  -1  -5    1.02    0.19
   4   1  -5    0.90    0.17
   4  -1  -5    0.75    0.16
   4   1  -4    8.64    0.47
  -4  -1   4    8.37    0.39
  -4   1   4    8.60    0.43
   4  -1  -4    8.38    0.44
   4   1  -4    8.44    0.44
   4  -1  -4    8.66    0.46
   4  -1  -4    8.04    0.38
   4   1  -4    9.14    0.40
   4   1  -4    8.75    0.48
   4  -1  -4    8.82    0.49
   4  -1  -4    9.11    0.50
   4  -1  -3    2.18    0.24
  -4  -1   3    1.96    0.17
  -4   1   3    2.29    0.21
   4   1  -3    2.30    0.24
   4  -1  -3    2.27    0.23
   4   1  -3    2.03    0.22
   4  -1  -3    2.02    0.22
   4  -1  -3    2.17    0.21
   4   1  -3    2.03    0.20
   4   1  -3    2.71    0.26
   4  -1  -3    2.14    0.24
   4  -1  -2   33.67    0.88
  -4   1   2   34.36    0.73
   4  -1  -2   34.14    0.84
   4   1  -2   33.88    0.83
   4   1  -2   34.96    0.89
   4  -1  -2   34.31    0.83
   4   1  -2   33.79    0.81
   4   1  -2   34.40    0.88
   4  -1  -2   34.78    0.90
  -4   1   1    3.97    0.23
   4  -1  -1    3.68    0.30
  -4  -1   1    3.62    0.29
   4   1  -1    2.95    0.25
   4  -1  -1    3.33    0.27
   4   1  -1    3.45    0.28
   4  -1  -1    3.31    0.26
   4   1  -1    3.50    0.27
  -4   1   1    3.17    0.27
  -4  -1   0    0.19    0.09
  -4   1   0    0.22    0.10
   4   1   0    0.17    0.09
   4   1   0    0.19    0.08
   4  -1   0    0.21    0.09
   4  -1   0    0.26    0.10
   4   1   0    0.24    0.09
   4  -1   0    0.45    0.11
  -4  -1  -1  114.32    1.62
  -4   1  -1  117.30    1.63
   4   1   1  117.56    1.63
   4  -1   1  116.65    1.64
   4  -1   1  115.76    1.54
   4   1   1  117.08    1.62
   4  -1   1  118.95    1.54
   4   1   1  113.04    1.51
  -4  -1  -2    0.57    0.13
  -4   1  -2    0.51    0.13
   4   1   2    0.79    0.16
   4  -1   2    0.59    0.14
   4   1   2    0.73    0.16
   4  -1   2    0.55    0.12
   4   1   2    0.57    0.12
   4  -1   2    0.52    0.13
  -4  -1  -3    0.48    0.13
  -4   1  -3    0.46    0.13
   4   1   3    0.60    0.14
   4  -1   3    0.44    0.13
   4   1   3    0.39    0.11
   4  -1   3    0.59    0.12
   4   1   3    0.63    0.12
   4  -1   3    0.77    0.13
  -4  -1  -4    0.97    0.18
  -4   1  -4    0.82    0.17
   4   1   4    1.07    0.20
   4  -1   4    0.91    0.19
   4   1   4    0.99    0.15
  -4  -1  -4    0.98    0.17
  -4   1  -4    1.02    0.15
   4  -1   4    1.08    0.13
   4   1   4    0.98    0.14
  -4  -1  -5   60.63    1.32
  -4   1  -5   59.09    1.31
   4   1   5   58.59    1.37
   4  -1   5   58.38    1.39
  -4  -1  -5   59.23    1.17
  -4   1  -5   59.58    0.99
  -4   1  -6    3.94    0.34
  -4  -1  -6    4.13    0.35
   4   1   6    4.11    0.38
   4  -1   6    3.78    0.36
  -4  -1  -6    3.99    0.30
   4   1   6    4.17    0.25
  -4   1  -7    3.75    0.31
  -4  -1  -7    3.58    0.30
   4   1   7    4.38    0.37
   4  -1   7    4.00    0.35
  -4  -1  -7    3.63    0.25
   4   1   8    0.28    0.11
   4  -1   8    0.17    0.09
  -4  -2  10   -0.03    0.08
  -4   2  10    0.07    0.08
   4  -2 -10    0.09    0.08
   4   2 -10    0.17    0.09
  -4   2  10    0.12    0.06
   4   2 -10    0.15    0.08
   4  -2 -10    0.12    0.08
  -4  -2   9    0.62    0.14
  -4   2   9    0.48    0.14
   4  -2  -9    0.34    0.12
   4   2  -9    0.66    0.15
  -4   2   9    0.27    0.09
   4   2  -9    0.10    0.08
   4  -2  -9    0.39    0.14
  -4  -2   8    5.83    0.40
  -4   2   8    5.78    0.43
   4  -2  -8    5.56    0.41
   4   2  -8    6.24    0.44
   4  -2  -8    5.53    0.35
  -4  -2   8    5.96    0.30
  -4   2   8    5.87    0.39
   4   2  -8    6.02    0.43
   4  -2  -8    5.60    0.42
  -4  -2   7   71.17    1.37
  -4   2   7   71.21    1.49
   4   2  -7   68.35    1.43
   4  -2  -7   69.24    1.34
   4   2  -7   66.78    1.44
   4  -2  -7   66.98    1.47
  -4  -2   6   14.29    0.59
  -4   2   6   15.02    0.66
   4  -2  -6   14.72    0.63
   4  -2  -6   13.99    0.64
   4   2  -6   14.29    0.65
   4   2  -6   14.00    0.65
   4  -2  -6   14.32    0.67
   4   2  -6   15.07    0.60
   4   2  -5    0.88    0.16
  -4  -2   5    0.60    0.13
  -4   2   5    0.82    0.16
   4  -2  -5    0.97    0.17
   4  -2  -5    0.77    0.13
   4   2  -5    0.71    0.12
   4  -2  -5    0.68    0.16
   4   2  -5    0.76    0.16
   4  -2  -5    0.75    0.17
   4   2  -4   31.12    0.86
  -4  -2   4   29.54    0.69
  -4   2   4   28.22    0.81
   4  -2  -4   29.12    0.81
   4   2  -4   31.38    0.84
   4  -2  -4   29.19    0.85
   4  -2  -4   29.53    0.75
   4   2  -4   29.70    0.73
   4   2  -4   29.84    0.88
   4  -2  -4   31.22    0.91
   4  -2  -4   29.46    0.90
  -4   2   3  109.83    1.48
   4  -2  -3  110.66    1.52
   4   2  -3  110.80    1.52
   4   2  -3  114.94    1.63
   4  -2  -3  108.57    1.57
   4  -2  -3  109.65    1.48
   4   2  -3  109.63    1.44
   4   2  -3  107.79    1.59
   4  -2  -3  109.00    1.64
   4  -2  -3  111.92    1.69
   4  -2  -2   20.65    0.70
  -4   2   2   19.86    0.59
   4  -2  -2   20.71    0.65
   4   2  -2   19.07    0.62
   4   2  -2   21.01    0.70
   4  -2  -2   19.74    0.65
   4  -2  -2   19.32    0.63
   4   2  -2   20.06    0.63
   4   2  -2   20.21    0.67
   4  -2  -2   19.91    0.68
   4  -2  -1   31.27    0.84
  -4   2   1   31.52    0.69
   4  -2  -1   30.23    0.79
   4   2  -1   31.20    0.79
   4   2  -1   31.44    0.85
   4  -2  -1   30.52    0.79
   4   2  -1   29.64    0.78
  -4  -2   1   30.56    0.82
  -4   2   1   31.69    0.83
  -4  -2   0   66.01    1.21
  -4   2   0   65.11    1.19
   4  -2   0   66.66    1.19
  -4   2   0   67.22    0.95
   4   2   0   65.90    1.16
   4  -2   0   66.03    1.18
   4   2   0   66.53    1.23
   4  -2   0   63.85    1.15
   4   2   0   64.26    1.16
  -4  -2  -1   17.75    0.64
  -4   2  -1   17.97    0.64
   4  -2   1   17.27    0.57
  -4   2  -1   19.51    0.48
   4   2   1   18.24    0.64
   4  -2   1   18.67    0.65
   4  -2   1   18.11    0.61
   4   2   1   18.51    0.66
   4   2   1   19.40    0.64
  -4  -2  -2   22.61    0.74
  -4   2  -2   22.09    0.73
   4  -2   2   20.74    0.58
   4   2   2   22.53    0.75
   4  -2   2   22.90    0.76
   4  -2   2   22.13    0.66
   4   2   2   22.77    0.68
   4   2   2   23.20    0.75
  -4  -2  -3   15.25    0.62
  -4   2  -3   15.49    0.63
   4   2   3   15.48    0.65
   4  -2   3   15.40    0.66
   4  -2   3   15.13    0.52
   4   2   3   15.13    0.54
   4   2   3   14.75    0.60
  -4  -2  -4    1.26    0.19
  -4   2  -4    1.00    0.18
   4   2   4    1.31    0.22
   4  -2   4    1.09    0.21
   4  -2   4    1.46    0.15
   4   2   4    1.44    0.16
   4   2   4    1.14    0.18
  -4  -2  -5    6.44    0.43
  -4   2  -5    6.34    0.43
   4   2   5    6.19    0.45
   4  -2   5    5.86    0.45
  -4  -2  -5    5.69    0.39
   4   2   5    5.82    0.35
  -4   2  -6   25.70    0.84
  -4  -2  -6   25.43    0.83
   4   2   6   25.91    0.90
   4  -2   6   25.96    0.92
  -4  -2  -6   24.72    0.76
   4   2   6   25.75    0.63
  -4   2  -7    0.52    0.13
  -4  -2  -7    0.44    0.13
   4   2   7    0.56    0.15
   4  -2   7    0.63    0.16
  -4  -2  -7    0.50    0.11
   4   2   8    0.76    0.15
   4  -2   8    0.68    0.15
  -4  -2  -8    0.49    0.09
   4  -3 -10   55.59    1.03
   4   3 -10   56.29    1.04
  -4  -3  10   55.08    0.95
  -4   3  10   56.62    1.04
  -4   3  10   54.85    0.93
   4   3 -10   53.88    0.95
   4  -3 -10   54.71    0.98
  -4  -3   9    0.14    0.09
  -4   3   9    0.13    0.10
   4  -3  -9    0.10    0.09
   4  -3  -9    0.28    0.11
   4   3  -9    0.14    0.09
  -4   3   9    0.15    0.08
   4   3  -9    0.23    0.10
   4  -3  -9    0.15    0.10
  -4  -3   8    5.08    0.36
  -4   3   8    4.78    0.39
   4  -3  -8    5.28    0.39
   4   3  -8    4.79    0.38
   4  -3  -8    4.65    0.33
  -4   3   8    4.52    0.35
   4   3  -8    4.87    0.38
   4  -3  -8    4.69    0.38
  -4  -3   7   34.14    0.91
  -4   3   7   33.11    1.03
   4  -3  -7   31.59    0.95
   4   3  -7   34.32    0.99
   4  -3  -7   32.76    0.94
   4   3  -7   33.77    0.99
   4  -3  -7   31.96    1.00
  -4  -3   6   25.36    0.74
  -4   3   6   23.94    0.85
   4  -3  -6   26.21    0.86
   4  -3  -6   24.17    0.82
   4   3  -6   24.09    0.82
   4   3  -6   23.26    0.83
   4  -3  -6   24.09    0.85
   4   3  -6   25.05    0.75
  -4  -3   5   28.40    0.72
  -4   3   5   26.86    0.86
   4  -3  -5   29.35    0.89
   4  -3  -5   28.22    0.71
   4   3  -5   27.80    0.66
   4   3  -5   26.75    0.85
   4  -3  -5   28.56    0.90
   4   3  -5   29.59    0.83
  -4  -3   4    0.45    0.10
  -4   3   4    0.23    0.10
   4  -3  -4    0.44    0.12
   4   3  -4    0.15    0.07
   4  -3  -4    0.29    0.10
   4   3  -4    0.27    0.08
   4  -3  -4    0.57    0.16
   4   3  -4    0.28    0.11
   4  -3  -4    0.29    0.11
  -4   3   3   20.63    0.68
   4  -3  -3   21.69    0.68
   4   3  -3   20.08    0.64
   4   3  -3   22.12    0.72
   4  -3  -3   20.13    0.69
   4  -3  -3   20.46    0.66
   4   3  -3   19.95    0.63
   4   3  -3   20.37    0.68
   4  -3  -3   20.55    0.71
   4  -3  -3   21.16    0.75
  -4   3   2   74.03    1.21
   4  -3  -2   74.84    1.23
   4   3  -2   74.32    1.21
   4  -3  -2   74.16    1.27
   4   3  -2   78.41    1.35
   4  -3  -2   73.30    1.26
   4   3  -2   74.47    1.24
   4   3  -2   76.85    1.28
   4  -3  -2   77.75    1.33
   4  -3  -2   76.32    1.36
  -4  -3   1    0.04    0.07
  -4   3   1   -0.04    0.07
   4  -3  -1   -0.01    0.11
  -4   3   1    0.05    0.06
   4   3  -1    0.02    0.09
   4  -3  -1    0.17    0.09
   4   3  -1    0.03    0.08
   4  -3  -1    0.04    0.07
   4   3  -1    0.21    0.09
  -4  -3   0    3.60    0.29
  -4   3   0    3.48    0.28
   4  -3   0    3.61    0.28
  -4   3   0    3.49    0.24
   4   3   0    3.57    0.27
   4  -3   0    3.16    0.27
   4  -3   0    3.11    0.27
   4   3   0    3.72    0.31
   4   3   0    3.46    0.28
  -4  -3  -1   11.12    0.50
  -4   3  -1   11.73    0.51
   4  -3   1   10.06    0.43
  -4   3  -1   11.01    0.41
   4   3   1   11.37    0.50
   4  -3   1   11.18    0.51
   4  -3   1   10.83    0.48
   4   3   1   11.82    0.51
   4   3   1   11.19    0.53
  -4  -3  -2   24.72    0.76
  -4   3  -2   23.41    0.74
  -4   3  -2   24.52    0.59
   4   3   2   24.71    0.77
   4  -3   2   25.10    0.80
   4  -3   2   23.31    0.69
   4   3   2   24.84    0.73
   4   3   2   23.56    0.79
  -4  -3  -3   20.93    0.72
  -4   3  -3   20.51    0.71
   4   3   3   21.09    0.75
   4  -3   3   18.98    0.73
   4  -3   3   20.84    0.62
   4   3   3   21.32    0.65
   4   3   3   19.95    0.72
  -4  -3  -4    0.05    0.08
  -4   3  -4    0.14    0.10
   4   3   4    0.05    0.10
   4  -3   4    0.05    0.10
   4  -3   4    0.10    0.07
   4   3   4    0.12    0.10
  -4  -3  -5    6.18    0.41
  -4   3  -5    5.65    0.40
   4   3   5    5.54    0.41
   4  -3   5    5.53    0.43
  -4  -3  -5    5.62    0.40
   4   3   5    5.60    0.36
   4   3   5    5.65    0.35
  -4   3  -6   34.95    0.95
  -4  -3  -6   34.67    0.93
   4   3   6   33.61    1.00
   4  -3   6   34.33    1.02
  -4  -3  -6   34.41    0.92
   4   3   6   34.06    0.75
   4   3   6   33.63    0.74
  -4   3  -7    0.68    0.13
  -4  -3  -7    0.80    0.15
   4   3   7    0.77    0.16
   4  -3   7    1.04    0.18
  -4  -3  -7    0.93    0.15
  -4   3  -8   14.21    0.53
   4   3   8   14.39    0.53
   4  -3   8   14.30    0.53
  -4  -3  -8   13.36    0.41
   4  -4 -10    1.42    0.16
   4   4 -10    1.49    0.16
  -4  -4  10    1.45    0.15
  -4   4  10    1.37    0.17
  -4   4  10    1.71    0.17
   4   4 -10    1.56    0.16
   4  -4 -10    1.64    0.16
   4  -4  -9    7.12    0.40
   4   4  -9    7.07    0.40
  -4  -4   9    6.61    0.36
  -4   4   9    6.74    0.41
   4  -4  -9    7.48    0.36
  -4   4   9    6.92    0.40
   4   4  -9    6.88    0.38
   4  -4  -9    6.81    0.39
  -4  -4   8    2.89    0.26
  -4   4   8    3.19    0.32
   4  -4  -8    3.25    0.29
   4   4  -8    2.87    0.28
   4  -4  -8    2.84    0.27
  -4   4   8    3.11    0.30
   4   4  -8    3.27    0.30
   4  -4  -8    2.83    0.28
  -4  -4   7   31.44    0.83
  -4   4   7   33.43    1.03
   4  -4  -7   31.22    0.91
   4   4  -7   31.12    0.91
   4  -4  -7   32.30    0.95
  -4   4   7   30.75    0.94
   4   4  -7   32.28    0.94
   4  -4  -7   32.64    0.96
  -4  -4   6    9.33    0.44
  -4   4   6    9.47    0.54
   4   4  -6   10.10    0.45
   4  -4  -6    9.31    0.50
   4   4  -6   10.03    0.52
   4  -4  -6    9.99    0.55
   4   4  -6    9.66    0.51
   4  -4  -6    9.39    0.52
   4   4  -6   10.26    0.46
   4   4  -5  111.67    1.59
  -4  -4   5  118.10    1.38
  -4   4   5  112.89    1.80
   4   4  -5  114.35    1.38
   4  -4  -5  109.40    1.77
   4  -4  -5  113.86    1.46
   4   4  -5  109.73    1.66
   4  -4  -5  109.87    1.71
  -4   4   4   10.83    0.54
   4   4  -4   11.37    0.51
   4  -4  -4   11.67    0.56
   4  -4  -4   11.10    0.49
   4   4  -4   10.61    0.45
   4  -4  -4   11.78    0.60
   4   4  -4   10.68    0.50
   4  -4  -4   11.01    0.53
  -4   4   3   47.43    1.06
   4  -4  -3   46.42    0.97
   4   4  -3   47.73    0.97
   4   4  -3   48.39    1.07
   4  -4  -3   45.42    1.06
   4  -4  -3   47.67    1.04
   4   4  -3   46.57    0.98
   4  -4  -3   46.70    1.14
   4   4  -3   46.85    1.01
   4  -4  -3   48.85    1.06
  -4   4   2    4.65    0.32
   4  -4  -2    4.08    0.30
   4   4  -2    4.42    0.30
   4  -4  -2    3.96    0.30
   4   4  -2    4.35    0.33
   4  -4  -2    4.47    0.33
   4   4  -2    4.37    0.31
   4  -4  -2    4.62    0.35
   4   4  -2    4.23    0.30
   4  -4  -2    4.71    0.33
  -4  -4   2    4.54    0.32
  -4   4   2    4.81    0.32
  -4   4   1   41.57    0.91
   4  -4  -1   40.52    0.91
   4   4  -1   40.93    0.89
   4  -4  -1   38.98    0.89
   4  -4  -1   39.91    0.97
   4   4  -1   40.08    0.99
   4   4  -1   40.03    0.95
   4  -4  -1   40.64    0.96
  -4  -4   1   40.55    0.93
  -4   4   1   39.82    0.91
  -4  -4   0   17.54    0.61
  -4   4   0   18.11    0.62
  -4   4   0   17.85    0.58
   4   4   0   17.88    0.59
   4  -4   0   18.01    0.62
   4  -4   0   17.53    0.64
   4   4   0   16.49    0.62
   4   4   0   17.25    0.66
   4  -4   0   16.64    0.58
  -4  -4  -1   12.94    0.53
  -4   4  -1   12.43    0.52
  -4   4  -1   13.67    0.49
   4   4   1   13.52    0.53
   4  -4   1   12.85    0.54
   4  -4   1   13.36    0.54
   4   4   1   12.85    0.54
   4   4   1   12.75    0.58
   4  -4   1   12.51    0.44
  -4  -4  -2    7.73    0.42
  -4   4  -2    7.94    0.42
  -4   4  -2    7.94    0.37
   4   4   2    7.89    0.43
   4  -4   2    7.87    0.44
   4   4   2    7.01    0.35
   4  -4   2    7.08    0.39
   4   4   2    7.45    0.41
   4   4   2    7.64    0.46
  -4  -4  -3   29.57    0.83
  -4   4  -3   30.11    0.84
   4   4   3   29.13    0.86
   4  -4   3   28.34    0.87
   4  -4   3   30.03    0.74
   4   4   3   29.20    0.91
   4   4   4    0.11    0.11
  -4  -4  -4    0.00    0.08
  -4   4  -4    0.00    0.08
   4   4   4    0.22    0.12
   4  -4   4    0.26    0.11
   4  -4   4   -0.04    0.08
  -4   4  -5    7.29    0.43
  -4  -4  -5    7.24    0.42
   4   4   5    7.44    0.47
   4  -4   5    7.15    0.47
  -4  -4  -5    7.48    0.47
   4   4   5    6.75    0.42
   4   4   5    7.38    0.41
  -4   4  -6   11.57    0.52
   4   4   6   11.20    0.55
   4  -4   6   11.56    0.57
  -4  -4  -6   12.22    0.56
   4   4   6   11.98    0.48
   4   4   6   11.95    0.45
  -4   4  -7   10.16    0.43
  -4  -4  -7   10.61    0.44
  -4   4  -7   10.94    0.51
   4   4   7   10.87    0.49
   4  -4   7   10.93    0.51
  -4  -4  -7   11.05    0.47
  -4   4  -8    2.40    0.21
   4   4   8    2.56    0.20
   4  -4   8    2.48    0.21
  -4  -4  -8    2.41    0.19
   4   4   8    2.32    0.17
   4   5 -10   13.34    0.40
  -4   5  10   13.46    0.45
  -4   5  10   13.80    0.46
   4  -5 -10   12.52    0.39
   4  -5  -9    3.53    0.26
   4   5  -9    3.49    0.26
  -4  -5   9    3.30    0.24
  -4   5   9    3.55    0.29
   4  -5  -9    3.82    0.26
  -4   5   9    3.56    0.28
   4   5  -9    3.50    0.25
   4  -5  -9    3.73    0.26
  -4   5   8    1.63    0.23
   4  -5  -8    1.76    0.21
   4   5  -8    2.29    0.24
  -4  -5   8    1.60    0.19
   4  -5  -8    1.79    0.22
  -4   5   8    1.90    0.23
   4   5  -8    1.46    0.18
   4  -5  -8    1.70    0.21
  -4  -5   7    9.53    0.44
  -4   5   7    9.09    0.54
   4  -5  -7    9.32    0.46
   4   5  -7    9.77    0.49
   4  -5  -7    9.75    0.53
  -4   5   7    9.76    0.53
   4   5  -7    9.53    0.48
   4  -5  -7    9.44    0.49
  -4  -5   6   54.98    0.97
  -4   5   6   54.25    1.30
   4   5  -6   55.23    1.10
   4  -5  -6   52.03    1.12
   4   5  -6   53.64    1.14
   4  -5  -6   55.09    1.28
   4   5  -6   53.63    1.14
   4  -5  -6   53.54    1.16
   4   5  -5   13.06    0.53
  -4   5   5   13.63    0.64
   4   5  -5   12.95    0.53
   4  -5  -5   13.69    0.64
   4  -5  -5   13.13    0.56
   4   5  -5   12.71    0.55
   4  -5  -5   13.59    0.53
   4   5  -5   13.10    0.56
   4  -5  -5   13.02    0.56
  -4   5   4    0.04    0.09
   4  -5  -4    0.11    0.10
   4   5  -4    0.11    0.10
   4   5  -4    0.13    0.07
   4  -5  -4    0.06    0.08
   4   5  -4    0.06    0.07
   4  -5  -4    0.02    0.07
   4   5  -3    0.81    0.12
  -4   5   3    0.69    0.15
   4  -5  -3    0.83    0.17
   4  -5  -3    0.59    0.13
   4   5  -3    0.66    0.13
   4   5  -3    0.50    0.10
   4  -5  -3    0.72    0.15
   4   5  -3    0.59    0.14
   4   5  -3    0.67    0.13
   4  -5  -3    0.63    0.13
  -4   5   2   33.55    0.89
   4  -5  -2   34.08    0.81
   4   5  -2   34.19    0.80
   4  -5  -2   33.81    0.88
   4   5  -2   35.15    0.76
   4   5  -2   33.75    0.91
   4  -5  -2   33.93    0.92
   4   5  -2   33.53    0.88
   4  -5  -2   32.82    0.92
  -4  -5   2   34.22    0.83
  -4   5   2   33.19    0.81
  -4  -5   1    2.36    0.23
  -4   5   1    2.16    0.21
  -4   5   1    2.45    0.24
   4  -5  -1    2.15    0.21
   4   5  -1    2.25    0.22
   4  -5  -1    2.37    0.23
   4   5  -1    2.31    0.21
   4  -5  -1    2.53    0.26
   4   5  -1    2.40    0.26
   4   5  -1    2.14    0.24
   4  -5  -1    2.24    0.24
  -4  -5   0    4.91    0.32
  -4   5   0    5.02    0.32
  -4   5   0    5.65    0.35
   4  -5   0    5.12    0.33
   4   5   0    5.17    0.33
   4   5   0    5.44    0.31
   4  -5   0    5.11    0.36
   4   5   0    5.01    0.35
   4   5   0    5.08    0.37
   4  -5   0    4.90    0.31
  -4  -5  -1    5.87    0.35
  -4   5  -1    5.96    0.35
  -4   5  -1    6.30    0.36
   4   5   1    6.07    0.36
   4  -5   1    6.31    0.38
   4   5   1    5.56    0.34
   4  -5   1    5.49    0.36
   4   5   1    5.83    0.41
  -4  -5  -2   15.70    0.57
  -4   5  -2   14.81    0.56
  -4   5  -2   15.59    0.56
   4   5   2   14.69    0.57
   4  -5   2   14.75    0.59
   4   5   2   14.69    0.57
   4  -5   2   15.07    0.58
   4   5   2   15.06    0.67
  -4  -5  -3   30.32    0.81
  -4   5  -3   30.55    0.82
  -4   5  -3   31.95    0.79
   4   5   3   31.81    0.87
   4  -5   3   30.69    0.88
   4   5   3   30.23    0.85
   4  -5   3   31.70    0.77
   4   5   3   32.88    0.93
   4   5   3   34.30    1.02
  -4  -5  -4    4.25    0.32
  -4   5  -4    4.41    0.33
  -4   5  -4    4.54    0.34
   4   5   4    4.43    0.34
   4  -5   4    4.05    0.34
   4  -5   4    4.25    0.25
   4   5   4    4.35    0.37
   4   5   4    4.24    0.34
  -4   5  -5   38.24    0.91
  -4  -5  -5   36.55    0.89
  -4   5  -5   38.20    0.98
   4   5   5   37.25    0.97
   4  -5   5   36.28    0.98
  -4  -5  -5   37.13    1.03
   4   5   5   38.23    1.01
   4   5   5   37.13    0.90
  -4   5  -6    2.22    0.21
  -4   5  -6    2.19    0.24
  -4  -5  -6    1.82    0.20
   4   5   6    2.15    0.23
   4  -5   6    1.96    0.22
  -4  -5  -6    2.48    0.26
   4   5   6    2.55    0.24
   4   5   6    2.15    0.20
  -4   5  -7    0.58    0.13
   4   5   7    0.49    0.12
   4  -5   7    0.61    0.12
  -4  -5  -7    0.56    0.12
  -4   5  -8    2.22    0.19
   4   5   8    2.11    0.16
   4  -5   8    2.19    0.17
  -4  -5  -8    2.22    0.18
   4   5   8    2.21    0.16
  -4   6  10    0.49    0.09
   4  -6  -9    3.52    0.22
   4   6  -9    3.19    0.21
  -4  -6   9    3.43    0.20
  -4   6   9    3.66    0.27
   4  -6  -9    3.17    0.23
  -4   6   9    3.52    0.28
   4  -6  -8   56.38    0.99
   4   6  -8   57.07    1.02
  -4  -6   8   54.17    0.87
  -4   6   8   58.41    1.22
   4  -6  -8   58.13    1.16
  -4   6   8   58.17    1.21
   4   6  -8   55.45    0.95
   4  -6  -8   55.70    0.95
  -4   6   7   11.65    0.59
   4   6  -7   13.14    0.58
   4  -6  -7   11.44    0.47
   4   6  -7   11.69    0.49
   4  -6  -7   12.00    0.58
  -4   6   7   11.82    0.58
   4   6  -7   11.12    0.47
   4  -6  -7   11.51    0.48
  -4   6   6    1.32    0.22
   4  -6  -6    1.38    0.22
   4   6  -6    1.35    0.20
   4  -6  -6    1.55    0.19
   4   6  -6    1.04    0.16
   4  -6  -6    1.52    0.16
  -4   6   6    1.14    0.19
   4   6  -6    1.11    0.17
   4  -6  -6    1.26    0.18
   4   6  -5    0.52    0.12
  -4   6   5    0.25    0.11
   4  -6  -5    0.52    0.15
   4   6  -5    0.55    0.13
   4  -6  -5    0.29    0.10
   4  -6  -5    0.21    0.10
   4   6  -5    0.48    0.11
   4   6  -5    0.26    0.10
   4  -6  -5    0.20    0.08
  -4   6   4    5.59    0.41
   4   6  -4    5.31    0.35
   4   6  -4    5.79    0.37
   4  -6  -4    5.68    0.40
   4  -6  -4    5.93    0.38
   4   6  -4    5.96    0.34
   4  -6  -4    6.16    0.35
  -4   6   3    3.07    0.30
   4   6  -3    3.46    0.28
   4  -6  -3    3.27    0.30
   4   6  -3    3.51    0.30
   4  -6  -3    3.03    0.29
   4   6  -3    3.55    0.26
   4   6  -3    3.27    0.24
  -4  -6   3    3.57    0.26
  -4   6   3    3.59    0.27
  -4   6   2   10.53    0.53
   4  -6  -2   11.28    0.44
   4   6  -2   10.77    0.43
   4  -6  -2   11.28    0.51
   4   6  -2   10.69    0.48
   4   6  -2   11.18    0.53
   4  -6  -2   11.22    0.55
   4   6  -2   10.90    0.46
  -4  -6   2   10.94    0.44
  -4   6   2   10.25    0.43
  -4  -6   1    4.42    0.28
  -4   6   1    4.41    0.28
  -4   6   1    4.11    0.33
   4  -6  -1    3.54    0.25
   4   6  -1    4.55    0.28
   4  -6  -1    4.36    0.30
   4   6  -1    4.03    0.30
   4  -6  -1    4.18    0.34
   4   6  -1    4.08    0.33
   4   6  -1    4.37    0.32
  -4  -6   0   86.93    1.23
  -4   6   0   86.25    1.23
  -4   6   0   90.07    1.46
   4  -6   0   84.57    1.23
   4   6   0   83.97    1.21
   4   6   0   83.79    1.35
   4  -6   0   83.71    1.48
   4   6   0   85.08    1.54
   4   6   0   86.82    1.45
  -4  -6  -1   19.81    0.59
  -4   6  -1   20.22    0.60
  -4   6  -1   20.23    0.68
   4   6   1   20.48    0.62
   4  -6   1   20.10    0.63
   4   6   1   20.41    0.69
   4  -6   1   21.25    0.73
   4   6   1   21.50    0.80
   4   6   1   20.26    0.72
  -4  -6  -2    0.42    0.10
  -4   6  -2    0.20    0.08
   4   6   2    0.13    0.10
  -4   6  -2    0.26    0.10
   4   6   2    0.19    0.12
   4   6   2    0.21    0.10
   4  -6   2    0.33    0.12
   4  -6   2    0.15    0.08
   4   6   2    0.07    0.09
   4   6   3    3.54    0.35
  -4   6  -3    4.13    0.29
  -4  -6  -3    3.21    0.25
  -4   6  -3    3.29    0.26
   4   6   3    3.55    0.28
   4  -6   3    3.22    0.28
   4   6   3    3.20    0.30
   4  -6   3    3.08    0.25
   4   6   3    3.72    0.33
  -4   6  -4   15.44    0.60
  -4  -6  -4   15.63    0.55
  -4   6  -4   15.01    0.54
   4   6   4   15.24    0.58
   4  -6   4   14.48    0.58
  -4  -6  -4   15.56    0.69
   4   6   4   15.33    0.64
   4   6   4   16.11    0.65
   4   6   4   15.35    0.69
  -4   6  -5    1.87    0.23
  -4  -6  -5    2.04    0.20
  -4   6  -5    1.67    0.18
   4   6   5    1.76    0.21
   4  -6   5    2.02    0.22
  -4  -6  -5    2.04    0.25
   4   6   5    1.97    0.25
   4   6   5    1.75    0.20
   4   6   6   39.10    0.79
  -4   6  -6   40.77    0.96
  -4   6  -6   38.26    0.75
  -4  -6  -6   37.99    0.73
   4   6   6   37.74    0.83
   4  -6   6   36.94    0.83
  -4  -6  -6   39.52    0.98
   4   6   6   38.72    0.95
   4   6   6   39.06    0.92
  -4   6  -7    1.47    0.18
   4  -6   7    1.52    0.15
  -4  -6  -7    1.69    0.19
   4   6   7    1.48    0.17
   4   6   7    1.51    0.14
  -4   7   9    8.27    0.37
   4  -7  -9    8.91    0.36
  -4   7   9    8.30    0.40
  -4   7   8    3.41    0.29
   4  -7  -8    3.28    0.27
  -4   7   8    3.26    0.29
   4   7  -7    5.43    0.29
  -4   7   7    5.95    0.41
   4   7  -7    5.70    0.40
   4  -7  -7    5.64    0.39
  -4   7   7    5.73    0.40
  -4   7   6    0.00    0.08
   4  -7  -6    0.20    0.12
   4   7  -6   -0.07    0.08
   4   7  -6    0.11    0.09
   4  -7  -6    0.03    0.07
  -4   7   6   -0.01    0.08
  -4   7   5    6.13    0.44
   4   7  -5    5.51    0.38
   4   7  -5    6.25    0.33
   4  -7  -5    5.16    0.40
   4  -7  -5    6.47    0.38
  -4   7   5    5.47    0.39
  -4   7   4   10.86    0.57
   4   7  -4   11.36    0.49
   4   7  -4   11.06    0.53
   4  -7  -4   11.61    0.58
   4  -7  -4   11.09    0.53
  -4   7   3   11.90    0.59
   4   7  -3   12.92    0.56
   4  -7  -3   12.65    0.58
   4   7  -3   13.22    0.56
   4  -7  -3   11.79    0.57
   4   7  -3   12.24    0.45
   4   7  -2    0.16    0.08
   4   7  -2    0.20    0.10
  -4   7   2    0.14    0.10
   4   7  -2    0.27    0.10
   4  -7  -2    0.16    0.11
  -4   7   1   15.44    0.64
   4  -7  -1   16.03    0.56
   4   7  -1   15.37    0.61
   4  -7  -1   17.19    0.70
   4   7  -1   15.51    0.65
   4   7  -1   16.05    0.61
  -4   7   0    2.75    0.27
   4   7   0    2.74    0.27
   4  -7   0    2.87    0.29
   4   7   0    2.51    0.28
   4   7   0    3.10    0.29
  -4   7  -1   49.78    1.11
   4   7   1   48.73    1.11
   4  -7   1   50.75    1.15
   4   7   1   45.85    1.19
   4   7   1   49.65    1.16
  -4   7  -2    8.86    0.38
   4   7   2    8.80    0.49
   4  -7   2    9.56    0.47
   4   7   2    9.84    0.53
   4   7   2    9.89    0.57
  -4   7  -3    3.61    0.27
   4   7   3    3.65    0.36
   4   7   3    3.50    0.32
   4  -7   3    3.62    0.27
   4   7   3    3.62    0.32
   4   7   4    1.66    0.24
  -4   7  -4    2.02    0.22
  -4  -7  -4    1.76    0.24
   4   7   4    1.42    0.22
   4   7   4    1.94    0.23
   4   7   5   53.77    1.06
  -4   7  -5   55.76    1.11
  -4  -7  -5   54.60    1.20
   4   7   5   54.87    1.19
   4   7   5   56.37    1.23
  -4   7  -6    4.74    0.32
   4   7   6    5.33    0.28
  -4  -7  -6    5.38    0.35
   4   7   6    5.60    0.36
   4   7   6    5.36    0.35
  -4   7  -7    0.06    0.06
  -4  -7  -7    0.01    0.07
   4   7   7    0.06    0.05
   4   7   7    0.03    0.06
   4  -8  -9    2.51    0.18
  -4   8   9    2.54    0.21
  -4   8   8    9.97    0.44
   4  -8  -8   10.21    0.44
  -4   8   8   10.43    0.47
  -4   8   7    5.96    0.39
   4   8  -7    5.81    0.41
   4  -8  -7    5.62    0.38
  -4   8   7    5.56    0.37
  -4   8   6   10.96    0.55
   4   8  -6   10.03    0.51
   4  -8  -6   10.77    0.55
  -4   8   6   10.49    0.53
  -4   8   5   32.08    0.97
   4   8  -5   33.60    0.95
   4  -8  -5   34.40    0.99
   4  -8  -5   32.73    0.83
  -4   8   5   32.36    0.91
  -4   8   4   14.13    0.65
   4   8  -4   14.02    0.62
   4  -8  -4   14.32    0.63
   4  -8  -4   14.71    0.61
  -4   8   4   13.97    0.58
   4   8  -3   23.25    0.62
  -4   8   3   23.74    0.84
   4   8  -3   24.34    0.81
   4  -8  -3   25.55    0.80
   4   8  -3   24.50    0.74
   4  -8  -3   25.14    0.84
   4   8  -2   -0.05    0.07
   4   8  -2    0.11    0.08
  -4   8   2    0.00    0.09
   4  -8  -2    0.04    0.07
   4   8  -2    0.18    0.11
   4  -8  -2    0.00    0.09
  -4   8   1   24.58    0.83
   4  -8  -1   24.10    0.65
   4   8  -1   24.44    0.81
   4  -8  -1   24.48    0.85
   4   8  -1   25.04    0.83
   4   8  -1   23.84    0.75
  -4   8   0   32.39    0.94
   4   8   0   32.10    0.95
   4  -8   0   32.51    0.97
   4   8   0   33.01    1.00
   4   8   0   33.65    0.94
  -4   8  -1   31.77    0.92
   4   8   1   30.43    0.93
   4  -8   1   31.50    0.91
   4   8   1   31.97    1.00
   4   8   1   32.27    0.95
   4   8   2   75.38    1.48
   4  -8   2   75.37    1.32
   4   8   2   72.38    1.54
   4   8   2   74.95    1.45
   4   8   3   25.46    0.91
   4   8   3   25.47    0.86
   4  -8   3   24.72    0.67
  -4   8  -3   25.25    0.66
   4   8   3   24.57    0.82
   4   8   4    6.70    0.41
  -4  -8  -4    7.44    0.46
   4   8   4    7.43    0.46
  -4   8  -4    6.72    0.37
   4   8   4    7.21    0.48
  -4   8  -5    0.15    0.09
   4   8   5    0.18    0.08
   4   8   5    0.13    0.11
  -4  -8  -5    0.16    0.08
   4   8   5    0.10    0.09
   4   8   6    3.05    0.20
  -4  -8  -6    3.20    0.26
   4   8   6    3.00    0.25
   4   8   6    3.22    0.26
  -4   8  -6    2.93    0.23
  -4  -8  -7    2.06    0.17
   4   8   7    2.20    0.18
   4   8   7    2.20    0.16
  -4   8  -7    2.13    0.17
  -4   9   8    0.16    0.08
   4  -9  -8    0.37    0.10
  -4   9   8    0.19    0.08
  -4   9   7    2.77    0.24
   4  -9  -7    2.40    0.24
   4   9  -7    2.28    0.28
  -4   9   7    2.77    0.25
  -4   9   6   16.21    0.64
   4   9  -6   16.21    0.64
   4  -9  -6   15.72    0.62
  -4   9   6   16.47    0.61
  -4   9   5    4.84    0.37
   4   9  -5    4.90    0.37
   4  -9  -5    5.10    0.37
   4  -9  -5    4.97    0.32
  -4   9   5    4.79    0.34
  -4   9   4    0.06    0.09
   4  -9  -4    0.10    0.10
   4   9  -4   -0.04    0.11
   4  -9  -4    0.03    0.08
  -4   9   4    0.05    0.08
   4   9  -3   99.00    1.23
  -4   9   3  102.81    1.72
   4   9  -3  100.84    1.43
   4   9  -3  101.07    1.69
   4  -9  -3  103.54    1.54
   4  -9  -3  101.96    1.69
  -4   9   3  102.84    1.41
   4   9  -2   25.17    0.72
  -4   9   2   25.76    0.87
   4  -9  -2   25.46    0.70
   4   9  -2   26.55    0.88
   4   9  -2   26.85    0.80
   4  -9  -2   26.72    0.89
   4   9  -1   15.23    0.60
  -4   9   1   15.72    0.67
   4   9  -1   14.40    0.65
   4  -9  -1   14.66    0.67
   4   9  -1   14.72    0.63
   4   9   0    0.14    0.10
  -4   9   0    0.07    0.09
   4  -9   0    0.06    0.11
   4   9   0    0.06    0.11
   4   9   0    0.00    0.11
  -4   9  -1   24.54    0.82
   4   9   1   24.94    0.86
   4  -9   1   24.62    0.80
   4   9   1   24.28    0.87
   4   9   1   24.73    0.83
   4   9   2   32.86    0.95
   4   9   2   30.98    0.96
   4  -9   2   30.73    0.83
   4   9   2   30.64    0.99
   4   9   3   23.02    0.78
  -4  -9  -3   22.38    0.76
   4   9   3   21.97    0.79
   4  -9   3   22.92    0.62
   4   9   3   23.01    0.84
   4   9   4    5.93    0.38
  -4  -9  -4    6.21    0.39
   4   9   4    5.56    0.39
   4   9   4    6.16    0.43
  -4   9  -4    6.22    0.33
   4   9   5    8.41    0.39
  -4  -9  -5    8.61    0.42
   4   9   5    8.53    0.45
   4   9   5    8.32    0.45
  -4   9  -5    8.19    0.37
  -4  -9  -6    3.84    0.23
  -4  -9  -6    3.39    0.24
   4   9   6    3.54    0.25
   4   9   6    3.55    0.25
  -4   9  -6    3.48    0.22
  -4  10   8    3.09    0.20
   4  10  -7   43.36    0.91
  -4  10   7   43.66    0.83
   4 -10  -7   43.79    0.86
  -4  10   7   42.22    0.83
  -4  10   6    2.12    0.22
   4  10  -6    2.17    0.23
   4 -10  -6    2.30    0.23
  -4  10   6    2.13    0.21
  -4  10   5    3.26    0.29
   4  10  -5    3.16    0.29
   4 -10  -5    3.57    0.29
   4 -10  -5    3.59    0.25
  -4  10   5    3.32    0.26
  -4  10   4   12.32    0.57
   4  10  -4   12.77    0.60
   4 -10  -4   12.50    0.53
   4 -10  -4   13.32    0.55
  -4  10   4   12.30    0.47
  -4  10   3    9.40    0.51
   4  10  -3    9.32    0.52
   4 -10  -3    9.52    0.44
   4 -10  -3    9.28    0.50
  -4  10   3    8.89    0.37
   4  10  -2   15.81    0.55
  -4  10   2   15.51    0.66
   4  10  -2   16.01    0.68
   4 -10  -2   15.71    0.50
   4  10  -2   14.68    0.57
   4 -10  -2   15.39    0.67
   4  10  -1    3.86    0.30
  -4  10   1    4.61    0.36
   4  10  -1    4.36    0.37
   4 -10  -1    4.23    0.36
   4  10  -1    4.75    0.35
   4  10   0   29.32    0.86
  -4  10   0   29.06    0.88
   4  10   0   28.03    0.92
   4 -10   0   28.64    0.89
   4  10   0   29.80    0.91
   4  10   1   50.27    1.15
   4  10   1   49.48    1.22
   4 -10   1   50.46    1.11
   4  10   1   49.02    1.20
   4  10   2    0.06    0.09
   4  10   2    0.05    0.08
   4 -10   2   -0.03    0.09
   4  10   2    0.01    0.09
   4  10   3    0.62    0.15
   4  10   3    0.76    0.16
  -4 -10  -3    0.57    0.12
   4 -10   3    0.71    0.12
   4  10   3    0.64    0.15
   4  10   4   23.31    0.69
  -4 -10  -4   22.49    0.66
   4  10   4   22.75    0.75
   4  10   4   22.51    0.75
  -4  10  -4   22.51    0.53
   4  10   5   18.42    0.52
  -4 -10  -5   18.34    0.54
   4  10   5   19.18    0.61
   4  10   5   18.86    0.62
  -4  10  -5   17.95    0.45
  -4  11   7    8.49    0.30
  -4  11   6   48.55    0.87
   4  11  -6   50.23    0.99
   4 -11  -6   47.96    0.88
  -4  11   6   47.94    0.78
  -4  11   5    3.82    0.28
   4  11  -5    3.77    0.30
   4 -11  -5    3.57    0.26
   4 -11  -5    3.55    0.24
  -4  11   5    3.69    0.23
  -4  11   4    4.80    0.33
   4  11  -4    5.00    0.36
   4 -11  -4    5.35    0.31
   4 -11  -4    5.61    0.34
  -4  11   3    5.75    0.37
   4  11  -3    6.48    0.43
   4 -11  -3    6.07    0.30
   4 -11  -3    6.06    0.38
   4  11  -2   41.32    0.83
  -4  11   2   43.65    1.05
   4  11  -2   44.96    1.12
   4  11  -2   42.94    0.86
   4 -11  -2   43.29    1.06
   4  11  -1    1.97    0.21
  -4  11   1    1.62    0.21
   4  11  -1    1.56    0.22
   4  11  -1    1.65    0.20
   4 -11  -1    1.75    0.23
   4  11   0    1.97    0.22
  -4  11   0    1.75    0.22
   4  11   0    2.02    0.25
   4 -11   0    2.06    0.24
   4  11   0    1.99    0.23
   4  11   1    0.48    0.13
   4  11   1    0.54    0.14
   4 -11   1    0.31    0.10
   4  11   1    0.54    0.14
   4  11   2   18.50    0.66
  -4 -11  -2   17.76    0.56
   4  11   2   18.76    0.71
   4 -11   2   19.83    0.58
   4  11   2   19.37    0.71
   4  11   3    0.24    0.10
  -4 -11  -3    0.31    0.10
   4  11   3    0.22    0.10
   4  11   3    0.21    0.10
   4  11   4    1.54    0.17
   4  11   4    1.55    0.18
  -4 -11  -4    1.24    0.15
   4  11   4    1.43    0.18
   4  11   5    4.72    0.27
   4  11   5    4.84    0.28
   4  12  -6    1.02    0.15
  -4  12   5    0.62    0.11
   4 -12  -5    0.42    0.08
   4  12  -5    0.56    0.11
  -4  12   4    8.20    0.38
   4  12  -4    8.07    0.43
   4 -12  -4    8.88    0.38
  -4  12   3   11.01    0.46
   4  12  -3   11.40    0.53
   4 -12  -3   11.74    0.48
  -4  12   2   -0.05    0.07
   4  12  -2   -0.02    0.09
   4 -12  -2    0.05    0.07
   4  12  -1   15.45    0.51
  -4  12   1   16.67    0.60
   4  12  -1   16.09    0.65
   4  12  -1   16.00    0.50
   4 -12  -1   15.86    0.60
   4  12   0    1.25    0.17
   4  12   0    1.37    0.21
   4  12   0    1.10    0.15
   4 -12   0    1.44    0.18
   4  12   1   12.67    0.50
   4  12   1   12.16    0.55
  -4 -12  -1   11.01    0.35
   4 -12   1   12.35    0.47
   4  12   1   12.47    0.51
   4  12   2    0.91    0.15
  -4 -12  -2    0.63    0.10
   4  12   2    1.07    0.17
   4 -12   2    0.90    0.13
   4  12   2    1.07    0.16
   4  12   3   11.27    0.43
   4  12   3   11.44    0.48
   4  12   3   11.41    0.47
   4  12   4   20.13    0.56
   4  12   4   20.20    0.56
   4  13  -4    2.11    0.20
  -4  13   3   16.18    0.48
   4  13  -3   15.87    0.56
   4 -13  -3   17.49    0.51
  -4  13   2    0.66    0.12
   4  13  -2    0.64    0.13
   4 -13  -2    0.76    0.13
   4  13  -1    3.77    0.21
   4  13  -1    3.65    0.28
   4 -13  -1    4.17    0.27
   4  13   0    0.30    0.10
   4  13   0    0.28    0.10
   4 -13   0    0.16    0.09
   4  13   1   18.99    0.53
   4  13   1   19.56    0.62
   4  13   1   18.87    0.52
   4 -13   1   19.55    0.50
   4  13   2    4.56    0.25
   4  13   2    4.05    0.27
   4  13   2    4.05    0.24
   4  14  -1    6.52    0.32
  -5   0   9   -0.03    0.08
   5   0  -9    0.06    0.08
  -5   0   9   -0.13    0.06
   5   0  -9   -0.01    0.07
  -5   0   8   34.04    0.82
   5   0  -8   35.84    0.98
  -5   0   8   35.85    0.83
   5   0  -8   35.35    0.94
  -5   0   7    0.12    0.10
   5   0  -7    0.05    0.11
   5   0  -7   -0.03    0.09
  -5   0   6    4.51    0.32
   5   0  -6    4.49    0.39
   5   0  -6    4.47    0.39
   5   0  -6    4.10    0.36
  -5   0   5   -0.04    0.07
   5   0  -5   -0.04    0.08
   5   0  -5    0.01    0.10
   5   0  -5    0.01    0.10
  -5   0   4   22.83    0.63
   5   0  -4   22.24    0.72
   5   0  -4   22.59    0.84
   5   0  -4   23.93    0.92
  -5   0   3    0.01    0.10
   5   0  -3    0.04    0.11
   5   0  -3    0.16    0.11
   5   0  -3    0.04    0.08
   5   0  -3    0.00    0.09
   5   0  -2  268.18    3.01
   5   0  -2  267.94    2.83
   5   0  -2  262.69    2.61
  -5   0   2  269.67    2.79
  -5   0   1    0.01    0.09
   5   0  -1   -0.04    0.10
   5   0  -1   -0.03    0.10
   5   0  -1    0.05    0.08
  -5   0   0    2.85    0.29
   5   0   0    2.53    0.30
   5   0   0    2.55    0.29
   5   0   0    2.53    0.26
  -5   0  -1   -0.01    0.10
   5   0   1   -0.22    0.12
   5   0   1   -0.04    0.10
   5   0   1   -0.02    0.09
  -5   0  -2    4.21    0.36
   5   0   2    3.91    0.34
   5   0   2    3.81    0.36
   5   0   2    3.95    0.31
  -5   0  -3    0.03    0.08
   5   0   3    0.00    0.09
  -5   0  -3   -0.02    0.08
   5   0   3    0.11    0.08
   5   0   3   -0.08    0.07
  -5   0  -4    3.07    0.30
   5   0   4    3.15    0.33
  -5   0  -4    2.98    0.23
  -5   0  -5   -0.06    0.07
   5   0   5   -0.02    0.10
  -5   0  -6   15.87    0.56
   5   0   6   15.77    0.63
  -5   0  -7   -0.03    0.07
   5   0   7    0.00    0.07
  -5  -1   9    6.37    0.30
  -5   1   9    6.31    0.33
   5  -1  -9    6.73    0.38
   5   1  -9    6.89    0.38
  -5   1   9    5.80    0.29
   5   1  -9    6.24    0.35
   5  -1  -9    6.09    0.34
  -5  -1   8    4.88    0.31
  -5   1   8    4.98    0.33
   5  -1  -8    5.09    0.37
   5   1  -8    4.83    0.36
  -5  -1   8    4.84    0.28
  -5   1   8    4.93    0.33
   5   1  -8    5.23    0.37
   5  -1  -8    4.66    0.35
  -5  -1   7   25.81    0.72
  -5   1   7   26.89    0.80
   5  -1  -7   25.52    0.88
   5   1  -7   26.63    0.90
   5   1  -7   25.08    0.85
   5  -1  -7   27.22    0.89
  -5  -1   6    3.73    0.28
  -5   1   6    3.34    0.29
   5  -1  -6    3.70    0.36
   5   1  -6    3.50    0.34
   5   1  -6    3.51    0.34
   5   1  -6    3.43    0.34
   5  -1  -6    2.94    0.31
  -5  -1   5   32.09    0.75
  -5   1   5   31.15    0.83
   5  -1  -5   30.68    0.78
   5   1  -5   31.54    0.78
   5  -1  -5   32.31    1.07
   5   1  -5   29.58    0.96
   5  -1  -5   30.44    0.98
   5   1  -5   32.54    1.04
  -5   1   4   14.86    0.54
   5  -1  -4   14.51    0.58
   5   1  -4   14.72    0.58
   5   1  -4   13.86    0.66
   5  -1  -4   14.27    0.67
   5  -1  -4   14.37    0.72
   5   1  -4   15.74    0.74
   5   1  -3   17.48    0.78
  -5   1   3   16.79    0.54
   5  -1  -3   15.42    0.68
   5   1  -3   16.24    0.70
   5  -1  -3   15.67    0.63
   5   1  -3   15.77    0.63
   5   1  -3   16.56    0.71
   5  -1  -3   16.35    0.71
   5  -1  -3   16.29    0.76
  -5  -1   3   16.15    0.70
  -5   1   3   15.48    0.69
   5  -1  -2   20.72    0.84
   5   1  -2   19.84    0.83
   5  -1  -2   20.67    0.78
   5   1  -2   20.61    0.78
   5  -1  -2   21.23    0.75
   5   1  -2   20.57    0.73
  -5  -1   2   20.47    0.78
  -5   1   2   20.20    0.77
  -5  -1   1    9.98    0.54
  -5   1   1    9.32    0.52
   5  -1  -1    9.08    0.55
   5   1  -1   10.21    0.59
   5  -1  -1    9.61    0.54
   5   1  -1    9.56    0.54
   5  -1  -1    9.68    0.51
   5   1  -1    9.47    0.51
  -5  -1   0    2.15    0.26
  -5   1   0    2.49    0.28
   5  -1   0    2.62    0.30
   5  -1   0    2.53    0.29
   5   1   0    2.48    0.29
   5   1   0    2.87    0.32
   5  -1   0    2.56    0.27
   5   1   0    2.38    0.26
  -5  -1  -1    3.48    0.32
  -5   1  -1    3.50    0.33
   5  -1   1    2.77    0.29
   5  -1   1    3.90    0.36
   5   1   1    3.98    0.37
   5   1   1    4.14    0.37
   5  -1   1    3.69    0.31
   5   1   1    3.49    0.31
  -5  -1  -2    9.72    0.53
  -5   1  -2    9.80    0.54
   5  -1   2    9.75    0.49
   5   1   2   10.65    0.58
   5  -1   2   11.03    0.61
   5   1   2    9.91    0.55
   5  -1   2   10.13    0.48
   5   1   2    9.66    0.48
  -5  -1  -3    9.87    0.53
  -5   1  -3    9.90    0.54
   5  -1   3   10.49    0.45
   5   1   3    9.83    0.57
   5  -1   3   10.16    0.59
   5   1   3   10.26    0.51
   5  -1   3   10.53    0.45
   5   1   3   10.28    0.45
  -5  -1  -4    0.62    0.15
  -5   1  -4    0.85    0.17
   5   1   4    0.65    0.17
   5  -1   4    0.69    0.18
  -5  -1  -4    0.76    0.15
   5   1   4    0.49    0.13
  -5  -1  -5    7.13    0.42
  -5   1  -5    7.49    0.43
   5   1   5    6.86    0.46
   5  -1   5    6.87    0.46
  -5  -1  -5    7.16    0.33
  -5   1  -6    4.05    0.28
  -5  -1  -6    3.76    0.28
   5   1   6    3.93    0.32
   5  -1   6    3.73    0.31
  -5   1  -7    5.63    0.28
  -5  -1  -7    5.56    0.28
  -5   1  -7    5.05    0.25
   5   1   7    6.18    0.33
   5  -1   7    5.80    0.33
  -5  -2   9    3.30    0.20
   5  -2  -9    3.09    0.25
   5   2  -9    3.27    0.26
  -5   2   9    3.52    0.25
  -5   2   9    3.12    0.23
   5   2  -9    3.00    0.24
   5  -2  -9    3.24    0.25
  -5  -2   8    0.12    0.09
  -5   2   8    0.45    0.12
   5  -2  -8    0.29    0.11
   5   2  -8    0.23    0.11
  -5  -2   8    0.28    0.08
  -5   2   8    0.20    0.08
   5   2  -8    0.20    0.10
   5  -2  -8    0.11    0.09
  -5  -2   7   22.75    0.63
  -5   2   7   21.13    0.72
   5  -2  -7   22.02    0.80
   5   2  -7   23.02    0.82
   5   2  -7   22.27    0.78
   5  -2  -7   21.41    0.78
  -5  -2   6   76.01    1.11
  -5   2   6   70.82    1.34
   5  -2  -6   72.92    1.50
   5   2  -6   73.79    1.52
   5   2  -6   73.58    1.45
   5   2  -6   71.24    1.45
   5  -2  -6   72.09    1.49
  -5   2   5   51.76    1.11
   5  -2  -5   54.07    1.04
   5   2  -5   52.56    0.99
   5  -2  -5   55.49    1.42
   5   2  -5   51.40    1.24
   5  -2  -5   52.40    1.27
   5   2  -5   56.54    1.34
   5   2  -4   18.51    0.79
  -5   2   4   17.63    0.62
   5  -2  -4   18.00    0.65
   5   2  -4   18.02    0.64
   5  -2  -4   16.93    0.79
   5   2  -4   17.70    0.73
   5  -2  -4   17.34    0.72
   5   2  -3   25.44    0.92
  -5   2   3   25.34    0.70
   5  -2  -3   16.83    0.70
   5   2  -3   25.47    0.85
   5  -2  -3   25.21    0.81
   5   2  -3   25.13    0.79
   5   2  -3   25.34    0.86
   5  -2  -3   24.97    0.87
   5  -2  -3   15.09    0.74
  -5  -2   3   24.84    0.86
  -5   2   3   25.55    0.87
  -5   2   2    8.43    0.38
   5   2  -2    7.75    0.51
   5  -2  -2    7.83    0.49
   5   2  -2    7.34    0.46
   5  -2  -2    7.58    0.46
   5   2  -2    7.42    0.44
   5  -2  -2    8.16    0.54
  -5  -2   2    7.67    0.47
  -5   2   2    7.10    0.46
  -5  -2   1    3.01    0.30
  -5   2   1    3.35    0.32
   5  -2  -1    3.19    0.33
   5  -2  -1    3.05    0.31
   5   2  -1    3.47    0.33
   5   2  -1    3.60    0.36
   5  -2  -1    2.83    0.28
   5   2  -1    3.35    0.31
  -5  -2   0    4.15    0.35
  -5   2   0    4.30    0.36
   5  -2   0    4.16    0.36
   5  -2   0    4.09    0.36
   5   2   0    4.25    0.36
   5   2   0    4.61    0.40
   5  -2   0    4.03    0.33
   5   2   0    4.45    0.35
  -5  -2  -1   55.04    1.24
  -5   2  -1   55.53    1.26
   5  -2   1   55.03    1.19
   5  -2   1   55.60    1.32
   5   2   1   56.99    1.32
   5   2   1   56.81    1.35
   5  -2   1   57.11    1.19
   5   2   1   57.19    1.21
  -5  -2  -2    7.24    0.45
  -5   2  -2    7.78    0.47
   5  -2   2    8.05    0.42
   5  -2   2    7.79    0.51
   5   2   2    7.67    0.50
   5   2   2    7.56    0.49
   5  -2   2    7.93    0.43
   5   2   2    7.50    0.43
  -5  -2  -3    9.23    0.50
  -5   2  -3    9.47    0.52
   5   2   3   10.50    0.58
   5  -2   3    9.89    0.57
   5   2   3    9.71    0.51
   5  -2   3   10.14    0.44
   5   2   3    9.89    0.44
  -5  -2  -4    0.82    0.17
  -5   2  -4    0.75    0.16
   5   2   4    0.66    0.17
   5  -2   4    0.68    0.16
  -5  -2  -4    0.92    0.16
   5   2   4    0.48    0.13
  -5   2  -5   54.47    1.13
  -5  -2  -5   54.07    1.10
   5   2   5   54.74    1.24
   5  -2   5   54.44    1.26
  -5  -2  -5   55.29    0.99
   5   2   5   55.89    0.97
  -5   2  -6    1.72    0.19
  -5  -2  -6    1.72    0.19
   5   2   6    1.40    0.19
   5  -2   6    1.34    0.19
  -5   2  -7   11.67    0.35
  -5   2  -7   12.52    0.39
  -5  -2  -7   12.66    0.39
   5   2   7   12.63    0.45
   5  -2   7   12.89    0.47
   5  -3  -9    2.28    0.21
   5   3  -9    2.17    0.20
  -5   3   9    2.22    0.20
  -5   3   9    2.48    0.21
   5   3  -9    2.30    0.19
   5  -3  -9    2.00    0.19
  -5   3   8   41.97    0.96
   5  -3  -8   40.82    0.97
   5   3  -8   41.02    0.97
  -5   3   8   40.52    0.95
   5   3  -8   41.31    0.92
   5  -3  -8   39.77    0.92
  -5   3   7    3.16    0.29
   5  -3  -7    3.26    0.30
   5   3  -7    3.05    0.30
   5   3  -7    3.09    0.28
   5  -3  -7    3.09    0.29
  -5   3   6   13.69    0.60
   5  -3  -6   13.10    0.62
   5   3  -6   13.22    0.63
   5   3  -6   13.80    0.61
   5   3  -6   13.08    0.60
   5  -3  -6   12.94    0.61
  -5   3   5    4.55    0.35
   5  -3  -5    4.73    0.31
   5   3  -5    4.71    0.37
   5  -3  -5    4.31    0.37
   5   3  -5    4.75    0.39
   5   3  -4    2.43    0.29
  -5   3   4    2.64    0.26
   5  -3  -4    2.54    0.26
   5   3  -4    2.20    0.23
   5  -3  -4    2.30    0.31
   5   3  -4    2.44    0.27
   5  -3  -4    1.93    0.25
  -5  -3   4    2.36    0.27
  -5   3   4    2.36    0.27
   5   3  -3   17.92    0.78
  -5   3   3   17.96    0.62
   5  -3  -3   18.92    0.73
   5   3  -3   18.91    0.72
   5  -3  -3   18.22    0.69
   5   3  -3   18.13    0.67
   5  -3  -3   19.42    0.84
  -5  -3   3   18.08    0.72
  -5   3   3   18.07    0.72
  -5  -3   2    0.48    0.13
  -5   3   2    0.63    0.15
  -5   3   2    0.44    0.11
   5  -3  -2    0.31    0.12
   5   3  -2    0.77    0.17
   5   3  -2    0.70    0.16
   5  -3  -2    0.69    0.15
   5   3  -2    0.51    0.14
  -5  -3   1   17.74    0.70
  -5   3   1   18.63    0.72
  -5   3   1   17.21    0.54
   5  -3  -1   15.74    0.67
   5   3  -1   18.25    0.72
   5  -3  -1   17.44    0.69
   5   3  -1   17.89    0.70
   5  -3  -1   18.19    0.76
  -5  -3   0   64.42    1.33
  -5   3   0   64.63    1.33
   5  -3   0   67.50    1.42
   5   3   0   63.65    1.35
   5   3   0   62.97    1.45
   5  -3   0   62.74    1.29
   5   3   0   64.20    1.31
   5  -3   0   63.59    1.33
   5   3   1    0.78    0.18
  -5  -3  -1    0.75    0.17
  -5   3  -1    1.05    0.19
   5  -3   1    0.86    0.16
   5  -3   1    1.05    0.20
   5   3   1    0.64    0.16
   5  -3   1    0.63    0.15
   5   3   1    0.70    0.15
  -5  -3  -2    2.94    0.29
  -5   3  -2    2.96    0.29
   5  -3   2    3.02    0.32
   5   3   2    3.02    0.31
   5   3   2    2.62    0.30
   5  -3   2    2.66    0.25
   5   3   2    3.20    0.29
  -5  -3  -3   16.53    0.66
  -5   3  -3   16.37    0.66
   5   3   3   17.73    0.73
   5  -3   3   18.28    0.75
   5   3   3   16.41    0.69
   5  -3   3   16.82    0.55
  -5  -3  -4   32.47    0.89
  -5   3  -4   30.83    0.87
   5   3   4   31.42    0.95
   5  -3   4   29.94    0.95
  -5  -3  -4   30.51    0.84
   5   3   4   28.99    0.83
  -5   3  -5    0.31    0.10
  -5  -3  -5    0.28    0.09
  -5   3  -5    0.19    0.09
   5   3   5    0.21    0.09
   5   3   5    0.27    0.11
   5  -3   5    0.31    0.13
  -5  -3  -5    0.36    0.11
   5   3   5    0.30    0.11
  -5   3  -6   58.49    0.96
  -5  -3  -6   58.97    0.97
   5   3   6   56.76    1.08
   5  -3   6   57.45    1.11
  -5  -3  -6   56.79    0.86
  -5   3  -7    0.48    0.09
   5  -3   7    0.63    0.11
   5   3   7    0.64    0.10
   5  -4  -9    6.66    0.31
   5   4  -9    6.54    0.31
  -5   4   9    6.64    0.33
  -5   4   9    6.48    0.32
  -5   4   8   13.18    0.53
   5  -4  -8   13.05    0.51
   5   4  -8   13.57    0.52
  -5   4   8   13.70    0.55
   5   4  -8   12.41    0.46
   5  -4  -8   12.48    0.48
  -5   4   7    6.54    0.41
   5  -4  -7    6.05    0.38
   5   4  -7    5.67    0.37
   5  -4  -7    5.90    0.38
  -5   4   7    6.38    0.41
   5   4  -7    5.87    0.36
   5  -4  -7    5.75    0.37
  -5   4   6    1.19    0.19
   5  -4  -6    1.05    0.18
   5  -4  -6    1.04    0.18
   5   4  -6    1.17    0.19
   5   4  -6    1.32    0.19
   5   4  -6    0.98    0.17
   5  -4  -6    1.24    0.19
   5   4  -5    0.86    0.18
  -5   4   5    0.71    0.16
   5  -4  -5    0.64    0.15
   5  -4  -5    0.73    0.14
   5   4  -5    0.67    0.16
   5  -4  -5    0.70    0.15
   5   4  -4    2.81    0.31
  -5   4   4    2.59    0.27
   5  -4  -4    2.87    0.30
   5  -4  -4    2.67    0.26
   5   4  -4    2.46    0.27
   5  -4  -4    2.92    0.29
  -5  -4   4    2.84    0.29
  -5   4   4    2.77    0.28
  -5   4   3    2.94    0.28
   5   4  -3    2.62    0.30
   5  -4  -3    2.57    0.27
   5   4  -3    2.37    0.25
   5  -4  -3    2.82    0.28
   5   4  -3    2.56    0.26
   5  -4  -3    2.41    0.31
  -5  -4   3    2.56    0.27
  -5   4   3    2.77    0.28
  -5  -4   2   16.37    0.65
  -5   4   2   16.59    0.66
  -5   4   2   17.49    0.61
   5  -4  -2   16.79    0.68
   5   4  -2   17.31    0.67
   5   4  -2   16.68    0.74
   5  -4  -2   16.98    0.69
   5   4  -2   16.69    0.67
   5  -4  -2   17.01    0.76
  -5  -4   1    9.51    0.50
  -5   4   1    9.37    0.50
  -5   4   1    9.47    0.43
   5  -4  -1    9.16    0.51
   5   4  -1    9.07    0.49
   5   4  -1    9.05    0.56
   5  -4  -1    9.47    0.52
   5   4  -1    9.23    0.51
   5  -4  -1    8.96    0.52
  -5  -4   0    0.97    0.17
  -5   4   0    0.88    0.17
  -5   4   0    0.72    0.13
   5  -4   0    1.13    0.20
   5   4   0    0.73    0.16
   5  -4   0    0.95    0.18
   5   4   0    0.85    0.17
   5  -4   0    0.80    0.16
   5   4   0    0.91    0.19
  -5  -4  -1   36.48    0.96
  -5   4  -1   38.08    0.98
   5  -4   1   36.18    1.02
   5   4   1   36.40    1.00
   5   4   1   36.35    1.10
   5  -4   1   37.14    0.96
   5   4   1   36.65    0.98
   5  -4   1   35.30    0.85
  -5  -4  -2    6.68    0.41
  -5   4  -2    6.42    0.40
   5  -4   2    6.49    0.44
   5   4   2    6.01    0.42
   5   4   2    5.98    0.45
   5  -4   2    6.31    0.38
  -5  -4  -3    9.26    0.47
  -5   4  -3    9.92    0.49
   5  -4   3    9.30    0.52
   5   4   3    9.37    0.52
   5   4   3   10.01    0.55
   5  -4   3    9.76    0.42
   5   4   4   -0.07    0.09
  -5  -4  -4    0.05    0.07
  -5   4  -4    0.04    0.08
   5   4   4    0.11    0.08
   5  -4   4   -0.03    0.10
   5   4   4    0.19    0.10
  -5  -4  -4    0.10    0.08
  -5   4  -5   10.91    0.38
  -5   4  -5   10.63    0.44
  -5  -4  -5   10.77    0.44
   5  -4   5   11.15    0.52
   5   4   5   12.28    0.53
   5   4   5   11.21    0.45
  -5  -4  -5   11.50    0.47
   5   4   5   11.80    0.44
  -5   4  -6    1.35    0.14
  -5  -4  -6    1.50    0.15
  -5   4  -6    1.06    0.12
   5   4   6    1.29    0.16
   5  -4   6    1.26    0.16
  -5  -4  -6    1.29    0.15
  -5   5   9    0.38    0.09
   5  -5  -9    0.40    0.09
   5   5  -9    0.15    0.07
  -5   5   9    0.26    0.07
   5  -5  -8    3.71    0.25
   5   5  -8    3.85    0.25
  -5   5   8    4.24    0.29
  -5   5   8    3.87    0.29
   5   5  -8    3.92    0.23
   5  -5  -8    3.84    0.24
  -5   5   8    4.21    0.25
  -5   5   7   21.27    0.71
   5  -5  -7   20.94    0.65
   5   5  -7   21.19    0.66
   5  -5  -7   22.31    0.71
  -5   5   7   21.78    0.73
   5   5  -7   20.96    0.61
   5  -5  -7   21.35    0.64
  -5   5   6    8.32    0.47
   5  -5  -6    7.31    0.41
   5   5  -6    7.67    0.43
   5  -5  -6    7.73    0.46
   5   5  -6    7.31    0.38
   5   5  -6    7.93    0.40
   5  -5  -6    8.66    0.44
  -5  -5   6    7.79    0.41
  -5   5   6    7.95    0.42
  -5   5   5   38.01    1.01
   5  -5  -5   37.94    1.04
   5  -5  -5   36.32    0.94
   5   5  -5   37.14    0.96
   5  -5  -5   37.93    0.87
   5   5  -5   37.44    0.91
   5  -5  -5   37.01    0.93
   5   5  -5   37.35    0.98
  -5  -5   5   38.64    0.94
  -5   5   5   36.62    0.92
   5   5  -4   19.47    0.75
  -5   5   4   19.83    0.73
   5  -5  -4   20.11    0.76
   5  -5  -4   19.09    0.68
  -5  -5   4   18.65    0.67
  -5   5   4   19.54    0.68
  -5   5   3   23.05    0.76
   5   5  -3   25.36    0.89
   5  -5  -3   24.14    0.81
   5   5  -3   24.01    0.64
  -5  -5   3   24.12    0.75
  -5   5   3   24.62    0.76
  -5  -5   2   12.75    0.55
  -5   5   2   12.86    0.55
  -5   5   2   13.00    0.55
   5  -5  -2   12.02    0.55
   5   5  -2   12.53    0.55
   5   5  -2   13.10    0.66
   5  -5  -2   12.38    0.60
   5  -5  -2   12.43    0.63
   5   5  -2   12.46    0.51
  -5  -5   1   12.67    0.54
  -5   5   1   13.57    0.57
  -5   5   1   12.63    0.52
   5  -5  -1   13.87    0.60
   5   5  -1   12.84    0.56
   5   5  -1   12.50    0.65
   5  -5  -1   13.57    0.62
   5  -5  -1   12.30    0.59
  -5  -5   0    6.87    0.40
  -5   5   0    7.45    0.42
  -5   5   0    7.31    0.38
   5  -5   0    7.18    0.44
   5   5   0    7.51    0.44
   5   5   0    6.97    0.50
   5  -5   0    6.74    0.44
   5  -5   0    7.17    0.41
  -5  -5  -1   -0.01    0.07
  -5   5  -1    0.13    0.08
   5   5   1   -0.07    0.12
  -5   5  -1    0.05    0.07
   5  -5   1    0.01    0.09
   5   5   1   -0.04    0.09
   5  -5   1   -0.07    0.10
  -5  -5  -2    5.94    0.36
  -5   5  -2    5.93    0.37
   5  -5   2    6.18    0.41
   5   5   2    6.22    0.40
   5   5   2    6.29    0.46
   5  -5   2    6.69    0.39
   5   5   2    6.18    0.41
  -5  -5  -3   28.72    0.76
  -5   5  -3   29.58    0.78
   5  -5   3   28.03    0.85
   5   5   3   28.70    0.84
   5   5   3   29.29    0.94
   5  -5   3   30.11    0.71
   5   5   3   30.85    0.87
  -5  -5  -4    1.09    0.15
  -5   5  -4    1.23    0.16
   5   5   4    1.24    0.19
   5   5   4    1.17    0.17
   5  -5   4    1.15    0.18
   5   5   4    1.31    0.19
  -5  -5  -4    1.41    0.20
  -5   5  -5    5.21    0.29
  -5  -5  -5    4.82    0.27
   5  -5   5    4.78    0.31
   5   5   5    4.84    0.30
  -5  -5  -5    5.42    0.33
   5   5   5    5.32    0.32
   5   5   5    5.12    0.29
   5  -5   6    7.92    0.33
   5   5   6    7.81    0.32
  -5  -5  -6    8.27    0.34
  -5   6   8    0.89    0.14
   5  -6  -8    0.72    0.10
  -5   6   8    0.69    0.12
  -5  -6   7    0.42    0.12
  -5   6   7    0.10    0.08
  -5   6   7    0.55    0.13
   5  -6  -7    0.43    0.12
   5  -6  -7    0.26    0.08
   5   6  -7    0.43    0.10
  -5   6   7    0.44    0.12
  -5   6   6   54.89    1.18
   5  -6  -6   54.58    0.99
   5   6  -6   54.81    1.01
   5  -6  -6   56.53    1.18
  -5   6   6   54.30    1.18
  -5  -6   6   55.00    0.94
  -5   6   6   56.03    0.96
  -5  -6   5    0.00    0.07
  -5   6   5    0.00    0.08
   5   6  -5    0.05    0.08
  -5   6   5    0.18    0.09
   5  -6  -5    0.12    0.09
   5  -6  -5    0.03    0.07
   5   6  -5    0.03    0.07
   5  -6  -5   -0.02    0.07
  -5  -6   4    0.03    0.09
  -5   6   4    0.21    0.10
  -5   6   4    0.19    0.11
   5   6  -4    0.37    0.14
   5  -6  -4    0.27    0.12
   5  -6  -4    0.20    0.10
  -5  -6   3   16.93    0.57
  -5   6   3   16.38    0.57
  -5   6   3   17.40    0.67
   5   6  -3   17.15    0.72
   5  -6  -3   17.50    0.69
   5   6  -3   16.47    0.52
  -5  -6   2   67.49    1.14
  -5   6   2   67.75    1.16
  -5   6   2   69.63    1.31
   5  -6  -2   68.37    1.19
   5   6  -2   66.06    1.17
   5   6  -2   67.40    1.46
   5  -6  -2   69.43    1.40
   5   6  -2   67.10    1.17
  -5  -6   1    1.73    0.19
  -5   6   1    1.58    0.19
   5   6  -1    1.44    0.20
  -5   6   1    1.91    0.22
   5  -6  -1    1.65    0.20
   5   6  -1    1.42    0.19
   5  -6  -1    1.54    0.23
   5   6  -1    1.32    0.23
  -5  -6   0   18.59    0.59
  -5   6   0   18.01    0.59
  -5   6   0   19.05    0.63
   5  -6   0   18.98    0.64
   5   6   0   18.42    0.63
   5   6   0   18.14    0.79
   5  -6   0   19.35    0.73
   5   6   0   19.07    0.70
  -5  -6  -1    0.26    0.08
  -5   6  -1    0.29    0.10
   5   6   1    0.42    0.12
  -5   6  -1    0.26    0.09
   5   6   1    0.31    0.14
   5  -6   1    0.63    0.14
   5   6   1    0.30    0.10
   5  -6   1    0.32    0.12
  -5  -6  -2   26.29    0.68
  -5   6  -2   25.71    0.68
   5  -6   2   25.22    0.74
   5   6   2   25.42    0.73
   5   6   2   27.60    0.95
   5  -6   2   27.07    0.75
   5   6   2   26.52    0.82
  -5  -6  -3    0.27    0.09
  -5   6  -3    0.22    0.08
   5   6   3    0.31    0.10
   5  -6   3    0.28    0.09
   5   6   3    0.28    0.10
   5   6   3    0.31    0.12
   5  -6   3    0.47    0.11
  -5   6  -4    6.54    0.30
  -5  -6  -4    7.28    0.30
   5  -6   4    7.33    0.36
   5   6   4    7.00    0.35
  -5  -6  -4    7.64    0.42
   5   6   4    7.76    0.45
   5   6   4    7.88    0.40
   5   6   5    6.83    0.32
   5  -6   5    5.68    0.28
  -5  -6  -5    6.84    0.36
   5   6   5    6.48    0.35
   5   6   6    1.88    0.14
  -5   7   8    5.22    0.28
  -5   7   8    5.04    0.28
  -5   7   7   12.57    0.50
   5  -7  -7   11.95    0.47
  -5   7   7   12.46    0.50
  -5   7   6    0.94    0.16
   5  -7  -6    0.98    0.16
  -5   7   6    0.90    0.16
  -5   7   5   16.63    0.65
   5   7  -5   15.91    0.48
   5  -7  -5   16.53    0.64
   5  -7  -5   16.08    0.53
  -5   7   5   15.64    0.62
   5   7  -5   15.39    0.52
   5   7  -4   10.07    0.49
  -5   7   4   10.26    0.52
   5   7  -4    9.56    0.40
   5  -7  -4   11.24    0.53
   5  -7  -4   10.36    0.49
  -5   7   3   44.91    1.07
   5   7  -3   45.47    1.11
   5  -7  -3   44.29    1.07
   5   7  -3   43.49    0.79
  -5   7   2    5.56    0.38
   5   7  -2    5.29    0.31
   5   7  -2    5.35    0.41
   5  -7  -2    5.42    0.39
   5   7  -2    5.30    0.32
  -5   7   1   35.61    0.92
   5   7  -1   34.95    0.75
   5   7  -1   36.03    0.79
   5   7  -1   34.33    1.05
   5  -7  -1   34.57    0.99
   5   7  -1   35.52    0.89
  -5   7   0    9.87    0.47
   5   7   0    9.74    0.40
   5   7   0   10.41    0.43
   5   7   0   10.10    0.58
   5  -7   0   10.57    0.53
   5   7   0   10.52    0.51
   5   7   1    6.79    0.34
   5   7   1    6.83    0.36
   5   7   1    7.04    0.49
   5  -7   1    6.66    0.40
   5   7   1    6.91    0.42
   5   7   2    9.66    0.41
   5   7   2    9.66    0.55
   5  -7   2   10.42    0.45
   5   7   2    9.88    0.49
  -5  -7  -3   32.82    0.89
   5   7   3   30.67    0.69
   5   7   3   31.71    0.95
   5  -7   3   32.54    0.66
   5   7   3   31.46    0.83
   5   7   4    1.97    0.20
  -5  -7  -4    2.24    0.23
   5   7   4    1.95    0.23
   5   7   5    4.37    0.23
  -5  -7  -5    4.70    0.28
   5   7   5    4.57    0.28
  -5   8   7    2.99    0.23
   5  -8  -7    3.22    0.23
  -5   8   7    3.02    0.23
  -5   8   6   47.52    0.98
   5  -8  -6   45.64    0.94
  -5   8   6   46.10    0.94
  -5   8   5    0.43    0.12
   5  -8  -5    0.32    0.10
   5   8  -5    0.45    0.11
   5  -8  -5    0.36    0.09
  -5   8   5    0.38    0.12
  -5   8   4    0.88    0.16
   5   8  -4    0.99    0.15
   5  -8  -4    1.10    0.17
   5   8  -4    0.86    0.14
   5  -8  -4    0.89    0.15
  -5   8   4    0.93    0.15
  -5   8   3    0.80    0.15
   5   8  -3    0.78    0.17
   5   8  -3    0.54    0.11
   5  -8  -3    0.68    0.14
   5   8  -2   15.33    0.52
   5   8  -2   15.06    0.53
   5   8  -2   15.82    0.66
   5  -8  -2   15.44    0.64
   5   8  -1    0.19    0.09
  -5   8   1    0.01    0.07
   5   8  -1    0.13    0.08
   5  -8  -1    0.01    0.07
   5   8  -1   -0.05    0.10
   5   8   0    0.85    0.18
   5   8   0    0.70    0.14
  -5   8   0    0.81    0.15
   5   8   0    0.87    0.15
   5  -8   0    0.54    0.13
   5   8   1    0.19    0.10
   5   8   1    0.15    0.12
   5   8   1    0.17    0.08
   5  -8   1    0.18    0.10
   5   8   2   17.66    0.56
   5   8   2   18.74    0.73
   5  -8   2   18.08    0.56
   5   8   2   17.97    0.64
   5   8   3    0.19    0.08
   5   8   3    0.19    0.10
  -5  -8  -3    0.21    0.09
   5   8   3    0.30    0.09
   5   8   4    0.03    0.07
   5   8   4    0.14    0.09
  -5  -8  -4    0.09    0.08
   5   8   4    0.18    0.06
  -5  -8  -5    1.43    0.15
   5   8   5    1.35    0.15
  -5   9   7    9.09    0.33
  -5   9   6    0.11    0.08
   5  -9  -6    0.02    0.07
  -5   9   6    0.11    0.06
  -5   9   5    0.79    0.13
   5  -9  -5    0.95    0.14
   5   9  -5    0.94    0.13
   5  -9  -5    1.15    0.14
  -5   9   5    1.17    0.15
  -5   9   4    9.19    0.45
   5   9  -4    9.37    0.40
   5  -9  -4   10.11    0.43
  -5   9   4    9.20    0.39
  -5   9   3    0.89    0.16
   5   9  -3    0.73    0.13
   5   9  -3    0.43    0.10
   5  -9  -3    0.80    0.15
  -5   9   3    0.92    0.13
   5   9  -2    4.70    0.27
  -5   9   2    4.76    0.33
   5   9  -2    5.01    0.35
   5   9  -2    5.10    0.32
   5  -9  -2    4.95    0.34
   5   9  -1   12.92    0.49
  -5   9   1   13.01    0.53
   5   9  -1   12.69    0.50
   5   9  -1   12.82    0.58
   5  -9  -1   13.29    0.56
   5   9   0    4.87    0.32
  -5   9   0    5.10    0.33
   5   9   0    4.40    0.30
   5   9   0    4.84    0.37
   5  -9   0    5.18    0.34
   5   9   1    3.05    0.26
   5   9   1    2.80    0.24
   5   9   1    2.87    0.29
   5  -9   1    3.05    0.25
   5   9   2    0.31    0.10
   5   9   2    0.24    0.12
  -5  -9  -2    0.34    0.11
   5   9   2    0.10    0.06
   5  -9   2    0.25    0.08
   5   9   3    0.88    0.14
   5   9   3    1.18    0.18
  -5  -9  -3    0.92    0.14
   5   9   3    1.07    0.13
   5   9   4   28.77    0.61
   5   9   4   27.30    0.49
  -5  -9  -4   31.31    0.67
   5   9   4   30.47    0.73
  -5  10   6    0.13    0.06
   5  10  -5   12.87    0.39
  -5  10   5   13.24    0.46
  -5  10   4    3.31    0.25
   5  10  -4    3.52    0.23
   5 -10  -4    3.49    0.24
  -5  10   3   10.71    0.45
   5  10  -3   10.39    0.42
   5 -10  -3   11.10    0.45
  -5  10   2    0.02    0.06
   5  10  -2    0.06    0.07
   5  10  -2    0.01    0.06
   5 -10  -2   -0.02    0.08
   5  10  -1   12.98    0.45
  -5  10   1   12.73    0.49
   5  10  -1   12.06    0.47
   5  10  -1   12.13    0.51
   5 -10  -1   12.85    0.52
   5  10   0    4.33    0.28
   5  10   0    4.79    0.30
   5  10   0    4.53    0.33
   5 -10   0    4.71    0.30
   5  10   1   67.46    1.08
   5  10   1   63.45    1.02
   5  10   1   66.61    1.23
   5 -10   1   66.68    1.02
   5  10   2    8.04    0.37
   5  10   2    7.24    0.33
  -5 -10  -2    7.22    0.34
   5  10   2    7.30    0.40
   5 -10   2    7.41    0.28
   5  10   3   -0.02    0.07
   5  10   3   -0.07    0.06
  -5 -10  -3   -0.06    0.06
   5  10   3   -0.05    0.07
  -5  11   4   28.70    0.63
   5  11  -4   27.23    0.57
  -5  11   3    2.24    0.19
   5  11  -3    2.15    0.18
   5 -11  -3    2.52    0.20
  -5  11   2    7.19    0.34
   5  11  -2    6.32    0.31
   5 -11  -2    6.95    0.34
   5  11  -1    5.52    0.24
   5  11  -1    5.98    0.30
   5  11  -1    5.98    0.31
   5 -11  -1    6.71    0.34
   5  11   0    9.82    0.36
   5  11   0   10.26    0.39
   5  11   0   10.51    0.43
  -5 -11   0    9.19    0.32
   5 -11   0   10.68    0.40
   5  11   1    8.04    0.34
   5  11   1    7.26    0.31
  -5 -11  -1    7.49    0.28
   5  11   1    8.08    0.38
   5 -11   1    7.89    0.30
   5  11   2   43.00    0.69
   5  11   2   47.35    0.87
   5  12  -2    9.32    0.33
   5  12  -1    2.12    0.17
  -6   0   8   61.70    0.79
  -6   0   8   64.47    0.93
  -6   0   7   -0.04    0.08
   6   0  -7    0.02    0.07
  -6   0   6    0.77    0.14
   6   0  -6    0.73    0.16
  -6   0   5   -0.03    0.09
   6   0  -5   -0.06    0.07
   6   0  -5    0.00    0.09
   6   0  -4   10.51    0.46
   6   0  -4   10.44    0.61
  -6   0   4   10.25    0.53
  -6   0   3    0.09    0.09
   6   0  -3    0.07    0.09
   6   0  -3    0.08    0.08
   6   0  -3    0.02    0.11
  -6   0   2    0.73    0.17
   6   0  -2    0.84    0.20
   6   0  -2    0.68    0.17
   6   0  -2    0.67    0.15
  -6   0   1    0.06    0.08
   6   0  -1    0.14    0.13
   6   0  -1   -0.07    0.11
   6   0  -1    0.04    0.07
   6   0   0   87.46    1.67
   6   0   0   92.13    1.68
   6   0   0   87.25    1.46
  -6   0  -1    0.20    0.11
   6   0   1    0.10    0.11
   6   0   1    0.04    0.11
   6   0   1   -0.02    0.08
   6   0   2   20.45    0.66
  -6   0  -2   20.62    0.69
   6   0   2   21.48    0.79
   6   0   2   20.83    0.60
  -6   0  -3    0.10    0.08
   6   0   3    0.09    0.09
  -6   0  -4   12.33    0.46
   6   0   4   11.45    0.50
   6   0   5    0.01    0.05
   6  -1  -8    0.10    0.06
   6   1  -8    0.13    0.06
  -6  -1   8   -0.05    0.06
  -6   1   8    0.01    0.04
   6  -1  -7   21.17    0.67
   6   1  -7   20.99    0.66
  -6   1   7   20.91    0.62
  -6  -1   7   20.51    0.60
  -6   1   7   20.88    0.61
  -6  -1   6    0.06    0.07
  -6   1   6    0.11    0.07
   6  -1  -6    0.05    0.08
   6   1  -6    0.05    0.09
   6  -1  -5    3.54    0.24
   6   1  -5    3.56    0.24
   6   1  -5    3.78    0.35
  -6  -1   5    3.46    0.30
  -6   1   5    3.51    0.30
   6  -1  -4   25.77    0.73
   6   1  -4   24.72    0.70
   6  -1  -4   26.31    0.96
   6   1  -4   26.24    0.94
  -6  -1   4   27.30    0.85
  -6   1   4   26.25    0.83
  -6  -1   3    0.02    0.09
  -6   1   3    0.11    0.11
   6   1  -3    0.05    0.12
   6  -1  -3    0.23    0.12
   6   1  -3    0.05    0.09
   6  -1  -3    0.11    0.09
   6   1  -3    0.23    0.10
   6  -1  -3    0.06    0.12
  -6  -1   2    1.92    0.24
  -6   1   2    1.63    0.23
   6   1  -2    1.63    0.26
   6  -1  -2    1.99    0.26
   6   1  -2    1.59    0.23
   6  -1  -2    1.57    0.21
   6   1  -2    1.51    0.21
   6  -1  -2    1.97    0.29
  -6  -1   1    0.86    0.17
  -6   1   1    1.22    0.20
   6  -1  -1    1.06    0.22
   6   1  -1    1.26    0.23
   6  -1  -1    1.03    0.21
   6   1  -1    1.23    0.21
   6  -1  -1    1.12    0.18
   6   1  -1    1.36    0.20
  -6  -1   0   13.61    0.61
  -6   1   0   16.98    0.67
   6   1   0   16.90    0.75
   6  -1   0   16.60    0.72
   6   1   0   15.99    0.71
   6  -1   0   11.91    0.54
   6   1   0   11.69    0.54
   6  -1   0   15.67    0.69
  -6  -1  -1   33.63    0.91
  -6   1  -1   31.91    0.89
   6   1   1   31.99    0.96
   6  -1   1   32.19    0.99
   6   1   1   31.81    0.97
   6  -1   1   32.38    0.83
   6   1   1   31.85    0.83
   6  -1   1   30.80    0.88
   6  -1   2    0.45    0.12
  -6  -1  -2    0.72    0.14
  -6   1  -2    0.60    0.13
   6   1   2    0.98    0.17
   6  -1   2    0.44    0.13
   6   1   2    0.91    0.18
  -6  -1  -2    0.89    0.13
   6  -1   2    0.75    0.12
   6   1   2    0.78    0.13
   6   1   3    1.85    0.19
  -6  -1  -3    1.89    0.20
  -6   1  -3    2.06    0.21
   6  -1   3    1.92    0.23
   6   1   3    1.84    0.23
   6  -1   3    1.87    0.15
  -6  -1  -4    2.70    0.22
  -6   1  -4    3.00    0.23
   6  -1   4    2.80    0.25
   6   1   4    3.04    0.26
   6   1   4    3.07    0.21
   6  -1   5   16.44    0.51
   6   1   5   16.78    0.51
   6  -2  -8    0.46    0.09
   6   2  -8    0.43    0.09
  -6   2   8    0.33    0.07
   6  -2  -7    9.74    0.45
   6   2  -7   10.80    0.46
  -6   2   7   10.80    0.45
  -6  -2   7   10.21    0.41
  -6   2   7   10.13    0.41
  -6  -2   6    0.03    0.07
  -6   2   6    0.01    0.08
   6  -2  -6   -0.01    0.09
   6   2  -6   -0.02    0.08
   6  -2  -5   24.74    0.83
   6  -2  -5   24.50    0.62
   6   2  -5   25.64    0.86
  -6  -2   5   24.51    0.76
  -6   2   5   24.57    0.76
  -6  -2   4    6.73    0.42
  -6   2   4    6.60    0.41
   6  -2  -4    6.86    0.38
   6   2  -4    6.39    0.35
   6  -2  -4    6.86    0.50
   6   2  -4    6.70    0.47
  -6  -2   3   29.76    0.89
  -6   2   3   26.92    0.84
   6  -2  -3   27.50    0.80
   6   2  -3   25.03    0.76
   6  -2  -3   27.76    1.00
   6   2  -3   27.32    0.97
  -6  -2   2   16.88    0.67
  -6   2   2   17.07    0.68
   6   2  -2   16.13    0.76
   6  -2  -2   16.76    0.71
   6   2  -2   16.74    0.70
   6  -2  -2   16.58    0.65
   6   2  -2   16.58    0.64
   6  -2  -2   16.55    0.77
  -6  -2   1   49.42    1.14
  -6   2   1   47.57    1.12
   6   2  -1   46.88    1.28
   6  -2  -1   47.68    1.19
   6   2  -1   46.99    1.17
   6  -2  -1   52.16    1.14
   6   2  -1   49.57    1.11
   6  -2  -1   48.05    1.24
  -6  -2   0    1.81    0.23
  -6   2   0    1.58    0.21
   6   2   0    2.06    0.25
   6   2   0    1.76    0.25
   6  -2   0    1.61    0.24
   6  -2   0    1.97    0.23
   6   2   0    1.88    0.22
   6  -2   0    1.91    0.24
  -6  -2  -1    9.92    0.49
  -6   2  -1    9.90    0.49
   6   2   1   10.03    0.55
   6  -2   1   10.03    0.54
   6   2   1   10.00    0.54
   6  -2   1   10.57    0.48
   6   2   1    9.80    0.46
   6  -2   1    9.56    0.46
  -6  -2  -2    0.08    0.08
  -6   2  -2    0.16    0.09
   6  -2   2    0.23    0.11
   6   2   2    0.15    0.09
   6   2   2    0.15    0.10
   6  -2   2    0.24    0.08
  -6  -2  -3    8.09    0.39
  -6   2  -3    8.48    0.40
   6   2   3    7.99    0.38
   6  -2   3    8.42    0.46
   6   2   3    8.54    0.46
  -6  -2  -3    8.29    0.32
   6  -2   3    8.75    0.29
  -6   2  -4    0.29    0.09
  -6  -2  -4    0.40    0.10
   6   2   4    0.39    0.09
   6  -2   4    0.55    0.12
   6   2   4    0.35    0.10
  -6  -3   7    0.90    0.13
  -6   3   7    1.09    0.14
   6  -3  -7    1.07    0.15
   6   3  -7    0.91    0.14
  -6   3   7    0.99    0.14
  -6   3   6   32.11    0.61
   6  -3  -6   33.30    0.86
   6   3  -6   34.13    0.86
  -6  -3   6   34.25    0.79
  -6   3   6   33.80    0.79
  -6  -3   5    1.30    0.18
  -6   3   5    1.24    0.14
   6  -3  -5    1.43    0.20
   6   3  -5    1.56    0.21
   6  -3  -5    1.55    0.17
   6   3  -5    1.43    0.20
  -6   3   5    1.58    0.20
   6   3  -4    0.43    0.15
  -6  -3   4    0.47    0.13
  -6   3   4    0.48    0.12
   6  -3  -4    0.51    0.11
   6   3  -3   17.22    0.75
  -6  -3   3   16.74    0.64
  -6   3   3   16.90    0.64
   6  -3  -3   17.35    0.63
   6  -3  -3   16.16    0.75
   6   3  -3   16.90    0.49
  -6  -3   2   95.88    1.53
  -6   3   2   97.30    1.54
   6   3  -2   95.42    1.80
   6  -3  -2   96.26    1.62
   6   3  -2   99.62    1.63
   6  -3  -2   95.83    1.53
   6   3  -2   96.06    1.51
   6  -3  -2   93.46    1.73
  -6  -3   1    1.93    0.23
  -6   3   1    2.07    0.24
   6   3  -1    1.97    0.28
   6  -3  -1    2.26    0.26
   6   3  -1    2.00    0.24
   6  -3  -1    2.15    0.24
   6   3  -1    1.88    0.22
   6  -3  -1    1.77    0.24
  -6  -3   0    9.19    0.46
  -6   3   0    9.23    0.47
   6   3   0    9.42    0.56
   6  -3   0    9.72    0.53
   6   3   0    9.44    0.51
   6  -3   0    9.22    0.46
   6   3   0    9.84    0.48
   6  -3   0    8.74    0.47
  -6  -3  -1    1.97    0.22
  -6   3  -1    1.81    0.21
   6   3   1    1.69    0.24
   6  -3   1    2.00    0.25
   6   3   1    2.02    0.24
   6  -3   1    2.04    0.21
   6  -3   1    1.85    0.20
  -6  -3  -2   11.87    0.48
  -6   3  -2   12.64    0.50
   6   3   2   11.58    0.55
   6  -3   2   12.69    0.57
   6   3   2   12.62    0.56
   6  -3   2   12.46    0.45
  -6  -3  -3    5.33    0.30
  -6   3  -3    5.08    0.30
   6   3   3    4.64    0.31
   6  -3   3    4.91    0.34
   6   3   3    5.40    0.35
  -6  -3  -3    4.89    0.27
   6   3   3    5.54    0.31
  -6   3  -4    7.02    0.31
  -6  -3  -4    6.87    0.30
   6   3   4    6.33    0.26
   6  -3   4    7.00    0.36
   6   3   4    7.14    0.35
   6   3   4    6.88    0.29
   6  -4  -7   22.09    0.57
   6   4  -7   21.45    0.55
  -6   4   7   22.64    0.62
  -6  -4   6    0.55    0.12
  -6   4   6    0.37    0.11
  -6   4   6    0.20    0.08
   6  -4  -6    0.50    0.11
   6   4  -6    0.42    0.11
  -6  -4   5   19.76    0.60
  -6   4   5   18.92    0.59
  -6   4   5   18.85    0.51
   6  -4  -5   18.51    0.65
   6   4  -5   18.83    0.64
   6  -4  -5   19.54    0.53
   6   4  -5   20.08    0.69
  -6  -4   4    5.19    0.33
  -6   4   4    5.04    0.32
  -6   4   4    4.95    0.27
   6  -4  -4    5.38    0.32
   6   4  -4    5.15    0.39
  -6  -4   3   31.02    0.81
  -6   4   3   33.05    0.83
   6   4  -3   31.21    0.99
   6  -4  -3   32.03    0.83
   6   4  -3   31.03    0.61
  -6  -4   2    5.55    0.35
  -6   4   2    5.69    0.35
   6   4  -2    6.03    0.45
   6  -4  -2    5.85    0.39
   6   4  -2    5.62    0.37
   6  -4  -2    5.66    0.37
   6   4  -2    6.21    0.33
  -6  -4   1   35.15    0.87
  -6   4   1   35.27    0.86
   6   4  -1   37.59    1.10
   6  -4  -1   38.04    0.98
   6   4  -1   36.69    0.94
   6  -4  -1   36.66    0.93
   6   4  -1   36.11    0.84
  -6  -4   0    1.14    0.16
  -6   4   0    1.39    0.18
   6   4   0    1.10    0.16
   6  -4   0    1.22    0.19
   6   4   0    1.30    0.19
   6   4   0    0.96    0.19
   6  -4   0    1.20    0.18
  -6  -4  -1    4.39    0.29
  -6   4  -1    4.49    0.29
   6   4   1    4.75    0.38
   6  -4   1    4.65    0.34
   6   4   1    4.52    0.33
   6  -4   1    4.83    0.31
   6   4   1    4.47    0.31
  -6  -4  -2    2.24    0.20
  -6   4  -2    2.27    0.20
   6   4   2    2.06    0.24
   6  -4   2    2.06    0.23
   6   4   2    2.07    0.22
   6  -4   2    2.17    0.19
   6   4   2    2.10    0.21
  -6  -4  -3   21.19    0.55
  -6   4  -3   20.70    0.54
   6   4   3   20.78    0.63
   6  -4   3   19.14    0.60
   6   4   3   20.49    0.60
  -6  -4  -3   19.92    0.54
   6   4   3   20.90    0.57
   6   4   4    0.78    0.11
   6  -4   4    0.95    0.13
   6   4   4    0.99    0.12
   6  -5  -7   12.06    0.34
   6   5  -7   12.57    0.35
  -6   5   7   12.85    0.44
  -6  -5   6   41.33    0.63
  -6   5   6   41.98    0.65
  -6   5   6   40.95    0.70
   6  -5  -6   40.61    0.76
   6   5  -6   42.51    0.77
  -6   5   6   43.69    0.90
  -6  -5   5    0.07    0.07
  -6   5   5    0.11    0.07
  -6   5   5    0.17    0.10
   6  -5  -5   -0.02    0.06
   6   5  -5    0.09    0.07
   6  -5  -5    0.12    0.07
   6   5  -5    0.14    0.07
  -6  -5   4    0.16    0.08
  -6   5   4    0.18    0.08
   6   5  -4    0.19    0.10
  -6   5   4    0.08    0.07
   6  -5  -4    0.04    0.06
   6  -5  -4    0.18    0.08
   6   5  -4    0.13    0.09
  -6  -5   3    0.67    0.12
  -6   5   3    0.55    0.11
  -6   5   3    0.53    0.11
   6   5  -3    0.70    0.17
   6  -5  -3    0.65    0.12
  -6  -5   2   25.25    0.67
  -6   5   2   25.33    0.67
   6   5  -2   26.04    0.89
   6  -5  -2   27.56    0.78
   6   5  -2   25.41    0.63
  -6  -5   1    0.04    0.07
  -6   5   1    0.05    0.07
   6   5  -1    0.08    0.07
   6  -5  -1    0.00    0.07
   6   5  -1    0.13    0.08
   6   5  -1    0.16    0.09
   6  -5  -1    0.19    0.09
  -6  -5   0    5.77    0.32
  -6   5   0    5.95    0.32
   6  -5   0    5.89    0.36
   6   5   0    6.27    0.36
   6   5   0    6.04    0.43
   6  -5   0    6.04    0.36
   6   5   0    6.12    0.35
  -6  -5  -1    1.29    0.15
  -6   5  -1    1.11    0.15
   6   5   1    1.29    0.17
   6   5   1    1.37    0.17
   6  -5   1    1.25    0.17
   6   5   1    1.36    0.21
   6  -5   1    1.41    0.17
  -6  -5  -2   26.77    0.58
  -6   5  -2   27.13    0.60
   6  -5   2   25.80    0.68
   6   5   2   26.65    0.67
   6   5   2   28.05    0.82
   6  -5   2   27.36    0.60
   6   5   2   28.85    0.71
   6   5   3    3.61    0.26
   6  -5   3    3.55    0.23
   6   5   3    4.09    0.24
  -6  -5  -3    3.90    0.25
   6   5   3    3.85    0.24
   6  -5   4    0.17    0.08
   6   5   4    0.04    0.06
   6   5   4    0.02    0.07
   6   6  -6    0.14    0.07
  -6   6   6    0.03    0.05
  -6   6   5   14.56    0.44
   6  -6  -5   15.03    0.41
   6  -6  -5   15.39    0.39
  -6   6   5   14.92    0.52
   6   6  -5   14.27    0.46
   6   6  -4    1.05    0.16
  -6   6   4    0.83    0.12
   6  -6  -4    0.88    0.13
   6   6  -4    0.89    0.12
   6  -6  -4    1.04    0.14
  -6  -6   3    2.37    0.18
   6   6  -3    2.71    0.27
  -6   6   3    2.30    0.19
   6  -6  -3    2.60    0.23
  -6  -6   2    1.13    0.13
  -6   6   2    1.49    0.15
   6   6  -2    1.57    0.22
   6   6  -2    1.27    0.14
  -6   6   2    1.39    0.14
   6  -6  -2    1.19    0.17
  -6  -6   1   -0.10    0.08
  -6   6   1    0.17    0.08
   6   6  -1    0.08    0.06
   6   6  -1    0.07    0.08
   6  -6  -1    0.05    0.08
   6  -6   0    5.80    0.30
   6   6   0    6.24    0.31
   6   6   0    6.17    0.42
   6  -6   0    6.54    0.35
   6   6   0    6.35    0.34
   6  -6   1   10.70    0.39
   6   6   1   10.78    0.38
   6   6   1   11.60    0.55
   6  -6   1   11.53    0.43
   6   6   1   11.89    0.46
   6  -6   2    3.10    0.19
   6   6   2    3.26    0.27
  -6  -6  -2    3.37    0.24
   6  -6   2    3.64    0.20
   6   6   2    3.52    0.24
   6   6   3    3.66    0.25
  -6  -6  -3    3.70    0.22
   6   6   3    3.29    0.21
  -6   7   5    1.39    0.13
  -6   7   5    1.23    0.14
  -6   7   4    0.10    0.07
   6  -7  -4    0.00    0.08
  -6   7   4    0.28    0.08
   6   7  -4    0.09    0.06
   6   7  -3   11.62    0.49
  -6   7   3   10.56    0.37
   6  -7  -3   11.92    0.45
  -6   7   2    0.70    0.11
   6   7  -2    0.57    0.14
   6  -7  -2    0.75    0.13
   6   7  -1    2.24    0.24
   6  -7  -1    2.23    0.21
   6   7  -1    2.27    0.19
   6   7   0   -0.06    0.07
   6   7   0   -0.03    0.08
   6  -7   0    0.05    0.07
   6   7   1   25.28    0.76
   6  -7   1   25.43    0.59
   6   7   1   25.99    0.62
   6   7   2    1.41    0.15
   6   7   2    1.46    0.17
  -6  -7  -2    1.27    0.16
  -6   8   4   12.18    0.36
   6   8  -4    0.22    0.09
  -6   8   3    3.63    0.20
   6  -8  -3    3.59    0.23
   6   8  -3    3.54    0.23
   6   8  -2    3.59    0.26
  -6   8   2    3.18    0.18
   6  -8  -2    3.25    0.23
   6   8  -1    4.68    0.22
   6   8  -1    4.96    0.32
   6  -8  -1    5.17    0.29
   6   8   0    9.39    0.34
   6   8   0    9.05    0.43
   6  -8   0    9.26    0.36
   6   8   1    0.04    0.05
  -6  -8  -1    0.00    0.05
   6   8   1    0.04    0.06
   6   9  -3   -0.13    0.08
   6   9  -2   32.66    0.65
   6   9  -1    0.65    0.11
   6   9   0    5.89    0.31
  -7   0   4   18.25    0.49
   7   0  -4   18.65    0.57
  -7   0   3   -0.02    0.06
   7   0  -3    0.05    0.08
   7   0  -3   -0.05    0.06
  -7   0   2   96.60    1.19
   7   0  -2   97.25    1.15
   7   0  -2   97.41    1.44
  -7   0   1   -0.10    0.08
   7   0  -1   -0.02    0.07
   7   0  -1   -0.05    0.09
  -7   0   0   62.22    0.91
   7   0   0   62.66    1.03
   7  -1  -4    0.63    0.11
   7   1  -4    0.60    0.11
  -7  -1   3   10.65    0.39
  -7   1   3   10.87    0.39
   7  -1  -3   10.64    0.36
   7   1  -3   10.45    0.47
  -7  -1   2    0.73    0.12
  -7   1   2    0.84    0.12
   7  -1  -2    0.83    0.15
   7  -1  -2    0.84    0.12
   7   1  -2    0.96    0.16
  -7  -1   1   16.58    0.48
  -7   1   1   16.87    0.49
   7  -1  -1   18.28    0.50
   7  -1  -1   16.07    0.54
   7   1  -1   17.35    0.59
  -7  -1   0    0.15    0.06
  -7   1   0    0.10    0.06
   7  -1   0    0.30    0.09
   7   1   0    0.18    0.08
   7  -1   0    0.16    0.08
   7  -1   0    0.18    0.06
   7   1   0    0.03    0.07
   7   2  -4    0.11    0.07
   7  -2  -4    0.26    0.08
   7   2  -4    0.19    0.07
  -7  -2   3    0.40    0.09
  -7   2   3    0.41    0.09
   7   2  -3    0.38    0.11
  -7  -2   2    5.73    0.28
  -7   2   2    5.71    0.28
   7  -2  -2    5.41    0.27
   7   2  -2    6.13    0.36
  -7  -2   1    0.45    0.09
  -7   2   1    0.30    0.08
   7  -2  -1    0.18    0.06
   7   2  -1    0.41    0.11
   7  -2   0    1.27    0.15
   7   2   0    1.29    0.15
   7   2   0    1.47    0.17
   7   3  -3    0.37    0.09
   7  -3  -2    0.47    0.09
   7   3  -2    0.42    0.11
   7   3  -1    2.11    0.21
   0   0   0    0.00    0.00
;
_shelx_hkl_checksum              41841
loop_
_space_group_symop_operation_xyz
'x, y, z'
'-x, y+1/2, -z+1/2'
'-x, -y, -z'
'x, -y-1/2, z-1/2'
loop_
_atom_site_label
_atom_site_type_symbol
_atom_site_fract_x
_atom_site_fract_y
_atom_site_fract_z
_atom_site_U_iso_or_equiv
_atom_site_adp_type
_atom_site_occupancy
_atom_site_site_symmetry_order
_atom_site_calc_flag
_atom_site_refinement_flags_posn
_atom_site_refinement_flags_adp
_atom_site_refinement_flags_occupancy
_atom_site_disorder_assembly
_atom_site_disorder_group
S1 S 0.26316(5) 0.42759(2) -0.11406(3) 0.01791(11) Uani 1 1 d . . . . .
N1 N 0.17901(19) 0.43745(8) 0.13988(11) 0.0173(2) Uani 1 1 d D . . . .
H1N H 0.069(2) 0.4798(10) 0.1273(16) 0.026 Uiso 1 1 d D U . . .
N2 N 0.22991(19) 0.39594(8) 0.26285(11) 0.0219(3) Uani 1 1 d . . . . .
N3 N 0.42383(18) 0.33163(8) 0.11766(10) 0.0163(2) Uani 1 1 d . . . . .
C1 C 0.2907(2) 0.39986(9) 0.04831(13) 0.0153(3) Uani 1 1 d . . . . .
C2 C 0.3783(2) 0.33269(10) 0.24575(13) 0.0217(3) Uani 1 1 d . . . . .
H2 H 0.447849 0.291655 0.313813 0.026 Uiso 1 1 calc R U . . .
C3 C 0.5751(2) 0.26640(9) 0.06913(12) 0.0165(3) Uani 1 1 d . . . . .
C4 C 0.5604(2) 0.17121(10) 0.10172(14) 0.0221(3) Uani 1 1 d . . . . .
H4 H 0.449929 0.150148 0.152328 0.027 Uiso 1 1 calc R U . . .
C5 C 0.7098(3) 0.10739(10) 0.05922(15) 0.0267(3) Uani 1 1 d . . . . .
H5 H 0.703335 0.042280 0.082143 0.032 Uiso 1 1 calc R U . . .
C6 C 0.8683(2) 0.13818(10) -0.01653(15) 0.0260(3) Uani 1 1 d . . . . .
H6 H 0.968920 0.094062 -0.046267 0.031 Uiso 1 1 calc R U . . .
C7 C 0.8800(2) 0.23342(10) -0.04893(14) 0.0232(3) Uani 1 1 d . . . . .
H7 H 0.988158 0.254157 -0.101366 0.028 Uiso 1 1 calc R U . . .
C8 C 0.7345(2) 0.29868(9) -0.00521(13) 0.0187(3) Uani 1 1 d . . . . .
H8 H 0.744028 0.364092 -0.025813 0.022 Uiso 1 1 calc R U . . .
loop_
_atom_site_aniso_label
_atom_site_aniso_U_11
_atom_site_aniso_U_22
_atom_site_aniso_U_33
_atom_site_aniso_U_23
_atom_site_aniso_U_13
_atom_site_aniso_U_12
S1 0.02046(18) 0.02008(19) 0.01403(18) 0.00194(12) 0.00534(12) 0.00436(12)
N1 0.0185(6) 0.0190(6) 0.0150(6) 0.0006(4) 0.0043(4) 0.0039(4)
N2 0.0264(6) 0.0253(6) 0.0145(6) 0.0014(5) 0.0051(5) 0.0052(5)
N3 0.0175(5) 0.0181(5) 0.0136(5) 0.0000(4) 0.0035(4) 0.0029(4)
C1 0.0142(6) 0.0152(6) 0.0166(6) -0.0011(5) 0.0033(5) -0.0014(5)
C2 0.0265(7) 0.0249(7) 0.0141(6) 0.0014(5) 0.0044(5) 0.0053(6)
C3 0.0164(6) 0.0188(7) 0.0139(6) -0.0015(5) 0.0012(5) 0.0032(5)
C4 0.0258(7) 0.0225(7) 0.0197(7) 0.0050(5) 0.0088(5) 0.0028(6)
C5 0.0339(8) 0.0187(7) 0.0291(8) 0.0057(6) 0.0101(6) 0.0072(6)
C6 0.0249(7) 0.0241(7) 0.0305(8) 0.0000(6) 0.0091(6) 0.0082(6)
C7 0.0178(7) 0.0253(7) 0.0281(8) -0.0013(6) 0.0081(6) -0.0011(6)
C8 0.0167(6) 0.0170(7) 0.0221(7) -0.0010(5) 0.0024(5) -0.0014(5)
loop_
_atom_type_symbol
_atom_type_description
_atom_type_scat_dispersion_real
_atom_type_scat_dispersion_imag
_atom_type_scat_source
C C 0.0181 0.0091 'International Tables Vol C Tables 4.2.6.8 and 6.1.1.4'
H H 0.0000 0.0000 'International Tables Vol C Tables 4.2.6.8 and 6.1.1.4'
N N 0.0311 0.0180 'International Tables Vol C Tables 4.2.6.8 and 6.1.1.4'
S S 0.3331 0.5567 'International Tables Vol C Tables 4.2.6.8 and 6.1.1.4'
loop_
_geom_angle_atom_site_label_1
_geom_angle_atom_site_label_2
_geom_angle_atom_site_label_3
_geom_angle
_geom_angle_site_symmetry_1
_geom_angle_site_symmetry_3
C1 N1 N2 113.69(11) . .
C1 N1 H1N 127.5(11) . .
N2 N1 H1N 118.4(11) . .
C2 N2 N1 103.42(10) . .
C2 N3 C1 107.17(11) . .
C2 N3 C3 124.36(11) . .
C1 N3 C3 128.40(11) . .
N1 C1 N3 103.48(11) . .
N1 C1 S1 127.51(10) . .
N3 C1 S1 128.96(10) . .
N2 C2 N3 112.24(12) . .
N2 C2 H2 123.9 . .
N3 C2 H2 123.9 . .
C8 C3 C4 121.49(12) . .
C8 C3 N3 120.42(12) . .
C4 C3 N3 118.06(12) . .
C5 C4 C3 118.98(13) . .
C5 C4 H4 120.5 . .
C3 C4 H4 120.5 . .
C6 C5 C4 120.32(13) . .
C6 C5 H5 119.8 . .
C4 C5 H5 119.8 . .
C5 C6 C7 120.03(13) . .
C5 C6 H6 120.0 . .
C7 C6 H6 120.0 . .
C6 C7 C8 120.47(13) . .
C6 C7 H7 119.8 . .
C8 C7 H7 119.8 . .
C3 C8 C7 118.69(12) . .
C3 C8 H8 120.7 . .
C7 C8 H8 120.7 . .
loop_
_geom_bond_atom_site_label_1
_geom_bond_atom_site_label_2
_geom_bond_distance
_geom_bond_site_symmetry_2
S1 C1 1.6847(13) .
N1 C1 1.3409(17) .
N1 N2 1.3752(16) .
N1 H1N 0.884(9) .
N2 C2 1.2927(18) .
N3 C2 1.3756(17) .
N3 C1 1.3760(16) .
N3 C3 1.4347(16) .
C2 H2 0.9500 .
C3 C8 1.3879(18) .
C3 C4 1.3893(19) .
C4 C5 1.388(2) .
C4 H4 0.9500 .
C5 C6 1.386(2) .
C5 H5 0.9500 .
C6 C7 1.388(2) .
C6 H6 0.9500 .
C7 C8 1.3901(19) .
C7 H7 0.9500 .
C8 H8 0.9500 .
loop_
_geom_torsion_atom_site_label_1
_geom_torsion_atom_site_label_2
_geom_torsion_atom_site_label_3
_geom_torsion_atom_site_label_4
_geom_torsion
_geom_torsion_site_symmetry_1
_geom_torsion_site_symmetry_2
_geom_torsion_site_symmetry_3
_geom_torsion_site_symmetry_4
C1 N1 N2 C2 0.92(15) . . . .
N2 N1 C1 N3 -1.20(14) . . . .
N2 N1 C1 S1 176.45(10) . . . .
C2 N3 C1 N1 0.99(14) . . . .
C3 N3 C1 N1 177.86(12) . . . .
C2 N3 C1 S1 -176.62(10) . . . .
C3 N3 C1 S1 0.3(2) . . . .
N1 N2 C2 N3 -0.22(15) . . . .
C1 N3 C2 N2 -0.50(16) . . . .
C3 N3 C2 N2 -177.52(12) . . . .
C2 N3 C3 C8 -132.95(14) . . . .
C1 N3 C3 C8 50.68(18) . . . .
C2 N3 C3 C4 45.40(18) . . . .
C1 N3 C3 C4 -130.97(14) . . . .
C8 C3 C4 C5 0.3(2) . . . .
N3 C3 C4 C5 -178.03(12) . . . .
C3 C4 C5 C6 -1.1(2) . . . .
C4 C5 C6 C7 0.8(2) . . . .
C5 C6 C7 C8 0.4(2) . . . .
C4 C3 C8 C7 0.9(2) . . . .
N3 C3 C8 C7 179.15(12) . . . .
C6 C7 C8 C3 -1.2(2) . . . .
