#------------------------------------------------------------------------------
#$Date: 2022-06-23 11:03:32 +0300 (Thu, 23 Jun 2022) $
#$Revision: 276172 $
#$URL: file:///home/coder/svn-repositories/cod/cif/8/10/54/8105466.cif $
#------------------------------------------------------------------------------
#
# This file is available in the Crystallography Open Database (COD),
# http://www.crystallography.net/
#
# All data on this site have been placed in the public domain by the
# contributors.
#
data_8105466
loop_
_publ_author_name
'Wu, Qin'
_publ_section_title
;
 Synthesis and crystal structure of bis(5-methyl-2-aldehyde-phenolato-\k2
 O 1,O 2)copper(II), C16H14CuO4
;
_journal_issue                   6
_journal_name_full
'Zeitschrift f\"ur Kristallographie - New Crystal Structures'
_journal_page_first              1359
_journal_page_last               1360
_journal_paper_doi               10.1515/ncrs-2020-0315
_journal_volume                  235
_journal_year                    2020
_chemical_formula_moiety         'C16 H14 Cu O4'
_chemical_formula_sum            'C16 H14 Cu O4'
_chemical_formula_weight         333.81
_space_group_crystal_system      monoclinic
_space_group_IT_number           14
_space_group_name_Hall           '-P 2ybc'
_space_group_name_H-M_alt        'P 1 21/c 1'
_atom_sites_solution_hydrogens   geom
_atom_sites_solution_primary     direct
_cell_angle_alpha                90
_cell_angle_beta                 114.5570(10)
_cell_angle_gamma                90
_cell_formula_units_Z            2
_cell_length_a                   12.7831(4)
_cell_length_b                   4.71970(10)
_cell_length_c                   12.1802(4)
_cell_measurement_reflns_used    6976
_cell_measurement_temperature    173(2)
_cell_measurement_theta_max      26.717
_cell_measurement_theta_min      3.353
_cell_volume                     668.39(3)
_computing_cell_refinement       'SAINT V8.38A (?, 2016)'
_computing_data_collection       APEX3
_computing_data_reduction        'SAINT V8.38A (?, 2016)'
_computing_molecular_graphics    'Olex2 (Dolomanov et al., 2009)'
_computing_publication_material  'Olex2 (Dolomanov et al., 2009)'
_computing_structure_refinement  'ShelXL (Sheldrick, 2015)'
_computing_structure_solution    'ShelXS (Sheldrick, 2008)'
_diffrn_ambient_temperature      173.0
_diffrn_measured_fraction_theta_full 0.998
_diffrn_measured_fraction_theta_max 0.998
_diffrn_measurement_device_type  'Bruker D8 Venture'
_diffrn_measurement_method       '\f and \w scans'
_diffrn_radiation_type           MoK\a
_diffrn_radiation_wavelength     0.71073
_diffrn_reflns_av_R_equivalents  0.0381
_diffrn_reflns_av_unetI/netI     0.0157
_diffrn_reflns_Laue_measured_fraction_full 0.998
_diffrn_reflns_Laue_measured_fraction_max 0.998
_diffrn_reflns_limit_h_max       16
_diffrn_reflns_limit_h_min       -16
_diffrn_reflns_limit_k_max       5
_diffrn_reflns_limit_k_min       -5
_diffrn_reflns_limit_l_max       15
_diffrn_reflns_limit_l_min       -15
_diffrn_reflns_number            11890
_diffrn_reflns_point_group_measured_fraction_full 0.998
_diffrn_reflns_point_group_measured_fraction_max 0.998
_diffrn_reflns_theta_full        25.242
_diffrn_reflns_theta_max         26.724
_diffrn_reflns_theta_min         3.353
_diffrn_standards_number         0
_exptl_absorpt_coefficient_mu    1.647
_exptl_absorpt_correction_T_max  0.7454
_exptl_absorpt_correction_T_min  0.6867
_exptl_absorpt_correction_type   multi-scan
_exptl_absorpt_process_details   sadabs
_exptl_crystal_colour            brown
_exptl_crystal_density_diffrn    1.659
_exptl_crystal_description       block
_exptl_crystal_F_000             342
_exptl_crystal_size_max          0.27
_exptl_crystal_size_mid          0.25
_exptl_crystal_size_min          0.24
_refine_diff_density_max         0.358
_refine_diff_density_min         -0.304
_refine_diff_density_rms         0.056
_refine_ls_extinction_coef       .
_refine_ls_extinction_method     none
_refine_ls_goodness_of_fit_ref   1.091
_refine_ls_hydrogen_treatment    constr
_refine_ls_matrix_type           full
_refine_ls_number_parameters     98
_refine_ls_number_reflns         1404
_refine_ls_number_restraints     0
_refine_ls_restrained_S_all      1.091
_refine_ls_R_factor_all          0.0243
_refine_ls_R_factor_gt           0.0211
_refine_ls_shift/su_max          0.000
_refine_ls_shift/su_mean         0.000
_refine_ls_structure_factor_coef Fsqd
_refine_ls_weighting_details
'w=1/[\s^2^(Fo^2^)+(0.0331P)^2^+0.3557P] where P=(Fo^2^+2Fc^2^)/3'
_refine_ls_weighting_scheme      calc
_refine_ls_wR_factor_gt          0.0610
_refine_ls_wR_factor_ref         0.0624
_reflns_Friedel_coverage         0.000
_reflns_Friedel_fraction_full    .
_reflns_Friedel_fraction_max     .
_reflns_number_gt                1263
_reflns_number_total             1404
_reflns_threshold_expression     'I > 2\s(I)'
_iucr_refine_instructions_details
;
TITL 11 in P21/c #14
    11.res
    created by SHELXL-2018/3 at 21:40:55 on 06-May-2020
REM reset to P21/c #14
CELL 0.71073 12.7831 4.7197 12.1802 90 114.557 90
ZERR 2 0.0004 0.0001 0.0004 0 0.001 0
LATT 1
SYMM -X,0.5+Y,0.5-Z
SFAC C H Cu O
UNIT 32 28 2 8

L.S. 12
PLAN  10
SIZE 0.27 0.25 0.24
TEMP -100.15
BOND
fmap 2 53
acta
OMIT 6 3 0
REM <olex2.extras>
REM <HklSrc "%.\\11.hkl">
REM </olex2.extras>

WGHT    0.033100    0.355700
FVAR       0.67875
CU1   3    0.500000    0.000000    0.000000    10.50000    0.01926    0.02464 =
         0.01480   -0.00301    0.00835   -0.00636
O2    4    0.470720    0.046209    0.142490    11.00000    0.02327    0.02844 =
         0.01802   -0.00451    0.01038   -0.00883
C1    1    0.317137   -0.379882   -0.022133    11.00000    0.01852    0.01853 =
         0.01816    0.00125    0.00788    0.00004
C2    1    0.319230   -0.293321    0.090763    11.00000    0.01838    0.01753 =
         0.01653    0.00199    0.00783    0.00073
O1    4    0.385316   -0.278306   -0.068024    11.00000    0.02582    0.03173 =
         0.01917   -0.00623    0.01356   -0.01086
C6    1    0.235032   -0.586847   -0.088700    11.00000    0.02271    0.01969 =
         0.01904   -0.00178    0.00815   -0.00166
AFIX  43
H6    2    0.232815   -0.649175   -0.163798    11.00000   -1.20000
AFIX   0
C5    1    0.158189   -0.700936   -0.048152    11.00000    0.02033    0.01536 =
         0.02310    0.00278    0.00672   -0.00059
C4    1    0.162452   -0.613136    0.065104    11.00000    0.02460    0.02380 =
         0.02604    0.00299    0.01446   -0.00441
AFIX  43
H4    2    0.110343   -0.691580    0.094193    11.00000   -1.20000
AFIX   0
C3    1    0.241058   -0.416761    0.132115    11.00000    0.02481    0.02205 =
         0.01942    0.00225    0.01206    0.00041
AFIX  43
H3    2    0.243585   -0.361293    0.208154    11.00000   -1.20000
AFIX   0
C7    1    0.396093   -0.083878    0.164358    11.00000    0.02118    0.02008 =
         0.01534    0.00173    0.00851    0.00158
AFIX  43
H7    2    0.390374   -0.037679    0.237581    11.00000   -1.20000
AFIX   0
C8    1    0.070763   -0.915926   -0.121868    11.00000    0.02568    0.02177 =
         0.02797   -0.00003    0.00911   -0.00660
AFIX 137
H8A   2    0.073919   -0.937917   -0.200441    11.00000   -1.50000
H8B   2   -0.006194   -0.852138   -0.133847    11.00000   -1.50000
H8C   2    0.087456   -1.098163   -0.079471    11.00000   -1.50000
AFIX   0
HKLF 4




REM  11 in P21/c #14
REM wR2 = 0.0624, GooF = S = 1.091, Restrained GooF = 1.091 for all data
REM R1 = 0.0211 for 1263 Fo > 4sig(Fo) and 0.0243 for all 1404 data
REM 98 parameters refined using 0 restraints

END  
     
WGHT      0.0331      0.3557 

REM Highest difference peak  0.358,  deepest hole -0.304,  1-sigma level  0.056
Q1    1   0.2805 -0.3581  0.1055  11.00000  0.05    0.36
Q2    1   0.1852 -0.6188 -0.0777  11.00000  0.05    0.35
Q3    1   0.3175 -0.3207  0.0431  11.00000  0.05    0.34
Q4    1   0.3630 -0.3301 -0.0428  11.00000  0.05    0.31
Q5    1   0.1578 -0.6640  0.0049  11.00000  0.05    0.28
Q6    1   0.1186 -0.7994 -0.0853  11.00000  0.05    0.28
Q7    1   0.3553 -0.1990  0.1228  11.00000  0.05    0.26
Q8    1   0.2608 -0.4574 -0.0631  11.00000  0.05    0.26
Q9    1   0.1834 -0.4362  0.0782  11.00000  0.05    0.20
Q10   1   0.4947 -0.0415  0.1061  11.00000  0.05    0.20

  REM The information below was added by Olex2.
  REM
  REM R1 = 0.0211 for 1263 Fo > 4sig(Fo) and 0.0243 for all 12701 data
  REM n/a parameters refined using n/a restraints
  REM Highest difference peak 0.36, deepest hole -0.30
  REM Mean Shift 0, Max Shift 0.000.

  REM +++ Tabular Listing of Refinement Information +++
  REM R1_all = 0.0243
  REM R1_gt = 0.0211
  REM wR_ref = 0.0624
  REM GOOF = 1.091
  REM Shift_max = 0.000
  REM Shift_mean = 0
  REM Reflections_all = 12701
  REM Reflections_gt = 1263
  REM Parameters = n/a
  REM Hole = -0.30
  REM Peak = 0.36
  REM Flack = n/a

  
;
_cod_data_source_file            suppl_ncrs-2020-0315_suppl.cif
_cod_data_source_block           11
_cod_database_code               8105466
_shelx_space_group_comment
;
The symmetry employed for this shelxl refinement is uniquely defined
by the following loop, which should always be used as a source of
symmetry information in preference to the above space-group names.
They are only intended as comments.
;
_shelx_estimated_absorpt_t_max   0.693
_shelx_estimated_absorpt_t_min   0.665
_olex2_refinement_description
;
1. Fixed Uiso
 At 1.2 times of:
  All C(H) groups
 At 1.5 times of:
  All C(H,H,H) groups
2.a Aromatic/amide H refined with riding coordinates:
 C6(H6), C4(H4), C3(H3), C7(H7)
2.b Idealised Me refined as rotating group:
 C8(H8A,H8B,H8C)
;
_olex2_submission_special_instructions 'No special instructions were received'
loop_
_space_group_symop_operation_xyz
'x, y, z'
'-x, y+1/2, -z+1/2'
'-x, -y, -z'
'x, -y-1/2, z-1/2'
loop_
_atom_site_label
_atom_site_type_symbol
_atom_site_fract_x
_atom_site_fract_y
_atom_site_fract_z
_atom_site_U_iso_or_equiv
_atom_site_adp_type
_atom_site_occupancy
_atom_site_site_symmetry_order
_atom_site_calc_flag
_atom_site_refinement_flags_posn
_atom_site_refinement_flags_adp
_atom_site_refinement_flags_occupancy
_atom_site_disorder_assembly
_atom_site_disorder_group
Cu1 Cu 0.500000 0.000000 0.000000 0.01914(11) Uani 1 2 d S T P . .
O2 O 0.47072(10) 0.0462(3) 0.14249(11) 0.0226(3) Uani 1 1 d . . . . .
C1 C 0.31714(13) -0.3799(4) -0.02213(14) 0.0183(3) Uani 1 1 d . . . . .
C2 C 0.31923(13) -0.2933(3) 0.09076(13) 0.0173(3) Uani 1 1 d . . . . .
O1 O 0.38532(10) -0.2783(3) -0.06802(10) 0.0242(3) Uani 1 1 d . . . . .
C6 C 0.23503(14) -0.5868(4) -0.08870(15) 0.0207(3) Uani 1 1 d . . . . .
H6 H 0.232815 -0.649175 -0.163798 0.025 Uiso 1 1 calc R . . . .
C5 C 0.15819(13) -0.7009(3) -0.04815(14) 0.0204(3) Uani 1 1 d . . . . .
C4 C 0.16245(15) -0.6131(4) 0.06510(15) 0.0235(4) Uani 1 1 d . . . . .
H4 H 0.110343 -0.691580 0.094193 0.028 Uiso 1 1 calc R . . . .
C3 C 0.24106(14) -0.4168(4) 0.13212(15) 0.0211(3) Uani 1 1 d . . . . .
H3 H 0.243585 -0.361293 0.208154 0.025 Uiso 1 1 calc R . . . .
C7 C 0.39609(14) -0.0839(4) 0.16436(14) 0.0186(3) Uani 1 1 d . . . . .
H7 H 0.390374 -0.037679 0.237581 0.022 Uiso 1 1 calc R . . . .
C8 C 0.07076(15) -0.9159(4) -0.12187(16) 0.0258(4) Uani 1 1 d . . . . .
H8A H 0.073919 -0.937917 -0.200441 0.039 Uiso 1 1 calc GR . . . .
H8B H -0.006194 -0.852138 -0.133847 0.039 Uiso 1 1 calc GR . . . .
H8C H 0.087456 -1.098163 -0.079471 0.039 Uiso 1 1 calc GR . . . .
loop_
_atom_site_aniso_label
_atom_site_aniso_U_11
_atom_site_aniso_U_22
_atom_site_aniso_U_33
_atom_site_aniso_U_23
_atom_site_aniso_U_13
_atom_site_aniso_U_12
Cu1 0.01926(16) 0.02464(18) 0.01480(15) -0.00301(10) 0.00835(11) -0.00636(11)
O2 0.0233(6) 0.0284(6) 0.0180(5) -0.0045(5) 0.0104(5) -0.0088(5)
C1 0.0185(7) 0.0185(8) 0.0182(7) 0.0012(6) 0.0079(6) 0.0000(6)
C2 0.0184(7) 0.0175(8) 0.0165(7) 0.0020(6) 0.0078(6) 0.0007(6)
O1 0.0258(6) 0.0317(7) 0.0192(5) -0.0062(5) 0.0136(5) -0.0109(5)
C6 0.0227(8) 0.0197(8) 0.0190(7) -0.0018(6) 0.0081(6) -0.0017(7)
C5 0.0203(7) 0.0154(8) 0.0231(8) 0.0028(6) 0.0067(6) -0.0006(6)
C4 0.0246(8) 0.0238(9) 0.0260(8) 0.0030(7) 0.0145(7) -0.0044(7)
C3 0.0248(8) 0.0220(8) 0.0194(8) 0.0022(7) 0.0121(7) 0.0004(7)
C7 0.0212(7) 0.0201(8) 0.0153(7) 0.0017(6) 0.0085(6) 0.0016(7)
C8 0.0257(8) 0.0218(9) 0.0280(9) 0.0000(7) 0.0091(7) -0.0066(7)
loop_
_atom_type_symbol
_atom_type_description
_atom_type_scat_dispersion_real
_atom_type_scat_dispersion_imag
_atom_type_scat_source
C C 0.0033 0.0016 'International Tables Vol C Tables 4.2.6.8 and 6.1.1.4'
H H 0.0000 0.0000 'International Tables Vol C Tables 4.2.6.8 and 6.1.1.4'
Cu Cu 0.3201 1.2651 'International Tables Vol C Tables 4.2.6.8 and 6.1.1.4'
O O 0.0106 0.0060 'International Tables Vol C Tables 4.2.6.8 and 6.1.1.4'
loop_
_geom_angle_atom_site_label_1
_geom_angle_atom_site_label_2
_geom_angle_atom_site_label_3
_geom_angle
_geom_angle_site_symmetry_1
_geom_angle_site_symmetry_3
O2 Cu1 O2 180.0 3_655 .
O1 Cu1 O2 93.89(5) . .
O1 Cu1 O2 86.11(5) . 3_655
O1 Cu1 O2 93.89(5) 3_655 3_655
O1 Cu1 O2 86.11(5) 3_655 .
O1 Cu1 O1 180.0 3_655 .
C7 O2 Cu1 125.74(11) . .
O1 C1 C2 124.04(15) . .
O1 C1 C6 118.40(14) . .
C6 C1 C2 117.56(14) . .
C3 C2 C1 119.47(15) . .
C3 C2 C7 117.84(14) . .
C7 C2 C1 122.68(14) . .
C1 O1 Cu1 127.09(10) . .
C5 C6 C1 122.20(15) . .
C6 C5 C4 119.25(15) . .
C6 C5 C8 120.93(15) . .
C4 C5 C8 119.82(15) . .
C3 C4 C5 120.14(15) . .
C4 C3 C2 121.36(15) . .
O2 C7 C2 126.56(15) . .
loop_
_geom_bond_atom_site_label_1
_geom_bond_atom_site_label_2
_geom_bond_distance
_geom_bond_site_symmetry_2
Cu1 O2 1.9338(12) 3_655
Cu1 O2 1.9338(12) .
Cu1 O1 1.8845(11) .
Cu1 O1 1.8845(11) 3_655
O2 C7 1.253(2) .
C1 C2 1.424(2) .
C1 O1 1.3064(19) .
C1 C6 1.416(2) .
C2 C3 1.418(2) .
C2 C7 1.419(2) .
C6 C5 1.379(2) .
C5 C4 1.420(2) .
C5 C8 1.500(2) .
C4 C3 1.361(3) .
loop_
_refln_index_h
_refln_index_k
_refln_index_l
_refln_F_squared_meas
_refln_F_squared_sigma
0 -1 0 0 0.1
0 -1 0 0.7 1
0 -1 0 1 0.3
0 1 0 0.3 0.2
0 1 0 0.1 0.1
0 -2 0 1089.39 42.2
0 -2 0 1063.99 16.4
0 -2 0 1037.8 40.6
0 2 0 1049.49 16.4
0 -3 0 -0.4 2.2
0 -3 0 4.1 4
0 -3 0 2.5 0.8
0 -3 0 0.2 0.4
0 3 0 0.1 0.4
0 3 0 0.5 0.6
0 -4 0 70.59 4
0 -4 0 62.09 3.2
0 -4 0 61.49 17.2
0 -4 0 56.79 15.6
0 4 0 66.09 4
0 4 0 66.59 3.5
0 -5 0 1.2 0.9
0 -5 0 4.4 7.6
0 -5 0 2.5 13.8
0 -5 0 0.9 0.7
0 5 0 1.6 0.9
0 5 0 1 0.8
0 5 -1 71.49 4.2
0 5 -1 66.59 4.5
0 -5 1 58.09 17
0 -5 1 87.89 23.9
0 -5 1 73.89 4.2
0 -5 1 73.99 4.6
0 4 -1 -0.2 0.5
0 4 -1 -0.8 0.4
0 -4 1 0.2 0.7
0 -4 1 3.9 5.2
0 -4 1 0.2 0.5
0 -4 1 -5 4.4
0 3 -1 1992.1 31.5
0 3 -1 1972.1 30.3
0 -3 1 1935.81 70.09
0 -3 1 1981.5 30.4
0 -3 1 1997.8 31
0 -3 1 1998.3 72.19
0 2 -1 2 0.6
0 2 -1 2.3 0.8
0 -2 1 1.5 2.6
0 -2 1 1.5 1.5
0 -2 1 1.9 0.5
0 -2 1 1.9 0.6
0 1 -1 262.17 5.1
0 1 -1 272.27 14.8
0 1 -1 274.47 5.4
0 -1 1 276.77 5.3
0 -1 1 265.07 5.2
0 -1 1 282.57 14.9
0 -1 -1 260.97 13.8
0 -1 -1 255.77 4.1
0 -1 -1 259.27 5.1
0 1 1 256.97 4.1
0 1 1 252.07 5
0 -2 -1 1.8 0.6
0 -2 -1 2.7 0.5
0 -2 -1 1.1 1.3
0 2 1 2.3 0.7
0 2 1 1.8 0.4
0 -3 -1 1991.4 69.79
0 -3 -1 1995.4 72.59
0 -3 -1 1994 30.9
0 -3 -1 1934.51 28.9
0 3 1 1919.71 31
0 3 1 1986.7 29
0 -4 -1 6.6 5.4
0 -4 -1 0.4 0.7
0 -4 -1 -2.5 5.7
0 -4 -1 1.1 0.5
0 4 1 1.3 0.7
0 -5 -1 71.89 20.1
0 -5 -1 73.09 4.6
0 -5 -1 51.59 18.7
0 -5 -1 67.19 3.6
0 5 1 69.39 3.7
0 5 1 68.29 4.5
0 5 -2 4.1 1.5
0 5 -2 7.6 1.8
0 -5 2 -0.2 9.6
0 -5 2 4.4 1.5
0 -5 2 -2 9.8
0 -5 2 5.6 1.5
0 4 -2 148.89 5.8
0 4 -2 157.38 6.5
0 -4 2 155.38 22.2
0 -4 2 154.08 6.1
0 -4 2 155.28 7.2
0 -4 2 205.18 25.7
0 3 -2 113.79 4.5
0 3 -2 115.69 4.8
0 -3 2 108.09 22.6
0 -3 2 114.89 4.5
0 -3 2 115.99 4.6
0 -3 2 95.19 15.3
0 2 -2 74.59 3
0 2 -2 63.09 9.9
0 2 -2 72.29 3.1
0 -2 2 71.59 3.1
0 -2 2 71.99 10.8
0 1 -2 250.27 5.4
0 1 -2 265.17 15
0 1 -2 252.87 5.3
0 -1 2 238.68 5.4
0 -1 2 250.17 14.9
0 -1 -2 242.68 5.3
0 -1 -2 247.08 13.8
0 1 2 243.78 5.3
0 1 2 234.88 13.8
0 -2 -2 85.09 10.9
0 -2 -2 69.99 3
0 -2 -2 67.79 1.9
0 2 2 67.19 3
0 2 2 61.49 9.6
0 2 2 70.19 2
0 -3 -2 110.19 15.7
0 -3 -2 104.99 4.4
0 -3 -2 108.69 3.3
0 3 2 104.69 4.5
0 3 2 115.49 4.1
0 -4 -2 154.48 6.2
0 -4 -2 166.18 22.2
0 -4 -2 150.38 22.2
0 -4 -2 154.78 4.8
0 4 2 163.98 6.4
0 4 2 166.08 4.9
0 -5 -2 6.5 11.5
0 -5 -2 4.7 1.6
0 -5 -2 0 8
0 5 2 4.8 1.1
0 5 2 4.3 1.7
0 5 -3 149.59 6.7
0 5 -3 152.78 7.3
0 -5 3 148.09 6.6
0 -5 3 141.79 6.6
0 -5 3 90.29 21.9
0 -5 3 124.09 26.9
0 4 -3 -0.5 0.5
0 4 -3 0.6 0.7
0 -4 3 -1.6 2.7
0 -4 3 0.1 0.5
0 -4 3 1.3 4.7
0 -4 3 0.6 0.5
0 3 -3 552.24 12.4
0 3 -3 562.94 12.2
0 -3 3 546.85 12.1
0 -3 3 556.94 36.8
0 -3 3 537.75 11.9
0 2 -3 1.3 2.1
0 2 -3 5.6 1.1
0 2 -3 4.6 1
0 -2 3 2.6 0.8
0 -2 3 3.6 3.2
0 1 -3 5 2.7
0 1 -3 7.5 0.9
0 1 -3 7 1.1
0 -1 3 6.7 0.8
0 -1 3 8.7 3.6
0 0 -3 2.3 1.5
0 0 -3 0.1 0.2
0 0 3 0.3 0.2
0 0 3 0.7 1
0 -1 -3 6.7 0.9
0 -1 -3 3.8 2.1
0 1 3 5.9 0.9
0 1 3 11.4 3.9
0 -2 -3 4.1 1
0 -2 -3 6 2.6
0 2 3 4.1 3.2
0 2 3 4.2 0.4
0 2 3 3.3 0.9
0 -3 -3 497.55 33
0 -3 -3 538.35 12.1
0 3 3 514.85 8.7
0 3 3 507.45 11.5
0 -4 -3 -1.8 4.8
0 -4 -3 -2 5.3
0 -4 -3 -0.5 0.5
0 4 3 -0.4 0.3
0 -5 -3 190.28 28.6
0 -5 -3 154.58 30
0 -5 -3 147.59 6.9
0 5 3 148.79 6.8
0 5 3 144.29 4.8
0 5 -4 2.8 1.3
0 -5 4 3.6 1.3
0 -5 4 0.8 9.9
0 -5 4 6.7 8.8
0 4 -4 190.88 7.2
0 4 -4 195.88 7.6
0 -4 4 181.08 24.8
0 -4 4 194.08 7.2
0 -4 4 212.18 26.2
0 3 -4 18.1 2
0 3 -4 21.6 2.1
0 -3 4 21.8 2.1
0 -3 4 20 11.8
0 2 -4 143.99 5.1
0 2 -4 161.98 16.7
0 2 -4 154.28 5.1
0 -2 4 135.89 4.8
0 -2 4 149.39 16
0 1 -4 110.49 3.6
0 1 -4 106.99 3.8
0 1 -4 108.59 10.9
0 -1 4 103.49 10.4
0 -1 4 109.99 3.7
0 0 -4 179.78 4.9
0 0 -4 176.28 4
0 0 -4 163.08 11.4
0 0 4 174.68 11.7
0 0 4 178.68 4.1
0 -1 -4 110.39 10.6
0 -1 -4 105.39 2
0 -1 -4 106.09 3.8
0 1 4 106.29 3.8
0 1 4 104.39 1.9
0 1 4 98.99 9.9
0 -2 -4 144.99 5.1
0 -2 -4 138.39 14.6
0 2 4 138.59 4.9
0 2 4 158.28 16.3
0 -3 -4 19.3 8.1
0 -3 -4 20 2.1
0 3 4 19.4 2
0 3 4 21.6 0.8
0 3 4 18.2 0.8
0 3 4 28.2 11.4
0 -4 -4 185.58 23.3
0 -4 -4 199.18 7.5
0 4 4 193.28 4.3
0 4 4 178.68 10.1
0 4 4 202.58 6.2
0 -5 -4 3.6 1.5
0 -5 -4 -8.9 7.2
0 5 4 2.5 0.7
0 5 4 3.8 1.5
0 5 4 3.3 0.9
0 5 -5 122.79 6.4
0 5 -5 112.29 6.6
0 -5 5 114.59 6.2
0 -5 5 90.19 21.9
0 -5 5 106.59 25.6
0 4 -5 20.2 2.4
0 4 -5 19.2 2.4
0 -4 5 15.3 7.8
0 -4 5 15.8 9.1
0 -4 5 18.7 2.8
0 3 -5 245.58 7.9
0 3 -5 251.37 26.6
0 3 -5 248.88 8.1
0 -3 5 244.98 7.8
0 -3 5 223.48 24.4
0 2 -5 50.29 3.1
0 2 -5 48.4 2.9
0 2 -5 55.89 12.9
0 -2 5 58.59 3.2
0 -2 5 49.4 10.8
0 1 -5 1104.09 19.1
0 1 -5 1152.88 40.6
0 1 -5 1138.99 18.6
0 -1 5 1157.58 39.5
0 -1 5 1080.69 18.4
0 0 -5 1.1 1.7
0 0 -5 2.9 0.6
0 0 -5 2.1 0.7
0 0 5 3.2 0.8
0 0 5 1.9 0.5
0 0 5 2.8 2.5
0 -1 -5 1077.29 18.7
0 -1 -5 1083.19 15.2
0 -1 -5 1122.29 38.5
0 1 5 1058.99 18.5
0 1 5 1103.59 38.1
0 1 5 1069.69 15.2
0 -2 -5 52.89 3.2
0 -2 -5 69.49 14.3
0 2 5 52.69 3.1
0 2 5 64.49 10.7
0 -3 -5 224.28 7.5
0 -3 -5 204.28 25.5
0 3 5 211.98 23.7
0 3 5 215.08 7.2
0 -4 -5 6.6 5.5
0 -4 -5 14.4 2.4
0 4 5 16.6 2.6
0 -5 -5 99.19 23.5
0 -5 -5 140.09 33.3
0 -5 -5 105.49 6
0 5 -6 2.7 1.4
0 5 -6 1.5 1.6
0 -5 6 3.8 1.6
0 -5 6 4 10.5
0 4 -6 84.29 5.1
0 4 -6 83.39 5.1
0 -4 6 72.89 17.9
0 -4 6 82.59 5
0 -4 6 66.79 16
0 3 -6 43.6 11.5
0 3 -6 58.99 3.9
0 3 -6 55.99 3.8
0 -3 6 79.09 17.8
0 -3 6 55.89 3.7
0 2 -6 1350.56 23.8
0 2 -6 1373.86 24.1
0 2 -6 1314.97 53.29
0 2 -6 1350.96 23.5
0 -2 6 1435.36 54.89
0 -2 6 1354.16 23.5
0 1 -6 116.59 4.7
0 1 -6 119.49 4.3
0 1 -6 122.59 13.3
0 -1 6 116.79 12.5
0 -1 6 119.89 4.3
0 0 -6 213.08 15.7
0 0 -6 217.08 6.5
0 0 -6 217.38 5.3
0 0 6 214.28 5.3
0 0 6 234.58 16.6
0 0 6 227.88 6.6
0 -1 -6 114.39 2.8
0 -1 -6 129.19 12.8
0 -1 -6 117.89 4.7
0 1 6 137.89 13.5
0 1 6 122.49 4.8
0 1 6 116.19 2.8
0 -2 -6 1335.97 50.99
0 -2 -6 1308.27 23.3
0 2 6 1232.58 50.39
0 2 6 1318.07 23
0 -3 -6 34.5 11.7
0 -3 -6 55.29 3.8
0 3 6 53.29 3.6
0 3 6 56.69 13.8
0 -4 -6 76.59 5.9
0 4 6 77.69 4.6
0 4 6 51.69 14.9
0 -5 -6 2.8 1.3
0 -5 -6 -12.2 8
0 -5 -6 -10.2 8.9
0 5 6 1.9 1.5
0 5 -7 96.69 6.6
0 5 -7 106.49 6.3
0 5 -7 103.99 6.3
0 -5 7 58.69 19.4
0 4 -7 24.2 2.8
0 4 -7 24.8 3.7
0 -4 7 20.5 11
0 -4 7 22.5 3.4
0 3 -7 137.39 20.6
0 3 -7 152.18 7.6
0 3 -7 144.69 6.6
0 3 -7 140.89 6.2
0 -3 7 138.49 19.1
0 2 -7 103.49 5.1
0 2 -7 113.89 5.2
0 2 -7 107.29 15.5
0 2 -7 104.29 4.8
0 -2 7 106.09 4.9
0 -2 7 101.89 15.1
0 1 -7 1625.54 55.19
0 1 -7 1570.74 25.7
0 1 -7 1563.74 27
0 -1 7 1567.14 25.8
0 -1 7 1675.43 54.19
0 0 -7 8.1 1.4
0 0 -7 1.9 3
0 0 -7 9.6 1.1
0 0 7 5.4 1.2
0 0 7 6.9 4
0 0 7 8.3 1
0 -1 -7 1558.84 26.4
0 -1 -7 1490.35 50.69
0 -1 -7 1533.05 22
0 1 7 1574.54 52.49
0 1 7 1487.85 21.9
0 1 7 1551.44 26.1
0 -2 -7 100.29 5
0 -2 -7 109.39 15
0 2 7 106.19 5
0 2 7 81.89 13.1
0 -3 -7 141.69 6.5
0 -3 -7 159.98 20.4
0 3 7 129.59 6
0 3 7 173.38 21.8
0 -4 -7 2.8 10.4
0 -4 -7 22.7 2.8
0 4 7 6.2 7
0 4 7 17.9 2.8
0 -5 -7 88.09 24.4
0 -5 -7 94.99 6.2
0 5 7 99.79 6.2
0 4 -8 74.69 5.1
0 4 -8 64.89 4.8
0 4 -8 62.79 5
0 -4 8 66.99 4.8
0 -4 8 61.29 17.8
0 3 -8 13 2.5
0 3 -8 9.3 2
0 3 -8 9 1.7
0 3 -8 15 9.1
0 -3 8 1.8 5.6
0 2 -8 936.11 18.7
0 2 -8 911.91 19.4
0 2 -8 935.61 47.7
0 2 -8 960.9 19.7
0 -2 8 944.91 18.8
0 -2 8 898.51 45.3
0 1 -8 3.7 3.9
0 1 -8 10.9 2
0 1 -8 7.8 1.4
0 -1 8 10.1 1.6
0 -1 8 13.7 5.9
0 0 -8 306.67 9.1
0 0 -8 280.27 21.4
0 0 -8 294.77 7.2
0 0 8 295.37 7.3
0 0 8 276.37 21.1
0 0 8 305.87 8.9
0 -1 -8 3.4 4.4
0 -1 -8 8.4 1.8
0 -1 -8 7.1 0.9
0 1 8 9.9 1.9
0 1 8 5.2 0.8
0 1 8 4.6 4.1
0 -2 -8 875.21 44.3
0 -2 -8 894.91 19.1
0 2 8 894.31 18.7
0 2 8 932.51 46.2
0 -3 -8 4.9 6.5
0 -3 -8 11.2 2.1
0 3 8 11.6 2.2
0 3 8 8.5 7.1
0 -4 -8 70.09 5
0 -4 -8 55.09 15.7
0 4 8 52.89 14.3
0 4 -9 1.2 1.1
0 4 -9 -0.6 1.2
0 4 -9 1.1 1.1
0 3 -9 70.69 4.7
0 3 -9 73.09 20.2
0 3 -9 52.09 4.6
0 3 -9 71.59 4.9
0 -3 9 54.49 15.6
0 -3 9 70.59 4.6
0 2 -9 8.2 1.7
0 2 -9 1.8 1.2
0 2 -9 3.4 5.1
0 2 -9 4.8 1.5
0 -2 9 5.7 1.4
0 -2 9 4.2 5.1
0 1 -9 282.77 8.1
0 1 -9 277.57 9.7
0 1 -9 258.77 23.2
0 -1 9 274.57 23.2
0 -1 9 282.67 8.3
0 0 -9 3.9 3.7
0 0 -9 0.6 0.6
0 0 -9 -0.2 0.4
0 0 9 0.2 0.5
0 0 9 -0.5 0.3
0 0 9 -3.1 2.6
0 -1 -9 262.17 22.5
0 -1 -9 279.47 9.3
0 -1 -9 272.97 6.1
0 1 9 279.17 6.1
0 1 9 268.17 22.9
0 1 9 282.37 9.2
0 -2 -9 6.4 1.8
0 -2 -9 10.5 6.2
0 2 9 5.1 1.4
0 2 9 5.6 5.2
0 -3 -9 65.99 4.8
0 -3 -9 72.59 22.1
0 3 9 76.49 17.9
0 -4 -9 2.4 1.5
0 4 9 -0.8 1.3
0 4 -10 69.69 6.1
0 4 -10 70.39 5.2
0 3 -10 2.1 1.6
0 3 -10 -2.3 8.7
0 3 -10 2.6 1.2
0 -3 10 3.5 1.4
0 2 -10 139.99 6.3
0 2 -10 149.19 7.1
0 -2 10 136.69 18.6
0 1 -10 3.7 1.1
0 1 -10 2.1 1
0 -1 10 7.4 1.5
0 -1 10 5.2 6.8
0 0 -10 60.09 3.2
0 0 -10 63.29 4.4
0 0 10 60.09 3.2
0 0 10 54.79 12.7
0 -1 -10 5.5 1.6
0 -1 -10 5 0.8
0 1 10 9.5 5.8
0 1 10 3.2 1.1
0 1 10 4.5 0.8
0 -2 -10 137.49 7
0 2 10 146.09 19.5
0 -3 -10 4.6 1.7
0 -3 -10 6.6 8.7
0 3 10 5 2.1
0 -4 -10 64.09 5.4
0 4 10 66.59 5.4
0 3 -11 65.49 5.2
0 3 -11 67.59 4.8
0 3 -11 61.09 5.1
0 -3 11 68.69 4.9
0 2 -11 1.5 5.9
0 2 -11 -0.5 0.9
0 2 -11 0.6 0.8
0 2 -11 0.5 1.6
0 -2 11 1.4 1.1
0 -2 11 -6.7 6.1
0 1 -11 99.79 5.9
0 1 -11 104.99 5.1
0 -1 11 91.19 15
0 -1 11 111.99 5.2
0 0 -11 2.1 0.9
0 0 -11 0.9 0.8
0 0 11 -6.6 3.6
0 0 11 -0.2 0.5
0 -1 -11 109.19 6.3
0 -1 -11 103.49 3.7
0 1 11 110.69 3.8
0 1 11 112.39 6.2
0 1 11 111.09 16.8
0 -2 -11 -0.7 0.9
0 -2 -11 -1.1 6.1
0 2 11 -6.2 7.1
0 -3 -11 66.19 5.3
0 3 11 67.59 5.1
0 3 -12 -0.7 1
0 3 -12 1.8 1.3
0 2 -12 79.19 5.8
0 2 -12 93.89 6.2
0 2 -12 88.39 5.3
0 -2 12 79.49 5.4
0 1 -12 14.9 2.4
0 1 -12 13.7 2.5
0 -1 12 19.5 2.4
0 0 -12 205.28 22.6
0 0 -12 214.98 9.4
0 0 -12 225.48 7.1
0 0 12 227.38 7.2
0 -1 -12 16.9 3.1
0 -1 -12 17.8 1.6
0 1 12 13.6 2.5
0 -2 -12 83.49 6
0 2 12 90.69 6.1
0 -3 -12 3.6 2.1
0 2 -13 4.9 2
0 2 -13 7 1.9
0 -2 13 8 2.2
0 1 -13 136.39 6.2
0 1 -13 110.29 9.2
0 -1 13 123.99 6.1
0 0 -13 -1.1 1.3
0 0 13 -0.4 0.8
0 -1 -13 125.19 4.5
0 -1 -13 132.59 8.1
0 -2 -13 6.1 2
0 0 -14 221.58 7.5
0 0 -14 216.08 10.4
0 0 14 210.08 7.4
1 -1 -14 20.6 3.9
1 -1 -14 21.5 2
-1 0 14 211.58 7.3
1 0 -14 220.18 7.5
1 0 -14 216.48 10.2
-1 -1 14 30.4 3.5
1 1 -14 19 3.3
1 1 -14 21.9 3
1 -2 -13 35.6 5.8
-1 1 13 87.69 3.7
-1 1 13 91.09 6.1
1 -1 -13 91.39 6.3
1 -1 -13 83.79 3.6
-1 0 13 0.7 0.9
1 0 -13 0.1 1.4
1 0 -13 0.2 0.8
-1 -1 13 91.59 5.3
1 1 -13 91.49 5.1
1 1 -13 98.19 6.4
-1 -2 13 47.5 4.1
1 2 -13 55.69 4.9
1 2 -13 56.59 4.4
1 -3 -12 42.9 4.8
-1 2 12 272.77 10.5
1 -2 -12 266.77 10.9
-1 1 12 23.7 9.8
-1 1 12 44.8 2.5
-1 1 12 36.2 4
1 -1 -12 40.3 2.4
1 -1 -12 38.9 12.1
1 -1 -12 43.9 4.2
-1 0 12 552.04 38.2
1 0 -12 518.75 37.9
1 0 -12 564.34 15.9
1 0 -12 566.14 12.5
-1 -1 12 40.6 12.4
-1 -1 12 44.2 3.4
1 1 -12 42 4.1
1 1 -12 36.9 12.8
1 1 -12 45.4 3.4
-1 -2 12 279.97 10.1
1 2 -12 275.77 9.7
1 2 -12 266.67 10.7
1 2 -12 287.87 11
1 3 -12 53.39 4.5
1 3 -12 59.59 7.6
-1 3 11 137.59 7.4
1 -3 -11 137.19 7.7
-1 2 11 5.1 5.5
-1 2 11 5.7 1.7
1 -2 -11 3.5 1.6
1 -2 -11 -0.1 6.3
-1 1 11 156.78 4.7
-1 1 11 166.28 24.1
1 -1 -11 171.68 7.8
1 -1 -11 164.98 4.9
-1 0 11 5.4 6.8
-1 -1 11 161.48 6.4
-1 -1 11 102.59 23.7
1 1 -11 173.38 7.7
-1 -2 11 2.8 6.3
-1 -2 11 6.1 1.9
1 2 -11 -4.7 6
1 2 -11 4.5 1.3
1 2 -11 6.2 1.8
1 2 -11 6.5 1.8
-1 -3 11 151.38 7.4
1 3 -11 148.59 7.6
1 3 -11 149.09 7.8
1 3 -11 139.19 6.9
-1 4 10 23.1 3.8
1 -4 -10 24.8 3.8
-1 3 10 186.68 25.1
-1 3 10 179.78 8
1 -3 -10 174.18 8.2
1 -3 -10 144.89 23.1
-1 2 10 84.29 17.6
1 -2 -10 73.89 5.1
-1 1 10 0.2 0.4
-1 1 10 5.4 4.7
-1 1 10 0.7 0.8
1 -1 -10 -0.4 0.4
1 -1 -10 2.5 3.7
1 -1 -10 0.5 0.7
-1 0 10 143.89 5.1
-1 0 10 146.99 17.6
1 0 -10 151.98 5.2
1 0 -10 169.48 7.2
1 0 -10 140.09 18
-1 -1 10 -0.4 0.5
-1 -1 10 7 5.1
1 1 -10 -1 3.6
1 1 -10 -0.1 0.6
1 1 -10 0 0.5
-1 -2 10 79.79 4.7
-1 -2 10 92.49 15.8
1 2 -10 84.59 4.7
1 2 -10 80.19 5
-1 -3 10 190.88 9.6
-1 -3 10 164.18 24.3
1 3 -10 190.28 8.3
1 3 -10 164.38 8
1 3 -10 180.78 7.8
1 3 -10 187.48 25.9
1 4 -10 27.9 3.3
1 4 -10 26.4 3.8
1 4 -10 24.9 3.6
-1 4 9 13.5 2.8
1 -4 -9 15.9 2.9
1 -4 -9 43 15.6
-1 3 9 329.17 37.6
1 -3 -9 329.07 11.2
-1 2 9 86.59 17.6
-1 2 9 75.09 4.6
1 -2 -9 67.89 4.9
1 -2 -9 79.39 16.9
-1 1 9 117.99 3.6
-1 1 9 128.09 16.2
-1 1 9 116.79 5.6
1 -1 -9 118.79 3.6
1 -1 -9 127.79 6
1 -1 -9 111.49 15.2
-1 0 9 0 0.5
-1 0 9 0.4 0.4
-1 0 9 2.4 3.6
1 0 -9 0 3.7
1 0 -9 -0.1 0.5
1 0 -9 1.1 0.6
-1 -1 9 108.39 14.9
-1 -1 9 121.99 5
1 1 -9 121.39 5.7
1 1 -9 140.49 16.8
1 1 -9 129.09 5.1
-1 -2 9 79.39 4.4
-1 -2 9 86.59 14.6
1 2 -9 72.99 4.7
1 2 -9 72.49 4.5
1 2 -9 80.39 4.7
1 2 -9 63.89 14.1
-1 -3 9 324.47 10.7
-1 -3 9 331.47 46.2
1 3 -9 326.77 10.7
1 3 -9 323.77 10.5
-1 -4 9 13.7 2.5
1 4 -9 23.2 3.6
1 4 -9 18.4 3.3
1 4 -9 16.8 12.2
1 4 -9 20.5 3.1
1 -5 -8 3.4 1.5
-1 4 8 104.89 6.6
-1 4 8 76.69 19.1
1 -4 -8 160.08 26.3
1 -4 -8 120.09 6.6
-1 3 8 47.8 3.9
-1 3 8 37.5 12.5
1 -3 -8 49.8 4.1
1 -3 -8 66.29 17
-1 2 8 209.18 7.6
-1 2 8 173.08 19.6
1 -2 -8 198.08 7.6
1 -2 -8 180.68 20.2
-1 1 8 -2.3 2.1
-1 1 8 0.3 0.4
-1 1 8 0 0.3
1 -1 -8 -0.3 0.4
1 -1 -8 -3.7 2.6
1 -1 -8 0.8 0.4
-1 0 8 513.75 30
-1 0 8 500.75 10.2
-1 0 8 496.65 12
1 0 -8 489.85 10
1 0 -8 496.55 29.6
1 0 -8 488.45 12
-1 -1 8 1.4 2.9
-1 -1 8 0.5 0.4
1 1 -8 1.1 0.6
1 1 -8 3.9 3.9
1 1 -8 0.5 0.6
-1 -2 8 198.68 7.1
-1 -2 8 226.28 22.9
1 2 -8 209.18 7.5
1 2 -8 209.08 22.7
1 2 -8 207.38 7.4
1 2 -8 223.78 7.4
-1 -3 8 43.6 13
1 3 -8 45.5 14.4
1 3 -8 49.2 3.8
1 3 -8 47.9 3.6
1 3 -8 48.6 3.7
-1 -4 8 131.69 6.8
-1 -4 8 123.99 25
1 4 -8 133.29 6.8
1 4 -8 138.89 6.7
1 4 -8 152.38 30.1
1 5 -8 3.3 1.6
1 5 -8 -2.4 1.1
-1 5 7 83.99 7.2
1 -5 -7 81.09 5.8
1 -5 -7 112.49 36.5
-1 4 7 21.6 11.1
-1 4 7 34.4 3.4
1 -4 -7 38.2 3.6
1 -4 -7 47.2 23.7
-1 3 7 612.14 14.8
-1 3 7 612.84 42.4
1 -3 -7 587.14 39.8
1 -3 -7 611.84 15.1
-1 2 7 3.7 3.5
1 -2 -7 5.3 4.1
1 -2 -7 2.2 1.1
-1 1 7 475.55 28.3
-1 1 7 481.55 11.4
-1 1 7 469.95 8.5
1 -1 -7 480.95 11.6
1 -1 -7 500.45 28.7
1 -1 -7 483.25 8.3
-1 0 7 0.3 0.3
-1 0 7 0.1 0.3
-1 0 7 1.2 2
1 0 -7 0.1 0.3
1 0 -7 -2.4 2.6
1 0 -7 -0.3 0.3
-1 -1 7 487.15 10.7
-1 -1 7 494.65 29
1 1 -7 489.75 10.6
1 1 -7 496.75 11.5
1 1 -7 507.85 30
-1 -2 7 1.4 0.8
-1 -2 7 -3.1 3.3
1 2 -7 -0.5 5
1 2 -7 0.1 0.5
1 2 -7 1.7 0.8
1 2 -7 1.3 0.8
-1 -3 7 653.33 43.7
1 3 -7 633.64 14.8
1 3 -7 648.34 44.7
1 3 -7 613.54 14.8
1 3 -7 621.94 14.5
-1 -4 7 42.5 3.6
-1 -4 7 15.7 10.7
1 4 -7 37.3 3.5
1 4 -7 37.4 3.4
1 4 -7 39.7 3.4
-1 -5 7 107.49 26.5
1 5 -7 97.49 5.8
1 5 -7 97.39 7.3
1 5 -7 92.29 6.9
-1 5 6 -0.6 1.2
1 -5 -6 -1.8 11.1
1 -5 -6 3.1 1.5
-1 4 6 54.39 15.7
-1 4 6 78.19 4.8
1 -4 -6 85.69 5.3
1 -4 -6 67.59 16.4
-1 3 6 680.13 15.4
-1 3 6 740.63 45.4
1 -3 -6 723.23 16.2
1 -3 -6 671.93 41.7
-1 2 6 859.71 41.8
-1 2 6 853.61 17
1 -2 -6 857.41 17.3
1 -2 -6 879.81 41.5
-1 1 6 4.4 3.5
-1 1 6 4.8 0.5
-1 1 6 4.3 1
1 -1 -6 5.9 3.7
1 -1 -6 5.5 1.2
1 -1 -6 4.1 0.6
-1 0 6 2982.7 43.8
-1 0 6 2948.41 41.8
-1 0 6 3052.19 72.29
1 0 -6 3013.3 72.39
1 0 -6 2974.1 41.7
1 0 -6 2982.6 43.9
-1 -1 6 4.2 3.5
-1 -1 6 7 1.3
1 1 -6 4.1 3.1
1 1 -6 5.2 1.2
1 1 -6 5.6 1
-1 -2 6 916.71 44
-1 -2 6 908.01 17.3
1 2 -6 895.21 17.1
1 2 -6 885.41 17.1
1 2 -6 952.6 45.5
1 2 -6 914.01 17.5
-1 -3 6 762.72 46
-1 -3 6 725.13 15.9
1 3 -6 742.83 15.8
1 3 -6 732.43 16
1 3 -6 714.73 46
1 3 -6 775.62 16.3
-1 -4 6 90.29 5.1
1 4 -6 80.69 4.9
1 4 -6 91.19 5.2
-1 -5 6 -8.5 9.7
-1 -5 6 3.4 1.8
-1 -5 6 20.9 14
1 5 -6 1.8 1.4
1 5 -6 -0.4 1.2
-1 5 5 92.49 2.8
-1 5 5 95.69 6.2
-1 5 5 90.59 2.9
1 -5 -5 60.69 19.6
1 -5 -5 85.09 5.6
-1 4 5 9.7 0.8
-1 4 5 10.5 0.8
-1 4 5 22.8 9.3
-1 4 5 8.5 1.8
1 -4 -5 10 2
1 -4 -5 5 5.3
-1 3 5 402.66 32.8
-1 3 5 408.56 10.8
1 -3 -5 371.36 30
1 -3 -5 419.86 11.1
-1 2 5 28 2.3
-1 2 5 24.8 8.1
1 -2 -5 27.7 2.3
1 -2 -5 24.6 7.2
-1 1 5 585.54 11.8
-1 1 5 570.34 8.9
-1 1 5 594.84 28.2
1 -1 -5 602.34 12.1
1 -1 -5 605.14 28.3
1 -1 -5 588.94 8.9
-1 0 5 0 1.6
-1 0 5 0.1 0.2
-1 0 5 0.6 0.4
1 0 -5 0.5 0.3
1 0 -5 0.3 0.3
-1 -1 5 619.64 29.2
-1 -1 5 607.64 11.6
1 1 -5 606.04 11.7
1 1 -5 625.24 11.6
1 1 -5 610.94 29.5
-1 -2 5 29.7 2.2
-1 -2 5 37.9 10.3
1 2 -5 34 2.3
1 2 -5 29.2 2.2
1 2 -5 16.8 5.5
-1 -3 5 415.46 33.4
1 3 -5 423.26 34.2
1 3 -5 419.96 10.8
1 3 -5 412.66 10.6
-1 -4 5 10.5 1.9
-1 -4 5 8.5 7.7
1 4 -5 10.3 2
1 4 -5 12.2 2.3
-1 -5 5 75.59 21.8
-1 -5 5 89.99 5.5
1 5 -5 90.49 5.5
-1 5 4 8 1.3
-1 5 4 8.6 1.2
1 -5 -4 4.2 9.3
1 -5 -4 1.5 10.5
1 -5 -4 8.5 1.8
-1 4 4 85.39 2.9
-1 4 4 86.99 2.9
-1 4 4 85.59 4.9
1 -4 -4 85.99 4.9
1 -4 -4 99.69 22.3
-1 3 4 135.99 3.2
-1 3 4 129.49 18
-1 3 4 132.09 3.1
-1 3 4 130.99 5.4
1 -3 -4 154.48 18.8
1 -3 -4 132.09 5.6
-1 2 4 462.35 6.9
-1 2 4 470.95 10.5
-1 2 4 487.45 28.9
-1 2 4 472.75 7
1 -2 -4 476.65 10.7
1 -2 -4 472.35 27.9
-1 1 4 182.18 14.2
-1 1 4 186.98 3.3
-1 1 4 188.18 5.3
1 -1 -4 189.68 5.4
1 -1 -4 187.58 3.3
1 -1 -4 185.28 14.4
-1 0 4 2432.36 33.8
-1 0 4 2529.95 55.99
-1 0 4 2433.86 35
1 0 -4 2494.25 55.79
1 0 -4 2396.16 33.7
-1 -1 4 180.38 14.3
-1 -1 4 194.88 5.1
1 1 -4 197.18 5.1
1 1 -4 203.58 5.2
1 1 -4 190.38 15.1
-1 -2 4 493.35 30
-1 -2 4 487.35 10.5
1 2 -4 503.65 10.6
1 2 -4 510.65 30.3
1 2 -4 498.95 10.4
-1 -3 4 133.39 5.3
-1 -3 4 150.08 19.6
1 3 -4 135.19 5.3
1 3 -4 109.79 16.8
1 3 -4 148.09 5.5
-1 -4 4 93.29 22.7
-1 -4 4 90.19 21.9
-1 -4 4 82.59 4.5
1 4 -4 88.69 4.9
1 4 -4 83.59 4.7
-1 -5 4 5.8 9.5
-1 -5 4 7 1.6
1 5 -4 8.1 1.8
1 5 -4 6.6 1.7
-1 5 3 99.59 5.8
-1 5 3 104.39 4.1
1 -5 -3 122.29 27
1 -5 -3 96.99 5.7
1 -5 -3 109.49 34
-1 4 3 32.5 2
-1 4 3 36.2 6.3
1 -4 -3 23.5 9.8
1 -4 -3 32.7 3
-1 3 3 262.77 25.1
-1 3 3 279.07 5.9
-1 3 3 284.77 8.2
1 -3 -3 294.37 25.1
1 -3 -3 285.47 8.3
-1 2 3 21.3 1.8
-1 2 3 20.2 1
-1 2 3 33.7 9.8
-1 2 3 19.6 1
1 -2 -3 23.2 1.9
1 -2 -3 18.5 6.1
-1 1 3 297.47 17.1
-1 1 3 313.27 6.8
-1 1 3 306.17 4.8
1 -1 -3 317.47 6.9
1 -1 -3 314.07 4.8
1 -1 -3 277.27 20.9
-1 0 3 -0.1 0.2
-1 0 3 0.2 1.1
-1 0 3 0.3 0.2
1 0 -3 0.6 1.2
1 0 -3 0.2 0.2
1 0 -3 0.1 0.2
-1 -1 3 323.67 6.7
-1 -1 3 332.27 18.5
1 1 -3 331.77 6.6
1 1 -3 305.17 23.3
1 1 -3 342.17 8
-1 -2 3 18.1 7.1
-1 -2 3 19.9 1.6
1 2 -3 17.8 6.7
1 2 -3 18.8 1.6
1 2 -3 21.8 1.7
-1 -3 3 278.87 25.9
-1 -3 3 287.77 7.8
-1 -3 3 291.27 7.7
1 3 -3 282.17 7.9
1 3 -3 282.67 7.8
-1 -4 3 30.8 2.6
-1 -4 3 42.3 14.4
-1 -4 3 31 2.6
-1 -4 3 55.49 16.7
1 4 -3 39.4 3
1 4 -3 32.8 2.8
-1 -5 3 106.29 5.4
-1 -5 3 110.19 5.6
-1 -5 3 103.39 25.3
-1 -5 3 117.39 26
1 5 -3 110.09 5.9
1 5 -3 109.69 5.6
-1 5 2 24.9 2.2
-1 5 2 24.2 3.5
1 -5 -2 18.9 10
1 -5 -2 24.2 12.7
1 -5 -2 30.8 3.1
-1 4 2 346.57 10.3
-1 4 2 345.27 8.2
1 -4 -2 348.67 10.2
1 -4 -2 335.07 31.3
1 -4 -2 341.67 34.5
-1 3 2 67.89 2.7
-1 3 2 67.59 3.7
-1 3 2 77.39 13.3
1 -3 -2 70.79 3.7
1 -3 -2 65.69 14.7
-1 2 2 171.28 5.3
-1 2 2 174.98 3.9
-1 2 2 175.78 16.4
1 -2 -2 194.68 16.6
1 -2 -2 178.98 5.4
-1 1 2 150.78 13
-1 1 2 175.68 3.1
-1 1 2 168.58 4.3
1 -1 -2 178.78 4.4
1 -1 -2 178.08 12.1
-1 0 2 694.43 19.9
-1 0 2 654.43 9.8
-1 0 2 650.53 10.2
1 0 -2 657.33 9.8
1 0 -2 718.53 20.3
1 0 -2 661.03 10.3
-1 -1 2 163.78 15.3
-1 -1 2 181.18 4.9
1 1 -2 173.98 4.1
1 1 -2 174.88 12.6
1 1 -2 176.78 3.9
-1 -2 2 165.68 16.4
-1 -2 2 172.98 4.8
1 2 -2 162.48 16.5
1 2 -2 178.18 4.9
1 2 -2 176.18 4.8
-1 -3 2 69.69 3.3
-1 -3 2 48.3 12.1
-1 -3 2 67.29 3.3
-1 -3 2 45.1 10.6
1 3 -2 68.29 3.4
1 3 -2 72.19 3.5
-1 -4 2 356.06 33.8
-1 -4 2 365.76 9.6
-1 -4 2 341.67 33.2
-1 -4 2 351.66 9.5
1 4 -2 354.96 9.5
1 4 -2 346.67 9.9
-1 -5 2 26.2 2.9
-1 -5 2 12.4 13.4
-1 -5 2 20.7 13.6
-1 -5 2 24.7 2.5
1 5 -2 25.1 2.8
1 5 -2 22 2.4
-1 5 1 87.19 4.4
-1 5 1 93.09 5.5
1 -5 -1 90.69 5.3
1 -5 -1 49.3 17.3
-1 4 1 4.8 1.1
-1 4 1 4.5 1.4
1 -4 -1 5.4 6
1 -4 -1 4.5 1
1 -4 -1 5 5.7
-1 3 1 664.53 12.1
-1 3 1 656.43 13.8
1 -3 -1 667.03 13.8
1 -3 -1 654.03 11.9
1 -3 -1 639.64 37.8
-1 2 1 49.3 2
-1 2 1 29.1 7.3
-1 2 1 46.7 2.5
1 -2 -1 47.6 2.5
1 -2 -1 47.8 2
1 -2 -1 58.99 9
-1 1 1 1841.62 43.4
-1 1 1 1810.42 24.4
-1 1 1 1761.22 25.6
1 -1 -1 1747.63 41.9
1 -1 -1 1820.82 25.8
-1 -1 1 1821.52 44.3
1 1 -1 1791.12 44.2
1 1 -1 1812.02 24.8
-1 -2 1 57.69 11.4
-1 -2 1 50.99 2.2
-1 -2 1 49.3 2.2
1 2 -1 51.19 2.3
1 2 -1 49.1 2.3
-1 -3 1 651.53 12.6
-1 -3 1 682.33 13
-1 -3 1 685.53 40.3
-1 -3 1 685.73 39.7
1 3 -1 661.73 12.7
1 3 -1 689.83 13.5
-1 -4 1 6.1 1.4
-1 -4 1 4.2 1.2
-1 -4 1 4.8 5.9
-1 -4 1 -0.2 5.3
1 4 -1 2.9 0.9
1 4 -1 7.1 1.6
-1 -5 1 68.29 20.8
-1 -5 1 93.49 5
-1 -5 1 96.79 22.6
-1 -5 1 93.19 4.6
1 5 -1 86.89 5
-1 5 0 0 0.7
-1 5 0 -0.4 0.8
1 -5 0 -10.9 8.6
1 -5 0 2.3 1
1 -5 0 1.9 0.9
1 -5 0 -9.2 8.1
-1 4 0 483.45 12.6
-1 4 0 477.65 11
1 -4 0 482.05 39.8
1 -4 0 463.25 12
1 -4 0 439.36 36.5
1 -4 0 474.25 10.8
-1 3 0 29.7 2.4
-1 3 0 25.9 1.9
1 -3 0 33.6 10.9
1 -3 0 27.6 1.9
1 -3 0 23.5 8.4
1 -3 0 23.4 2.1
-1 2 0 937.61 15.2
-1 2 0 963 16.4
1 -2 0 913.61 15
1 -2 0 965.3 38.4
1 -2 0 959.6 16.2
-1 1 0 196.18 11.9
-1 1 0 192.98 4
1 -1 0 199.28 4.5
1 -1 0 194.08 4
1 -1 0 199.18 12
-1 -1 0 189.28 3.6
-1 -1 0 184.18 11.9
-1 -1 0 183.28 3.6
1 1 0 186.18 3.5
1 1 0 191.78 3.6
-1 -2 0 1045.9 40.2
-1 -2 0 962.1 15.3
-1 -2 0 955.5 39.5
-1 -2 0 937.41 14.8
1 2 0 932.81 15.4
1 2 0 932.51 14.8
-1 -3 0 21.7 7.7
-1 -3 0 28.4 1.8
-1 -3 0 12.5 6
-1 -3 0 29.6 2.1
1 3 0 25.3 2
1 3 0 27.8 1.8
-1 -4 0 453.85 10.2
-1 -4 0 441.26 37
-1 -4 0 465.15 39.2
-1 -4 0 474.05 11.3
1 4 0 472.95 11.6
1 4 0 471.25 10.4
-1 -5 0 -0.4 0.6
-1 -5 0 -0.8 0.7
-1 -5 0 -7.1 9.4
-1 -5 0 2.2 6.2
1 5 0 0.7 0.8
1 5 0 0 0.8
-1 5 -1 99.39 5.1
-1 5 -1 108.69 6.1
1 -5 1 136.79 28.2
1 -5 1 100.19 5.6
1 -5 1 88.09 22.5
1 -5 1 101.79 5.1
-1 4 -1 25.7 2.4
-1 4 -1 22.9 2.7
1 -4 1 22.2 2.4
1 -4 1 22.3 2.1
1 -4 1 23.3 11.3
1 -4 1 32.1 12.5
-1 3 -1 827.52 16.4
-1 3 -1 823.12 15.2
1 -3 1 832.32 43.8
1 -3 1 801.62 15
1 -3 1 800.42 43.8
1 -3 1 824.82 16
-1 2 -1 15 1.5
-1 2 -1 13.6 1.2
1 -2 1 13.9 1.3
1 -2 1 13.7 1.4
1 -2 1 15.7 6
1 -2 1 13 4.8
-1 1 -1 1760.42 25.2
-1 1 -1 1772.92 25.8
1 -1 1 1799.22 25.7
1 -1 1 1736.33 25.2
1 -1 1 1861.11 43.2
-1 0 -1 0.2 0.1
-1 0 -1 0.1 0.1
-1 -1 -1 1758.92 24.1
-1 -1 -1 1728.93 40.8
-1 -1 -1 1678.43 23
1 1 1 1738.03 24.1
1 1 1 1762.32 41.4
1 1 1 1706.43 23
-1 -2 -1 8 3.2
-1 -2 -1 5.4 4.1
-1 -2 -1 10.5 0.8
-1 -2 -1 11.3 1.1
1 2 1 13.1 1.2
1 2 1 12.4 0.9
-1 -3 -1 796.72 13.3
-1 -3 -1 805.52 14.8
-1 -3 -1 732.93 40.9
-1 -3 -1 818.72 44.5
1 3 1 790.52 14.8
1 3 1 789.72 13.3
-1 -4 -1 22.6 1.8
-1 -4 -1 23 9.2
-1 -4 -1 6.7 7.6
-1 -4 -1 24.7 2.3
1 4 1 24.1 1.9
1 4 1 25.3 2.3
-1 -5 -1 105.79 5.3
-1 -5 -1 71.99 19.1
-1 -5 -1 97.99 4.3
1 5 1 96.99 5.2
1 5 1 99.99 4.4
-1 5 -2 10.1 2
1 -5 2 5.1 1.7
1 -5 2 -6.8 9.4
1 -5 2 9.8 1.9
1 -5 2 15 12.2
-1 4 -2 202.58 7.8
-1 4 -2 210.48 7.2
1 -4 2 209.88 26.7
1 -4 2 184.08 23.7
1 -4 2 205.98 7.5
1 -4 2 202.78 7
-1 3 -2 5.7 1.4
-1 3 -2 6.6 1.2
1 -3 2 4.5 3.4
1 -3 2 4.7 1.2
1 -3 2 6.5 4.8
1 -3 2 6.4 1.3
-1 2 -2 617.94 12.2
-1 2 -2 593.94 11.5
1 -2 2 601.94 11.5
1 -2 2 610.64 30.7
1 -2 2 617.94 12.1
1 -2 2 643.84 31.7
-1 1 -2 200.58 12.7
-1 1 -2 201.88 5.1
-1 1 -2 205.48 4.9
1 -1 2 207.78 5.1
1 -1 2 214.28 13.2
1 -1 2 200.68 4.8
-1 0 -2 1330.27 24.8
-1 0 -2 1233.58 18.4
-1 0 -2 1218.88 17.7
1 0 2 1306.77 24.4
1 0 2 1219.88 18.4
1 0 2 1279.57 17.7
-1 -1 -2 190.58 4.5
-1 -1 -2 190.98 2.9
-1 -1 -2 199.18 12
1 1 2 203.18 12.5
1 1 2 182.88 4.4
-1 -2 -2 569.74 8.8
-1 -2 -2 616.04 30
-1 -2 -2 568.14 11.3
1 2 2 569.44 8.8
1 2 2 574.64 10.8
1 2 2 609.14 30.6
-1 -3 -2 6.6 0.8
-1 -3 -2 9.4 4.9
-1 -3 -2 3.9 5.1
-1 -3 -2 7.9 1.5
1 3 2 5.7 0.9
1 3 2 6.6 1.2
-1 -4 -2 229.18 26.4
-1 -4 -2 201.18 25.8
-1 -4 -2 201.28 7
-1 -4 -2 202.38 5.4
1 4 2 192.38 6.8
1 4 2 201.98 5.4
-1 -5 -2 14.8 12
-1 -5 -2 10.5 2.1
-1 -5 -2 9.5 9.1
1 5 2 7 1.7
1 5 2 8.4 1.3
-1 5 -3 149.49 6.8
1 -5 3 125.99 26.8
1 -5 3 159.28 26.5
1 -5 3 147.29 7
1 -5 3 152.98 6.8
-1 4 -3 26.2 2.7
1 -4 3 25.9 10.9
1 -4 3 30 12.1
1 -4 3 29.4 2.8
1 -4 3 27.3 2.5
-1 3 -3 222.28 7.4
-1 3 -3 216.38 6.8
1 -3 3 188.98 21.1
1 -3 3 215.18 6.8
1 -3 3 192.88 20.9
1 -3 3 222.38 7.2
-1 2 -3 31.7 9
-1 2 -3 31 2.1
-1 2 -3 27.9 2.2
1 -2 3 33.6 2.3
1 -2 3 34.5 2.2
1 -2 3 25.1 7.2
-1 1 -3 224.88 14.1
-1 1 -3 239.08 5.7
-1 1 -3 222.98 5.8
1 -1 3 236.58 5.6
1 -1 3 245.18 14.7
-1 0 -3 -0.1 0.9
-1 0 -3 0 0.2
-1 0 -3 0.1 0.2
1 0 3 0.2 0.2
1 0 3 -0.7 0.5
1 0 3 0 0.1
-1 -1 -3 223.48 13.6
-1 -1 -3 225.38 3.4
-1 -1 -3 224.08 5.5
-1 -1 -3 221.28 3.4
1 1 3 225.68 5.4
1 1 3 238.08 14.3
-1 -2 -3 30.8 2.1
-1 -2 -3 29.8 8.2
1 2 3 36.7 9.1
1 2 3 30.2 2
-1 -3 -3 210.88 20.9
-1 -3 -3 209.48 6.6
-1 -3 -3 208.68 4.2
1 3 3 206.18 4.1
1 3 3 198.08 6.4
-1 -4 -3 21.4 2.3
-1 -4 -3 22.3 10.2
-1 -4 -3 55.69 16.5
1 4 3 24 2.3
1 4 3 24.1 1.5
-1 -5 -3 139.29 8
-1 -5 -3 108.59 26
-1 -5 -3 102.19 27.6
1 5 3 135.79 6.3
1 5 3 142.79 4.4
-1 5 -4 2 1.3
-1 5 -4 3.1 1.6
1 -5 4 5.2 10.9
1 -5 4 0.5 9.3
1 -5 4 4.3 1.9
-1 4 -4 72.89 4.4
-1 4 -4 73.29 4.8
1 -4 4 76.69 20.4
1 -4 4 53.49 15.9
1 -4 4 71.59 4.3
-1 3 -4 0.6 0.7
1 -3 4 4.2 3.2
1 -3 4 2.3 0.9
1 -3 4 11.9 5.9
-1 2 -4 553.64 11.6
-1 2 -4 536.55 30.5
-1 2 -4 553.94 12.1
1 -2 4 568.24 31.4
1 -2 4 550.94 11.7
-1 1 -4 42 6.5
-1 1 -4 41.9 2.4
-1 1 -4 37.6 2.3
-1 1 -4 39.7 2.2
1 -1 4 39.6 6.4
1 -1 4 39.7 2.2
-1 0 -4 5 2.4
-1 0 -4 4.1 0.7
-1 0 -4 4.4 0.8
1 0 4 5.1 2.7
1 0 4 3.7 0.8
1 0 4 4.6 0.7
-1 -1 -4 37.2 5.8
-1 -1 -4 39.1 1.2
-1 -1 -4 39.1 2.3
1 1 4 43 6.3
1 1 4 42.1 2.3
-1 -2 -4 532.45 28.7
-1 -2 -4 546.65 11.4
1 2 4 532.25 11.2
1 2 4 558.44 30.6
-1 -3 -4 1.5 4.8
-1 -3 -4 1.5 0.8
1 3 4 0.2 0.5
1 3 4 0.8 3
-1 -4 -4 73.09 4.3
-1 -4 -4 79.49 19.6
1 4 4 71.89 2
1 4 4 74.59 4.2
1 4 4 75.19 2
-1 -5 -4 -2.2 14.6
-1 -5 -4 2 1.3
1 5 4 -0.1 0.9
1 5 4 2.2 0.5
1 5 4 2.8 0.6
-1 5 -5 122.99 7.3
-1 5 -5 126.89 6.7
1 -5 5 136.69 32.5
1 -5 5 122.69 6.5
1 -5 5 114.49 27.8
-1 4 -5 12.5 2.3
-1 4 -5 17 2.9
1 -4 5 15.9 8.9
1 -4 5 15.7 2.6
1 -4 5 13.8 9.2
-1 3 -5 153.58 6.1
1 -3 5 146.59 6
1 -3 5 146.19 19.3
-1 2 -5 96.99 4.5
-1 2 -5 87.59 4
-1 2 -5 91.89 12.8
1 -2 5 81.29 13.7
1 -2 5 80.99 3.9
-1 1 -5 1036.8 37.4
-1 1 -5 1096.39 18.2
1 -1 5 1115.99 37.2
1 -1 5 1065.49 18.2
-1 0 -5 0 0.3
-1 0 -5 0.1 0.3
1 0 5 0.7 0.3
1 0 5 0.7 0.4
1 0 5 -0.3 1.2
-1 -1 -5 1040.9 35.7
-1 -1 -5 1025.4 18.1
-1 -1 -5 1023.7 14.7
1 1 5 1030.7 35.3
1 1 5 1045.7 18
-1 -2 -5 88.89 11.5
-1 -2 -5 89.29 4.1
1 2 5 86.19 3.9
1 2 5 89.69 14.1
-1 -3 -5 147.19 6
-1 -3 -5 149.29 17.9
1 3 5 142.49 5.7
1 3 5 147.09 19
-1 -4 -5 1.2 6.2
-1 -4 -5 13.3 2.4
1 4 5 16.6 2
-1 -5 -5 146.29 30.4
-1 -5 -5 132.89 28.8
-1 -5 -5 113.09 6.1
1 5 5 123.39 6.1
-1 5 -6 20.9 3.4
-1 5 -6 24.4 4.8
1 -5 6 2.7 9.9
-1 4 -6 48.9 3.8
1 -4 6 48 3.7
1 -4 6 58.49 17.2
1 -4 6 33 16.8
-1 3 -6 4 4.8
-1 3 -6 15.2 2
-1 3 -6 13.1 2.1
1 -3 6 6.4 5.7
-1 2 -6 1353.36 24.4
-1 2 -6 1414.76 24.1
-1 2 -6 1345.57 24.6
-1 2 -6 1345.37 53.29
1 -2 6 1363.46 23.8
1 -2 6 1410.56 53.29
-1 1 -6 7.7 4.3
-1 1 -6 11.8 1.4
-1 1 -6 10.1 1.6
1 -1 6 11.4 1.3
1 -1 6 12.3 4.7
-1 0 -6 325.57 8.5
-1 0 -6 328.47 7.1
-1 0 -6 339.77 19.2
1 0 6 344.27 19.2
1 0 6 326.27 7.1
1 0 6 329.37 8.5
-1 -1 -6 12 2
-1 -1 -6 8.4 0.7
-1 -1 -6 9.6 3.7
1 1 6 8.1 1.4
1 1 6 11.5 4.6
-1 -2 -6 1311.37 23.1
-1 -2 -6 1269.27 49.3
1 2 6 1256.17 22.6
1 2 6 1322.87 51.39
-1 -3 -6 13.7 2.2
-1 -3 -6 18.8 7.9
1 3 6 18.2 9.1
1 3 6 14.4 2.2
-1 -4 -6 38.3 3.7
1 4 6 44.3 3.4
-1 -5 -6 24.7 16.3
-1 -5 -6 19 3.2
1 5 6 23.7 3.9
-1 5 -7 164.18 8.1
1 -5 7 102.09 25
-1 4 -7 58.59 4.7
-1 4 -7 55.59 4.3
1 -4 7 58.29 4.8
1 -4 7 57.79 18.1
-1 3 -7 136.19 6.4
-1 3 -7 147.99 6.4
-1 3 -7 150.58 20.7
-1 3 -7 140.99 6.7
1 -3 7 143.89 19.4
-1 2 -7 331.97 26.1
-1 2 -7 345.47 9.6
-1 2 -7 340.27 10
-1 2 -7 344.77 10.3
1 -2 7 343.27 9.6
1 -2 7 358.46 26.5
-1 1 -7 1176.68 47.8
-1 1 -7 1189.38 20.5
-1 1 -7 1133.89 21.6
1 -1 7 1168.18 20.5
1 -1 7 1233.18 43.9
-1 0 -7 -0.4 0.2
-1 0 -7 0.3 0.3
-1 0 -7 -2.9 1.8
1 0 7 2.9 2.9
1 0 7 0 0.3
1 0 7 0.9 0.6
-1 -1 -7 1134.79 21.1
-1 -1 -7 1111.29 44.7
-1 -1 -7 1126.09 17
1 1 7 1168.68 42.3
1 1 7 1149.48 21
-1 -2 -7 342.47 25.3
-1 -2 -7 342.57 10
1 2 7 336.77 26.1
1 2 7 338.17 9.6
-1 -3 -7 137.39 6.3
-1 -3 -7 134.29 18
1 3 7 118.99 18.2
1 3 7 138.99 6.1
-1 -4 -7 27.2 12.5
-1 -4 -7 57.59 4.4
1 4 7 69.49 4.4
-1 -5 -7 151.08 7.7
-1 -5 -7 108.19 26
1 5 7 164.08 7.7
-1 4 -8 72.99 5.1
-1 4 -8 74.59 5.5
-1 4 -8 80.39 5.3
1 -4 8 61.09 18
1 -4 8 76.59 5.3
-1 3 -8 19.2 2.4
-1 3 -8 14.7 2.6
1 -3 8 37.9 14
-1 2 -8 761.22 17.1
-1 2 -8 755.72 17.3
-1 2 -8 771.32 17.6
-1 2 -8 760.42 41.9
1 -2 8 769.22 16.5
1 -2 8 721.53 39.3
-1 1 -8 21.9 2.1
-1 1 -8 23.7 7.6
-1 1 -8 24 2.4
1 -1 8 20 1.9
1 -1 8 23.1 6.8
-1 0 -8 329.47 7.8
-1 0 -8 333.97 9.8
-1 0 -8 326.97 22.1
1 0 8 324.37 7.8
1 0 8 317.97 14.7
1 0 8 331.27 21.9
-1 -1 -8 30.6 8.8
-1 -1 -8 20.9 1.5
-1 -1 -8 24.1 2.5
1 1 8 29.8 7.8
-1 -2 -8 763.02 17
-1 -2 -8 730.23 39.1
1 2 8 745.23 16.4
1 2 8 689.33 39.1
-1 -3 -8 18.2 2.9
1 3 8 30.2 14
1 3 8 16.6 2.6
-1 -4 -8 71.09 5
-1 4 -9 0.3 1.1
-1 4 -9 3 1.8
-1 4 -9 3.6 1.6
1 -4 9 -1.1 9.3
-1 3 -9 79.29 5
-1 3 -9 74.99 5.3
-1 3 -9 72.99 5.1
-1 3 -9 66.89 17.8
1 -3 9 78.49 4.9
1 -3 9 77.09 17.1
-1 2 -9 50.79 3.9
-1 2 -9 57.69 3.9
1 -2 9 36.1 10.2
1 -2 9 56.49 3.8
-1 1 -9 84.59 4.3
-1 1 -9 85.49 5
1 -1 9 86.89 12.3
1 -1 9 78.69 6.5
-1 0 -9 -3.3 3.1
-1 0 -9 1.3 1.2
-1 0 -9 -0.6 0.3
1 0 9 4.1 3.6
1 0 9 -0.9 0.4
-1 -1 -9 87.39 3.1
1 1 9 94.39 12.3
1 1 9 88.29 5
-1 -2 -9 52.29 4
1 2 9 31.7 10
1 2 9 58.19 4.1
-1 -3 -9 73.39 18.2
-1 -3 -9 75.79 5.1
1 3 9 68.69 17
-1 -4 -9 3.1 1.6
1 4 9 9.1 2
-1 3 -10 8.5 2.1
-1 3 -10 8.3 1.9
-1 3 -10 5.9 1.9
1 -3 10 6.8 1.9
-1 2 -10 61.89 4.8
-1 2 -10 61.29 4.2
-1 2 -10 63.59 4.7
1 -2 10 63.99 14.3
-1 1 -10 27.5 2.9
-1 1 -10 23.5 2.4
1 -1 10 28.9 12.3
1 -1 10 25.1 2.4
-1 0 -10 91.79 4.1
-1 0 -10 99.59 5.6
1 0 10 90.69 4
1 0 10 75.89 12.2
-1 -1 -10 22.2 3.2
-1 -1 -10 21.4 1.6
1 1 10 21.2 4.5
1 1 10 34.8 12.7
-1 -2 -10 60.49 4.6
1 2 10 64.59 15.5
-1 -3 -10 3.7 1.6
1 3 10 8.6 2
-1 3 -11 58.29 5.8
-1 3 -11 84.59 8.6
-1 2 -11 14.5 2.5
-1 2 -11 12.9 2.6
-1 2 -11 13.2 2.9
1 -2 11 21.4 2.7
-1 1 -11 92.09 4.9
-1 1 -11 69.69 23.8
-1 1 -11 92.49 5.9
1 -1 11 75.39 13
1 -1 11 103.49 5
-1 0 -11 -0.3 0.8
-1 0 -11 -1 0.5
1 0 11 2.1 5.8
1 0 11 -0.9 0.6
-1 -1 -11 94.59 5.9
-1 -1 -11 100.49 3.7
1 1 11 93.09 5.7
1 1 11 87.19 14.1
-1 -2 -11 17.8 3.2
1 2 11 17.2 3.2
-1 -3 -11 60.99 5.2
1 3 11 51.09 4.8
-1 2 -12 17.3 2.7
-1 2 -12 4.9 2.2
1 -2 12 10.2 2.4
-1 1 -12 -1.6 0.8
-1 1 -12 0.3 1
-1 0 -12 209.58 9.5
-1 0 -12 219.38 7.1
1 0 12 203.48 6.9
-1 -1 -12 1.2 0.6
-1 -1 -12 0.2 1.1
1 1 12 2.8 1.2
-1 -2 -12 10.3 2.5
1 2 12 14.8 2.9
-1 1 -13 394.06 14.2
-1 1 -13 421.46 12
1 -1 13 425.96 12
-1 0 -13 -1.3 0.7
-1 0 -13 0.3 1.4
-1 -1 -13 423.26 9.3
-1 -1 -13 425.76 14.7
-2 1 14 -1.1 0.8
2 -1 -14 1.2 1.4
2 -1 -14 3.1 0.9
-2 0 14 102.99 5
2 0 -14 103.69 5
2 0 -14 95.39 6.6
-2 -1 14 3 1.3
2 1 -14 -1 1.1
2 1 -14 0.6 1.3
2 -2 -13 -0.4 1.1
-2 1 13 217.28 9.5
-2 1 13 232.28 6.4
2 -1 -13 228.78 6.4
2 -1 -13 218.48 9.9
-2 0 13 -1.3 0.7
2 0 -13 0.2 1.1
2 0 -13 -0.2 0.7
2 1 -13 232.48 10.1
2 1 -13 225.58 8.2
-2 -2 13 1.6 1.4
2 2 -13 0.4 0.9
2 2 -13 -0.3 1
2 2 -13 0.1 1.6
-2 3 12 16.9 4.7
2 -3 -12 19.6 3.6
-2 2 12 246.38 10
2 -2 -12 254.47 29.1
2 -2 -12 225.58 9.9
-2 1 12 25.7 1.9
-2 1 12 23.7 3
-2 1 12 27.1 10.7
2 -1 -12 28 3.4
2 -1 -12 13.3 9.3
2 -1 -12 21.5 1.8
-2 0 12 63.39 17.3
-2 0 12 82.69 4.9
2 0 -12 81.29 4.1
2 0 -12 86.19 5.5
2 0 -12 78.09 18.4
-2 -1 12 15.7 8.4
-2 -1 12 19.4 2.4
2 1 -12 25.9 2.6
2 1 -12 23.2 3.4
2 1 -12 24 11.4
-2 -2 12 243.08 9.1
2 2 -12 246.98 31.6
2 2 -12 247.38 9.1
2 2 -12 252.27 10
2 3 -12 15.5 2.8
2 3 -12 18.9 3.1
2 3 -12 19.3 3.5
2 -4 -11 5.9 2.3
-2 3 11 60.49 4.9
2 -3 -11 58.99 20
2 -3 -11 72.09 5.3
-2 2 11 4.6 1.7
-2 2 11 6 7.3
2 -2 -11 3.1 1.3
2 -2 -11 -8.6 8
-2 1 11 183.68 21.5
-2 1 11 182.58 5.3
2 -1 -11 209.68 43.7
2 -1 -11 184.18 8.1
2 -1 -11 186.48 5.3
-2 0 11 7 5.8
2 0 -11 1 0.7
2 0 -11 -0.8 0.5
2 0 -11 -0.1 5.6
-2 -1 11 187.08 6.9
-2 -1 11 201.38 23.3
2 1 -11 134.29 35.5
2 1 -11 185.88 6.8
2 1 -11 179.48 7.7
-2 -2 11 -1.8 5.6
2 2 -11 0.9 1
2 2 -11 -17.2 9.3
2 2 -11 3.2 1.2
-2 -3 11 77.19 5.1
2 3 -11 66.29 5.9
2 3 -11 72.49 5.2
2 3 -11 72.29 5
2 3 -11 105.59 25
2 4 -11 2.9 1.5
2 4 -11 8 3.1
2 4 -11 5 2.1
-2 4 10 27.2 4.1
2 -4 -10 35.2 4
-2 3 10 -2.4 0.9
2 -3 -10 -0.6 0.8
-2 2 10 204.28 24.1
-2 2 10 214.38 3.8
-2 2 10 215.48 8.8
2 -2 -10 230.48 9.1
2 -2 -10 169.18 22
2 -2 -10 213.38 3.8
-2 1 10 0.8 0.4
-2 1 10 2.3 0.9
-2 1 10 -1.1 5.5
2 -1 -10 1.5 0.6
2 -1 -10 -2.6 4.7
2 -1 -10 2 0.9
-2 0 10 88.79 18
-2 0 10 58.49 4
-2 0 10 62.29 3.3
2 0 -10 60.49 3.2
2 0 -10 44.7 12.3
-2 -1 10 0.7 0.7
-2 -1 10 -1.5 5.8
2 1 -10 -6 4.2
2 1 -10 1.9 0.8
2 1 -10 -0.4 0.6
-2 -2 10 233.48 25.3
-2 -2 10 211.28 7.9
2 2 -10 220.58 27.2
2 2 -10 220.78 7.9
2 2 -10 237.88 8.6
-2 -3 10 2.3 1.1
2 3 -10 -1.2 0.5
2 3 -10 -0.7 0.9
2 4 -10 32.4 3.4
2 4 -10 37.9 4
2 4 -10 36.1 3.9
-2 4 9 13.5 3.1
-2 4 9 14.8 10.7
2 -4 -9 22.8 13.2
2 -4 -9 13.4 2.8
-2 3 9 199.98 24.7
2 -3 -9 143.19 7.3
2 -3 -9 181.58 24.3
-2 2 9 0 0.2
-2 2 9 0.4 0.7
-2 2 9 -5.7 3.8
2 -2 -9 0.6 0.2
2 -2 -9 3.1 4.5
-2 1 9 217.08 7.8
-2 1 9 211.08 21.9
-2 1 9 228.98 5.5
2 -1 -9 222.98 5.4
2 -1 -9 222.98 21.9
2 -1 -9 222.68 8.1
-2 0 9 -0.2 3.2
-2 0 9 -0.1 0.3
2 0 -9 0.7 0.4
2 0 -9 1.1 0.6
2 0 -9 -3.9 2.9
-2 -1 9 236.58 7.3
-2 -1 9 240.18 22.8
2 1 -9 219.18 21.9
2 1 -9 231.08 8
2 1 -9 237.38 7.2
-2 -2 9 5.3 5.9
2 2 -9 12 7.1
2 2 -9 1.7 1
-2 -3 9 162.38 23.2
2 3 -9 162.08 7
2 3 -9 146.19 24.2
2 3 -9 172.78 7.2
2 3 -9 169.68 7.3
-2 -4 9 17.9 3
-2 -4 9 17.1 12.1
2 4 -9 10.6 2.3
2 4 -9 11.1 2.2
2 4 -9 9.4 12.5
2 4 -9 14.8 2.7
-2 5 8 6.3 2.2
2 -5 -8 5.4 2.2
-2 4 8 83.39 5.5
2 -4 -8 96.19 6
-2 3 8 20.2 3
-2 3 8 25.7 10.5
2 -3 -8 20.2 3
2 -3 -8 17.5 7.9
-2 2 8 330.57 28.2
-2 2 8 360.86 5.7
-2 2 8 362.06 10.4
2 -2 -8 368.36 10.8
2 -2 -8 350.76 28.7
-2 1 8 54.49 3.5
-2 1 8 60.89 2.4
-2 1 8 75.89 15.2
2 -1 -8 64.29 3.9
2 -1 -8 40.8 9.5
2 -1 -8 59.79 2.4
-2 0 8 631.54 12.1
-2 0 8 680.63 14.3
-2 0 8 600.24 47.4
2 0 -8 645.64 35
2 0 -8 647.04 14.3
2 0 -8 658.03 12.2
-2 -1 8 69.59 11.9
-2 -1 8 64.89 3.4
2 1 -8 63.09 3.4
2 1 -8 64.39 10.8
2 1 -8 61.19 3.6
-2 -2 8 378.06 10.3
-2 -2 8 358.76 29.4
2 2 -8 386.76 10.4
2 2 -8 357.26 30.5
2 2 -8 381.66 10.1
-2 -3 8 5.5 6.9
2 3 -8 21.4 2.4
2 3 -8 21.6 2.5
2 3 -8 6.4 7.8
2 3 -8 19.1 2.3
-2 -4 8 93.09 7.3
-2 -4 8 120.09 40.8
2 4 -8 111.99 6.1
2 4 -8 102.39 5.6
2 4 -8 111.59 6.3
-2 -5 8 3.1 15.8
2 5 -8 6.6 3
2 5 -8 8.7 2.1
2 5 -8 7 1.9
-2 5 7 75.79 5.8
2 -5 -7 77.59 5.8
2 -5 -7 100.79 26.7
-2 4 7 30.8 12.8
2 -4 -7 31.4 3.4
2 -4 -7 43.3 16
-2 3 7 498.25 13
-2 3 7 507.75 39.1
2 -3 -7 492.25 13.4
2 -3 -7 492.15 36.7
-2 2 7 5.2 1.3
-2 2 7 5.6 0.5
-2 2 7 8.4 5.8
2 -2 -7 5.2 1.4
2 -2 -7 5 4.5
-2 1 7 877.31 13.9
-2 1 7 915.61 41.3
-2 1 7 876.21 17.2
2 -1 -7 887.61 13.8
2 -1 -7 874.41 17.5
2 -1 -7 879.01 39.8
-2 0 7 -0.9 1.8
-2 0 7 -0.3 0.4
-2 0 7 0.2 0.3
2 0 -7 0.7 0.4
2 0 -7 -1.2 2
2 0 -7 0.5 0.5
-2 -1 7 885.21 40.8
-2 -1 7 888.91 16.9
-2 -1 7 883.71 16.2
2 1 -7 892.61 16.1
2 1 -7 900.51 41.4
2 1 -7 883.11 16.8
-2 -2 7 6.9 4.8
-2 -2 7 4.8 1.1
2 2 -7 6.2 4.2
2 2 -7 6.2 1.3
2 2 -7 4.8 1.1
2 2 -7 6 1.3
-2 -3 7 498.65 13.3
-2 -3 7 528.35 39.6
2 3 -7 516.55 40.5
2 3 -7 517.75 13
2 3 -7 523.45 12.9
2 3 -7 550.34 12.8
-2 -4 7 50.19 17.9
-2 -4 7 32.2 3.3
2 4 -7 55.69 18.7
2 4 -7 30.6 2.9
2 4 -7 33.2 3.2
2 4 -7 31.5 3
-2 -5 7 61.29 20.3
-2 -5 7 58.39 18.6
2 5 -7 86.39 5.6
2 5 -7 90.89 6.3
2 5 -7 82.89 5.1
-2 5 6 1 0.4
-2 5 6 1.5 1.3
-2 5 6 0.2 0.4
2 -5 -6 1.1 1.1
-2 4 6 72.29 18.1
-2 4 6 102.09 2.4
-2 4 6 102.79 2.4
-2 4 6 98.69 5.6
2 -4 -6 102.39 24.3
2 -4 -6 112.89 6.2
-2 3 6 309.57 4.9
-2 3 6 298.77 4.9
-2 3 6 310.37 11.5
-2 3 6 327.97 30.1
2 -3 -6 321.37 9.9
2 -3 -6 318.17 28.4
-2 2 6 828.52 11.9
-2 2 6 785.22 40.4
-2 2 6 826.12 16.6
2 -2 -6 848.42 41.6
2 -2 -6 860.91 17.1
-2 1 6 108.39 4.5
-2 1 6 113.39 13.2
-2 1 6 105.29 2.9
2 -1 -6 110.59 4.6
2 -1 -6 109.19 2.9
2 -1 -6 105.79 12.3
-2 0 6 3873.31 55.19
-2 0 6 3920.21 88.39
-2 0 6 3850.71 53.49
2 0 -6 3836.92 53.39
2 0 -6 3894.41 55.59
2 0 -6 3998.2 88.69
-2 -1 6 115.69 13.6
-2 -1 6 112.39 4.1
-2 -1 6 110.49 4.3
2 1 -6 122.79 14
2 1 -6 108.89 4.2
2 1 -6 108.99 4
-2 -2 6 892.31 44
-2 -2 6 873.51 16.8
2 2 -6 892.61 16.5
2 2 -6 885.51 16.5
2 2 -6 816.22 43.2
2 2 -6 904.61 16.8
-2 -3 6 339.37 9.6
-2 -3 6 343.77 31.2
2 3 -6 313.47 30.5
2 3 -6 312.87 9.1
2 3 -6 310.47 9.2
2 3 -6 312.77 8.7
-2 -4 6 101.19 5.4
2 4 -6 104.49 5.4
2 4 -6 114.09 5.8
2 4 -6 146.19 23.4
-2 -5 6 3.3 12.9
-2 -5 6 -1.5 1.1
2 5 -6 2 0.9
-2 5 5 156.68 4.5
-2 5 5 152.88 7.6
-2 5 5 155.18 4.5
2 -5 -5 146.79 7.6
2 -5 -5 149.69 31.3
-2 4 5 21.4 2.6
-2 4 5 22.6 1.6
-2 4 5 23.2 1.4
-2 4 5 15.7 8.3
2 -4 -5 38.2 13.2
2 -4 -5 28 5
-2 3 5 454.75 7.7
-2 3 5 454.95 7.7
-2 3 5 458.65 11.8
-2 3 5 438.06 34.1
2 -3 -5 435.16 32.8
2 -3 -5 447.26 11.8
-2 2 5 0.3 0.2
-2 2 5 2.1 3.5
-2 2 5 0.1 0.2
2 -2 -5 1 2.5
2 -2 -5 0.9 0.7
-2 1 5 463.35 25.5
-2 1 5 412.56 7.1
-2 1 5 413.96 9.4
2 -1 -5 412.96 7.1
2 -1 -5 423.36 24.3
2 -1 -5 428.46 9.6
-2 0 5 0 0.3
-2 0 5 0.5 0.3
-2 0 5 0.3 2.1
2 0 -5 1.2 0.4
2 0 -5 0.5 1.5
2 0 -5 0 0.2
-2 -1 5 434.66 9
-2 -1 5 435.76 25.1
2 1 -5 434.66 9
2 1 -5 428.76 8.9
2 1 -5 420.96 24.8
-2 -2 5 0.5 0.4
-2 -2 5 -2.9 1.9
2 2 -5 0.5 0.4
2 2 -5 1.1 0.4
2 2 -5 -2.7 3.2
2 2 -5 -0.1 0.3
-2 -3 5 476.15 11.6
-2 -3 5 490.35 36.5
2 3 -5 471.85 36.4
2 3 -5 472.55 11.2
2 3 -5 484.15 11.6
-2 -4 5 30.4 13.5
-2 -4 5 24.6 2.5
2 4 -5 25.6 2.6
2 4 -5 27.8 2.6
-2 -5 5 180.08 29.9
-2 -5 5 148.49 10.1
2 5 -5 158.98 7.2
2 5 -5 160.78 7.3
-2 5 4 5.6 1.8
2 -5 -4 15 2.7
2 -5 -4 1.1 9
2 -5 -4 -4.1 8.9
-2 4 4 106.99 3.7
-2 4 4 112.59 3.7
-2 4 4 106.69 5.6
-2 4 4 87.39 20
2 -4 -4 74.59 16.7
2 -4 -4 110.69 5.8
-2 3 4 25.2 1.4
-2 3 4 26.5 10
-2 3 4 25.6 1.5
-2 3 4 27 2.5
2 -3 -4 13 5.8
2 -3 -4 26.9 2.6
-2 2 4 506.85 8.2
-2 2 4 501.15 8.2
-2 2 4 496.55 11.1
-2 2 4 483.05 29.4
2 -2 -4 532.65 30.1
2 -2 -4 505.45 11.3
-2 1 4 132.39 3
-2 1 4 142.69 12.9
-2 1 4 127.49 4.3
2 -1 -4 134.09 3
2 -1 -4 133.39 12.6
2 -1 -4 128.79 4.4
-2 0 4 2359.06 55.69
-2 0 4 2270.47 32.9
-2 0 4 2291.37 32.3
2 0 -4 2318.47 32
2 0 -4 2260.87 56.19
2 0 -4 2316.67 33.1
-2 -1 4 143.69 4.2
-2 -1 4 126.09 12.5
2 1 -4 152.58 13.9
2 1 -4 137.99 4.1
2 1 -4 138.89 4
-2 -2 4 531.75 31.6
2 2 -4 516.25 10.3
2 2 -4 531.85 10.9
2 2 -4 513.65 31.2
-2 -3 4 16.6 7.6
-2 -3 4 23 2.1
2 3 -4 26.5 2.2
2 3 -4 29 2.4
2 3 -4 31.9 9.8
-2 -4 4 115.09 19.4
-2 -4 4 107.19 5.1
2 4 -4 108.39 5
2 4 -4 105.19 6.1
-2 -5 4 16.4 16
-2 -5 4 23.5 13.8
-2 -5 4 18.7 3.1
2 5 -4 16.5 2.9
2 5 -4 15.7 2.6
-2 5 3 326.97 8.5
-2 5 3 340.37 8.6
2 -5 -3 293.67 38.3
2 -5 -3 335.87 11.4
2 -5 -3 391.46 38.8
-2 4 3 2.6 1.2
-2 4 3 2.5 0.9
2 -4 -3 11.8 5.8
2 -4 -3 2.3 1
-2 3 3 247.38 5.8
-2 3 3 254.77 24.9
-2 3 3 242.48 7.7
2 -3 -3 243.68 23.1
2 -3 -3 244.98 7.8
-2 2 3 92.49 4
-2 2 3 90.09 12.2
-2 2 3 90.99 2.6
-2 2 3 91.19 2.6
2 -2 -3 96.39 4.1
2 -2 -3 98.29 12.3
-2 1 3 49.1 7.1
-2 1 3 46.3 1.5
2 -1 -3 47.6 7.1
2 -1 -3 47.8 1.5
-2 0 3 0.1 0.2
-2 0 3 0.1 0.2
-2 0 3 0 0.8
2 0 -3 1.8 1.3
2 0 -3 0 0.2
2 0 -3 0.2 0.2
-2 -1 3 45.6 2.1
-2 -1 3 51.09 7.6
2 1 -3 51.39 7.6
2 1 -3 49.5 1.9
-2 -2 3 116.09 13.9
-2 -2 3 95.99 3.6
2 2 -3 98.89 3.7
2 2 -3 96.99 3.4
2 2 -3 89.89 12.8
-2 -3 3 236.88 24.4
-2 -3 3 257.87 7.3
2 3 -3 250.57 6.9
2 3 -3 264.77 26
2 3 -3 252.57 7.2
-2 -4 3 4 8.3
-2 -4 3 3 0.9
-2 -4 3 7.8 5.5
-2 -4 3 3.5 1.1
2 4 -3 4.2 1.2
2 4 -3 4.2 1.3
-2 -5 3 346.07 50.39
-2 -5 3 334.77 10.3
-2 -5 3 387.96 40.6
2 5 -3 321.67 10.2
2 5 -3 324.77 10.1
-2 5 2 33.4 2.7
2 -5 -2 41.4 3.8
2 -5 -2 48.6 16.6
-2 4 2 340.17 8.3
-2 4 2 347.47 10.6
2 -4 -2 308.87 33.2
2 -4 -2 345.97 10.4
2 -4 -2 353.16 32.6
-2 3 2 107.19 3.7
-2 3 2 109.79 5
-2 3 2 107.19 15.5
2 -3 -2 97.19 14.5
2 -3 -2 111.89 4.9
-2 2 2 210.38 18.2
-2 2 2 197.38 6
-2 2 2 211.38 4.8
2 -2 -2 204.88 17.3
2 -2 -2 208.28 6.1
-2 1 2 169.78 3.6
-2 1 2 176.88 12.5
2 -1 -2 163.88 12.1
2 -1 -2 174.08 4.6
-2 0 2 176.68 3.6
-2 0 2 171.88 3.7
-2 0 2 192.18 10.8
2 0 -2 185.58 10.7
2 0 -2 175.68 3.6
-2 -1 2 170.28 4.5
-2 -1 2 169.98 12.8
2 1 -2 176.48 4.1
2 1 -2 169.18 13.1
2 1 -2 176.28 3.5
2 1 -2 172.48 3.4
-2 -2 2 210.08 18.5
-2 -2 2 214.28 4.9
-2 -2 2 214.08 5.5
2 2 -2 215.38 5.5
2 2 -2 216.98 19.1
-2 -3 2 92.19 15.4
-2 -3 2 111.09 4.3
-2 -3 2 110.79 4
2 3 -2 113.19 4.2
2 3 -2 111.49 4.3
-2 -4 2 343.47 9.2
-2 -4 2 352.66 9.1
-2 -4 2 335.67 32.5
-2 -4 2 334.47 33.2
2 4 -2 352.16 9.3
2 4 -2 344.07 9.3
-2 -5 2 46.5 20.6
-2 -5 2 42.4 3.2
-2 -5 2 62.49 20.6
-2 -5 2 39.4 3.1
2 5 -2 35.9 3.1
2 5 -2 41.9 3.2
-2 5 1 116.59 5.2
2 -5 -1 117.29 6.2
2 -5 -1 96.59 22.9
2 -5 -1 113.09 25.7
-2 4 1 85.29 4.9
-2 4 1 89.99 4
2 -4 -1 65.29 16.7
2 -4 -1 80.59 4.7
2 -4 -1 76.39 19
-2 3 1 202.68 6.9
-2 3 1 202.78 5.8
2 -3 -1 213.88 6.9
2 -3 -1 190.28 20.5
-2 2 1 65.29 10.1
-2 2 1 75.69 2.8
2 -2 -1 65.89 9.7
2 -2 -1 73.89 3.3
-2 1 1 3194.58 64.19
-2 1 1 3212.28 45.8
2 -1 -1 3176.78 63.39
2 -1 -1 3070.79 43.6
-2 0 1 0.1 0.1
-2 0 1 0.1 0.1
-2 0 1 -0.1 0.7
2 0 -1 0.3 0.2
2 0 -1 0 0.1
-2 -1 1 3356.16 67.89
2 1 -1 3180.48 66.69
-2 -2 1 71.79 2.7
-2 -2 1 73.19 2.5
-2 -2 1 64.79 9.9
2 2 -1 69.19 10.6
2 2 -1 71.19 2.5
2 2 -1 71.89 2.7
-2 -3 1 192.68 21
-2 -3 1 221.38 5.9
-2 -3 1 220.88 22.9
-2 -3 1 218.58 6
2 3 -1 211.88 5.9
2 3 -1 205.88 5.9
-2 -4 1 118.79 18.9
-2 -4 1 94.99 22.2
-2 -4 1 84.09 4
-2 -4 1 87.79 4
2 4 -1 86.59 4.2
2 4 -1 88.69 4.1
-2 -5 1 128.59 27.9
-2 -5 1 126.19 27.6
-2 -5 1 101.89 5
-2 -5 1 109.29 5
2 5 -1 108.09 5
-2 5 0 3.2 1
2 -5 0 -4 6.9
2 -5 0 -0.8 0.5
2 -5 0 -7.1 8
-2 4 0 485.35 13.1
-2 4 0 495.45 11.4
2 -4 0 476.75 37.6
2 -4 0 480.95 11.3
2 -4 0 476.05 12.5
2 -4 0 526.05 42
-2 3 0 1.2 0.6
-2 3 0 1.6 0.6
2 -3 0 1.6 3.7
2 -3 0 1 0.6
2 -3 0 7.6 4.7
2 -3 0 2.5 1
-2 2 0 1671.93 25.1
-2 2 0 1667.33 26.4
-2 2 0 1742.63 54.09
2 -2 0 1674.43 26.3
2 -2 0 1638.94 52.09
2 -2 0 1648.14 25
-2 1 0 4006.8 73.49
2 -1 0 3863.41 53.69
-2 0 0 165.88 3.3
-2 0 0 162.98 3.2
-2 0 0 170.38 6.3
2 0 0 175.78 6.5
2 0 0 163.68 3.3
2 0 0 165.48 3.2
-2 -1 0 3757.32 71.59
-2 -2 0 1634.74 23.9
-2 -2 0 1643.64 24
-2 -2 0 1670.43 54.19
-2 -2 0 1716.13 54.09
2 2 0 1655.53 24
2 2 0 1655.93 24
-2 -3 0 1.2 0.5
-2 -3 0 1.6 3.9
-2 -3 0 0.4 0.4
-2 -3 0 4 4.5
2 3 0 2.1 0.6
2 3 0 0.2 0.4
-2 -4 0 497.45 10.7
-2 -4 0 505.85 40.5
-2 -4 0 532.65 40.5
-2 -4 0 495.85 11.2
2 4 0 485.15 10.7
2 4 0 490.35 11.4
-2 -5 0 27.1 18.7
-2 -5 0 10.5 10.9
-2 5 -1 1.4 0.9
2 -5 1 4.5 8.2
2 -5 1 2.3 1
2 -5 1 -6.5 7.5
-2 4 -1 58.89 3.6
-2 4 -1 64.09 4.3
2 -4 1 62.69 3.7
2 -4 1 60.39 4.1
2 -4 1 58.89 17.2
2 -4 1 77.09 18.5
-2 3 -1 319.77 9.1
-2 3 -1 298.07 7.9
2 -3 1 311.47 8
2 -3 1 275.37 25.5
2 -3 1 316.57 8.9
2 -3 1 307.87 25.7
-2 2 -1 1103.29 18.9
-2 2 -1 1070.49 17.7
2 -2 1 1052.69 41.6
2 -2 1 1086.89 18.7
2 -2 1 1049.89 40.5
2 -2 1 1082.79 17.8
-2 0 -1 0.5 0.2
-2 0 -1 0 0.1
-2 -1 -1 9999 154.18
-2 -1 -1 9979.2 152.68
-2 -2 -1 1062.69 16.4
-2 -2 -1 1034.7 15.5
-2 -2 -1 1090.99 41.5
-2 -2 -1 1062.29 42
2 2 1 988.6 16.7
2 2 1 1050.99 15.5
-2 -3 -1 302.57 6.5
-2 -3 -1 259.47 24
-2 -3 -1 294.37 32.9
-2 -3 -1 310.17 7.4
2 3 1 299.77 6.5
2 3 1 299.67 7.3
-2 -4 -1 65.79 16.6
-2 -4 -1 63.59 3
-2 -4 -1 37.8 11.9
-2 -4 -1 65.29 3.5
2 4 1 60.59 3.4
2 4 1 61.59 2.9
-2 -5 -1 1.1 0.7
-2 -5 -1 3 9
-2 -5 -1 8.3 9.1
-2 -5 -1 0.6 0.9
2 5 1 1.5 0.8
-2 5 -2 6.8 1.8
-2 5 -2 10.7 2.1
2 -5 2 8.5 2
2 -5 2 11.7 10.3
2 -5 2 -0.8 11.2
2 -5 2 9.5 2
-2 4 -2 286.87 8.7
-2 4 -2 281.57 9.7
2 -4 2 269.47 9.1
2 -4 2 274.67 29.2
2 -4 2 272.37 8.5
2 -4 2 277.17 29.3
-2 3 -2 0 0.3
-2 3 -2 0.4 0.5
2 -3 2 5 5
2 -3 2 0.3 0.6
2 -3 2 -0.3 0.3
-2 2 -2 1285.17 20.6
-2 2 -2 1231.28 21.2
2 -2 2 1198.28 20.1
2 -2 2 1257.07 21.1
2 -2 2 1191.68 44.7
-2 1 -2 1949.2 29.2
2 -1 2 1945.11 29.1
2 -1 2 1945.01 28.5
2 -1 2 2023.6 46
-2 0 -2 766.02 11.7
-2 0 -2 740.03 12.1
-2 0 -2 758.12 14.2
2 0 2 760.72 13.7
-2 -1 -2 1903.81 25.8
-2 -1 -2 1904.51 27.2
-2 -1 -2 1956.9 43.8
2 1 2 1895.21 27.1
2 1 2 1919.91 25.8
2 1 2 1929.41 44.6
-2 -2 -2 1178.38 43
-2 -2 -2 1189.08 18.6
-2 -2 -2 1165.88 16.5
2 2 2 1170.98 16.5
2 2 2 1141.89 18.2
-2 -3 -2 0.7 0.4
-2 -3 -2 0 0.3
-2 -3 -2 -0.9 2.6
2 3 2 0 0.3
2 3 2 0.4 0.3
-2 -4 -2 275.37 6.4
-2 -4 -2 267.77 8
-2 -4 -2 262.77 27.9
-2 -4 -2 279.07 30.6
2 4 2 269.87 6.3
2 4 2 274.27 8
-2 -5 -2 5.3 9.4
-2 -5 -2 9.3 1.4
-2 -5 -2 8.5 1.7
-2 -5 -2 9 15.6
2 5 2 10.6 1.5
2 5 2 9 1.8
-2 5 -3 41.2 3.6
-2 5 -3 35.6 4
2 -5 3 35.8 3.5
2 -5 3 9.8 9.9
2 -5 3 23.4 14.1
2 -5 3 34.7 3.3
-2 4 -3 3.8 1.3
-2 4 -3 1.6 0.8
2 -4 3 2.1 0.8
2 -4 3 2.5 1.1
2 -4 3 11.3 6.7
2 -4 3 5 6.6
-2 3 -3 164.18 6
-2 3 -3 159.28 6.4
2 -3 3 157.88 6.3
2 -3 3 169.78 19.5
2 -3 3 163.08 5.9
2 -3 3 175.38 20.4
-2 2 -3 715.13 13.8
-2 2 -3 697.73 14.3
2 -2 3 691.83 13.5
2 -2 3 704.33 33.2
2 -2 3 723.63 34.2
-2 1 -3 415.76 8.5
-2 1 -3 416.06 19
-2 1 -3 417.96 9.1
2 -1 3 419.66 8.5
2 -1 3 421.16 19
-2 0 -3 -0.4 0.1
-2 0 -3 -1.1 0.7
-2 0 -3 -0.1 0.2
2 0 3 -0.6 0.6
-2 -1 -3 404.26 18
-2 -1 -3 391.86 6.3
-2 -1 -3 390.36 6.3
2 1 3 396.66 8
2 1 3 413.16 18.6
-2 -2 -3 681.43 31.4
-2 -2 -3 665.53 9.5
-2 -2 -3 695.53 12.7
2 2 3 673.63 12.4
2 2 3 679.53 33
2 2 3 671.53 9.5
-2 -3 -3 166.68 5.6
-2 -3 -3 166.58 19
-2 -3 -3 155.38 18.9
-2 -3 -3 152.08 3.3
2 3 3 155.18 5.2
2 3 3 150.48 3.3
-2 -4 -3 3.2 0.6
-2 -4 -3 11.2 7.1
-2 -4 -3 2.5 1
2 4 3 3.9 1.1
2 4 3 1.9 0.6
-2 -5 -3 38.2 20.5
-2 -5 -3 33.7 15.1
-2 -5 -3 31.2 3.1
2 5 3 36.9 2
2 5 3 40 3.2
-2 5 -4 3.4 1.6
-2 5 -4 9.2 3.6
2 -5 4 25.8 14.1
2 -5 4 -1.6 13.2
2 -5 4 3.5 1.5
-2 4 -4 273.47 9.1
-2 4 -4 272.67 9.8
2 -4 4 256.97 29.1
2 -4 4 259.87 29
2 -4 4 254.87 8.8
-2 3 -4 21.5 2.2
-2 3 -4 26.4 4.7
2 -3 4 34.8 11
2 -3 4 20.3 2.1
-2 2 -4 221.08 7.2
2 -2 4 235.58 19.6
2 -2 4 214.38 6.5
-2 1 -4 0.9 0.5
-2 1 -4 1.7 0.8
-2 1 -4 3.3 2.6
2 -1 4 4.2 2.1
2 -1 4 1.7 0.6
-2 0 -4 4.3 0.9
-2 0 -4 4.2 2.1
2 0 4 5.9 2.3
2 0 4 3.7 0.7
-2 -1 -4 2.1 0.7
-2 -1 -4 1.3 0.3
-2 -1 -4 1.7 0.4
-2 -1 -4 2.7 2.3
2 1 4 0.3 1.4
-2 -2 -4 228.88 18
-2 -2 -4 216.98 6.3
2 2 4 213.48 6.1
2 2 4 207.98 18.2
-2 -3 -4 25.3 8.8
-2 -3 -4 22 2.1
2 3 4 20 1.9
-2 -4 -4 236.58 29.3
-2 -4 -4 241.08 27
-2 -4 -4 258.17 8.3
2 4 4 249.48 7.8
-2 -5 -4 5.8 2
-2 -5 -4 -2.7 9.2
-2 -5 -4 -8 11
2 5 4 3.3 1.4
-2 5 -5 102.59 6.4
-2 5 -5 100.29 6
2 -5 5 104.69 6.3
2 -5 5 106.59 25.7
-2 4 -5 -0.6 0.7
2 -4 5 1.9 1
2 -4 5 2.2 5.4
2 -4 5 -2.2 5.5
-2 3 -5 195.18 7.6
-2 3 -5 194.28 7.4
2 -3 5 195.88 7.1
2 -3 5 180.68 20.7
2 -3 5 219.18 23.1
-2 2 -5 30.7 2.4
-2 2 -5 32.7 2.7
-2 2 -5 27.6 7.8
2 -2 5 34.4 2.5
2 -2 5 28.3 7.8
-2 1 -5 79.69 3.8
-2 1 -5 66.19 8.4
-2 1 -5 77.69 3.8
-2 1 -5 76.99 3.4
2 -1 5 69.49 8.5
2 -1 5 73.39 3.3
-2 0 -5 0.6 1.2
2 0 5 2.6 1.6
2 0 5 0.1 0.2
-2 -1 -5 75.89 3.6
-2 -1 -5 78.19 8.8
-2 -1 -5 76.29 2.3
-2 -1 -5 77.19 2.3
2 1 5 72.89 8.6
2 1 5 77.59 3.6
-2 -2 -5 28.3 2.3
-2 -2 -5 36 8.4
2 2 5 29.7 2.2
2 2 5 15 5.5
-2 -3 -5 168.88 19.3
-2 -3 -5 182.58 6.6
2 3 5 193.28 6.5
-2 -4 -5 -2.6 7.4
-2 -4 -5 -0.1 0.9
-2 -5 -5 97.19 5.5
-2 -5 -5 92.39 22.7
2 5 5 98.69 5.3
-2 5 -6 12.4 2.6
-2 5 -6 21 4.5
2 -5 6 7 14.8
-2 4 -6 245.38 9.3
-2 4 -6 248.58 9.9
2 -4 6 242.28 9.1
2 -4 6 258.27 30.7
-2 3 -6 1.4 0.9
-2 3 -6 2.5 1.1
2 -3 6 3.2 5.3
2 -3 6 -3.3 3.8
-2 2 -6 321.77 15.4
-2 2 -6 419.16 27.9
-2 2 -6 420.46 11.1
-2 2 -6 409.36 10.4
2 -2 6 406.46 10.7
2 -2 6 432.56 27.7
-2 1 -6 233.58 6.7
-2 1 -6 225.58 16.4
-2 1 -6 233.08 7.4
2 -1 6 235.78 16.2
2 -1 6 219.18 6.5
-2 0 -6 490.15 9.6
-2 0 -6 489.35 21.9
-2 0 -6 475.95 11.2
2 0 6 477.25 9.5
2 0 6 485.25 21.2
-2 -1 -6 231.58 4.9
-2 -1 -6 238.28 16.4
-2 -1 -6 237.88 7.4
2 1 6 227.58 7
2 1 6 251.37 16.7
-2 -2 -6 417.76 26.2
-2 -2 -6 402.06 10.4
2 2 6 408.36 27.2
2 2 6 388.76 10
-2 -3 -6 1.1 0.8
-2 -3 -6 2.6 3.1
2 3 6 1.7 4.1
2 3 6 1.8 0.7
-2 -4 -6 235.78 29.8
-2 -4 -6 252.57 28
-2 -4 -6 231.18 8.6
2 4 6 243.78 8.3
-2 -5 -6 23 2.9
-2 -5 -6 15.5 16.5
2 -4 7 4.9 8.6
-2 3 -7 257.87 9
-2 3 -7 273.27 9.7
2 -3 7 281.37 27.6
-2 2 -7 219.78 8
-2 2 -7 226.38 7.6
-2 2 -7 221.38 8.2
-2 2 -7 215.18 20.1
2 -2 7 211.08 7.4
2 -2 7 226.68 20.4
-2 1 -7 963.3 19.4
-2 1 -7 971.5 38.3
-2 1 -7 992.8 18.1
2 -1 7 1033.5 38
2 -1 7 956.4 17.9
-2 0 -7 0.1 0.4
-2 0 -7 0 0.5
-2 0 -7 1.5 2
2 0 7 2.5 2
2 0 7 0.4 0.4
-2 -1 -7 954.4 36.4
-2 -1 -7 903.81 15.5
-2 -1 -7 966.3 18.9
2 1 7 976.3 18.7
2 1 7 960.9 36.4
-2 -2 -7 200.08 7.4
-2 -2 -7 201.88 19
2 2 7 211.68 7.3
2 2 7 204.28 19.7
-2 -3 -7 250.07 8.8
2 3 7 274.77 26.5
2 3 7 249.08 8.4
-2 -4 -7 2.2 1.1
-2 -4 -7 7.7 8
2 4 7 0.5 0.8
-2 4 -8 139.79 7.8
-2 4 -8 138.49 7.2
-2 4 -8 144.39 7.5
2 -4 8 142.69 24.1
-2 3 -8 1.2 1.1
-2 3 -8 2.5 1.3
-2 3 -8 1.6 0.9
2 -3 8 2.4 1
2 -3 8 5.1 7.3
-2 2 -8 337.37 9.9
-2 2 -8 334.67 10.7
2 -2 8 312.57 9.6
2 -2 8 307.77 24.5
-2 1 -8 209.38 17.8
-2 1 -8 207.88 6.8
-2 1 -8 200.38 7.8
2 -1 8 213.48 17.6
2 -1 8 202.58 6.8
-2 0 -8 634.74 29.9
-2 0 -8 649.93 12.7
-2 0 -8 634.04 14.9
2 0 8 623.14 28.4
2 0 8 644.64 12.6
-2 -1 -8 190.38 4.8
-2 -1 -8 187.58 7.3
-2 -1 -8 192.38 16.6
2 1 8 206.48 17.1
2 1 8 192.18 7.1
-2 -2 -8 305.67 10
2 2 8 332.57 25.8
2 2 8 310.07 9.6
-2 -3 -8 -7.5 6.1
-2 -3 -8 0.7 1.1
2 3 8 2.2 5.1
2 3 8 -0.4 0.9
-2 -4 -8 129.39 6.7
-2 4 -9 10.1 2.3
-2 4 -9 17.9 3
2 -4 9 -2.8 10.3
-2 3 -9 123.69 7
-2 3 -9 120.69 6.4
-2 3 -9 122.39 6.9
2 -3 9 118.99 6.3
-2 2 -9 29.1 3.1
-2 2 -9 28.5 2.8
2 -2 9 32.5 10.1
-2 1 -9 481.95 30.6
-2 1 -9 465.45 11.6
-2 1 -9 483.65 13.4
2 -1 9 485.95 28.2
2 -1 9 471.85 11.7
-2 0 -9 0.5 3.5
-2 0 -9 -1 0.6
-2 0 -9 0.5 0.5
2 0 9 0.2 0.4
2 0 9 2.8 3.7
-2 -1 -9 380.16 31.8
-2 -1 -9 449.26 8.9
-2 -1 -9 462.25 12.8
2 1 9 450.35 12.4
2 1 9 472.75 27.5
-2 -2 -9 34.9 3.4
2 2 9 25.5 10.4
2 2 9 32.5 3.1
-2 -3 -9 96.39 19.2
-2 -3 -9 119.59 6.5
-2 -4 -9 15.3 2.8
2 4 9 14.6 3
-2 3 -10 -0.7 1
-2 3 -10 1.5 1.6
-2 3 -10 0.6 1
2 -3 10 2.7 1.3
-2 2 -10 61.89 7.6
-2 2 -10 49.2 15.2
-2 2 -10 62.19 4.3
-2 2 -10 59.29 4.8
2 -2 10 57.19 4.2
2 -2 10 49.7 14.7
-2 1 -10 27.8 3.2
-2 1 -10 29.7 11.6
-2 1 -10 26.6 2.6
2 -1 10 32.7 2.7
2 -1 10 32.8 9
-2 0 -10 119.59 4.9
-2 0 -10 113.89 6.2
-2 0 -10 102.49 14.1
2 0 10 111.39 15
-2 -1 -10 24.6 2.9
-2 -1 -10 19.7 12.3
-2 -1 -10 27.7 1.9
2 1 10 30.3 8.5
-2 -2 -10 61.59 15.4
-2 -2 -10 52.29 4.5
2 2 10 51.19 4.6
2 2 10 54.99 15.6
-2 -3 -10 0.2 1.1
2 3 10 -0.6 1.3
-2 3 -11 53.79 4.6
-2 3 -11 64.19 5.4
-2 2 -11 -2.8 1.2
-2 2 -11 -0.8 0.8
2 -2 11 -2 1.3
-2 1 -11 46.7 3.5
-2 1 -11 48.1 12.2
-2 1 -11 53.19 4.5
2 -1 11 49.5 3.5
-2 0 -11 -0.7 0.5
-2 0 -11 -0.2 1.1
-2 0 -11 5.1 4.7
2 0 11 -5.7 4.3
-2 -1 -11 51.09 2.6
-2 -1 -11 37.9 11.2
-2 -1 -11 51.59 4.4
-2 -2 -11 0.4 0.9
2 2 11 1.2 1
-2 -3 -11 48.6 4.9
2 3 11 50.89 4.7
-2 2 -12 49.8 4.8
-2 2 -12 44.8 4
2 -2 12 45.2 4.1
-2 1 -12 0.5 1
-2 1 -12 0.1 1.1
2 -1 12 1.2 1
-2 0 -12 118.89 7.1
-2 0 -12 121.09 5.5
-2 -1 -12 -1.2 0.6
-2 -1 -12 3.1 1.3
-2 -1 -12 -0.9 0.7
-2 -2 -12 36.9 4.3
-2 0 -13 -1.3 0.9
-2 0 -13 1.7 1.3
3 -2 -14 109.89 7.6
-3 1 14 3.4 0.9
3 -1 -14 2.2 0.9
3 -1 -14 3.2 1.5
-3 0 14 29.7 2.8
3 0 -14 26.3 4.2
3 0 -14 36.2 3
-3 -1 14 -0.7 1.3
3 1 -14 1.8 1.3
3 1 -14 -1.2 1.8
3 2 -14 121.09 7.4
3 2 -14 112.39 6.6
3 -3 -13 56.29 5.5
-3 2 13 0.3 1.4
3 -2 -13 0.1 0.4
3 -2 -13 -1.3 1.4
-3 1 13 277.47 10.8
-3 1 13 276.27 7.4
3 -1 -13 285.77 11.3
3 -1 -13 280.27 7.4
3 -1 -13 298.57 32.6
-3 0 13 -0.7 1.1
-3 0 13 -1 6.4
3 0 -13 -8.7 5.1
3 0 -13 -1.1 0.5
3 0 -13 0.5 1
3 1 -13 255.57 31.4
3 1 -13 282.27 11
3 1 -13 275.47 9.1
-3 -2 13 0.5 1.2
3 2 -13 -0.2 1.1
3 2 -13 -0.4 0.6
3 3 -13 70.99 5.5
3 3 -13 78.39 5.4
-3 3 12 302.77 12.4
3 -3 -12 306.57 12.2
-3 2 12 377.06 13.1
-3 2 12 363.16 35
-3 2 12 386.86 8.9
3 -2 -12 386.76 13.3
3 -2 -12 358.96 36
3 -2 -12 380.96 6.9
-3 1 12 47.4 14.8
-3 1 12 43.8 2.5
3 -1 -12 39 2.5
3 -1 -12 43.7 4.2
3 -1 -12 23.7 11.7
-3 0 12 35.2 16.8
-3 0 12 32.9 3.3
-3 0 12 28.5 3
3 0 -12 34.3 2.8
3 0 -12 39.4 3.7
-3 -1 12 21.1 9.8
-3 -1 12 51.59 3.6
3 1 -12 44.3 4
3 1 -12 50.49 3.6
3 1 -12 21.2 12.4
-3 -2 12 412.16 12.2
-3 -2 12 396.56 36.6
3 2 -12 401.66 11.9
3 2 -12 368.16 38.2
3 2 -12 413.56 13
-3 -3 12 312.67 14.2
3 3 -12 308.87 11.6
3 3 -12 303.27 11
3 3 -12 312.87 11.4
3 -4 -11 2.1 1.7
-3 3 11 20.3 10.8
-3 3 11 20.8 3.5
3 -3 -11 12 11.9
3 -3 -11 15.4 2.9
-3 2 11 22.6 10
-3 2 11 21 2.7
3 -2 -11 20.5 1.2
3 -2 -11 18.4 3
-3 1 11 375.16 8.6
-3 1 11 374.26 32.6
3 -1 -11 363.76 31.8
3 -1 -11 382.46 12.2
3 -1 -11 383.26 8.5
-3 0 11 5 4.4
-3 0 11 0 0.5
3 0 -11 1 0.6
3 0 -11 0.6 1
3 0 -11 -4.6 5.4
-3 -1 11 377.96 32.3
-3 -1 11 378.36 10.5
3 1 -11 380.46 11.7
3 1 -11 373.26 32.7
3 1 -11 383.66 10.4
-3 -2 11 21.3 9.7
3 2 -11 23.4 2.8
3 2 -11 23.5 2.7
-3 -3 11 48.6 14.5
-3 -3 11 14.6 2.6
3 3 -11 18.5 2.9
3 3 -11 23.1 16.3
3 3 -11 19.3 3.4
3 3 -11 16.9 3
3 4 -11 2.2 1.4
3 4 -11 -0.1 1.5
3 4 -11 3.7 1.7
-3 4 10 7.6 2.5
3 -4 -10 19.5 13.3
3 -4 -10 11.4 2.4
-3 3 10 68.49 20.4
-3 3 10 55.49 4.5
3 -3 -10 60.79 4.9
-3 2 10 608.94 15.6
-3 2 10 580.04 41.2
3 -2 -10 595.64 9.9
3 -2 -10 628.54 16.2
3 -2 -10 582.44 41
-3 1 10 -2.4 4.5
-3 1 10 1.5 0.5
3 -1 -10 4.9 6.3
3 -1 -10 0.9 0.7
3 -1 -10 1.5 0.6
-3 0 10 147.89 5.2
-3 0 10 150.78 6.5
-3 0 10 149.99 19.1
3 0 -10 157.18 5.3
3 0 -10 124.99 17.6
3 0 -10 153.98 6.7
-3 -1 10 0.8 0.9
-3 -1 10 1.9 0.8
-3 -1 10 3.8 4.5
3 1 -10 -1.6 4.8
3 1 -10 0.6 0.7
3 1 -10 0.6 0.8
-3 -2 10 639.14 15.2
-3 -2 10 653.53 44.2
3 2 -10 624.44 14.9
3 2 -10 647.84 15.5
3 2 -10 651.63 46.1
-3 -3 10 58.29 4.2
-3 -3 10 72.09 27.4
3 3 -10 61.69 4.4
3 3 -10 64.09 4.5
3 4 -10 13.2 4.1
3 4 -10 7.8 2.1
3 4 -10 10.5 13.4
3 4 -10 9.6 2.3
-3 4 9 25.4 13
3 -4 -9 26.1 4
-3 3 9 28.4 12.7
3 -3 -9 28.2 12.8
3 -3 -9 35.5 3.6
-3 2 9 174.98 7.2
-3 2 9 164.38 3.9
-3 2 9 172.48 21.7
3 -2 -9 193.98 22.2
3 -2 -9 172.88 3.9
-3 1 9 204.88 5.4
-3 1 9 211.18 7.6
-3 1 9 202.18 22.1
3 -1 -9 214.68 7.9
3 -1 -9 215.28 5.4
3 -1 -9 191.38 20.9
-3 0 9 -0.5 0.3
-3 0 9 1.4 3.2
3 0 -9 0.6 0.5
3 0 -9 -1.2 4.2
3 0 -9 0.2 0.4
-3 -1 9 220.68 7.5
-3 -1 9 223.98 7
-3 -1 9 230.28 22.9
3 1 -9 220.18 23.1
3 1 -9 211.88 6.8
3 1 -9 217.98 7.6
-3 -2 9 173.58 22.3
-3 -2 9 192.68 7
3 2 -9 181.88 6.9
3 2 -9 178.78 6.9
3 2 -9 157.68 22.1
-3 -3 9 43.8 14.4
3 3 -9 29.6 3
3 3 -9 37.3 3.9
3 3 -9 33.5 3.2
3 3 -9 34.7 14.4
-3 -4 9 22.3 3.3
-3 -4 9 21.9 16
3 4 -9 29.3 3.3
3 4 -9 24.3 2.8
3 4 -9 37.4 22.7
-3 5 8 49.5 5.7
3 -5 -8 48.4 19.4
3 -5 -8 45.4 4.7
-3 4 8 191.68 28.3
-3 4 8 226.08 9.2
3 -4 -8 202.08 28.1
3 -4 -8 221.88 9.5
-3 3 8 117.89 6
-3 3 8 124.39 20.2
3 -3 -8 125.49 6.5
3 -3 -8 111.79 19.3
-3 2 8 395.56 11.3
-3 2 8 406.06 7.2
-3 2 8 445.06 33.1
3 -2 -8 394.76 32.7
3 -2 -8 417.06 11.7
3 -2 -8 409.36 7.2
-3 1 8 31.8 2.7
-3 1 8 19.1 6.8
-3 1 8 28.9 1.7
3 -1 -8 31.3 1.8
3 -1 -8 23.9 7.9
3 -1 -8 28.9 2.6
-3 0 8 172.18 18.3
-3 0 8 188.28 6.5
-3 0 8 181.18 5.4
3 0 -8 185.58 6.5
3 0 -8 176.48 18.3
3 0 -8 180.38 5.3
-3 -1 8 33.7 2.6
-3 -1 8 27.3 2.2
-3 -1 8 29.4 9.2
3 1 -8 31.9 2.3
3 1 -8 32.8 2.6
3 1 -8 49.5 13.2
-3 -2 8 428.46 10.9
-3 -2 8 414.36 32.3
3 2 -8 431.06 10.9
3 2 -8 426.46 10.8
3 2 -8 417.06 41.7
-3 -3 8 111.39 18.8
3 3 -8 116.09 5.7
3 3 -8 121.19 5.6
3 3 -8 132.09 5.6
3 3 -8 141.59 27.6
-3 -4 8 255.67 32.8
-3 -4 8 225.88 10.7
3 4 -8 234.28 9
3 4 -8 213.38 32.2
3 4 -8 257.77 8.7
3 4 -8 235.98 8.7
3 5 -8 44.9 4.4
3 5 -8 51.69 4.1
3 5 -8 52.49 4.5
-3 5 7 65.09 5.3
-3 5 7 57.19 18.3
3 -5 -7 57.59 32.4
3 -5 -7 59.79 5
-3 4 7 35.2 1.3
-3 4 7 27.4 11.6
-3 4 7 35.1 1.3
3 -4 -7 29.9 3.6
3 -4 -7 14.8 10.4
-3 3 7 337.77 5.8
-3 3 7 340.17 5.8
-3 3 7 318.97 10.3
-3 3 7 316.77 30.6
3 -3 -7 357.06 11
3 -3 -7 326.57 31.4
-3 2 7 -0.1 0.2
-3 2 7 0.4 0.6
-3 2 7 4.7 4.8
3 -2 -7 -1.8 3.1
3 -2 -7 0.9 0.6
3 -2 -7 0 0.3
-3 1 7 878.11 14.3
-3 1 7 922.11 42.4
-3 1 7 898.31 17.4
3 -1 -7 878.71 17.5
3 -1 -7 882.81 41
3 -1 -7 898.71 15.6
-3 0 7 0.6 0.4
-3 0 7 4.1 2.9
-3 0 7 -0.3 0.3
3 0 -7 0.1 0.4
3 0 -7 -0.2 0.2
3 0 -7 3.8 2.9
-3 -1 7 914.11 16.8
-3 -1 7 901.91 16.6
-3 -1 7 929.81 42.9
3 1 -7 883.71 16.3
3 1 -7 948.91 43.9
3 1 -7 905.81 16.9
-3 -2 7 1.9 0.9
-3 -2 7 -0.9 3.5
3 2 -7 1.1 0.6
3 2 -7 3.6 5.2
3 2 -7 0.6 0.6
-3 -3 7 360.16 10.4
-3 -3 7 354.36 32.8
3 3 -7 377.86 33.9
3 3 -7 359.66 10.7
3 3 -7 367.36 9.7
3 3 -7 363.16 9.9
-3 -4 7 43.2 3.6
-3 -4 7 28.3 15
3 4 -7 32 2.9
3 4 -7 36.3 3.4
3 4 -7 44.3 14.7
3 4 -7 34.1 3
-3 -5 7 24.8 15.2
-3 -5 7 31.1 16.4
3 5 -7 68.69 5
3 5 -7 63.49 4.2
-3 5 6 2.4 1.3
-3 5 6 0 0.6
-3 5 6 -0.5 0.5
3 -5 -6 -10.5 8.8
3 -5 -6 0 1.2
-3 4 6 654.33 49.2
-3 4 6 698.93 11.6
-3 4 6 677.23 17.1
-3 4 6 701.83 12.1
3 -4 -6 687.13 48.8
3 -4 -6 707.73 17.6
-3 3 6 1.7 1
-3 3 6 4.3 1
-3 3 6 3.9 0.7
-3 3 6 2.9 5
3 -3 -6 -3.1 4.7
3 -3 -6 4.2 1.5
-3 2 6 120.49 5.2
-3 2 6 125.59 16.3
-3 2 6 120.49 3.1
3 -2 -6 129.19 5.6
3 -2 -6 132.19 16.3
-3 1 6 66.39 10.5
-3 1 6 61.79 2.3
-3 1 6 62.89 3.3
3 -1 -6 42.7 8.9
3 -1 -6 62.49 2.3
3 -1 -6 66.29 3.5
-3 0 6 931.11 38.5
-3 0 6 912.31 16.2
-3 0 6 886.01 14.9
3 0 -6 883.71 16.1
3 0 -6 914.11 14.9
3 0 -6 877.11 37.9
-3 -1 6 68.59 3.1
-3 -1 6 62.09 3
-3 -1 6 59.99 10.1
3 1 -6 64.39 3
3 1 -6 62.29 10.3
3 1 -6 64.49 3.1
-3 -2 6 129.59 5
-3 -2 6 123.09 16.6
3 2 -6 129.49 17
3 2 -6 126.69 4.9
3 2 -6 125.29 4.6
3 2 -6 130.59 4.6
-3 -3 6 6 7
-3 -3 6 2 0.8
3 3 -6 4.1 1.2
3 3 -6 7.9 1.7
3 3 -6 -3 4
3 3 -6 3.7 1
-3 -4 6 713.43 16.8
-3 -4 6 724.43 51.59
3 4 -6 773.72 54.69
3 4 -6 733.13 15.5
3 4 -6 688.03 15.7
3 4 -6 739.63 16.8
-3 -5 6 -8.5 9.1
-3 -5 6 -18.5 9.3
-3 -5 6 5.2 1.3
3 5 -6 0.7 0.8
3 5 -6 2.5 1.2
3 5 -6 0.1 0.8
-3 5 5 8.7 2.3
-3 5 5 8.6 1.3
-3 5 5 12.5 1.6
3 -5 -5 7.7 2.2
-3 4 5 155.48 4.6
-3 4 5 153.28 7.1
-3 4 5 159.88 4.6
-3 4 5 177.38 25.1
3 -4 -5 149.09 7.1
3 -4 -5 174.18 23.8
-3 3 5 513.55 9.8
-3 3 5 515.75 13
-3 3 5 528.65 9.3
-3 3 5 533.05 38.1
3 -3 -5 536.35 13.4
3 -3 -5 459.15 34.2
-3 2 5 236.68 21.2
-3 2 5 231.78 7.3
3 -2 -5 227.18 20.5
3 -2 -5 227.58 7.3
-3 1 5 2150.08 33.4
-3 1 5 2329.27 64.19
3 -1 -5 2193.88 30.8
3 -1 -5 2187.48 33.8
3 -1 -5 2197.98 62.29
-3 0 5 0.3 0.3
-3 0 5 0.3 0.3
-3 0 5 -0.2 1.9
3 0 -5 -0.3 2.1
3 0 -5 0.3 0.4
3 0 -5 0 0.2
-3 -1 5 2271.37 32.9
-3 -1 5 2196.78 33.3
-3 -1 5 2262.07 64.09
3 1 -5 2265.17 33
3 1 -5 2250.87 33.2
3 1 -5 2342.27 65.69
-3 -2 5 231.08 6.7
-3 -2 5 227.98 21.6
3 2 -5 249.28 6.4
3 2 -5 226.88 6.7
3 2 -5 236.68 6.1
3 2 -5 252.47 23.3
-3 -3 5 484.95 37
-3 -3 5 559.24 12.7
3 3 -5 533.25 39.4
3 3 -5 551.84 12.7
3 3 -5 565.74 11.6
3 3 -5 565.94 12
-3 -4 5 171.38 6.8
-3 -4 5 166.98 23.6
3 4 -5 153.48 6.1
3 4 -5 174.28 52.99
3 4 -5 165.48 6.7
-3 -5 5 -4.5 11
-3 -5 5 1.1 10.5
-3 -5 5 13.7 2.3
3 5 -5 7.8 1.8
3 5 -5 9.7 2.1
-3 5 4 30.7 2.4
-3 5 4 27.9 4.1
-3 5 4 30.1 2.3
3 -5 -4 27.3 3.4
3 -5 -4 32.2 14.6
-3 4 4 460.85 9.6
-3 4 4 453.15 9.4
-3 4 4 447.26 12.9
-3 4 4 473.15 40
3 -4 -4 408.76 36.2
3 -4 -4 447.36 16.8
-3 3 4 16.6 1.3
-3 3 4 15.6 1.3
-3 3 4 12.2 2
-3 3 4 11.6 7.6
3 -3 -4 18.9 8.5
3 -3 -4 15.1 2
-3 2 4 8.6 1.6
-3 2 4 6.9 0.7
-3 2 4 7.9 4.3
3 -2 -4 7.5 1.4
3 -2 -4 8.1 5
-3 1 4 164.48 3.9
-3 1 4 163.48 5.1
-3 1 4 169.18 14.8
3 -1 -4 162.98 3.8
3 -1 -4 171.78 14.7
3 -1 -4 167.28 5.1
-3 0 4 1524.15 22.6
-3 0 4 1535.85 44.9
-3 0 4 1540.05 23.2
3 0 -4 1530.85 23.3
3 0 -4 1544.15 22.6
3 0 -4 1618.24 46.1
-3 -1 4 164.28 4.6
-3 -1 4 169.08 4.2
-3 -1 4 178.28 15.5
3 1 -4 164.78 14.7
3 1 -4 166.98 4.2
3 1 -4 170.38 4.7
-3 -2 4 6.5 4.8
-3 -2 4 9.4 1.5
3 2 -4 8.4 4.9
3 2 -4 9.7 1.1
3 2 -4 9.4 1
3 2 -4 8.5 1.3
-3 -3 4 13.2 7.4
-3 -3 4 17.6 1.9
3 3 -4 16.2 9.5
3 3 -4 15 1.6
3 3 -4 19 1.9
-3 -4 4 476.95 12.1
3 4 -4 465.55 11.3
3 4 -4 488.05 12.3
-3 -5 4 28.7 3
-3 -5 4 29.6 15.4
-3 -5 4 34 17.7
3 5 -4 24.6 2.9
3 5 -4 30.4 3
-3 5 3 3.1 1.4
-3 5 3 2.4 0.9
-3 5 3 2.3 0.9
3 -5 -3 2.4 1.1
3 -5 -3 -0.4 7.9
3 -5 -3 -6.7 8.6
-3 4 3 2 5.4
-3 4 3 1 0.9
3 -4 -3 -0.2 6.6
3 -4 -3 5.5 1.6
-3 3 3 340.37 7.6
-3 3 3 342.37 9.9
-3 3 3 345.37 7.5
-3 3 3 323.67 28.6
3 -3 -3 341.57 27.9
3 -3 -3 345.07 9.7
-3 2 3 24.9 2.1
-3 2 3 25.1 8.2
-3 2 3 22 1.4
3 -2 -3 28.7 8.6
3 -2 -3 26.9 2.2
-3 1 3 1273.37 18.7
-3 1 3 1265.17 20.3
3 -1 -3 1289.57 40.8
3 -1 -3 1281.97 18.7
-3 0 3 0.5 0.3
-3 0 3 0.3 0.4
-3 0 3 0.1 1
3 0 -3 0.6 1.5
3 0 -3 0 0.2
-3 -1 3 1294.77 19
-3 -1 3 1309.57 20.2
-3 -1 3 1416.96 43.5
3 1 -3 1295.97 20.2
3 1 -3 1305.47 19
3 1 -3 1381.46 43.8
-3 -2 3 24.9 1.8
-3 -2 3 17.9 6.1
3 2 -3 20 8.6
3 2 -3 24.3 1.8
-3 -3 3 354.36 30.3
-3 -3 3 337.87 8.6
3 3 -3 338.37 7.9
3 3 -3 363.86 31.2
3 3 -3 349.17 8.8
-3 -4 3 -4 4.5
-3 -4 3 3.1 0.9
-3 -4 3 1.4 5.3
3 4 -3 6 1.2
3 4 -3 4.5 1.4
-3 -5 3 12.9 9.9
-3 -5 3 5.4 8.1
-3 -5 3 3.3 1.2
3 5 -3 4.2 1.2
3 5 -3 2.6 1.2
3 -5 -2 9.6 10
3 -5 -2 6.2 7.7
-3 4 2 249.38 9.1
-3 4 2 242.88 7.1
3 -4 -2 251.17 9
3 -4 -2 270.77 28.4
-3 3 2 152.68 4.8
-3 3 2 156.58 6.2
-3 3 2 159.18 19.1
3 -3 -2 156.48 6.1
3 -3 -2 164.38 19.2
-3 2 2 289.97 6.3
-3 2 2 268.77 7.5
-3 2 2 285.87 6.2
-3 2 2 224.48 22.8
3 -2 -2 291.27 21
3 -2 -2 271.27 7.4
-3 1 2 1.3 0.4
-3 1 2 0.4 1.2
3 -1 -2 1.7 0.7
3 -1 -2 1.7 0.5
3 -1 -2 3.1 1.9
-3 0 2 1594.74 22.4
-3 0 2 1591.84 38.5
-3 0 2 1606.64 22.3
3 0 -2 1589.64 22.4
3 0 -2 1463.55 37.6
3 0 -2 1573.84 22.3
-3 -1 2 2.8 2.4
-3 -1 2 2.3 0.5
3 1 -2 2.4 0.6
3 1 -2 2 0.3
3 1 -2 -0.6 1
-3 -2 2 285.57 6.7
3 2 -2 281.37 22.1
3 2 -2 287.07 5.7
3 2 -2 288.47 6.7
-3 -3 2 161.08 5.2
-3 -3 2 159.78 4.6
-3 -3 2 153.98 19
3 3 -2 165.98 5.3
3 3 -2 159.48 4.8
-3 -4 2 240.78 28
-3 -4 2 231.88 27.7
-3 -4 2 257.97 7.1
-3 -4 2 267.47 7.8
3 4 -2 258.67 7.7
3 4 -2 250.27 7.3
-3 -5 2 -5 10.2
-3 -5 2 1.1 1
-3 -5 2 -10.7 6.4
-3 -5 2 2 0.8
3 5 -2 2.1 1
3 5 -2 2.9 0.9
-3 5 1 148.29 7.6
-3 5 1 140.69 5.9
3 -5 -1 102.79 22.2
3 -5 -1 162.98 24.1
3 -5 -1 128.49 6.9
-3 4 1 44.5 3.7
-3 4 1 49.6 3.1
3 -4 -1 70.09 18.5
3 -4 -1 44.9 14.5
3 -4 -1 48.2 3.7
-3 3 1 498.55 12.2
-3 3 1 479.15 33.2
-3 3 1 479.15 10.2
3 -3 -1 465.35 31.8
3 -3 -1 483.55 11.8
-3 2 1 156.28 4.5
-3 2 1 155.48 5.5
-3 2 1 169.98 16.1
3 -2 -1 159.88 15.1
3 -2 -1 166.98 5.5
-3 1 1 561.54 9.6
-3 1 1 598.04 23.2
-3 1 1 532.25 10.3
3 -1 -1 547.75 10.3
-3 0 1 -0.1 0.2
-3 0 1 0.7 0.9
-3 0 1 0.1 0.2
3 0 -1 0 0.2
3 0 -1 0.4 0.3
3 0 -1 -0.4 0.7
-3 -1 1 562.54 23.5
-3 -1 1 526.35 11.8
3 1 -1 562.14 9.4
-3 -2 1 163.48 4.4
-3 -2 1 161.68 3.5
-3 -2 1 159.88 15.7
3 2 -1 159.08 3.6
3 2 -1 183.18 17.3
3 2 -1 159.68 4.4
-3 -3 1 489.25 34.5
-3 -3 1 474.95 33.8
-3 -3 1 483.75 10
-3 -3 1 486.45 9.7
3 3 -1 485.65 10
3 3 -1 486.85 9.6
-3 -4 1 49 2.9
-3 -4 1 43.6 14.9
-3 -4 1 44.8 2.6
-3 -4 1 53.79 15
3 4 -1 43.6 2.8
3 4 -1 41.6 2.7
-3 -5 1 115.99 26.9
-3 -5 1 142.79 5.8
-3 -5 1 143.19 5.6
-3 -5 1 169.98 26.9
3 5 -1 135.09 5.7
3 5 -1 146.79 5.9
-3 5 0 0.8 1.5
3 -5 0 -5.7 8
3 -5 0 34.5 14.5
-3 4 0 212.88 8.4
-3 4 0 223.58 7.3
3 -4 0 190.18 25.1
3 -4 0 197.48 25.3
3 -4 0 228.78 8.4
-3 3 0 79.79 3.7
-3 3 0 81.29 4.4
3 -3 0 81.59 4.3
3 -3 0 76.29 13.2
3 -3 0 52.59 12.7
-3 2 0 1689.93 26.2
-3 2 0 1728.13 54.49
-3 2 0 1727.43 27.7
3 -2 0 1703.53 53.39
3 -2 0 1761.92 27.6
-3 1 0 6.4 3
-3 1 0 5.6 0.9
3 -1 0 6.1 2.5
-3 0 0 1379.86 19.9
-3 0 0 1441.46 27.6
-3 0 0 1372.16 20.1
3 0 0 1343.67 20
3 0 0 1437.36 27.7
3 0 0 1416.46 19.9
-3 -1 0 7 0.7
-3 -1 0 2.2 1.8
-3 -1 0 7.3 0.4
3 1 0 8.3 0.7
3 1 0 8.3 3.6
-3 -2 0 1664.33 24.4
-3 -2 0 1676.23 23.6
-3 -2 0 1679.83 54.39
3 2 0 1675.83 23.6
3 2 0 1694.93 24.4
-3 -3 0 45.6 12.2
-3 -3 0 78.89 3
-3 -3 0 78.09 13.3
-3 -3 0 78.09 3.1
3 3 0 78.49 3.1
3 3 0 79.19 3.1
-3 -4 0 216.48 6.3
-3 -4 0 231.68 28.5
-3 -4 0 197.88 24.5
-3 -4 0 216.88 6.3
3 4 0 208.98 6.2
3 4 0 211.38 6.4
-3 -5 0 1.7 0.9
-3 -5 0 -0.2 0.8
-3 -5 0 -5.6 8.9
-3 -5 0 0.8 10.4
3 5 0 0.6 0.6
3 5 0 -0.3 0.8
-3 5 -1 172.58 7.2
-3 5 -1 164.68 8.3
3 -5 1 167.98 7.9
3 -5 1 179.18 29.3
3 -5 1 149.59 31.5
-3 4 -1 8 1.9
-3 4 -1 8.5 1.7
3 -4 1 3.9 4.9
3 -4 1 4.8 5.8
-3 3 -1 507.15 12.5
-3 3 -1 476.85 11.1
3 -3 1 509.55 12.2
3 -3 1 496.55 11.2
3 -3 1 477.25 32.6
3 -3 1 443.76 42.9
-3 2 -1 22 2
3 -2 1 23.8 2
3 -2 1 15.9 6.1
-3 1 -1 1679.93 26.1
-3 1 -1 1749.03 25.5
3 -1 1 1731.13 40.5
3 -1 1 1732.93 26.2
-3 0 -1 -0.1 0.2
-3 0 -1 -0.1 0.2
-3 -1 -1 1730.93 41.2
-3 -1 -1 1638.54 23.3
-3 -1 -1 1666.53 40.5
-3 -1 -1 1632.54 23.3
3 1 1 1634.64 23.1
3 1 1 1703.33 23.4
-3 -2 -1 22.3 1.4
-3 -2 -1 18 6.1
-3 -2 -1 24.1 7
3 2 1 19.4 1.2
3 2 1 19.7 1.2
-3 -3 -1 488.05 33.2
-3 -3 -1 454.95 33.1
-3 -3 -1 486.05 9.6
-3 -3 -1 482.05 9.1
3 3 1 479.65 9.6
3 3 1 485.15 9.1
-3 -4 -1 -1.3 4.8
-3 -4 -1 13.7 7.3
-3 -4 -1 7.3 1.2
-3 -4 -1 8 1.4
3 4 1 7.5 1.3
3 4 1 8.6 1.3
-3 -5 -1 132.79 26
-3 -5 -1 175.48 6.4
-3 -5 -1 160.98 5.5
3 5 1 176.08 5.7
3 5 1 172.28 6.4
-3 5 -2 1.8 1.1
-3 5 -2 3.7 1.7
3 -5 2 1.5 11
3 -5 2 -0.2 0.7
3 -5 2 -5.3 8.6
-3 4 -2 122.89 6.3
-3 4 -2 129.89 5.8
3 -4 2 109.59 18.9
3 -4 2 122.79 6.2
3 -4 2 133.19 21
3 -4 2 122.99 5.6
-3 3 -2 22.1 2.1
-3 3 -2 22.3 2.4
3 -3 2 9.3 5.7
3 -3 2 17.9 2.1
3 -3 2 24.2 2.1
3 -3 2 15.5 7.8
-3 2 -2 1324.47 21.9
-3 2 -2 1317.07 22.9
3 -2 2 1304.37 22.7
3 -2 2 1282.77 21.7
3 -2 2 1351.86 46.4
3 -2 2 1349.27 47.4
-3 1 -2 79.29 3.4
-3 1 -2 81.69 3.1
3 -1 2 81.49 3.4
3 -1 2 78.39 7.5
3 -1 2 70.29 8.3
-3 0 -2 470.85 8.3
-3 0 -2 472.75 8.3
-3 0 -2 443.26 8.6
-3 0 -2 452.65 8.6
-3 -1 -2 87.69 8.1
-3 -1 -2 82.09 2.7
-3 -1 -2 85.29 7.5
-3 -1 -2 77.79 2.3
3 1 2 75.29 2.7
3 1 2 82.29 2.3
-3 -2 -2 1302.77 45.3
-3 -2 -2 1245.98 46.2
-3 -2 -2 1251.37 18.3
-3 -2 -2 1300.47 19.8
3 2 2 1272.57 18.3
3 2 2 1269.27 19.5
-3 -3 -2 18.4 9.3
-3 -3 -2 19.7 1.7
-3 -3 -2 21.5 1.3
3 3 2 21.1 1.3
3 3 2 20.9 1.7
-3 -4 -2 117.79 3.8
-3 -4 -2 122.79 35.7
-3 -4 -2 118.79 4.8
-3 -4 -2 127.49 18.6
3 4 2 121.89 3.9
3 4 2 119.69 4.7
-3 -5 -2 -1.3 10.3
-3 -5 -2 3.8 1.2
-3 -5 -2 6.1 13
-3 -5 -2 1.6 0.8
3 5 2 2.7 1
3 5 2 3.6 1
-3 5 -3 99.79 6.8
-3 5 -3 109.99 6.1
3 -5 3 98.29 6.1
3 -5 3 123.09 27.3
3 -5 3 135.19 30.3
-3 4 -3 0.6 0.6
-3 4 -3 1.1 0.9
3 -4 3 8.3 5.5
3 -4 3 -1.2 0.6
3 -4 3 -6.2 4.5
3 -4 3 2.9 0.9
-3 3 -3 143.49 10.1
3 -3 3 158.18 19.2
3 -3 3 163.88 6.6
3 -3 3 160.78 6.2
-3 2 -3 4.4 1.1
-3 2 -3 -0.2 0.3
3 -2 3 2.5 2.4
3 -2 3 0.1 2.2
3 -2 3 0.6 0.4
3 -2 3 1.2 0.7
-3 1 -3 414.26 9.6
-3 1 -3 430.56 9.2
3 -1 3 448.16 18.6
3 -1 3 461.65 19.1
-3 0 -3 0 0.2
-3 0 -3 0.3 0.5
-3 0 -3 0.2 0.2
3 0 3 0.6 0.5
-3 -1 -3 410.46 8.4
-3 -1 -3 411.46 17.4
-3 -1 -3 416.66 7.1
3 1 3 404.66 8.2
-3 -2 -3 0.1 0.2
-3 -2 -3 2.9 2.8
-3 -2 -3 -2.9 2.5
-3 -2 -3 0.1 0.4
3 2 3 0.4 0.2
3 2 3 -0.1 0.3
-3 -3 -3 159.88 5.4
-3 -3 -3 157.28 18.1
-3 -3 -3 152.58 19
-3 -3 -3 157.98 3.5
3 3 3 155.78 3.4
3 3 3 153.68 5.1
-3 -4 -3 -0.4 5.5
-3 -4 -3 -8.1 5.6
-3 -4 -3 0.3 0.6
-3 -4 -3 0.1 0.4
3 4 3 -0.4 0.3
3 4 3 -0.4 0.5
-3 -5 -3 147.89 32.5
-3 -5 -3 94.29 4.9
-3 -5 -3 102.29 26.7
3 5 3 94.89 3.1
3 5 3 102.79 6.3
-3 5 -4 0.3 1.4
3 -5 4 -11.2 12.1
3 -5 4 0.8 1
-3 4 -4 129.39 6.2
3 -4 4 123.49 6
3 -4 4 125.89 21
-3 3 -4 21.2 2.2
-3 3 -4 23 2.5
3 -3 4 20.1 2.1
3 -3 4 21.3 9.8
3 -3 4 20.1 8.5
-3 2 -4 273.77 8.4
3 -2 4 274.17 7.8
3 -2 4 285.97 28.3
3 -2 4 271.17 20.5
-3 1 -4 29.4 2.1
-3 1 -4 39.1 5.5
-3 1 -4 30.9 2.3
3 -1 4 33.1 2.2
3 -1 4 31.5 4.8
-3 0 -4 62.69 4.8
-3 0 -4 68.99 3.2
-3 0 -4 67.59 2.7
3 0 4 67.39 4.7
-3 -1 -4 42.9 5.7
-3 -1 -4 31.4 1.5
-3 -1 -4 28.9 1.4
-3 -1 -4 32.5 2.1
3 1 4 35.9 5.2
3 1 4 27.8 1.9
-3 -2 -4 266.07 4.4
-3 -2 -4 265.87 4.4
-3 -2 -4 257.47 19.2
-3 -2 -4 268.27 7.2
3 2 4 268.47 7
-3 -3 -4 10.3 6
-3 -3 -4 20.1 2
-3 -3 -4 16.7 8.2
3 3 4 18.7 1.8
-3 -4 -4 123.99 5.4
-3 -4 -4 144.39 22.7
3 4 4 114.69 4.9
-3 -5 -4 10.3 10.7
-3 5 -5 61.49 6.7
-3 5 -5 59.29 5.5
3 -5 5 60.39 18.9
-3 4 -5 20.5 3.3
-3 4 -5 16.7 2.8
3 -4 5 20.7 2.5
3 -4 5 19.8 11.5
3 -4 5 11.3 9.3
-3 3 -5 144.49 6.7
-3 3 -5 140.09 6.1
3 -3 5 152.98 19.5
3 -3 5 134.39 18.1
-3 2 -5 7.5 1.6
-3 2 -5 5.6 1.2
3 -2 5 8.4 1.6
3 -2 5 11.2 5.3
-3 1 -5 257.37 7.6
-3 1 -5 245.08 7.6
-3 1 -5 229.18 6.7
-3 1 -5 251.37 15.4
3 -1 5 242.88 6.8
3 -1 5 251.47 14.7
-3 0 -5 0.4 1.1
-3 0 -5 0.2 0.3
-3 0 -5 -0.2 0.3
3 0 5 1.1 1.2
-3 -1 -5 241.48 5.2
-3 -1 -5 243.48 5.2
-3 -1 -5 243.58 14.6
-3 -1 -5 243.18 7
3 1 5 245.58 15.1
3 1 5 235.38 6.8
-3 -2 -5 9.1 1.6
-3 -2 -5 7.3 3.9
3 2 5 6.8 1.4
3 2 5 10.6 5
-3 -3 -5 143.89 17.7
-3 -3 -5 152.28 19.8
-3 -3 -5 140.49 5.7
3 3 5 143.19 5.5
-3 -4 -5 18.3 2.7
-3 -4 -5 -3.9 7.6
-3 -4 -5 20.6 15.6
3 4 5 17.6 2.1
-3 -5 -5 93.99 24.4
-3 -5 -5 66.79 4.4
3 5 5 59.19 4
-3 5 -6 7 2
-3 4 -6 221.68 8.9
-3 4 -6 223.38 10.5
3 -4 6 191.68 26
3 -4 6 222.48 30.7
3 -4 6 206.68 8.5
-3 3 -6 2.2 0.9
-3 3 -6 -1.4 0.6
3 -3 6 -3.8 3.8
3 -3 6 0.3 4.7
-3 2 -6 332.47 9.4
-3 2 -6 326.37 10.1
-3 2 -6 329.97 10.1
3 -2 6 322.27 22.9
3 -2 6 320.87 9.2
-3 1 -6 239.88 7.1
-3 1 -6 239.78 7.9
-3 1 -6 241.78 16.1
-3 1 -6 238.58 7.8
3 -1 6 232.98 6.9
3 -1 6 239.38 15.4
-3 0 -6 589.64 13
-3 0 -6 577.34 21.5
-3 0 -6 584.84 11.4
3 0 6 578.64 20.7
-3 -1 -6 231.08 7.4
-3 -1 -6 237.48 15.5
-3 -1 -6 246.98 5.4
3 1 6 244.48 7.4
3 1 6 253.87 16.1
-3 -2 -6 325.17 9.3
-3 -2 -6 331.17 22.8
3 2 6 336.17 9.1
3 2 6 325.37 23.6
-3 -3 -6 1.9 4.3
-3 -3 -6 1.1 0.8
3 3 6 0.6 0.6
-3 -4 -6 188.98 25.1
-3 -4 -6 207.08 7.8
-3 -4 -6 144.39 22.1
3 4 6 197.38 7.3
-3 -5 -6 11 2.4
3 5 6 12.6 2.7
-3 4 -7 29.7 3.6
-3 4 -7 23.7 3.8
3 -4 7 25.1 3.5
3 -4 7 19 17.5
-3 3 -7 170.08 7.9
-3 3 -7 190.38 8.2
-3 3 -7 204.58 8
3 -3 7 146.09 9.6
3 -3 7 220.98 24.4
3 -3 7 209.28 22.7
-3 2 -7 71.69 4.5
-3 2 -7 65.79 5
3 -2 7 76.29 4.3
3 -2 7 67.09 13.3
-3 1 -7 997.5 18.5
-3 1 -7 971.9 20
-3 1 -7 996 20.2
-3 1 -7 966.1 35.9
3 -1 7 983.1 18.5
3 -1 7 999.5 35
-3 0 -7 0.8 0.5
-3 0 -7 -0.1 0.4
-3 0 -7 3.7 2.6
3 0 7 -0.7 2
-3 -1 -7 1010.3 19.6
-3 -1 -7 962.5 35.1
-3 -1 -7 963.1 15.6
-3 -1 -7 975 15.6
3 1 7 990.5 19.2
3 1 7 926.81 34.6
-3 -2 -7 70.19 4.2
3 2 7 70.39 11.4
3 2 7 62.69 3.8
-3 -3 -7 199.18 7.7
3 3 7 196.58 7.3
-3 -4 -7 45.5 16.1
-3 -4 -7 24.6 2.9
3 4 7 27 2.8
-3 4 -8 213.68 9.3
3 -4 8 208.28 29.3
-3 3 -8 11.3 2.3
-3 3 -8 8.8 2.1
-3 3 -8 11 2.1
3 -3 8 23.3 9.1
3 -3 8 3.2 7.8
3 -3 8 11.9 2.2
-3 2 -8 240.08 9.1
-3 2 -8 248.88 8.4
3 -2 8 216.98 20.2
3 -2 8 227.08 8.1
-3 1 -8 215.58 7.1
-3 1 -8 227.98 17.6
-3 1 -8 214.58 8.2
-3 1 -8 216.48 8.2
3 -1 8 198.28 16
3 -1 8 206.88 7
-3 0 -8 382.86 20.9
-3 0 -8 395.06 9.3
-3 0 -8 400.26 11.4
3 0 8 403.46 20.4
-3 -1 -8 220.98 17.5
-3 -1 -8 221.68 8.2
-3 -1 -8 212.88 5.5
-3 -1 -8 223.98 5.6
3 1 8 217.58 7.9
3 1 8 226.18 17.1
-3 -2 -8 239.78 8.7
3 2 8 239.38 22.2
3 2 8 241.28 8.4
-3 -3 -8 9.8 2.2
-3 -3 -8 16.5 8.4
3 3 8 12 2
-3 -4 -8 195.68 8.4
-3 -4 -8 137.69 32.4
-3 3 -9 75.89 5.1
-3 3 -9 70.69 5.5
-3 3 -9 74.39 5.5
3 -3 9 74.59 16.7
3 -3 9 66.19 4.7
-3 2 -9 14.5 6.6
-3 2 -9 22.8 2.8
-3 2 -9 18.8 2.9
3 -2 9 17.9 7.2
-3 1 -9 527.65 14.5
-3 1 -9 521.85 13.1
-3 1 -9 523.15 28.6
-3 1 -9 509.05 14.2
3 -1 9 529.05 27.6
3 -1 9 523.55 12.7
-3 0 -9 0.9 0.6
-3 0 -9 0.5 0.7
-3 0 -9 6.1 4.1
-3 -1 -9 509.75 10.1
-3 -1 -9 514.55 10.1
-3 -1 -9 521.35 28
-3 -1 -9 531.35 14.2
3 1 9 471.35 26.3
-3 -2 -9 19.3 7.6
-3 -2 -9 14.7 2.5
3 2 9 14.8 2.4
3 2 9 7.8 6.2
-3 -3 -9 75.99 5.3
-3 3 -10 1.8 1.5
3 -3 10 -5.3 5.4
-3 2 -10 49.3 3.9
-3 2 -10 43 4.2
-3 2 -10 53.49 4.4
3 -2 10 53.59 4.2
-3 1 -10 22.1 7.7
-3 1 -10 12.5 2.1
-3 1 -10 10.7 2.4
-3 1 -10 11 2.1
3 -1 10 11.3 6.1
-3 0 -10 7.6 4.7
3 0 10 8.6 4.5
-3 -1 -10 19.9 2.6
-3 -1 -10 17.8 7.7
-3 -1 -10 16.1 1.6
-3 -1 -10 15.2 1.6
3 1 10 11 5.1
-3 -2 -10 41.7 4
3 2 10 43.2 3.8
-3 -3 -10 -0.4 1.1
3 3 10 -1.9 1.8
-3 2 -11 1.2 1.2
-3 2 -11 1.9 0.9
3 -2 11 0.1 1.1
-3 1 -11 38.7 4
-3 1 -11 37.1 4
-3 1 -11 38.4 3.3
-3 0 -11 -2 6.9
-3 0 -11 -1.7 0.7
-3 0 -11 -0.4 1
-3 -1 -11 39.2 4
-3 -1 -11 36.8 2.3
-3 -1 -11 30.2 2.1
-3 -2 -11 2.2 1.6
3 2 11 -0.3 1.4
-3 1 -12 25.2 2.9
-3 1 -12 22.6 3.7
-3 0 -12 56.69 3.7
-3 0 -12 58.59 6.3
-3 -1 -12 22.6 1.9
-3 -1 -12 29 6.7
-3 -1 -12 16.7 1.9
4 0 -15 0.7 1
-4 2 14 220.08 5.1
4 -2 -14 222.78 10.7
4 -2 -14 211.88 5.1
4 -1 -14 0.8 0.7
4 -1 -14 0.6 1.3
-4 0 14 197.98 9.2
-4 0 14 201.78 7.3
4 0 -14 206.28 9.7
4 0 -14 210.38 7.4
-4 -1 14 -1.3 1
4 1 -14 1.3 1.2
4 1 -14 1.2 1
-4 -2 14 220.48 10.8
4 2 -14 190.28 12.7
4 2 -14 223.18 9
4 -3 -13 91.79 6.8
-4 2 13 0.3 1.1
-4 2 13 0.4 0.6
4 -2 -13 3.8 1.8
4 -2 -13 1.3 0.6
-4 1 13 202.38 6.3
-4 1 13 195.28 8.8
-4 1 13 192.28 26.4
4 -1 -13 225.08 29.2
4 -1 -13 208.48 9.5
4 -1 -13 210.28 6.3
-4 0 13 -5.2 5.7
-4 0 13 -1.3 0.7
4 0 -13 0 0.6
4 0 -13 0.6 1.1
4 0 -13 -7.9 6.1
-4 -1 13 211.28 26.9
4 1 -13 197.88 8.8
4 1 -13 205.38 7.7
4 1 -13 225.38 29.2
-4 -2 13 1.1 1.3
4 2 -13 2.3 1.4
4 3 -13 117.39 6.9
4 3 -13 120.39 6.8
4 3 -13 106.79 7.3
4 -3 -12 7.9 13.8
-4 2 12 177.68 12.4
-4 2 12 199.28 5
-4 2 12 200.18 27.4
4 -2 -12 183.88 8.9
4 -2 -12 190.98 4.8
4 -2 -12 185.48 30.8
-4 1 12 16.1 9.8
-4 1 12 18.3 1.7
4 -1 -12 22 1.9
4 -1 -12 15.5 2.9
-4 0 12 140.89 21.1
-4 0 12 166.48 7.5
-4 0 12 158.28 7.4
4 0 -12 167.68 7.8
4 0 -12 112.19 34.8
4 0 -12 167.18 6.1
-4 -1 12 12.7 7.8
-4 -1 12 21.3 2.4
4 1 -12 20.4 3.1
4 1 -12 18.8 2.2
-4 -2 12 191.48 26.4
-4 -2 12 199.98 8.2
4 2 -12 183.48 30.6
4 2 -12 194.68 8.4
4 2 -12 205.38 8.1
-4 -3 12 8.2 2.1
4 3 -12 8 18
4 3 -12 5.5 3.2
4 3 -12 4.5 1.6
4 3 -12 3.1 1.4
4 -4 -11 5 1.9
-4 3 11 96.39 23.7
-4 3 11 112.39 6.7
4 -3 -11 120.89 7.2
4 -3 -11 133.39 31.7
-4 2 11 55.39 2.3
-4 2 11 54.79 15.1
4 -2 -11 55.39 4.5
4 -2 -11 56.49 2.4
4 -2 -11 48 14.3
-4 1 11 181.28 5.5
-4 1 11 172.88 23.1
4 -1 -11 195.68 8.3
4 -1 -11 186.08 5.6
4 -1 -11 197.08 23.8
-4 0 11 7 4.7
-4 0 11 0.9 0.7
-4 0 11 -0.8 0.4
4 0 -11 0.2 0.5
4 0 -11 -3.8 4.4
4 0 -11 -0.7 0.5
-4 -1 11 188.98 7
-4 -1 11 207.88 24.3
-4 -1 11 188.98 7.6
4 1 -11 198.78 8
4 1 -11 191.58 7
4 1 -11 180.28 23.9
-4 -2 11 58.19 16.7
4 2 -11 56.19 4
4 2 -11 61.79 4.4
4 2 -11 48.6 17.4
-4 -3 11 100.39 22.7
-4 -3 11 122.59 6.6
4 3 -11 124.29 6.5
4 3 -11 94.89 26.7
4 3 -11 122.69 6.3
4 4 -11 6.6 2.4
4 4 -11 4 1.6
4 4 -11 6.9 1.9
-4 4 10 73.49 5.9
4 -4 -10 87.29 24.4
4 -4 -10 91.79 6.5
-4 3 10 25.5 3.1
-4 3 10 26.6 12.3
4 -3 -10 38.1 16.4
4 -3 -10 27.9 3.5
-4 2 10 132.89 20.5
-4 2 10 130.29 3.7
4 -2 -10 129.89 3.7
4 -2 -10 83.89 17.1
4 -2 -10 126.59 6.6
-4 1 10 32.7 3
-4 1 10 30.4 2
-4 1 10 46.7 13.9
4 -1 -10 31.7 2.1
4 -1 -10 27.7 10.3
-4 0 10 171.68 5.8
-4 0 10 184.48 7.1
-4 0 10 219.28 23.2
4 0 -10 203.18 22.9
4 0 -10 174.18 5.8
4 0 -10 178.58 7.3
-4 -1 10 30.5 10.5
-4 -1 10 26.9 2.6
-4 -1 10 29.4 2.5
4 1 -10 27.2 11.2
4 1 -10 32 2.6
4 1 -10 30.7 2.9
-4 -2 10 130.09 6
-4 -2 10 139.09 20.3
4 2 -10 136.19 6.2
4 2 -10 139.19 6.1
4 2 -10 154.68 29.1
-4 -3 10 27.3 3.2
-4 -3 10 38.8 14.7
4 3 -10 27.3 2.9
4 3 -10 31.4 3.2
4 3 -10 27.8 2.9
4 3 -10 14.8 12.8
-4 -4 10 86.79 24.9
4 4 -10 87.49 5.4
4 4 -10 88.89 5.3
4 4 -10 93.69 25
4 4 -10 88.89 6.3
-4 4 9 -12.3 12
-4 4 9 8 2
4 -4 -9 8.8 2.2
-4 3 9 133.59 3
-4 3 9 135.49 3.1
-4 3 9 145.09 22.9
4 -3 -9 123.09 20.9
4 -3 -9 137.99 7.2
-4 2 9 2.3 1
-4 2 9 -2.5 4.4
4 -2 -9 2.3 0.6
4 -2 -9 0.4 1
4 -2 -9 1.3 3.8
-4 1 9 208.58 5.6
-4 1 9 205.68 22.3
-4 1 9 206.68 7.6
4 -1 -9 203.88 5.5
4 -1 -9 207.18 22.8
4 -1 -9 209.98 7.8
-4 0 9 -0.4 0.4
-4 0 9 -0.1 0.5
-4 0 9 -3.1 2.5
4 0 -9 0.4 0.6
4 0 -9 2.2 4.4
4 0 -9 0.9 0.7
-4 -1 9 208.28 7.1
-4 -1 9 209.58 6.8
-4 -1 9 226.08 23.5
4 1 -9 212.08 6.8
4 1 -9 225.68 24.2
4 1 -9 206.08 7.3
-4 -2 9 -3.8 3.4
-4 -2 9 0 0.8
4 2 -9 1.6 0.9
4 2 -9 8.7 7.9
4 2 -9 1.1 0.8
-4 -3 9 147.69 22.5
4 3 -9 137.69 6.5
4 3 -9 153.08 6.4
4 3 -9 155.78 24
4 3 -9 146.99 6.3
-4 -4 9 11.3 2.2
-4 -4 9 10.9 12.9
4 4 -9 10.2 2
4 4 -9 8.6 2.1
4 4 -9 9.4 1.9
-4 5 8 -3.1 14.7
4 -5 -8 36.2 19.8
-4 4 8 177.98 8.3
-4 4 8 188.78 3.8
-4 4 8 198.58 29.1
-4 4 8 187.18 3.9
4 -4 -8 185.58 27.8
4 -4 -8 192.58 8.9
-4 3 8 7.8 0.8
-4 3 8 3.9 5.9
-4 3 8 7.4 1
-4 3 8 5.5 1.5
4 -3 -8 8.9 2.1
4 -3 -8 12 7.7
-4 2 8 189.38 4.7
-4 2 8 175.48 23.9
-4 2 8 190.88 7.4
4 -2 -8 215.88 23.5
4 -2 -8 205.28 7.8
4 -2 -8 204.88 4.8
-4 1 8 16.9 1.4
-4 1 8 18.1 2
-4 1 8 12.5 5.3
4 -1 -8 19.9 7.7
4 -1 -8 24.5 2.4
4 -1 -8 21.6 1.6
-4 0 8 843.42 16.7
-4 0 8 839.62 15.3
-4 0 8 874.41 43.2
4 0 -8 850.51 15.3
4 0 -8 853.41 42.6
4 0 -8 867.21 17.1
-4 -1 8 20.9 1.9
-4 -1 8 22.6 2
-4 -1 8 10.9 7.2
4 1 -8 22.7 2.1
4 1 -8 19.2 1.9
4 1 -8 12.3 7.1
-4 -2 8 229.78 27.7
-4 -2 8 206.68 7.2
4 2 -8 216.28 7
4 2 -8 216.08 7.3
4 2 -8 195.38 24.1
-4 -3 8 8.8 8.1
4 3 -8 7.7 5.9
4 3 -8 10 1.9
4 3 -8 10 2
4 3 -8 10.8 1.9
-4 -4 8 186.78 8.8
-4 -4 8 203.58 30.5
4 4 -8 202.48 8.3
4 4 -8 222.78 31.4
4 4 -8 205.38 7.4
4 4 -8 190.48 7.5
-4 -5 8 8.3 14.1
4 5 -8 14.8 3.1
4 5 -8 12.3 2.4
-4 5 7 34.2 18.7
-4 5 7 37.9 4.2
-4 5 7 29.5 1.8
-4 5 7 39.3 2
4 -5 -7 39.3 4.2
-4 4 7 0.6 0.5
-4 4 7 -2.7 7.4
-4 4 7 -1.5 1
-4 4 7 0.5 0.5
4 -4 -7 -0.6 0.9
4 -4 -7 3 7.6
-4 3 7 423.66 36.1
-4 3 7 422.06 12.3
-4 3 7 424.06 8.8
-4 3 7 437.56 8.1
4 -3 -7 429.66 16.1
4 -3 -7 435.66 35.3
-4 2 7 5.1 1.3
-4 2 7 10.5 5.5
-4 2 7 5.9 0.9
4 -2 -7 3.1 1.2
4 -2 -7 5.2 0.8
4 -2 -7 2.4 4.3
-4 1 7 911.31 43.1
-4 1 7 873.11 14.7
-4 1 7 891.51 17.4
4 -1 -7 902.01 17.7
4 -1 -7 874.11 14.6
4 -1 -7 885.81 42.1
-4 0 7 1.5 2.7
4 0 -7 0.8 2.7
4 0 -7 1.5 0.7
4 0 -7 0.1 0.3
-4 -1 7 954.5 44.5
-4 -1 7 896.41 16.5
-4 -1 7 924.31 16.8
4 1 -7 914.81 16.8
4 1 -7 930.11 44.8
4 1 -7 908.01 16.7
-4 -2 7 7.3 1.4
-4 -2 7 0.3 4.4
4 2 -7 7.3 6.1
4 2 -7 7.5 1.3
4 2 -7 5.1 1.3
-4 -3 7 434.56 11.6
-4 -3 7 422.86 36.7
4 3 -7 449.66 10.6
4 3 -7 432.86 11.9
4 3 -7 450.85 10.9
4 3 -7 453.95 37.5
-4 -4 7 4.8 7.7
-4 -4 7 0.1 0.9
4 4 -7 2.2 1
4 4 -7 -4.4 8.4
4 4 -7 0.7 0.7
4 4 -7 0.6 0.9
-4 -5 7 40.2 5.7
-4 -5 7 60.89 36.4
4 5 -7 35 3.3
4 5 -7 33.7 3.1
4 5 -7 45.8 4
-4 5 6 5.2 10.5
-4 5 6 0.9 0.7
-4 5 6 2.5 0.8
-4 5 6 1.4 1.7
4 -5 -6 20.2 13.8
4 -5 -6 -0.3 1.4
-4 4 6 451.95 9.1
-4 4 6 457.05 9.3
-4 4 6 458.05 41.3
4 -4 -6 450.25 39.2
4 -4 -6 440.06 13.6
-4 3 6 1.2 0.7
-4 3 6 2.2 0.6
-4 3 6 -5.8 3.5
-4 3 6 2.6 0.7
4 -3 -6 1.9 4.8
4 -3 -6 2.5 1.1
-4 2 6 267.97 23.8
-4 2 6 260.37 8.2
-4 2 6 270.47 5.9
4 -2 -6 276.77 8.7
4 -2 -6 262.67 5.8
4 -2 -6 272.47 24.1
-4 1 6 80.09 11.9
-4 1 6 75.59 3.7
-4 1 6 78.29 2.8
4 -1 -6 74.99 2.8
4 -1 -6 68.49 11.1
4 -1 -6 76.39 3.9
-4 0 6 2408.66 68.49
-4 0 6 2384.86 35.6
-4 0 6 2386.46 34.6
4 0 -6 2385.26 35.8
4 0 -6 2390.16 34.6
4 0 -6 2332.37 67.99
-4 -1 6 73.29 3.2
-4 -1 6 77.09 3.4
-4 -1 6 66.99 11.3
4 1 -6 76.99 3.3
4 1 -6 64.49 11.2
4 1 -6 74.29 3.4
-4 -2 6 322.77 27
-4 -2 6 283.77 7.9
4 2 -6 253.17 24.6
4 2 -6 276.17 7.8
4 2 -6 282.27 7.1
-4 -3 6 -3.6 4
-4 -3 6 1.9 0.9
4 3 -6 2 0.8
4 3 -6 5 1.1
4 3 -6 3.2 1.1
-4 -4 6 465.15 41.3
-4 -4 6 473.55 12.9
4 4 -6 474.95 12.7
4 4 -6 463.85 11.1
4 4 -6 528.85 45.7
4 4 -6 473.45 11.7
-4 -5 6 4.3 9.9
-4 -5 6 17.4 12.3
-4 -5 6 0.5 1.1
4 5 -6 2.6 1.1
4 5 -6 1.3 1.3
4 5 -6 0.1 1.2
-4 5 5 1.7 1.4
-4 5 5 4.9 1
-4 5 5 1.4 1
4 -5 -5 4.4 1.9
4 -5 -5 13.6 10.9
-4 4 5 43.6 2.5
-4 4 5 43.8 3.8
-4 4 5 44.3 2.5
4 -4 -5 35.3 12.8
4 -4 -5 49 4.1
-4 3 5 548.45 38.9
-4 3 5 553.64 10.4
-4 3 5 558.04 10.5
4 -3 -5 543.05 37.8
4 -3 -5 560.24 14.2
-4 2 5 24.2 2.3
-4 2 5 24.4 1.5
-4 2 5 51.19 13.4
4 -2 -5 26.8 8.3
4 -2 -5 28.6 2.5
-4 1 5 2130.39 33
-4 1 5 2222.78 64.19
-4 1 5 2134.99 30.7
4 -1 -5 2122.39 33
4 -1 -5 2092.99 30.6
4 -1 -5 2187.18 63.19
-4 0 5 -1.4 1.2
-4 0 5 0 0.3
-4 0 5 0.3 0.3
4 0 -5 0.7 0.6
4 0 -5 2.5 2.9
4 0 -5 0.4 0.3
-4 -1 5 2212.58 64.69
-4 -1 5 2190.28 31.3
-4 -1 5 2154.48 32.2
4 1 -5 2196.58 32.3
4 1 -5 2094.39 64.09
4 1 -5 2105.49 31.4
-4 -2 5 32.6 10.3
-4 -2 5 26.6 2.1
4 2 -5 23.3 8.5
4 2 -5 26.6 2.1
4 2 -5 26.5 1.8
4 2 -5 30.5 1.8
-4 -3 5 547.45 12.8
-4 -3 5 620.94 41.4
4 3 -5 571.14 13
4 3 -5 585.64 11.4
4 3 -5 579.64 11.7
4 3 -5 583.84 41.7
-4 -4 5 27.8 14.2
-4 -4 5 46 3.4
4 4 -5 45.9 2.9
4 4 -5 45.3 3
4 4 -5 46.1 3.5
4 4 -5 53.39 17.6
-4 -5 5 5.5 1.6
-4 -5 5 -4.3 11.4
-4 -5 5 11.3 11.5
4 5 -5 3.9 2.4
4 5 -5 3.1 1.4
4 5 -5 4.2 1.3
-4 5 4 18.4 3.5
-4 5 4 26.7 2.3
-4 5 4 27.3 2.4
4 -5 -4 22.4 3.5
4 -5 -4 27.3 13.5
-4 4 4 446.46 10.1
-4 4 4 462.95 10
-4 4 4 454.95 13.2
-4 4 4 478.25 40.7
4 -4 -4 421.16 37.9
4 -4 -4 458.05 13.3
-4 3 4 0.1 0.3
-4 3 4 0.6 0.4
-4 3 4 -2.6 4.5
-4 3 4 -0.6 0.3
4 -3 -4 -2 2.4
4 -3 -4 -0.1 0.4
-4 2 4 62.29 2.5
-4 2 4 57.29 3.4
-4 2 4 61.09 12.6
4 -2 -4 60.09 13.1
4 -2 -4 59.89 3.5
-4 1 4 150.98 5
-4 1 4 152.08 4
-4 1 4 139.49 13.9
4 -1 -4 130.39 13.3
4 -1 -4 152.18 4.6
-4 0 4 777.82 13.1
-4 0 4 804.72 32.2
-4 0 4 757.42 13
4 0 -4 776.42 13
4 0 -4 779.92 13.3
4 0 -4 770.42 31.7
-4 -1 4 153.98 4.6
-4 -1 4 154.68 3.9
-4 -1 4 180.78 15.9
4 1 -4 156.48 4
4 1 -4 156.38 14.8
-4 -2 4 55.79 3
-4 -2 4 67.99 14.1
4 2 -4 61.19 2.3
4 2 -4 61.79 2.4
4 2 -4 60.29 3
4 2 -4 73.79 11.9
-4 -3 4 -0.8 2.9
-4 -3 4 0.6 0.6
4 3 -4 -2.7 3
4 3 -4 -0.7 0.3
4 3 -4 -0.5 0.3
-4 -4 4 466.35 12
-4 -4 4 472.75 40.8
4 4 -4 483.15 12.5
4 4 -4 477.05 10.9
-4 -5 4 13 9.6
-4 -5 4 28.5 3
-4 -5 4 10.9 10
4 5 -4 28.4 2.9
4 5 -4 23.4 2.5
-4 5 3 2.7 1
-4 5 3 2.4 1.6
-4 5 3 1.3 1
4 -5 -3 -0.3 11.7
4 -5 -3 1.7 10.5
4 -5 -3 2.5 1.3
-4 4 3 63.89 3.4
-4 4 3 73.09 20.5
-4 4 3 65.89 3.4
-4 4 3 54.79 4.2
4 -4 -3 49.4 13.1
4 -4 -3 69.89 4.7
-4 3 3 251.57 25.4
-4 3 3 252.47 8.5
-4 3 3 249.58 6.5
-4 3 3 253.97 6.6
4 -3 -3 249.38 23.8
4 -3 -3 243.38 8.2
-4 2 3 85.39 4.1
-4 2 3 91.39 12.4
-4 2 3 91.19 3.2
4 -2 -3 92.89 12.4
-4 1 3 1001.9 17
-4 1 3 981.1 15.5
-4 1 3 1013.6 36.8
4 -1 -3 998.6 17
4 -1 -3 965 16.9
4 -1 -3 998.1 36.4
-4 0 3 0.1 0.2
-4 0 3 0.1 0.2
4 0 -3 0.3 0.3
4 0 -3 -0.5 1.5
-4 -1 3 1012.3 16.8
-4 -1 3 1030.9 15
-4 -1 3 1070.99 38.7
4 1 -3 1039.9 16.9
4 1 -3 1092.19 39.5
4 1 -3 1054.69 15.2
-4 -2 3 99.09 13.4
-4 -2 3 87.49 3.6
4 2 -3 76.09 12
4 2 -3 92.89 2.6
4 2 -3 94.39 2.7
4 2 -3 98.29 3.7
-4 -3 3 270.57 7.5
-4 -3 3 277.97 26.8
4 3 -3 269.17 7.5
4 3 -3 265.47 26.9
4 3 -3 266.97 6.3
-4 -4 3 71.39 19.1
-4 -4 3 63.79 3.8
4 4 -3 59.69 3.1
4 4 -3 64.79 3.8
-4 -5 3 1.4 0.8
-4 -5 3 5.2 8.1
-4 -5 3 3.2 9.9
4 5 -3 0.6 0.9
4 5 -3 1.4 1
-4 5 2 0.6 0.8
-4 5 2 0.8 0.7
-4 5 2 1.2 1.3
4 -5 -2 -6.9 9
4 -5 -2 -0.9 0.9
4 -5 -2 -9.6 8.5
-4 4 2 331.47 11
-4 4 2 343.57 9.1
4 -4 -2 305.47 31.5
4 -4 -2 350.26 10.9
-4 3 2 40 3.1
-4 3 2 42.7 2.6
-4 3 2 29.6 10.5
4 -3 -2 36.3 3
4 -3 -2 41.1 11.9
-4 2 2 254.77 6.2
-4 2 2 247.88 7.4
-4 2 2 243.48 20.1
-4 2 2 251.57 6.1
4 -2 -2 264.77 20.5
4 -2 -2 254.57 7.4
-4 1 2 23.7 1.5
-4 1 2 18.8 5
-4 1 2 25.6 1.8
4 -1 -2 22.4 1.7
4 -1 -2 24.2 1.5
-4 0 2 27.1 1.4
-4 0 2 23.8 1.4
-4 0 2 30.7 6.1
4 0 -2 26.7 1.4
4 0 -2 27.8 1.5
-4 -1 2 22.6 1.5
-4 -1 2 15.5 4.5
4 1 -2 19.7 5.9
4 1 -2 25.4 1.6
4 1 -2 25.6 0.8
-4 -2 2 250.77 6.3
-4 -2 2 259.67 21.4
4 2 -2 257.27 6.4
4 2 -2 293.77 23
4 2 -2 250.17 4.6
-4 -3 2 26.2 9.3
-4 -3 2 36.7 2.4
4 3 -2 51.89 14
4 3 -2 40.6 2.5
4 3 -2 37.4 1.9
-4 -4 2 324.27 33.6
-4 -4 2 322.97 32.5
-4 -4 2 335.07 9
-4 -4 2 346.87 7.9
4 4 -2 342.47 9.1
4 4 -2 349.77 8.2
-4 -5 2 6.7 7.8
-4 -5 2 5.8 10.3
-4 5 1 282.77 11
-4 5 1 270.57 8.8
4 -5 -1 263.37 10.4
4 -5 -1 287.57 32.9
4 -5 -1 247.18 33.3
-4 4 1 138.79 5.6
-4 4 1 119.09 6.4
4 -4 -1 138.09 21.4
4 -4 -1 139.89 6.6
4 -4 -1 133.19 21.6
-4 3 1 194.88 6.1
-4 3 1 172.38 20.2
-4 3 1 199.28 7.4
4 -3 -1 190.48 20.6
4 -3 -1 195.48 7.1
-4 2 1 0.4 0.3
-4 2 1 -0.8 1.3
-4 2 1 0 0.3
4 -2 -1 1.4 2.2
4 -2 -1 -0.1 0.4
-4 1 1 111.09 3.5
-4 1 1 114.09 10.3
4 -1 -1 98.59 9.4
-4 0 1 0.4 0.2
-4 0 1 0.6 0.7
-4 0 1 0 0.2
4 0 -1 0.3 1.3
4 0 -1 0 0.2
4 0 -1 0.5 0.3
-4 -1 1 116.09 10.5
-4 -1 1 116.79 3.4
4 1 -1 103.39 3.4
4 1 -1 114.29 11
-4 -2 1 5 3.7
4 2 -1 2.3 2.5
-4 -3 1 199.78 5.7
-4 -3 1 184.98 22.7
-4 -3 1 193.78 4.6
4 3 -1 195.08 5.7
4 3 -1 190.38 6.6
-4 -4 1 129.59 5
-4 -4 1 129.89 4.4
-4 -4 1 118.49 19.6
-4 -4 1 146.49 21.8
4 4 -1 128.49 5
4 4 -1 134.49 4.5
-4 -5 1 260.27 32.1
-4 -5 1 247.38 33.7
-4 -5 1 274.17 8.3
-4 -5 1 281.07 7.7
4 5 -1 268.87 8.2
4 5 -1 269.67 7.8
4 -5 0 6.9 8.5
4 -5 0 10.8 9.8
-4 4 0 122.29 6.5
-4 4 0 126.89 5.6
4 -4 0 124.69 20.1
4 -4 0 98.49 20.6
4 -4 0 125.99 6.3
-4 3 0 1.7 0.7
-4 3 0 1.2 0.6
4 -3 0 -0.8 2.8
4 -3 0 2.1 0.9
-4 2 0 2242.38 33.2
-4 2 0 2202.78 34.7
-4 2 0 2211.98 63.49
4 -2 0 2220.48 34.6
-4 1 0 466.35 20.1
-4 1 0 451.05 9
-4 1 0 449.86 9.5
4 -1 0 466.55 9.5
4 -1 0 459.25 19.5
-4 0 0 455.75 8.3
-4 0 0 464.95 8.5
-4 0 0 488.05 15.2
4 0 0 477.85 15.3
4 0 0 441.76 8.6
4 0 0 469.85 8.3
-4 -1 0 445.16 6.9
-4 -1 0 469.15 8.3
-4 -1 0 450.45 6.9
-4 -1 0 456.85 20.4
4 1 0 461.45 8.3
4 1 0 447.26 20.6
-4 -2 0 2249.97 31.4
-4 -2 0 2120.89 29.5
-4 -2 0 2190.48 64.29
4 2 0 2180.78 29.5
4 2 0 2162.78 31.2
-4 -3 0 1 0.5
-4 -3 0 -0.9 3
-4 -3 0 7.2 4
-4 -3 0 2.7 0.7
4 3 0 0 0.3
4 3 0 -0.3 0.4
-4 -4 0 154.08 22.1
-4 -4 0 118.09 19.4
-4 -4 0 127.29 4.4
-4 -4 0 120.19 4.6
4 4 0 124.79 4.3
4 4 0 126.09 4.6
-4 -5 0 2.5 9.3
-4 -5 0 0.8 0.8
-4 -5 0 0.2 0.6
4 5 0 0.7 0.7
4 5 0 1 0.7
-4 5 -1 270.27 14.4
-4 5 -1 301.97 10
4 -5 1 301.87 11.1
4 -5 1 258.17 33.3
4 -5 1 272.67 34.9
-4 4 -1 34.2 3.3
-4 4 -1 30.2 2.8
4 -4 1 19.6 9.1
4 -4 1 18.1 8.9
4 -4 1 26.6 3
-4 3 -1 195.48 7.4
-4 3 -1 183.58 6.3
4 -3 1 187.58 7.1
4 -3 1 169.28 19.8
-4 2 -1 1253.77 22.4
-4 2 -1 1267.07 21.2
4 -2 1 1240.38 44.3
4 -2 1 1260.07 22.2
4 -2 1 1278.87 46.5
-4 1 -1 2090.69 46.2
-4 1 -1 1994.9 30.4
-4 1 -1 1940.61 29.5
4 -1 1 2048.99 30.4
4 -1 1 1893.31 61.39
-4 0 -1 3.2 0.7
-4 0 -1 0.9 0.7
4 0 1 1.1 0.6
-4 -1 -1 2029 46.7
-4 -1 -1 1956.8 27.9
-4 -1 -1 1957.7 27.5
4 1 1 1955.9 28
-4 -2 -1 1245.98 18.2
-4 -2 -1 1199.38 18.5
-4 -2 -1 1278.17 45.7
-4 -2 -1 1216.98 45.3
4 2 1 1222.68 17.9
4 2 1 1205.98 18.5
-4 -3 -1 181.28 20.7
-4 -3 -1 171.48 5.2
-4 -3 -1 186.88 4.9
4 3 1 180.58 4.7
4 3 1 177.38 4.8
-4 -4 -1 26.6 11.4
-4 -4 -1 31.4 2.1
-4 -4 -1 30.4 2
4 4 1 27.3 2
4 4 1 26.9 2
-4 -5 -1 289.37 7.7
-4 -5 -1 302.47 8.2
-4 -5 -1 283.87 35.5
-4 -5 -1 256.17 37.9
4 5 1 285.37 8
4 5 1 288.37 7.7
-4 5 -2 -1.3 0.9
-4 5 -2 0.7 1.5
4 -5 2 -4.7 10.4
4 -5 2 -3.7 10.5
4 -5 2 2.8 1.4
-4 4 -2 19.8 3
-4 4 -2 28.3 2.7
4 -4 2 42.8 14.4
4 -4 2 29.7 3.1
4 -4 2 18.6 8.5
-4 3 -2 32.5 2.7
-4 3 -2 36.9 3.2
4 -3 2 32.1 10.5
4 -3 2 52.89 14.2
4 -3 2 32.2 2.9
-4 2 -2 2649.24 39.9
-4 2 -2 2605.74 40.9
4 -2 2 2666.43 68.99
4 -2 2 2681.13 41
4 -2 2 2633.24 70.69
-4 1 -2 715.83 13.2
-4 1 -2 722.83 13.9
4 -1 2 741.33 24.1
4 -1 2 706.63 13.7
4 -1 2 742.53 23.2
-4 0 -2 681.53 12.4
-4 0 -2 717.63 12.1
-4 -1 -2 704.63 11.5
-4 -1 -2 714.13 23.9
-4 -1 -2 697.13 11.9
-4 -1 -2 713.23 23.3
4 1 2 707.73 11.5
-4 -2 -2 2514.15 67.29
-4 -2 -2 2559.54 36
-4 -2 -2 2527.15 68.99
-4 -2 -2 2513.85 35.1
4 2 2 2533.45 35.7
-4 -3 -2 30.6 2
-4 -3 -2 35.8 11.1
-4 -3 -2 15.9 6.4
-4 -3 -2 31.8 1.7
4 3 2 31.6 1.9
4 3 2 29.2 2.4
-4 -4 -2 42.7 14.8
-4 -4 -2 26.3 1.7
-4 -4 -2 25 2.1
4 4 2 20.8 1.9
4 4 2 26.1 1.7
-4 -5 -2 7.6 11.3
-4 -5 -2 3.4 1.1
-4 -5 -2 10.8 13.5
4 5 2 3.2 0.9
4 5 2 3 0.9
-4 5 -3 102.69 6.8
-4 5 -3 101.29 6
4 -5 3 102.29 6.4
4 -5 3 86.09 21.4
-4 4 -3 9.2 2
4 -4 3 8.8 2
4 -4 3 3.3 7.1
4 -4 3 5 9.1
-4 3 -3 61.99 4.2
-4 3 -3 63.39 3.9
4 -3 3 71.09 16.3
4 -3 3 59.19 4
4 -3 3 76.19 16.8
-4 2 -3 245.98 7.3
4 -2 3 248.68 18.8
4 -2 3 249.38 19.1
4 -2 3 253.47 7.9
-4 1 -3 1544.25 26.1
-4 1 -3 1549.05 25.2
4 -1 3 1696.33 38.3
4 -1 3 1637.94 38.4
-4 0 -3 1 0.4
-4 0 -3 0.2 0.3
-4 0 -3 0.3 0.3
-4 0 -3 0.3 0.3
-4 -1 -3 1589.14 38.5
-4 -1 -3 1524.55 36.4
-4 -1 -3 1551.94 23.8
-4 -1 -3 1516.85 22.5
-4 -2 -3 236.28 19
-4 -2 -3 242.18 6.2
-4 -2 -3 206.08 16.9
-4 -2 -3 239.08 4.8
4 2 3 235.18 4.8
4 2 3 237.98 5.9
-4 -3 -3 59.89 3.1
-4 -3 -3 62.89 2.1
-4 -3 -3 59.49 14.4
-4 -3 -3 50.59 13.2
4 3 3 62.69 2.1
4 3 3 62.99 3
-4 -4 -3 11.6 1.7
-4 -4 -3 -2 5.2
-4 -4 -3 9 0.9
4 4 3 9.7 0.9
4 4 3 8 1.4
-4 -5 -3 99.09 4.8
4 5 3 104.39 3.7
4 5 3 94.79 4.5
-4 5 -4 4.4 1.9
4 -5 4 7.3 13.4
-4 4 -4 63.09 5
-4 4 -4 69.89 4.7
4 -4 4 77.59 18.7
4 -4 4 44.9 12.6
-4 3 -4 135.29 6
-4 3 -4 135.79 6.5
4 -3 4 149.49 18.9
4 -3 4 118.29 16.3
4 -3 4 137.19 6.8
-4 2 -4 298.67 8.6
-4 2 -4 313.17 9.4
4 -2 4 319.77 21.6
4 -2 4 322.87 21.8
-4 1 -4 198.08 6.6
-4 1 -4 189.58 5.9
4 -1 4 190.58 11.2
4 -1 4 192.08 11.4
-4 0 -4 4.6 0.9
-4 0 -4 4 1
-4 -1 -4 206.58 12.6
-4 -1 -4 194.88 4.7
-4 -1 -4 193.88 5.8
-4 -1 -4 176.78 6.2
-4 -1 -4 196.18 11.6
-4 -2 -4 292.17 5.5
-4 -2 -4 266.07 31.8
-4 -2 -4 280.07 19.7
-4 -2 -4 307.47 7.8
4 2 4 304.47 7.5
-4 -3 -4 126.49 4.9
-4 -3 -4 128.19 2.5
-4 -3 -4 123.39 16.8
-4 -3 -4 115.29 16.8
4 3 4 127.99 4.8
-4 -4 -4 44.9 13.3
-4 -4 -4 63.29 3.8
4 4 4 64.89 3.5
-4 -5 -4 3.2 1.4
-4 -5 -4 -0.9 10.9
4 5 4 6.3 1.5
4 -5 5 34.6 24.3
-4 4 -5 29.4 3.5
-4 4 -5 23.3 3.4
4 -4 5 30.2 11.3
4 -4 5 11.4 7
-4 3 -5 154.48 6.6
4 -3 5 178.38 20.4
4 -3 5 146.19 18.8
-4 2 -5 43.2 3.4
-4 2 -5 45 3.2
4 -2 5 55.09 9
4 -2 5 47.7 3.2
4 -2 5 37.2 8.9
-4 1 -5 145.19 5.2
-4 1 -5 150.28 6
-4 1 -5 149.69 5.9
4 -1 5 151.88 10.4
4 -1 5 140.49 10.2
-4 0 -5 0.6 0.6
-4 0 -5 2.6 0.9
-4 -1 -5 145.79 4.1
-4 -1 -5 150.48 4.1
-4 -1 -5 149.39 5.4
-4 -1 -5 136.29 10
-4 -2 -5 46.8 1.6
-4 -2 -5 44.1 10.4
-4 -2 -5 44.5 1.6
-4 -2 -5 49.99 3.1
-4 -2 -5 48.1 8.1
4 2 5 48.8 2.9
-4 -3 -5 148.09 19.3
-4 -3 -5 154.08 5.8
4 3 5 150.98 5.6
-4 -4 -5 9.2 9.5
-4 -4 -5 28.7 12.2
-4 -4 -5 24.7 2.6
4 4 5 22.5 2.4
-4 -5 -5 81.99 24.1
-4 -5 -5 116.69 7.2
4 5 5 125.69 5.7
-4 4 -6 143.39 7.2
-4 4 -6 153.28 8.1
4 -4 6 126.89 19.5
-4 3 -6 3.6 1.3
4 -3 6 7.8 5.6
4 -3 6 4.4 5.3
-4 2 -6 71.09 5.3
-4 2 -6 88.79 5.1
4 -2 6 80.09 11.4
4 -2 6 89.19 11.8
4 -2 6 80.79 4.4
-4 1 -6 4.1 1.1
-4 1 -6 4.6 1.5
-4 1 -6 2.6 0.9
4 -1 6 7.8 3.1
-4 0 -6 404.36 10.5
-4 0 -6 411.46 15.7
-4 0 -6 406.16 9.2
4 0 6 399.76 12.5
-4 -1 -6 5.4 1.3
-4 -1 -6 4.9 0.8
-4 -1 -6 3.8 0.8
-4 -1 -6 5.1 3.1
-4 -2 -6 75.49 10.9
-4 -2 -6 78.39 2.1
-4 -2 -6 87.89 4.4
-4 -2 -6 79.09 2.1
4 2 6 84.39 4.2
-4 -3 -6 3.1 6.5
4 3 6 4.7 1
-4 -4 -6 138.69 6.3
-4 -4 -6 134.49 22.7
4 4 6 139.99 6
4 -4 7 15 10
-4 3 -7 373.46 12.3
-4 3 -7 351.46 12.3
-4 3 -7 360.36 11.4
4 -3 7 396.56 30.7
4 -3 7 345.97 29.5
4 -3 7 364.86 11.5
-4 2 -7 18.5 2.2
-4 2 -7 14.9 2.5
4 -2 7 18.7 6.6
4 -2 7 16.1 6.4
-4 1 -7 117.59 9.2
-4 1 -7 137.69 5.5
-4 1 -7 135.09 6.3
4 -1 7 143.29 11.2
-4 0 -7 -0.4 0.6
-4 0 -7 -0.2 0.4
-4 0 -7 1.5 1.8
4 0 7 -1.8 1.4
-4 -1 -7 131.89 4.1
-4 -1 -7 139.09 6
-4 -1 -7 138.99 4.3
-4 -1 -7 117.49 10.9
4 1 7 133.89 11.3
-4 -2 -7 32.7 8.9
-4 -2 -7 20 1
-4 -2 -7 21.2 1
-4 -2 -7 20.5 2.4
4 2 7 17.5 2.2
-4 -3 -7 375.06 31.5
-4 -3 -7 349.37 10.7
4 3 7 364.26 10.4
-4 -4 -7 6.1 9.9
4 4 7 3.6 1.1
-4 4 -8 57.89 5.1
-4 4 -8 52.89 4.7
4 -4 8 42.5 15.2
-4 3 -8 14 2.5
-4 3 -8 8.9 2.1
-4 3 -8 9.7 2.4
4 -3 8 5.8 6
-4 2 -8 169.08 7
-4 2 -8 167.88 7.8
4 -2 8 172.68 17
4 -2 8 155.98 16.4
-4 1 -8 47.9 3.8
-4 1 -8 47.9 3.9
-4 1 -8 48.3 7.2
-4 1 -8 50.39 3.4
4 -1 8 46.6 6.9
-4 0 -8 1512.35 28
-4 0 -8 1508.45 38.4
-4 0 -8 1506.25 25
4 0 8 1486.25 35.6
-4 -1 -8 45.3 4.7
-4 -1 -8 54.69 2.6
-4 -1 -8 43.3 2.4
-4 -1 -8 59.59 8.6
4 1 8 46 7.2
-4 -2 -8 153.98 22.3
-4 -2 -8 156.78 3
-4 -2 -8 159.18 7
4 2 8 157.58 6.7
-4 -3 -8 1.3 7.5
-4 -3 -8 10.3 2.1
4 3 8 9.3 1.8
-4 -4 -8 58.19 18.7
-4 -4 -8 50.39 4.3
-4 3 -9 257.77 10
4 -3 9 249.08 31.2
-4 2 -9 0.7 1.3
-4 2 -9 0.1 1
-4 2 -9 1 1
4 -2 9 -2.1 4.1
4 -2 9 8.2 8.3
-4 1 -9 135.79 5.9
-4 1 -9 132.49 13.4
-4 1 -9 125.99 6.7
-4 1 -9 121.79 6.7
4 -1 9 133.09 11.9
-4 0 -9 1.8 0.7
-4 0 -9 -2.9 3
-4 0 -9 1.5 1.1
4 0 9 0.2 2.4
-4 -1 -9 129.99 4.4
-4 -1 -9 131.49 4.4
-4 -1 -9 129.19 6.6
-4 -1 -9 109.99 13.3
4 1 9 133.29 12.6
-4 -2 -9 -8.5 4.5
-4 -3 -9 204.98 25.1
-4 -3 -9 231.28 9.2
4 3 9 244.08 9
-4 3 -10 2 1.6
-4 3 -10 9.1 2.5
4 -3 10 3.1 8.9
-4 2 -10 59.29 4.4
-4 2 -10 62.29 5
4 -2 10 44.6 10.9
-4 1 -10 5.8 1.9
-4 1 -10 4 1.3
4 -1 10 -0.3 4.3
-4 0 -10 518.55 12.1
-4 0 -10 494.35 22.4
-4 0 -10 514.75 15
4 0 10 495.95 20.4
-4 -1 -10 1.9 0.9
-4 -1 -10 5.3 4.8
-4 -1 -10 2.6 1.3
-4 -1 -10 2.7 0.9
4 1 10 0.5 4.7
-4 -2 -10 63.29 4.9
-4 -3 -10 -12.1 8.4
-4 -3 -10 4.7 2
4 3 10 6 2
-4 2 -11 4.2 1.5
-4 2 -11 2.3 1.7
4 -2 11 7.5 7.6
-4 1 -11 26.1 2.9
-4 1 -11 32.3 7.4
-4 0 -11 1.4 1.2
-4 0 -11 -0.1 0.8
-4 -1 -11 29 3.6
-4 -1 -11 30.6 2.3
-4 -1 -11 32.9 2.3
-4 -2 -11 5.6 2.1
-4 0 -12 36 4.3
-5 1 15 138.09 5.5
5 -1 -15 131.29 8.1
5 -1 -15 134.59 5.3
5 0 -15 -0.3 1
5 0 -15 -1.2 1.3
-5 -1 15 138.79 6.9
5 1 -15 133.69 7.9
5 1 -15 136.89 6.7
-5 2 14 155.48 4.6
5 -2 -14 143.19 4.5
5 -2 -14 151.48 8.7
5 -1 -14 2.4 0.9
5 -1 -14 3.8 1.9
-5 0 14 195.18 9
-5 0 14 196.48 7.3
5 0 -14 197.08 7.2
5 0 -14 209.98 33.8
5 0 -14 208.38 9.7
-5 -1 14 4.9 1.7
5 1 -14 4.9 1.9
5 1 -14 2.1 1.2
-5 -2 14 150.08 8.2
5 2 -14 155.08 7.4
5 2 -14 161.88 8.3
5 -3 -13 139.09 8.5
-5 2 13 24.2 17.3
-5 2 13 10.3 1.4
-5 2 13 8.5 2.5
5 -2 -13 10.5 2.5
5 -2 -13 11.4 1.5
5 -2 -13 -2.1 11.9
-5 1 13 147.69 5.3
-5 1 13 154.08 25.4
-5 1 13 142.89 7.4
5 -1 -13 135.99 5.1
5 -1 -13 91.59 20.6
5 -1 -13 136.59 7.6
-5 0 13 1.3 0.7
-5 0 13 -0.1 1
-5 0 13 6.8 7.6
5 0 -13 1.6 1.1
5 0 -13 -4.5 8.4
-5 -1 13 133.99 26.1
-5 -1 13 140.39 7.2
5 1 -13 111.79 24.5
5 1 -13 156.58 7.6
5 1 -13 146.69 6.5
-5 -2 13 7.9 2.1
-5 -2 13 -2.6 10.3
5 2 -13 12.6 2.5
5 2 -13 4.1 13.5
5 2 -13 12.4 2.7
5 3 -13 156.68 7.8
5 3 -13 141.39 7.5
5 3 -13 149.69 7.7
-5 3 12 1.4 1.7
-5 3 12 5 9.3
5 -3 -12 11.1 11.2
-5 2 12 71.89 3
5 -2 -12 66.79 5.2
5 -2 -12 68.49 2.9
-5 1 12 64.79 17.6
-5 1 12 67.19 4.8
-5 1 12 73.29 3.6
5 -1 -12 74.39 5.3
5 -1 -12 76.49 3.6
5 -1 -12 85.99 20.5
-5 0 12 273.47 29.6
-5 0 12 260.87 9.7
-5 0 12 261.37 8
5 0 -12 265.87 30.4
5 0 -12 269.57 8.1
5 0 -12 272.27 10.1
-5 -1 12 48.7 15
-5 -1 12 79.89 5
-5 -1 12 75.79 4.4
5 1 -12 77.19 19.3
5 1 -12 72.99 4.9
5 1 -12 83.99 4.6
-5 -2 12 45.3 16.2
-5 -2 12 64.19 4.6
5 2 -12 64.59 4.8
5 2 -12 77.69 4.8
-5 -3 12 4.6 1.5
-5 -3 12 13.9 9.9
5 3 -12 -12.9 8.2
5 3 -12 4.2 1.5
5 3 -12 4.5 1.6
5 3 -12 2.8 1.3
5 -4 -11 20.4 3.7
5 -4 -11 22.6 15.2
-5 3 11 144.39 7.7
-5 3 11 153.58 3.5
-5 3 11 122.59 31.8
-5 3 11 150.68 3.6
5 -3 -11 154.78 8.3
-5 2 11 462.45 39.7
-5 2 11 428.16 8.8
5 -2 -11 428.56 13.7
5 -2 -11 409.86 8.6
5 -2 -11 404.56 37.4
-5 1 11 365.86 33.1
-5 1 11 340.07 11.1
-5 1 11 353.66 8.6
5 -1 -11 363.26 8.7
5 -1 -11 356.36 32.9
5 -1 -11 366.56 11.8
-5 0 11 0.8 0.7
-5 0 11 -5.8 4.7
-5 0 11 0.3 0.8
5 0 -11 -2.2 5.2
5 0 -11 -0.4 0.5
-5 -1 11 371.06 10.9
-5 -1 11 362.46 10.2
-5 -1 11 378.26 33.1
5 1 -11 372.06 11.1
5 1 -11 316.57 32
5 1 -11 337.67 15.1
-5 -2 11 459.55 39.5
5 2 -11 465.05 12.8
5 2 -11 434.36 12.3
5 2 -11 443.36 39.8
-5 -3 11 137.99 28.9
-5 -3 11 156.58 7.5
5 3 -11 168.28 7.4
5 3 -11 166.98 7.7
5 4 -11 26.5 3.1
5 4 -11 21.1 3.3
5 4 -11 35.5 25.8
5 4 -11 28.3 3.9
-5 4 10 178.68 8.8
5 -4 -10 94.59 31.4
5 -4 -10 194.68 9.5
-5 3 10 13.2 2.5
-5 3 10 27.8 11.4
-5 3 10 11.2 1.1
5 -3 -10 20.4 9.9
5 -3 -10 13 2.7
-5 2 10 22.2 1.6
-5 2 10 10.8 7
5 -2 -10 21.1 3.1
5 -2 -10 19.4 10.2
5 -2 -10 23.4 1.7
-5 1 10 177.78 5.5
-5 1 10 172.78 21.1
-5 1 10 186.48 7.4
5 -1 -10 173.38 22.5
5 -1 -10 176.18 5.4
5 -1 -10 172.28 11.1
-5 0 10 266.17 26
-5 0 10 256.77 7.4
-5 0 10 249.97 8.5
5 0 -10 250.57 26.7
5 0 -10 256.67 7.4
5 0 -10 249.97 8.7
-5 -1 10 177.18 6.8
-5 -1 10 171.88 21.6
-5 -1 10 179.28 6.6
5 1 -10 168.58 22.9
5 1 -10 179.08 6.6
5 1 -10 192.48 7.2
-5 -2 10 25 2.6
-5 -2 10 33 12.8
5 2 -10 22.6 2.5
5 2 -10 18.7 9.2
5 2 -10 27.9 2.7
-5 -3 10 2.6 7.9
5 3 -10 2.3 8.9
5 3 -10 20.3 2.9
5 3 -10 15.9 3
5 3 -10 17.8 2.8
-5 -4 10 207.08 31.7
5 4 -10 197.58 7.8
5 4 -10 196.68 9.6
5 4 -10 172.78 33.7
-5 4 9 36.9 15.5
-5 4 9 44.8 1.8
-5 4 9 45.3 2.5
-5 4 9 47.3 4.4
5 -4 -9 37.6 4.2
5 -4 -9 61.99 17.7
-5 3 9 169.28 24.1
-5 3 9 142.29 4
-5 3 9 138.49 4
5 -3 -9 149.29 7.4
5 -3 -9 134.39 21.9
-5 2 9 42.8 11.7
-5 2 9 55.39 2.5
5 -2 -9 82.99 23.4
5 -2 -9 50.29 2.4
5 -2 -9 54.49 4.3
-5 1 9 777.42 14.3
-5 1 9 791.22 52.09
-5 1 9 800.62 17.2
5 -1 -9 771.82 44.4
5 -1 -9 786.32 17.6
5 -1 -9 800.82 14.3
-5 0 9 0.3 0.5
-5 0 9 4 4.1
-5 0 9 0 0.4
5 0 -9 -0.4 0.6
5 0 -9 -0.3 0.3
5 0 -9 -1 3.9
-5 -1 9 818.92 16.4
-5 -1 9 684.23 50.79
-5 -1 9 817.82 16.2
5 1 -9 800.82 16.5
5 1 -9 801.22 46.4
5 1 -9 796.82 16
-5 -2 9 51.89 3.5
-5 -2 9 91.59 20.6
5 2 -9 60.19 3.7
-5 -3 9 147.29 23.4
5 3 -9 153.48 7.9
5 3 -9 154.58 6.2
5 3 -9 149.88 6.8
5 3 -9 174.18 25.4
-5 -4 9 39.8 16.3
-5 -4 9 49.3 4.1
5 4 -9 38.9 3.3
5 4 -9 40.3 18.4
5 4 -9 42.6 4.1
5 4 -9 44.9 4
-5 5 8 3.1 12.8
-5 5 8 -0.6 0.7
-5 5 8 1.2 0.7
5 -5 -8 1.5 20
5 -5 -8 0.2 1.2
-5 4 8 155.38 4.4
-5 4 8 162.28 4.5
-5 4 8 152.08 7.8
-5 4 8 114.79 24.4
5 -4 -8 160.98 8.3
5 -4 -8 129.69 26.7
-5 3 8 42 15.1
-5 3 8 42.6 3.7
-5 3 8 49.5 2.3
-5 3 8 52.19 2.4
5 -3 -8 46.7 4.1
5 -3 -8 48.5 19.8
-5 2 8 191.98 23
-5 2 8 179.38 7.2
-5 2 8 188.68 5.1
5 -2 -8 179.88 22.1
5 -2 -8 192.78 7.7
5 -2 -8 190.98 5.1
-5 1 8 223.08 5.9
-5 1 8 223.78 7.7
-5 1 8 233.88 22.8
5 -1 -8 219.38 5.9
5 -1 -8 242.78 23.5
5 -1 -8 216.58 7.7
-5 0 8 469.75 31.9
-5 0 8 471.45 11.2
-5 0 8 470.75 10.3
5 0 -8 474.45 11.6
5 0 -8 490.65 32.5
5 0 -8 478.05 10.3
-5 -1 8 231.88 6.9
-5 -1 8 232.98 7.1
-5 -1 8 196.18 21.5
5 1 -8 211.08 22.6
5 1 -8 228.98 6.9
5 1 -8 233.38 7.1
-5 -2 8 197.58 7
-5 -2 8 182.58 22.7
5 2 -8 196.08 6.9
5 2 -8 191.58 22.9
5 2 -8 199.38 6.5
-5 -3 8 37.8 14.2
5 3 -8 51.09 3.2
5 3 -8 47.8 16.6
5 3 -8 55.49 3.4
5 3 -8 43.4 3.4
-5 -4 8 155.88 8.6
-5 -4 8 159.98 30.9
5 4 -8 163.48 6.4
5 4 -8 163.88 7.5
5 4 -8 185.38 30.7
5 4 -8 158.48 6.7
-5 -5 8 11 18.8
5 5 -8 2.7 1
5 5 -8 2.6 1.2
5 5 -8 1.2 1.2
-5 5 7 190.08 5.5
-5 5 7 114.29 27.9
-5 5 7 182.38 5.4
5 -5 -7 200.88 34
5 -5 -7 175.08 9
-5 4 7 152.18 4.6
-5 4 7 148.09 4.6
-5 4 7 143.69 7.4
-5 4 7 168.28 25.9
5 -4 -7 93.19 20.8
5 -4 -7 133.89 7.3
-5 3 7 299.57 6.9
-5 3 7 297.87 6.8
-5 3 7 298.87 10.1
-5 3 7 284.47 29.9
5 -3 -7 292.77 29.3
5 -3 -7 305.87 10.5
-5 2 7 68.89 4.2
-5 2 7 66.79 2.8
-5 2 7 89.39 18.2
5 -2 -7 66.29 4.2
5 -2 -7 68.69 2.8
5 -2 -7 65.99 14.8
-5 1 7 528.45 12.3
-5 1 7 534.05 10.5
-5 1 7 569.24 34.5
5 -1 -7 539.15 10.4
5 -1 -7 541.85 12.7
5 -1 -7 540.55 33.6
-5 0 7 -0.4 0.3
-5 0 7 3.2 4.4
-5 0 7 0.5 0.4
5 0 -7 -0.5 0.3
5 0 -7 -3.7 2.7
5 0 -7 0.1 0.5
-5 -1 7 545.55 11.3
-5 -1 7 563.74 34.8
-5 -1 7 527.65 11.6
5 1 -7 558.44 11.8
5 1 -7 528.35 34.2
5 1 -7 547.55 11.5
-5 -2 7 71.29 16.2
-5 -2 7 76.19 4
5 2 -7 75.59 3.6
5 2 -7 69.59 16.1
5 2 -7 72.49 3.9
-5 -3 7 332.57 32.4
-5 -3 7 301.87 9.4
5 3 -7 312.27 8.4
5 3 -7 324.77 32.6
5 3 -7 305.17 8.1
5 3 -7 319.77 9.6
-5 -4 7 141.09 31.2
-5 -4 7 153.98 7
5 4 -7 169.48 29.1
5 4 -7 146.89 5.9
5 4 -7 163.88 7.2
5 4 -7 161.98 5.9
-5 -5 7 181.78 11.7
-5 -5 7 181.78 36
5 5 -7 193.28 8.5
5 5 -7 194.58 7.4
5 5 -7 200.48 7.1
-5 5 6 15.2 11.2
-5 5 6 8.2 2.4
-5 5 6 7.8 1.4
-5 5 6 8.9 1.4
5 -5 -6 10.2 2.6
5 -5 -6 22.6 13
-5 4 6 133.69 4.6
-5 4 6 139.19 29.2
-5 4 6 136.99 4.7
5 -4 -6 147.19 22.5
5 -4 -6 136.89 7.1
-5 3 6 46.3 12.8
-5 3 6 34.9 3.1
-5 3 6 34.9 2.1
-5 3 6 30 1.9
5 -3 -6 27.1 3
5 -3 -6 43.1 13.5
-5 2 6 1105.59 18
-5 2 6 1176.18 52.79
-5 2 6 1069.59 21.1
5 -2 -6 1124.29 21.6
5 -2 -6 1116.99 18
5 -2 -6 1139.59 52.09
-5 1 6 21.1 2
-5 1 6 24.7 1.7
-5 1 6 20.7 7.6
5 -1 -6 22.6 2.1
5 -1 -6 28.4 9.1
5 -1 -6 21 1.6
-5 0 6 1146.49 46.1
-5 0 6 1126.09 19.1
-5 0 6 1118.19 18.5
5 0 -6 1113.69 18.4
5 0 -6 1111.49 45.6
5 0 -6 1091.49 19.1
-5 -1 6 22.7 1.7
-5 -1 6 27.8 7.7
-5 -1 6 23.4 1.9
5 1 -6 24.5 1.8
5 1 -6 19.5 1.8
5 1 -6 33.3 10.1
-5 -2 6 1155.18 20.9
-5 -2 6 1229.68 55.09
5 2 -6 1178.98 19.2
5 2 -6 1142.49 20.7
5 2 -6 1164.88 55.69
-5 -3 6 34.7 2.9
5 3 -6 34.3 2.3
5 3 -6 32.5 2.3
5 3 -6 33.9 2.8
5 3 -6 33.6 12.9
-5 -4 6 128.99 6.2
-5 -4 6 149.88 25.3
5 4 -6 137.79 5.1
5 4 -6 146.49 6.5
5 4 -6 142.19 5.4
5 4 -6 134.19 22.6
-5 -5 6 7.6 2
-5 -5 6 -9.8 11.2
5 5 -6 9.7 1.8
5 5 -6 10.1 2.4
5 5 -6 15.1 1.9
-5 5 5 521.85 11.7
-5 5 5 495.75 15.8
-5 5 5 413.76 45
5 -5 -5 497.55 46.6
5 -5 -5 513.25 15.9
-5 4 5 73.99 3.5
-5 4 5 54.59 15.4
-5 4 5 78.09 3.6
5 -4 -5 80.29 5.3
5 -4 -5 70.19 19.3
-5 3 5 324.97 7.6
-5 3 5 308.77 29.5
-5 3 5 325.37 7.7
-5 3 5 326.27 10.3
5 -3 -5 335.67 29.7
5 -3 -5 330.37 10.4
-5 2 5 36.8 2.1
-5 2 5 36.9 2.9
-5 2 5 28.8 8.9
5 -2 -5 51.59 13.1
5 -2 -5 44.6 3.2
-5 1 5 113.09 4.5
-5 1 5 127.69 14.5
-5 1 5 122.19 3.9
5 -1 -5 120.69 3.8
5 -1 -5 114.59 13.9
5 -1 -5 122.99 4.8
-5 0 5 0.5 0.4
-5 0 5 0 0.2
-5 0 5 3.6 3.5
5 0 -5 0.9 0.4
5 0 -5 0 1.9
5 0 -5 1 0.6
-5 -1 5 125.39 14.6
-5 -1 5 126.19 3.8
-5 -1 5 127.19 4.5
5 1 -5 142.29 15.8
5 1 -5 123.49 4.4
5 1 -5 123.49 3.9
-5 -2 5 40.6 2.6
-5 -2 5 37.7 10.3
5 2 -5 38.2 2.6
5 2 -5 35.2 2.3
5 2 -5 40.9 2
5 2 -5 28.4 9.9
-5 -3 5 291.37 12.9
-5 -3 5 349.17 31.3
5 3 -5 346.67 9.4
5 3 -5 305.77 29.6
5 3 -5 341.57 7.4
5 3 -5 343.37 7.7
-5 -4 5 73.69 18.6
-5 -4 5 74.79 4.4
5 4 -5 88.09 23
5 4 -5 75.69 3.7
5 4 -5 78.19 3.5
5 4 -5 79.39 4.6
-5 -5 5 502.55 50.29
-5 -5 5 502.65 48.8
-5 -5 5 495.35 14.9
5 5 -5 511.15 12.1
5 5 -5 523.25 11.6
5 5 -5 516.85 14
-5 5 4 28.7 2.6
-5 5 4 29.9 4.4
-5 5 4 32.9 2.7
5 -5 -4 23.2 13.3
5 -5 -4 28 3.7
-5 4 4 8.6 1.5
-5 4 4 8.2 1.5
-5 4 4 8.3 6.9
-5 4 4 7.6 2.2
5 -4 -4 1.9 5.8
5 -4 -4 6.5 1.9
-5 3 4 5.8 4.4
-5 3 4 4.9 1
-5 3 4 4.4 1.3
-5 3 4 6.5 1.3
5 -3 -4 10.8 5.4
5 -3 -4 3.6 1.2
-5 2 4 1155.08 21.4
-5 2 4 1157.38 18.9
-5 2 4 1217.88 50.29
5 -2 -4 1202.38 49.2
5 -2 -4 1137.89 21.3
-5 1 4 621.84 12.5
-5 1 4 661.43 32
-5 1 4 614.24 11.3
5 -1 -4 625.24 12.6
5 -1 -4 598.54 30.1
5 -1 -4 634.84 11.4
-5 0 4 1312.57 44
-5 0 4 1248.68 19.9
-5 0 4 1267.77 19.9
5 0 -4 1243.28 20.5
5 0 -4 1262.87 19.9
5 0 -4 1269.37 43.8
-5 -1 4 634.14 10.5
-5 -1 4 706.63 33.4
-5 -1 4 637.54 12.1
5 1 -4 640.34 32.2
5 1 -4 638.34 10.7
-5 -2 4 1285.97 52.99
-5 -2 4 1168.58 20.5
5 2 -4 1205.08 52.49
5 2 -4 1218.68 18
5 2 -4 1223.88 20.7
5 2 -4 1222.88 18
-5 -3 4 5 1.2
-5 -3 4 4.5 4.3
5 3 -4 5 0.9
5 3 -4 5.3 1.3
5 3 -4 6.2 0.9
5 3 -4 3.3 6.8
-5 -4 4 0.5 7.4
-5 -4 4 12.3 2
5 4 -4 10.4 1.3
5 4 -4 9.1 9.1
5 4 -4 8.3 1.3
-5 -5 4 28.4 3
-5 -5 4 17.8 11.2
-5 -5 4 19 12.1
5 5 -4 28.4 3.1
5 5 -4 32.5 2.5
5 5 -4 28.1 2.3
-5 5 3 178.28 6.7
-5 5 3 173.98 6.7
-5 5 3 178.88 9
5 -5 -3 160.88 34.1
5 -5 -3 171.28 27.1
5 -5 -3 181.48 8.6
-5 4 3 185.18 8.2
-5 4 3 197.38 6.4
-5 4 3 206.78 6.6
-5 4 3 200.18 26.6
5 -4 -3 187.38 8.1
5 -4 -3 151.48 23.5
-5 3 3 192.18 5.9
-5 3 3 194.38 5.9
-5 3 3 204.18 22.6
-5 3 3 189.28 7.8
5 -3 -3 194.18 7.4
5 -3 -3 176.28 26.3
-5 2 3 68.49 3
-5 2 3 65.89 3.7
-5 2 3 69.49 11.7
5 -2 -3 67.29 3.7
5 -2 -3 51.49 11.5
-5 1 3 197.98 5.2
-5 1 3 199.48 16.2
5 -1 -3 197.88 5.8
5 -1 -3 190.38 15.7
5 -1 -3 202.68 5.2
-5 0 3 0.3 0.3
-5 0 3 0.9 1.9
-5 0 3 0.7 0.3
5 0 -3 1.8 0.5
5 0 -3 1.4 1.4
5 0 -3 0 0.2
-5 -1 3 200.18 5.4
-5 -1 3 199.58 3.8
-5 -1 3 196.68 16.5
5 1 -3 195.38 3.9
5 1 -3 199.38 5.4
5 1 -3 200.28 16.6
-5 -2 3 66.39 3.2
-5 -2 3 67.29 11.2
5 2 -3 69.49 1.8
5 2 -3 69.79 14.7
5 2 -3 66.19 3.1
5 2 -3 69.89 1.8
-5 -3 3 200.78 6.4
-5 -3 3 222.38 24.2
5 3 -3 198.98 6.3
5 3 -3 192.58 29.3
5 3 -3 201.08 4.4
5 3 -3 202.48 4.7
-5 -4 3 195.68 6.8
-5 -4 3 199.48 26.7
5 4 -3 191.28 5.4
5 4 -3 198.28 6.9
-5 -5 3 133.99 28.4
-5 -5 3 184.08 31
-5 -5 3 165.88 6.9
5 5 -3 168.68 6.9
5 5 -3 171.08 5.7
-5 5 2 7 1.6
-5 5 2 7.8 1.7
-5 5 2 1.8 1.5
5 -5 -2 6.8 1.9
5 -5 -2 10.5 9.5
5 -5 -2 5.3 12.7
-5 4 2 16.3 2.9
-5 4 2 16.3 1.9
-5 4 2 15.6 1.8
5 -4 -2 15.2 9.3
5 -4 -2 17 2.8
-5 3 2 199.58 6.2
-5 3 2 171.58 26.7
-5 3 2 190.28 7.5
-5 3 2 194.48 6.2
5 -3 -2 195.38 21.1
5 -3 -2 198.78 7.5
-5 2 2 800.42 16.4
-5 2 2 798.62 38.2
-5 2 2 827.72 14.8
5 -2 -2 829.22 16.3
5 -2 -2 838.32 38.1
-5 1 2 19.3 6.1
-5 1 2 22.9 1.8
-5 1 2 24.8 1.7
5 -1 -2 22.1 1.8
5 -1 -2 24.2 1.7
-5 0 2 826.42 13.9
-5 0 2 804.52 13.3
-5 0 2 827.52 29.2
5 0 -2 859.61 29.9
5 0 -2 834.92 13.4
-5 -1 2 26.1 7
-5 -1 2 24.7 1.7
-5 -1 2 23.3 0.7
5 1 -2 27.2 1.7
5 1 -2 24.3 0.7
-5 -2 2 810.02 14.7
-5 -2 2 834.62 39.3
5 2 -2 851.91 40.5
5 2 -2 825.42 14.7
-5 -3 2 206.78 6.2
-5 -3 2 219.38 27.6
5 3 -2 199.98 6.1
5 3 -2 191.98 4.1
5 3 -2 182.88 22.1
-5 -4 2 22.1 9
-5 -4 2 7.4 6.5
-5 -4 2 17.6 1.8
5 4 -2 15.1 1.4
5 4 -2 16.1 1.9
-5 -5 2 2.3 1.1
-5 -5 2 12.5 10
5 5 -2 7 1.4
5 5 -2 4.1 1.3
-5 5 1 88.59 6.2
-5 5 1 93.89 5.2
5 -5 -1 88.19 22.7
5 -5 -1 84.09 5.7
5 -5 -1 56.39 22.8
-5 4 1 13.5 2.1
-5 4 1 21 2.7
5 -4 -1 15.8 2.6
5 -4 -1 -4.2 7.6
5 -4 -1 26.3 11.1
-5 3 1 321.17 27.6
-5 3 1 320.37 10.8
-5 3 1 348.17 8.9
5 -3 -1 328.17 26.7
5 -3 -1 335.97 10.1
-5 2 1 228.98 6.3
-5 2 1 211.38 7
-5 2 1 224.18 6.2
-5 2 1 223.98 19.2
5 -2 -1 215.08 6.9
-5 1 1 1113.19 19.1
-5 1 1 1113.99 18.3
-5 1 1 1152.68 36.2
5 -1 -1 1130.99 35.9
5 -1 -1 1130.19 18.9
-5 0 1 0.3 0.2
-5 0 1 0.2 1.2
-5 0 1 0 0.2
5 0 -1 -0.9 0.8
5 0 -1 0 0.2
5 0 -1 -0.1 0.2
-5 -1 1 1106.09 15
-5 -1 1 1082.49 14.9
-5 -1 1 1093.89 17.6
-5 -1 1 1132.99 36.5
5 1 -1 1100.79 17.5
5 1 -1 1117.09 37.5
-5 -2 1 214.28 19
-5 -2 1 216.88 5.7
5 2 -1 222.68 5.7
-5 -3 1 343.27 5.9
-5 -3 1 313.87 27.9
-5 -3 1 331.77 8
5 3 -1 326.47 8
5 3 -1 341.97 5.9
-5 -4 1 21.3 1.9
-5 -4 1 32.3 13.7
-5 -4 1 16 1.6
-5 -4 1 13.9 9.7
5 4 -1 16.1 1.4
5 4 -1 15.6 1.8
-5 -5 1 101.39 26.3
-5 -5 1 80.79 4.3
-5 -5 1 42 19.1
5 5 -1 74.79 4.1
5 5 -1 79.59 3.6
-5 5 0 24.9 3.9
-5 5 0 28.6 3
5 -5 0 28.6 4.1
5 -5 0 67.79 18.3
5 -5 0 15.1 13.1
-5 4 0 153.58 9
-5 4 0 184.78 7.1
5 -4 0 191.98 8.2
5 -4 0 191.88 24.5
5 -4 0 205.68 26.4
-5 3 0 34.7 2.7
-5 3 0 38 3.3
5 -3 0 33.1 3
-5 2 0 878.21 37.9
-5 2 0 886.91 16.1
-5 2 0 873.11 17.3
5 -2 0 875.61 17.2
5 -2 0 854.11 36.6
-5 1 0 59.19 2.8
-5 1 0 61.59 3.1
-5 1 0 56.89 7.2
5 -1 0 66.09 7.4
5 -1 0 57.49 2.9
-5 0 0 594.94 10.7
-5 0 0 638.24 19.5
-5 0 0 610.94 11.1
5 0 0 596.54 11
5 0 0 603.24 10.7
5 0 0 626.04 19.6
-5 -1 0 60.19 1.8
-5 -1 0 58.89 2.5
-5 -1 0 71.59 8.2
-5 -1 0 55.39 1.7
5 1 0 63.89 7.9
5 1 0 60.09 2.5
-5 -2 0 843.52 12.1
-5 -2 0 861.31 14.5
-5 -2 0 919.11 39.8
5 2 0 847.22 14.5
-5 -3 0 33.5 2.1
-5 -3 0 38.1 10.2
-5 -3 0 32 1.5
-5 -3 0 28.5 9.8
5 3 0 35.3 1.5
5 3 0 31.3 2
-5 -4 0 186.78 5.8
-5 -4 0 186.48 25.4
-5 -4 0 188.88 5
-5 -4 0 168.18 24.6
5 4 0 186.98 5.8
5 4 0 186.48 4.9
-5 -5 0 49.4 17.1
-5 -5 0 42.3 17.2
-5 -5 0 30.7 2.1
5 5 0 29.2 2.5
5 5 0 25.5 2.1
-5 5 -1 119.99 6.3
-5 5 -1 120.59 7.4
5 -5 1 111.59 6.9
5 -5 1 79.29 20.2
-5 4 -1 16 2.7
5 -4 1 39.2 12.6
5 -4 1 18.9 3
5 -4 1 19.8 8.8
-5 3 -1 480.75 11.7
-5 3 -1 470.85 12.8
5 -3 1 461.65 33.4
5 -3 1 484.35 12.8
5 -3 1 469.75 32.1
-5 2 -1 19.4 1.9
-5 2 -1 14.6 1.8
5 -2 1 18.7 6.6
5 -2 1 13 1.9
-5 1 -1 1130.19 19.1
-5 1 -1 1159.78 32.6
-5 1 -1 1131.89 19.1
-5 1 -1 1149.29 19.8
5 -1 1 1167.48 31.8
5 -1 1 1135.19 19.7
-5 0 -1 -0.1 0.6
-5 0 -1 0.1 0.3
-5 0 -1 0.7 0.4
5 0 1 0.8 0.8
-5 -1 -1 1094.49 16.6
-5 -1 -1 1086.59 17.3
-5 -1 -1 1109.99 32.1
-5 -1 -1 1116.49 16.6
5 1 1 1121.29 17.4
-5 -2 -1 12.8 1.2
-5 -2 -1 13.8 5.1
-5 -2 -1 11.5 4.9
-5 -2 -1 14 1
5 2 1 13.8 0.9
5 2 1 14.1 1.2
-5 -3 -1 519.25 35.1
-5 -3 -1 457.15 8.6
-5 -3 -1 473.45 33.4
-5 -3 -1 468.95 9.4
5 3 1 449.66 9.2
-5 -4 -1 18.6 1.6
-5 -4 -1 16.5 1.6
-5 -4 -1 17.6 8.3
-5 -4 -1 22.6 11.2
5 4 1 19.9 1.6
5 4 1 23.2 1.8
-5 -5 -1 100.19 26.9
-5 -5 -1 78.09 22.5
-5 -5 -1 114.59 4.4
-5 -5 -1 112.79 4.4
5 5 1 124.59 4.5
5 5 1 119.49 4.5
-5 5 -2 3.1 1.5
-5 5 -2 1.5 1
5 -5 2 -5.6 9.9
5 -5 2 -1.7 0.9
-5 4 -2 193.78 7.7
5 -4 2 157.38 25.3
5 -4 2 182.48 8.2
-5 3 -2 91.79 5.2
-5 3 -2 87.39 4.6
5 -3 2 98.19 15.3
5 -3 2 92.09 5.2
5 -3 2 89.39 14.4
-5 2 -2 633.54 14.4
5 -2 2 633.84 29.9
5 -2 2 645.44 31.6
-5 1 -2 21.4 1.8
-5 1 -2 23.3 2
5 -1 2 21.4 1.9
5 -1 2 26 5.2
5 -1 2 25.7 4
-5 0 -2 885.91 15.5
-5 0 -2 896.71 15.2
-5 -1 -2 22.8 1.5
-5 -1 -2 23.6 4.1
-5 -1 -2 26.4 4.3
5 1 2 21.1 1.5
-5 -2 -2 625.14 10.9
-5 -2 -2 629.14 30.5
-5 -2 -2 595.64 10.6
-5 -2 -2 569.14 29.8
5 2 2 632.84 10.8
5 2 2 611.04 10.6
-5 -3 -2 90.09 3.4
-5 -3 -2 105.59 15.9
-5 -3 -2 109.09 15.8
-5 -3 -2 88.59 3.1
5 3 2 91.09 3.2
5 3 2 89.19 3.1
-5 -4 -2 181.58 5.5
-5 -4 -2 181.78 5
-5 -4 -2 187.98 25.2
5 4 2 176.98 5.3
5 4 2 181.78 5
-5 -5 -2 -0.3 0.8
-5 -5 -2 0.4 0.6
-5 -5 -2 -14.9 10.5
5 5 2 1.3 0.7
5 5 2 0.2 0.6
-5 4 -3 1.3 1.2
-5 4 -3 0.3 0.7
5 -4 3 -0.8 0.7
5 -4 3 -1.4 5.6
-5 3 -3 204.88 7.5
5 -3 3 151.18 25.2
5 -3 3 211.58 22.1
5 -3 3 208.38 8.1
-5 2 -3 57.29 3.7
-5 2 -3 48.6 3.2
5 -2 3 49.8 8.5
5 -2 3 55.29 8.8
-5 1 -3 479.25 11.4
-5 1 -3 485.45 10.8
5 -1 3 507.05 17.6
5 -1 3 519.35 17.2
-5 0 -3 0.2 0.3
-5 0 -3 0.4 0.4
-5 0 -3 0.7 0.4
-5 0 -3 0.8 0.4
-5 -1 -3 474.75 9.1
-5 -1 -3 490.55 17.5
-5 -1 -3 488.95 9.9
-5 -1 -3 469.75 17.9
-5 -2 -3 54.49 10.8
-5 -2 -3 48.3 10.3
-5 -2 -3 53.59 2.7
-5 -2 -3 47 2.1
5 2 3 49.4 2.4
-5 -3 -3 203.18 5.9
-5 -3 -3 195.98 4.6
-5 -3 -3 176.28 19.8
-5 -3 -3 200.28 21.4
5 3 3 198.58 4.6
5 3 3 193.98 5.5
-5 -4 -3 11.4 8.7
-5 -4 -3 -0.4 6.5
-5 -4 -3 1.9 0.7
5 4 3 1.4 0.7
-5 -5 -3 45.1 20.7
-5 -5 -3 54.79 3.3
-5 -5 -3 51.49 2
5 5 3 51.59 3.1
-5 5 -4 3.6 1.4
5 -5 4 1.9 14.6
-5 4 -4 106.49 6
-5 4 -4 120.89 9.2
5 -4 4 84.69 18.2
5 -4 4 113.89 19.6
-5 3 -4 0.5 0.8
5 -3 4 -3.2 5.1
5 -3 4 0.5 3.7
-5 2 -4 95.99 5.1
-5 2 -4 89.59 4.5
5 -2 4 100.59 12.1
5 -2 4 94.19 11.2
-5 1 -4 23.5 2.3
-5 1 -4 27.2 2.2
5 -1 4 28 4.8
5 -1 4 29.7 3.8
-5 0 -4 270.67 7.7
-5 0 -4 285.37 7.8
-5 0 -4 282.27 7.1
-5 0 -4 285.47 7.1
-5 -1 -4 28.4 1.8
-5 -1 -4 24.6 1.6
-5 -1 -4 26.3 4
-5 -1 -4 28 2.1
-5 -1 -4 26.5 3.9
-5 -2 -4 90.49 10.9
-5 -2 -4 99.79 11.9
-5 -2 -4 90.69 3.9
-5 -2 -4 93.79 2.9
5 2 4 86.89 3.7
-5 -3 -4 3.6 1
-5 -3 -4 1.5 3.5
5 3 4 2.2 0.8
-5 -4 -4 99.79 21.6
-5 -4 -4 114.99 23.6
-5 -4 -4 103.89 4.7
5 4 4 103.69 4.4
-5 -5 -4 -0.5 13
-5 -5 -4 3.4 1.1
5 5 4 -0.9 0.9
-5 4 -5 3.5 1.5
-5 4 -5 8 2.3
-5 3 -5 173.78 7.4
5 -3 5 188.58 20
5 -3 5 165.28 21.5
-5 2 -5 0.5 0.9
5 -2 5 3.6 3.9
5 -2 5 2.8 3.5
-5 1 -5 125.89 5.6
-5 1 -5 131.09 5.2
-5 1 -5 124.69 5.7
5 -1 5 131.49 7.6
5 -1 5 138.69 7.8
-5 0 -5 0.9 0.6
-5 0 -5 2.3 0.7
-5 0 -5 -0.2 0.4
-5 -1 -5 131.89 4.2
-5 -1 -5 126.19 8.6
-5 -1 -5 130.39 4.1
-5 -1 -5 143.39 8.5
-5 -1 -5 125.89 5.1
-5 -2 -5 2 0.5
-5 -2 -5 1 0.7
-5 -2 -5 -0.6 3.5
-5 -2 -5 1.3 0.4
-5 -2 -5 -0.1 3
5 2 5 0.9 0.7
-5 -3 -5 166.08 20.5
-5 -3 -5 172.68 6.3
5 3 5 175.78 6
-5 -4 -5 -4 6.2
-5 -4 -5 6 1.6
5 4 5 1.4 0.9
-5 4 -6 116.29 7.2
5 -4 6 106.79 22.5
-5 3 -6 16.9 2.8
5 -3 6 20.9 8.3
5 -3 6 2.5 5.5
-5 2 -6 67.49 4.7
-5 2 -6 63.19 4.4
5 -2 6 73.29 10
5 -2 6 73.39 10.3
-5 1 -6 -0.1 0.6
-5 1 -6 0.4 0.7
-5 1 -6 -0.3 0.4
5 -1 6 -1.7 1.6
5 -1 6 -0.1 1.5
-5 0 -6 534.85 11.4
-5 0 -6 528.35 11.4
-5 0 -6 544.15 13
-5 0 -6 531.05 13.5
-5 -1 -6 -0.3 0.4
-5 -1 -6 -0.2 0.4
-5 -1 -6 1.5 2.1
-5 -1 -6 2.1 2.3
-5 -1 -6 0.2 0.6
-5 -2 -6 60.19 2.2
-5 -2 -6 58.99 10
-5 -2 -6 66.89 2.3
-5 -2 -6 56.19 9.7
-5 -2 -6 66.49 3.9
5 2 6 65.09 3.7
-5 -3 -6 8.2 1.8
-5 -3 -6 11.4 8.1
5 3 6 6.3 1.5
-5 -4 -6 111.19 5.6
-5 -4 -6 90.89 18.2
5 4 6 106.29 5.1
-5 4 -7 4.8 1.6
5 -4 7 5.7 9
-5 3 -7 336.17 11.1
-5 3 -7 318.47 12
-5 3 -7 335.87 11.9
5 -3 7 339.07 27.4
-5 2 -7 7.2 1.9
-5 2 -7 12 2.5
-5 2 -7 14.7 2.5
5 -2 7 10.8 6.7
5 -2 7 7.9 5.7
-5 1 -7 179.48 6.7
-5 1 -7 181.88 7.6
-5 1 -7 181.18 7.5
5 -1 7 181.38 8.6
5 -1 7 183.78 8.9
-5 0 -7 0.9 0.7
-5 0 -7 -0.6 0.6
-5 0 -7 1.1 0.9
-5 -1 -7 190.78 5.4
-5 -1 -7 178.08 7
-5 -1 -7 183.48 5.4
-5 -1 -7 195.78 16.7
-5 -1 -7 164.78 10.3
-5 -2 -7 16.7 2.5
-5 -2 -7 12.9 1.1
-5 -2 -7 16.4 5.9
-5 -2 -7 11.1 5.3
-5 -2 -7 13.7 1.1
-5 -3 -7 256.17 35.6
-5 -3 -7 314.17 27.8
-5 -3 -7 310.37 9.9
5 3 7 325.37 9.6
-5 -4 -7 2.6 1.4
-5 -4 -7 11.2 10.4
5 4 7 1 1.4
-5 3 -8 5.8 1.8
-5 3 -8 8.4 2.1
5 -3 8 -1.9 6.5
-5 2 -8 171.48 7.3
-5 2 -8 176.18 10.2
-5 2 -8 173.38 8.2
5 -2 8 162.98 15
5 -2 8 191.48 16.2
-5 1 -8 18.4 3
-5 1 -8 17.6 2.9
-5 1 -8 19.7 2.3
5 -1 8 19.8 3.4
5 -1 8 14.8 2.8
-5 0 -8 1290.87 25.5
-5 0 -8 1296.07 25.5
-5 0 -8 1300.47 22.7
-5 0 -8 1285.47 22.6
-5 -1 -8 16 2.6
-5 -1 -8 17 4.2
-5 -1 -8 18.1 1.6
-5 -1 -8 20.2 1.8
-5 -1 -8 13.7 3.8
-5 -2 -8 165.38 3.8
-5 -2 -8 146.39 15
-5 -2 -8 168.08 7.3
-5 -3 -8 7.3 1.8
-5 -3 -8 6.8 8.1
5 3 8 6.5 1.8
-5 3 -9 250.07 11
-5 3 -9 262.07 10.3
5 -3 9 278.87 26.6
-5 2 -9 4.3 1.6
-5 2 -9 3.8 1.4
-5 2 -9 1.5 1.4
5 -2 9 7.4 5.3
-5 1 -9 71.89 5.2
-5 1 -9 64.99 4.2
-5 1 -9 66.29 6.5
-5 0 -9 1 0.8
-5 0 -9 -1.3 0.7
-5 0 -9 0.1 0.6
-5 0 -9 1 1.3
-5 -1 -9 80.79 5.3
-5 -1 -9 75.39 3.5
-5 -1 -9 76.39 3.6
-5 -2 -9 2.8 0.5
-5 -2 -9 2.9 0.6
-5 -2 -9 -3.6 5.7
-5 -2 -9 2.3 1.4
-5 -3 -9 243.18 9.6
-5 -3 -9 212.78 23.6
-5 2 -10 63.29 5.4
-5 2 -10 74.69 5.1
5 -2 10 56.49 13
-5 1 -10 1.8 1.1
-5 1 -10 3.5 1.6
-5 1 -10 -0.4 0.9
-5 0 -10 465.05 11.6
-5 0 -10 470.85 12.1
-5 0 -10 451.65 14.3
-5 0 -10 472.05 14.5
-5 -1 -10 1.3 0.9
-5 -1 -10 1.9 2.1
-5 -1 -10 1.9 0.9
-5 -1 -10 3.2 1.5
-5 -2 -10 65.59 5.1
-5 -2 -10 67.29 12.6
-5 1 -11 8.4 2.6
-5 1 -11 4.3 1.5
-5 0 -11 -1 0.9
-5 0 -11 -1.6 1.1
-5 0 -11 -2.3 1
-5 -1 -11 3.1 1.8
-5 -1 -11 4.3 1.2
-6 1 15 144.09 5.9
6 -1 -15 147.49 8.6
6 -1 -15 153.68 6
-6 0 15 3.3 1.4
6 0 -15 0.6 1
6 0 -15 -1.5 1.2
-6 -1 15 142.69 7
6 1 -15 163.68 7.4
-6 2 14 217.78 6.2
6 -2 -14 214.98 6.1
6 -2 -14 223.18 10.6
-6 1 14 28.4 4.7
-6 1 14 29 2.5
6 -1 -14 4.1 12.4
6 -1 -14 32.5 2.6
6 -1 -14 32.8 3.9
-6 0 14 154.98 7.9
-6 0 14 124.59 28.3
-6 0 14 157.28 6.4
6 0 -14 133.09 28
6 0 -14 156.68 8.2
6 0 -14 151.48 6.4
-6 -1 14 30.6 3.6
-6 -1 14 31.6 3.3
6 1 -14 21 3.4
6 1 -14 20.2 16.2
6 1 -14 24.1 3.2
-6 -2 14 238.88 14.6
6 2 -14 210.88 8.9
6 2 -14 210.98 9.4
6 -3 -13 130.79 8.3
-6 2 13 9.3 1.4
-6 2 13 -0.6 9.2
-6 2 13 7.4 2.2
6 -2 -13 12.7 13.9
6 -2 -13 12.6 1.6
6 -2 -13 10.9 2.8
-6 1 13 364.46 12.5
-6 1 13 339.67 10.6
-6 1 13 302.37 34.9
6 -1 -13 368.96 12.9
6 -1 -13 364.36 9.3
-6 0 13 2.2 1
6 0 -13 -1.4 0.7
6 0 -13 0.2 0.7
-6 -1 13 314.77 35.9
-6 -1 13 365.16 11.9
6 1 -13 385.06 11.1
6 1 -13 380.76 12.5
-6 -2 13 0.1 8
6 2 -13 -17.1 11.4
6 2 -13 6.1 1.8
6 2 -13 8.6 2.2
6 3 -13 113.79 6.8
6 3 -13 133.69 7.1
6 3 -13 127.59 7
-6 3 12 6.7 1
-6 3 12 -1.7 11.1
6 -3 -12 2.2 1.6
6 -3 -12 21.3 17
-6 2 12 177.68 5.4
-6 2 12 153.18 10.7
-6 2 12 151.78 29.3
6 -2 -12 155.58 51.19
6 -2 -12 174.68 8.6
6 -2 -12 180.58 5.4
-6 1 12 6 7.2
-6 1 12 2.2 0.8
-6 1 12 -0.2 0.7
6 -1 -12 -0.2 7.9
6 -1 -12 0.7 0.7
6 -1 -12 -1.2 0.6
-6 0 12 438.86 12.7
-6 0 12 446.86 11.2
-6 0 12 404.96 36.9
6 0 -12 442.56 13.3
6 0 -12 439.56 11.1
6 0 -12 347.47 35.6
-6 -1 12 0.7 0.8
-6 -1 12 5.4 8.2
-6 -1 12 0.5 0.7
6 1 -12 -8.4 6
6 1 -12 0 0.6
6 1 -12 -0.7 0.7
-6 -2 12 189.68 7.8
-6 -2 12 141.79 23.9
6 2 -12 186.58 7.8
6 2 -12 188.28 7.9
-6 -3 12 3.9 1.6
-6 -3 12 -10.3 11.9
6 3 -12 3.2 1.4
6 3 -12 0.5 1.2
6 3 -12 0 1.3
6 3 -12 -10.6 12.9
-6 4 11 -6.5 11.1
6 -4 -11 -1.1 1.1
6 -4 -11 -14.6 12.4
-6 3 11 188.98 8.9
-6 3 11 189.98 28
-6 3 11 187.58 4.9
6 -3 -11 166.48 8.7
6 -3 -11 137.09 29.8
-6 2 11 3.5 7.8
-6 2 11 1.9 0.7
6 -2 -11 3.9 0.8
6 -2 -11 -2 6.1
6 -2 -11 1.1 0.8
-6 1 11 88.69 3.9
-6 1 11 86.59 5.2
-6 1 11 54.69 12.6
6 -1 -11 94.09 4.1
6 -1 -11 96.79 5.7
6 -1 -11 132.59 24.7
-6 0 11 -6.6 4.3
-6 0 11 0.6 0.8
6 0 -11 1 6
6 0 -11 -0.5 0.6
-6 -1 11 89.49 4.8
-6 -1 11 120.29 23.6
-6 -1 11 93.69 5
6 1 -11 92.29 4.8
6 1 -11 76.39 17.2
-6 -2 11 0.9 7.1
6 2 -11 0.8 0.9
6 2 -11 2.5 1.1
6 2 -11 0.4 9.8
-6 -3 11 179.38 31
-6 -3 11 180.28 8.1
6 3 -11 200.88 7.9
6 3 -11 207.48 8
6 3 -11 191.78 8.3
6 3 -11 133.09 38.8
-6 -4 11 -2.4 15.2
6 4 -11 2.9 14.1
6 4 -11 1.8 1.3
6 4 -11 1.5 1.9
6 4 -11 -0.9 0.9
-6 4 10 108.79 3.4
-6 4 10 122.29 3.6
6 -4 -10 116.49 7.5
-6 3 10 8.8 2.1
-6 3 10 11.1 1.3
-6 3 10 3.4 8.7
6 -3 -10 6.1 2
6 -3 -10 0.1 7.8
-6 2 10 67.39 18.5
-6 2 10 52.49 2.7
6 -2 -10 51.39 4.2
6 -2 -10 48 2.6
6 -2 -10 32.3 11.8
-6 1 10 2.7 4.4
-6 1 10 16.7 2.2
-6 1 10 15.6 1.7
6 -1 -10 13.4 1.6
6 -1 -10 11.9 9.4
-6 0 10 452.15 10.9
-6 0 10 451.35 12
-6 0 10 470.15 36.2
6 0 -10 454.65 12.4
6 0 -10 463.55 36.4
6 0 -10 465.45 10.9
-6 -1 10 15.8 2.2
-6 -1 10 12 7.7
-6 -1 10 13.5 3.5
6 1 -10 6.8 6.5
6 1 -10 15.4 2.2
6 1 -10 13.7 2.2
-6 -2 10 58.79 3.9
-6 -2 10 55.49 15.6
6 2 -10 70.29 19.2
6 2 -10 54.59 3.9
6 2 -10 53.29 3.7
-6 -3 10 15.9 9
6 3 -10 26.4 13.2
6 3 -10 11.2 1.9
6 3 -10 13.6 2.4
6 3 -10 16.9 2.5
-6 -4 10 87.89 24.9
6 4 -10 137.69 10.2
6 4 -10 116.59 5.8
6 4 -10 125.19 6
-6 4 9 0.5 0.8
-6 4 9 -0.8 10.3
-6 4 9 2.3 1.4
6 -4 -9 3.6 1.7
6 -4 -9 11.4 10.8
-6 3 9 178.88 24.7
-6 3 9 193.68 5.4
6 -3 -9 180.48 25.3
6 -3 -9 195.48 8.8
-6 2 9 -0.6 5.2
-6 2 9 0.9 1
-6 2 9 -0.1 0.4
6 -2 -9 0 0.6
6 -2 -9 -2.2 3.9
6 -2 -9 -0.2 0.3
-6 1 9 116.79 17.8
-6 1 9 128.79 4.6
-6 1 9 123.59 5.8
6 -1 -9 111.39 18.3
6 -1 -9 123.99 6
6 -1 -9 124.89 4.5
-6 0 9 0 0.6
-6 0 9 -0.5 0.4
-6 0 9 -1 2.4
6 0 -9 -0.8 0.4
6 0 -9 0.5 0.5
6 0 -9 -0.9 4.3
-6 -1 9 133.89 5.4
-6 -1 9 127.09 6.7
-6 -1 9 132.59 18.8
6 1 -9 125.69 5.3
6 1 -9 136.79 5.6
6 1 -9 118.29 18.6
-6 -2 9 1.2 0.7
-6 -2 9 -1.3 4.8
6 2 -9 -0.3 0.6
6 2 -9 0.3 0.6
-6 -3 9 198.68 27.2
6 3 -9 193.98 27.3
6 3 -9 188.68 6.8
6 3 -9 187.28 7.6
6 3 -9 191.98 6.8
-6 -4 9 2 1.3
-6 -4 9 -4.7 9.9
6 4 -9 11.9 12.1
6 4 -9 1.5 1.2
6 4 -9 0.6 0.7
6 4 -9 0.8 1
-6 4 8 120.59 26.2
-6 4 8 126.59 4.4
-6 4 8 123.39 4.3
-6 4 8 118.79 7.4
6 -4 -8 83.49 20.7
6 -4 -8 120.49 7.2
-6 3 8 22.8 11.5
-6 3 8 40.9 2.4
6 -3 -8 31.8 10.5
6 -3 -8 36.4 3.6
-6 2 8 156.38 4.9
-6 2 8 142.09 6.4
-6 2 8 142.59 20.8
6 -2 -8 157.78 4.8
6 -2 -8 149.09 6.8
6 -2 -8 165.28 21.2
-6 1 8 8.6 1.3
-6 1 8 8.1 1.7
-6 1 8 4.1 4
6 -1 -8 5 1.4
6 -1 -8 7.1 5.5
6 -1 -8 6.6 1.2
-6 0 8 625.74 13.6
-6 0 8 639.24 12.9
-6 0 8 640.14 38.6
6 0 -8 615.64 13.8
6 0 -8 633.44 12.8
6 0 -8 630.94 38.3
-6 -1 8 6.3 1.4
-6 -1 8 10.2 6.7
-6 -1 8 4.4 1.1
6 1 -8 7.3 1.4
6 1 -8 8.5 4.6
6 1 -8 6.4 1.3
-6 -2 8 159.78 6.3
-6 -2 8 169.48 21.3
6 2 -8 160.58 6.3
6 2 -8 154.58 5.6
6 2 -8 144.49 20.4
-6 -3 8 43.7 14.9
-6 -3 8 37.3 3.3
6 3 -8 41.7 2.8
6 3 -8 39.1 2.7
6 3 -8 41.8 3.4
6 3 -8 51.19 17.4
-6 -4 8 113.19 25.3
-6 -4 8 124.99 8.4
6 4 -8 117.39 5.2
6 4 -8 131.19 6.6
6 4 -8 115.49 26
6 4 -8 120.79 5.1
6 5 -8 0 1
6 5 -8 0 1.2
-6 5 7 71.89 3.6
-6 5 7 30.4 17.6
-6 5 7 72.89 3.7
6 -5 -7 81.59 6.3
6 -5 -7 66.59 18.9
-6 4 7 7.2 1.3
-6 4 7 6.8 1.2
-6 4 7 7.3 9.9
-6 4 7 3.1 1.7
6 -4 -7 5.6 1.9
-6 3 7 302.47 7.4
-6 3 7 324.47 32.6
6 -3 -7 293.07 30.3
6 -3 -7 286.97 10.4
-6 2 7 26.1 5.3
-6 2 7 38 2.3
-6 2 7 51.09 14.5
6 -2 -7 37.5 11.9
6 -2 -7 40.6 3.3
6 -2 -7 32.5 2.1
-6 1 7 714.13 13.4
-6 1 7 682.03 39
-6 1 7 697.23 15
6 -1 -7 719.43 13.3
6 -1 -7 757.42 15.8
6 -1 -7 715.93 39.9
-6 0 7 -1.8 2.3
-6 0 7 2.1 0.7
-6 0 7 -0.3 0.3
6 0 -7 0.2 0.3
6 0 -7 2.9 3.1
6 0 -7 0.3 0.5
-6 -1 7 735.23 13.8
-6 -1 7 739.73 41.3
-6 -1 7 741.83 14.8
6 1 -7 745.53 14.3
6 1 -7 752.02 14.8
6 1 -7 748.43 42.1
-6 -2 7 37.5 4.2
-6 -2 7 41.4 12.6
6 2 -7 35.2 2.3
6 2 -7 29.4 10.4
-6 -3 7 318.87 31.8
-6 -3 7 311.67 9.7
6 3 -7 318.67 8.1
6 3 -7 307.67 9.6
6 3 -7 334.17 33.6
6 3 -7 307.17 7.8
-6 -4 7 3.8 1.5
-6 -4 7 2.1 11.8
6 4 -7 8.4 1.4
6 4 -7 11 12.2
6 4 -7 8.6 1.5
-6 -5 7 107.39 28.1
6 5 -7 78.69 4.1
6 5 -7 77.99 4.3
6 5 -7 83.99 5.5
-6 5 6 -8 7.3
-6 5 6 4.7 1.2
-6 5 6 6.2 1.5
6 -5 -6 2.3 1.8
6 -5 -6 1.9 11.8
-6 4 6 103.99 6.4
-6 4 6 118.19 4.7
-6 4 6 114.29 4.5
-6 4 6 125.99 27.6
6 -4 -6 179.08 24.8
6 -4 -6 116.29 6.7
-6 3 6 46 2.7
-6 3 6 42 3.7
-6 3 6 47.6 2.7
-6 3 6 53.19 13.5
6 -3 -6 45.7 14.2
6 -3 -6 46.8 4.2
-6 2 6 949.31 16.4
-6 2 6 931.61 19.2
-6 2 6 963.5 48.6
6 -2 -6 953.3 16.4
6 -2 -6 925.61 47.6
6 -2 -6 962.3 19.6
-6 1 6 61.39 2.9
-6 1 6 67.79 11.3
-6 1 6 64.69 3.6
6 -1 -6 63.69 3
6 -1 -6 61.49 3.6
6 -1 -6 70.49 14.5
-6 0 6 1042.1 18.2
-6 0 6 1043.2 18
-6 0 6 1092.69 46.4
6 0 -6 1057.79 18.1
6 0 -6 1048.5 18.5
-6 -1 6 65.49 3.3
-6 -1 6 65.69 2.9
-6 -1 6 70.09 11.6
6 1 -6 66.29 3.4
6 1 -6 74.29 12.1
6 1 -6 66.49 3
-6 -2 6 1013.9 50.79
-6 -2 6 988.7 18.6
6 2 -6 974.6 51.59
6 2 -6 983.4 18.6
6 2 -6 984.3 16.5
-6 -3 6 44.8 3.3
-6 -3 6 61.09 16.7
6 3 -6 47.8 2.5
6 3 -6 47 3.4
6 3 -6 44.4 13.6
6 3 -6 45 2.4
-6 -4 6 116.09 5.8
-6 -4 6 82.59 19.6
6 4 -6 121.09 4.5
6 4 -6 115.59 4.2
6 4 -6 117.89 5.9
6 4 -6 175.58 26.1
-6 -5 6 4.8 1.8
-6 -5 6 -4.9 12.2
6 5 -6 6.8 1.3
6 5 -6 3.4 1.2
6 5 -6 3.6 1
-6 5 5 188.38 9.5
-6 5 5 182.68 6.7
-6 5 5 207.18 32.6
6 -5 -5 192.48 9.4
6 -5 -5 149.49 34
-6 4 5 51.79 15.5
-6 4 5 56.69 3.3
-6 4 5 54.39 3.2
6 -4 -5 57.99 17
6 -4 -5 54.59 4.6
-6 3 5 334.97 8.2
-6 3 5 354.46 31.8
-6 3 5 324.97 8.1
-6 3 5 313.57 10.4
6 -3 -5 332.77 10.6
6 -3 -5 303.87 28.7
-6 2 5 4.5 3.8
-6 2 5 7.8 1.3
-6 2 5 6.8 1.4
6 -2 -5 5.9 1.4
-6 1 5 782.22 14.1
-6 1 5 818.62 39.6
-6 1 5 767.32 15.3
6 -1 -5 792.12 14.1
6 -1 -5 797.22 15.6
6 -1 -5 793.82 38.1
-6 0 5 -0.9 1.8
-6 0 5 2.2 0.7
-6 0 5 1.1 0.5
6 0 -5 0.9 2.5
6 0 -5 0.1 0.3
6 0 -5 0.4 0.3
-6 -1 5 771.52 14.7
-6 -1 5 795.62 13.1
-6 -1 5 818.22 39.4
6 1 -5 781.72 39.1
6 1 -5 808.72 14.9
6 1 -5 786.62 13.4
-6 -2 5 8.5 1.5
-6 -2 5 7.5 5.2
6 2 -5 4.2 5.5
6 2 -5 7.9 0.9
6 2 -5 5.3 1.3
-6 -3 5 324.57 30.7
-6 -3 5 343.87 9.6
6 3 -5 328.97 31.3
6 3 -5 342.17 9.6
6 3 -5 341.47 7
6 3 -5 336.47 7.1
-6 -4 5 54.69 3.8
-6 -4 5 72.99 21.3
6 4 -5 75.89 20.5
6 4 -5 64.19 2.8
6 4 -5 55.99 2.8
6 4 -5 49.8 3.7
-6 -5 5 174.78 12
-6 -5 5 194.68 37
-6 -5 5 177.58 35.5
6 5 -5 188.48 5.6
6 5 -5 191.98 6
6 5 -5 192.58 8
-6 5 4 16.3 2.3
-6 5 4 11.7 2.8
-6 5 4 20.2 2.3
6 -5 -4 3.3 10.1
6 -5 -4 12.6 2.6
-6 4 4 17.9 9.3
-6 4 4 15.8 1.9
6 -4 -4 12 2.3
6 -4 -4 7.4 7.1
-6 3 4 22.6 2
-6 3 4 21.5 2
-6 3 4 14.5 7.5
-6 3 4 21.8 2.5
6 -3 -4 19.1 8.3
6 -3 -4 20.5 2.5
-6 2 4 1192.38 22.2
-6 2 4 1120.29 53.79
-6 2 4 1222.08 19.9
6 -2 -4 1236.98 22.4
6 -2 -4 1121.09 49.3
-6 1 4 186.78 5.4
-6 1 4 194.28 6.1
-6 1 4 209.38 18.1
6 -1 -4 193.08 6.2
6 -1 -4 191.78 17.2
6 -1 -4 196.18 5.5
-6 0 4 965 38.6
-6 0 4 908.01 16
-6 0 4 917.61 15.5
6 0 -4 923.71 15.7
6 0 -4 960.4 38.6
-6 -1 4 185.28 5.6
-6 -1 4 186.58 17.4
-6 -1 4 195.88 4.3
6 1 -4 192.98 4.4
6 1 -4 191.08 5.6
6 1 -4 188.08 17.7
-6 -2 4 1225.68 21.1
6 2 -4 1232.58 21.1
6 2 -4 1248.78 17.5
6 2 -4 1248.08 17.5
6 2 -4 1179.48 53.29
-6 -3 4 12 7.1
-6 -3 4 22.6 2.1
6 3 -4 34.2 12.3
6 3 -4 19.5 2.1
6 3 -4 22.5 1.2
6 3 -4 22.3 1.2
-6 -4 4 22.3 13.3
-6 -4 4 16 2.4
6 4 -4 20.9 14.6
6 4 -4 11.6 1.2
6 4 -4 14.1 2.3
-6 -5 4 9.1 13.3
-6 -5 4 15 2.5
6 5 -4 13.6 1.4
6 5 -4 11.8 1.6
6 5 -4 15.7 2.6
-6 5 3 124.79 7.6
-6 5 3 127.69 6
6 -5 -3 132.79 28.7
6 -5 -3 125.39 7.4
-6 4 3 95.79 4.7
-6 4 3 90.09 4.4
-6 4 3 111.69 24.1
6 -4 -3 70.19 16.7
6 -4 -3 92.59 5.7
-6 3 3 264.77 7.5
-6 3 3 267.17 7.5
-6 3 3 270.87 26.8
-6 3 3 260.47 9.1
6 -3 -3 268.17 25.4
6 -3 -3 251.67 8.9
-6 2 3 50.89 11.9
-6 2 3 45.4 3.2
-6 2 3 49.3 2.7
6 -2 -3 43.3 3.1
6 -2 -3 47.9 11.5
-6 1 3 203.28 5.6
-6 1 3 196.58 6.1
-6 1 3 221.58 17.6
6 -1 -3 207.18 6.2
6 -1 -3 203.58 5.7
-6 0 3 -0.3 0.2
-6 0 3 0.3 0.3
-6 0 3 2.4 2.9
6 0 -3 0.5 0.3
6 0 -3 0.2 0.3
-6 -1 3 210.78 4
-6 -1 3 217.48 5.9
-6 -1 3 218.48 17.7
6 1 -3 207.18 4.1
6 1 -3 212.88 5.9
-6 -2 3 67.09 14.6
-6 -2 3 47.5 2.8
6 2 -3 57.29 13.9
6 2 -3 46.4 2.7
-6 -3 3 264.47 26.5
-6 -3 3 266.37 7.7
6 3 -3 279.67 28
6 3 -3 274.97 7.8
-6 -4 3 102.39 4.8
-6 -4 3 104.99 22.6
6 4 -3 102.99 4.8
6 4 -3 97.29 2.8
6 4 -3 91.89 2.9
-6 -5 3 116.19 5.7
-6 -5 3 78.19 21
6 5 -3 128.19 4.1
6 5 -3 122.09 5.8
6 5 -3 128.89 3.8
-6 5 2 19.3 2.7
-6 5 2 16.2 3.3
-6 5 2 17.4 2.7
6 -5 -2 40.7 17.1
6 -5 -2 5.6 10.5
6 -5 -2 19.7 3.2
-6 4 2 29.5 3.3
-6 4 2 27.2 2.5
-6 4 2 23.4 10.5
6 -4 -2 28.3 3.2
6 -4 -2 11.5 7.5
-6 3 2 257.37 9.1
-6 3 2 260.97 7.6
-6 3 2 278.77 26.8
-6 3 2 260.57 7.7
6 -3 -2 254.17 8.8
6 -3 -2 256.17 25
-6 2 2 445.26 11.3
-6 2 2 457.95 29.1
-6 2 2 437.76 9.9
6 -2 -2 446.56 11.2
-6 1 2 45 2.5
-6 1 2 47.3 2.8
-6 1 2 43.8 7.4
6 -1 -2 38.4 8.4
6 -1 -2 46.9 2.7
6 -1 -2 43.8 2.5
-6 0 2 551.64 10.7
-6 0 2 545.25 10.1
-6 0 2 539.35 24.3
6 0 -2 556.34 10.8
6 0 -2 572.84 10.2
6 0 -2 583.44 25.4
-6 -1 2 46.8 1.3
-6 -1 2 49.4 2.5
-6 -1 2 45.8 7.9
6 1 -2 43.7 9.2
6 1 -2 49.2 2.5
6 1 -2 46.7 1.3
-6 -2 2 448.96 28.6
-6 -2 2 436.96 9.5
6 2 -2 433.26 9.5
-6 -3 2 245.68 25.5
-6 -3 2 261.87 7.4
6 3 -2 274.37 7.6
6 3 -2 280.67 27.3
-6 -4 2 27.3 13.7
-6 -4 2 44.6 15.7
-6 -4 2 27.4 3
6 4 -2 27.1 1.3
6 4 -2 32.1 2.6
-6 -5 2 29.1 15.9
-6 -5 2 16.6 16.2
-6 -5 2 17.6 2.6
6 5 -2 22.7 2.4
6 5 -2 19.5 1.5
-6 5 1 84.89 5.2
-6 5 1 77.79 6.1
-6 5 1 90.79 5.3
6 -5 -1 55.59 18.5
6 -5 -1 79.79 5.9
6 -5 -1 60.89 19.8
-6 4 1 19.8 2.3
-6 4 1 22.6 2.3
6 -4 -1 15.9 9.4
6 -4 -1 15.9 2.7
-6 3 1 499.75 11.7
-6 3 1 488.05 34.8
-6 3 1 472.85 13.3
-6 3 1 477.75 11.6
6 -3 -1 492.25 13.1
-6 2 1 48 2.9
-6 2 1 40.4 10.3
-6 2 1 43.5 3.1
-6 2 1 45.7 2.8
6 -2 -1 30.1 8.1
6 -2 -1 47.4 3.2
-6 1 1 272.07 7.4
-6 1 1 266.77 7
-6 1 1 289.27 17.6
6 -1 -1 285.17 17.5
6 -1 -1 283.17 7.5
-6 0 1 1.4 1.7
6 0 -1 2.1 2
-6 -1 1 260.97 17.2
-6 -1 1 269.17 4.9
-6 -1 1 278.87 6.7
6 1 -1 272.07 6.6
6 1 -1 299.57 19
-6 -2 1 46.8 11.2
-6 -2 1 45.3 2.5
6 2 -1 47.5 2.5
6 2 -1 56.29 13
-6 -3 1 462.05 10.3
-6 -3 1 474.05 34.5
6 3 -1 487.45 10.4
-6 -4 1 12.7 7.7
-6 -4 1 20 13.3
-6 -4 1 16.7 1.8
6 4 -1 22 2.1
6 4 -1 17.8 1
-6 -5 1 86.59 4.4
-6 -5 1 53.99 17.6
-6 -5 1 73.89 20.5
6 5 -1 87.09 2.9
6 5 -1 72.99 5
-6 5 0 36.9 3.4
-6 5 0 30.7 3.9
-6 5 0 36.3 3.5
6 -5 0 31.5 17.3
6 -5 0 32.7 3.8
-6 4 0 230.08 8.2
6 -4 0 241.48 9.5
6 -4 0 241.68 27.2
6 -4 0 225.18 27.8
-6 3 0 5 1.4
-6 3 0 5.3 1.6
6 -3 0 8.7 5.9
6 -3 0 6 1.5
-6 2 0 121.29 4.8
-6 2 0 128.09 14.4
-6 2 0 120.19 4.8
-6 2 0 122.89 5.4
6 -2 0 109.69 5.1
6 -2 0 110.39 12.9
-6 1 0 103.49 4.3
-6 1 0 101.39 4
-6 1 0 108.19 10
6 -1 0 97.19 9.3
6 -1 0 101.69 4.2
-6 0 0 661.73 12.5
-6 0 0 702.63 22.2
-6 0 0 681.93 12.3
6 0 0 662.13 12.5
6 0 0 679.33 12.1
6 0 0 700.13 22.3
-6 -1 0 104.09 3.7
-6 -1 0 103.09 2.8
-6 -1 0 102.69 2.7
-6 -1 0 106.39 10
6 1 0 104.09 10.5
6 1 0 99.89 3.6
-6 -2 0 117.49 4
-6 -2 0 119.69 14.1
6 2 0 120.59 4.1
-6 -3 0 5.3 1
-6 -3 0 5.3 4.2
-6 -3 0 -0.5 4.3
6 3 0 5.4 1.1
-6 -4 0 234.68 31.4
-6 -4 0 228.28 4.8
-6 -4 0 228.78 6.7
-6 -4 0 266.37 29.6
6 4 0 236.48 4.8
6 4 0 232.98 6.7
-6 -5 0 4.9 13
-6 -5 0 20.8 13.8
-6 -5 0 32.5 2.6
6 5 0 31.2 2.5
6 5 0 40.4 2
-6 5 -1 62.99 4.7
6 -5 1 50.19 18.3
6 -5 1 59.39 5.2
-6 4 -1 40.7 3.5
-6 4 -1 48.2 4.2
6 -4 1 40.1 3.9
6 -4 1 55.79 16.9
-6 3 -1 785.52 16.7
-6 3 -1 766.22 18.2
6 -3 1 765.32 41.2
6 -3 1 756.82 43.1
-6 2 -1 20.8 2
-6 2 -1 21.6 2.4
-6 2 -1 24 2.1
6 -2 1 22.4 2.3
6 -2 1 21.6 7.1
-6 1 -1 430.76 10.3
-6 1 -1 434.46 10
-6 1 -1 438.66 9.9
-6 1 -1 444.96 19.2
6 -1 1 449.95 10.4
6 -1 1 452.15 18.7
-6 0 -1 0 0.3
-6 0 -1 0.9 1.1
6 0 1 0.8 1
-6 -1 -1 472.15 19.9
-6 -1 -1 442.06 8.2
-6 -1 -1 426.76 8.2
-6 -1 -1 436.16 8.9
6 1 1 428.46 8.9
-6 -2 -1 25.5 1.7
-6 -2 -1 21.6 1.2
-6 -2 -1 5.1 5.9
-6 -2 -1 15.4 5.7
6 2 1 20.8 1.6
-6 -3 -1 757.52 42.8
-6 -3 -1 793.22 44.5
-6 -3 -1 749.92 13.5
-6 -3 -1 727.23 11.7
6 3 1 761.52 13.6
6 3 1 733.23 11.6
-6 -4 -1 35.9 14.4
-6 -4 -1 46 2.6
-6 -4 -1 46.3 2.1
6 4 1 44.6 2
6 4 1 44.3 2.6
-6 -5 -1 54.89 2.5
-6 -5 -1 60.39 3.1
-6 -5 -1 75.49 22.9
6 5 1 56.39 2.5
6 5 1 54.19 3.1
-6 5 -2 -1.3 1.2
6 -5 2 13.8 11.7
6 -5 2 3.4 1.4
-6 4 -2 116.69 6.1
-6 4 -2 125.59 7
6 -4 2 144.09 21.8
6 -4 2 123.59 20.2
-6 3 -2 585.04 14
6 -3 2 541.95 41.1
6 -3 2 579.44 15
6 -3 2 602.94 37.5
-6 2 -2 226.18 8.1
-6 2 -2 243.28 7.6
6 -2 2 229.48 8
6 -2 2 266.67 19
6 -2 2 235.28 18.7
-6 1 -2 1.6 0.6
-6 1 -2 1.3 0.7
-6 1 -2 1.1 0.7
6 -1 2 2.9 1.8
6 -1 2 1.6 1.5
-6 0 -2 2893.61 41.4
-6 0 -2 2765.42 41.4
-6 -1 -2 2 2.1
-6 -1 -2 2.4 0.7
-6 -1 -2 2.5 1.8
-6 -1 -2 0.8 0.5
-6 -2 -2 225.08 18.5
-6 -2 -2 220.98 17.8
-6 -2 -2 233.78 5.6
-6 -2 -2 231.28 5.7
6 2 2 233.28 5.8
-6 -3 -2 566.44 10.6
-6 -3 -2 577.94 36.3
-6 -3 -2 595.14 37.3
-6 -3 -2 505.45 11.8
6 3 2 576.94 10.1
6 3 2 580.54 10.7
-6 -4 -2 109.99 18.5
-6 -4 -2 121.09 4
-6 -4 -2 119.09 4
-6 -4 -2 116.09 19.1
6 4 2 120.79 3.8
6 4 2 120.59 4.1
-6 -5 -2 -0.7 0.6
-6 -5 -2 -10.6 10.1
6 5 2 1.2 0.8
6 5 2 2.5 0.8
-6 5 -3 36.5 3.9
6 -5 3 23.9 15.2
6 -5 3 34.4 3.9
-6 4 -3 40.1 3.7
-6 4 -3 41.9 4.6
6 -4 3 36.1 12.3
6 -4 3 26.8 12.2
6 -4 3 42.1 4
-6 3 -3 442.76 12
6 -3 3 434.56 12.7
6 -3 3 427.96 30.5
6 -3 3 423.46 31.2
-6 2 -3 0.5 0.5
-6 2 -3 -0.3 0.4
6 -2 3 2 2.8
6 -2 3 -0.6 2.4
-6 1 -3 266.17 7.6
-6 1 -3 273.07 7.7
-6 1 -3 266.57 8.2
6 -1 3 264.27 10.2
-6 0 -3 0.3 0.4
-6 0 -3 -0.4 0.3
-6 0 -3 -0.4 0.2
-6 0 -3 0.9 0.5
-6 -1 -3 275.47 11.5
-6 -1 -3 258.57 6.5
-6 -1 -3 260.07 11.4
-6 -1 -3 259.77 6.7
-6 -1 -3 258.87 6.8
-6 -2 -3 0.3 2.3
-6 -2 -3 0.1 0.5
-6 -2 -3 -3.1 2.9
-6 -2 -3 -0.7 0.3
-6 -3 -3 442.16 9.5
-6 -3 -3 432.26 8.4
-6 -3 -3 395.16 43.6
6 3 3 432.46 8.4
6 3 3 428.76 9
-6 -4 -3 23.7 10.7
-6 -4 -3 42.7 2
-6 -4 -3 58.69 17.3
-6 -4 -3 45.1 2.6
6 4 3 44.8 2
6 4 3 41 2.4
-6 -5 -3 29.7 2.3
-6 -5 -3 27.7 1.5
-6 -5 -3 10.5 17
6 5 3 25.5 2.2
6 5 3 26.5 1.8
-6 4 -4 26.9 3.2
-6 4 -4 20.6 3.2
6 -4 4 10.6 8.7
-6 3 -4 70.89 4.6
6 -3 4 71.59 12.4
6 -3 4 65.09 14.6
-6 2 -4 238.88 11.1
-6 2 -4 226.78 8.5
6 -2 4 254.47 17.7
6 -2 4 228.58 17.5
-6 1 -4 19 1.9
-6 1 -4 22.9 2.3
-6 0 -4 1577.34 26.5
-6 0 -4 1565.74 26.3
-6 0 -4 1549.64 25.3
-6 0 -4 1574.64 25.3
-6 -1 -4 21.7 1.7
-6 -1 -4 17.5 4.1
-6 -1 -4 21.9 2.8
-6 -1 -4 21.4 1.7
-6 -1 -4 21.5 1.9
-6 -2 -4 219.18 5.4
-6 -2 -4 225.68 6.6
-6 -2 -4 222.58 16.6
-6 -2 -4 206.48 16.9
-6 -3 -4 44.7 12.4
-6 -3 -4 76.19 3.7
-6 -3 -4 68.59 2.4
6 3 4 70.49 3.4
-6 -4 -4 26.9 12.8
-6 -4 -4 21.3 2
6 4 4 25.5 2.1
-6 4 -5 82.99 5.6
6 -4 5 93.19 20.8
-6 3 -5 108.49 5.9
6 -3 5 88.49 15
6 -3 5 132.99 16.8
-6 2 -5 42.3 3.3
-6 2 -5 40.6 3.5
6 -2 5 42.9 8.4
6 -2 5 40.6 8.2
-6 1 -5 68.09 4.3
-6 1 -5 74.19 4.4
-6 1 -5 76.29 4.1
-6 0 -5 0.7 0.5
-6 0 -5 -0.5 0.3
-6 0 -5 0 0.5
-6 0 -5 0.5 0.5
-6 -1 -5 68.29 3.1
-6 -1 -5 74.19 3.9
-6 -1 -5 69.59 3.2
-6 -2 -5 47.6 9.3
-6 -2 -5 40.8 2
-6 -2 -5 54.39 10.6
-6 -2 -5 42.7 3
-6 -2 -5 42.8 2.1
-6 -3 -5 108.59 17.3
-6 -3 -5 105.29 4.8
-6 -3 -5 106.49 2.6
-6 -3 -5 104.29 2.6
6 3 5 102.59 4.4
-6 -4 -5 75.29 4.1
-6 -4 -5 66.19 18.4
6 4 5 70.39 3.6
-6 4 -6 89.69 5.9
6 -4 6 67.79 17
-6 3 -6 79.09 5.2
-6 3 -6 73.19 5.5
6 -3 6 90.29 14.2
-6 2 -6 154.78 7.5
-6 2 -6 163.98 7.5
6 -2 6 150.58 13
6 -2 6 151.68 13
-6 1 -6 18.6 2.1
-6 1 -6 14.3 2.4
-6 1 -6 14.2 2.4
-6 0 -6 97.19 5.1
-6 0 -6 101.69 4.4
-6 0 -6 100.59 4.4
-6 0 -6 95.59 5
-6 -1 -6 13.5 1.5
-6 -1 -6 14.9 1.6
-6 -2 -6 161.68 4.4
-6 -2 -6 150.08 6.2
-6 -2 -6 169.28 14.4
-6 -2 -6 165.58 15
-6 -2 -6 159.58 4.4
-6 -3 -6 68.89 4.2
-6 -3 -6 63.09 13.7
-6 -3 -6 77.29 15.1
-6 -4 -6 78.19 18.5
-6 -4 -6 90.19 5
6 4 6 92.29 4.6
-6 3 -7 74.99 5.1
-6 3 -7 74.79 5.5
-6 3 -7 74.99 5.6
6 -3 7 63.49 13.5
-6 2 -7 7.8 2
-6 2 -7 7.1 1.7
-6 2 -7 11.8 2.7
6 -2 7 12.1 5.7
6 -2 7 6.5 4.3
-6 1 -7 235.78 9
-6 1 -7 216.88 7.7
-6 1 -7 215.38 8.6
-6 0 -7 1.9 1
-6 0 -7 -0.7 0.7
-6 0 -7 -0.1 0.7
-6 0 -7 0.1 0.7
-6 -1 -7 221.08 6.4
-6 -1 -7 210.48 9.5
-6 -1 -7 228.48 6.4
-6 -2 -7 13.4 1.2
-6 -2 -7 9.3 1.1
-6 -2 -7 14.5 5.5
-6 -2 -7 13.2 2.3
-6 -2 -7 11.6 5.5
-6 -3 -7 41.4 11.6
-6 -3 -7 66.39 6.8
-6 3 -8 3.4 1.5
-6 3 -8 3.6 1.6
6 -3 8 9.7 7.9
-6 2 -8 182.58 7.8
-6 2 -8 183.88 8.8
-6 2 -8 171.68 8.3
6 -2 8 188.08 13.5
6 -2 8 172.88 12.5
-6 1 -8 35.7 3.5
-6 1 -8 34 3
-6 1 -8 33 3.7
-6 0 -8 8.8 2.1
-6 0 -8 5.1 1.2
-6 0 -8 4.3 1.6
-6 0 -8 6.3 1.4
-6 -1 -8 35 2.5
-6 -1 -8 37.3 2.5
-6 -1 -8 38.2 3.5
-6 -2 -8 177.58 4.5
-6 -2 -8 166.98 14
-6 -2 -8 178.38 4.4
-6 -2 -8 164.38 7.4
-6 -2 -8 168.88 14.1
-6 -3 -8 3.8 1.5
-6 -3 -8 -3 7.4
-6 2 -9 0.1 1.3
-6 2 -9 0.1 1
6 -2 9 2.6 3.3
-6 1 -9 366.56 11.1
-6 1 -9 384.26 12.8
-6 1 -9 379.66 13
-6 0 -9 0 1.4
-6 0 -9 -0.6 0.8
-6 0 -9 0.5 1
-6 0 -9 -0.6 0.8
-6 -1 -9 380.16 9.2
-6 -1 -9 384.86 12.5
-6 -1 -9 381.96 9.3
-6 -2 -9 0.8 0.6
-6 -2 -9 3 0.8
-6 -2 -9 1.7 1.2
-6 -2 -9 7.3 5.7
-6 1 -10 47.1 3.8
-6 1 -10 37.5 4.1
-6 0 -10 26.6 2.8
-6 0 -10 26.7 4
-6 0 -10 28.7 2.7
-6 0 -10 37.3 3.7
-6 -1 -10 44.3 2.9
-6 -1 -10 44.3 2.9
-6 -1 -10 50.39 4.8
-7 1 15 125.79 5.4
7 -1 -15 117.19 5.4
7 -1 -15 118.59 7.7
-7 0 15 -0.5 1.2
7 0 -15 -1.3 1
7 0 -15 -0.3 1.1
-7 -1 15 123.39 6.5
7 1 -15 103.49 9.8
7 1 -15 119.29 6.3
-7 2 14 123.79 4.8
7 -2 -14 120.39 7.9
7 -2 -14 122.59 4.8
-7 1 14 21.8 3.6
-7 1 14 14 15.6
-7 1 14 33.9 2.8
7 -1 -14 31.9 3.2
7 -1 -14 28.1 4.2
7 -1 -14 15.7 11.1
-7 0 14 196.18 28.8
-7 0 14 165.58 8.2
7 0 -14 172.28 7
7 0 -14 173.98 8.6
7 0 -14 190.28 28.7
-7 -1 14 27.8 4.6
-7 -1 14 25 3.2
-7 -1 14 -4.6 11.3
7 1 -14 -5.1 11.7
7 1 -14 24.7 2.9
7 1 -14 29.9 3.6
7 2 -14 137.49 7.3
7 2 -14 142.59 8.4
-7 3 13 164.28 4.8
7 -3 -13 176.58 40.1
7 -3 -13 160.78 9.3
-7 2 13 25.8 13.3
-7 2 13 14.2 1.9
-7 2 13 7.2 2.1
7 -2 -13 -3.9 11.7
7 -2 -13 13 1.9
7 -2 -13 11.4 2.6
-7 1 13 292.47 35.5
-7 1 13 290.27 8.5
-7 1 13 288.57 11.2
7 -1 -13 285.67 11.4
7 -1 -13 287.17 8.4
-7 0 13 -12.7 8.4
-7 0 13 -1.1 0.8
-7 0 13 0 0.8
7 0 -13 -0.6 0.7
7 0 -13 -8.3 10.3
7 0 -13 -0.7 0.7
-7 -1 13 299.57 10
-7 -1 13 296.77 10.4
-7 -1 13 328.77 38.6
7 1 -13 299.17 9.8
7 1 -13 294.47 10.8
-7 -2 13 15 2.6
-7 -2 13 12.4 9.1
7 2 -13 14.7 2.6
7 2 -13 10.5 16.5
7 2 -13 17 2.9
7 3 -13 169.38 8.1
7 3 -13 177.48 8.6
7 3 -13 99.69 31.7
7 3 -13 166.58 7.8
-7 3 12 2.3 0.8
-7 3 12 2.3 11.4
7 -3 -12 4.3 14.7
7 -3 -12 -1.1 1.5
-7 2 12 120.69 6.9
-7 2 12 114.59 4.5
-7 2 12 82.19 18.9
7 -2 -12 104.29 4.4
7 -2 -12 93.99 22.8
7 -2 -12 112.49 7
-7 1 12 26 3
-7 1 12 38.6 12.8
-7 1 12 21.7 4.1
7 -1 -12 28 3.4
7 -1 -12 29.2 15.8
7 -1 -12 27.4 2.4
-7 0 12 526.35 43.4
-7 0 12 491.05 13.7
-7 0 12 494.95 12.3
7 0 -12 435.96 39.4
7 0 -12 494.45 14.2
-7 -1 12 35.9 14.6
-7 -1 12 27.9 2.9
7 1 -12 26.9 3
7 1 -12 27.7 2.8
7 1 -12 8.9 10
-7 -2 12 110.29 6
-7 -2 12 112.29 25.4
7 2 -12 71.69 18.5
7 2 -12 128.29 6.4
7 2 -12 108.99 5.8
-7 -3 12 13.5 12.1
7 3 -12 5.8 14.1
7 3 -12 3.1 1.3
7 3 -12 2.6 1.3
-7 4 11 14.3 1.6
-7 4 11 -1.3 11.3
-7 4 11 17.8 1.6
7 -4 -11 17.6 3.8
7 -4 -11 4.4 17.3
-7 3 11 315.17 7.5
-7 3 11 290.77 11.3
-7 3 11 316.97 35.7
7 -3 -11 300.27 12
7 -3 -11 221.98 32.6
-7 2 11 10.3 1.6
-7 2 11 12.4 2.3
-7 2 11 -2.6 7.8
7 -2 -11 13.8 1.6
7 -2 -11 13.1 2.8
7 -2 -11 27.2 11
-7 1 11 14.4 2.7
-7 1 11 21.3 2
-7 1 11 26.7 11.8
7 -1 -11 7.4 6.5
7 -1 -11 16.8 3
7 -1 -11 15.4 2.1
-7 0 11 0.5 0.5
-7 0 11 -0.3 0.6
-7 0 11 8.4 7.9
7 0 -11 0.4 0.7
7 0 -11 0 0.9
7 0 -11 -8.1 5.9
-7 -1 11 15.8 2.4
-7 -1 11 18.7 2.2
7 1 -11 25.7 9.7
7 1 -11 18.7 2.7
7 1 -11 15.3 2.3
-7 -2 11 14.8 2.4
-7 -2 11 2.9 9.8
7 2 -11 12.3 2.3
7 2 -11 10.8 2.1
7 2 -11 7.8 11
-7 -3 11 313.57 38
-7 -3 11 299.37 10.7
7 3 -11 302.17 10.7
7 3 -11 306.77 9.8
7 3 -11 469.35 57.29
7 3 -11 314.77 10
-7 -4 11 41.1 20.8
7 4 -11 21.4 3.4
7 4 -11 19.5 2.6
7 4 -11 19 2.9
7 4 -11 10.9 28.3
-7 4 10 40.9 20.1
-7 4 10 26.2 2.1
-7 4 10 19.5 1.9
7 -4 -10 20.1 4.4
7 -4 -10 29.3 20.5
-7 3 10 20.2 3.9
-7 3 10 15.8 1.6
-7 3 10 15.6 10.7
7 -3 -10 11.5 2.6
7 -3 -10 3.8 11.6
-7 2 10 73.09 4.9
-7 2 10 68.09 3.4
-7 2 10 112.49 24.7
7 -2 -10 72.59 3.4
7 -2 -10 77.69 5.3
7 -2 -10 77.99 20.7
-7 1 10 257.57 9
-7 1 10 249.38 7.3
-7 1 10 254.17 27.9
7 -1 -10 238.58 7.1
7 -1 -10 228.18 11
7 -1 -10 233.08 26.4
-7 0 10 1252.57 23
-7 0 10 1282.77 70.39
-7 0 10 1310.87 24.1
7 0 -10 1180.98 60.09
7 0 -10 1295.27 24.6
7 0 -10 1278.27 22.6
-7 -1 10 254.77 8.2
-7 -1 10 255.77 28.2
-7 -1 10 252.27 8.2
7 1 -10 224.48 27
7 1 -10 255.67 8.6
7 1 -10 250.47 8.4
-7 -2 10 81.19 18
7 2 -10 83.09 4.5
7 2 -10 82.39 21.3
7 2 -10 85.99 4.9
-7 -3 10 17.4 4
-7 -3 10 18.7 11.3
7 3 -10 28.2 15.7
7 3 -10 22.2 2.4
7 3 -10 19.8 2.2
7 3 -10 15.8 2.6
-7 -4 10 27.4 20.3
7 4 -10 28.4 2.7
7 4 -10 33.2 4
7 4 -10 21.8 2.6
7 4 -10 28.4 26.9
-7 4 9 46.5 19.2
-7 4 9 46.5 2.7
-7 4 9 39.5 4.3
-7 4 9 47.2 2.8
7 -4 -9 44.9 17
7 -4 -9 45.9 4.7
-7 3 9 344.57 8.4
-7 3 9 303.97 32.9
7 -3 -9 332.37 12
7 -3 -9 347.57 38.5
-7 2 9 5.9 5.5
7 -2 -9 9 7.3
-7 1 9 5.2 1.4
-7 1 9 4.3 1
-7 1 9 -0.8 3.9
7 -1 -9 3.4 1.2
7 -1 -9 -3.4 4.1
7 -1 -9 3.8 1
-7 0 9 0.8 4.7
7 0 -9 0.5 0.6
7 0 -9 3.3 1.3
7 0 -9 2.8 5.6
-7 -1 9 0 6.4
-7 -1 9 5.5 1.3
-7 -1 9 4.5 1.1
7 1 -9 5 1.3
7 1 -9 -2.6 3.6
7 1 -9 5.9 1.5
-7 -2 9 1.4 4.8
7 2 -9 8.8 6.9
7 2 -9 1.4 0.7
-7 -3 9 319.87 33.2
7 3 -9 359.26 11.2
7 3 -9 472.65 42.6
7 3 -9 359.86 9.6
7 3 -9 354.96 9.5
-7 -4 9 46.3 16.9
-7 -4 9 45.4 4.1
7 4 -9 49.2 3.2
7 4 -9 42 3.1
7 4 -9 31.8 18.4
7 4 -9 52.69 4.3
-7 4 8 16.1 1.8
-7 4 8 21.8 12.3
-7 4 8 18.6 1.9
-7 4 8 14.8 2.8
7 -4 -8 8.4 2.5
7 -4 -8 -1.7 8
-7 3 8 74.19 18.5
-7 3 8 70.39 3.4
7 -3 -8 67.19 5
7 -3 -8 51.19 14.1
-7 2 8 245.08 26.8
-7 2 8 244.18 6.8
-7 2 8 235.78 8.7
7 -2 -8 244.48 9.1
7 -2 -8 240.58 6.7
7 -2 -8 274.47 27.3
-7 1 8 44.2 12.4
-7 1 8 33.2 2.8
-7 1 8 27.3 2.2
7 -1 -8 22.9 9.5
7 -1 -8 30 2.9
7 -1 -8 32.8 2.3
-7 0 8 2048.3 32.8
-7 0 8 2012.8 73.69
-7 0 8 2047.6 32.4
7 0 -8 2045.7 32.3
7 0 -8 2101.29 33.6
7 0 -8 2024.8 73.69
-7 -1 8 31.7 2.6
-7 -1 8 26.5 8.6
-7 -1 8 32.2 2.3
7 1 -8 20.8 7.5
7 1 -8 31.2 2.6
7 1 -8 34.8 2.6
-7 -2 8 250.47 27.2
-7 -2 8 251.87 8.2
7 2 -8 188.48 24
7 2 -8 256.57 7.2
7 2 -8 250.37 8.5
-7 -3 8 69.79 4.4
-7 -3 8 68.39 18.8
7 3 -8 71.59 3.6
7 3 -8 74.69 3.6
7 3 -8 67.89 4.4
7 3 -8 119.79 24.8
-7 -4 8 23.3 2.9
-7 -4 8 20.4 14.9
7 4 -8 11.5 2.4
7 4 -8 18.5 2
7 4 -8 15.8 11.9
7 4 -8 16.5 1.8
-7 5 7 27.3 2.6
-7 5 7 27.7 2.6
-7 5 7 10.9 15.7
7 -5 -7 30.9 4.6
7 -5 -7 16.9 12.6
-7 4 7 14.7 4.7
-7 4 7 12.5 1.9
-7 4 7 11.8 1.7
-7 4 7 37.4 18
7 -4 -7 12 2.7
7 -4 -7 -0.5 7.1
-7 3 7 449.56 10.1
-7 3 7 424.46 38.2
7 -3 -7 414.66 36.8
7 -3 -7 444.16 13.4
-7 2 7 82.09 3.7
-7 2 7 79.59 4.7
-7 2 7 65.79 14.4
7 -2 -7 85.69 3.7
7 -2 -7 62.69 13.9
7 -2 -7 83.89 4.9
-7 1 7 523.15 34.7
-7 1 7 488.95 10.6
-7 1 7 465.65 11.7
7 -1 -7 485.95 10.5
7 -1 -7 494.55 12.3
7 -1 -7 479.75 32.9
-7 0 7 -0.3 0.3
-7 0 7 0.5 3.9
-7 0 7 0.4 0.5
7 0 -7 3.2 3
7 0 -7 1.1 0.5
7 0 -7 0.4 0.4
-7 -1 7 557.84 36.4
-7 -1 7 495.55 10.4
-7 -1 7 514.55 11.7
7 1 -7 505.25 10.8
7 1 -7 482.45 34.3
7 1 -7 506.95 11.7
-7 -2 7 83.09 4.3
-7 -2 7 105.19 20.7
7 2 -7 81.29 18.1
7 2 -7 88.39 3.6
7 2 -7 89.09 4.5
-7 -3 7 502.35 41.4
-7 -3 7 477.35 12.6
7 3 -7 427.46 39.1
7 3 -7 486.75 10.1
7 3 -7 488.75 12.6
7 3 -7 462.75 9.9
-7 -4 7 34.5 15.6
-7 -4 7 14.5 2.5
7 4 -7 13.4 1.7
7 4 -7 15 2.6
7 4 -7 24 12.4
7 4 -7 15 1.6
-7 -5 7 10.6 20.4
7 5 -7 42.3 20
7 5 -7 29.7 2.4
7 5 -7 25.7 2.4
-7 5 6 38.4 3.1
-7 5 6 50.09 3.3
-7 5 6 15.7 15.5
7 -5 -6 32.2 4.2
7 -5 -6 12.6 14
-7 4 6 170.18 8.4
-7 4 6 164.68 6.1
-7 4 6 154.68 25.6
7 -4 -6 145.69 24.6
7 -4 -6 165.18 8.3
-7 3 6 56.79 3.1
-7 3 6 33.2 11.2
7 -3 -6 60.59 4.5
7 -3 -6 59.39 17.6
-7 2 6 525.45 13.4
-7 2 6 568.14 37.7
-7 2 6 510.85 11.1
7 -2 -6 529.15 11.2
7 -2 -6 542.75 13.8
7 -2 -6 492.05 35.1
-7 1 6 29.4 8
-7 1 6 44 2.6
-7 1 6 46.1 3.1
7 -1 -6 42.8 2.6
7 -1 -6 52.19 12.1
7 -1 -6 41.5 3
-7 0 6 697.03 13.4
-7 0 6 706.93 13.8
-7 0 6 703.03 38.1
7 0 -6 673.23 37.2
7 0 -6 690.73 13.7
7 0 -6 696.33 13.7
-7 -1 6 42.4 2.2
-7 -1 6 30.1 9.2
-7 -1 6 44.7 2.8
7 1 -6 63.59 14.6
7 1 -6 42.3 2.4
7 1 -6 45.6 2.9
-7 -2 6 555.14 12.7
-7 -2 6 550.34 37.5
7 2 -6 521.65 13.2
7 2 -6 549.54 39.2
7 2 -6 531.25 12.4
-7 -3 6 58.99 15.7
-7 -3 6 62.09 3.9
7 3 -6 72.09 18.9
7 3 -6 61.39 2.6
7 3 -6 54.89 3.8
-7 -4 6 171.68 27.3
-7 -4 6 170.98 7.3
7 4 -6 173.98 4.8
7 4 -6 177.28 7.4
7 4 -6 173.18 5
7 4 -6 180.58 28.1
-7 -5 6 46.3 22.4
-7 -5 6 48 4.3
7 5 -6 45.8 4.1
7 5 -6 50.09 2.5
7 5 -6 45.4 2.6
-7 5 5 94.59 4.9
-7 5 5 92.99 4.9
7 -5 -5 76.49 23
7 -5 -5 63.69 7.6
-7 4 5 44.7 3.1
-7 4 5 45.4 3.1
-7 4 5 42.1 4.1
7 -4 -5 48.7 4.4
7 -4 -5 29.7 11.1
-7 3 5 332.17 8.7
-7 3 5 331.27 32.1
-7 3 5 346.17 8.9
7 -3 -5 301.37 29.4
7 -3 -5 328.07 10.8
-7 2 5 43.1 12.4
-7 2 5 29.8 2.2
-7 2 5 32.6 2.8
7 -2 -5 27.9 9.4
7 -2 -5 29.5 2.8
-7 1 5 1149.98 48.1
-7 1 5 1097.09 20.2
-7 1 5 1109.09 19.1
7 -1 -5 1127.59 19.2
7 -1 -5 1104.29 46.9
7 -1 -5 1119.99 20.4
-7 0 5 -0.5 2.5
-7 0 5 0 0.3
-7 0 5 0 0.2
7 0 -5 -0.1 0.3
7 0 -5 3.6 2.9
7 0 -5 0.4 0.4
-7 -1 5 1154.88 48.9
-7 -1 5 1125.09 19.7
-7 -1 5 1116.09 17.5
7 1 -5 1129.99 17.8
7 1 -5 1159.18 49.6
7 1 -5 1115.99 19.8
-7 -2 5 31.6 2.5
-7 -2 5 21 8.5
7 2 -5 18.6 6.8
7 2 -5 28.9 1.4
7 2 -5 31.6 1.4
7 2 -5 27.2 2.3
-7 -3 5 355.46 9.9
-7 -3 5 322.87 31.2
7 3 -5 346.07 9.8
7 3 -5 339.97 6.2
7 3 -5 331.97 32.7
7 3 -5 339.07 6.2
-7 -4 5 49.4 3.6
-7 -4 5 37.5 14
7 4 -5 54.09 18.2
7 4 -5 46.9 1.9
7 4 -5 43.1 2.2
7 4 -5 48.5 3.7
-7 -5 5 90.69 24.8
-7 -5 5 95.49 5.5
7 5 -5 88.89 5.3
7 5 -5 91.69 3.1
7 -5 -4 15.4 12.7
-7 4 4 229.58 7.6
-7 4 4 208.08 29
-7 4 4 226.08 7.7
-7 4 4 213.38 9.6
7 -4 -4 228.88 9.5
7 -4 -4 183.18 26.2
-7 3 4 331.27 31
-7 3 4 364.06 9.3
-7 3 4 366.86 9.4
-7 3 4 362.96 11.5
7 -3 -4 343.47 29.8
-7 2 4 475.45 32.2
-7 2 4 470.95 12.1
-7 2 4 459.75 10.4
7 -2 -4 479.95 31.8
7 -2 -4 482.45 12.1
-7 1 4 -0.5 0.4
-7 1 4 -1.3 3.1
7 -1 -4 -1.2 2.1
7 -1 -4 0.5 0.5
7 -1 -4 0.8 0.5
-7 0 4 108.19 4.1
-7 0 4 99.49 12.4
-7 0 4 108.39 3.9
7 0 -4 100.19 3.8
7 0 -4 101.99 4
-7 -1 4 0.4 0.4
-7 -1 4 0 0.2
-7 -1 4 2 2.8
7 1 -4 -2.7 1.8
7 1 -4 -0.3 0.3
7 1 -4 0.2 0.2
-7 -2 4 487.65 33.1
-7 -2 4 490.05 11.2
7 2 -4 496.55 11.3
7 2 -4 529.55 35.5
-7 -3 4 355.86 9.8
-7 -3 4 415.16 34.6
7 3 -4 374.06 9.9
7 3 -4 380.86 34
-7 -4 4 251.47 29.8
-7 -4 4 225.48 7.9
7 4 -4 181.18 28.1
7 4 -4 228.58 7.9
-7 -5 4 -4.9 13.4
-7 -5 4 -1.1 0.7
-7 -5 4 11.5 10.9
7 5 -4 1.3 1.2
-7 5 3 107.09 5.4
-7 5 3 102.69 5.6
7 -5 -3 101.39 7
7 -5 -3 119.09 25.5
-7 4 3 15.4 2.5
-7 4 3 11.7 8.5
-7 4 3 14.9 2.3
7 -4 -3 15.5 2.8
7 -4 -3 10.4 13.9
-7 3 3 34.8 2.6
-7 3 3 34.6 3.3
-7 3 3 37.2 2.8
-7 3 3 59.79 17
7 -3 -3 38.5 3.7
7 -3 -3 34.5 10.2
-7 2 3 1.3 0.7
-7 2 3 -0.9 2.5
-7 2 3 2.1 0.8
7 -2 -3 1.3 1
7 -2 -3 4 3.4
-7 1 3 580.94 12.3
-7 1 3 576.34 11.7
-7 1 3 608.64 30.9
7 -1 -3 473.85 29.7
7 -1 -3 594.34 11.8
7 -1 -3 586.84 12.3
-7 0 3 0.4 0.3
-7 0 3 -0.3 2.2
-7 0 3 0.6 0.4
7 0 -3 0.7 1.8
7 0 -3 0.3 0.4
7 0 -3 0.4 0.4
-7 -1 3 591.64 31
-7 -1 3 607.14 9.4
-7 -1 3 599.04 12.1
7 1 -3 610.14 12.1
7 1 -3 602.14 9.4
-7 -2 3 -1.2 2.6
-7 -2 3 1 0.5
7 2 -3 -2.5 2.4
7 2 -3 1.6 0.7
-7 -3 3 28.1 10.1
-7 -3 3 41.7 2.9
7 3 -3 35.9 2.7
7 3 -3 23.4 9.2
-7 -4 3 15.5 2.2
-7 -4 3 -0.4 8.1
7 4 -3 15.4 2.7
-7 -5 3 92.19 26.2
-7 -5 3 127.29 29
-7 -5 3 93.49 5.1
7 5 -3 94.09 5.2
-7 5 2 2.7 1.2
-7 5 2 2.1 1.2
7 -5 -2 -17.8 9.4
7 -5 -2 3.6 1.8
-7 4 2 62.39 4
-7 4 2 78.29 4.5
-7 4 2 47 13.1
7 -4 -2 69.79 5.1
7 -4 -2 58.59 17
-7 3 2 304.97 8.7
-7 3 2 266.57 27
-7 3 2 314.17 8.9
-7 3 2 307.57 10.4
7 -3 -2 265.97 25.7
7 -3 -2 303.97 12.3
-7 2 2 629.74 13.2
-7 2 2 612.44 34.6
-7 2 2 643.44 14.7
7 -2 -2 623.74 33.9
7 -2 -2 624.04 14.2
-7 1 2 0.5 0.5
-7 1 2 1.3 1.9
-7 1 2 -0.2 0.4
7 -1 -2 0.1 0.3
7 -1 -2 0 0.4
7 -1 -2 2 2.6
-7 0 2 21.4 6.3
-7 0 2 15 1.4
-7 0 2 12.9 1.4
7 0 -2 13.5 1.3
7 0 -2 14.3 1.4
7 0 -2 13.2 5
-7 -1 2 2.7 2.7
7 1 -2 3.8 2.9
-7 -2 2 632.84 35.3
-7 -2 2 620.84 12.5
7 2 -2 594.44 35.1
7 2 -2 620.84 12.5
-7 -3 2 282.67 27.1
-7 -3 2 307.67 8.3
7 3 -2 298.07 29.1
7 3 -2 306.87 8.2
-7 -4 2 68.29 4
-7 -4 2 69.09 20.4
-7 -4 2 77.29 18.3
7 4 -2 70.69 3.9
-7 -5 2 1.3 1.2
-7 -5 2 -3.3 11.4
-7 -5 2 -11.4 12.9
-7 5 1 84.29 5.3
-7 5 1 85.19 5.4
7 -5 -1 84.29 9.2
-7 4 1 60.89 4.1
7 -4 -1 50.19 15.2
7 -4 -1 59.99 4.8
-7 3 1 58.99 13.3
-7 3 1 72.69 4.1
-7 3 1 71.19 4.8
-7 3 1 68.89 3.9
7 -3 -1 68.59 5.3
7 -3 -1 74.59 17.5
-7 2 1 65.89 3.5
-7 2 1 70.39 4.2
-7 2 1 65.59 3.6
-7 2 1 67.39 11.2
7 -2 -1 62.89 3.9
7 -2 -1 68.89 10.8
-7 1 1 771.62 15.6
-7 1 1 824.72 32
-7 1 1 796.52 15.2
7 -1 -1 801.72 15.5
7 -1 -1 829.72 31.9
-7 0 1 0.8 0.4
-7 0 1 0.6 0.4
-7 0 1 -0.6 1.5
7 0 -1 0.4 1.7
7 0 -1 0.6 0.4
7 0 -1 0.2 0.4
-7 -1 1 755.82 12
-7 -1 1 814.72 32.2
-7 -1 1 760.32 14.1
7 1 -1 769.42 14.3
7 1 -1 800.02 33.5
-7 -2 1 66.39 3.2
-7 -2 1 76.69 11.7
7 2 -1 68.99 3.3
7 2 -1 74.49 15.3
-7 -3 1 76.19 16.9
-7 -3 1 74.79 3.6
7 3 -1 75.09 3.6
-7 -4 1 62.29 3.7
-7 -4 1 55.29 18.7
7 4 -1 64.99 3.6
-7 -5 1 61.99 21.5
-7 -5 1 85.29 4.4
7 5 -1 88.99 4.5
-7 5 0 42 3.9
-7 5 0 39.8 3.8
7 -5 0 47.6 4.6
7 -5 0 33 17.3
-7 4 0 111.09 9.7
-7 4 0 129.89 6.6
-7 4 0 151.68 6.8
7 -4 0 155.38 23.4
7 -4 0 148.99 7.6
-7 3 0 46.2 3.9
-7 3 0 44.8 3.3
7 -3 0 27.9 9.4
7 -3 0 41 3.5
-7 2 0 703.13 14.6
-7 2 0 664.73 15.4
-7 2 0 696.63 14.6
-7 2 0 697.23 34.6
7 -2 0 666.43 32.7
7 -2 0 681.33 15.4
-7 1 0 118.39 4.7
-7 1 0 129.49 11.5
-7 1 0 122.39 5
7 -1 0 124.19 4.9
7 -1 0 127.19 11
-7 0 0 999.2 28.7
-7 0 0 954.7 16.6
-7 0 0 955.8 17
7 0 0 958 16.3
7 0 0 969.6 28.6
7 0 0 948.01 17
-7 -1 0 117.39 3.3
-7 -1 0 124.19 4.3
-7 -1 0 124.89 11.4
-7 -1 0 115.79 3.4
7 1 0 134.09 12.2
7 1 0 115.79 4.2
-7 -2 0 651.33 12.8
-7 -2 0 700.93 34.2
7 2 0 680.83 13
-7 -3 0 46.7 13.3
-7 -3 0 56.49 14.3
-7 -3 0 45.3 2.7
7 3 0 42.5 2.6
-7 -4 0 140.69 22.1
-7 -4 0 82.69 23.8
-7 -4 0 148.49 5.4
7 4 0 152.78 5.4
-7 -5 0 36.2 2.8
-7 -5 0 56.89 20
7 5 0 34.8 2.7
7 -5 1 7.4 15.4
-7 4 -1 14 2.4
-7 4 -1 21.2 2.6
-7 4 -1 21.7 3.6
7 -4 1 10.1 9.3
7 -4 1 13.9 8.4
7 -4 1 14.7 2.8
-7 3 -1 292.07 9.2
-7 3 -1 282.97 9.2
7 -3 1 261.57 24.9
7 -3 1 260.17 25.2
7 -3 1 285.87 9.9
-7 2 -1 23 2.2
-7 2 -1 23.3 2.3
-7 2 -1 24.2 4.6
7 -2 1 21.2 2.4
7 -2 1 19.4 7
-7 1 -1 770.62 26.5
-7 1 -1 773.32 15.8
-7 1 -1 769.52 15.2
7 -1 1 754.92 25.4
7 -1 1 762.22 15.5
-7 0 -1 -0.1 1
-7 0 -1 -0.5 0.4
-7 0 -1 -0.3 0.4
7 0 1 -1.6 1.2
-7 -1 -1 760.32 26.4
-7 -1 -1 747.73 13.9
-7 -1 -1 751.02 13
-7 -1 -1 785.72 14.8
7 1 1 762.32 14
-7 -2 -1 25.1 7.4
-7 -2 -1 19.4 6.7
-7 -2 -1 21.5 1.2
-7 -2 -1 20.3 1.7
-7 -2 -1 22.3 1.2
7 2 1 21.3 1.8
-7 -3 -1 262.47 24.4
-7 -3 -1 275.67 25.5
-7 -3 -1 264.47 6.9
7 3 1 264.07 6.9
-7 -4 -1 23.1 2
-7 -4 -1 18.3 11.1
-7 -4 -1 4.8 6.1
7 4 1 21.4 1.8
-7 -5 -1 90.39 26
-7 -5 -1 87.39 3.9
7 5 1 82.49 3.8
-7 4 -2 261.27 10.8
-7 4 -2 246.88 9.5
-7 3 -2 11.2 1.9
7 -3 2 5.6 6
7 -3 2 6.1 1.7
7 -3 2 19.3 7.8
-7 2 -2 234.48 7.8
-7 2 -2 233.28 7.8
-7 2 -2 230.68 8.4
7 -2 2 235.28 8.3
7 -2 2 217.88 16.9
7 -2 2 235.28 18.4
-7 1 -2 2.4 0.8
-7 1 -2 4.3 1.1
-7 1 -2 3.1 0.9
7 -1 2 3.6 2.5
7 -1 2 0.9 2.2
-7 0 -2 772.82 14.7
-7 0 -2 761.32 14.9
-7 -1 -2 4.2 0.9
-7 -1 -2 2 2
-7 -1 -2 2.3 0.7
-7 -1 -2 6.1 2.5
-7 -1 -2 2.1 0.7
-7 -2 -2 232.18 6.1
-7 -2 -2 246.68 18.7
-7 -2 -2 230.28 17.8
-7 -2 -2 230.18 5.5
-7 -2 -2 216.88 6.9
7 2 2 223.68 6
-7 -3 -2 11.3 1.1
-7 -3 -2 17.4 8
-7 -3 -2 10 1.4
7 3 2 9.5 1.4
-7 -4 -2 222.88 28.1
-7 -4 -2 239.38 5.2
-7 -4 -2 224.18 6.1
-7 -4 -2 237.68 26.8
7 4 2 242.58 6.3
-7 4 -3 4.7 1.6
-7 4 -3 6.8 2.1
7 -4 3 2.2 1.6
7 -4 3 2.3 6.6
-7 3 -3 232.78 8.6
7 -3 3 211.98 8.8
7 -3 3 238.68 22.9
7 -3 3 230.78 21.4
-7 2 -3 10.6 2
-7 2 -3 8.3 1.6
-7 2 -3 14.5 2.2
7 -2 3 19.6 6
7 -2 3 8.9 4.6
-7 1 -3 315.27 9.5
-7 1 -3 327.47 9.2
-7 1 -3 324.97 9
-7 0 -3 0.1 0.5
-7 0 -3 -0.5 0.4
-7 0 -3 -0.7 0.4
-7 0 -3 -0.5 0.3
-7 -1 -3 326.57 8.2
-7 -1 -3 331.97 8
-7 -1 -3 343.07 9.9
-7 -1 -3 326.77 8.1
-7 -2 -3 10 1.3
-7 -2 -3 13.3 1.4
-7 -2 -3 6.4 4.2
-7 -2 -3 15.4 5.9
-7 -3 -3 218.68 5.9
-7 -3 -3 212.88 5.5
-7 -3 -3 197.58 22
7 3 3 219.18 5.6
-7 -4 -3 7.3 1
-7 -4 -3 5.2 1
7 4 3 5.9 1
7 -4 4 71.69 16.4
-7 3 -4 2.8 1.5
-7 3 -4 0.7 0.7
7 -3 4 2.2 4.5
-7 2 -4 66.59 4.2
-7 2 -4 69.19 4.7
7 -2 4 72.09 9.1
7 -2 4 78.59 9.3
-7 1 -4 16.1 2.6
-7 1 -4 15.8 1.9
-7 1 -4 15.8 1.9
-7 0 -4 371.86 10
-7 0 -4 385.06 10
-7 0 -4 373.56 9.3
-7 0 -4 376.56 9.5
-7 -1 -4 17 1.7
-7 -1 -4 13.7 1.7
-7 -1 -4 18.1 1.7
-7 -1 -4 17.3 1.7
-7 -2 -4 101.19 10.5
-7 -2 -4 73.09 3.1
-7 -2 -4 70.39 10.2
-7 -2 -4 75.49 3.7
-7 -3 -4 0.6 0.6
-7 -3 -4 1.1 0.6
-7 -3 -4 -1.5 4.5
-7 -4 -4 82.49 2.9
-7 -4 -4 82.99 3.8
-7 -4 -4 74.99 20.3
-7 4 -5 -0.7 1.1
7 -4 5 -2.8 8.4
-7 3 -5 90.99 6.1
7 -3 5 95.19 14.5
-7 2 -5 4.4 1.4
-7 2 -5 1.3 0.9
7 -2 5 9.1 4.2
7 -2 5 1.6 3.2
-7 1 -5 89.79 5
-7 1 -5 87.89 5
-7 1 -5 88.49 4.6
-7 1 -5 91.69 5.1
-7 0 -5 0.5 0.6
-7 0 -5 -0.7 0.5
-7 0 -5 -0.4 0.5
-7 0 -5 0.8 0.5
-7 -1 -5 91.29 4.4
-7 -1 -5 83.79 3.7
-7 -1 -5 86.39 3.8
-7 -1 -5 85.19 4.4
-7 -2 -5 6 1.1
-7 -2 -5 9.1 4.3
-7 -2 -5 5.9 5.3
-7 -2 -5 3.7 1.2
-7 -2 -5 5.2 0.9
-7 -3 -5 94.59 4.5
-7 -3 -5 90.49 14.3
-7 -3 -5 86.79 2.8
-7 -3 -5 101.49 16
-7 -4 -5 2.3 10.5
-7 -4 -5 0.6 0.8
-7 3 -6 28.6 3.6
-7 3 -6 27.2 3.2
7 -3 6 25.9 7.8
-7 2 -6 130.09 6.9
-7 2 -6 137.09 7.2
-7 2 -6 136.49 6.5
7 -2 6 124.19 9.7
7 -2 6 135.59 10.4
-7 1 -6 4.1 1.2
-7 1 -6 5.8 1.4
-7 1 -6 6.6 1.6
-7 1 -6 4.8 1.3
-7 0 -6 111.49 5.6
-7 0 -6 93.09 6.1
-7 0 -6 109.99 4.9
-7 0 -6 107.99 4.8
-7 -1 -6 3.8 1.3
-7 -1 -6 5.1 1.1
-7 -1 -6 5.5 1.1
-7 -1 -6 4.6 1.4
-7 -2 -6 131.09 5.8
-7 -2 -6 127.49 4.2
-7 -2 -6 132.59 4.3
-7 -2 -6 130.59 11.9
-7 -3 -6 25.6 2.7
-7 -3 -6 24.5 1.1
-7 3 -7 68.69 4.9
-7 3 -7 54.09 4.9
7 -3 7 50.99 11.3
-7 2 -7 17.6 3.1
-7 2 -7 13.2 2.6
-7 2 -7 15.6 2.5
7 -2 7 10.7 2.1
-7 1 -7 188.78 7.4
-7 1 -7 187.08 7.3
-7 1 -7 184.48 8.3
-7 1 -7 191.18 8.3
-7 0 -7 1 0.7
-7 0 -7 -0.3 0.7
-7 0 -7 -0.6 0.9
-7 0 -7 -0.2 0.5
-7 -1 -7 188.58 6.1
-7 -1 -7 192.98 7.7
-7 -1 -7 194.28 7.6
-7 -1 -7 189.08 6.1
-7 -2 -7 15.6 1.6
-7 -2 -7 21.8 5.3
-7 -2 -7 21.5 2.7
-7 -2 -7 19.4 5.2
-7 -2 -7 17.3 1.5
-7 -3 -7 66.29 4.4
-7 -3 -7 60.59 14.1
-7 2 -8 227.68 9
-7 2 -8 218.48 10.3
-7 1 -8 14.6 2.4
-7 1 -8 21.4 2.9
-7 1 -8 16.1 2.9
-7 0 -8 46.3 4.2
-7 0 -8 39.1 3.8
-7 0 -8 43 3.2
-7 0 -8 40.7 3.2
-7 -1 -8 22 2.2
-7 -1 -8 22.9 3.3
-7 -1 -8 24.3 2.2
-7 -1 -8 26.9 3.2
-7 -2 -8 207.58 5.4
-7 -2 -8 218.68 5.6
-7 -2 -8 225.08 8.8
-7 1 -9 339.17 12.5
-7 1 -9 326.87 10.7
-7 0 -9 -0.7 0.9
-7 0 -9 -1.9 0.9
-7 0 -9 -3.1 1.5
-7 0 -9 0.4 0.9
-7 -1 -9 334.37 9.3
-7 -1 -9 309.87 8.6
-7 -1 -9 316.87 11.4
-7 -1 -9 318.17 12.1
8 -1 -15 3.4 1.2
8 -1 -15 5.4 2
-8 0 15 -1.1 1.2
8 0 -15 -2.2 1.2
8 0 -15 1.4 1.2
-8 -1 15 3.5 1.7
8 1 -15 6.3 1.6
8 1 -15 5.9 2.1
-8 2 14 65.79 3.8
8 -2 -14 80.89 24.8
8 -2 -14 69.59 3.8
8 -2 -14 72.19 6.2
-8 1 14 2 1
-8 1 14 4.5 11.6
-8 1 14 0.3 1.4
8 -1 -14 -5.4 9.2
8 -1 -14 -0.1 1.1
8 -1 -14 0.3 0.8
-8 0 14 544.25 49.2
-8 0 14 512.15 15.3
-8 0 14 538.55 13.8
8 0 -14 529.65 13.5
8 0 -14 527.25 16
8 0 -14 497.85 55.79
-8 -1 14 -1.8 1
-8 -1 14 0.6 9
-8 -1 14 -0.2 1.1
8 1 -14 -20.1 12.9
8 1 -14 -0.1 1.2
8 2 -14 81.09 5.6
8 2 -14 45.4 24.9
8 2 -14 72.19 5.4
-8 3 13 139.79 4.9
-8 3 13 97.89 26.6
8 -3 -13 134.19 30.4
8 -3 -13 122.49 8
-8 2 13 0.3 1.3
-8 2 13 0.9 0.7
-8 2 13 12.8 11.2
8 -2 -13 0.1 1.3
8 -2 -13 1.4 0.8
-8 1 13 277.67 8.5
-8 1 13 240.58 33.4
-8 1 13 270.47 10.6
8 -1 -13 292.27 9.1
8 -1 -13 288.27 34
8 -1 -13 276.67 11.1
-8 0 13 -1.3 0.9
-8 0 13 1.3 1
-8 0 13 9.9 10.3
8 0 -13 -0.9 0.7
8 0 -13 -7.3 10.1
8 0 -13 0.7 1
-8 -1 13 271.57 9.8
-8 -1 13 294.17 10
-8 -1 13 269.27 34.3
8 1 -13 282.47 9.7
8 1 -13 282.87 10.4
8 1 -13 287.07 33.5
-8 -2 13 6.7 9.9
-8 -3 13 86.79 26.7
8 3 -13 143.99 7.7
8 3 -13 134.59 6.8
8 3 -13 124.09 27.7
8 3 -13 145.59 7.1
-8 3 12 7.2 1.3
8 -3 -12 6.7 1.9
-8 2 12 232.98 9.8
-8 2 12 245.08 32.3
-8 2 12 225.18 7.1
8 -2 -12 218.08 6.9
8 -2 -12 277.97 32.6
8 -2 -12 220.18 10
-8 1 12 0.8 6.1
-8 1 12 3 1.1
-8 1 12 1.7 1.3
8 -1 -12 3.6 1.3
8 -1 -12 4 1.2
8 -1 -12 2.1 7.2
-8 0 12 532.65 14.4
-8 0 12 515.25 44.2
-8 0 12 544.25 13.3
8 0 -12 547.65 15.1
8 0 -12 524.55 43.4
8 0 -12 541.35 13.1
-8 -1 12 4.7 1.3
-8 -1 12 5.3 6.2
8 1 -12 4.8 1.5
8 1 -12 1.6 1.1
8 1 -12 2.3 7.5
-8 -2 12 233.88 31.1
-8 -2 12 229.48 10.9
8 2 -12 231.78 8.7
8 2 -12 224.28 8.9
8 2 -12 232.18 32.5
-8 -3 12 -2.6 25.7
8 3 -12 4.5 1.7
8 3 -12 5.5 1.7
8 3 -12 10 2.7
-8 3 11 70.39 21
-8 3 11 116.19 4.6
-8 3 11 93.69 6.4
8 -3 -11 116.49 7.4
8 -3 -11 75.49 18.2
-8 2 11 1.1 0.9
-8 2 11 0.7 0.8
-8 2 11 0.1 12
8 -2 -11 5.4 8.5
8 -2 -11 0.6 0.7
8 -2 -11 1.5 1.1
-8 1 11 373.66 9.9
-8 1 11 388.16 36.4
-8 1 11 369.16 11.7
8 -1 -11 369.66 9.8
8 -1 -11 376.76 12.1
8 -1 -11 386.06 36.8
-8 0 11 6.4 7.9
-8 0 11 0.8 0.8
-8 0 11 0.5 0.6
8 0 -11 0.5 0.8
8 0 -11 -10.3 8.1
8 0 -11 0.6 0.7
-8 -1 11 348.37 35.1
-8 -1 11 379.76 10.8
-8 -1 11 382.66 11
8 1 -11 371.06 35.5
8 1 -11 396.36 11.1
8 1 -11 387.06 11.4
-8 -2 11 6.9 8.4
-8 -2 11 1.5 0.9
8 2 -11 0.6 0.9
8 2 -11 -4.1 8.4
8 2 -11 3.7 1.2
-8 -3 11 106.99 6.2
-8 -3 11 110.39 27.6
8 3 -11 116.99 5.6
8 3 -11 118.29 6.5
8 3 -11 110.09 5.4
8 3 -11 97.19 22.4
-8 4 10 129.29 4.9
-8 4 10 121.19 26.5
-8 4 10 118.99 4.7
8 -4 -10 75.09 21.3
8 -4 -10 119.79 7.7
-8 3 10 12.4 1.8
-8 3 10 7.6 2.3
8 -3 -10 6.7 8.3
8 -3 -10 8 2.4
-8 2 10 75.59 16.6
-8 2 10 115.89 6.3
-8 2 10 118.09 4.8
8 -2 -10 123.49 4.9
8 -2 -10 90.09 21.8
8 -2 -10 119.29 6.6
-8 1 10 28.9 2.4
-8 1 10 26.7 2.8
-8 1 10 15.9 9.3
8 -1 -10 22.6 2.8
8 -1 -10 29.2 11.1
8 -1 -10 28.4 2.3
-8 0 10 17.2 2.1
-8 0 10 21.5 2.3
-8 0 10 13.9 6.7
8 0 -10 29.2 11.7
8 0 -10 19.1 2.4
8 0 -10 22.8 2.3
-8 -1 10 19.8 8.8
-8 -1 10 25.3 2.4
-8 -1 10 30 2.7
8 1 -10 31.9 2.9
8 1 -10 29.4 2.8
8 1 -10 26.1 11.7
-8 -2 10 134.49 21.7
8 2 -10 121.59 5.4
8 2 -10 87.69 20.1
-8 -3 10 9.3 2.2
-8 -3 10 18.3 14.7
8 3 -10 11.6 2.3
8 3 -10 12.3 2
8 3 -10 -2 9.9
8 3 -10 11.2 1.9
-8 -4 10 112.69 26.8
8 4 -10 119.79 6.9
8 4 -10 123.69 5.3
8 4 -10 63.49 22.7
-8 4 9 -2.3 10.1
-8 4 9 5.1 1.2
-8 4 9 2.4 1.1
8 -4 -9 4 10.3
8 -4 -9 1.8 1.9
-8 3 9 74.29 19.8
-8 3 9 78.39 3.8
8 -3 -9 43.8 12.9
8 -3 -9 80.99 5.6
-8 2 9 0.9 0.6
-8 2 9 18.5 10.9
-8 2 9 1.6 1.1
8 -2 -9 2.8 0.9
8 -2 -9 2.1 5.5
8 -2 -9 1.9 1.3
-8 1 9 159.98 6.7
-8 1 9 160.28 5.8
-8 1 9 133.69 20.3
8 -1 -9 133.79 19.7
8 -1 -9 157.18 5.7
8 -1 -9 163.48 7
-8 0 9 1.4 5
-8 0 9 0.2 1
-8 0 9 -0.2 0.5
8 0 -9 -1 0.6
8 0 -9 3.1 5.1
8 0 -9 -0.2 0.4
-8 -1 9 177.48 6.7
-8 -1 9 166.78 22
-8 -1 9 164.98 5.9
8 1 -9 171.78 6.6
8 1 -9 174.98 6.4
8 1 -9 171.68 23.2
-8 -2 9 -1.6 6.9
8 2 -9 3.4 1
8 2 -9 0.8 0.8
8 2 -9 -2.1 6.2
-8 -3 9 83.79 21.4
-8 -3 9 86.19 5.3
8 3 -9 82.69 3.9
8 3 -9 103.89 25.6
8 3 -9 88.69 5.3
8 3 -9 79.29 3.8
-8 -4 9 11 13
8 4 -9 56.89 23.6
-8 4 8 77.79 5.6
-8 4 8 80.39 4
-8 4 8 78.69 4.1
-8 4 8 45.3 15.5
8 -4 -8 83.59 6.1
-8 3 8 4.9 8.1
-8 3 8 10 1.6
8 -3 -8 11.1 2.4
8 -3 -8 7.1 7.6
-8 2 8 268.57 9.5
-8 2 8 270.67 7.7
-8 2 8 301.57 30
8 -2 -8 281.37 29
8 -2 -8 272.87 7.7
8 -2 -8 271.17 10
-8 1 8 35.9 2.6
-8 1 8 36.6 3
-8 1 8 16.8 7.3
8 -1 -8 32 10.6
8 -1 -8 32.6 2.5
8 -1 -8 33.8 3.1
-8 0 8 91.39 15.1
-8 0 8 73.49 3.8
-8 0 8 76.89 4
8 0 -8 82.69 14.1
8 0 -8 82.69 4.1
8 0 -8 69.69 4
-8 -1 8 31.5 11.4
-8 -1 8 36.1 2.5
-8 -1 8 33.9 2.7
8 1 -8 33.3 2.8
8 1 -8 51.99 15.3
8 1 -8 38.2 2.7
-8 -2 8 274.77 28.9
8 2 -8 288.57 7.6
8 2 -8 295.47 9.2
8 2 -8 281.07 30.3
-8 -3 8 18.6 10.6
-8 -3 8 11.4 2.1
8 3 -8 26.5 10.4
8 3 -8 13.9 1.5
8 3 -8 15.3 2.4
8 3 -8 14.1 1.6
-8 -4 8 84.29 5.4
-8 -4 8 67.89 22.3
8 4 -8 73.19 3.5
8 4 -8 81.19 3.5
8 4 -8 76.29 31.5
8 4 -8 79.19 5.2
-8 4 7 3.6 1.3
-8 4 7 4.6 1.3
-8 4 7 -0.6 9.5
-8 4 7 1.6 1.6
8 -4 -7 -12.2 6.7
8 -4 -7 4.6 1.6
-8 3 7 156.38 5.7
-8 3 7 148.59 23.7
8 -3 -7 117.69 20.3
8 -3 -7 166.98 7.9
-8 2 7 21.4 2.5
-8 2 7 22.9 2.1
-8 2 7 26 9.2
8 -2 -7 26.6 2.8
8 -2 -7 36.1 11.9
8 -2 -7 23.5 2.1
-8 1 7 503.35 11.4
-8 1 7 538.75 36.2
-8 1 7 497.25 12.4
8 -1 -7 495.05 11.3
8 -1 -7 499.25 35
8 -1 -7 493.55 12.5
-8 0 7 0.8 3.9
-8 0 7 0.2 0.4
8 0 -7 0.6 0.5
8 0 -7 -2.3 3.4
8 0 -7 0.2 0.5
-8 -1 7 470.65 34.4
-8 -1 7 499.95 10.3
-8 -1 7 504.55 11.9
8 1 -7 463.65 34.5
8 1 -7 498.75 10.6
8 1 -7 486.85 11.6
-8 -2 7 23.5 2.3
-8 -2 7 26.3 9
8 2 -7 31.4 2.7
8 2 -7 16.1 7.6
8 2 -7 24.2 1.8
-8 -3 7 185.38 25.9
-8 -3 7 165.78 7
8 3 -7 161.28 4.6
8 3 -7 142.99 22.6
8 3 -7 162.88 4.7
8 3 -7 168.58 7
-8 -4 7 5 1.6
-8 -4 7 5.4 11.5
8 4 -7 -10.5 11.4
8 4 -7 2.9 1.3
8 4 -7 4 0.8
8 4 -7 4.3 0.9
-8 5 6 -1.1 10.8
8 -5 -6 -11.2 12.8
-8 4 6 90.29 7.3
-8 4 6 65.69 18.5
-8 4 6 90.79 6.4
-8 4 6 86.89 4.4
8 -4 -6 83.89 5.9
8 -4 -6 98.29 24.1
-8 3 6 3.4 1.2
-8 3 6 12.9 7.4
8 -3 -6 2.8 1.2
8 -3 -6 -1.1 6.1
-8 2 6 803.02 46.2
-8 2 6 798.82 17.8
-8 2 6 800.62 15.5
8 -2 -6 791.62 15.5
8 -2 -6 806.42 17.9
8 -2 -6 747.63 45.7
-8 1 6 14.4 1.8
-8 1 6 13.3 7
-8 1 6 10.7 1.6
8 -1 -6 13.9 1.8
8 -1 -6 12.6 1.6
8 -1 -6 21 7.8
-8 0 6 524.15 11.3
-8 0 6 557.34 34.8
-8 0 6 530.45 11.8
8 0 -6 545.85 11.8
8 0 -6 506.95 32.6
8 0 -6 539.05 11.6
-8 -1 6 10.2 5.7
-8 -1 6 12.4 1.2
-8 -1 6 14.3 1.7
8 1 -6 11.9 1.3
8 1 -6 13.3 1.6
8 1 -6 18 7.4
-8 -2 6 789.52 16.5
-8 -2 6 866.41 47.9
8 2 -6 813.82 13.2
8 2 -6 810.52 16.7
8 2 -6 668.13 56.59
-8 -3 6 4 8.3
-8 -3 6 4.6 1.2
8 3 -6 4.9 0.7
8 3 -6 3.2 6.7
8 3 -6 4.7 1.2
8 3 -6 6.3 0.7
-8 -4 6 92.59 5.4
-8 -4 6 111.09 25
8 4 -6 87.09 5.2
8 4 -6 67.29 23.4
-8 -5 6 17.8 3.2
-8 -5 6 14.4 17.3
8 5 -6 16.8 2.8
-8 5 5 76.49 24.4
-8 5 5 101.19 5.3
-8 5 5 104.39 5.4
8 -5 -5 95.89 6.9
8 -5 -5 54.69 19.2
-8 4 5 3 1
-8 4 5 3.6 1.7
-8 4 5 4.1 7.9
-8 4 5 4.3 1.3
8 -4 -5 6.6 2
8 -4 -5 16.5 10.9
-8 3 5 225.38 7.3
-8 3 5 220.08 7.3
-8 3 5 229.58 26.6
8 -3 -5 218.68 8.8
8 -3 -5 206.18 25.8
-8 2 5 -1.7 1
-8 2 5 3.7 1
-8 2 5 2.8 4.3
8 -2 -5 1.8 1
8 -2 -5 6.5 5.9
-8 1 5 975.9 17.7
-8 1 5 956.7 18.4
-8 1 5 946.31 44.7
8 -1 -5 968 17.6
8 -1 -5 914.11 43.7
8 -1 -5 963 18.5
-8 0 5 0.1 0.4
-8 0 5 0.2 0.4
-8 0 5 -1.9 2.6
8 0 -5 0.4 0.4
8 0 -5 4.6 3.7
8 0 -5 0.2 0.4
-8 -1 5 979.3 18.1
-8 -1 5 998.2 15.5
-8 -1 5 898.01 44.4
8 1 -5 969.5 46.1
8 1 -5 983 18.2
8 1 -5 978 15.8
-8 -2 5 3.2 6.3
-8 -2 5 3.5 1.4
8 2 -5 1.1 0.7
8 2 -5 4.9 4.3
8 2 -5 1.7 0.4
8 2 -5 1 0.3
-8 -3 5 230.08 7.8
-8 -3 5 208.28 25.4
-8 -4 5 -6.6 8.9
-8 -4 5 1 1.2
8 4 -5 10.8 12.3
8 4 -5 4.3 1.4
-8 -5 5 96.59 5.6
-8 -5 5 103.59 24.8
8 5 -5 101.59 5.8
-8 5 4 2.9 1.2
-8 5 4 2.4 1.3
8 -5 -4 8.1 15.7
8 -5 -4 1.4 1.4
-8 4 4 76.59 18.4
-8 4 4 110.69 5.4
-8 4 4 95.09 8.1
-8 4 4 97.79 5
8 -4 -4 130.49 21.6
8 -4 -4 105.29 6.5
-8 3 4 170.98 22
-8 3 4 175.98 6.5
-8 3 4 162.18 7.7
-8 3 4 174.58 6.4
8 -3 -4 174.38 7.7
8 -3 -4 148.39 21
-8 2 4 621.84 14.9
-8 2 4 649.64 13.5
-8 2 4 617.14 37.7
8 -2 -4 642.74 14.9
8 -2 -4 610.24 37
-8 1 4 12.6 1.5
-8 1 4 11.2 1.8
-8 1 4 10.4 5.7
8 -1 -4 10.7 1.7
8 -1 -4 15.8 1.7
-8 0 4 161.78 5
-8 0 4 159.18 5.4
-8 0 4 141.49 15.3
8 0 -4 154.78 5.4
8 0 -4 163.18 5
-8 -1 4 14.2 6.4
-8 -1 4 13.6 1
-8 -1 4 14.2 1.6
8 1 -4 14.2 1.1
8 1 -4 16.4 1.7
-8 -2 4 690.23 40.2
-8 -2 4 659.53 13.9
8 2 -4 646.74 13.9
8 2 -4 630.54 39.7
-8 -3 4 175.88 6.5
-8 -3 4 190.48 23.5
8 3 -4 163.98 6.3
8 3 -4 144.49 21.9
-8 -4 4 107.29 5.4
-8 -4 4 127.19 27
8 4 -4 110.39 5.4
8 4 -4 124.29 27.4
-8 -5 4 -20.3 15.1
-8 -5 4 2 2
-8 -5 4 6.9 12.5
8 5 -4 -0.8 1.1
-8 5 3 91.39 5.5
-8 5 3 97.29 5.6
8 -5 -3 68.29 25.5
8 -5 -3 93.09 6.8
-8 4 3 8.7 2
-8 4 3 6.5 8.6
8 -4 -3 0.1 7.5
8 -4 -3 6.6 1.9
-8 3 3 68.29 4
-8 3 3 65.39 3.9
-8 3 3 58.59 15.5
-8 3 3 59.09 4.6
8 -3 -3 86.59 19.3
8 -3 -3 64.39 4.5
-8 2 3 2.1 1
-8 2 3 3.9 4.6
-8 2 3 3.9 1
8 -2 -3 2.9 1.1
-8 1 3 591.84 12.4
-8 1 3 569.44 12.7
-8 1 3 584.54 31.3
8 -1 -3 583.84 12.7
8 -1 -3 580.94 12.4
8 -1 -3 554.44 30.1
-8 0 3 -0.1 0.4
-8 0 3 0 0.3
8 0 -3 -0.1 0.4
8 0 -3 0 0.2
-8 -1 3 596.44 12.4
-8 -1 3 611.94 32.5
-8 -1 3 583.24 9.6
8 1 -3 558.24 31.9
8 1 -3 600.14 9.6
8 1 -3 586.44 12.4
-8 -2 3 8.6 6.2
-8 -2 3 2 0.8
8 2 -3 4 1.1
-8 -3 3 73.79 16.5
-8 -3 3 63.59 3.6
8 3 -3 60.99 15
8 3 -3 60.79 3.6
-8 -4 3 12.2 9
-8 -4 3 10.9 2
8 4 -3 7.8 1.6
-8 -5 3 78.49 4.8
-8 -5 3 126.39 31
8 5 -3 86.89 4.9
-8 5 2 6.5 1.7
-8 5 2 3.8 1.8
8 -5 -2 36.3 16
8 -5 -2 7.7 2.2
-8 4 2 72.89 4.7
-8 4 2 47 13.3
-8 4 2 78.19 8.2
8 -4 -2 81.89 5.6
8 -4 -2 68.29 19.5
-8 3 2 147.79 7.2
-8 3 2 145.29 6
-8 3 2 147.69 20
-8 3 2 132.69 7.2
8 -3 -2 141.19 6.8
-8 2 2 409.96 28.5
-8 2 2 428.76 11
-8 2 2 425.96 11.7
8 -2 -2 385.96 27
8 -2 -2 420.06 11.4
-8 1 2 1.3 0.7
-8 1 2 0.3 0.4
-8 1 2 0.7 2.3
8 -1 -2 2.5 2.8
8 -1 -2 0.8 0.6
-8 0 2 158.18 5
-8 0 2 168.28 14.7
-8 0 2 160.78 5.5
8 0 -2 151.38 14.3
8 0 -2 162.68 4.9
8 0 -2 156.78 5.4
-8 -1 2 -2.3 2.3
-8 -1 2 0.8 0.6
-8 -1 2 1 0.4
8 1 -2 0.6 0.6
8 1 -2 2.6 3
-8 -2 2 408.46 9.8
-8 -2 2 425.46 28.8
8 2 -2 411.26 9.8
8 2 -2 377.16 28.5
-8 -3 2 144.89 20
-8 -3 2 134.89 5.3
8 3 -2 138.89 5.4
-8 -4 2 57.79 17.8
-8 -4 2 78.69 23.8
-8 -4 2 71.79 4.1
8 4 -2 72.99 4.1
-8 -5 2 4.1 12
-8 -5 2 8 1.7
8 5 -2 10 2
-8 5 1 118.79 6.5
-8 5 1 118.39 7
8 -5 -1 85.29 23.3
8 -5 -1 112.29 7.4
-8 4 1 61.69 4.4
-8 4 1 70.19 8.2
-8 4 1 62.69 4.4
8 -4 -1 64.89 5.1
-8 3 1 72.29 4.3
-8 3 1 69.29 4.9
-8 3 1 56.89 14.4
-8 3 1 68.69 4.2
8 -3 -1 66.39 4.6
8 -3 -1 68.59 16
-8 2 1 205.48 7
-8 2 1 199.18 9.2
-8 2 1 203.28 7
-8 2 1 196.58 19.3
8 -2 -1 201.58 20.8
8 -2 -1 203.98 7.5
-8 1 1 373.26 28.6
-8 1 1 364.86 9.3
-8 1 1 330.47 9.2
8 -1 -1 334.77 9.1
8 -1 -1 344.27 20.6
-8 0 1 0.1 0.4
-8 0 1 2.3 1.9
-8 0 1 0.8 0.5
8 0 -1 0.5 2.1
8 0 -1 0.2 0.4
8 0 -1 0.3 0.5
-8 -1 1 338.97 8.4
-8 -1 1 333.27 6.6
8 1 -1 334.97 8.4
8 1 -1 343.07 21.9
-8 -2 1 194.98 18.8
-8 -2 1 207.38 6.3
8 2 -1 205.08 6.3
-8 -3 1 74.49 3.7
-8 -3 1 82.69 18
8 3 -1 69.59 3.6
-8 -4 1 65.09 18.2
-8 -4 1 37.3 13.3
-8 -4 1 57.99 3.6
8 4 -1 61.89 3.6
-8 -5 1 111.99 26.9
-8 -5 1 110.59 5.2
8 5 -1 113.29 5.2
-8 5 0 41.5 3.9
8 -5 0 -9.2 15.8
-8 4 0 181.28 9.1
-8 4 0 193.38 8
-8 4 0 186.78 7.8
8 -4 0 125.19 21.2
8 -4 0 183.38 8.7
8 -4 0 190.38 27.3
-8 3 0 69.39 4.9
-8 3 0 63.39 4.1
-8 3 0 74.69 4.4
8 -3 0 78.59 5.1
8 -3 0 61.79 15.3
-8 2 0 338.67 9.7
-8 2 0 389.36 25.5
-8 2 0 355.56 10.7
-8 2 0 347.17 9.7
8 -2 0 349.07 23.6
8 -2 0 366.06 10.6
-8 1 0 0.8 0.5
-8 1 0 -0.2 0.3
-8 1 0 1.6 2.4
8 -1 0 0.3 0.5
8 -1 0 -0.5 1.7
-8 0 0 624.14 22.8
-8 0 0 577.14 12.4
-8 0 0 585.84 12
8 0 0 592.04 12.4
8 0 0 600.84 22.5
-8 -1 0 5.4 3.2
8 1 0 3.4 3.1
-8 -2 0 346.47 8.6
-8 -2 0 337.47 24.1
8 2 0 361.96 8.8
-8 -3 0 67.29 3.5
-8 -3 0 48.2 11.8
-8 -3 0 56.59 14.4
8 3 0 64.29 3.4
-8 -4 0 195.08 26.3
-8 -4 0 193.58 26
-8 -4 0 190.18 6.4
8 4 0 195.58 6.4
-8 -5 0 41.6 3
8 5 0 37.3 3.1
-8 4 -1 1.9 1.6
-8 4 -1 -0.8 0.7
-8 4 -1 3.3 1.4
8 -4 1 -7.2 7.2
8 -4 1 2.6 1.1
-8 3 -1 172.68 7.2
-8 3 -1 180.18 8.2
8 -3 1 187.58 8.1
8 -3 1 201.98 47.2
8 -3 1 172.78 19.3
-8 2 -1 40.5 3.1
-8 2 -1 37.4 3.3
-8 2 -1 34.3 5.4
8 -2 1 41 3.4
8 -2 1 25.2 7.4
-8 1 -1 346.07 9.7
-8 1 -1 331.17 16.9
-8 1 -1 364.06 9.9
8 -1 1 374.26 17.3
8 -1 1 335.37 9.4
-8 0 -1 0.1 1.4
-8 0 -1 0.3 0.4
-8 0 -1 0.2 0.5
8 0 1 -1.6 1.3
-8 -1 -1 340.17 7.7
-8 -1 -1 360.46 17.5
-8 -1 -1 350.56 7.5
-8 -1 -1 343.97 8.6
8 1 1 352.86 8.7
-8 -2 -1 31.1 8.3
-8 -2 -1 34.6 9.1
-8 -2 -1 39.6 1.7
-8 -2 -1 37.9 1.7
-8 -2 -1 42 2.5
8 2 1 36.8 2.5
-8 -3 -1 173.08 5.6
-8 -3 -1 171.98 22.1
8 3 1 180.18 5.7
-8 -4 -1 2 0.8
-8 -4 -1 -1.6 7.6
-8 -4 -1 9.4 9.7
8 4 1 1.7 0.9
-8 4 -2 335.77 12.9
-8 4 -2 333.07 11.4
-8 4 -2 345.67 11.6
8 -4 2 297.27 30.9
8 -4 2 319.17 12.1
-8 3 -2 59.29 4.2
-8 3 -2 59.39 4.7
8 -3 2 57.39 13.2
8 -3 2 43.8 12
8 -3 2 64.49 4.7
-8 2 -2 106.89 5.8
-8 2 -2 105.69 5.3
-8 2 -2 111.79 5.4
8 -2 2 109.09 12.7
8 -2 2 112.99 11.9
8 -2 2 115.99 5.9
-8 1 -2 64.79 3.9
-8 1 -2 53.89 3.5
-8 1 -2 58.29 3.6
8 -1 2 52.39 5.8
8 -1 2 64.99 5.4
-8 0 -2 290.77 8.1
-8 0 -2 274.17 8
-8 -1 -2 58.89 3
-8 -1 -2 58.99 2.9
-8 -1 -2 68.59 5.8
-8 -1 -2 56.09 5.5
-8 -1 -2 60.39 3.2
-8 -2 -2 92.79 11.6
-8 -2 -2 111.49 4.3
-8 -2 -2 114.09 3.7
-8 -2 -2 108.09 3.6
-8 -2 -2 118.39 12.9
8 2 2 109.39 4.3
-8 -3 -2 61.49 13.8
-8 -3 -2 60.49 2.2
-8 -3 -2 61.59 3.1
-8 -3 -2 61.29 2.3
8 3 2 63.39 3.2
-8 -4 -2 332.07 39.6
-8 -4 -2 301.37 7.6
8 4 2 317.67 7.8
-8 4 -3 162.98 12.2
8 -4 3 139.09 22.3
-8 3 -3 168.58 7.5
-8 3 -3 158.08 8.1
8 -3 3 179.98 18.9
8 -3 3 170.88 19.4
-8 2 -3 41.8 3.3
-8 2 -3 38.2 3.2
-8 2 -3 38.4 3.6
8 -2 3 36.3 7.9
8 -2 3 37.1 8.2
-8 1 -3 616.94 13.9
-8 1 -3 586.84 14.4
-8 1 -3 607.04 13.9
-8 0 -3 -1.1 0.5
-8 0 -3 -0.5 0.5
-8 0 -3 -1.2 0.6
-8 0 -3 0.2 0.5
-8 -1 -3 586.34 12.2
-8 -1 -3 583.24 12.2
-8 -1 -3 570.94 12.3
-8 -2 -3 29.4 7.8
-8 -2 -3 40 2.4
-8 -2 -3 37.5 2.4
-8 -2 -3 42.5 9.9
-8 -2 -3 37.2 2.4
-8 -3 -3 155.58 4.6
-8 -3 -3 164.38 4.8
-8 -3 -3 165.98 20.7
-8 -3 -3 153.98 18.5
-8 -3 -3 156.38 5
-8 -4 -3 147.19 27
-8 -4 -3 119.59 3.9
-8 -4 -3 118.29 3.4
-8 4 -4 188.68 8.8
8 -4 4 167.58 23.6
-8 3 -4 3 1.6
-8 3 -4 5.9 1.4
-8 3 -4 3.2 1.4
8 -3 4 11.3 9.9
-8 2 -4 27.5 2.8
-8 2 -4 25.1 2.7
-8 2 -4 17.1 2.7
8 -2 4 25.8 5.9
8 -2 4 38.4 7.1
-8 1 -4 74.29 4.3
-8 1 -4 64.29 4.3
-8 1 -4 75.79 4.3
-8 0 -4 152.08 5.8
-8 0 -4 156.28 6.3
-8 0 -4 152.88 6.1
-8 0 -4 150.58 6.2
-8 -1 -4 71.79 3.6
-8 -1 -4 75.59 3.9
-8 -1 -4 71.29 3.9
-8 -1 -4 73.19 3.7
-8 -2 -4 21.9 1.8
-8 -2 -4 27.4 6.1
-8 -2 -4 23.7 2.1
-8 -2 -4 17.8 1.9
-8 -3 -4 -4.5 5.9
-8 -3 -4 5.2 1
-8 -3 -4 3.1 0.9
-8 -3 -4 9 6.4
-8 -4 -4 183.98 5.4
-8 -4 -4 163.68 24.9
-8 -4 -4 183.38 4.3
-8 3 -5 103.49 6.7
-8 3 -5 101.49 6.1
-8 3 -5 99.29 5.9
8 -3 5 80.29 13.3
-8 2 -5 5.6 1.4
-8 2 -5 2.5 1.3
-8 2 -5 3.1 1.5
8 -2 5 4.2 2.6
-8 1 -5 421.06 12.2
-8 1 -5 420.66 11.5
-8 1 -5 420.26 11.6
-8 1 -5 409.46 12.3
-8 0 -5 1.3 0.7
-8 0 -5 -0.1 0.5
-8 0 -5 -0.2 0.6
-8 -1 -5 406.06 9.9
-8 -1 -5 402.66 12.5
-8 -1 -5 410.26 10.9
-8 -1 -5 407.26 9.9
-8 -2 -5 4 1.3
-8 -2 -5 3.8 0.9
-8 -2 -5 4.2 1.3
-8 -2 -5 5.3 5.5
-8 -2 -5 2.8 3.5
-8 -2 -5 4.1 1.1
-8 -3 -5 105.99 3.5
-8 -3 -5 95.89 4.6
-8 -3 -5 104.79 16.9
-8 -3 -5 98.99 3.3
8 -3 6 23.4 9
-8 2 -6 33 4
-8 2 -6 52.99 4.1
-8 2 -6 46.9 4.2
-8 2 -6 48.5 4.1
-8 1 -6 6.9 1.7
-8 1 -6 4.5 1.9
-8 1 -6 4.1 1.5
-8 1 -6 5.4 1.5
-8 0 -6 127.09 6.2
-8 0 -6 117.29 5.4
-8 0 -6 136.49 6.4
-8 0 -6 114.49 8.2
-8 -1 -6 6.9 1.4
-8 -1 -6 5.4 1.2
-8 -1 -6 7 1.7
-8 -1 -6 7.2 2.7
-8 -2 -6 55.69 2.9
-8 -2 -6 43.7 2.6
-8 -2 -6 44.7 3.5
-8 -2 -6 47.4 3.6
-8 -3 -6 22.7 1.4
-8 -3 -6 39.1 11.8
-8 -3 -6 25.8 2.8
-8 2 -7 30.3 3.6
-8 2 -7 30.1 3.1
-8 2 -7 30.5 3.6
-8 2 -7 18.3 3.9
-8 1 -7 92.89 5.3
-8 1 -7 87.79 5.7
-8 1 -7 99.09 10.1
-8 1 -7 91.79 5.2
-8 0 -7 -0.3 1.3
-8 0 -7 1 0.8
-8 0 -7 1.7 1
-8 0 -7 0.8 1.1
-8 -1 -7 89.19 4.3
-8 -1 -7 85.59 5.1
-8 -1 -7 85.59 5.2
-8 -1 -7 85.69 4.1
-8 -2 -7 21.9 2
-8 -2 -7 27 3.1
-8 -2 -7 24.9 2
-8 -2 -7 28.9 3.1
-8 2 -8 123.99 7.5
-8 2 -8 125.39 7.1
-8 1 -8 35.8 4.1
-8 1 -8 45.2 4.6
-8 1 -8 42.7 3.7
-8 1 -8 39.4 4
-8 0 -8 87.39 4.9
-8 0 -8 84.79 4.7
-8 0 -8 86.89 5.7
-8 0 -8 94.49 5.9
-8 -1 -8 46.3 3.2
-8 -1 -8 40.5 2.9
-8 -1 -8 34.5 3.6
-8 -1 -8 53.09 4.3
-8 -2 -8 129.59 6.6
-8 -2 -8 129.69 4.4
-8 -2 -8 124.69 6.6
-8 -2 -8 120.89 4.3
-8 0 -9 -2 1.3
-8 0 -9 0.2 1.3
9 0 -15 12.5 16.9
-9 2 14 82.19 4.3
-9 2 14 49.6 18.1
9 -2 -14 83.89 6.7
9 -2 -14 78.69 4.3
9 -2 -14 72.49 23.9
-9 1 14 14.7 12.4
9 -1 -14 17.8 18.2
-9 0 14 387.36 42.7
-9 0 14 385.86 11.7
-9 0 14 384.46 12.9
9 0 -14 398.86 13.6
9 0 -14 386.06 11.5
-9 -1 14 8.8 14.2
9 1 -14 8.8 21.1
-9 -2 14 81.99 24.2
9 2 -14 77.89 5.5
9 2 -14 93.09 5.9
9 2 -14 56.39 22.8
-9 2 13 6.3 12.5
-9 2 13 14.5 2
9 -2 -13 11.2 2.9
9 -2 -13 12.8 2.9
-9 1 13 190.88 8.7
-9 1 13 166.78 28.3
-9 1 13 195.18 7.2
9 -1 -13 162.98 27.2
9 -1 -13 180.98 6.9
9 -1 -13 195.98 9.2
-9 0 13 -17.6 9.3
-9 0 13 -0.3 1
9 0 -13 -1.8 0.9
9 0 -13 7.1 9.4
9 0 -13 0.6 0.9
-9 -1 13 189.68 8.7
-9 -1 13 184.18 7.9
-9 -1 13 210.08 31.1
9 1 -13 186.38 7.8
9 1 -13 167.08 27.8
9 1 -13 198.38 8.5
-9 -2 13 11.2 2.5
-9 -2 13 28.8 12.8
9 2 -13 14.1 2.7
9 2 -13 13.2 2.6
-9 3 12 3.5 15.4
-9 3 12 9.1 1.7
9 -3 -12 12.4 3.2
9 -3 -12 7 18.7
-9 2 12 302.37 38.1
-9 2 12 326.67 9.2
-9 2 12 314.87 11.8
9 -2 -12 309.47 36.5
9 -2 -12 336.97 12.6
9 -2 -12 311.27 8.9
-9 1 12 4.6 7.5
-9 1 12 -0.5 0.8
9 -1 -12 2.2 1.3
9 -1 -12 6 10.7
-9 0 12 299.07 10.1
-9 0 12 278.77 33.2
-9 0 12 282.97 10.1
9 0 -12 268.27 33.3
9 0 -12 290.57 9.3
9 0 -12 285.77 10.4
-9 -1 12 -0.2 1.1
-9 -1 12 0.3 0.7
-9 -1 12 5.3 10
9 1 -12 1.1 9.1
9 1 -12 1.5 1.1
-9 -2 12 344.87 37.8
-9 -2 12 326.57 11.2
9 2 -12 335.67 10.6
9 2 -12 335.07 11.2
9 2 -12 281.57 38.1
-9 -3 12 6 10.6
9 3 -12 5.7 23.7
9 3 -12 13.7 2.5
9 3 -12 8 2.2
-9 3 11 21.7 14.3
-9 3 11 42.5 4.2
-9 3 11 37.7 2.9
9 -3 -11 37.3 18.5
9 -3 -11 45.7 4.6
-9 2 11 6.3 9
-9 2 11 6 1.4
-9 2 11 5.1 1.9
9 -2 -11 3.4 1.8
9 -2 -11 5.7 1.4
9 -2 -11 6.8 8
-9 1 11 382.76 10.3
-9 1 11 378.96 36.2
-9 1 11 362.56 11.7
9 -1 -11 361.46 37.4
9 -1 -11 383.56 12.4
9 -1 -11 375.86 10.3
-9 0 11 2.5 0.9
-9 0 11 -0.4 0.6
9 0 -11 -0.3 0.6
9 0 -11 -0.8 0.6
-9 -1 11 379.76 10.7
-9 -1 11 387.56 37.7
9 1 -11 387.86 11.2
9 1 -11 313.57 34.7
9 1 -11 387.66 11.2
-9 -2 11 3.5 8.2
-9 -2 11 11.2 2.1
9 2 -11 6.1 1.5
9 2 -11 5.5 1.9
9 2 -11 -0.2 8.1
-9 -3 11 18 11.7
-9 -3 11 40 4
9 3 -11 44.1 3.9
9 3 -11 42.3 3.1
9 3 -11 45.6 3.4
9 3 -11 35.6 14.6
-9 4 10 131.99 5.3
-9 4 10 123.29 5.2
-9 4 10 119.59 26.5
9 -4 -10 110.09 7.6
9 -4 -10 106.89 28.4
-9 3 10 -9.8 9.6
-9 3 10 0 0.8
-9 3 10 1.6 1.4
9 -3 -10 -6.8 8.2
9 -3 -10 0.8 0.9
-9 2 10 221.98 33.3
-9 2 10 218.08 7.2
-9 2 10 233.38 9.3
9 -2 -10 214.48 7.1
9 -2 -10 228.18 9.6
9 -2 -10 209.88 27.2
-9 1 10 65.19 18.3
-9 1 10 67.19 4.4
-9 1 10 73.89 4
9 -1 -10 84.19 20.1
9 -1 -10 64.59 3.8
9 -1 -10 66.49 4.7
-9 0 10 110.59 5.4
-9 0 10 113.49 5.3
-9 0 10 91.49 20.2
9 0 -10 109.59 18.8
9 0 -10 106.29 5.5
-9 -1 10 64.89 4.2
-9 -1 10 46.7 14.4
-9 -1 10 64.09 3.8
9 1 -10 71.29 4.3
9 1 -10 69.49 4.2
9 1 -10 43.3 14.4
9 2 -10 235.68 8.8
9 2 -10 239.68 7.8
9 2 -10 255.47 32.3
-9 -3 10 1.2 1.2
-9 -3 10 2.1 7.3
9 3 -10 -5.2 11.9
9 3 -10 0.3 0.7
9 3 -10 0.6 0.9
9 3 -10 -1.4 0.6
-9 -4 10 130.89 31.9
9 4 -10 86.89 30.1
9 4 -10 124.29 7.1
9 4 -10 130.89 5.2
9 4 -10 130.29 5.2
-9 4 9 16.1 3.2
-9 4 9 22.9 2.3
-9 4 9 0.6 13.8
9 -4 -9 20.1 3.5
9 -4 -9 10.2 14.6
-9 3 9 4.5 1.3
-9 3 9 6.8 2.3
-9 3 9 4.2 8.9
9 -3 -9 -1.5 8.2
9 -3 -9 4.2 1.9
-9 2 9 13.4 1.7
-9 2 9 22.1 11.6
-9 2 9 8.3 1.9
9 -2 -9 12.7 8.8
9 -2 -9 8.5 1.6
9 -2 -9 11.6 2.3
-9 1 9 502.05 39.1
-9 1 9 480.65 12.8
-9 1 9 490.95 11.9
9 -1 -9 498.65 11.8
9 -1 -9 489.15 13.3
9 -1 -9 471.55 37.4
-9 0 9 5.3 6.7
-9 0 9 -0.6 0.4
9 0 -9 0.8 0.8
9 0 -9 0.3 0.7
-9 -1 9 537.35 13.1
-9 -1 9 522.95 39.9
-9 -1 9 498.35 11.5
9 1 -9 494.25 12.6
9 1 -9 506.45 12.1
9 1 -9 475.45 38.8
-9 -2 9 2.6 7.5
9 2 -9 12.6 10.5
9 2 -9 12.1 1.8
9 2 -9 7.2 1.6
-9 -3 9 17.1 13.2
-9 -3 9 5.3 1.7
9 3 -9 6 1.3
9 3 -9 3.7 1.4
9 3 -9 -17.8 8.5
9 3 -9 6.1 1.3
-9 -4 9 24 15.4
9 4 -9 36.2 18.2
9 4 -9 22.4 2
9 4 -9 27 6.1
9 4 -9 20.2 2
-9 4 8 107.69 5.1
-9 4 8 77.99 23.2
-9 4 8 108.19 5.1
9 -4 -8 107.19 7.1
9 -4 -8 81.39 22.5
-9 3 8 18.1 2.1
-9 3 8 24.8 12.8
-9 3 8 23.2 3.5
9 -3 -8 20 3.5
9 -3 -8 -2.6 9.1
-9 2 8 329.07 10.8
-9 2 8 309.07 10.6
-9 2 8 321.77 32.4
9 -2 -8 317.77 31.9
9 -2 -8 339.67 11.3
9 -2 -8 315.37 8.8
-9 1 8 162.48 21.6
-9 1 8 139.09 8.4
-9 1 8 150.58 7.1
9 -1 -8 148.09 5.8
9 -1 -8 162.38 20.2
9 -1 -8 153.18 6.7
-9 0 8 41.5 3
-9 0 8 49.3 12.7
-9 0 8 39.4 2.9
9 0 -8 40.2 3
9 0 -8 47.2 14.8
9 0 -8 40.9 3.1
-9 -1 8 148.29 5.2
-9 -1 8 158.58 20.9
-9 -1 8 150.18 6.1
9 1 -8 145.29 5.4
9 1 -8 155.98 20.8
9 1 -8 148.79 6.1
-9 -2 8 374.56 33.9
9 2 -8 367.26 35.4
9 2 -8 345.67 10.4
9 2 -8 334.47 8.3
-9 -3 8 22 3
-9 -3 8 40.7 14.5
9 3 -8 23.2 2.8
9 3 -8 20.8 1.7
9 3 -8 5.4 9.7
9 3 -8 23.3 1.8
-9 -4 8 114.19 6.4
-9 -4 8 103.19 25.9
9 4 -8 108.79 6.3
9 4 -8 108.29 27.1
9 4 -8 117.29 3.7
-9 4 7 12.2 2
-9 4 7 21 11.3
-9 4 7 4.3 1.9
9 -4 -7 20.9 13
9 -4 -7 9.9 2.5
-9 3 7 59.99 16
-9 3 7 52.99 3.3
-9 3 7 53.39 4.4
9 -3 -7 56.49 17
9 -3 -7 50.19 4.3
-9 2 7 134.49 19.6
-9 2 7 120.89 6.1
-9 2 7 117.39 6.3
9 -2 -7 114.09 5
9 -2 -7 122.99 19
-9 1 7 997.9 19.8
-9 1 7 985 18.8
-9 1 7 1003.6 51.69
9 -1 -7 1001.8 18.8
9 -1 -7 1009.2 20.2
9 -1 -7 944.11 50.69
-9 0 7 -0.4 0.4
-9 0 7 0 0.5
-9 0 7 -1.8 4.1
9 0 -7 0.7 0.6
9 0 -7 6.9 4.9
9 0 -7 0 0.5
-9 -1 7 1007.3 17.1
-9 -1 7 1026.6 52.79
-9 -1 7 990.9 19.4
9 1 -7 998.3 19.4
9 1 -7 991.8 17.6
9 1 -7 943.91 51.59
-9 -2 7 125.09 5.7
-9 -2 7 143.99 20.4
9 2 -7 132.09 21.3
9 2 -7 128.49 4.1
9 2 -7 126.19 5.7
-9 -3 7 57.59 4
-9 -3 7 55.09 15.6
9 3 -7 51.49 1.9
9 3 -7 52.09 2
9 3 -7 56.79 4.1
9 3 -7 58.59 17.1
-9 -4 7 14.3 12.4
-9 -4 7 12.1 2.4
9 4 -7 9.8 2.3
-9 4 6 150.18 6.4
-9 4 6 144.09 7.9
-9 4 6 146.29 6.2
9 -4 -6 148.49 8.2
9 -4 -6 138.39 28.6
-9 3 6 18.7 3
-9 3 6 7.8 8.9
-9 3 6 24.4 2.3
9 -3 -6 18.8 10.6
9 -3 -6 16.7 3
-9 2 6 634.34 15.6
-9 2 6 636.64 42.1
-9 2 6 640.04 15
9 -2 -6 624.34 13.7
9 -2 -6 644.94 15.7
9 -2 -6 593.24 39.9
-9 1 6 -0.5 0.5
-9 1 6 -1.3 4.9
-9 1 6 0.3 0.5
9 -1 -6 6.3 4
9 -1 -6 -0.2 0.6
9 -1 -6 0.1 0.4
-9 0 6 736.73 14.5
-9 0 6 728.13 15.1
-9 0 6 790.62 42.7
9 0 -6 717.43 14.7
9 0 -6 722.53 15.1
9 0 -6 729.63 41.1
-9 -1 6 0.5 0.4
-9 -1 6 5.6 5.6
-9 -1 6 0.2 0.5
9 1 -6 -0.2 0.5
9 1 -6 0.4 3.7
9 1 -6 0 0.4
-9 -2 6 659.63 14.9
-9 -2 6 677.73 43.2
9 2 -6 717.43 46.7
9 2 -6 641.74 10.7
9 2 -6 660.13 15
-9 -3 6 20.7 2.3
-9 -3 6 21.2 11.5
9 3 -6 19.2 11.8
9 3 -6 18.9 2.6
-9 -4 6 162.38 26.5
-9 -4 6 140.29 6.8
9 4 -6 200.38 38.5
9 4 -6 152.08 7
-9 4 5 13.8 2.2
-9 4 5 9.9 9.3
-9 4 5 15.3 3
9 -4 -5 12.3 2.7
9 -4 -5 1.9 8
-9 3 5 251.27 10
-9 3 5 253.47 8.2
-9 3 5 260.87 30.5
9 -3 -5 250.17 27.9
9 -3 -5 276.77 10.1
-9 2 5 36 3.2
-9 2 5 32.2 2.6
-9 2 5 34.9 9.7
9 -2 -5 24.1 8.6
9 -2 -5 35.2 3.2
-9 1 5 601.74 13
-9 1 5 613.94 13.6
-9 1 5 583.64 35.8
9 -1 -5 612.74 13.6
9 -1 -5 480.75 32.5
9 -1 -5 580.84 12.9
-9 0 5 1.2 0.6
-9 0 5 -3.5 2.7
-9 0 5 0.5 0.3
9 0 -5 0.1 0.4
9 0 -5 -0.1 0.4
-9 -1 5 622.34 37.1
-9 -1 5 586.54 13.2
-9 -1 5 610.64 10.7
9 1 -5 601.24 10.8
9 1 -5 591.24 13.2
9 1 -5 597.44 37.1
-9 -2 5 32.2 2.7
-9 -2 5 31.1 9.2
9 2 -5 33.5 2.7
9 2 -5 46.4 14.3
-9 -3 5 288.17 29
-9 -3 5 267.07 8.7
9 3 -5 262.77 8.6
9 3 -5 268.97 30.2
-9 -4 5 14.8 2.4
-9 -4 5 7.7 10.2
9 4 -5 14.6 2.4
9 4 -5 25.8 15.3
-9 4 4 246.98 31.1
-9 4 4 263.87 9.1
-9 4 4 244.98 10.7
9 -4 -4 249.18 29.9
9 -4 -4 274.97 11
-9 3 4 44.5 3.3
-9 3 4 40.6 3.9
-9 3 4 53.69 3.5
-9 3 4 33.6 12.4
9 -3 -4 44.8 3.9
9 -3 -4 38.8 12.8
-9 2 4 161.98 20.3
-9 2 4 166.78 7
-9 2 4 163.78 6.1
9 -2 -4 154.98 6.8
-9 1 4 137.49 5.4
-9 1 4 150.28 17.2
-9 1 4 139.99 5.7
9 -1 -4 145.89 5.6
9 -1 -4 142.19 5.7
9 -1 -4 158.68 17.4
-9 0 4 916.51 42.1
-9 0 4 918.91 17.5
-9 0 4 946.11 16.7
9 0 -4 903.71 17.5
9 0 -4 902.51 42.2
9 0 -4 940.31 16.6
-9 -1 4 146.09 4.1
-9 -1 4 143.49 5.5
-9 -1 4 144.09 17
9 1 -4 140.19 3.8
9 1 -4 147.69 5.6
9 1 -4 161.68 18.2
-9 -2 4 172.78 20
-9 -2 4 159.58 6.1
9 2 -4 161.38 6.1
-9 -3 4 51.09 15.4
-9 -3 4 46 3.3
9 3 -4 34.2 12.3
9 3 -4 48.6 3.6
-9 -4 4 249.58 33.1
-9 -4 4 262.67 8.9
9 4 -4 256.97 8.8
9 4 -4 240.58 32.8
-9 4 3 21.1 3.3
-9 4 3 17.3 2.7
-9 4 3 5.5 8
-9 4 3 17.6 2.8
9 -4 -3 22 3.5
9 -4 -3 4.5 9.1
-9 3 3 272.27 10.3
-9 3 3 259.57 28.3
-9 3 3 276.57 9
-9 3 3 280.87 8.9
9 -3 -3 285.27 10.2
-9 2 3 271.87 9.3
-9 2 3 260.57 24.3
-9 2 3 275.07 8.4
9 -2 -3 268.67 9
9 -2 -3 287.57 24.6
-9 1 3 47.8 3.1
-9 1 3 51.49 11.3
-9 1 3 51.19 3.3
9 -1 -3 53.89 3.3
9 -1 -3 70.79 13.6
9 -1 -3 47 3.2
-9 0 3 2.5 3.2
-9 0 3 0.3 0.4
-9 0 3 0.6 0.4
9 0 -3 -0.3 0.3
9 0 -3 0.3 0.4
9 0 -3 3.3 3
-9 -1 3 44.4 10.2
-9 -1 3 49.9 2
-9 -1 3 47.5 3
9 1 -3 49.6 1.9
9 1 -3 64.79 13.8
9 1 -3 50.89 3.2
-9 -2 3 266.87 8.9
-9 -2 3 246.18 23.4
9 2 -3 265.67 25.3
9 2 -3 275.27 8.1
-9 -3 3 272.17 8.4
-9 -3 3 255.77 27.1
9 3 -3 272.37 8.4
-9 -4 3 15.6 2.5
-9 -4 3 17.2 13.3
9 4 -3 18.6 2.2
-9 4 2 200.38 8.2
-9 4 2 208.38 8.2
-9 4 2 210.38 9.8
-9 4 2 177.08 26.6
9 -4 -2 202.08 9.4
-9 3 2 0.8 0.7
-9 3 2 -0.9 0.7
-9 3 2 -1.3 3.8
-9 3 2 1.2 0.9
9 -3 -2 -1.4 0.6
9 -3 -2 0.4 4.6
-9 2 2 -1.9 3.3
-9 2 2 1 0.7
-9 2 2 2.3 0.9
9 -2 -2 1.1 4
9 -2 -2 1.8 0.9
-9 1 2 149.49 6.8
-9 1 2 130.19 14.3
-9 1 2 138.79 5.7
9 -1 -2 153.28 5.8
9 -1 -2 133.39 14.3
-9 0 2 275.67 7.9
-9 0 2 271.17 7.2
9 0 -2 271.07 7.9
9 0 -2 266.87 19.6
9 0 -2 274.07 7.1
-9 -1 2 145.49 3.8
-9 -1 2 157.78 15.5
-9 -1 2 147.19 5.5
9 1 -2 156.98 16.4
9 1 -2 141.29 5.4
-9 -2 2 0.8 0.6
-9 -2 2 -4.9 2.9
9 2 -2 0.3 4
9 2 -2 0.2 0.6
-9 -3 2 1.4 6.4
-9 -3 2 -0.7 0.7
9 3 -2 0.3 0.6
9 3 -2 -1.9 4.6
-9 -4 2 225.28 30.2
-9 -4 2 210.98 7.5
-9 -4 2 179.98 26.3
9 4 -2 216.88 7.5
-9 4 1 2 1.3
-9 4 1 0.8 1.1
-9 4 1 -0.5 0.8
9 -4 -1 2 1.2
9 -4 -1 -2 7.9
-9 3 1 215.28 8.1
-9 3 1 214.78 9.4
-9 3 1 209.18 23.3
9 -3 -1 216.58 41.5
9 -3 -1 209.68 8.7
-9 2 1 173.88 7.3
-9 2 1 179.68 21.8
-9 2 1 182.38 6.9
9 -2 -1 186.68 7.4
9 -2 -1 186.88 18.4
-9 1 1 327.77 9.5
-9 1 1 340.07 9.4
-9 1 1 348.57 21.7
9 -1 -1 355.66 9.6
9 -1 -1 322.57 20.9
-9 0 1 0.1 0.5
-9 0 1 -2.7 1.4
-9 0 1 0.2 0.4
9 0 -1 1.3 2.5
9 0 -1 0.6 0.5
9 0 -1 0.3 0.5
-9 -1 1 339.17 7.2
-9 -1 1 341.27 6.8
-9 -1 1 347.97 21.9
-9 -1 1 345.57 8.9
9 1 -1 336.87 8.9
9 1 -1 344.17 22.4
-9 -2 1 173.78 6
9 2 -1 187.28 19.6
9 2 -1 161.48 5.9
-9 -3 1 192.08 22.4
-9 -3 1 201.88 8.5
9 3 -1 212.88 6.9
-9 -4 1 9.9 9.1
-9 -4 1 5.9 10.8
-9 4 0 138.59 6.9
-9 4 0 112.89 7.3
-9 4 0 125.89 6.6
9 -4 0 121.59 7.2
-9 3 0 14 2.2
-9 3 0 15.2 2.4
-9 3 0 13.4 2.7
9 -3 0 22.7 2.9
9 -3 0 14.7 6.8
-9 2 0 148.79 6.3
-9 2 0 150.18 15.9
-9 2 0 153.68 6.9
9 -2 0 139.39 6.6
9 -2 0 146.89 15.5
-9 1 0 58.59 3.7
-9 1 0 66.79 8.9
-9 1 0 65.49 3.9
9 -1 0 58.69 3.7
9 -1 0 49.4 7.6
-9 0 0 736.93 14.7
-9 0 0 752.22 15.4
-9 0 0 784.32 26.7
9 0 0 742.13 26.5
-9 -1 0 62.29 2.6
-9 -1 0 66.79 3.5
-9 -1 0 52.19 8.2
-9 -1 0 62.69 2.7
9 1 0 61.59 8.8
9 1 0 62.69 3.5
-9 -2 0 148.39 5.4
-9 -2 0 152.58 16.5
9 2 0 137.39 5.3
-9 -3 0 18.4 10.2
-9 -3 0 20.6 2.1
9 3 0 18.7 2.1
-9 -4 0 157.28 23.5
-9 -4 0 117.79 5.1
9 4 0 126.39 5.2
-9 4 -1 71.89 5.1
-9 4 -1 70.89 5.1
9 -4 1 49.2 15
-9 3 -1 242.38 9.9
-9 3 -1 238.38 9
9 -3 1 227.88 22.2
9 -3 1 218.38 23.4
9 -3 1 231.98 9.5
-9 2 -1 22.7 2.4
-9 2 -1 26.1 2.8
9 -2 1 21.1 7.5
9 -2 1 18.9 2.4
9 -2 1 15.1 6
-9 1 -1 595.54 14.2
-9 1 -1 616.24 14
9 -1 1 601.44 14
9 -1 1 608.44 22.3
-9 0 -1 1.6 1.5
-9 0 -1 0.5 0.6
-9 0 -1 0.6 0.6
-9 -1 -1 598.84 11.4
-9 -1 -1 577.14 12.7
-9 -1 -1 599.74 11.7
-9 -1 -1 613.24 23.2
9 1 1 581.44 12.7
-9 -2 -1 15.9 6
-9 -2 -1 23.4 7.2
-9 -2 -1 20.2 1.3
-9 -2 -1 21.3 1.4
-9 -2 -1 18.6 1.9
9 2 1 20.7 2
-9 -3 -1 238.38 23.5
-9 -3 -1 236.18 7.1
9 3 1 250.77 7.2
-9 -4 -1 69.89 3.8
-9 -4 -1 65.49 17.4
9 4 1 70.99 3.7
-9 4 -2 96.49 6
9 -4 2 85.29 6.2
-9 3 -2 36.5 3.9
-9 3 -2 29.2 3.2
9 -3 2 31.7 3.5
9 -3 2 22.2 9.6
9 -3 2 37.3 12.1
-9 2 -2 329.37 10.1
-9 2 -2 302.37 10.5
-9 2 -2 311.07 9.9
9 -2 2 311.87 20.4
9 -2 2 300.67 19.4
-9 1 -2 0.7 0.6
-9 1 -2 -0.2 0.5
-9 1 -2 0 0.7
-9 0 -2 529.75 12.5
-9 0 -2 527.75 12.2
-9 0 -2 538.15 12.4
-9 -1 -2 0.3 0.5
-9 -1 -2 1.2 1.8
-9 -1 -2 -0.5 0.5
-9 -1 -2 -1.6 1.3
-9 -1 -2 0.6 0.6
-9 -2 -2 303.77 8.1
-9 -2 -2 292.87 6.8
-9 -2 -2 289.47 6.8
-9 -2 -2 295.57 20.2
-9 -2 -2 308.17 20.6
-9 -4 -2 90.29 3.8
-9 -4 -2 55.19 17.2
9 4 2 87.59 3.8
-9 4 -3 -1.7 0.9
9 -4 3 1.9 8
-9 3 -3 127.69 7.5
-9 3 -3 123.69 6.5
-9 3 -3 114.89 6.4
9 -3 3 108.59 18.7
-9 2 -3 3.3 1.3
-9 2 -3 1.9 1.1
-9 2 -3 3.1 1.3
9 -2 3 -0.5 2.8
9 -2 3 -2.8 5.3
-9 1 -3 165.68 6.7
-9 1 -3 165.38 7
-9 1 -3 158.18 6.5
-9 0 -3 0.5 0.7
-9 0 -3 0.9 0.7
-9 0 -3 1 0.7
-9 -1 -3 173.88 5.9
-9 -1 -3 164.88 5.9
-9 -1 -3 156.48 5.8
-9 -2 -3 2.7 0.8
-9 -2 -3 0.7 3.5
-9 -2 -3 11.1 5.1
-9 -2 -3 2.4 0.9
-9 -2 -3 1.9 0.8
-9 -3 -3 129.29 4.1
-9 -3 -3 120.79 16.6
-9 -3 -3 126.09 4.6
-9 -3 -3 126.19 3.9
-9 -4 -3 6.7 9.1
-9 3 -4 -2 1.4
-9 3 -4 -0.5 0.9
-9 3 -4 -1.3 1.3
9 -3 4 4.6 6
-9 2 -4 138.09 6.8
-9 2 -4 148.49 6.9
-9 2 -4 166.98 7.8
9 -2 4 149.39 8
-9 1 -4 13.7 2.4
-9 1 -4 13.7 2.4
-9 1 -4 21 2.5
-9 1 -4 15.8 2.5
-9 0 -4 86.69 4.7
-9 0 -4 77.89 6.9
-9 0 -4 84.99 4.5
-9 0 -4 86.99 4.8
-9 -1 -4 14.5 2.1
-9 -1 -4 17.8 2.9
-9 -1 -4 16.1 2.1
-9 -1 -4 18.3 2
-9 -2 -4 138.39 10.6
-9 -2 -4 141.39 5.3
-9 -2 -4 142.69 5.2
-9 -2 -4 137.29 5.3
-9 -3 -4 -0.7 0.6
-9 -3 -4 1 0.8
-9 -3 -4 6.4 7.6
-9 -3 -4 -0.2 0.7
-9 3 -5 30.9 3.7
9 -3 5 40.3 9.6
-9 2 -5 1.6 0.9
-9 2 -5 0.6 1.1
-9 2 -5 1.3 1.2
-9 1 -5 81.69 4.8
-9 1 -5 88.09 5
-9 1 -5 80.99 5
-9 1 -5 78.69 5.3
-9 0 -5 -0.6 0.9
-9 0 -5 -1.1 0.8
-9 0 -5 -0.8 0.7
-9 0 -5 -1.5 0.6
-9 -1 -5 81.29 4.2
-9 -1 -5 85.59 4.3
-9 -1 -5 81.39 4.6
-9 -1 -5 77.09 4.5
-9 -2 -5 1.6 1
-9 -2 -5 0.3 0.7
-9 -2 -5 -0.3 0.8
-9 -2 -5 1.2 0.8
-9 -3 -5 43.4 2.4
-9 -3 -5 32.6 2.7
-9 -3 -5 51.39 11.3
-9 -3 -5 38.3 2.9
-9 -3 -5 42.6 2.4
-9 2 -6 85.89 5.5
-9 2 -6 93.69 6.1
-9 2 -6 88.29 5.5
-9 2 -6 84.29 6.3
-9 1 -6 1.1 1.1
-9 1 -6 -0.3 0.9
-9 1 -6 1.8 1.4
-9 1 -6 -0.2 0.8
-9 0 -6 33.4 3
-9 0 -6 36.9 3.5
-9 0 -6 40.6 3.3
-9 0 -6 38.1 3.6
-9 -1 -6 2 1.1
-9 -1 -6 1.1 0.8
-9 -1 -6 5.3 1.5
-9 -1 -6 -1.8 1.1
-9 -2 -6 86.19 5.2
-9 -2 -6 90.79 4
-9 -2 -6 89.89 4
-9 -2 -6 82.89 4.7
-9 2 -7 3.7 1.8
-9 2 -7 3.3 1.2
-9 1 -7 92.09 5.4
-9 1 -7 99.49 6.3
-9 1 -7 91.09 5.5
-9 1 -7 95.39 6.1
-9 0 -7 -1.5 0.8
-9 0 -7 1 1.5
-9 0 -7 0 1
-9 0 -7 3.8 1.4
-9 -1 -7 101.19 5.7
-9 -1 -7 96.19 4.7
-9 -1 -7 104.69 5
-9 -1 -7 93.69 5.5
-9 -2 -7 2.2 1.5
-9 -2 -7 -0.1 1
-9 -2 -7 3.7 1.1
-9 -2 -7 3.1 1.6
-9 0 -8 82.39 5.7
-9 0 -8 64.79 4.3
-9 0 -8 61.69 4.3
-9 0 -8 67.69 5.3
-10 1 14 20.8 2.8
-10 1 14 9.3 14.8
10 -1 -14 19.5 3.7
10 -1 -14 24.4 2.8
-10 0 14 28.3 14.9
-10 0 14 7.5 2.7
-10 0 14 11.2 2.5
10 0 -14 6.8 2.3
10 0 -14 3.6 1.5
-10 -1 14 27.3 3.8
-10 -1 14 24.9 4.7
-10 -1 14 5.2 16
10 1 -14 27.1 4.1
10 1 -14 30.6 3.2
-10 2 13 -18.4 8.9
-10 2 13 0.3 1
10 -2 -13 0.2 0.7
10 -2 -13 -4.1 10
-10 1 13 325.77 11.9
-10 1 13 367.96 41.3
10 -1 -13 375.76 40.6
10 -1 -13 337.87 10.2
10 -1 -13 343.97 12.6
-10 0 13 1.5 1.2
-10 0 13 -0.5 1.1
-10 0 13 -10.2 8.1
10 0 -13 -15.9 8.1
10 0 -13 1.7 1.2
10 0 -13 0.8 0.9
-10 -1 13 332.57 11.2
-10 -1 13 352.96 40.4
-10 -1 13 320.17 10.6
10 1 -13 310.87 10.7
10 1 -13 322.47 11.2
10 1 -13 319.97 39.1
-10 -2 13 3 9.9
10 2 -13 2.5 16.1
10 2 -13 1.5 1.9
10 2 -13 -0.5 0.9
-10 3 12 4.6 12
-10 3 12 0.4 1
10 -3 -12 4.2 14.9
10 -3 -12 1 1.9
-10 2 12 199.08 9.3
-10 2 12 205.68 31.4
-10 2 12 199.98 7.3
10 -2 -12 192.18 7.1
10 -2 -12 201.18 9.6
10 -2 -12 209.98 31.3
-10 1 12 16.8 2.5
-10 1 12 8.9 8.6
-10 1 12 18.5 3
10 -1 -12 18.5 2.3
10 -1 -12 6.3 12.3
10 -1 -12 18.1 3.2
-10 0 12 439.06 42
-10 0 12 438.16 12.8
10 0 -12 431.76 42.1
10 0 -12 436.36 12.2
10 0 -12 455.35 13.5
-10 -1 12 14.3 2.4
-10 -1 12 16.5 11.1
-10 -1 12 23 2.7
10 1 -12 16.1 2.7
10 1 -12 4.7 11.3
10 1 -12 15.7 2.6
-10 -2 12 214.68 31.9
-10 -2 12 192.68 8.6
10 2 -12 205.18 9.6
10 2 -12 234.48 34.5
10 2 -12 194.88 8.6
-10 -3 12 5.1 14.6
10 3 -12 -1.2 0.9
10 3 -12 0.1 1
10 3 -12 1.4 17.9
10 3 -12 1.4 1.2
-10 3 11 121.49 26
-10 3 11 134.09 5.8
10 -3 -11 152.48 13.1
10 -3 -11 137.59 32.2
-10 2 11 -5.5 10.5
-10 2 11 5.6 1.9
-10 2 11 0.2 0.8
10 -2 -11 1.6 0.9
10 -2 -11 -17.2 12.8
10 -2 -11 0.3 0.9
-10 1 11 331.67 9.8
-10 1 11 324.07 11
-10 1 11 252.07 41.6
10 -1 -11 312.27 11.3
10 -1 -11 339.67 9.9
10 -1 -11 327.37 34.8
-10 0 11 0.4 7.4
-10 0 11 0.1 0.5
10 0 -11 5.1 8.1
10 0 -11 -0.1 0.7
-10 -1 11 334.87 10.5
-10 -1 11 297.27 47.5
-10 -1 11 327.27 9.6
10 1 -11 328.57 10.2
10 1 -11 318.87 10.3
10 1 -11 298.67 33.9
-10 -2 11 -6.5 7.6
-10 -2 11 2.5 1.3
10 2 -11 3.4 1.3
10 2 -11 0.4 0.9
-10 -3 11 110.99 27.9
10 3 -11 147.19 5.9
10 3 -11 152.28 35
10 3 -11 127.79 5.4
10 3 -11 115.69 9.7
-10 3 10 10.7 11
-10 3 10 2.8 1.1
-10 3 10 -0.5 1.3
10 -3 -10 2.6 1.6
10 -3 -10 4.1 12.2
-10 2 10 267.57 8.4
-10 2 10 269.77 10.3
-10 2 10 228.48 30.9
10 -2 -10 212.68 27.9
10 -2 -10 272.57 10.6
10 -2 -10 256.87 8.3
-10 1 10 11.2 2
-10 1 10 12.8 2.4
-10 1 10 6.9 7.6
10 -1 -10 11.4 2.1
10 -1 -10 11.2 2.4
10 -1 -10 5.7 6.9
-10 0 10 260.37 8.7
-10 0 10 300.27 31.8
-10 0 10 248.98 8.4
10 0 -10 210.08 27.3
10 0 -10 252.87 8.9
10 0 -10 254.27 8.5
-10 -1 10 11.7 2
-10 -1 10 2.8 9
10 1 -10 9 1.9
10 1 -10 16.5 10.2
10 1 -10 9.3 1.9
-10 -2 10 249.28 31.5
10 2 -10 284.37 9.9
10 2 -10 267.77 33.7
10 2 -10 288.97 8.5
-10 -3 10 3.2 1.4
-10 -3 10 9.6 9.5
10 3 -10 15.9 14.7
10 3 -10 2.1 1.3
10 3 -10 4.2 0.9
10 3 -10 3.7 1
-10 4 9 2.2 1.2
-10 4 9 15.3 10.6
10 -4 -9 1 1.4
-10 3 9 72.79 5.6
-10 3 9 78.09 4.3
-10 3 9 65.19 20.7
10 -3 -9 42 18.4
10 -3 -9 75.19 5.8
-10 2 9 19.7 10.4
-10 2 9 3.7 1.3
10 -2 -9 3.7 1.2
10 -2 -9 -3.5 6.5
-10 1 9 45.2 3.3
-10 1 9 29.6 10
-10 1 9 46.2 3.7
10 -1 -9 43.7 4.1
10 -1 -9 62.39 16.9
-10 0 9 -0.5 0.6
-10 0 9 0.7 0.7
-10 0 9 0.4 4.9
10 0 -9 -0.1 0.6
10 0 -9 1.6 0.8
10 0 -9 0.4 7
-10 -1 9 49.5 3.7
-10 -1 9 29.9 8.9
-10 -1 9 51.39 3.1
10 1 -9 50.09 3.7
10 1 -9 65.79 15.8
10 1 -9 50.29 3.3
-10 -2 9 1.1 7
10 2 -9 7 8.7
10 2 -9 2.3 0.9
10 2 -9 2.4 1
-10 -3 9 90.99 24.8
-10 -3 9 74.19 5.1
10 3 -9 83.89 3.4
10 3 -9 78.79 3.4
10 3 -9 74.39 5
10 3 -9 73.49 24
-10 -4 9 -6.8 11.5
10 4 -9 11.5 18.5
10 4 -9 0.8 1.3
10 4 -9 3.6 0.8
-10 4 8 65.49 20.6
-10 4 8 57.79 3.9
10 -4 -8 51.89 5.2
10 -4 -8 42.6 20.4
-10 3 8 4 7.3
-10 3 8 0.1 1.3
-10 3 8 2.7 0.9
10 -3 -8 3.9 10.4
-10 2 8 203.78 8.5
-10 2 8 209.98 27.2
-10 2 8 213.78 7.3
10 -2 -8 178.48 9.5
10 -2 -8 179.68 25
10 -2 -8 209.78 8.7
-10 1 8 46 3.3
-10 1 8 64.49 17.2
-10 1 8 44.8 3.5
10 -1 -8 39.5 3
10 -1 -8 49.5 3.7
10 -1 -8 39.8 13.2
-10 0 8 23.2 2.4
-10 0 8 35.6 12.4
-10 0 8 27.4 2.4
10 0 -8 23.8 2.4
10 0 -8 28.1 3.2
10 0 -8 22.8 10.4
-10 -1 8 42.3 2.7
-10 -1 8 51.79 15.2
10 1 -8 24 9.5
10 1 -8 39.9 3.2
10 1 -8 44.8 2.9
-10 -2 8 217.98 27
10 2 -8 201.58 5.8
10 2 -8 189.38 27.3
10 2 -8 221.48 8.1
-10 -3 8 0.1 0.9
-10 -3 8 2.2 6.4
10 3 -8 1.1 0.9
10 3 -8 0.6 0.7
10 3 -8 4.3 8
-10 -4 8 36.6 17.6
10 4 -8 10.7 17.7
10 4 -8 52.19 4.4
-10 4 7 11.4 2.1
-10 4 7 14.2 2.4
-10 4 7 11.4 12.7
10 -4 -7 21.9 15.1
10 -4 -7 15.3 4.7
-10 3 7 112.09 6.7
-10 3 7 105.09 5.2
-10 3 7 151.08 24.9
10 -3 -7 111.39 6.6
10 -3 -7 109.99 24.3
-10 2 7 0.4 0.7
-10 2 7 0.7 6.1
-10 2 7 2.2 0.9
10 -2 -7 -8.3 4
10 -2 -7 2 1.1
10 -2 -7 1.3 0.9
-10 1 7 226.28 27.6
-10 1 7 241.08 7.8
-10 1 7 239.78 9
10 -1 -7 250.57 25.3
10 -1 -7 230.18 8.2
10 -1 -7 234.58 7.7
-10 0 7 1.2 0.5
-10 0 7 5.6 5.5
-10 0 7 1.1 0.6
10 0 -7 -0.3 0.5
10 0 -7 2.3 5.6
10 0 -7 0.2 0.5
-10 -1 7 214.18 9.8
-10 -1 7 242.38 6.4
-10 -1 7 244.68 26.1
10 1 -7 235.58 6.6
10 1 -7 235.58 25.8
10 1 -7 244.98 8.5
-10 -2 7 -3.2 3.2
-10 -2 7 0.1 0.7
10 2 -7 1.5 0.9
10 2 -7 0.8 0.5
10 2 -7 -0.1 6
-10 -3 7 103.49 21.8
-10 -3 7 110.59 5.8
10 3 -7 104.39 5.6
10 3 -7 81.79 20.6
-10 -4 7 10.3 14.4
-10 -4 7 10.6 2.4
10 4 -7 4.1 12.9
10 4 -7 18.1 3
-10 4 6 113.79 5.8
-10 4 6 122.99 6
-10 4 6 74.69 18.8
-10 4 6 125.39 10
10 -4 -6 118.49 7.4
10 -4 -6 92.79 23.8
-10 3 6 7.8 7.6
-10 3 6 -0.7 0.9
10 -3 -6 1.7 1.3
10 -3 -6 -0.1 6.3
-10 2 6 346.37 10.9
-10 2 6 313.37 30.4
-10 2 6 322.27 9.4
10 -2 -6 300.27 29.6
10 -2 -6 332.57 10.7
-10 1 6 50.29 3.3
-10 1 6 28.3 11.8
-10 1 6 50.69 3.5
10 -1 -6 45 3.2
10 -1 -6 45 12.7
10 -1 -6 50.19 3.6
-10 0 6 456.45 33.4
-10 0 6 443.96 10.5
-10 0 6 449.76 11.3
10 0 -6 435.26 32.9
10 0 -6 428.76 11.2
10 0 -6 446.86 10.6
-10 -1 6 40 11.6
-10 -1 6 49.6 3.3
-10 -1 6 41.9 2.3
10 1 -6 46.4 3.3
10 1 -6 45.1 2.4
10 1 -6 39.4 12
-10 -2 6 350.46 10.2
-10 -2 6 342.47 31.1
10 2 -6 298.47 31.5
10 2 -6 344.87 10.1
-10 -3 6 0 0.9
-10 -3 6 -4.2 6.6
10 3 -6 -5 7.8
10 3 -6 1.1 0.8
-10 -4 6 128.39 25.3
-10 -4 6 124.49 6.5
10 4 -6 129.49 6.5
10 4 -6 121.19 31
-10 4 5 17.4 2.7
-10 4 5 19.5 2.9
-10 4 5 -5.4 8.2
-10 4 5 12.8 2.7
10 -4 -5 -5.1 10.8
10 -4 -5 17.9 3.2
-10 3 5 214.38 7.8
-10 3 5 226.48 27.1
-10 3 5 197.68 9
10 -3 -5 208.18 9
10 -3 -5 192.28 25.7
-10 2 5 -0.7 0.7
-10 2 5 -1.8 3.8
-10 2 5 -0.9 0.5
10 -2 -5 0.2 0.8
-10 1 5 563.04 36.4
-10 1 5 600.04 13.9
-10 1 5 604.84 13.7
10 -1 -5 614.94 14
10 -1 -5 603.74 13.7
-10 0 5 -0.8 0.3
-10 0 5 0.2 0.5
-10 0 5 0 4
10 0 -5 -0.2 0.5
10 0 -5 -3.1 2.9
10 0 -5 0.4 0.5
-10 -1 5 639.54 38.7
-10 -1 5 605.14 10.8
-10 -1 5 600.94 13.8
10 1 -5 595.64 12.5
10 1 -5 601.84 13.8
-10 -2 5 5.1 3.6
-10 -2 5 1.8 0.9
10 2 -5 1.3 0.8
-10 -3 5 181.08 25.3
-10 -3 5 228.88 8.1
10 3 -5 208.48 27.8
10 3 -5 213.38 7.9
-10 -4 5 14.7 2.6
-10 -4 5 23.6 14.9
10 4 -5 16.4 2.6
10 4 -5 14.4 17.3
-10 4 4 171.98 9.3
-10 4 4 184.68 7.8
-10 4 4 185.68 7.8
-10 4 4 202.18 29.9
10 -4 -4 207.58 29.9
10 -4 -4 187.98 9.2
-10 3 4 6.4 6.5
-10 3 4 1.4 0.9
-10 3 4 -0.8 0.8
10 -3 -4 0.6 1.2
10 -3 -4 0.7 6.7
-10 2 4 155.38 7
-10 2 4 170.98 6.6
-10 2 4 210.68 22.4
10 -2 -4 176.38 21.1
10 -2 -4 170.18 7.2
-10 1 4 39.8 11
-10 1 4 35.4 2.8
-10 1 4 33.1 2.8
10 -1 -4 42.9 10.3
10 -1 -4 38.2 2.9
10 -1 -4 38.9 3
-10 0 4 828.12 17
-10 0 4 845.92 15.8
-10 0 4 841.82 41.4
10 0 -4 882.31 17.4
10 0 -4 851.71 15.8
10 0 -4 818.42 41.4
-10 -1 4 44.1 11.5
-10 -1 4 37.8 1.9
-10 -1 4 42.9 3
10 1 -4 42 3
10 1 -4 34.1 1.8
10 1 -4 26.5 8.4
-10 -2 4 174.08 6.6
-10 -2 4 177.08 20.5
10 2 -4 178.28 22.2
10 2 -4 177.88 6.8
-10 -3 4 1.3 6.4
-10 -3 4 0.3 0.9
10 3 -4 -3.5 6.5
10 3 -4 1.6 0.8
-10 -4 4 194.68 28.1
-10 -4 4 192.88 7.7
10 4 -4 207.38 32.3
10 4 -4 177.58 7.4
-10 4 3 -13.9 7.5
-10 4 3 1.9 1.1
-10 4 3 -0.8 0.8
-10 4 3 -1.7 1.3
10 -4 -3 -1.6 1.2
10 -4 -3 -2.1 12.5
-10 3 3 185.18 7.4
-10 3 3 180.88 8.5
-10 3 3 201.98 24.6
10 -3 -3 181.58 8.3
10 -3 -3 167.78 22.3
-10 2 3 71.89 4.7
-10 2 3 81.89 4.5
-10 2 3 95.19 19.6
10 -2 -3 87.29 5.1
10 -2 -3 87.69 17.3
-10 1 3 273.27 22.5
-10 1 3 247.58 8
-10 1 3 241.28 8
10 -1 -3 245.18 8
10 -1 -3 234.48 7.8
10 -1 -3 235.68 20.9
-10 0 3 0.5 3.2
-10 0 3 2.2 1
-10 0 3 0.2 0.5
10 0 -3 0.4 0.4
10 0 -3 0.4 0.5
-10 -1 3 282.07 22.9
-10 -1 3 230.38 6.7
-10 -1 3 245.98 7.8
10 1 -3 246.98 5.3
10 1 -3 237.28 7.8
10 1 -3 252.57 22.6
-10 -2 3 81.49 4.3
-10 -2 3 69.19 14.1
10 2 -3 91.69 15.7
10 2 -3 81.99 4.3
-10 -3 3 165.68 22.3
-10 -3 3 179.98 6.9
10 3 -3 185.88 25.2
10 3 -3 192.68 7.1
-10 -4 3 2.9 10.2
-10 -4 3 1.5 1
10 4 -3 1.3 1
-10 4 2 154.98 10
-10 4 2 165.38 7.7
-10 4 2 173.48 7.8
10 -4 -2 163.18 8.6
10 -4 -2 184.88 25.7
-10 3 2 1.1 0.9
-10 3 2 4.6 1.8
-10 3 2 -2.7 5.2
-10 3 2 4.1 1.4
10 -3 -2 1.5 1.3
10 -3 -2 3.8 6.7
-10 2 2 22.5 9.9
-10 2 2 21.9 2.5
-10 2 2 18.6 2.9
10 -2 -2 21.8 7.7
-10 1 2 42.3 3.1
-10 1 2 62.99 12.5
-10 1 2 49.1 3.4
10 -1 -2 38.8 10
10 -1 -2 45.6 3.3
-10 0 2 317.87 9.1
-10 0 2 327.97 22.1
-10 0 2 312.97 8.3
10 0 -2 312.47 8.1
10 0 -2 318.37 22.1
10 0 -2 320.97 9.1
-10 -1 2 45.4 3.1
-10 -1 2 49.5 2.2
-10 -1 2 48.2 10.1
10 1 -2 50.19 3.3
10 1 -2 67.19 14
-10 -2 2 29.5 10
-10 -2 2 23.2 2.2
10 2 -2 21.4 8.7
10 2 -2 18.8 2.1
-10 -3 2 3.3 1.2
-10 -3 2 15.3 9.7
10 3 -2 2.7 6.1
10 3 -2 3.2 1.8
-10 -4 2 163.68 6.7
-10 -4 2 175.48 26.1
10 4 -2 170.08 6.7
-10 4 1 10.8 2.2
-10 4 1 14.4 2.5
10 -4 -1 8.7 9
10 -4 -1 9.3 3
-10 3 1 125.79 6.4
-10 3 1 141.79 7.7
-10 3 1 137.79 19.3
-10 3 1 130.49 6.4
10 -3 -1 126.19 7
10 -3 -1 152.88 19.8
-10 2 1 65.99 14.2
-10 2 1 52.69 3.9
-10 2 1 56.59 3.9
10 -2 -1 50.59 4
10 -2 -1 57.49 12.7
-10 1 1 350.56 10
-10 1 1 337.57 10
-10 1 1 358.56 22.6
10 -1 -1 357.06 10
10 -1 -1 349.27 22
-10 0 1 0.6 0.6
-10 0 1 4.3 3.2
10 0 -1 0.3 0.5
10 0 -1 0.5 0.5
10 0 -1 0.3 2.7
-10 -1 1 366.26 22.9
-10 -1 1 345.27 7.3
-10 -1 1 345.37 7.6
-10 -1 1 361.96 9.6
10 1 -1 350.46 9.6
10 1 -1 355.76 23.3
-10 -2 1 52.59 3.3
-10 -2 1 50.39 11.1
10 2 -1 53.59 13.1
10 2 -1 50.99 3.3
-10 -3 1 173.28 43.1
-10 -3 1 120.99 5.3
10 3 -1 121.89 5.3
-10 -4 1 13.3 2.2
-10 -4 1 10.9 9.7
10 4 -1 12.9 2.1
10 -4 0 134.19 7.7
10 -4 0 95.79 20.5
-10 3 0 66.49 5.2
-10 3 0 60.39 4.5
-10 3 0 59.49 4.8
10 -3 0 58.09 13.8
10 -3 0 71.99 5.2
10 -3 0 63.59 15.3
-10 2 0 139.19 15.9
-10 2 0 131.39 6.6
-10 2 0 130.59 6.1
10 -2 0 121.69 14
10 -2 0 137.99 6.7
-10 1 0 57.09 8.3
-10 1 0 56.79 3.8
-10 1 0 49.99 4.5
10 -1 0 48.3 7.9
10 -1 0 52.09 3.6
-10 0 0 176.48 6.1
-10 0 0 186.18 6.8
-10 0 0 198.88 13
10 0 0 172.88 12.5
-10 -1 0 51.39 3.4
-10 -1 0 57.99 8.5
-10 -1 0 58.59 2.7
-10 -1 0 55.99 2.8
10 1 0 50.99 8.5
10 1 0 49.7 3.3
-10 -2 0 132.39 5.4
-10 -2 0 143.79 16
10 2 0 133.99 5.5
-10 -3 0 63.79 3.7
-10 -3 0 56.69 15.7
-10 -3 0 51.69 12.7
10 3 0 60.39 3.7
-10 -4 0 124.29 5.3
-10 -4 0 110.59 23.7
10 4 0 127.19 6.5
-10 4 -1 76.49 5.6
10 -4 1 69.39 18.6
10 -4 1 65.59 5.6
-10 3 -1 125.79 6.6
-10 3 -1 129.59 7.4
-10 3 -1 135.49 6.8
10 -3 1 124.79 7
10 -3 1 97.79 16.4
-10 2 -1 14.4 2.7
-10 2 -1 19.2 2.3
10 -2 1 16.2 2.8
10 -2 1 13.8 6.2
10 -2 1 18 6.5
-10 1 -1 397.36 11.4
-10 1 -1 429.36 11.9
-10 1 -1 429.26 11.8
10 -1 1 428.36 17.1
-10 0 -1 0.3 0.6
-10 0 -1 -0.3 0.4
-10 -1 -1 413.76 18.2
-10 -1 -1 411.76 9.1
-10 -1 -1 407.76 10.5
-10 -1 -1 407.56 9.4
-10 -1 -1 388.86 20.2
-10 -2 -1 17.1 2
-10 -2 -1 14 1.2
-10 -2 -1 17.5 7
-10 -2 -1 13.5 6.3
10 2 1 11.4 1.9
-10 -3 -1 103.59 16
-10 -3 -1 124.29 5.2
10 3 1 121.79 5.1
-10 -4 -1 78.99 4
-10 -4 -1 98.59 19.5
10 4 1 85.69 4.2
-10 3 -2 18 3.1
-10 3 -2 11.9 2.5
-10 3 -2 14.8 3
10 -3 2 12.6 2.7
10 -3 2 19.3 9.6
-10 2 -2 340.77 10.9
-10 2 -2 345.97 10.9
-10 2 -2 332.07 11.6
10 -2 2 347.67 19.6
10 -2 2 324.97 20
-10 1 -2 0.4 0.9
-10 1 -2 -1.8 0.7
-10 1 -2 1.9 0.9
-10 0 -2 115.99 5.4
-10 0 -2 122.79 5.3
-10 0 -2 109.19 5.2
-10 -1 -2 1.1 0.7
-10 -1 -2 -0.1 0.5
-10 -1 -2 -1.1 0.5
-10 -2 -2 333.87 20.7
-10 -2 -2 401.96 26
-10 -2 -2 335.07 7.6
-10 -2 -2 340.67 9.2
-10 -2 -2 331.67 7.6
-10 -3 -2 6.9 6.7
10 3 2 13.3 1.9
-10 3 -3 78.29 8.4
-10 3 -3 83.59 9.1
10 -3 3 77.79 13.1
-10 2 -3 1.8 1.7
-10 2 -3 0.5 0.8
-10 2 -3 1.2 1.2
10 -2 3 7.9 3.3
10 -2 3 -1.4 2.8
-10 1 -3 50.69 3.9
-10 1 -3 54.59 3.9
-10 1 -3 51.79 4.1
-10 0 -3 0.1 0.6
-10 0 -3 0.6 0.7
-10 0 -3 -1.5 0.6
-10 0 -3 -0.8 0.7
-10 -1 -3 52.19 3.4
-10 -1 -3 56.39 3.4
-10 -1 -3 55.39 3.3
-10 -2 -3 6 3.9
-10 -2 -3 1.5 3.8
-10 -2 -3 2.2 0.9
-10 -2 -3 -0.1 0.7
-10 -3 -3 57.79 2.9
-10 -3 -3 55.29 2.3
-10 -3 -3 54.89 12.4
-10 -3 -3 58.99 3.3
-10 3 -4 1.4 1.2
10 -3 4 -7.8 6.2
-10 2 -4 297.27 10.7
-10 2 -4 289.87 11.2
-10 2 -4 292.27 10.5
-10 1 -4 21.6 2.6
-10 1 -4 20.9 2.7
-10 1 -4 21.5 3.3
-10 1 -4 19.5 3.1
-10 0 -4 126.39 5.8
-10 0 -4 130.39 6.2
-10 0 -4 118.79 5.7
-10 0 -4 123.29 5.9
-10 -1 -4 18 3.9
-10 -1 -4 18 3.1
-10 -1 -4 21.2 2.3
-10 -1 -4 16.8 2.2
-10 -2 -4 285.07 8.1
-10 -2 -4 292.97 8.3
-10 -2 -4 282.57 8.2
-10 -2 -4 288.97 8.2
-10 -3 -4 1.4 0.9
-10 -3 -4 0.1 0.8
-10 -3 -4 -0.3 0.8
-10 2 -5 12 2.7
-10 2 -5 10.2 2.3
-10 2 -5 19.7 5.1
-10 2 -5 10.7 2.2
-10 1 -5 24.6 3.9
-10 1 -5 29.9 3.3
-10 1 -5 24.8 3.6
-10 1 -5 23.5 2.8
-10 0 -5 1.6 1.2
-10 0 -5 -1.1 0.8
-10 0 -5 0.7 1
-10 -1 -5 25.3 2.8
-10 -1 -5 23.6 2.6
-10 -1 -5 29 2.7
-10 -1 -5 31.3 3.1
-10 -2 -5 15.4 2.2
-10 -2 -5 12.6 2
-10 -2 -5 11.5 1.8
-10 -2 -5 13 1.9
-10 2 -6 141.89 7.8
-10 2 -6 152.98 7.5
-10 1 -6 0.1 1.3
-10 1 -6 0.4 1.4
-10 1 -6 3 1.5
-10 1 -6 1.6 1.3
-10 0 -6 188.98 8.3
-10 0 -6 198.48 7.8
-10 0 -6 198.88 7.8
-10 0 -6 203.38 8.4
-10 -1 -6 -1.4 1
-10 -1 -6 -0.3 0.9
-10 -1 -6 -0.5 1.1
-10 -1 -6 2 1
-10 -2 -6 144.29 6.5
-10 0 -7 -0.2 1
-10 0 -7 1.1 2
-10 0 -7 1.2 1.4
-10 0 -7 2.3 1.4
-11 1 14 18 12.6
-11 1 14 8.5 3.4
11 -1 -14 33.9 31.1
11 -1 -14 6.3 1.8
11 -1 -14 8.6 4.1
-11 0 14 21.2 3.1
-11 0 14 -2.3 13
-11 0 14 14.6 2.5
11 0 -14 10.9 11
11 0 -14 13.6 2.9
11 0 -14 15.4 2.7
-11 -1 14 8.8 13.6
11 1 -14 7.8 2.7
11 1 -14 9.2 2.6
-11 2 13 5.2 1.6
-11 2 13 3.4 10.1
11 -2 -13 20.3 15.2
11 -2 -13 0 1.4
11 -2 -13 2 0.9
-11 1 13 301.47 9.9
-11 1 13 296.67 36.6
-11 1 13 276.87 10.9
11 -1 -13 277.17 37.8
11 -1 -13 279.07 9.5
11 -1 -13 295.27 11.7
-11 0 13 28.9 13.9
-11 0 13 -0.1 1
-11 0 13 2.1 1.6
11 0 -13 0.7 1.1
11 0 -13 -20.3 10.9
11 0 -13 0.1 0.8
-11 -1 13 274.87 9.7
-11 -1 13 275.67 36.1
-11 -1 13 283.77 10.5
11 1 -13 283.57 10.3
11 1 -13 279.27 10.3
11 1 -13 321.47 38
-11 -2 13 20.5 12.6
11 2 -13 1.9 1.5
-11 2 12 177.08 8.8
-11 2 12 111.79 25.5
11 -2 -12 180.08 39.4
11 -2 -12 175.88 7
11 -2 -12 179.28 9.2
-11 1 12 1.5 1.3
-11 1 12 5.2 9.3
-11 1 12 1.5 1.3
11 -1 -12 1.5 10
11 -1 -12 -0.6 0.8
11 -1 -12 1.1 1.2
-11 0 12 205.18 8.3
-11 0 12 327.17 44.4
-11 0 12 203.08 8.2
11 0 -12 160.68 44.4
11 0 -12 201.08 8.6
11 0 -12 193.58 7.9
-11 -1 12 0.7 1
-11 -1 12 0.8 1
11 1 -12 1.9 1.4
11 1 -12 -6.6 9.9
11 1 -12 -0.7 1
-11 -2 12 199.88 31.8
11 2 -12 125.29 28.9
11 2 -12 189.78 7.5
11 2 -12 194.48 8.6
-11 3 11 91.79 23.1
11 -3 -11 80.59 25
11 -3 -11 104.49 7.2
-11 2 11 -13.2 6.6
-11 2 11 1.8 1.6
11 -2 -11 19.7 12.9
11 -2 -11 1.4 1.2
11 -2 -11 1.7 0.9
-11 1 11 293.57 10.5
-11 1 11 262.17 32.8
11 -1 -11 295.67 10.9
11 -1 -11 293.87 9.5
11 -1 -11 229.38 31.7
-11 0 11 -0.8 0.8
-11 0 11 0.6 1
-11 0 11 4.3 7
11 0 -11 0.2 1
11 0 -11 1.2 1
11 0 -11 9.9 9.1
-11 -1 11 294.57 10.2
-11 -1 11 294.37 9.1
-11 -1 11 294.77 34.6
11 1 -11 282.07 34.5
11 1 -11 304.87 9.9
11 1 -11 310.37 10.4
-11 -2 11 11 11.6
11 2 -11 22.8 13.6
-11 -3 11 129.29 27.5
11 3 -11 118.19 30.1
11 3 -11 104.89 4.5
11 3 -11 108.49 4.8
11 3 -11 105.59 6.4
11 -3 -10 8.6 12.8
11 -3 -10 2.4 1.7
-11 2 10 175.88 8.5
-11 2 10 212.38 29.3
-11 2 10 182.68 8.5
11 -2 -10 230.88 29.9
11 -2 -10 200.28 7.5
11 -2 -10 215.68 9.6
-11 1 10 110.19 5.9
-11 1 10 81.39 7
-11 1 10 94.19 22.4
11 -1 -10 99.69 5.2
11 -1 -10 102.69 6
11 -1 -10 70.29 18.1
-11 0 10 173.48 25.1
-11 0 10 190.38 7.3
11 0 -10 231.68 29.3
11 0 -10 197.28 7.8
11 0 -10 189.78 7.5
-11 -1 10 78.89 19.4
-11 -1 10 99.99 4.7
-11 -1 10 97.29 5.5
11 1 -10 100.49 5
11 1 -10 98.39 5.4
11 1 -10 108.49 24.5
-11 -2 10 195.08 8.2
-11 -2 10 174.08 28.5
11 2 -10 180.08 30.1
11 2 -10 207.18 8.4
11 2 -10 207.28 6.8
-11 -3 10 -4.2 8.3
11 3 -10 2.3 1.5
11 3 -10 2.5 0.9
11 3 -10 -9.8 12.4
-11 3 9 54.29 18.5
-11 3 9 51.49 4.9
11 -3 -9 52.29 4.8
11 -3 -9 39.8 17.9
-11 2 9 84.09 19.1
-11 2 9 114.49 5.5
-11 2 9 99.39 6.1
11 -2 -9 96.09 22.4
11 -2 -9 110.79 6.5
11 -2 -9 108.79 5.3
-11 1 9 11.4 2
-11 1 9 17.9 2.7
-11 1 9 12.5 8.1
11 -1 -9 13.2 2.4
11 -1 -9 13.7 2.1
11 -1 -9 12.4 10.2
-11 0 9 8.4 8
-11 0 9 -0.8 0.6
-11 0 9 0.7 0.8
11 0 -9 -1 0.6
11 0 -9 -4.7 4.9
11 0 -9 0 0.7
-11 -1 9 11.5 1.7
-11 -1 9 6.1 5.9
11 1 -9 10.8 2.1
11 1 -9 15.9 2
11 1 -9 13 11.9
-11 -2 9 162.18 31.6
11 2 -9 113.69 4.4
11 2 -9 106.59 26.4
11 2 -9 118.79 6.2
-11 -3 9 58.19 4.4
-11 -3 9 52.79 19
11 3 -9 55.19 18.1
11 3 -9 50.59 4.3
11 3 -9 57.79 2.6
11 3 -9 55.09 2.4
-11 4 8 28.1 3.1
-11 4 8 19.6 2.7
-11 4 8 11 15.2
11 -4 -8 23.4 3.9
11 -4 -8 -5.4 15
-11 3 8 8.5 9.9
11 -3 -8 31 13.4
-11 2 8 165.58 7.7
-11 2 8 150.98 23.1
-11 2 8 170.08 6.8
11 -2 -8 169.08 6.8
11 -2 -8 176.68 8.1
11 -2 -8 151.78 24.9
-11 1 8 232.88 8.1
-11 1 8 237.18 8.6
-11 1 8 225.68 26.4
11 -1 -8 214.68 26.8
11 -1 -8 241.88 8.2
11 -1 -8 227.08 8.5
-11 0 8 89.19 4.8
-11 0 8 81.59 18.4
-11 0 8 88.99 4.5
11 0 -8 86.59 4.8
11 0 -8 89.79 4.8
-11 -1 8 252.67 27.7
-11 -1 8 232.78 6.7
11 1 -8 225.78 27.9
11 1 -8 236.68 7.1
11 1 -8 237.38 8.5
-11 -2 8 168.38 7.3
-11 -2 8 174.98 25.1
11 2 -8 168.48 4.9
11 2 -8 187.78 26.6
11 2 -8 174.98 7.4
-11 -3 8 -1.9 0.9
-11 -3 8 14.2 10.6
11 3 -8 -0.2 0.8
11 3 -8 -2.2 12
-11 -4 8 25.3 18.8
11 4 -8 -24 17.5
11 4 -8 20.5 3.4
-11 4 7 -0.4 2.3
-11 4 7 2 1.3
-11 4 7 -15.9 7.7
11 -4 -7 -6.5 11.8
-11 3 7 82.19 7.1
11 -3 -7 72.29 26
11 -3 -7 96.49 6.3
-11 2 7 204.38 8.5
-11 2 7 179.68 40.4
-11 2 7 205.28 7.6
11 -2 -7 216.58 8.7
11 -2 -7 197.48 25.2
11 -2 -7 202.18 7.5
-11 1 7 179.48 23.3
-11 1 7 182.28 7.2
-11 1 7 177.48 6.9
11 -1 -7 150.88 21.9
11 -1 -7 174.08 6.8
11 -1 -7 176.98 7.2
-11 0 7 1.6 0.6
-11 0 7 5.9 4.1
-11 0 7 0.5 0.6
11 0 -7 1 0.6
11 0 -7 0.6 0.6
11 0 -7 6.6 7.3
-11 -1 7 160.18 21
-11 -1 7 179.88 5.4
11 1 -7 176.78 7.1
11 1 -7 156.98 22.3
11 1 -7 181.88 5.6
-11 -2 7 215.98 8.1
-11 -2 7 196.28 26.5
11 2 -7 209.48 8
11 2 -7 215.98 4.5
11 2 -7 209.68 27.9
-11 -3 7 111.89 25.7
-11 -3 7 82.19 5.8
11 3 -7 87.69 5.3
11 3 -7 91.29 25.2
-11 -4 7 -11.2 11.3
11 4 -7 -0.1 1.1
11 4 -7 6.1 15.8
-11 4 6 27 3.1
-11 4 6 13.9 13.3
-11 4 6 30.4 3.3
11 -4 -6 23.7 17.5
11 -4 -6 27 4.2
-11 3 6 23.9 3.5
-11 3 6 22 12.9
-11 3 6 32.4 3.3
11 -3 -6 32.8 3.7
11 -3 -6 6.8 8.7
-11 2 6 369.66 10.6
-11 2 6 339.07 11.3
-11 2 6 356.76 32.8
11 -2 -6 371.06 11.7
11 -2 -6 319.37 30.3
-11 1 6 123.19 5.6
-11 1 6 149.49 19.8
11 -1 -6 111.59 5.4
11 -1 -6 116.29 5.6
-11 0 6 516.85 11.8
-11 0 6 538.45 37.1
11 0 -6 501.75 11.7
11 0 -6 508.65 12.9
-11 -1 6 139.69 18.4
-11 -1 6 115.39 3.9
-11 -1 6 110.29 5.5
11 1 -6 117.39 4.1
11 1 -6 130.09 5.8
-11 -2 6 337.07 10.4
-11 -2 6 344.57 32.3
11 2 -6 362.16 10.7
11 2 -6 361.96 35.3
-11 -3 6 21.8 11.2
-11 -3 6 33.9 3.4
11 3 -6 44.1 16.9
11 3 -6 31.8 3.2
-11 -4 6 41.8 18.2
-11 -4 6 33.4 3.6
11 4 -6 29.5 19.4
11 4 -6 22.8 3.2
-11 4 5 4.6 1.5
-11 4 5 -8.4 10.1
-11 4 5 4.8 1.7
11 -4 -5 5.9 2.3
11 -4 -5 8.2 11
-11 3 5 190.18 8.9
-11 3 5 182.38 25.5
-11 3 5 187.28 7.5
11 -3 -5 180.68 8.5
11 -3 -5 112.69 23.6
-11 2 5 1.8 0.8
-11 2 5 -0.6 0.7
-11 2 5 -6.4 4.1
11 -2 -5 -0.4 7.3
11 -2 -5 1.8 0.9
-11 1 5 786.72 17
-11 1 5 709.63 42.3
-11 1 5 786.92 17
11 -1 -5 799.72 17.1
11 -1 -5 777.12 44
11 -1 -5 797.22 17
-11 0 5 0.4 0.6
-11 0 5 2.8 4.2
11 0 -5 -1.3 4.8
11 0 -5 0.6 0.6
-11 -1 5 789.52 13.5
-11 -1 5 787.92 17
-11 -1 5 826.82 45.3
11 1 -5 795.12 17.1
11 1 -5 742.93 44.7
11 1 -5 809.12 14.2
-11 -2 5 2.6 6.2
-11 -3 5 211.08 26.9
-11 -3 5 200.98 7.9
11 3 -5 202.08 7.9
11 3 -5 211.38 28.4
-11 -4 5 -16.3 11.8
-11 -4 5 0.3 1.4
11 4 -5 1.5 1.2
11 4 -5 2.8 14.9
-11 4 4 59.19 4.5
-11 4 4 56.99 4.4
-11 4 4 43.9 16.2
11 -4 -4 57.09 5.3
-11 3 4 32.7 3.2
-11 3 4 24.3 3.7
-11 3 4 35 12.5
-11 3 4 26.1 3
11 -3 -4 13.2 8.6
11 -3 -4 36.5 3.8
-11 2 4 234.18 24.4
-11 2 4 249.88 9.3
11 -2 -4 248.78 24.6
11 -2 -4 256.77 9.3
-11 1 4 4 5.5
-11 1 4 4.7 1.2
11 -1 -4 3.5 5.5
11 -1 -4 1.8 1.1
11 -1 -4 2.8 1.1
-11 0 4 589.04 35.6
-11 0 4 570.34 13.6
-11 0 4 560.14 12.2
11 0 -4 559.74 13.6
11 0 -4 571.24 12.2
11 0 -4 583.04 51.69
-11 -1 4 5.3 5.6
-11 -1 4 2.7 0.7
-11 -1 4 4.6 1.2
11 1 -4 9.2 5.7
11 1 -4 5.5 1.5
11 1 -4 2.7 0.6
-11 -2 4 226.18 24.8
-11 -2 4 264.97 8.5
11 2 -4 255.27 26.6
11 2 -4 250.57 8.5
-11 -3 4 31.5 3.1
-11 -3 4 14.1 9.2
11 3 -4 31.5 3
11 3 -4 26.6 13
-11 -4 4 42.7 15.4
-11 -4 4 59.09 5.9
11 4 -4 36.5 16.2
11 4 -4 57.49 4.2
-11 4 3 2.3 1.3
-11 4 3 10.2 8.9
-11 4 3 1.5 1.5
11 -4 -3 4.5 10.5
11 -4 -3 1.3 1.5
-11 3 3 174.58 8.7
-11 3 3 153.68 22.5
-11 3 3 177.68 7.6
-11 3 3 179.78 7.6
11 -3 -3 193.08 8.7
11 -3 -3 173.98 23.6
-11 2 3 119.39 17.7
-11 2 3 122.59 6.4
11 -2 -3 116.59 16.3
11 -2 -3 128.89 6.4
-11 1 3 87.69 4.7
-11 1 3 91.49 13.7
11 -1 -3 93.99 4.9
11 -1 -3 100.59 14
-11 0 3 -4.4 3.2
-11 0 3 -0.3 0.5
-11 0 3 0.8 0.7
11 0 -3 0.1 0.6
11 0 -3 0.8 0.7
11 0 -3 0.8 4.6
-11 -1 3 81.49 4.5
-11 -1 3 86.29 3.1
-11 -1 3 113.09 16
11 1 -3 97.09 14.8
11 1 -3 86.49 4.9
-11 -2 3 107.59 17.1
-11 -2 3 127.09 5.7
11 2 -3 125.99 18.6
11 2 -3 139.69 6
-11 -3 3 180.38 7.1
-11 -3 3 176.48 22.8
11 3 -3 187.58 7.2
11 3 -3 204.98 27
-11 -4 3 -10 10.2
-11 -4 3 3.7 1.3
11 4 -3 1.8 1.3
-11 4 2 39.9 7.1
11 -4 -2 35 13.9
11 -4 -2 36.8 4.4
-11 3 2 -0.9 1
-11 3 2 4.8 9
-11 3 2 1.6 1.7
-11 3 2 2.5 1.2
11 -3 -2 0.4 8.5
11 -3 -2 1.6 0.9
-11 2 2 51.19 13.9
-11 2 2 50.79 4.2
11 -2 -2 50.09 11.9
11 -2 -2 52.89 4
-11 1 2 204.98 18.5
-11 1 2 186.28 8.9
11 -1 -2 201.48 7.4
11 -1 -2 204.08 18.9
-11 0 2 247.48 7.5
-11 0 2 259.17 8.4
-11 0 2 268.97 20.4
11 0 -2 254.87 8.4
11 0 -2 253.57 20.1
11 0 -2 255.67 7.4
-11 -1 2 196.48 5.1
-11 -1 2 193.48 18.6
-11 -1 2 199.08 7.2
11 1 -2 218.68 19.9
11 1 -2 178.48 8.3
-11 -2 2 31.1 10
-11 -2 2 50.29 3.5
11 2 -2 44.5 11
11 2 -2 53.19 3.6
-11 -3 2 5.1 12.3
-11 -3 2 0.5 1
11 3 -2 1.2 0.7
-11 -4 2 38.3 3.3
-11 -4 2 50.59 16.9
11 4 -2 38.8 3.4
-11 4 1 11.3 2.3
11 -4 -1 23.2 12
11 -4 -1 15 3.2
-11 3 1 167.48 7.7
-11 3 1 173.18 7.7
-11 3 1 159.08 8.4
-11 3 1 154.68 21.6
11 -3 -1 184.48 22.5
11 -3 -1 172.28 8.3
-11 2 1 34.3 10.8
-11 2 1 27.6 2.9
-11 2 1 31.8 3.3
11 -2 -1 31.9 3.2
11 -2 -1 25.5 8.7
-11 1 1 3.7 1.1
-11 1 1 4.7 1.5
-11 1 1 5.2 4.9
11 -1 -1 4 1.3
11 -1 -1 -1 3.8
-11 0 1 3.5 3.6
11 0 -1 3.7 3.1
-11 -1 1 5.5 1
-11 -1 1 7.8 1.6
-11 -1 1 3.7 4.2
-11 -1 1 2.3 0.8
11 1 -1 4.8 1.4
11 1 -1 3.4 4.8
-11 -2 1 23.7 8.8
-11 -2 1 25.8 2.5
11 2 -1 26 10.2
11 2 -1 31.2 2.8
-11 -3 1 161.88 6.4
-11 -3 1 175.18 22
11 3 -1 150.08 6.2
-11 -4 1 16.7 13.7
-11 -4 1 16.9 2.4
11 4 -1 10.5 1.9
-11 3 0 2.7 1.3
-11 3 0 5.9 1.9
-11 3 0 3.2 2
11 -3 0 -1.8 6.7
11 -3 0 6.4 1.9
-11 2 0 136.29 6.6
-11 2 0 131.09 6.9
11 -2 0 136.99 6.8
11 -2 0 132.49 15
-11 1 0 96.49 5.2
-11 1 0 92.29 10.3
-11 1 0 88.99 5
11 -1 0 99.49 10.6
11 -1 0 89.89 4.9
-11 0 0 593.04 13.3
-11 0 0 611.14 14.2
-11 0 0 500.65 31.3
11 0 0 585.74 22.6
-11 -1 0 85.19 3.7
-11 -1 0 82.09 4.5
-11 -1 0 92.39 3.6
-11 -1 0 90.99 10.8
11 1 0 91.69 4.8
11 1 0 88.19 10.7
-11 -2 0 119.39 14.8
-11 -2 0 127.79 5.6
11 2 0 129.39 6.5
-11 -3 0 -2.7 6.2
-11 -3 0 1.2 1.1
11 3 0 2.5 1
-11 3 -1 194.38 9.5
11 -3 1 188.78 20.1
11 -3 1 200.78 9.2
-11 2 -1 11 2.3
-11 2 -1 14.8 2.8
11 -2 1 5.2 5.7
11 -2 1 9.2 5.2
11 -2 1 15.1 2.7
-11 1 -1 227.68 8.5
-11 1 -1 205.88 8
-11 1 -1 213.88 8.2
11 -1 1 198.08 8.4
11 -1 1 224.48 9
-11 0 -1 0 0.7
-11 0 -1 -0.4 0.7
-11 -1 -1 210.28 7.5
-11 -1 -1 214.08 11.5
-11 -1 -1 220.68 6.6
-11 -1 -1 209.28 6.3
-11 -1 -1 206.58 11.3
-11 -2 -1 19.4 2
-11 -2 -1 32.8 11
-11 -2 -1 4.6 4.8
-11 -2 -1 18.4 2.4
-11 -2 -1 11.7 1.1
11 2 1 12.5 2.5
-11 -3 -1 189.18 21.1
-11 -3 -1 181.68 6.6
11 3 1 189.18 7.1
-11 3 -2 21.4 3.6
11 -3 2 41.9 11.4
-11 2 -2 217.68 9.4
-11 2 -2 233.98 9.1
-11 2 -2 228.38 9.1
11 -2 2 239.28 14.7
11 -2 2 215.68 14
-11 1 -2 1.2 0.8
-11 1 -2 -1.4 1
-11 1 -2 2.8 1.4
-11 0 -2 432.06 11.9
-11 0 -2 424.66 11.7
-11 0 -2 442.46 11.4
-11 -1 -2 -0.2 0.7
-11 -1 -2 0.1 0.8
-11 -1 -2 3.5 1.1
-11 -2 -2 227.98 7.6
-11 -2 -2 220.28 5.8
-11 -2 -2 230.28 16
-11 -2 -2 215.48 5.8
-11 -2 -2 208.28 15.3
-11 -3 -2 26.7 2.6
-11 -3 -2 13 8.4
-11 3 -3 104.09 6.4
11 -3 3 93.79 14.6
-11 2 -3 10.6 2.7
-11 2 -3 16.1 3
-11 2 -3 15.7 2.9
-11 1 -3 216.78 8.8
-11 1 -3 227.98 9.1
-11 1 -3 219.18 8.6
-11 0 -3 -1.2 0.9
-11 0 -3 -0.4 0.9
-11 0 -3 1.7 1.1
-11 -1 -3 212.98 7.3
-11 -1 -3 222.78 7.8
-11 -1 -3 225.08 7.4
-11 -2 -3 15.6 2.2
-11 -2 -3 11.8 1.6
-11 -2 -3 13.1 1.7
-11 -3 -3 94.59 4.4
-11 -3 -3 98.39 16.2
-11 2 -4 73.59 6.6
-11 2 -4 78.29 6.2
-11 1 -4 2.5 1.6
-11 1 -4 0.7 1.2
-11 1 -4 8.6 2.4
-11 1 -4 3.3 1.3
-11 0 -4 33.6 3.4
-11 0 -4 23 2.7
-11 0 -4 29.7 3.1
-11 0 -4 31 3.2
-11 -1 -4 3.5 1.4
-11 -1 -4 4 1.4
-11 -1 -4 5.6 1.6
-11 -1 -4 5.7 1.7
-11 -2 -4 80.19 4.1
-11 -2 -4 81.59 4.3
-11 -2 -4 75.89 4.3
-11 -2 -4 89.49 4.3
-11 1 -5 48.3 4.2
-11 1 -5 48.1 4.2
-11 1 -5 34.8 3.7
-11 1 -5 41.9 4.1
-11 0 -5 0.4 1.3
-11 0 -5 -1.1 1
-11 0 -5 0.7 1.2
-11 0 -5 -0.4 0.9
-11 -1 -5 37.7 3.7
-11 -1 -5 47.3 3.5
-11 -1 -5 34.8 3.3
-11 -1 -5 47.6 3.9
-12 0 14 0.9 19.1
-12 0 14 37.8 3.8
12 0 -14 45.8 4.5
12 0 -14 42.6 22.2
12 0 -14 34.6 3.8
-12 1 13 23.3 17.2
-12 1 13 13.3 2.4
-12 1 13 13.9 3
12 -1 -13 13.8 3
12 -1 -13 15.9 2.6
12 -1 -13 18.4 15.8
-12 0 13 9.6 12.2
12 0 -13 14.6 17
-12 -1 13 10.1 15.1
-12 -1 13 9 2
12 1 -13 17.3 2.9
12 1 -13 28.1 16.7
-12 2 12 254.37 36.9
-12 2 12 310.77 10.1
12 -2 -12 301.67 9.9
12 -2 -12 327.77 42.6
12 -2 -12 292.27 12.3
-12 1 12 4.8 1.6
-12 1 12 9.5 10.7
12 -1 -12 6.1 2
12 -1 -12 2.9 1.2
12 -1 -12 4.7 11.1
-12 0 12 120.09 24.2
-12 0 12 194.68 8.1
-12 0 12 178.58 7.7
12 0 -12 195.88 8.4
12 0 -12 190.18 8
12 0 -12 209.18 39.2
-12 -1 12 10.3 10.4
-12 -1 12 6.3 1.7
-12 -1 12 4.1 1.3
12 1 -12 14.4 13.3
12 1 -12 1.3 1
12 1 -12 4.1 1.4
-12 -2 12 307.57 38.7
12 2 -12 309.57 11.3
12 2 -12 284.17 42.1
12 2 -12 315.37 9.8
-12 2 11 -4.7 11.2
-12 2 11 5 1.5
-12 2 11 7.3 2.1
12 -2 -11 3.5 1.3
12 -2 -11 6.7 2.3
12 -2 -11 10.8 11.7
-12 1 11 326.77 11.3
-12 1 11 324.77 10.5
-12 1 11 351.26 37.9
12 -1 -11 281.47 34.4
12 -1 -11 315.87 10.3
12 -1 -11 333.17 11.7
-12 0 11 0.6 0.9
-12 0 11 -6.9 8.1
12 0 -11 4.5 9.3
12 0 -11 -1.9 0.9
12 0 -11 -0.8 0.7
-12 -1 11 317.97 11
-12 -1 11 331.97 9.7
-12 -1 11 298.07 34.4
12 1 -11 338.17 10.2
12 1 -11 343.57 11.3
12 1 -11 316.17 37.2
-12 -2 11 5.6 12.2
12 2 -11 -4.3 13.2
12 2 -11 4.4 1.2
12 2 -11 7.3 1.8
-12 3 10 4.4 1.5
-12 3 10 5.5 14.3
12 -3 -10 1.4 13.1
12 -3 -10 1.4 1.7
-12 2 10 165.48 7.1
-12 2 10 190.18 39.1
-12 2 10 135.49 8.4
12 -2 -10 148.39 28.8
12 -2 -10 152.28 8.1
12 -2 -10 143.99 6.6
-12 1 10 1.3 1.1
-12 1 10 11.1 7.4
-12 1 10 1 1
12 -1 -10 3.4 8.2
12 -1 -10 -0.7 0.9
12 -1 -10 0.3 0.7
-12 0 10 267.57 9.4
-12 0 10 263.47 8.9
-12 0 10 300.97 33.1
12 0 -10 264.07 9.3
12 0 -10 289.47 33.5
12 0 -10 258.27 9.2
-12 -1 10 4.5 7.8
12 1 -10 10.3 12.3
-12 -2 10 166.88 7.7
-12 -2 10 203.38 37.1
12 2 -10 197.98 30.7
12 2 -10 161.78 7.7
12 2 -10 159.28 5.7
-12 -3 10 -6.1 8.9
12 3 -10 -9.1 12.5
12 3 -10 1.7 0.7
12 3 -10 -0.2 1.3
-12 3 9 67.09 20.5
-12 3 9 92.29 5.3
12 -3 -9 45.1 18.8
12 -3 -9 89.19 6.2
-12 2 9 23.6 10.5
-12 2 9 19.9 3.2
-12 2 9 18.9 2.8
12 -2 -9 20.6 2.9
12 -2 -9 21.2 3.4
12 -2 -9 40.6 15.2
-12 1 9 129.29 21.3
-12 1 9 178.48 7.6
12 -1 -9 177.88 26.9
12 -1 -9 173.38 7.7
12 -1 -9 176.68 7.3
-12 0 9 -0.1 0.8
-12 0 9 -0.1 0.6
-12 0 9 -8.5 6
12 0 -9 0 6.9
12 0 -9 1.8 1.2
12 0 -9 0 0.7
-12 -1 9 178.88 6
-12 -1 9 171.88 24.9
12 1 -9 174.48 7.6
12 1 -9 217.58 28.9
12 1 -9 171.98 6.3
-12 -2 9 24.2 3.5
-12 -2 9 3.7 7.8
12 2 -9 41.5 19.5
12 2 -9 26.4 3.1
12 2 -9 24 2
-12 -3 9 89.19 22.9
12 3 -9 107.09 8.3
12 3 -9 115.69 29.8
-12 3 8 2.1 1.2
-12 3 8 -1.9 12.4
-12 3 8 -2 1.3
12 -3 -8 2.4 1.4
12 -3 -8 17.1 13.7
-12 2 8 42.1 14.4
-12 2 8 20 3.4
-12 2 8 18.2 2.8
12 -2 -8 25.2 3.1
12 -2 -8 23.1 2.7
12 -2 -8 13.2 12.3
-12 1 8 10.8 2
-12 1 8 11.9 13
12 -1 -8 11.1 2
12 -1 -8 13.3 9.7
-12 0 8 98.29 20.7
-12 0 8 130.39 5.6
12 0 -8 131.39 22
12 0 -8 135.89 5.9
12 0 -8 128.49 6.2
-12 -1 8 10.5 1.6
-12 -1 8 12.8 11.3
12 1 -8 12.4 1.6
12 1 -8 9.5 1.9
12 1 -8 2 6.5
-12 -2 8 20.5 3.4
-12 -2 8 26.1 14
12 2 -8 16.2 2.6
12 2 -8 21.5 1.5
12 2 -8 20.4 11
-12 -3 8 -1.2 1.2
-12 -3 8 -5 10.8
12 3 -8 0.5 10.5
12 3 -8 1 1.3
-12 3 7 120.39 26.4
-12 3 7 152.98 8.1
-12 3 7 137.19 6.9
12 -3 -7 108.39 24.1
12 -3 -7 135.19 7.7
-12 2 7 14.2 2.4
-12 2 7 15.9 2.8
-12 2 7 21.9 10.1
12 -2 -7 16.8 3
12 -2 -7 17.4 10.9
-12 1 7 64.19 4.2
-12 1 7 79.29 19.1
12 -1 -7 71.89 4.5
12 -1 -7 39 12.8
12 -1 -7 57.59 4.1
-12 0 7 -0.8 0.5
-12 0 7 -5.8 6.4
12 0 -7 1 6.3
12 0 -7 -0.6 0.5
12 0 -7 -0.2 0.6
-12 -1 7 69.39 17.3
-12 -1 7 62.89 3
12 1 -7 65.19 3.2
12 1 -7 71.89 18.2
12 1 -7 68.09 4.4
-12 -2 7 19.4 2.4
-12 -2 7 -3.4 7.5
12 2 -7 23.7 12.6
12 2 -7 12.4 2.4
-12 -3 7 144.79 7.1
-12 -3 7 106.99 25
12 3 -7 133.29 6.8
12 3 -7 156.38 32.4
-12 3 6 2.5 1.7
-12 3 6 12 11.3
12 -3 -6 0.5 1.2
12 -3 -6 1.4 10.1
-12 2 6 56.69 13.4
-12 2 6 78.89 5.3
-12 2 6 89.79 5
12 -2 -6 84.39 5.5
-12 1 6 3.5 1.4
-12 1 6 -2.5 4.1
12 -1 -6 3.7 1.4
12 -1 -6 6 1.8
12 -1 -6 7.7 6.4
-12 0 6 388.76 10.1
-12 0 6 408.56 34
12 0 -6 387.26 32.6
12 0 -6 375.46 11.2
12 0 -6 395.26 10.1
-12 -1 6 4.7 1
-12 -1 6 7.1 1.7
-12 -1 6 9.4 7
12 1 -6 8.9 6.5
12 1 -6 2.3 1.1
12 1 -6 4.1 0.9
-12 -2 6 86.39 5.1
-12 -2 6 101.89 21.9
12 2 -6 83.99 5.1
-12 -3 6 -7.3 8
-12 -3 6 -0.7 1.1
12 3 -6 1.3 1.1
12 3 -6 6.3 12.1
-12 4 5 2.9 2.7
12 -4 -5 1.2 1.6
-12 3 5 203.68 9.6
-12 3 5 221.68 8.8
-12 3 5 208.28 28.3
12 -3 -5 227.58 9.9
12 -3 -5 191.38 29.8
-12 2 5 -3.4 5.1
-12 2 5 -0.1 0.7
-12 2 5 2.1 1.2
12 -2 -5 -1.2 0.7
12 -2 -5 3.2 7.1
-12 1 5 287.37 26.6
-12 1 5 281.67 9.2
12 -1 -5 281.67 9.4
12 -1 -5 272.97 27.2
12 -1 -5 287.07 9.3
-12 0 5 3.6 5
-12 0 5 -0.4 0.6
12 0 -5 1.7 0.8
12 0 -5 0.2 5.2
12 0 -5 -0.1 0.6
-12 -1 5 285.77 9.3
-12 -1 5 289.37 6.5
-12 -1 5 267.47 25.9
12 1 -5 294.47 6.7
12 1 -5 271.37 9.3
12 1 -5 253.47 27.2
-12 -2 5 1.7 5.3
-12 -2 5 0.1 0.6
12 2 -5 0.1 7.5
12 2 -5 1.4 0.9
-12 -3 5 199.88 27.1
-12 -3 5 209.78 8.4
12 3 -5 214.28 8.4
12 4 -5 -1.7 1
-12 3 4 2.8 7.4
-12 3 4 3.8 1.5
-12 3 4 4.3 1.5
-12 3 4 5.2 2.2
12 -3 -4 7.7 2
12 -3 -4 10.7 9.4
-12 2 4 163.38 7.7
-12 2 4 170.18 21.6
-12 2 4 177.28 7.4
12 -2 -4 160.58 7.5
12 -2 -4 161.78 21
-12 1 4 20.1 8.8
-12 1 4 12.3 2.2
12 -1 -4 12.5 2.2
12 -1 -4 16.8 7.5
12 -1 -4 9.5 1.8
-12 0 4 545.45 13.8
-12 0 4 549.45 12.3
12 0 -4 528.25 34.8
12 0 -4 563.64 13.9
12 0 -4 553.84 12.3
-12 -1 4 7.9 6.6
-12 -1 4 7.1 1.9
-12 -1 4 11.2 1.2
12 1 -4 10.4 1.5
12 1 -4 9.4 1.8
12 1 -4 9.5 6.5
-12 -2 4 163.18 20.5
-12 -2 4 168.08 7
12 2 -4 156.68 6.8
12 2 -4 161.38 23.2
-12 -3 4 3.4 7.5
-12 -3 4 3.3 1.6
12 3 -4 14.7 10.6
12 3 -4 9.2 2
-12 3 3 163.28 7.6
-12 3 3 155.48 8.3
-12 3 3 148.09 7.2
-12 3 3 160.78 36.4
12 -3 -3 160.88 8.2
12 -3 -3 140.29 21.6
-12 2 3 6.2 1.8
-12 2 3 2.9 6.4
-12 2 3 3.3 1.1
12 -2 -3 4.7 1.4
12 -2 -3 3.7 6.2
-12 1 3 147.99 17.3
-12 1 3 163.48 6.8
12 -1 -3 163.98 6.7
12 -1 -3 144.29 17.6
-12 0 3 0.2 3.6
-12 0 3 0.6 0.7
-12 0 3 -0.9 0.5
12 0 -3 2.1 0.8
12 0 -3 0.5 0.8
12 0 -3 -5.7 3.6
-12 -1 3 161.78 4.6
-12 -1 3 169.08 19
-12 -1 3 162.38 6.8
12 1 -3 170.88 19.7
12 1 -3 155.88 6.7
-12 -2 3 5.4 1.4
-12 -2 3 5.3 6.5
12 2 -3 8 6.9
12 2 -3 3 1.2
-12 -3 3 133.39 21.6
-12 -3 3 159.58 6.8
12 3 -3 155.38 23.4
12 3 -3 159.58 6.9
-12 3 2 1.3 8.4
-12 3 2 3.5 1.6
-12 3 2 5 2
-12 3 2 7.3 1.9
12 -3 -2 0.1 7.1
12 -3 -2 4.8 1.6
-12 2 2 87.59 5.7
-12 2 2 77.69 16.3
-12 2 2 82.59 6.8
12 -2 -2 79.89 16.4
12 -2 -2 79.49 5.2
-12 1 2 57.79 4.1
-12 1 2 75.89 14.4
-12 1 2 46.6 3.7
12 -1 -2 69.69 4.3
12 -1 -2 68.99 10.9
-12 0 2 274.67 21.4
-12 0 2 266.77 9
-12 0 2 271.37 8.1
12 0 -2 285.67 21.3
12 0 -2 255.47 8.9
12 0 -2 271.27 7.8
-12 -1 2 62.39 12.3
-12 -1 2 63.39 4.1
-12 -1 2 61.09 2.8
12 1 -2 60.89 12.5
12 1 -2 65.89 4.2
-12 -2 2 84.29 15.7
-12 -2 2 89.09 4.9
12 2 -2 94.19 15.8
12 2 -2 81.49 4.7
-12 -3 2 13.3 9
-12 -3 2 1.9 1
12 3 -2 5.7 1.7
-12 3 1 120.69 7.5
-12 3 1 138.39 7.7
12 -3 -1 122.69 19.4
12 -3 -1 126.99 7.3
-12 2 1 20 3.2
-12 2 1 2.5 7.2
-12 2 1 15.4 2.5
-12 2 1 17 2.6
12 -2 -1 11.9 2.5
12 -2 -1 7.1 7.2
-12 1 1 13.3 2.1
-12 1 1 11.8 2.2
-12 1 1 6.4 5.2
12 -1 -1 13.7 2.4
-12 0 1 -1.6 3.2
-12 0 1 -1.3 0.6
-12 0 1 0.1 0.6
-12 -1 1 12.4 1.4
-12 -1 1 18.6 6.6
-12 -1 1 17.2 2.6
-12 -1 1 10.5 1.5
12 1 -1 11.9 2.2
-12 -2 1 19.6 8.9
-12 -2 1 13.2 2.2
12 2 -1 15.6 2.4
-12 -3 1 156.88 21.9
-12 -3 1 115.89 5.6
12 3 -1 123.49 5.8
-12 3 0 14.6 2.6
12 -3 0 13.1 2.9
12 -3 0 29.8 11.7
-12 2 0 141.59 7.4
-12 2 0 125.09 6.7
-12 2 0 130.69 6.8
12 -2 0 116.99 14.6
12 -2 0 124.89 6.7
-12 1 0 7.7 4.4
-12 1 0 10.4 2
-12 1 0 7.9 1.9
12 -1 0 10.7 5
-12 0 0 426.46 18
-12 0 0 427.56 12.1
-12 0 0 422.66 11.3
12 0 0 411.56 16.9
-12 -1 0 7.7 4.8
-12 -1 0 10.4 2
-12 -1 0 11.7 1.5
-12 -1 0 9.2 1.4
-12 -2 0 135.99 22.1
-12 -2 0 123.29 5.7
12 2 0 128.59 5.9
-12 -3 0 16.6 2.4
-12 -3 0 37.9 11.7
12 3 0 15.4 2.3
-12 3 -1 154.38 8
12 -3 1 169.18 8.7
12 -3 1 136.29 18.5
-12 2 -1 17.7 3
-12 2 -1 12.8 2.5
12 -2 1 18.4 6.8
-12 1 -1 96.59 5.6
-12 1 -1 90.69 6.4
-12 1 -1 90.79 5.5
-12 0 -1 0.6 1
-12 0 -1 2.1 1
-12 0 -1 0.7 0.9
-12 -1 -1 82.09 4
-12 -1 -1 85.89 3.9
-12 -1 -1 81.29 4.7
-12 -2 -1 12 2.2
-12 -2 -1 19.1 7.1
-12 -2 -1 17.8 1.3
-12 -3 -1 159.38 6.5
-12 -3 -1 151.88 20.1
12 3 1 150.58 6.3
-12 2 -2 128.49 7.6
-12 2 -2 167.98 11.6
-12 1 -2 19.6 3
-12 1 -2 26.1 3.1
-12 1 -2 18.4 2.8
-12 0 -2 273.57 9.6
-12 0 -2 277.67 9.4
-12 0 -2 273.27 9.5
-12 -1 -2 25.4 2.6
-12 -1 -2 22.8 2.7
-12 -1 -2 24.6 2.3
-12 -2 -2 133.59 4.3
-12 -2 -2 127.89 4.3
-12 -2 -2 127.99 5.9
-12 2 -3 4.8 1.7
-12 1 -3 120.49 6.6
-12 1 -3 131.59 7
-12 1 -3 129.19 6.7
-12 1 -3 138.69 6.9
-12 0 -3 -1 0.9
-12 0 -3 2.7 1.2
-12 0 -3 -1.4 0.8
-12 0 -3 -1.1 1
-12 -1 -3 135.49 5.9
-12 -1 -3 135.99 6.3
-12 -1 -3 136.09 5.7
-12 -1 -3 129.59 6.1
-12 -2 -3 1.4 1.2
-12 -2 -3 5.3 1.6
-12 -2 -3 -1.7 0.9
-12 1 -4 6.2 2.2
-12 1 -4 5.5 2.2
-12 1 -4 5.7 1.9
-12 0 -4 4.6 1.6
-12 0 -4 3.8 1.9
-12 0 -4 0.6 1.2
-12 0 -4 4.4 1.4
-12 -1 -4 11 2.1
-12 -1 -4 7.6 1.7
-12 -1 -4 9.8 2
-12 -1 -4 8.1 1.9
-13 1 13 53.59 5
-13 1 13 85.29 26.3
-13 1 13 45.8 4.2
13 -1 -13 53.79 4.3
13 -1 -13 35.9 18.5
13 -1 -13 46.5 4.7
-13 0 13 -16.4 11.3
-13 0 13 -0.4 2.1
13 0 -13 -2.2 13.4
13 0 -13 0.1 2.2
13 0 -13 1.5 1.4
-13 -1 13 53.89 20
-13 -1 13 44.2 3.8
13 1 -13 46.6 4.1
13 1 -13 42 4.2
-13 2 12 193.38 8
-13 2 12 122.29 27.7
13 -2 -12 183.58 9.5
13 -2 -12 186.48 7.9
13 -2 -12 199.88 42.7
-13 1 12 2.1 1.6
-13 1 12 3.8 1.8
13 -1 -12 7.2 2.5
13 -1 -12 -5.7 10.7
13 -1 -12 5.4 1.5
-13 0 12 216.58 8.7
-13 0 12 245.38 34.9
-13 0 12 221.28 9
13 0 -12 225.98 9
13 0 -12 224.58 9.2
13 0 -12 206.48 33
-13 -1 12 7.6 17.4
-13 -1 12 4.5 1.3
13 1 -12 -12.6 12.3
13 1 -12 5.1 1.3
13 1 -12 4.6 1.4
13 2 -12 254.47 67.79
13 2 -12 196.98 9.1
13 2 -12 204.48 7.4
-13 2 11 31.1 14
-13 2 11 0.5 1.4
-13 2 11 0.3 1.8
13 -2 -11 -8 9.4
13 -2 -11 1.4 1.1
13 -2 -11 3.1 1.8
-13 1 11 192.18 30.5
-13 1 11 193.48 8.6
-13 1 11 194.18 8.2
13 -1 -11 182.68 31
13 -1 -11 194.78 8.9
13 -1 -11 187.08 8.1
-13 0 11 0 0.9
-13 0 11 0.3 11.2
13 0 -11 -0.3 1
13 0 -11 -0.3 0.9
13 0 -11 9.6 11.7
-13 -1 11 183.78 6.9
-13 -1 11 203.48 29.7
-13 -1 11 185.68 8.4
13 1 -11 189.68 35.5
13 1 -11 185.78 7.3
13 1 -11 182.28 8.3
-13 -2 11 7.8 13.8
13 2 -11 -1.4 1.2
13 2 -11 -21.6 12
13 2 -11 -0.2 1
-13 2 10 59.49 4.4
-13 2 10 63.29 5.2
-13 2 10 32.4 11.9
13 -2 -10 50.29 20.8
13 -2 -10 65.89 5.3
13 -2 -10 61.99 4.4
-13 1 10 -0.4 1.4
-13 1 10 0.7 1
-13 1 10 -2.8 7.8
13 -1 -10 12.4 9.9
13 -1 -10 1.6 1
13 -1 -10 0.5 1.2
-13 0 10 365.06 10.8
-13 0 10 370.36 11.7
-13 0 10 424.06 40.6
13 0 -10 272.97 33.5
13 0 -10 366.66 11.7
13 0 -10 355.56 13.3
-13 -1 10 -1.1 0.6
-13 -1 10 -0.3 1
-13 -1 10 3.5 9.5
13 1 -10 1.2 0.9
13 1 -10 1.5 10.5
-13 -2 10 37.1 15.6
13 2 -10 56.19 3.1
13 2 -10 67.79 7.6
13 2 -10 34 20.6
-13 3 9 174.48 36.4
-13 3 9 164.38 7.5
13 -3 -9 163.78 9
13 -3 -9 133.39 30.6
-13 2 9 11.2 9.1
-13 2 9 22.2 3.1
-13 2 9 19.7 3.7
13 -2 -9 16.9 2.9
13 -2 -9 31.2 17
13 -2 -9 21.5 3.1
-13 1 9 69.99 4.7
-13 1 9 75.09 5
-13 1 9 75.49 18.6
13 -1 -9 93.59 21.9
13 -1 -9 70.59 5
13 -1 -9 78.29 4.8
-13 0 9 5.7 7.9
-13 0 9 0.3 1.1
-13 0 9 1.7 0.9
13 0 -9 1.9 7.4
13 0 -9 0.4 1.3
13 0 -9 -0.4 1
-13 -1 9 80.09 3.9
-13 -1 9 70.49 4.8
-13 -1 9 78.79 20.2
13 1 -9 59.19 20.4
13 1 -9 74.69 4
13 1 -9 74.39 4.9
-13 -2 9 25.7 3.1
-13 -2 9 -1.7 11.1
13 2 -9 18.1 3
13 2 -9 19.6 1.6
13 2 -9 10.1 11.8
-13 -3 9 91.19 21.3
13 3 -9 113.69 31.3
-13 3 8 36.4 16.4
-13 3 8 18.1 3
13 -3 -8 15.1 4.5
13 -3 -8 -2.2 13.6
-13 2 8 3.1 1.7
-13 2 8 9.8 9.2
-13 2 8 -1.3 1.5
13 -2 -8 11 13.1
13 -2 -8 1.3 1
-13 1 8 6.5 7.2
-13 1 8 11.2 2.3
-13 1 8 10.8 2
13 -1 -8 12.9 2.5
13 -1 -8 13.9 2.5
-13 0 8 241.48 8.9
-13 0 8 233.68 9.4
-13 0 8 196.58 27.9
13 0 -8 179.98 26.5
13 0 -8 236.38 8
13 0 -8 240.68 9
-13 -1 8 10 1.5
-13 -1 8 18.6 8.8
13 1 -8 0.4 8.7
13 1 -8 6.9 1.9
13 1 -8 7.9 1.5
-13 -2 8 5.7 13.1
13 2 -8 7 13.1
-13 -3 8 16.5 13.1
13 3 -8 17.7 3.1
13 3 -8 32.2 22.4
-13 3 7 157.58 7.4
-13 3 7 139.29 28.2
13 -3 -7 162.38 8.6
13 -3 -7 127.79 27.4
-13 2 7 58.59 4.7
-13 2 7 53.99 15.4
-13 2 7 45 5.2
13 -2 -7 53.59 4.6
-13 1 7 9.6 2
-13 1 7 7.8 1.8
-13 1 7 4.4 7.9
13 -1 -7 8.8 1.9
13 -1 -7 8.5 1.9
-13 0 7 -0.6 0.7
-13 0 7 5.7 8.2
13 0 -7 -0.5 0.7
13 0 -7 1.8 0.9
-13 -1 7 13.1 2.4
-13 -1 7 13.4 1.5
-13 -1 7 17.2 8.9
13 1 -7 11.4 2.2
13 1 -7 10.3 1.5
-13 -2 7 52.69 4.3
-13 -2 7 40.5 15.4
13 2 -7 44.2 16.7
13 2 -7 53.19 4.3
-13 -3 7 166.18 26.6
13 3 -7 161.18 7.7
13 3 -7 198.68 31.4
-13 3 6 68.99 4.8
-13 3 6 55.89 5.6
-13 3 6 60.79 18.4
13 -3 -6 67.79 5.5
-13 2 6 68.79 5
-13 2 6 71.89 5.2
13 -2 -6 58.09 4.7
13 -2 -6 76.09 18.3
-13 1 6 17.5 2.7
-13 1 6 13.8 7.6
-13 1 6 18.2 2.8
13 -1 -6 16.2 4
13 -1 -6 8.3 10.4
13 -1 -6 12.2 2.3
-13 0 6 610.64 42.5
-13 0 6 644.24 14.1
13 0 -6 615.54 15.5
13 0 -6 632.14 13.9
13 0 -6 613.04 43.2
-13 -1 6 23.9 2.7
-13 -1 6 9.7 7.4
-13 -1 6 19.8 1.6
13 1 -6 17.3 1.6
13 1 -6 14.6 10
13 1 -6 14.8 2.7
-13 -2 6 63.19 6
-13 -2 6 39.3 12.1
13 2 -6 71.69 4.8
13 2 -6 55.69 16.9
-13 -3 6 31.5 13
-13 -3 6 54.49 4.5
13 3 -6 53.99 4.4
-13 3 5 143.39 8.4
-13 3 5 150.48 7.5
-13 3 5 133.79 7.3
-13 3 5 147.19 29.2
13 -3 -5 153.38 8.3
13 -3 -5 112.09 24.9
-13 2 5 14.4 2.3
-13 2 5 13.8 9.6
-13 2 5 14.7 3
13 -2 -5 11.6 2.5
-13 1 5 189.08 7.6
-13 1 5 215.78 23.9
13 -1 -5 182.38 8
13 -1 -5 178.88 22.9
13 -1 -5 190.88 7.9
-13 0 5 2.5 1
-13 0 5 -3.1 6.3
13 0 -5 -3 6.6
13 0 -5 -0.3 0.7
13 0 -5 0.8 0.7
-13 -1 5 188.78 5.1
-13 -1 5 203.68 23.5
-13 -1 5 192.38 7.8
13 1 -5 180.88 7.6
13 1 -5 158.48 23.2
13 1 -5 197.08 5.2
-13 -2 5 4.6 8.1
-13 -2 5 18.2 2.9
13 2 -5 14.5 10.6
13 2 -5 14.5 2.5
-13 -3 5 114.59 23.4
-13 -3 5 138.39 6.9
13 3 -5 172.48 32.4
13 3 -5 152.38 7.2
-13 3 4 0.4 1
-13 3 4 1.1 9.7
-13 3 4 0.5 1.5
13 -3 -4 -1 1.2
13 -3 -4 -14 8.3
-13 2 4 326.97 11.6
-13 2 4 336.07 11.1
-13 2 4 347.97 31.7
13 -2 -4 338.87 30.4
13 -2 -4 317.67 11.2
-13 1 4 1.5 1.1
-13 1 4 -0.8 4.5
13 -1 -4 0.5 1.1
13 -1 -4 7.4 7.4
-13 0 4 586.64 36.6
-13 0 4 566.84 14.8
-13 0 4 598.54 13.4
13 0 -4 588.14 15
13 0 -4 593.34 13.1
13 0 -4 619.04 38.9
-13 -1 4 -3.9 4.7
-13 -1 4 1.8 1
-13 -1 4 2.1 0.7
13 1 -4 1.2 0.9
13 1 -4 8.2 6.6
-13 -2 4 320.07 10.6
-13 -2 4 327.67 30.3
13 2 -4 332.97 10.8
13 2 -4 335.27 32.7
-13 -3 4 -3.8 8
-13 -3 4 -0.7 1.2
13 3 -4 1.2 1.2
13 3 -4 -19 9.7
-13 3 3 47.7 4.3
-13 3 3 25.6 11.7
13 -3 -3 51.39 16.3
13 -3 -3 37.9 4.4
-13 2 3 5 1.5
-13 2 3 8.7 6.9
-13 2 3 3.9 1.6
13 -2 -3 -3.6 6.4
13 -2 -3 6 2
-13 1 3 317.57 10.5
-13 1 3 287.27 24.9
-13 1 3 285.37 9.7
13 -1 -3 279.87 13.5
13 -1 -3 303.57 26.3
-13 0 3 -2.7 4.5
-13 0 3 0.2 0.8
-13 0 3 -0.3 0.8
13 0 -3 -0.5 0.6
13 0 -3 1.1 0.8
13 0 -3 5.6 6.7
-13 -1 3 306.77 7.2
-13 -1 3 306.97 10.2
-13 -1 3 360.36 27.8
13 1 -3 320.47 27.5
13 1 -3 296.57 10
-13 -2 3 2.9 1.3
-13 -2 3 12.8 8.6
13 2 -3 6 8.4
13 2 -3 3.6 1.3
-13 -3 3 39.3 3.8
-13 -3 3 28.3 15.5
13 3 -3 47.6 3.8
13 3 -3 29 15.8
-13 3 2 13.5 2.8
-13 3 2 9.5 10.6
13 -3 -2 20.3 11.4
13 -3 -2 26 5.8
-13 2 2 132.79 6.9
-13 2 2 141.89 7.5
-13 2 2 134.79 18.6
13 -2 -2 113.99 16.8
13 -2 -2 152.88 7.5
-13 1 2 3.1 1.5
-13 1 2 4.8 6.2
13 -1 -2 4 5.8
13 -1 -2 7.7 1.8
-13 0 2 28.5 2.6
-13 0 2 24 2.8
-13 0 2 24.7 8
-13 -1 2 6.8 1.2
-13 -1 2 8.4 6.7
-13 -1 2 7.9 1.2
-13 -1 2 5.9 1.5
13 1 -2 -1.5 4.9
13 1 -2 5.7 1.7
-13 -2 2 138.29 6.5
-13 -2 2 132.09 18.9
13 2 -2 166.18 20.7
13 2 -2 147.19 6.7
-13 -3 2 4.1 9.1
-13 -3 2 16.6 4.6
13 3 -2 19.6 3
-13 3 1 1.3 1.6
13 -3 -1 23.3 10.8
-13 2 1 -1.4 1.6
-13 2 1 2.3 1.2
-13 2 1 0.1 0.9
-13 2 1 8.3 7.5
13 -2 -1 1 1.3
13 -2 -1 -4.3 5.9
-13 1 1 139.99 6.9
-13 1 1 146.59 6.9
-13 1 1 132.39 14.8
13 -1 -1 149.79 15.1
13 -1 -1 138.49 6.4
-13 0 1 1 4.5
-13 0 1 -1.9 0.8
-13 0 1 -1 0.7
13 0 -1 0.5 4.2
-13 -1 1 139.29 6.5
-13 -1 1 148.39 4.8
-13 -1 1 158.98 16.2
-13 -1 1 148.09 5
13 1 -1 135.59 6.5
13 1 -1 162.08 15.9
-13 -2 1 6.1 10.6
-13 -2 1 -0.8 1.1
13 2 -1 1.3 0.9
-13 -3 1 -6 8
-13 -3 1 2.8 1.5
13 3 -1 3.2 1.3
-13 2 0 72.99 6.7
-13 2 0 101.79 6.5
13 -2 0 74.99 12.9
13 -2 0 82.59 5.7
-13 1 0 5.8 1.8
-13 1 0 6 1.6
13 -1 0 7.2 4.3
-13 0 0 104.09 5.2
-13 0 0 107.29 7
-13 -1 0 3.3 1.5
-13 -1 0 7.9 1.4
-13 -1 0 5.6 1.3
-13 -1 0 11.3 4.8
-13 -2 0 76.19 4.8
-13 -2 0 83.09 12.7
13 2 0 94.49 5.2
-13 2 -1 6.3 1.8
-13 2 -1 2.8 2
13 -2 1 1.2 4.7
-13 1 -1 234.88 9.4
-13 1 -1 247.88 9.6
-13 1 -1 228.98 9.2
-13 0 -1 -1.1 1.2
-13 -1 -1 249.88 9
-13 -1 -1 244.68 7.6
-13 -1 -1 251.37 7.4
-13 -2 -1 3.9 1.4
-13 -2 -1 1.6 0.7
-13 1 -2 -1.8 1.4
-13 1 -2 5.7 2.1
-13 0 -2 105.19 5.6
-13 0 -2 100.09 5.8
-13 0 -2 98.29 5.3
-13 0 -2 103.49 5.8
-13 -1 -2 1.9 1.3
-13 -1 -2 7.5 3.2
-13 -1 -2 4.3 1.3
-13 0 -3 4.4 1.7
-13 0 -3 0.4 1.1
-13 0 -3 -0.8 1.6
-14 1 12 3.6 2.1
-14 1 12 12 16.6
14 -1 -12 13.4 2.8
14 -1 -12 -20.5 12.1
14 -1 -12 9.4 2.4
-14 0 12 15.4 2.6
-14 0 12 10.5 15.8
14 0 -12 22.5 18.6
14 0 -12 14.2 2.6
14 0 -12 13.2 2.8
-14 -1 12 4.9 1.5
-14 -1 12 23.8 14.7
14 1 -12 -3 17.2
14 1 -12 5.7 2
14 1 -12 0.2 1.5
-14 1 11 189.48 31.7
-14 1 11 181.18 9.6
-14 1 11 143.99 11.7
14 -1 -11 185.48 8.7
14 -1 -11 168.28 7.8
-14 0 11 -6.5 9
-14 0 11 -0.8 1
14 0 -11 -1.3 1
14 0 -11 0.8 1.1
14 0 -11 -1.1 11.5
-14 -1 11 166.38 6.5
-14 -1 11 163.68 27.5
14 1 -11 184.98 8.5
14 1 -11 138.19 30
14 1 -11 183.78 7.1
-14 2 10 145.89 9.2
-14 2 10 109.99 23.2
-14 2 10 170.58 8.7
14 -2 -10 162.28 7.6
14 -2 -10 169.38 8.6
14 -2 -10 126.99 28.2
-14 1 10 -4.5 10.7
-14 1 10 -1.6 1.1
-14 1 10 -0.4 1.3
14 -1 -10 -0.6 1.1
14 -1 -10 -6.6 10.9
-14 0 10 227.98 9.2
-14 0 10 318.97 36.6
-14 0 10 226.18 8.4
14 0 -10 234.98 8.6
14 0 -10 225.18 9.3
14 0 -10 171.98 28.9
-14 -1 10 3.3 9.9
-14 -1 10 -1.9 0.7
14 1 -10 -1.1 0.9
14 1 -10 -0.1 16.3
14 1 -10 -1.1 1.4
-14 -2 10 197.78 32.1
14 2 -10 160.88 4.8
14 2 -10 155.18 7.9
14 2 -10 111.49 31.1
-14 2 9 4.5 2.2
-14 2 9 1.5 1.6
-14 2 9 -7.8 10.1
14 -2 -9 1 1.1
14 -2 -9 4.2 1.7
14 -2 -9 10 13.4
-14 1 9 150.78 32.4
-14 1 9 160.88 7.5
-14 1 9 169.78 7.6
14 -1 -9 165.68 7.8
14 -1 -9 162.38 7.5
14 -1 -9 154.58 26.4
-14 0 9 6.3 12.1
-14 0 9 0 1
-14 0 9 -0.8 1.1
14 0 -9 -2 9.5
14 0 -9 1.1 0.9
14 0 -9 -0.5 0.9
-14 -1 9 163.58 7.8
-14 -1 9 169.98 5.8
14 1 -9 159.18 5.8
14 1 -9 185.58 8.3
14 1 -9 141.19 30
-14 -2 9 -1 9.9
14 2 -9 34.3 17.6
-14 2 8 56.29 5
-14 2 8 29.2 13.6
-14 2 8 59.59 4.7
14 -2 -8 67.09 5.2
14 -2 -8 51.59 18.6
-14 1 8 2.3 1.1
-14 1 8 0.2 1.2
-14 1 8 4.5 9.3
14 -1 -8 -0.6 1.1
14 -1 -8 -1.3 1
14 -1 -8 11.5 9.6
-14 0 8 133.29 5.8
-14 0 8 114.09 6.2
14 0 -8 115.99 5.5
14 0 -8 115.99 6.4
-14 -1 8 -6 7.3
-14 -1 8 1.6 0.7
-14 -1 8 0.3 1
14 1 -8 -1.2 0.7
14 1 -8 5.2 10.1
14 1 -8 -0.3 0.7
-14 -2 8 40.2 15.6
14 2 -8 63.99 6.7
14 2 -8 56.89 18.8
-14 2 7 15.5 3.3
-14 2 7 10.9 2.3
-14 2 7 11.6 8.3
14 -2 -7 0.1 13
14 -2 -7 5.4 2
-14 1 7 56.79 15.5
-14 1 7 79.99 5
-14 1 7 73.09 5
14 -1 -7 76.49 5.1
14 -1 -7 73.79 4.8
14 -1 -7 51.29 15.8
-14 0 7 1.2 1.1
-14 0 7 6.5 7.1
14 0 -7 1.3 1
14 0 -7 -1.3 9.4
14 0 -7 -0.1 0.6
-14 -1 7 82.79 5.3
-14 -1 7 78.39 3.4
-14 -1 7 57.69 14.2
14 1 -7 80.79 3.5
14 1 -7 68.69 17.9
14 1 -7 82.99 5.4
-14 -2 7 -3.8 7.8
-14 -2 7 7.7 2.2
14 2 -7 10.4 14.4
14 2 -7 11.3 2.4
-14 2 6 56.89 6.8
-14 2 6 69.49 19
-14 2 6 53.69 4.4
14 -2 -6 53.19 4.6
14 -2 -6 37.8 14.9
-14 1 6 1.6 1
-14 1 6 1 1.3
-14 1 6 4.6 7.1
14 -1 -6 0.8 0.9
14 -1 -6 -5.4 7.4
14 -1 -6 -1.7 1
-14 0 6 65.99 4.6
-14 0 6 68.89 15.6
-14 0 6 67.29 4
14 0 -6 66.99 4.7
14 0 -6 74.59 17.7
14 0 -6 63.89 3.7
-14 -1 6 -0.5 1
-14 -1 6 6.5 7.5
-14 -1 6 2.3 0.7
14 1 -6 1.8 0.8
14 1 -6 -10 11.2
14 1 -6 2.3 1.2
-14 -2 6 56.09 4.6
-14 -2 6 48.7 15.6
14 2 -6 53.99 4.4
14 2 -6 57.19 16.8
-14 2 5 7.1 2.4
-14 2 5 4.1 1.7
-14 2 5 -7.5 9
14 -2 -5 15.9 11.5
14 -2 -5 7.8 2.2
-14 1 5 147.39 6.8
-14 1 5 138.39 20.5
-14 1 5 146.19 7.1
14 -1 -5 144.09 7
14 -1 -5 156.78 22.1
14 -1 -5 146.49 6.8
-14 0 5 1.5 7.1
-14 0 5 0.9 0.9
-14 0 5 0.1 0.7
14 0 -5 -0.2 0.8
14 0 -5 1.2 1
14 0 -5 -1 6.9
-14 -1 5 145.09 4.4
-14 -1 5 131.79 19.9
-14 -1 5 149.79 7.2
14 1 -5 107.19 21
14 1 -5 142.99 7
-14 -2 5 8.4 11.9
-14 -2 5 6.3 1.8
14 2 -5 10.7 10.7
14 2 -5 8.8 2.2
-14 2 4 182.78 12.8
-14 2 4 194.98 24.8
14 -2 -4 186.58 8.4
14 -2 -4 145.39 21.2
-14 1 4 7.9 1.8
-14 1 4 9.4 1.9
-14 1 4 9.6 7.8
14 -1 -4 14.1 2.4
14 -1 -4 5.8 7.3
-14 0 4 160.18 6.2
-14 0 4 146.09 7.1
-14 0 4 118.69 18.1
14 0 -4 155.98 6
14 0 -4 149.69 19.6
14 0 -4 145.39 7.1
-14 -1 4 0.9 6.7
-14 -1 4 12.1 1.5
-14 -1 4 9.2 2.2
14 1 -4 10.6 9.3
14 1 -4 12.5 2.5
-14 -2 4 187.88 25
-14 -2 4 177.68 7.9
14 2 -4 182.78 25
14 2 -4 172.88 7.8
-14 2 3 3.6 8.3
-14 2 3 -1.6 1.4
14 -2 -3 0 1.2
14 -2 -3 -3.7 8.6
-14 1 3 143.19 18.5
-14 1 3 181.48 7.7
-14 1 3 191.28 8.2
14 -1 -3 188.38 7.7
14 -1 -3 174.38 20.9
-14 0 3 -2.9 5.6
-14 0 3 -1.4 0.7
14 0 -3 -0.9 0.6
14 0 -3 -0.9 0.9
14 0 -3 8.7 7.5
-14 -1 3 182.78 20.9
-14 -1 3 178.88 5.2
-14 -1 3 188.18 5.1
-14 -1 3 183.88 8
14 1 -3 173.48 20.7
14 1 -3 183.48 7.9
-14 -2 3 1.5 1.4
-14 -2 3 -1.6 8.3
14 2 -3 -0.3 1
14 2 -3 -8.1 8.6
-14 2 2 145.69 7.8
-14 2 2 118.59 19.1
-14 2 2 129.59 7.3
14 -2 -2 138.49 7.3
14 -2 -2 115.59 18
-14 1 2 -7.4 4.2
-14 1 2 1.1 1.3
-14 1 2 -0.5 1
14 -1 -2 0 1.1
14 -1 -2 -9.5 5.7
-14 0 2 26.7 8.3
-14 0 2 10.7 3.7
-14 0 2 16.6 2.8
14 0 -2 31.5 9.3
-14 -1 2 0.3 6.9
-14 -1 2 -2.3 1.1
-14 -1 2 2.4 0.8
-14 -1 2 1.8 0.7
14 1 -2 -3.3 6
14 1 -2 2.4 1.2
-14 -2 2 150.18 31.2
-14 -2 2 126.89 6.5
14 2 -2 136.69 20.9
14 2 -2 135.39 6.7
-14 2 1 -0.3 1.9
-14 2 1 6.5 1.8
14 -2 -1 6.3 7.3
14 -2 -1 3.6 1.7
-14 1 1 110.29 6.3
-14 1 1 114.09 13.4
14 -1 -1 126.39 13.6
-14 0 1 4.7 5.5
-14 0 1 0.1 1.3
14 0 -1 -7.8 4.5
-14 -1 1 111.29 4.2
-14 -1 1 104.39 6.2
-14 -1 1 112.99 4.4
-14 -1 1 101.39 13
-14 -2 1 1.5 1.4
-14 -2 1 4.7 7.4
14 2 -1 4.8 1.6
-14 1 0 3.3 1.6
-14 1 0 0.6 1.1
-14 0 0 2.7 1.5
-14 0 0 5.2 1.5
-14 0 0 2.7 1.6
-14 -1 0 0.4 0.8
-14 -1 0 -0.2 0.8
-14 -1 0 0.2 1.3
-14 1 -1 173.38 8.3
-14 0 -1 0 1.1
-14 0 -1 2.9 1.1
-14 -1 -1 159.48 7.3
-14 -1 -1 169.48 6
-14 -1 -1 166.68 6.3
-15 0 11 6.6 12.8
-15 0 11 -0.3 1.3
15 0 -11 -1.6 1.2
15 0 -11 -2.6 1.1
15 0 -11 -0.7 13.9
-15 1 10 6.4 2.6
-15 1 10 13.5 12.6
15 -1 -10 3.3 1.9
15 -1 -10 12.6 13.5
15 -1 -10 5.9 2
-15 0 10 129.19 26.4
-15 0 10 146.89 6.7
15 0 -10 141.19 6.7
15 0 -10 146.29 7.6
15 0 -10 92.79 25.7
-15 -1 10 7.1 10.8
-15 -1 10 6 1.3
15 1 -10 35.5 19.6
15 1 -10 7.6 2.1
15 1 -10 6.6 1.5
-15 1 9 123.69 28.3
-15 1 9 111.49 6.2
15 -1 -9 108.89 6.4
15 -1 -9 103.29 6.3
15 -1 -9 108.19 24.6
-15 0 9 -15.7 10
15 0 -9 -1.2 1.1
15 0 -9 0.5 1.2
15 0 -9 -0.2 10.4
-15 -1 9 103.19 4.4
-15 -1 9 101.09 23.5
15 1 -9 97.49 27.6
15 1 -9 113.89 6.6
15 1 -9 114.39 4.7
-15 2 8 58.19 5.2
15 -2 -8 65.49 5.3
-15 1 8 7.2 2.1
-15 1 8 8.7 8.6
15 -1 -8 9.1 2.2
15 -1 -8 20.2 14.4
15 -1 -8 8.2 2.1
-15 0 8 7.9 10.3
-15 0 8 17 2.5
15 0 -8 19.7 2.5
15 0 -8 17.2 13
-15 -1 8 9.7 10.8
-15 -1 8 9.9 1.4
15 1 -8 5.3 14
15 1 -8 8.1 2.2
15 1 -8 14.9 1.8
-15 -2 8 54.89 30.1
15 2 -8 66.39 5.1
-15 2 7 -6.7 8.3
-15 2 7 2.7 1.8
15 -2 -7 -17 11.7
15 -2 -7 -0.1 1.6
-15 1 7 83.59 5.2
-15 1 7 67.89 19
15 -1 -7 82.49 5.2
15 -1 -7 48.1 15.2
15 -1 -7 72.89 6.9
-15 0 7 8 7.5
15 0 -7 7.6 14.1
-15 -1 7 80.29 3.3
-15 -1 7 78.29 21.4
15 1 -7 79.09 3.4
15 1 -7 70.49 7.3
15 1 -7 67.59 19.5
-15 -2 7 -5.1 10
15 2 -7 2.8 1.3
-15 2 6 22 3.5
-15 2 6 27.7 19.1
15 -2 -6 22.6 3.4
15 -2 -6 30.5 16.6
-15 1 6 12.7 2.4
-15 1 6 13.1 7.5
15 -1 -6 6.2 11.2
15 -1 -6 2.7 2.5
15 -1 -6 8.1 2
-15 0 6 -8.6 7.8
-15 0 6 -0.7 1.1
15 0 -6 2.5 9.8
15 0 -6 2.5 1
15 0 -6 0.7 1
-15 -1 6 17.8 10.3
-15 -1 6 9.6 1.4
15 1 -6 -7.9 10.5
15 1 -6 8 2.2
-15 -2 6 28.9 17.1
15 2 -6 35 3.8
15 2 -6 32.4 16.1
-15 2 5 4 1.8
-15 2 5 5.2 11.5
15 -2 -5 1.9 1.5
15 -2 -5 -8.5 9
-15 1 5 256.37 9.5
-15 1 5 219.28 25.9
15 -1 -5 270.97 29
15 -1 -5 278.97 9.7
-15 0 5 -8.2 7
-15 0 5 -2.2 1.4
15 0 -5 8.1 9.5
15 0 -5 -1.8 0.8
15 0 -5 -0.4 1
-15 -1 5 281.37 29.8
-15 -1 5 257.47 6.2
15 1 -5 231.28 28.8
15 1 -5 252.37 9.9
-15 -2 5 14 11.4
15 2 -5 3.3 1.4
15 2 -5 2.2 11.8
-15 2 4 55.49 15.2
-15 2 4 70.19 5.6
15 -2 -4 64.09 16.7
15 -2 -4 80.39 5.7
-15 1 4 3.1 1.6
-15 1 4 6.2 8.3
15 -1 -4 -9.6 8.4
15 -1 -4 3.4 1.4
-15 0 4 112.29 18.2
-15 0 4 106.19 5.5
15 0 -4 108.09 6.4
15 0 -4 113.99 20.8
15 0 -4 116.79 5.1
-15 -1 4 2.4 0.8
-15 -1 4 12.7 9.8
15 1 -4 0 1.1
15 1 -4 -3.1 8.7
-15 -2 4 77.49 17.2
15 2 -4 61.49 6.3
15 2 -4 60.79 19
-15 1 3 232.98 24
-15 1 3 229.08 9.1
15 -1 -3 246.48 9.1
15 -1 -3 199.38 22.7
-15 0 3 -1 1
-15 0 3 -0.2 6.5
15 0 -3 -6.7 6.5
-15 -1 3 204.28 23.3
-15 -1 3 240.88 6
-15 -1 3 231.28 6
15 1 -3 230.38 9.5
15 1 -3 202.28 22.9
-15 1 2 29.6 3.5
-15 1 2 19 9.1
15 -1 -2 31.6 10.3
-15 0 2 220.08 7.9
-15 0 2 200.58 18.9
15 0 -2 197.68 18.8
-15 -1 2 25.8 2
-15 -1 2 25.1 2.1
-15 -1 2 7.3 8.3
15 1 -2 24.8 10.3
-15 0 1 -1.7 1.1
-15 0 1 0.2 4.8
-16 0 8 88.99 33
-16 0 8 106.19 5.3
16 0 -8 70.69 21.5
16 0 -8 119.39 8.1
16 0 -8 102.59 6.5
-16 0 7 -14.3 9.6
-16 0 7 -2.9 1
16 0 -7 -3.3 13.3
16 0 -7 -1.3 0.9
16 0 -7 -1.5 1.1
-16 0 6 28.7 14.2
-16 0 6 38.6 3.2
16 0 -6 42 3.4
16 0 -6 43.1 4.3
16 0 -6 36.3 16.8
-16 0 5 15 12
-16 0 5 3.2 1
16 0 -5 -0.9 1.2
16 0 -5 -6.2 7.8
