#------------------------------------------------------------------------------
#$Date: 2022-05-11 11:01:00 +0300 (Wed, 11 May 2022) $
#$Revision: 275325 $
#$URL: file:///home/coder/svn-repositories/cod/cif/8/10/52/8105212.cif $
#------------------------------------------------------------------------------
#
# This file is available in the Crystallography Open Database (COD),
# http://www.crystallography.net/
#
# All data on this site have been placed in the public domain by the
# contributors.
#
data_8105212
loop_
_publ_author_name
'Tong, Zhang'
'Guangyuan, Zhang'
'Zishuai, Xu'
'Jian, Ruan'
'Lizhen, Chen'
'Jianlong, Wang'
_publ_section_title
;
 The crystal structure of hexaquamagnesium(II)
 (2,4-bis(nitroimino)-6-oxo-1,3,5-triazinane-1,3-diide), C3H15MgN7O12
;
_journal_issue                   2
_journal_name_full
'Zeitschrift f\"ur Kristallographie - New Crystal Structures'
_journal_page_first              309
_journal_page_last               310
_journal_paper_doi               10.1515/ncrs-2022-0005
_journal_volume                  237
_journal_year                    2022
_chemical_formula_moiety         '2(H6 Mg0.5 O3), C3 H N7 O5, H2 O'
_chemical_formula_sum            'C3 H15 Mg N7 O12'
_chemical_formula_weight         365.53
_space_group_crystal_system      triclinic
_space_group_IT_number           2
_space_group_name_Hall           '-P 1'
_space_group_name_H-M_alt        'P -1'
_atom_sites_solution_hydrogens   mixed
_atom_sites_solution_primary     dual
_cell_angle_alpha                87.7170(10)
_cell_angle_beta                 78.2970(10)
_cell_angle_gamma                70.8040(10)
_cell_formula_units_Z            2
_cell_length_a                   6.7755(2)
_cell_length_b                   9.8181(3)
_cell_length_c                   11.0775(4)
_cell_measurement_reflns_used    4228
_cell_measurement_temperature    150
_cell_measurement_theta_max      26.358
_cell_measurement_theta_min      2.849
_cell_volume                     681.18(4)
_computing_cell_refinement       'SAINT V8.40A (?, 2016)'
_computing_data_reduction        'SAINT V8.40A (?, 2016)'
_computing_molecular_graphics    'Olex2 (Dolomanov et al., 2009)'
_computing_publication_material  'Olex2 (Dolomanov et al., 2009)'
_computing_structure_refinement  'ShelXL (Sheldrick, 2015)'
_computing_structure_solution    'ShelXT (Sheldrick, 2015)'
_diffrn_ambient_temperature      150.0
_diffrn_measured_fraction_theta_full 0.991
_diffrn_measured_fraction_theta_max 0.987
_diffrn_measurement_device_type  'Bruker APEX-II CCD'
_diffrn_measurement_method       '\f and \w scans'
_diffrn_radiation_type           MoK\a
_diffrn_radiation_wavelength     0.71073
_diffrn_reflns_av_R_equivalents  0.0477
_diffrn_reflns_av_unetI/netI     0.0507
_diffrn_reflns_Laue_measured_fraction_full 0.991
_diffrn_reflns_Laue_measured_fraction_max 0.987
_diffrn_reflns_limit_h_max       8
_diffrn_reflns_limit_h_min       -8
_diffrn_reflns_limit_k_max       12
_diffrn_reflns_limit_k_min       -12
_diffrn_reflns_limit_l_max       13
_diffrn_reflns_limit_l_min       -13
_diffrn_reflns_number            7889
_diffrn_reflns_point_group_measured_fraction_full 0.991
_diffrn_reflns_point_group_measured_fraction_max 0.987
_diffrn_reflns_theta_full        25.242
_diffrn_reflns_theta_max         26.399
_diffrn_reflns_theta_min         1.878
_diffrn_standards_number         0
_exptl_absorpt_coefficient_mu    0.216
_exptl_absorpt_correction_T_max  0.7454
_exptl_absorpt_correction_T_min  0.5835
_exptl_absorpt_correction_type   multi-scan
_exptl_absorpt_process_details
'SADABS-2016/2 (Bruker,2016/2) was used for absorption correction. wR2(int) was 0.1698 before and 0.0600 after correction. The Ratio of minimum to maximum transmission is 0.7828. The \l/2 correction factor is Not present.'
_exptl_crystal_colour            colourless
_exptl_crystal_colour_primary    colourless
_exptl_crystal_density_diffrn    1.782
_exptl_crystal_description       block
_exptl_crystal_F_000             380
_exptl_crystal_size_max          0.15
_exptl_crystal_size_mid          0.08
_exptl_crystal_size_min          0.05
_refine_diff_density_max         0.270
_refine_diff_density_min         -0.385
_refine_diff_density_rms         0.062
_refine_ls_extinction_coef       .
_refine_ls_extinction_method     none
_refine_ls_goodness_of_fit_ref   1.074
_refine_ls_hydrogen_treatment    mixed
_refine_ls_matrix_type           full
_refine_ls_number_parameters     254
_refine_ls_number_reflns         2764
_refine_ls_number_restraints     5
_refine_ls_restrained_S_all      1.074
_refine_ls_R_factor_all          0.0493
_refine_ls_R_factor_gt           0.0382
_refine_ls_shift/su_max          0.000
_refine_ls_shift/su_mean         0.000
_refine_ls_structure_factor_coef Fsqd
_refine_ls_weighting_details
'w=1/[\s^2^(Fo^2^)+(0.0441P)^2^+0.4498P] where P=(Fo^2^+2Fc^2^)/3'
_refine_ls_weighting_scheme      calc
_refine_ls_wR_factor_gt          0.0985
_refine_ls_wR_factor_ref         0.1083
_reflns_Friedel_coverage         0.000
_reflns_Friedel_fraction_full    .
_reflns_Friedel_fraction_max     .
_reflns_number_gt                2312
_reflns_number_total             2764
_reflns_threshold_expression     'I > 2\s(I)'
_iucr_refine_instructions_details
;
TITL 1_0m_a.res in P-1
    1_0m.res
    created by SHELXL-2018/3 at 21:24:48 on 21-Dec-2021
REM Old TITL 1_0m in P-1
REM SHELXT solution in P-1
REM R1 0.161, Rweak 0.006, Alpha 0.031, Orientation as input
REM Formula found by SHELXT: C17 N2 O4
CELL 0.71073 6.7755 9.8181 11.0775 87.717 78.297 70.804
ZERR 2 0.0002 0.0003 0.0004 0.001 0.001 0.001
LATT 1
SFAC C H Mg N O
UNIT 6 30 2 14 24
EQIV $1 -1+X,+Y,+Z
DFIX 0.87 O12 H12a O12 H12b
DFIX 0.87 O9 H9b O9 H9a
DFIX 2.2 H10b H11a_$1

L.S. 4
PLAN  20
SIZE 0.15 0.08 0.05
TEMP -123.15
FREE Mg2 H6b
FREE Mg2 H6a
FREE Mg2 H8b
FREE Mg2 H8a
FREE Mg2 H7b
FREE Mg2 H7a
FREE Mg1 H12a
FREE Mg1 H12b
FREE Mg1 H9a
FREE Mg1 H9b
FREE Mg1 H10a
FREE Mg1 H10b
BOND $H
list 4
fmap 2
acta
OMIT 3 6 12
REM <olex2.extras>
REM <HklSrc "%.\\1_0m.hkl">
REM </olex2.extras>

WGHT    0.044100    0.449800
FVAR       1.21886
MG2   3    0.500000    0.000000    0.500000    10.50000    0.01907    0.01171 =
         0.01297    0.00009   -0.00219   -0.00561
MG1   3    0.000000    1.000000    0.000000    10.50000    0.02139    0.01466 =
         0.01380    0.00013   -0.00195   -0.00564
O8    5    0.243000   -0.057152    0.591613    11.00000    0.02237    0.01431 =
         0.01993   -0.00295   -0.00076   -0.00789
AFIX   7
H8A   2    0.239700   -0.134522    0.556204    11.00000   -1.50000
AFIX   0

O1    5    0.142977    0.854405    0.324701    11.00000    0.02538    0.01391 =
         0.01693    0.00195   -0.00329   -0.00465
O9    5   -0.244362    1.052902    0.149565    11.00000    0.02184    0.02665 =
         0.01388   -0.00169   -0.00195   -0.00521
O6    5    0.366130    0.195537    0.593577    11.00000    0.03291    0.01322 =
         0.01568    0.00035   -0.00536   -0.00644
AFIX   7
H6A   2    0.343867    0.264577    0.540987    11.00000   -1.50000
AFIX   0

O10   5    0.041671    0.784400    0.038111    11.00000    0.02739    0.01749 =
         0.01853   -0.00319   -0.00109   -0.00783
AFIX   7
H10A  2    0.084438    0.730360   -0.031320    11.00000   -1.50000
H10B  2   -0.083008    0.772620    0.071282    11.00000   -1.50000
AFIX   0
O12   5    0.229412    0.985201    0.103254    11.00000    0.02903    0.01876 =
         0.01686    0.00063   -0.00503   -0.00924

O7    5    0.659658   -0.087850    0.638724    11.00000    0.02652    0.02992 =
         0.02202    0.00585   -0.00932   -0.01495
O4    5    0.043265    0.755372    0.732650    11.00000    0.02756    0.01460 =
         0.01887   -0.00165   -0.00527   -0.00163
O3    5    0.388516    0.242756    0.088013    11.00000    0.03113    0.01985 =
         0.01858   -0.00516   -0.00581   -0.00261
O11   5    0.680715    0.718751    0.161284    11.00000    0.03849    0.01903 =
         0.01796    0.00120   -0.00761   -0.00960
O5    5    0.218292    0.585090    0.838351    11.00000    0.04918    0.01943 =
         0.01371    0.00189   -0.01074   -0.00493
N3    4    0.229069    0.614305    0.291335    11.00000    0.02317    0.01460 =
         0.01250    0.00124   -0.00374   -0.00516
AFIX  43
H3    2    0.229239    0.627339    0.212261    11.00000   -1.20000
AFIX   0
N4    4    0.180091    0.710379    0.490188    11.00000    0.02060    0.01243 =
         0.01373    0.00110   -0.00325   -0.00514
N2    4    0.330567    0.356228    0.264931    11.00000    0.02840    0.01642 =
         0.01199   -0.00120   -0.00537   -0.00629
N7    4    0.162682    0.630854    0.737601    11.00000    0.02264    0.01564 =
         0.01389    0.00055   -0.00292   -0.00745
N5    4    0.269752    0.456273    0.453672    11.00000    0.02134    0.01471 =
         0.01324   -0.00168   -0.00316   -0.00575
N6    4    0.237040    0.531858    0.646013    11.00000    0.02992    0.01322 =
         0.01214   -0.00146   -0.00354   -0.00593
O2    5    0.280496    0.476267    0.087503    11.00000    0.07447    0.01801 =
         0.02120    0.00339   -0.01829   -0.00437
N1    4    0.331349    0.363443    0.144076    11.00000    0.02707    0.01795 =
         0.01688   -0.00206   -0.00579   -0.00408
C1    1    0.182003    0.732234    0.369076    11.00000    0.01378    0.01431 =
         0.01692    0.00003   -0.00295   -0.00355
C2    1    0.221729    0.574619    0.527919    11.00000    0.01576    0.01639 =
         0.01493   -0.00005   -0.00212   -0.00646
C3    1    0.274958    0.478920    0.334985    11.00000    0.01667    0.01746 =
         0.01584   -0.00094   -0.00323   -0.00651

H11A  2    0.610429    0.739868    0.101017    11.00000    0.05346
H11B  2    0.700332    0.630414    0.164829    11.00000    0.05246
H12A  2    0.234219    0.933873    0.167056    11.00000    0.03660
H12B  2    0.240261    1.064389    0.127255    11.00000    0.04627
H9A   2   -0.365769    1.102402    0.134080    11.00000    0.06116
H9B   2   -0.240167    1.067510    0.224176    11.00000    0.05421
H6B   2    0.362510    0.214179    0.666038    11.00000    0.03718
H8B   2    0.128484    0.003327    0.612481    11.00000    0.04062
H7A   2    0.675537   -0.177642    0.668567    11.00000    0.06826
H7B   2    0.759216   -0.078707    0.633285    11.00000    0.07535
HKLF 4




REM  1_0m_a.res in P-1
REM wR2 = 0.1083, GooF = S = 1.074, Restrained GooF = 1.074 for all data
REM R1 = 0.0382 for 2312 Fo > 4sig(Fo) and 0.0493 for all 2764 data
REM 254 parameters refined using 5 restraints

END  
     
WGHT      0.0442      0.4486 

REM Highest difference peak  0.270,  deepest hole -0.385,  1-sigma level  0.062
Q1    1   0.2168  0.5190  0.4955  11.00000  0.05    0.27
Q2    1   0.2529  0.5455  0.3171  11.00000  0.05    0.25
Q3    1   0.2759  0.4945  0.4835  11.00000  0.05    0.24
Q4    1   0.0895  0.5916  0.8470  11.00000  0.05    0.24
Q5    1   0.3640  0.4163  0.2844  11.00000  0.05    0.23
Q6    1   0.4614  0.3002  0.0490  11.00000  0.05    0.23
Q7    1   0.1668  0.6741  0.3365  11.00000  0.05    0.23
Q8    1   0.0888  0.9658 -0.0917  11.00000  0.05    0.22
Q9    1   0.3318  0.2998  0.2927  11.00000  0.05    0.21
Q10   1   0.1638  0.2796  0.6217  11.00000  0.05    0.20
Q11   1  -0.0976  0.8376 -0.0167  11.00000  0.05    0.20
Q12   1   0.0829  0.7827  0.7996  11.00000  0.05    0.20
Q13   1   0.2085  0.6360  0.5034  11.00000  0.05    0.20
Q14   1  -0.0804  0.8926  0.0279  11.00000  0.05    0.20
Q15   1   0.0942  0.9194  0.3791  11.00000  0.05    0.19
Q16   1   0.3383  0.2725  0.5809  11.00000  0.05    0.19
Q17   1   0.1185  0.6565  0.0624  11.00000  0.05    0.19
Q18   1   0.6853  0.7465  0.0795  11.00000  0.05    0.19
Q19   1   0.2416  0.5640  0.5860  11.00000  0.05    0.19
Q20   1   0.2760  0.8632  0.3764  11.00000  0.05    0.19

  REM The information below was added by Olex2.
  REM
  REM R1 = 0.0382 for 2312 Fo > 4sig(Fo) and 0.0493 for all 7890 data
  REM n/a parameters refined using n/a restraints
  REM Highest difference peak 0.27, deepest hole -0.39
  REM Mean Shift 0, Max Shift 0.000.

  REM +++ Tabular Listing of Refinement Information +++
  REM R1_all = 0.0493
  REM R1_gt = 0.0382
  REM wR_ref = 0.1083
  REM GOOF = 1.074
  REM Shift_max = 0.000
  REM Shift_mean = 0
  REM Reflections_all = 7890
  REM Reflections_gt = 2312
  REM Parameters = n/a
  REM Hole = -0.39
  REM Peak = 0.27
  REM Flack = n/a

  
;
_cod_data_source_file            suppl_j_ncrs-2022-0005_suppl.cif
_cod_data_source_block           1_0m
_cod_database_code               8105212
_shelx_space_group_comment
;
The symmetry employed for this shelxl refinement is uniquely defined
by the following loop, which should always be used as a source of
symmetry information in preference to the above space-group names.
They are only intended as comments.
;
_shelx_estimated_absorpt_t_max   0.989
_shelx_estimated_absorpt_t_min   0.968
_olex2_refinement_description
;
1. Fixed Uiso
 At 1.2 times of:
  All N(H) groups
 At 1.5 times of:
  All O(H) groups, All O(H,H) groups
2. Restrained distances
 O12-H12A = O12-H12B
 0.87 with sigma of 0.02
 O9-H9B = O9-H9A
 0.87 with sigma of 0.02
 H10B-H11A_$1
 2.2 with sigma of 0.02
3.a Rotating group:
 O8(H8A), O6(H6A), O10(H10A,H10B)
3.b Aromatic/amide H refined with riding coordinates:
 N3(H3)
;
_olex2_submission_special_instructions 'No special instructions were received'
loop_
_space_group_symop_operation_xyz
'x, y, z'
'-x, -y, -z'
loop_
_atom_site_label
_atom_site_type_symbol
_atom_site_fract_x
_atom_site_fract_y
_atom_site_fract_z
_atom_site_U_iso_or_equiv
_atom_site_adp_type
_atom_site_occupancy
_atom_site_site_symmetry_order
_atom_site_calc_flag
_atom_site_refinement_flags_posn
_atom_site_refinement_flags_adp
_atom_site_refinement_flags_occupancy
_atom_site_disorder_assembly
_atom_site_disorder_group
C1 C 0.1820(3) 0.7322(2) 0.36908(17) 0.0153(4) Uani 1 1 d . . . . .
C2 C 0.2217(3) 0.5746(2) 0.52792(17) 0.0155(4) Uani 1 1 d . . . . .
C3 C 0.2750(3) 0.4789(2) 0.33499(17) 0.0164(4) Uani 1 1 d . . . . .
Mg1 Mg 0.000000 1.000000 0.000000 0.0169(2) Uani 1 2 d S T P . .
Mg2 Mg 0.500000 0.000000 0.500000 0.0146(2) Uani 1 2 d S T P . .
N1 N 0.3313(3) 0.36344(19) 0.14408(15) 0.0212(4) Uani 1 1 d . . . . .
N2 N 0.3306(3) 0.35623(18) 0.26493(14) 0.0190(4) Uani 1 1 d . . . . .
N3 N 0.2291(3) 0.61431(18) 0.29133(14) 0.0170(4) Uani 1 1 d . . . . .
H3 H 0.229239 0.627339 0.212261 0.020 Uiso 1 1 calc R . . . .
N4 N 0.1801(3) 0.71038(17) 0.49019(14) 0.0157(4) Uani 1 1 d . . . . .
N5 N 0.2698(3) 0.45627(18) 0.45367(14) 0.0165(4) Uani 1 1 d . . . . .
N6 N 0.2370(3) 0.53186(18) 0.64601(14) 0.0188(4) Uani 1 1 d . . . . .
N7 N 0.1627(3) 0.63085(18) 0.73760(14) 0.0172(4) Uani 1 1 d . . . . .
O1 O 0.1430(2) 0.85441(15) 0.32470(12) 0.0194(3) Uani 1 1 d . . . . .
O2 O 0.2805(3) 0.47627(17) 0.08750(14) 0.0394(5) Uani 1 1 d . . . . .
O3 O 0.3885(3) 0.24276(16) 0.08801(13) 0.0243(4) Uani 1 1 d . . . . .
O4 O 0.0433(2) 0.75537(15) 0.73265(12) 0.0215(3) Uani 1 1 d . . . . .
O5 O 0.2183(3) 0.58509(16) 0.83835(13) 0.0284(4) Uani 1 1 d . . . . .
O6 O 0.3661(3) 0.19554(15) 0.59358(13) 0.0208(3) Uani 1 1 d . . . . .
H6A H 0.343867 0.264577 0.540987 0.031 Uiso 1 1 d GR . . . .
H6B H 0.363(5) 0.214(3) 0.666(3) 0.037(8) Uiso 1 1 d . . . . .
O7 O 0.6597(3) -0.08785(19) 0.63872(14) 0.0242(4) Uani 1 1 d . . . . .
H7A H 0.676(6) -0.178(4) 0.669(3) 0.068(11) Uiso 1 1 d . . . . .
H7B H 0.759(7) -0.079(5) 0.633(4) 0.075(14) Uiso 1 1 d . . . . .
O8 O 0.2430(3) -0.05715(16) 0.59161(13) 0.0188(3) Uani 1 1 d . . . . .
H8A H 0.239700 -0.134522 0.556204 0.028 Uiso 1 1 d GR . . . .
H8B H 0.128(5) 0.003(3) 0.612(3) 0.041(9) Uiso 1 1 d . . . . .
O9 O -0.2444(2) 1.05290(17) 0.14956(13) 0.0217(3) Uani 1 1 d D . . . .
H9A H -0.366(4) 1.102(3) 0.134(3) 0.061(11) Uiso 1 1 d D . . . .
H9B H -0.240(5) 1.068(3) 0.2242(18) 0.054(9) Uiso 1 1 d D . . . .
O10 O 0.0417(2) 0.78440(15) 0.03811(13) 0.0214(3) Uani 1 1 d . . . . .
H10A H 0.084438 0.730360 -0.031320 0.032 Uiso 1 1 d GR . . . .
H10B H -0.083008 0.772620 0.071282 0.032 Uiso 1 1 d DGR . . . .
O11 O 0.6807(3) 0.71875(18) 0.16128(14) 0.0248(4) Uani 1 1 d . . . . .
H11A H 0.610(4) 0.740(3) 0.101(3) 0.053(9) Uiso 1 1 d D . . . .
H11B H 0.700(5) 0.630(4) 0.165(3) 0.052(10) Uiso 1 1 d . . . . .
O12 O 0.2294(2) 0.98520(17) 0.10325(13) 0.0211(3) Uani 1 1 d D . . . .
H12A H 0.234(5) 0.934(3) 0.167(2) 0.037(8) Uiso 1 1 d D . . . .
H12B H 0.240(5) 1.064(2) 0.127(3) 0.046(9) Uiso 1 1 d D . . . .
loop_
_atom_site_aniso_label
_atom_site_aniso_U_11
_atom_site_aniso_U_22
_atom_site_aniso_U_33
_atom_site_aniso_U_23
_atom_site_aniso_U_13
_atom_site_aniso_U_12
Mg2 0.0191(5) 0.0117(5) 0.0130(4) 0.0001(3) -0.0022(4) -0.0056(4)
Mg1 0.0214(5) 0.0147(5) 0.0138(4) 0.0001(4) -0.0019(4) -0.0056(4)
O8 0.0224(9) 0.0143(7) 0.0199(7) -0.0029(6) -0.0008(6) -0.0079(7)
O1 0.0254(8) 0.0139(7) 0.0169(7) 0.0020(5) -0.0033(6) -0.0047(6)
O9 0.0218(9) 0.0266(8) 0.0139(7) -0.0017(6) -0.0019(6) -0.0052(7)
O6 0.0329(9) 0.0132(7) 0.0157(7) 0.0004(6) -0.0054(6) -0.0064(7)
O10 0.0274(8) 0.0175(7) 0.0185(7) -0.0032(6) -0.0011(6) -0.0078(6)
O12 0.0290(9) 0.0188(8) 0.0169(7) 0.0006(6) -0.0050(6) -0.0092(7)
O7 0.0265(9) 0.0299(9) 0.0220(8) 0.0059(7) -0.0093(7) -0.0150(8)
O4 0.0276(8) 0.0146(7) 0.0189(7) -0.0016(6) -0.0053(6) -0.0016(6)
O3 0.0311(9) 0.0198(8) 0.0186(7) -0.0052(6) -0.0058(6) -0.0026(7)
O11 0.0385(10) 0.0190(9) 0.0180(7) 0.0012(6) -0.0076(7) -0.0096(7)
O5 0.0492(11) 0.0194(8) 0.0137(7) 0.0019(6) -0.0107(7) -0.0049(7)
N3 0.0232(9) 0.0146(8) 0.0125(8) 0.0012(6) -0.0037(7) -0.0052(7)
N4 0.0206(9) 0.0124(8) 0.0137(8) 0.0011(6) -0.0032(6) -0.0051(7)
N2 0.0284(10) 0.0164(9) 0.0120(8) -0.0012(6) -0.0054(7) -0.0063(8)
N7 0.0226(9) 0.0156(9) 0.0139(8) 0.0005(6) -0.0029(7) -0.0075(7)
N5 0.0213(9) 0.0147(8) 0.0132(8) -0.0017(6) -0.0032(6) -0.0057(7)
N6 0.0299(10) 0.0132(8) 0.0121(8) -0.0015(6) -0.0035(7) -0.0059(8)
O2 0.0745(14) 0.0180(8) 0.0212(8) 0.0034(6) -0.0183(8) -0.0044(9)
N1 0.0271(10) 0.0180(9) 0.0169(8) -0.0021(7) -0.0058(7) -0.0041(8)
C1 0.0138(10) 0.0143(10) 0.0169(9) 0.0000(7) -0.0029(7) -0.0035(8)
C2 0.0158(10) 0.0164(10) 0.0149(9) -0.0001(7) -0.0021(7) -0.0065(8)
C3 0.0167(10) 0.0175(10) 0.0158(9) -0.0009(8) -0.0032(8) -0.0065(8)
loop_
_atom_type_symbol
_atom_type_description
_atom_type_scat_dispersion_real
_atom_type_scat_dispersion_imag
_atom_type_scat_source
C C 0.0033 0.0016 'International Tables Vol C Tables 4.2.6.8 and 6.1.1.4'
H H 0.0000 0.0000 'International Tables Vol C Tables 4.2.6.8 and 6.1.1.4'
Mg Mg 0.0486 0.0363 'International Tables Vol C Tables 4.2.6.8 and 6.1.1.4'
N N 0.0061 0.0033 'International Tables Vol C Tables 4.2.6.8 and 6.1.1.4'
O O 0.0106 0.0060 'International Tables Vol C Tables 4.2.6.8 and 6.1.1.4'
loop_
_geom_angle_atom_site_label_1
_geom_angle_atom_site_label_2
_geom_angle_atom_site_label_3
_geom_angle
_geom_angle_site_symmetry_1
_geom_angle_site_symmetry_3
O8 Mg2 O8 180.0 . 2_656
O6 Mg2 O8 88.32(6) . .
O6 Mg2 O8 91.68(6) 2_656 .
O6 Mg2 O8 91.68(6) . 2_656
O6 Mg2 O8 88.32(6) 2_656 2_656
O6 Mg2 O6 180.0 . 2_656
O6 Mg2 O7 91.05(7) 2_656 2_656
O6 Mg2 O7 88.95(7) . 2_656
O6 Mg2 O7 88.95(7) 2_656 .
O6 Mg2 O7 91.05(7) . .
O7 Mg2 O8 89.12(7) 2_656 2_656
O7 Mg2 O8 89.13(7) . .
O7 Mg2 O8 90.88(7) . 2_656
O7 Mg2 O8 90.87(7) 2_656 .
O7 Mg2 O7 180.0 2_656 .
O9 Mg1 O9 180.0 2_575 .
O9 Mg1 O10 92.10(6) . 2_575
O9 Mg1 O10 92.10(6) 2_575 .
O9 Mg1 O10 87.90(6) 2_575 2_575
O9 Mg1 O10 87.90(6) . .
O9 Mg1 O12 93.49(6) 2_575 2_575
O9 Mg1 O12 93.49(6) . .
O9 Mg1 O12 86.51(6) 2_575 .
O9 Mg1 O12 86.51(6) . 2_575
O10 Mg1 O10 180.00(9) 2_575 .
O12 Mg1 O10 93.11(6) . 2_575
O12 Mg1 O10 86.89(6) 2_575 2_575
O12 Mg1 O10 93.11(6) 2_575 .
O12 Mg1 O10 86.89(6) . .
O12 Mg1 O12 180.00(6) 2_575 .
Mg2 O8 H8A 110.0 . .
Mg2 O8 H8B 120(2) . .
H8A O8 H8B 114.4 . .
Mg1 O9 H9A 115(2) . .
Mg1 O9 H9B 129(2) . .
H9A O9 H9B 110(3) . .
Mg2 O6 H6A 109.5 . .
Mg2 O6 H6B 128(2) . .
H6A O6 H6B 120.0 . .
Mg1 O10 H10A 111.0 . .
Mg1 O10 H10B 110.6 . .
H10A O10 H10B 103.1 . .
Mg1 O12 H12A 119.8(19) . .
Mg1 O12 H12B 118(2) . .
H12A O12 H12B 104(3) . .
Mg2 O7 H7A 125(2) . .
Mg2 O7 H7B 115(3) . .
H7A O7 H7B 106(4) . .
H11A O11 H11B 100(3) . .
C1 N3 H3 119.5 . .
C3 N3 H3 119.5 . .
C3 N3 C1 121.01(16) . .
C2 N4 C1 117.41(16) . .
N1 N2 C3 120.41(17) . .
O4 N7 O5 119.83(16) . .
O4 N7 N6 126.06(16) . .
O5 N7 N6 114.05(17) . .
C3 N5 C2 116.65(17) . .
N7 N6 C2 119.16(17) . .
O3 N1 N2 114.91(16) . .
O2 N1 O3 120.24(16) . .
O2 N1 N2 124.84(17) . .
O1 C1 N3 118.78(17) . .
O1 C1 N4 122.54(17) . .
N4 C1 N3 118.68(17) . .
N4 C2 N5 125.31(17) . .
N4 C2 N6 125.26(17) . .
N5 C2 N6 109.30(17) . .
N3 C3 N2 125.13(17) . .
N5 C3 N3 120.91(17) . .
N5 C3 N2 113.96(17) . .
loop_
_geom_bond_atom_site_label_1
_geom_bond_atom_site_label_2
_geom_bond_distance
_geom_bond_site_symmetry_2
Mg2 O8 2.0633(14) .
Mg2 O8 2.0633(15) 2_656
Mg2 O6 2.0530(14) .
Mg2 O6 2.0530(14) 2_656
Mg2 O7 2.0569(16) 2_656
Mg2 O7 2.0569(16) .
Mg1 O9 2.0362(14) .
Mg1 O9 2.0362(14) 2_575
Mg1 O10 2.0791(14) .
Mg1 O10 2.0791(14) 2_575
Mg1 O12 2.0748(15) 2_575
Mg1 O12 2.0748(15) .
O8 H8A 0.8774 .
O8 H8B 0.80(3) .
O1 C1 1.244(2) .
O9 H9A 0.854(18) .
O9 H9B 0.852(18) .
O6 H6A 0.8710 .
O6 H6B 0.82(3) .
O10 H10A 0.8933 .
O10 H10B 0.8927 .
O12 H12A 0.851(17) .
O12 H12B 0.862(18) .
O7 H7A 0.91(4) .
O7 H7B 0.70(4) .
O4 N7 1.231(2) .
O3 N1 1.265(2) .
O11 H11A 0.88(3) .
O11 H11B 0.83(4) .
O5 N7 1.268(2) .
N3 H3 0.8800 .
N3 C1 1.382(2) .
N3 C3 1.355(3) .
N4 C1 1.348(2) .
N4 C2 1.337(3) .
N2 N1 1.337(2) .
N2 C3 1.361(2) .
N7 N6 1.333(2) .
N5 C2 1.361(2) .
N5 C3 1.320(3) .
N6 C2 1.372(3) .
O2 N1 1.233(2) .
loop_
_refln_index_h
_refln_index_k
_refln_index_l
_refln_F_squared_meas
_refln_F_squared_sigma
-1 0 0 176.48 10.1
1 0 0 183.98 12.7
1 0 0 204.98 10.1
-3 0 0 533.15 29
3 0 0 565.84 36.9
3 0 0 507.65 28.4
-4 0 0 1384.96 76.59
4 0 0 1605.14 89.39
5 0 0 206.28 23.3
6 0 0 78.79 17
7 0 0 122.69 23.2
7 -1 0 82.09 18.7
6 -1 0 -8.8 7.9
5 -1 0 309.27 30.4
5 -1 0 350.26 29.3
4 -1 0 1027.9 64.69
-4 1 0 954.5 51.59
3 -1 0 216.38 19.9
-3 1 0 218.48 12.6
2 -1 0 3511.35 192.78
-2 1 0 3737.03 186.68
-2 1 0 3756.32 193.58
1 -1 0 108.69 9.2
1 -1 0 119.69 8.9
-1 1 0 104.89 9.2
0 -1 0 180.88 10
0 1 0 168.48 10
0 1 0 175.98 9.8
-3 -1 0 310.77 21
3 1 0 367.76 26.4
3 1 0 379.26 20
4 1 0 1106.09 67.79
4 1 0 1075.59 56.59
5 1 0 825.62 55.59
5 1 0 764.92 41.5
6 1 0 290.27 30.2
7 1 0 0.1 5.7
8 1 0 320.37 36.6
7 -2 0 5.9 8.8
6 -2 0 -11.1 5.6
5 -2 0 137.29 18.6
-5 2 0 117.19 8
4 -2 0 993.6 68.19
4 -2 0 1038.8 65.49
-4 2 0 1112.39 55.89
3 -2 0 338.97 25.3
3 -2 0 336.97 27.4
-3 2 0 326.47 19.8
2 -2 0 2361.76 122.69
2 -2 0 2528.15 125.19
-2 2 0 2369.56 124.79
-2 2 0 1935.01 118.39
1 -2 0 226.58 16.3
1 -2 0 234.78 15.8
-1 2 0 220.48 16.2
0 -2 0 794.62 42.8
0 -2 0 827.32 42.3
0 2 0 800.62 42.5
0 2 0 789.42 42.9
-1 -2 0 242.48 13.1
1 2 0 240.78 13.1
3 2 0 560.44 35.7
3 2 0 530.45 32.6
4 2 0 9999 515.95
5 2 0 15.8 6.7
5 2 0 12.4 2.6
6 2 0 940.71 66.29
6 2 0 969.9 50.79
7 2 0 -11.2 4.9
8 2 0 579.64 60.69
6 -3 0 80.49 18.5
5 -3 0 -13.5 5.2
-5 3 0 1.3 1.4
4 -3 0 1545.55 91.09
4 -3 0 1297.67 85.89
-4 3 0 1509.05 77.29
3 -3 0 161.68 17.5
3 -3 0 161.68 16
-3 3 0 151.68 12.2
2 -3 0 1.9 2.4
2 -3 0 2.9 2.4
-2 3 0 2.4 2.5
1 -3 0 2130.49 109.59
1 -3 0 2063.39 109.89
-1 3 0 1965.1 109.89
-1 3 0 2060.19 109.69
0 -3 0 763.52 42
0 -3 0 773.42 41.1
0 3 0 779.22 41.8
0 3 0 753.92 42.4
-1 -3 0 2317.77 114.49
1 3 0 2192.58 114.89
1 3 0 2224.18 113.39
-2 -3 0 151.98 9.7
2 3 0 131.99 13.5
2 3 0 154.58 9
2 3 0 150.98 11.3
3 3 0 2654.93 132.89
3 3 0 2408.56 127.39
3 3 0 2358.16 132.89
4 3 0 252.37 19.3
4 3 0 244.78 17.7
4 3 0 244.48 21.2
5 3 0 260.97 18.6
5 3 0 245.08 23.7
6 3 0 584.44 46.4
6 3 0 618.44 34.6
7 3 0 887.21 64.39
7 3 0 852.61 46.1
8 3 0 70.89 12.1
8 3 0 47.9 17.8
6 -4 0 7 8.3
5 -4 0 -1.2 6.6
-5 4 0 -1.3 1.7
-5 4 0 -1 2.7
4 -4 0 1125.39 70.39
-4 4 0 974.4 60.49
3 -4 0 668.43 45.1
3 -4 0 691.13 47.4
2 -4 0 553.54 36.6
2 -4 0 553.44 37.7
1 -4 0 39.8 6.8
1 -4 0 34 6.4
-1 4 0 47.5 6.7
-1 4 0 37.7 6.9
0 -4 0 3260.17 163.38
0 -4 0 3195.38 164.78
0 4 0 3271.87 165.78
0 4 0 3015.2 164.18
-1 -4 0 568.14 30.2
1 4 0 579.14 31.2
1 4 0 521.65 28.9
-2 -4 0 364.86 19.8
2 4 0 368.46 19.9
2 4 0 323.27 20.8
3 4 0 0.4 1.8
3 4 0 0.6 0.6
3 4 0 0.7 2.3
4 4 0 704.33 39.3
4 4 0 712.63 45.3
4 4 0 705.93 46.3
5 4 0 210.08 21.4
5 4 0 234.58 20.1
5 4 0 248.18 17
6 4 0 76.09 14.6
6 4 0 65.19 8.7
6 4 0 66.99 8.4
7 4 0 132.59 10.7
7 4 0 122.89 21.2
8 4 0 135.99 9
8 4 0 139.89 24.7
8 4 0 160.38 17
6 -5 0 203.28 49.2
5 -5 0 6.4 7.5
-5 5 0 10 3.4
4 -5 0 91.59 17.2
-4 5 0 87.39 9.8
3 -5 0 98.29 13.7
3 -5 0 118.19 13.7
-3 5 0 69.89 9.9
2 -5 0 203.08 19.1
2 -5 0 227.18 19.2
1 -5 0 14.5 4.2
1 -5 0 8.7 3.8
-1 5 0 5.7 3.1
-1 5 0 13.7 4.4
0 -5 0 815.02 43.5
0 5 0 819.52 45.3
0 5 0 753.82 46.4
-1 -5 0 719.23 39
1 5 0 693.63 37.4
1 5 0 730.33 40.6
-2 -5 0 2360.16 116.09
2 5 0 2205.38 117.09
2 5 0 2307.37 116.19
2 5 0 2179.08 114.69
-3 -5 0 664.83 36.4
3 5 0 633.44 35.2
3 5 0 648.94 46.1
3 5 0 651.83 38.3
4 5 0 361.36 21
4 5 0 347.87 29.6
4 5 0 358.26 26.1
5 5 0 1601.84 93.19
5 5 0 1616.24 92.09
5 5 0 1502.85 83.19
6 5 0 463.45 37.7
6 5 0 481.75 29.8
6 5 0 477.15 34.7
7 5 0 45.3 11.8
7 5 0 55.89 8.5
7 5 0 44.5 7.6
8 5 0 -4.2 2.6
8 5 0 1.5 3.6
8 5 0 -15.3 8.7
5 -6 0 937.91 63.49
-5 6 0 693.93 51.99
-5 6 0 857.61 48.2
4 -6 0 7.2 7.3
-4 6 0 14.4 5.8
-3 6 0 204.48 18.7
2 -6 0 61.09 11.2
1 -6 0 478.35 30.4
1 -6 0 442.66 31
0 -6 0 49.6 6.4
0 -6 0 51.99 5.1
0 6 0 39 7.5
-1 -6 0 193.38 10.6
-1 -6 0 188.48 15.2
1 6 0 188.08 14.8
-2 -6 0 515.25 28.5
2 6 0 518.95 30.5
-3 -6 0 1235.28 64.39
3 6 0 1200.08 63.29
3 6 0 1220.48 65.29
3 6 0 1240.18 64.59
3 6 0 1135.79 77.39
4 6 0 339.87 23.6
4 6 0 298.97 29.3
4 6 0 327.97 19.6
5 6 0 250.77 16.7
5 6 0 287.17 23.1
5 6 0 252.77 25.7
6 6 0 97.89 13.9
6 6 0 93.29 8.7
6 6 0 81.29 14.5
7 6 0 2.2 2.6
7 6 0 14.8 9.5
7 6 0 9.8 6.3
8 6 0 150.18 14.1
8 6 0 133.19 23.8
8 6 0 148.99 14.5
4 -7 0 109.49 18.9
-4 7 0 103.39 16.7
3 -7 0 602.14 44
2 -7 0 193.58 19.3
2 -7 0 211.98 18.8
1 -7 0 171.58 16
0 -7 0 -1.3 1.1
0 -7 0 5.4 2.6
0 7 0 0.2 2.1
-1 -7 0 18.6 3.8
-1 -7 0 19.8 1.8
1 7 0 18.1 4.5
-2 -7 0 2.8 1.4
2 7 0 4.6 2.4
-3 -7 0 1520.45 74.19
3 7 0 1330.17 72.99
3 7 0 1307.07 69.09
3 7 0 1283.17 87.89
3 7 0 1339.57 70.09
4 7 0 54.19 5.7
4 7 0 44.4 6.4
4 7 0 40 11.4
5 7 0 7.4 2.3
5 7 0 10.5 6.4
5 7 0 11.7 5.6
6 7 0 158.98 17.5
6 7 0 139.99 19
6 7 0 129.09 10.8
7 7 0 10.3 6.4
7 7 0 9.8 7.4
7 7 0 5.7 3.1
4 -8 0 32.7 10.8
-4 8 0 27.4 11.4
3 -8 0 200.08 20.8
-3 8 0 136.59 20.7
2 -8 0 256.37 21.9
1 -8 0 806.42 51.39
1 -8 0 832.22 48.3
0 -8 0 498.15 33
0 -8 0 533.35 29.3
0 8 0 497.15 35.7
-1 -8 0 1975.4 105.69
1 8 0 2007.4 109.69
-2 -8 0 238.18 16
2 8 0 256.87 29
2 8 0 271.37 19.4
-3 -8 0 511.95 29.3
3 8 0 516.05 45.8
-4 -8 0 74.99 7.7
4 8 0 81.89 8
4 8 0 67.99 5.2
4 8 0 74.29 6.7
4 8 0 71.09 17
5 8 0 56.89 7.8
5 8 0 43.9 12.9
5 8 0 44.7 5.6
6 8 0 312.97 26.1
6 8 0 334.77 21.4
6 8 0 318.67 33.3
7 8 0 -3.5 2.2
7 8 0 -10.6 5.2
3 -9 0 6.1 6.5
-3 9 0 -0.9 8.6
2 -9 0 158.78 15.7
-2 9 0 145.39 22.6
1 -9 0 14.8 4.4
0 -9 0 -0.6 1.3
0 -9 0 0.3 3.6
-1 -9 0 8 3.3
1 9 0 0.2 2.9
-2 -9 0 1737.93 92.99
2 9 0 1850.01 98.39
2 9 0 1690.33 114.89
-3 -9 0 509.75 29.7
3 9 0 542.55 49.5
3 9 0 501.65 33
-4 -9 0 1.2 2.5
4 9 0 -0.5 3
4 9 0 6.5 5.5
5 9 0 54.19 15.8
5 9 0 59.39 6.7
5 9 0 76.99 5.7
5 9 0 58.09 7.6
6 9 0 72.19 17.5
6 9 0 72.69 8.1
6 9 0 85.89 10.5
7 9 0 -3.7 4.5
7 9 0 8.2 7.2
7 9 0 2.5 3
-2 10 0 291.87 34.7
1 -10 0 161.28 13
-1 10 0 137.89 22.5
0 -10 0 2.1 1.6
0 10 0 3.6 6.6
-1 -10 0 72.89 8.8
1 10 0 63.89 12.1
1 10 0 57.09 16.5
-2 -10 0 5.1 2.8
2 10 0 4.7 7.5
2 10 0 0.1 3.7
-3 -10 0 12.7 3.2
3 10 0 7.5 4.5
-4 -10 0 827.42 45.2
4 10 0 767.22 47.4
4 10 0 741.13 64.59
5 10 0 47.7 16.7
5 10 0 49.99 7.7
6 10 0 95.99 7
6 10 0 69.69 7.8
6 10 0 81.59 9.3
6 10 0 89.89 21.4
1 -11 0 11.3 3.8
-1 11 0 8.9 11.5
1 11 0 198.48 29.7
-2 -11 0 3.5 3.3
2 11 0 -7.7 4.1
2 11 0 0 5.3
-3 -11 0 127.39 10.5
3 11 0 123.39 13.9
3 11 0 119.69 25.7
-4 -11 0 65.19 7.7
4 11 0 47.5 8.6
4 11 0 61.39 17.9
5 11 0 66.99 20.2
5 11 0 37.4 8.1
2 12 0 391.06 46.4
2 12 0 450.25 33.9
-3 -12 0 -1.5 3.9
3 12 0 0.5 5.7
3 12 0 0.3 5.2
-4 -12 0 30 6.8
4 12 0 21.6 8.3
4 12 0 13.6 14.6
3 12 -1 26.1 7.5
3 12 -1 11.2 11.1
2 12 -1 64.39 19.4
2 12 -1 66.49 12.4
5 11 -1 46.6 8.8
5 11 -1 38 14.4
4 11 -1 1.7 4.5
4 11 -1 -1.9 7.6
-4 -11 1 2.3 4.2
3 11 -1 21.4 12.3
3 11 -1 23.4 6.8
-3 -11 1 23.2 5
2 11 -1 37.1 9
2 11 -1 15.4 10
-2 -11 1 11.3 5
1 11 -1 334.27 29.4
6 10 -1 10 10
6 10 -1 1.1 2
6 10 -1 2.6 2
6 10 -1 -0.9 4.1
5 10 -1 782.32 64.39
5 10 -1 749.92 46.3
4 10 -1 99.79 11.4
4 10 -1 85.89 21
-4 -10 1 102.99 10.2
3 10 -1 63.59 11.2
3 10 -1 82.39 19.5
-3 -10 1 76.19 7.7
2 10 -1 196.18 18.7
1 10 -1 625.04 42.8
-1 -10 1 597.64 37.5
0 10 -1 26.7 9
0 -10 1 18.9 2.3
1 -10 1 72.69 8.1
2 -10 1 60.19 10.1
7 9 -1 6.1 5.5
7 9 -1 9.7 9.5
7 9 -1 5.9 6.9
6 9 -1 14.7 9.8
6 9 -1 13.8 3.9
6 9 -1 12.7 5.6
5 9 -1 565.34 33.1
5 9 -1 518.95 27.9
5 9 -1 480.45 28.2
5 9 -1 496.45 46.9
4 9 -1 -1.3 2.7
-4 -9 1 3.9 2.9
3 9 -1 17.6 8.5
3 9 -1 27.6 5.8
-3 -9 1 31.8 5
2 9 -1 14.5 4.4
-2 -9 1 24.7 4.4
1 9 -1 146.09 15.3
-1 -9 1 131.39 11.9
0 9 -1 372.36 30.1
0 -9 1 368.76 21.2
0 -9 1 393.96 26.9
1 -9 1 243.18 18.1
2 -9 1 -5 4.1
7 8 -1 210.08 27.4
7 8 -1 214.58 24.4
7 8 -1 251.17 22.8
6 8 -1 93.39 9.3
6 8 -1 101.89 11.9
6 8 -1 88.79 18
5 8 -1 706.93 43.6
5 8 -1 756.62 58.09
5 8 -1 789.92 43.7
4 8 -1 25.7 2.4
4 8 -1 25.1 5.3
4 8 -1 28.1 2.7
4 8 -1 34.9 11.6
-4 -8 1 21.1 4.9
3 8 -1 64.59 8.1
-3 -8 1 71.69 6.8
2 8 -1 32.1 6.6
-2 -8 1 42.7 5.1
1 8 -1 376.36 26.8
-1 -8 1 350.06 23.2
0 8 -1 101.49 12.9
0 -8 1 94.89 11
0 -8 1 122.39 8.3
-1 8 -1 64.89 12
1 -8 1 55.19 9.9
1 -8 1 56.89 10.1
2 -8 1 225.38 20.4
3 -8 1 434.26 35.6
4 -8 1 28.9 11.3
7 7 -1 -0.7 4
7 7 -1 4.3 6.1
7 7 -1 -2.1 4.4
6 7 -1 116.59 14.3
6 7 -1 102.19 9.6
6 7 -1 98.69 15.6
5 7 -1 20 4.1
5 7 -1 16 8.4
4 7 -1 9.3 3
4 7 -1 9.9 6.5
4 7 -1 13.7 3.1
-4 -7 1 7.6 2.9
3 7 -1 483.75 30.6
-3 -7 1 533.55 29.7
2 7 -1 69.49 8.2
-2 -7 1 81.89 6.9
1 7 -1 5 2.9
-1 -7 1 9.7 3.2
0 7 -1 75.79 9.9
0 -7 1 59.39 5.6
0 -7 1 68.99 7.8
-1 7 -1 12.3 4.8
1 -7 1 27.1 6.1
1 -7 1 11.3 4.7
2 -7 1 980.6 61.79
2 -7 1 1038.8 62.69
-3 7 -1 39.5 9.4
3 -7 1 32.7 9.2
-4 7 -1 479.75 36.6
4 -7 1 572.64 43.8
8 6 -1 30.2 12.1
8 6 -1 32.8 7.4
8 6 -1 31 6.8
7 6 -1 148.29 27.4
7 6 -1 152.18 13.5
7 6 -1 169.88 17.7
6 6 -1 474.95 36.8
6 6 -1 505.65 30.2
6 6 -1 479.25 38
5 6 -1 264.07 21.8
5 6 -1 244.88 25.1
5 6 -1 259.57 17.2
4 6 -1 0.8 1
4 6 -1 -0.4 3.2
4 6 -1 -1.6 2.2
3 6 -1 -0.5 0.8
3 6 -1 -1 0.9
-3 -6 1 2.5 1.6
2 6 -1 17.2 3.6
-2 -6 1 13.2 2.6
1 6 -1 3677.43 191.58
-1 -6 1 3666.73 188.98
0 6 -1 188.08 16.5
0 -6 1 207.88 13.5
0 -6 1 214.78 15.6
-1 6 -1 136.09 14.6
1 -6 1 176.08 14.7
1 -6 1 169.58 14.7
2 -6 1 759.62 48.3
2 -6 1 708.43 47.1
-3 6 -1 103.89 12.9
3 -6 1 108.09 15.3
-4 6 -1 14 5.2
4 -6 1 19.3 8.4
-5 6 -1 -2.8 4.3
5 -6 1 7.5 6.9
8 5 -1 32.9 4.2
8 5 -1 36.9 12.5
8 5 -1 28.5 5.4
8 5 -1 23.9 6.5
7 5 -1 7.4 7.2
7 5 -1 19.3 5.2
6 5 -1 567.94 39.1
6 5 -1 523.55 33.6
6 5 -1 578.74 42
5 5 -1 1136.89 62.29
5 5 -1 1167.48 69.69
5 5 -1 1124.09 70.79
4 5 -1 1662.23 91.69
4 5 -1 1602.74 97.39
4 5 -1 1673.43 86.69
3 5 -1 22.4 4.4
3 5 -1 26.2 3.3
-3 -5 1 22.4 4.2
2 5 -1 246.68 15.8
2 5 -1 230.48 12.9
-2 -5 1 268.27 15.1
1 5 -1 1489.25 78.69
-1 -5 1 1435.16 76.79
0 5 -1 2758.32 149.49
0 -5 1 2835.42 147.99
0 -5 1 2908.61 146.29
-1 5 -1 2642.14 142.99
1 -5 1 2573.54 141.49
1 -5 1 2760.22 141.89
-2 5 -1 201.28 18.7
2 -5 1 227.68 19.6
2 -5 1 276.27 21.7
-3 5 -1 51.79 8.6
3 -5 1 75.09 13.8
3 -5 1 58.89 11.1
-4 5 -1 80.79 9.7
4 -5 1 84.09 16.3
-5 5 -1 71.59 8.2
5 -5 1 72.99 16.8
6 -5 1 61.89 15.6
8 4 -1 40.9 12.5
8 4 -1 27.8 7.9
7 4 -1 32.9 10.8
7 4 -1 37.7 4.4
7 4 -1 31.2 6.7
6 4 -1 4.3 4.7
6 4 -1 15.7 4.5
6 4 -1 19 5
5 4 -1 306.17 26
5 4 -1 322.47 24.2
5 4 -1 273.77 19.9
4 4 -1 1656.83 93.49
4 4 -1 1629.64 85.69
4 4 -1 1562.44 97.89
3 4 -1 510.65 29
3 4 -1 531.55 32.4
2 4 -1 433.96 26.8
2 4 -1 505.25 27.1
-2 -4 1 517.05 27.1
1 4 -1 313.57 18.6
-1 -4 1 288.27 17.5
0 4 -1 923.81 52.89
0 -4 1 948.51 52.09
0 -4 1 969.4 50.99
-1 4 -1 1243.48 73.99
1 -4 1 1458.95 74.59
1 -4 1 1279.97 73.29
-2 4 -1 5.1 2.9
2 -4 1 9.3 5.4
2 -4 1 6.4 3.4
-3 4 -1 1068.99 67.59
3 -4 1 1317.47 75.79
3 -4 1 1281.77 72.79
-4 4 -1 93.19 9.5
4 -4 1 85.69 17.2
-5 4 -1 40.3 5.6
5 -4 1 47 11.5
-6 4 -1 -0.6 2.6
6 -4 1 -9.1 7.1
8 3 -1 10.6 9.4
8 3 -1 0.6 4.6
7 3 -1 48.9 9.6
7 3 -1 73.09 16.5
6 3 -1 137.69 18.3
6 3 -1 130.89 13.6
6 3 -1 137.79 9.5
5 3 -1 20.4 7
5 3 -1 26.1 5.5
5 3 -1 18.9 4.4
4 3 -1 -0.8 2.3
4 3 -1 1.2 1.9
3 3 -1 1014.2 53.49
3 3 -1 1041 57.89
3 3 -1 931.01 58.29
1 3 -1 3.4 1.2
-1 -3 1 4.8 1.2
0 -3 1 7346.87 372.26
-1 3 -1 700.73 42
1 -3 1 762.72 42.6
1 -3 1 690.03 41.4
-2 3 -1 1247.38 79.19
2 -3 1 1610.54 84.49
2 -3 1 1578.74 82.39
-3 3 -1 650.23 40.2
3 -3 1 740.93 45.4
3 -3 1 709.43 47.7
-4 3 -1 63.89 6.7
4 -3 1 61.29 14.3
4 -3 1 74.69 12.6
-5 3 -1 127.69 10
5 -3 1 120.19 17.7
-6 3 -1 29.6 4.7
6 -3 1 18.4 10.2
7 -3 1 5.8 7.7
8 2 -1 19.8 11.2
7 2 -1 130.89 24
6 2 -1 13.8 8.7
5 2 -1 277.27 15.5
5 2 -1 262.87 25
4 2 -1 1749.12 97.89
4 2 -1 1651.23 89.39
3 2 -1 73.79 7
3 2 -1 80.49 9.3
3 2 -1 70.39 7.5
-3 -2 1 63.09 8.9
2 2 -1 2315.07 122.29
2 2 -1 2237.68 119.49
-2 -2 1 2427.36 123.29
1 2 -1 2492.85 132.29
-1 -2 1 2704.53 132.99
0 2 -1 2083.89 106.89
0 -2 1 2059.39 106.49
-1 2 -1 172.08 13.2
-1 2 -1 194.48 13.8
1 -2 1 201.58 14.5
1 -2 1 194.18 13.6
-2 2 -1 453.55 29.2
2 -2 1 506.95 32.2
2 -2 1 574.74 34.7
-3 2 -1 32.1 4
3 -2 1 16.2 5.5
3 -2 1 36.5 7.5
-4 2 -1 311.87 18.4
4 -2 1 262.97 26.6
4 -2 1 293.17 24.9
-5 2 -1 415.16 24.9
5 -2 1 418.06 37
-6 2 -1 35.8 4.7
6 -2 1 39.8 13.6
7 -2 1 80.19 17.4
7 1 -1 62.19 15
6 1 -1 67.09 15.7
5 1 -1 263.37 26
4 1 -1 944.81 60.19
3 1 -1 1871.11 100.09
3 1 -1 2025.2 108.69
-3 -1 1 1990.5 109.39
2 1 -1 7 2.7
-2 -1 1 0.2 1.6
1 1 -1 1.5 1
1 1 -1 0.1 0.5
-1 -1 1 4.7 1.2
-1 -1 1 0.3 0.9
0 1 -1 1190.58 62.49
-2 1 -1 917.01 47.2
2 -1 1 843.42 52.09
2 -1 1 877.91 50.19
-3 1 -1 5.7 1.7
3 -1 1 5.5 2
3 -1 1 4.8 3.3
3 -1 1 0.3 1.4
-4 1 -1 503.65 28.8
4 -1 1 503.45 35.3
4 -1 1 505.45 38.5
-5 1 -1 385.56 24.3
5 -1 1 401.46 35.5
5 -1 1 442.66 33.3
-6 1 -1 191.28 12.8
6 -1 1 215.68 25.6
7 -1 1 15 10
7 0 -1 49.8 15.1
6 0 -1 91.49 17.3
5 0 -1 39.3 10.3
4 0 -1 51.99 11.1
-4 0 1 30.2 8.5
3 0 -1 1789.22 103.89
-3 0 1 1921.51 105.39
2 0 -1 214.18 16.3
-2 0 1 181.78 15.9
1 0 -1 1716.83 85.79
-1 0 1 1602.94 85.69
-1 0 1 1553.24 82.19
0 0 -1 351.06 19.4
-1 0 -1 10.5 1.4
-1 0 -1 5.7 1.5
1 0 1 9 1.8
1 0 1 12.1 1.5
2 0 1 3772.62 194.68
-3 0 -1 1705.43 91.09
3 0 1 1716.93 98.49
3 0 1 1808.92 90.89
-4 0 -1 12.4 2.9
4 0 1 10.4 2.8
4 0 1 9.1 4.8
4 0 1 13.1 4.5
-5 0 -1 450.85 28.9
5 0 1 515.85 40
5 0 1 597.34 37.6
5 0 1 446.56 28
6 0 1 -6.3 3
7 0 1 9.7 9
7 -1 -1 202.08 26.5
6 -1 -1 41.4 11
5 -1 -1 5.2 5.5
4 -1 -1 246.38 23.9
-4 1 1 258.67 24.9
3 -1 -1 45.2 9.3
-3 1 1 29.9 7.2
2 -1 -1 285.27 19.9
-2 1 1 230.38 13.6
-2 1 1 212.78 13
-2 1 1 251.27 19.3
1 -1 -1 3511.45 176.68
-1 1 1 3596.94 177.08
-1 1 1 3141.29 173.98
0 -1 -1 156.98 10.5
0 -1 -1 159.48 9.1
0 1 1 142.09 10.2
0 1 1 157.58 9.3
-2 -1 -1 3041.1 164.88
2 1 1 3354.66 164.28
-3 -1 -1 406.46 26.4
3 1 1 458.15 25
3 1 1 449.56 31.1
-4 -1 -1 2440.36 142.89
4 1 1 2935.81 140.59
4 1 1 2829.32 151.78
-5 -1 -1 1262.27 78.29
5 1 1 1584.94 90.69
5 1 1 1518.55 76.39
6 1 1 134.79 10.4
6 1 1 147.99 18.7
7 1 1 -4.6 8.7
8 1 1 13.2 10.4
7 -2 -1 39.7 15.7
6 -2 -1 27 9.5
5 -2 -1 214.18 30.4
4 -2 -1 5.4 4.8
-4 2 1 4.2 0.9
-4 2 1 3.3 1.2
3 -2 -1 33.4 8.7
-3 2 1 31.1 4.2
-3 2 1 38.1 8.8
-3 2 1 36.9 3.8
2 -2 -1 293.37 22.3
-2 2 1 274.77 22.2
1 -2 -1 123.39 10.8
-1 2 1 127.09 11.1
0 -2 -1 304.87 17
0 -2 -1 279.37 16.4
0 2 1 263.37 19.2
0 2 1 296.37 17
-1 -2 -1 3636.44 195.68
1 2 1 3907.91 196.08
-2 -2 -1 291.77 21.1
2 2 1 330.57 21.4
-3 -2 -1 594.24 38.2
3 2 1 670.03 37.6
-4 -2 -1 1818.92 109.19
4 2 1 2085.49 106.99
4 2 1 2204.08 115.79
-5 -2 -1 107.39 11.7
5 2 1 139.49 10
5 2 1 152.38 17.7
6 2 1 1026 55.09
6 2 1 998.3 69.49
7 2 1 126.29 23.3
7 2 1 111.09 8.8
8 2 1 140.49 26.1
6 -3 -1 3.9 6.6
5 -3 -1 268.67 28.3
4 -3 -1 10.2 4.7
-4 3 1 3.2 2.6
-4 3 1 2.8 1.6
3 -3 -1 236.38 19.9
3 -3 -1 229.48 21.2
-3 3 1 189.38 14.3
-3 3 1 193.68 16
-3 3 1 229.18 21.7
2 -3 -1 362.96 25.6
-2 3 1 343.47 26.7
1 -3 -1 4.7 2.1
1 -3 -1 4.6 2.3
0 -3 -1 1352.76 68.29
0 -3 -1 1295.67 67.09
0 3 1 1270.57 68.19
0 3 1 1198.48 72.39
-1 -3 -1 2285.27 117.69
-1 -3 -1 2340.07 117.29
1 3 1 2309.77 117.89
1 3 1 2296.57 117.39
2 3 1 1776.72 98.09
2 3 1 1765.22 90.09
-3 -3 -1 241.88 20.7
3 3 1 286.07 16.5
3 3 1 283.87 21.4
4 3 1 129.89 14.5
4 3 1 139.89 13
5 3 1 5.3 2.4
5 3 1 -1.3 2.7
6 3 1 691.33 52.69
6 3 1 734.43 41.3
7 3 1 120.99 9.9
7 3 1 144.59 19.9
8 3 1 454.05 43.5
6 -4 -1 23.2 10.1
5 -4 -1 146.49 19.8
-5 4 1 132.09 8.5
-5 4 1 108.49 9.8
4 -4 -1 61.99 13.1
-4 4 1 34.5 7.4
-4 4 1 38.7 5.2
3 -4 -1 155.08 16.5
3 -4 -1 137.39 15.2
-3 4 1 101.69 10.7
-3 4 1 124.99 13.1
-3 4 1 125.19 16.6
2 -4 -1 64.39 8.5
2 -4 -1 67.59 9.6
-2 4 1 54.99 10.4
1 -4 -1 399.06 26.6
1 -4 -1 413.96 26.5
-1 4 1 376.46 27
0 -4 -1 179.68 11.6
0 -4 -1 178.68 12.7
0 4 1 154.08 12.4
-1 -4 -1 601.64 31.9
-1 -4 -1 618.14 31.4
1 4 1 573.64 31.7
1 4 1 586.44 32.8
1 4 1 570.04 40.1
-2 -4 -1 142.09 8.7
2 4 1 154.68 9
2 4 1 140.39 15.5
2 4 1 146.49 9.4
3 4 1 641.94 43.3
3 4 1 646.74 34.3
4 4 1 831.92 52.49
4 4 1 828.62 52.39
4 4 1 818.12 45
5 4 1 120.69 10.5
5 4 1 131.09 15.9
5 4 1 135.69 17.2
6 4 1 47.1 12.5
6 4 1 47.8 7.8
6 4 1 61.99 8.3
7 4 1 74.59 9.3
7 4 1 71.49 9.6
7 4 1 64.29 15.1
8 4 1 220.28 20.4
8 4 1 211.88 25.8
8 4 1 206.98 14.9
5 -5 -1 126.29 18.6
-5 5 1 139.49 10.3
-5 5 1 122.39 12.6
4 -5 -1 144.99 26.8
-4 5 1 146.29 13.4
-4 5 1 150.08 17.7
3 -5 -1 25.1 7.1
3 -5 -1 15.7 6.2
-3 5 1 28.2 7.1
2 -5 -1 12.5 3.8
2 -5 -1 3.9 4.6
-2 5 1 10.8 4.8
1 -5 -1 376.66 25.7
1 -5 -1 349.96 24.6
-1 5 1 357.66 26.3
0 -5 -1 88.69 8.6
0 -5 -1 84.59 7.1
0 5 1 84.29 8.6
-1 -5 -1 499.35 27.4
-1 -5 -1 497.85 26.1
1 5 1 455.45 36.4
1 5 1 479.15 27.4
1 5 1 476.05 28.6
-2 -5 -1 230.98 12.7
2 5 1 236.28 22.5
2 5 1 215.08 12.7
2 5 1 211.48 13.7
3 5 1 405.06 22.3
3 5 1 394.36 32.4
4 5 1 17.7 6
4 5 1 8.1 1.9
4 5 1 7.4 4
5 5 1 26 8.3
5 5 1 31 4.6
5 5 1 11.7 5.5
6 5 1 160.68 12.3
6 5 1 114.59 16.5
6 5 1 141.79 16
7 5 1 127.59 12.5
7 5 1 157.08 20.5
7 5 1 136.29 14.1
8 5 1 50.89 7.2
8 5 1 23.4 12.1
8 5 1 48.5 8.5
5 -6 -1 301.47 30.3
-5 6 1 260.87 18.4
-5 6 1 237.68 22.1
-4 6 1 548.25 36.6
-4 6 1 567.44 40.6
3 -6 -1 2.2 4.6
-3 6 1 -2 3.6
2 -6 -1 98.39 12.6
-2 6 1 87.39 14.6
-2 6 1 99.49 14.2
1 -6 -1 245.98 19.7
1 -6 -1 247.18 26.9
-1 6 1 233.58 20.5
0 -6 -1 106.99 10.6
0 -6 -1 117.59 9
0 6 1 113.39 10.9
-1 -6 -1 223.58 13
-1 -6 -1 223.08 14.7
1 6 1 222.88 14.8
1 6 1 231.88 16.4
1 6 1 195.58 22.8
-2 -6 -1 163.18 10.2
2 6 1 169.38 11.9
2 6 1 172.98 19.9
2 6 1 159.18 10.1
-3 -6 -1 831.82 45.1
3 6 1 862.11 45.5
3 6 1 863.11 45
3 6 1 795.72 57.99
4 6 1 170.48 20
4 6 1 167.78 11.2
4 6 1 184.68 16.1
5 6 1 1.9 1.6
5 6 1 -2.4 3.7
5 6 1 0.9 3.4
6 6 1 3 4.2
6 6 1 -0.6 1.5
6 6 1 -3.1 4.6
7 6 1 33.9 10.1
7 6 1 33.3 8.8
7 6 1 25 5.3
8 6 1 4.5 4.6
8 6 1 4.8 3.9
8 6 1 -5.2 7.6
4 -7 -1 526.55 39.4
-4 7 1 393.96 34.8
-4 7 1 409.96 31.5
-3 7 1 257.17 22.9
-3 7 1 257.17 27.1
2 -7 -1 1410.06 76.89
2 -7 -1 1288.97 77.49
-2 7 1 1178.78 82.39
1 -7 -1 45.6 6.4
1 -7 -1 43.2 8
-1 7 1 39.5 8.2
-1 7 1 34.6 10.8
0 -7 -1 98.79 8
0 -7 -1 81.59 9.2
0 7 1 96.59 15.7
0 7 1 83.09 9.9
-1 -7 -1 240.38 16.2
-1 -7 -1 241.88 13.9
1 7 1 222.08 15.8
1 7 1 247.28 18.2
1 7 1 205.78 24.7
-2 -7 -1 283.57 16.5
2 7 1 257.97 28.2
2 7 1 281.27 19
2 7 1 277.17 16.4
-3 -7 -1 959.1 48.3
3 7 1 897.71 49.6
3 7 1 907.11 64.69
3 7 1 849.81 47.2
4 7 1 0.7 1.4
4 7 1 2.4 1.6
4 7 1 1.8 2.4
5 7 1 62.19 14.2
5 7 1 59.99 5.7
5 7 1 55.49 10.2
6 7 1 53.79 13.1
6 7 1 48.6 11.4
6 7 1 51.89 5.7
7 7 1 23.8 9
7 7 1 21.4 8.9
7 7 1 22.2 4.5
8 7 1 -6.7 6.4
8 7 1 8.7 6
8 7 1 7.1 4.1
4 -8 -1 -6.2 5.9
-4 8 1 4.3 8
-4 8 1 2.9 8.7
3 -8 -1 83.39 14.4
-3 8 1 82.39 17.3
-3 8 1 74.19 14.5
2 -8 -1 583.74 39.2
-2 8 1 563.84 47.3
1 -8 -1 723.03 42.4
1 -8 -1 711.63 45.5
-1 8 1 649.83 54.39
0 -8 -1 2041.4 99.19
0 -8 -1 1945.11 103.19
0 8 1 1820.22 117.69
0 8 1 1690.93 106.59
-1 -8 -1 1034.5 57.89
-1 -8 -1 1031.8 54.79
1 8 1 1048.2 61.19
1 8 1 1078.69 57.79
1 8 1 1010.7 74.19
-2 -8 -1 534.65 30.7
2 8 1 591.64 34.6
2 8 1 536.85 29.2
2 8 1 528.95 46.8
-3 -8 -1 1511.05 78.79
3 8 1 1535.35 78.39
3 8 1 1473.75 98.99
3 8 1 1416.96 77.39
3 8 1 1602.54 81.79
4 8 1 6.9 6.5
4 8 1 19.7 4.5
4 8 1 11.4 3.3
4 8 1 17.2 2.4
5 8 1 99.79 11.9
5 8 1 91.29 19.7
5 8 1 107.49 8.8
5 8 1 93.79 8.9
6 8 1 -2.2 1.7
6 8 1 -4.5 7.2
6 8 1 -8.8 3.4
7 8 1 7 2.8
7 8 1 1.5 6.6
7 8 1 9.4 6.9
3 -9 -1 26 7.1
-3 9 1 7.8 9.2
2 -9 -1 74.79 10.6
-2 9 1 59.59 15.1
1 -9 -1 914.41 50.99
-1 9 1 800.42 65.79
0 -9 -1 55.69 5.8
0 9 1 31.6 13.3
-1 -9 -1 71.89 5.7
-1 -9 -1 69.59 7.7
1 9 1 67.59 17.3
-2 -9 -1 367.96 22.1
2 9 1 341.47 25.6
2 9 1 399.06 39.7
-3 -9 -1 384.56 23.5
3 9 1 431.56 27.3
3 9 1 423.56 41.9
-4 -9 -1 113.19 9.3
4 9 1 110.99 7
4 9 1 106.69 7.6
4 9 1 122.29 10.7
4 9 1 83.19 20.1
5 9 1 882.81 47.7
5 9 1 861.91 50.49
5 9 1 888.71 51.49
5 9 1 930.11 69.69
6 9 1 6.3 3.5
6 9 1 6.8 5.6
6 9 1 10.8 3.5
7 9 1 3.1 3.1
7 9 1 9.9 7.6
7 9 1 5.8 5.8
2 -10 -1 37.4 7.4
-2 10 1 20.7 12.6
1 -10 -1 26.6 5.5
-1 10 1 23.8 9.9
0 -10 -1 60.59 6.1
0 -10 -1 61.09 10.4
0 10 1 72.69 18.5
-1 -10 -1 777.22 45.6
1 10 1 756.82 64.49
-2 -10 -1 135.59 10.8
2 10 1 137.99 22.9
2 10 1 147.19 15
-3 -10 -1 83.19 7
3 10 1 73.69 9.6
3 10 1 69.49 19
-4 -10 -1 209.08 14.5
4 10 1 187.08 27.8
5 10 1 132.19 7.9
5 10 1 133.49 8.3
5 10 1 129.89 26
6 10 1 56.79 7.5
6 10 1 30.9 13.3
6 10 1 57.49 8
0 -11 -1 4.6 2.5
0 11 1 -0.1 7.6
-1 -11 -1 11 5.2
1 11 1 28.5 11.8
2 11 1 19.7 9.9
-3 -11 -1 583.44 33.7
3 11 1 613.34 38.8
3 11 1 562.44 55.49
-4 -11 -1 7.1 3
4 11 1 0.9 3.8
4 11 1 -0.1 9.3
5 11 1 71.09 20.4
5 11 1 88.49 11.4
6 11 1 10.8 10.5
6 11 1 -4.5 4.1
-2 -12 -1 127.79 11.6
2 12 1 110.29 28.3
-3 -12 -1 0 3.2
3 12 1 7.6 12.1
-4 -12 -1 74.59 9.1
4 12 1 105.79 12
4 12 1 97.59 25.2
3 12 -2 14.2 9.2
3 12 -2 35 10.5
2 12 -2 13.9 7.3
5 11 -2 5.7 8.2
5 11 -2 3.6 5
4 11 -2 23.6 12.7
4 11 -2 34.6 8
3 11 -2 23.3 7.5
2 11 -2 300.97 32.1
1 11 -2 0.3 5.7
0 11 -2 5.7 5.6
6 10 -2 217.28 13.4
6 10 -2 228.28 31.4
6 10 -2 210.88 20.3
6 10 -2 258.37 13.8
5 10 -2 -3.8 6.8
5 10 -2 8.1 4.2
4 10 -2 39.4 8.2
-4 -10 2 28.2 6.3
3 10 -2 19.5 6
-3 -10 2 1.2 2.7
2 10 -2 445.26 34.3
-2 -10 2 487.15 29.5
1 10 -2 11.4 6.6
0 10 -2 325.67 28.8
-1 10 -2 11.8 6.7
1 -10 2 -3.2 2.5
2 -10 2 -1.2 4.8
6 9 -2 193.08 16.2
6 9 -2 173.18 24.8
5 9 -2 18.4 10.5
5 9 -2 33.1 3.6
5 9 -2 29.6 6.7
5 9 -2 32.4 3.2
4 9 -2 21.5 10.5
4 9 -2 23.4 6.3
-4 -9 2 37.2 6.9
3 9 -2 0.8 2.9
-3 -9 2 9.1 3
2 9 -2 1.5 3.2
-2 -9 2 0.5 1.8
1 9 -2 11.9 5.3
-1 -9 2 3.8 2.9
0 9 -2 474.25 36.4
0 -9 2 461.65 33.7
0 -9 2 512.75 26.1
0 -9 2 481.65 25.9
-1 9 -2 4.1 5.2
1 -9 2 5 3.4
2 -9 2 183.98 18.4
7 8 -2 13.8 5.9
7 8 -2 12.8 7.5
6 8 -2 23 5.4
6 8 -2 14.8 9.9
6 8 -2 22.2 5.8
5 8 -2 -8 4.4
5 8 -2 -4.5 2.2
5 8 -2 -3.1 2
4 8 -2 79.29 9
4 8 -2 82.79 5.1
-4 -8 2 90.79 9.7
3 8 -2 290.07 21.3
-3 -8 2 300.27 19.5
2 8 -2 83.19 10
-2 -8 2 87.49 7.8
1 8 -2 77.79 12
-1 -8 2 73.49 7.9
0 8 -2 1.6 3.4
0 -8 2 -0.9 2.4
0 -8 2 2.4 1.2
-1 8 -2 16.7 7.2
1 -8 2 22.6 6.6
1 -8 2 12.4 3.9
2 -8 2 246.48 22
3 -8 2 8.2 7.1
4 -8 2 66.29 15.8
7 7 -2 19.6 9.2
7 7 -2 17.5 5
7 7 -2 27.2 8.1
6 7 -2 687.93 39
6 7 -2 600.44 49.1
6 7 -2 653.03 43.7
5 7 -2 37.4 11.6
5 7 -2 41.3 5.4
5 7 -2 30.5 6.7
4 7 -2 16.4 3.3
4 7 -2 15.1 3.7
-4 -7 2 17.6 4.5
3 7 -2 3.7 2.3
-3 -7 2 3.6 1.8
2 7 -2 472.85 29
-2 -7 2 409.96 25.6
1 7 -2 338.97 24.1
-1 -7 2 315.17 20.9
0 7 -2 142.09 14.7
0 -7 2 143.39 10.1
0 -7 2 134.19 12.2
-1 7 -2 100.49 12.9
1 -7 2 84.79 10.4
1 -7 2 107.39 11.1
-2 7 -2 13.3 5.5
-2 7 -2 2.5 5.3
2 -7 2 17.7 5.8
-3 7 -2 3.6 5.5
3 -7 2 -0.4 5.3
-4 7 -2 38.7 9.5
4 -7 2 42.6 12.1
7 6 -2 11.5 3.7
7 6 -2 13.6 5.6
7 6 -2 10.7 7.7
6 6 -2 29.2 9.8
6 6 -2 41.9 9.2
6 6 -2 43.6 6.8
5 6 -2 -3.6 3.4
5 6 -2 -3.3 3.4
4 6 -2 1263.77 67.39
4 6 -2 1227.48 68.89
3 6 -2 110.79 9.4
3 6 -2 104.69 7.5
-3 -6 2 108.39 9.1
2 6 -2 53.39 6.2
-2 -6 2 42.4 4.7
1 6 -2 9.9 3.3
-1 -6 2 8.2 2.6
0 6 -2 776.92 48.6
0 -6 2 836.32 46.7
0 -6 2 798.32 44.3
-1 6 -2 691.93 46.1
1 -6 2 727.43 44.2
1 -6 2 739.03 44.4
-2 6 -2 197.28 20.1
-2 6 -2 285.97 23.2
2 -6 2 250.57 21.5
2 -6 2 225.38 20
-3 6 -2 603.34 42.7
3 -6 2 693.03 47.3
-4 6 -2 14.2 6
4 -6 2 1.8 7.7
5 -6 2 30.1 11.4
7 5 -2 13.6 4.6
7 5 -2 10.1 8
7 5 -2 16.1 4.7
7 5 -2 19.4 5.4
6 5 -2 104.09 13.4
6 5 -2 98.49 10.1
6 5 -2 120.79 15.4
5 5 -2 153.28 15.8
5 5 -2 137.19 16.5
5 5 -2 142.79 11.6
4 5 -2 2.8 1.6
4 5 -2 -1 2.1
3 5 -2 297.27 18.2
3 5 -2 282.47 18.4
-3 -5 2 280.37 18.9
2 5 -2 2220.98 114.89
2 5 -2 2411.36 118.59
-2 -5 2 2168.08 117.19
1 5 -2 214.88 15.9
-1 -5 2 229.88 14.6
0 5 -2 106.39 10.7
0 -5 2 116.29 10
0 -5 2 114.19 9.1
-1 5 -2 845.42 52.99
1 -5 2 937.91 52.49
1 -5 2 861.61 51.49
-2 5 -2 872.51 59.89
-2 5 -2 1027.3 61.89
2 -5 2 1064.69 62.49
2 -5 2 1096.69 61.19
-3 5 -2 -0.3 2.8
3 -5 2 3.2 4.1
3 -5 2 11.4 4.4
-4 5 -2 77.49 9.4
4 -5 2 68.89 15.5
-5 5 -2 271.07 20.3
5 -5 2 300.07 31
-6 5 -2 6.8 4.8
6 -5 2 15.3 10.4
7 4 -2 6.2 1.7
7 4 -2 4.7 3.6
7 4 -2 6.6 1.3
7 4 -2 1.8 6.8
6 4 -2 238.18 24.3
6 4 -2 240.88 18.5
6 4 -2 263.77 19.3
5 4 -2 4.4 3.8
5 4 -2 21.4 6.4
5 4 -2 13.3 3.7
4 4 -2 170.48 17.3
4 4 -2 202.78 13.7
4 4 -2 183.68 16.8
3 4 -2 764.02 46.8
3 4 -2 795.42 45.2
-3 -4 2 849.72 46.8
-3 -4 2 882.01 49.7
2 4 -2 6.9 2
2 4 -2 3.5 1.3
-2 -4 2 3.9 2
-2 -4 2 7 2.2
-1 -4 2 5888.31 297.57
0 4 -2 1565.94 80.39
0 -4 2 1373.06 85.99
-1 4 -2 1444.46 83.49
1 -4 2 1623.84 83.99
1 -4 2 1471.75 82.49
-2 4 -2 32.5 6.7
-2 4 -2 36.5 7.4
2 -4 2 27.3 6.8
2 -4 2 35.6 7.5
-3 4 -2 125.29 12.4
3 -4 2 145.49 14.8
3 -4 2 116.39 15.3
-4 4 -2 433.16 28.5
4 -4 2 441.86 37.1
-5 4 -2 15.9 4.3
5 -4 2 11.9 7.5
-6 4 -2 -0.7 3.3
6 -4 2 -5.6 4.5
7 3 -2 0.1 3.7
7 3 -2 0.3 6.5
6 3 -2 15.8 1.7
6 3 -2 15.9 5.3
6 3 -2 25 8.3
6 3 -2 12.4 1.9
5 3 -2 43.4 10.1
5 3 -2 55.09 6.9
5 3 -2 52.69 8.3
4 3 -2 695.13 45.3
4 3 -2 742.63 48
4 3 -2 743.23 43
-4 -3 2 846.62 51.29
3 3 -2 105.99 10.7
3 3 -2 107.79 11.7
-3 -3 2 114.19 12
2 3 -2 1029.5 54.79
2 3 -2 1023.5 55.89
-2 -3 2 1036.7 55.59
-2 -3 2 1048.4 57.59
1 3 -2 51.99 4.8
1 3 -2 52.79 3.7
-1 -3 2 54.89 4.5
-1 -3 2 55.09 4.6
0 3 -2 518.05 29.8
0 -3 2 504.65 27.4
0 -3 2 509.25 28.9
-1 3 -2 2016 120.49
-1 3 -2 2537.05 121.19
-2 3 -2 1198.48 71.79
-2 3 -2 1152.98 70.49
2 -3 2 1380.36 74.69
2 -3 2 1367.66 72.19
-3 3 -2 816.32 47.9
3 -3 2 837.42 54.89
3 -3 2 844.42 51.79
-4 3 -2 167.98 12.9
4 -3 2 139.79 16.5
4 -3 2 177.08 20.3
-5 3 -2 18.6 4.3
5 -3 2 18 12.8
-6 3 -2 58.19 7.6
6 -3 2 60.19 17
7 -3 2 13.7 12
7 2 -2 70.69 11.9
7 2 -2 69.09 15.2
6 2 -2 17.1 5.8
6 2 -2 31.9 9.2
5 2 -2 10.3 5.1
5 2 -2 6.9 3.4
4 2 -2 4.1 1.7
4 2 -2 3.3 1.8
4 2 -2 1.1 2.9
4 2 -2 3.9 1.6
-4 -2 2 3 3.9
3 2 -2 1542.95 85.89
-3 -2 2 1520.95 87.19
2 2 -2 3703.73 196.48
2 2 -2 3863.51 198.98
-2 -2 2 3986 200.48
1 2 -2 533.45 28.5
1 2 -2 531.55 28.6
-1 -2 2 515.75 28.6
-1 -2 2 525.75 29.3
0 2 -2 197.48 15.2
0 2 -2 235.08 14.1
0 -2 2 230.08 13.6
0 -2 2 227.68 12.6
-1 2 -2 178.78 13.7
-1 2 -2 197.48 13.7
1 -2 2 184.38 13.1
-2 2 -2 314.97 20.9
-2 2 -2 318.97 22.6
2 -2 2 348.47 22.7
-3 2 -2 1293.27 67.79
3 -2 2 1218.68 75.19
3 -2 2 1226.78 71.89
-4 2 -2 954.8 52.19
4 -2 2 933.91 58.89
4 -2 2 946.61 63.19
-5 2 -2 409.96 26.7
5 -2 2 436.96 37.8
5 -2 2 424.26 39
6 -2 2 29.4 11.9
7 -2 2 40.5 14.2
7 1 -2 18.8 8.6
6 1 -2 205.58 24.1
5 1 -2 683.33 47.8
-5 -1 2 592.14 48
4 1 -2 6.2 4.5
-4 -1 2 3.6 5.2
3 1 -2 1072.99 71.29
3 1 -2 1104.59 58.39
3 1 -2 1143.19 57.19
-3 -1 2 1114.09 66.79
2 1 -2 33.1 5.9
2 1 -2 34.5 4.1
2 1 -2 34.6 3.4
-2 -1 2 40.9 7.1
1 1 -2 133.79 9.4
1 1 -2 136.69 9.5
1 1 -2 138.89 8.7
-1 -1 2 125.79 9.8
-1 -1 2 149.69 9.3
-1 1 -2 172.28 11.7
-1 1 -2 182.88 12.1
1 -1 2 167.28 12.3
1 -1 2 174.58 11.6
-2 1 -2 41.9 5.3
-2 1 -2 35 4
2 -1 2 30.3 4.6
2 -1 2 34.7 5.6
-3 1 -2 16.9 3.3
3 -1 2 11.5 4.1
3 -1 2 14.7 3.6
-4 1 -2 4.8 2.1
4 -1 2 6.1 3.7
4 -1 2 3.7 2.7
4 -1 2 5.9 3.5
-5 1 -2 25.1 5.1
5 -1 2 30.7 8.2
5 -1 2 34.2 10.9
-6 1 -2 98.99 10.3
6 -1 2 142.69 19.6
-7 1 -2 24.5 4.6
7 -1 2 35.2 13.7
7 0 -2 50.99 14.1
6 0 -2 142.09 19.7
5 0 -2 290.17 27.1
-5 0 2 247.48 27.2
4 0 -2 422.36 32.9
-4 0 2 394.56 33.3
3 0 -2 110.19 12.6
-3 0 2 107.79 13.2
2 0 -2 107.69 6.6
2 0 -2 122.09 11.2
-2 0 2 107.39 11.3
1 0 -2 193.78 10.8
1 0 -2 158.68 11.5
1 0 -2 196.38 12.9
-1 0 2 184.38 13.3
-1 0 2 190.58 11
0 0 -2 28.4 2.6
0 0 -2 27.3 2.3
0 0 -2 35.1 3.1
0 0 2 24.2 2.6
0 0 2 32.2 3
0 0 2 28.4 2.4
-1 0 -2 5 1.4
-1 0 -2 0.9 0.8
1 0 2 1.9 1
1 0 2 0.6 0.7
-2 0 -2 2585.84 141.99
2 0 2 2719.83 141.99
2 0 2 2884.51 140.79
-3 0 -2 190.18 13.4
3 0 2 182.38 18.2
3 0 2 201.68 13.4
-4 0 -2 416.16 27.2
4 0 2 479.95 31.6
4 0 2 446.66 27.2
4 0 2 449.76 34.8
-5 0 -2 1.6 2.5
5 0 2 7.6 3.3
5 0 2 7.7 5.4
5 0 2 11.2 5
-6 0 -2 136.19 12.6
6 0 2 105.89 19.7
6 0 2 122.19 11.1
-7 0 -2 19 4.6
7 0 2 25.4 9.8
7 -1 -2 88.69 32.4
6 -1 -2 112.09 20.5
5 -1 -2 8.7 4.8
4 -1 -2 223.28 22.5
-4 1 2 203.68 22.6
3 -1 -2 119.79 13.7
-3 1 2 111.39 13.7
2 -1 -2 1651.43 89.29
-2 1 2 1559.24 89.79
-2 1 2 1596.14 81.79
1 -1 -2 388.06 24
1 -1 -2 386.06 22.8
-1 1 2 400.36 24.9
-1 1 2 375.66 21.7
0 -1 -2 193.48 11.6
0 -1 -2 194.28 11.1
0 -1 -2 192.28 12.9
0 1 2 183.38 11.8
0 1 2 192.88 12.5
-1 -1 -2 23 2.1
-1 -1 -2 19.1 3.2
1 1 2 20.3 2.6
1 1 2 25.3 1.9
1 1 2 28.6 3.6
-2 -1 -2 8.5 2.5
2 1 2 5.9 1.9
2 1 2 8 1.8
-3 -1 -2 611.34 40.2
3 1 2 777.22 39.4
3 1 2 721.83 41.2
-4 -1 -2 2584.44 153.88
4 1 2 3139.79 151.98
4 1 2 3010.2 162.48
4 1 2 3022.7 156.68
-5 -1 -2 676.93 44.7
5 1 2 804.82 48.9
5 1 2 754.42 53.59
5 1 2 768.92 42.5
-6 -1 -2 24.4 5.9
6 1 2 33.6 8.7
6 1 2 36 5.8
6 1 2 28.4 17
7 1 2 83.09 8.5
7 1 2 96.09 19.6
8 1 2 -17 8.8
6 -2 -2 18.6 8.7
5 -2 -2 158.08 20.5
4 -2 -2 400.96 33.7
-4 2 2 408.56 35.2
3 -2 -2 -0.3 2.1
-3 2 2 1.5 1.1
-3 2 2 1.7 1.2
-3 2 2 -2.7 2.7
-2 2 2 199.38 13.7
-2 2 2 193.08 17.8
1 -2 -2 190.18 13.9
-1 2 2 162.48 12.9
-1 2 2 182.38 14.5
0 -2 -2 1145.29 63.89
0 -2 -2 1192.78 60.39
0 2 2 1146.79 61.09
0 2 2 1100.79 63.19
-1 -2 -2 284.67 16.9
-1 -2 -2 286.97 20.3
1 2 2 301.77 16.7
1 2 2 293.07 20.1
-2 -2 -2 228.78 17.9
2 2 2 243.18 17.6
2 2 2 256.67 14.3
-3 -2 -2 1253.87 74.79
3 2 2 1427.26 73.79
-4 -2 -2 1409.86 86.19
4 2 2 1688.63 83.99
-5 -2 -2 5.9 2.8
5 2 2 6.1 4.3
5 2 2 9.6 2.7
5 2 2 4.9 4.6
6 2 2 298.07 30.1
6 2 2 303.37 19.9
7 2 2 157.38 22.1
7 2 2 165.98 13.4
8 2 2 80.39 18.8
6 -3 -2 32.5 10.8
5 -3 -2 29.4 10.1
4 -3 -2 13.1 7.7
-4 3 2 2.4 6.4
-4 3 2 11.7 2.4
-4 3 2 17.3 2.3
3 -3 -2 843.52 51.99
-3 3 2 716.33 43.6
-3 3 2 749.73 51.99
2 -3 -2 2096.99 109.09
-2 3 2 1840.32 105.19
-2 3 2 1945.41 109.99
1 -3 -2 4.9 2.2
-1 3 2 6 2.6
-1 3 2 6.7 2.6
0 -3 -2 30.6 3.4
0 3 2 23 5.7
0 3 2 21 4
-1 -3 -2 845.12 54.49
-1 -3 -2 993.3 49
-1 -3 -2 954.5 47.7
1 3 2 921.81 48.7
1 3 2 885.51 54.69
-2 -3 -2 498.55 35.3
2 3 2 539.55 35.5
2 3 2 562.74 30.6
2 3 2 550.14 27.6
-3 -3 -2 2 2
3 3 2 -3.1 1.4
-4 -3 -2 246.98 22
4 3 2 295.67 21.2
-5 -3 -2 150.98 16.8
5 3 2 202.88 15.6
5 3 2 220.58 21.8
6 3 2 460.65 32.5
6 3 2 415.06 36.7
6 3 2 397.26 34.5
7 3 2 5.5 7.4
8 3 2 11.4 4.5
8 3 2 3.5 6.7
6 -4 -2 587.04 70.79
5 -4 -2 170.38 21
4 -4 -2 105.79 17.5
-4 4 2 85.39 9
-4 4 2 85.29 7.9
3 -4 -2 84.59 13.5
3 -4 -2 48.4 10.9
-3 4 2 62.29 12.8
-3 4 2 58.89 8.4
2 -4 -2 15.2 5.4
2 -4 -2 12.6 5.4
-2 4 2 14.8 5.2
-2 4 2 30.8 7.6
1 -4 -2 383.46 24.7
1 -4 -2 370.26 25.1
-1 4 2 327.97 26.8
-1 4 2 379.56 26.6
0 -4 -2 8041.3 394.06
0 4 2 7798.22 394.76
0 4 2 7337.87 399.96
-1 -4 -2 282.57 16.3
-1 -4 -2 279.67 16.1
1 4 2 269.57 23.1
1 4 2 275.77 16.7
-2 -4 -2 950.9 65.29
2 4 2 1163.18 57.99
2 4 2 1121.99 56.19
2 4 2 1133.19 66.99
-3 -4 -2 71.39 10.7
3 4 2 88.69 12.5
3 4 2 75.69 5
-4 -4 -2 7.2 4.5
4 4 2 16 5.2
4 4 2 8.7 2.2
5 4 2 60.99 12.7
5 4 2 80.79 10.2
6 4 2 115.89 11.9
6 4 2 99.19 18.1
7 4 2 13.3 4.2
7 4 2 15.3 7.5
7 4 2 1.3 7.1
8 4 2 116.49 21.9
8 4 2 141.39 12.4
5 -5 -2 124.69 21.4
-5 5 2 110.19 7.6
-5 5 2 105.69 8.8
4 -5 -2 1050.59 66.19
-4 5 2 896.71 56.69
3 -5 -2 647.74 43.7
3 -5 -2 692.13 45
-3 5 2 564.94 44.9
-3 5 2 532.25 44.2
2 -5 -2 224.98 19.8
2 -5 -2 248.08 20.4
-2 5 2 198.08 20
-2 5 2 211.88 20.8
1 -5 -2 496.55 31.2
1 -5 -2 481.45 32.2
-1 5 2 454.05 35.7
-1 5 2 500.05 33.8
0 -5 -2 1317.67 69.99
0 -5 -2 1310.67 68.09
0 5 2 1261.17 70.89
0 5 2 1179.08 76.69
-1 -5 -2 469.75 26.4
-1 -5 -2 476.85 25.9
1 5 2 435.66 27
1 5 2 479.05 35.9
-2 -5 -2 3885.11 195.98
2 5 2 3872.31 197.48
2 5 2 3852.01 197.28
2 5 2 3899.91 210.48
3 5 2 141.09 10.4
3 5 2 136.39 16.4
3 5 2 144.79 8.6
4 5 2 94.79 6.6
4 5 2 105.89 14
5 5 2 28.2 8
5 5 2 26.7 3.6
5 5 2 18.5 6.9
6 5 2 -3.8 1.6
6 5 2 -0.8 2.6
6 5 2 -2.3 4.4
7 5 2 50.89 13.9
7 5 2 67.29 9.9
7 5 2 69.59 8.5
8 5 2 170.48 28.3
8 5 2 142.09 13
8 5 2 117.99 13.8
5 -6 -2 4.8 7.5
-5 6 2 -2 3.7
4 -6 -2 3.6 6.1
-4 6 2 -2.7 4.1
-4 6 2 6.5 4.3
3 -6 -2 521.15 37.5
-3 6 2 427.16 34.8
-3 6 2 472.15 39.3
2 -6 -2 925.81 52.79
2 -6 -2 860.31 55.29
-2 6 2 723.83 54.19
-2 6 2 778.02 54.79
1 -6 -2 1707.33 97.49
1 -6 -2 1883.91 96.19
-1 6 2 1721.13 99.49
-1 6 2 1684.63 104.09
0 -6 -2 0.4 0.9
0 -6 -2 -1.7 2.1
0 6 2 3.3 2.6
0 6 2 0.8 3.3
-1 -6 -2 6.7 2.2
-1 -6 -2 10.9 2.1
1 6 2 3.2 2.2
1 6 2 5.4 4.1
-2 -6 -2 1089.29 55.69
2 6 2 1022.4 70.19
2 6 2 1117.59 57.79
2 6 2 1060.69 57.09
3 6 2 3.4 3.7
3 6 2 4 1.4
3 6 2 4.5 1.6
4 6 2 1441.26 78.19
4 6 2 1454.55 90.09
4 6 2 1446.46 74.89
5 6 2 256.37 25.3
5 6 2 223.58 22.1
5 6 2 241.28 14.7
6 6 2 0.7 1.4
7 6 2 24.7 4.8
7 6 2 16.1 7.5
8 6 2 132.79 14.2
8 6 2 137.29 12.5
8 6 2 99.29 20.8
4 -7 -2 308.47 28.1
-4 7 2 235.38 21.5
-4 7 2 243.58 23.9
3 -7 -2 303.97 30.9
-3 7 2 255.57 25.9
2 -7 -2 389.46 27.4
2 -7 -2 319.67 27.4
-2 7 2 300.17 30.3
1 -7 -2 443.16 28.1
1 -7 -2 413.66 29.9
-1 7 2 409.66 31.3
-1 7 2 391.66 36
0 -7 -2 1222.08 65.29
0 -7 -2 1240.68 68.39
0 7 2 1153.18 69.49
0 7 2 1200.98 79.79
-1 -7 -2 496.95 27.5
-1 -7 -2 438.86 34.4
1 7 2 487.75 30.4
1 7 2 508.55 42
-2 -7 -2 91.09 6.4
2 7 2 88.19 7.5
2 7 2 83.99 8.1
2 7 2 72.19 15.8
-3 -7 -2 112.29 7.5
3 7 2 106.09 8
3 7 2 126.09 18.3
3 7 2 106.39 8.3
4 7 2 577.84 47.6
4 7 2 625.04 33.5
5 7 2 45 4.4
5 7 2 36.4 11.3
5 7 2 37.6 8.7
6 7 2 120.89 9.9
6 7 2 107.09 15.3
6 7 2 88.99 17.9
7 7 2 22.4 9.2
7 7 2 17.5 7.5
7 7 2 18.6 4.1
8 7 2 121.49 10.6
8 7 2 106.39 21
8 7 2 89.59 14.5
3 -8 -2 147.19 16.2
-3 8 2 109.69 17.8
2 -8 -2 234.28 20.2
-2 8 2 199.88 23.1
-2 8 2 222.38 26.1
1 -8 -2 312.77 25.9
1 -8 -2 369.96 24.1
-1 8 2 332.67 28.2
-1 8 2 303.37 32.3
0 -8 -2 468.35 31.2
0 -8 -2 469.85 28.1
0 8 2 497.05 42.7
0 8 2 445.26 32.5
-1 -8 -2 352.96 20.6
-1 -8 -2 354.16 22.3
1 8 2 355.86 35.7
1 8 2 315.77 23.3
-2 -8 -2 1009 52.89
2 8 2 964.3 54.49
2 8 2 996.8 72.09
-3 -8 -2 32.8 3.3
3 8 2 30.5 3.8
3 8 2 33.8 11
3 8 2 30.6 5
4 8 2 56.79 14.8
4 8 2 62.99 5.7
4 8 2 59.69 5.9
5 8 2 77.79 17.2
5 8 2 53.09 6.3
5 8 2 63.29 5.7
5 8 2 46.5 9.7
6 8 2 27.4 8.6
6 8 2 31.3 10.8
6 8 2 25.5 4
7 8 2 -1.3 2.2
7 8 2 -0.3 5.9
7 8 2 9.1 7.9
3 -9 -2 6.2 6.5
-3 9 2 4.5 7.8
2 -9 -2 175.78 17.1
-2 9 2 176.28 23.2
1 -9 -2 440.26 29.4
-1 9 2 480.05 44
-1 9 2 451.55 34.9
0 -9 -2 388.66 23.2
0 -9 -2 343.77 25.9
0 9 2 362.66 28
0 9 2 363.36 37.5
-1 -9 -2 290.07 18.4
-1 -9 -2 295.27 20.7
1 9 2 323.57 22.3
1 9 2 300.67 34.4
-2 -9 -2 241.68 15.8
2 9 2 248.18 17
2 9 2 271.87 31.3
-3 -9 -2 6.4 1.9
3 9 2 8.6 2.7
3 9 2 5.8 3
3 9 2 4.7 5.6
4 9 2 1356.76 74.29
4 9 2 1266.97 70.49
4 9 2 1391.66 94.39
4 9 2 1385.66 72.29
5 9 2 2.9 4
5 9 2 -2.3 1.6
5 9 2 -0.7 2
5 9 2 3.5 5.7
6 9 2 221.18 27.8
6 9 2 214.58 15
6 9 2 223.38 16.8
6 9 2 247.18 21.7
7 9 2 35.3 10.6
7 9 2 36.8 5.3
7 9 2 46.9 8.8
7 9 2 34.7 12.9
2 -10 -2 142.09 15.3
-2 10 2 152.28 23.2
1 -10 -2 11.7 4.7
-1 10 2 23.2 10.5
0 -10 -2 231.18 20.8
0 -10 -2 249.68 16.7
0 10 2 238.58 31.9
-1 -10 -2 254.27 19.2
-1 -10 -2 272.27 16.8
1 10 2 248.88 32.8
-2 -10 -2 296.77 19
2 10 2 308.17 18.6
2 10 2 274.77 34.5
3 10 2 73.59 18.6
4 10 2 2.4 1.4
4 10 2 0.5 2.4
4 10 2 5.5 7.5
4 10 2 3 1.6
5 10 2 195.58 13.7
5 10 2 183.38 15
5 10 2 186.98 12.3
5 10 2 195.18 27.6
6 10 2 518.35 31.2
6 10 2 545.65 50.69
6 10 2 520.15 31.1
6 10 2 583.84 37.2
0 -11 -2 89.59 8.7
0 11 2 102.79 23.2
-1 -11 -2 -7.6 4.4
1 11 2 -6.4 8.8
-2 -11 -2 29.2 5.4
2 11 2 29 12.7
-3 -11 -2 1.5 2.3
3 11 2 -5.6 8.4
4 11 2 347.27 41.6
5 11 2 -0.9 2.7
5 11 2 6.2 7.4
6 11 2 1.7 2.8
6 11 2 10.5 11
6 11 2 4 3.4
-2 -12 -2 2.4 3.7
2 12 2 -7.6 11.2
-3 -12 -2 37.4 5.6
3 12 2 81.59 22.8
4 12 2 12.2 11.8
4 11 -3 3.6 5.1
4 11 -3 6.4 5.5
3 11 -3 91.29 14.2
2 11 -3 10.9 6.7
1 11 -3 364.76 32.2
0 11 -3 24.8 10.3
5 10 -3 57.19 9.3
5 10 -3 52.99 15.6
4 10 -3 10.1 4.8
3 10 -3 235.28 20.9
2 10 -3 74.99 13
1 10 -3 95.19 15.9
0 10 -3 79.19 15.3
-1 10 -3 94.19 16.5
1 -10 3 106.89 9.7
2 -10 3 -4.8 5.2
6 9 -3 26 11.8
6 9 -3 41.7 8.1
5 9 -3 77.19 18.9
5 9 -3 136.49 12.8
5 9 -3 111.49 7.3
4 9 -3 52.19 8.6
-4 -9 3 53.29 8.6
3 9 -3 227.18 19.3
-3 -9 3 236.18 16.9
2 9 -3 32.1 7.5
-2 -9 3 19.7 5.4
1 9 -3 865.31 54.99
-1 -9 3 836.72 49.4
-1 9 -3 610.84 45.2
1 -9 3 606.34 37.3
-2 9 -3 9.7 7.6
2 -9 3 13.4 6.6
3 -9 3 538.15 41.4
7 8 -3 43.8 7.7
7 8 -3 32.2 8.1
7 8 -3 35.2 11.2
6 8 -3 8.8 3.6
6 8 -3 11.4 8.4
6 8 -3 14.5 4.2
5 8 -3 4.4 5.4
5 8 -3 0.8 2.6
5 8 -3 5.5 2.8
4 8 -3 61.99 4.5
4 8 -3 74.49 8.5
-4 -8 3 67.69 8.7
3 8 -3 72.09 9
-3 -8 3 78.29 8.1
2 8 -3 117.99 12.6
-2 -8 3 114.39 10.1
1 8 -3 1685.23 93.39
-1 -8 3 1582.54 89.39
0 8 -3 111.59 13.2
0 -8 3 108.69 8.1
0 -8 3 106.79 10.9
0 -8 3 115.89 7.1
-1 8 -3 107.39 17.2
1 -8 3 104.09 11.2
-2 8 -3 35.5 10.2
2 -8 3 30 8.8
3 -8 3 30 10.7
4 -8 3 5.1 9.3
7 7 -3 85.09 15.2
7 7 -3 91.49 15.1
7 7 -3 108.39 11
6 7 -3 -6 2.5
6 7 -3 -3.4 2.1
6 7 -3 5.5 5.9
5 7 -3 3.6 3.3
5 7 -3 -0.7 1.6
5 7 -3 1.7 3.7
4 7 -3 1.5 1.7
4 7 -3 -1.9 1.2
-4 -7 3 4.7 2.8
3 7 -3 121.69 11.5
3 7 -3 131.59 7.6
-3 -7 3 142.89 11.2
2 7 -3 0.9 2.1
-2 -7 3 6.1 2.3
1 7 -3 938.91 55.69
-1 -7 3 921.61 52.09
0 7 -3 233.98 20.3
0 -7 3 232.28 15.4
0 -7 3 239.08 17.5
0 -7 3 221.08 13.4
-1 7 -3 497.45 35.7
-1 7 -3 414.76 35.6
1 -7 3 509.45 32.4
1 -7 3 496.15 32.6
-2 7 -3 109.69 14.4
2 -7 3 85.89 14.1
3 -7 3 114.59 16
4 -7 3 4.8 7.9
7 6 -3 67.89 8.2
7 6 -3 58.99 12.6
7 6 -3 59.99 12
7 6 -3 44.8 9.2
6 6 -3 84.89 13.5
6 6 -3 82.79 9
6 6 -3 81.99 13.4
5 6 -3 528.35 34.3
5 6 -3 471.85 39.4
5 6 -3 518.55 31.2
4 6 -3 1.1 1.9
4 6 -3 3.4 2.1
3 6 -3 523.25 31.2
3 6 -3 505.45 28.3
-3 -6 3 518.25 31.2
2 6 -3 -0.7 1.1
-2 -6 3 3.2 1.6
1 6 -3 51.79 6.8
-1 -6 3 44.9 5.2
0 6 -3 126.79 12.3
0 -6 3 102.39 9.6
0 -6 3 95.59 8.8
0 -6 3 96.29 6.9
-1 6 -3 288.17 26.8
-1 6 -3 350.66 26.9
1 -6 3 383.96 25.4
1 -6 3 357.16 24.7
-2 6 -3 377.26 31.7
-2 6 -3 460.95 33.7
2 -6 3 457.45 32.8
2 -6 3 419.96 30.5
-3 6 -3 60.19 11.9
-3 6 -3 66.99 10.2
3 -6 3 70.69 13.3
-4 6 -3 130.89 14.2
4 -6 3 113.79 21.1
-5 6 -3 9.1 5.7
5 -6 3 16.7 10.1
7 5 -3 190.98 16.2
7 5 -3 169.38 13.6
7 5 -3 200.18 22.4
7 5 -3 189.58 15.2
6 5 -3 0.7 4.1
6 5 -3 -0.4 2.8
6 5 -3 0.4 3.9
6 5 -3 -0.7 3.3
5 5 -3 455.25 35.3
5 5 -3 438.06 32.3
5 5 -3 468.05 28.6
4 5 -3 6.1 2.7
4 5 -3 2.3 1.5
-4 -5 3 9.6 4.1
3 5 -3 1040.5 55.59
3 5 -3 963.4 54.89
-3 -5 3 1034.7 58.69
-3 -5 3 1018.5 56.79
2 5 -3 47.9 5.5
2 5 -3 44 3.6
-2 -5 3 42.2 5.1
-2 -5 3 41.3 4.7
1 5 -3 704.93 40.2
-1 -5 3 678.53 36.3
-1 -5 3 669.63 38.2
0 5 -3 379.76 26.3
0 5 -3 333.97 28.2
0 -5 3 406.06 21.8
0 -5 3 428.26 24.9
-1 5 -3 602.64 40
-1 5 -3 544.25 40.7
1 -5 3 671.53 38.6
1 -5 3 676.33 39.9
-2 5 -3 324.57 24.8
-2 5 -3 267.37 22.9
2 -5 3 273.27 22.1
2 -5 3 285.47 24.1
-3 5 -3 80.19 14.1
-3 5 -3 82.99 10.9
3 -5 3 115.89 12.9
3 -5 3 85.89 15.4
-4 5 -3 54.99 8.5
4 -5 3 61.29 14.2
-5 5 -3 -0.3 4.2
5 -5 3 0.5 6.1
-6 5 -3 5.7 5.4
6 -5 3 -11.6 9
7 4 -3 3.2 5.5
7 4 -3 5.2 3.5
6 4 -3 13.6 4
6 4 -3 7.6 3.6
6 4 -3 13.7 6.7
6 4 -3 10.6 3.1
5 4 -3 501.55 38.5
5 4 -3 625.84 36
5 4 -3 641.34 41.9
5 4 -3 604.24 39.9
4 4 -3 81.69 10.7
4 4 -3 107.09 9
-4 -4 3 94.99 12.3
3 4 -3 835.22 49.3
3 4 -3 882.71 48
-3 -4 3 873.91 49.99
-3 -4 3 899.31 52.69
2 4 -3 127.99 8.9
2 4 -3 142.49 9.9
-2 -4 3 134.89 11.1
-2 -4 3 121.69 9.7
1 4 -3 1752.22 89.09
1 4 -3 1804.72 91.99
-1 -4 3 1683.23 90.49
-1 -4 3 1689.83 89.59
0 4 -3 29.2 6.6
0 -4 3 36.4 3.4
0 -4 3 35.2 4.5
-1 4 -3 9.9 3.4
-1 4 -3 3.7 2.8
1 -4 3 6.1 2.5
-2 4 -3 867.01 53.49
-2 4 -3 797.72 51.89
2 -4 3 956.7 52.69
-3 4 -3 959.4 61.39
-3 4 -3 968.7 57.99
3 -4 3 1043.1 64.79
-4 4 -3 4.1 2.2
4 -4 3 4.7 5.5
5 -4 3 19.4 9.6
-6 4 -3 91.99 10.6
6 -4 3 117.39 23.6
7 3 -3 4 8.1
7 3 -3 -1.2 3.5
6 3 -3 112.19 19.1
6 3 -3 119.19 12.4
5 3 -3 2.9 1.9
5 3 -3 0.6 1.4
5 3 -3 -1 2.2
5 3 -3 -0.7 4.1
4 3 -3 20.1 5.7
4 3 -3 24.9 4.9
4 3 -3 14 4.1
-4 -3 3 20.2 6.9
3 3 -3 1268.47 67.39
3 3 -3 1271.47 70.29
-3 -3 3 1220.98 72.69
2 3 -3 176.08 15.7
2 3 -3 216.38 14.2
2 3 -3 232.38 14
-2 -3 3 219.98 16.1
-2 -3 3 222.98 14.7
1 3 -3 0.9 0.6
1 3 -3 -0.1 1.3
1 3 -3 0.9 0.8
-1 -3 3 3.3 1.3
-1 -3 3 1.3 1
0 3 -3 32.8 4.4
0 3 -3 27.8 6.2
0 -3 3 35.8 4.1
0 -3 3 37.1 3.3
-1 3 -3 3613.14 182.58
-1 3 -3 3155.78 182.78
1 -3 3 3720.13 181.38
-2 3 -3 297.07 22.7
-2 3 -3 298.07 21.7
2 -3 3 326.37 22.2
-3 3 -3 62.49 7.7
-3 3 -3 54.39 9.9
3 -3 3 84.39 10.1
3 -3 3 69.59 12.7
-4 3 -3 1633.74 87.89
4 -3 3 1615.14 93.99
4 -3 3 1600.04 98.79
-5 3 -3 748.53 42.9
5 -3 3 654.63 63.29
-6 3 -3 0.8 3.4
6 -3 3 -3 6.4
-7 3 -3 10.9 5.4
7 -3 3 -15.1 9.1
7 2 -3 114.79 13.7
7 2 -3 84.69 16.8
6 2 -3 12.7 4.7
6 2 -3 6.1 6.9
5 2 -3 46.6 8.1
5 2 -3 49.1 11
-5 -2 3 53.79 12.4
4 2 -3 642.84 34.6
4 2 -3 589.04 36.7
4 2 -3 629.04 42.7
4 2 -3 672.83 38.8
-4 -2 3 662.83 45.6
3 2 -3 167.18 12.2
3 2 -3 155.58 14.7
3 2 -3 147.99 11.3
-3 -2 3 179.38 16.7
2 2 -3 1.9 1.4
2 2 -3 4.5 1.9
2 2 -3 0.3 0.8
-2 -2 3 -0.4 1.6
-2 -2 3 0.1 1
1 2 -3 151.28 10.2
1 2 -3 148.59 12.1
1 2 -3 159.58 10.1
-1 -2 3 162.28 10.4
-1 -2 3 155.08 11
0 2 -3 87.39 6.4
0 2 -3 83.69 6.8
0 2 -3 76.19 7.9
0 -2 3 92.49 6.6
0 -2 3 79.49 5.8
0 -2 3 66.09 8.1
-1 2 -3 29.4 5
-1 2 -3 27.6 4.2
1 -2 3 31.5 4.1
1 -2 3 28.9 6
-2 2 -3 581.74 35.8
-2 2 -3 599.64 34.3
2 -2 3 598.64 35.2
2 -2 3 511.45 35.4
-3 2 -3 745.03 39.6
-3 2 -3 682.73 43.1
3 -2 3 566.54 40.8
3 -2 3 699.33 42.4
-4 2 -3 117.19 10.1
4 -2 3 118.59 13.4
4 -2 3 102.39 15.2
-5 2 -3 50.49 6.6
5 -2 3 31.3 10.6
5 -2 3 45.3 11.5
-6 2 -3 460.65 31
6 -2 3 484.65 44.4
-7 2 -3 167.68 15.9
7 -2 3 197.58 27.3
7 1 -3 149.29 17
7 1 -3 135.09 19.7
6 1 -3 17.9 5
6 1 -3 12.8 6
5 1 -3 74.29 14.5
-5 -1 3 66.79 14.3
4 1 -3 -0.5 1.6
-4 -1 3 4.9 4.1
3 1 -3 834.52 49
3 1 -3 879.11 52.79
3 1 -3 898.81 45.1
-3 -1 3 820.32 54.09
2 1 -3 59.19 7.3
2 1 -3 67.79 6.4
2 1 -3 72.19 5.7
-2 -1 3 75.49 8.7
1 1 -3 24.9 3.2
1 1 -3 28.9 3.1
1 1 -3 29.8 3.5
-1 -1 3 25 3.6
-1 -1 3 21.2 2.9
-1 -1 3 25 4.3
0 1 -3 25.2 2.9
0 1 -3 26 3.6
0 1 -3 31.7 3.2
0 -1 3 30.1 3
0 -1 3 33.5 4.5
0 -1 3 29.8 2.9
-1 1 -3 61.29 5.9
-1 1 -3 61.29 5.8
1 -1 3 58.09 5.3
1 -1 3 53.49 6.3
-2 1 -3 536.45 30.1
-2 1 -3 489.35 31.2
2 -1 3 523.35 31.7
2 -1 3 494.75 30.6
-3 1 -3 0.2 1
-3 1 -3 0.1 1.9
3 -1 3 0.8 1.9
3 -1 3 -0.1 1.1
-4 1 -3 525.45 30.7
4 -1 3 515.35 34.6
4 -1 3 459.45 32
-5 1 -3 85.49 9.1
5 -1 3 67.09 9.2
5 -1 3 92.69 12.5
5 -1 3 67.29 15
-6 1 -3 18.9 5.2
6 -1 3 27.4 10.4
-7 1 -3 7.8 4.7
7 -1 3 -0.5 5.2
7 0 -3 311.07 35.4
6 0 -3 14.3 9.7
5 0 -3 79.89 15.3
4 0 -3 49.99 10.5
-4 0 3 31.6 9.4
3 0 -3 1136.89 66.19
-3 0 3 1064.59 67.49
2 0 -3 1939.11 102.89
2 0 -3 1908.61 97.79
2 0 -3 1875.11 100.29
-2 0 3 1778.62 97.89
-2 0 3 1996.4 104.99
1 0 -3 3042.3 160.18
1 0 -3 3399.06 160.08
1 0 -3 2934.31 161.28
-1 0 3 2914.01 162.38
-1 0 3 3321.47 160.28
0 0 -3 2.9 0.9
0 0 -3 2.3 1.2
0 0 -3 1.4 0.9
0 0 3 3.4 1.3
0 0 3 1.8 0.8
0 0 3 2.2 0.9
-1 0 -3 1156.18 58.39
-1 0 -3 1062.99 57.19
1 0 3 1142.29 58.39
1 0 3 1043.5 57.59
1 0 3 1028.2 56.69
-2 0 -3 656.43 36.1
-2 0 -3 613.04 36.2
2 0 3 649.74 35.9
2 0 3 600.54 35.6
-3 0 -3 30.8 4.6
3 0 3 33.2 4.8
-4 0 -3 376.66 29.7
4 0 3 458.25 29.9
4 0 3 430.86 27
-5 0 -3 52.29 7.2
5 0 3 43.1 11.6
5 0 3 46.5 9.4
5 0 3 57.39 7.6
-6 0 -3 7.6 4
6 0 3 5.4 4.2
6 0 3 9.4 5.3
-7 0 -3 6.8 4.7
7 0 3 -7.7 5.3
8 0 3 83.49 17.9
7 -1 -3 15.9 9.9
6 -1 -3 787.92 58.89
5 -1 -3 88.29 16.9
4 -1 -3 1003.9 63.69
-4 1 3 949.9 65.39
3 -1 -3 451.95 32.4
-3 1 3 414.26 33.3
2 -1 -3 309.87 23
2 -1 -3 281.97 19.4
-2 1 3 336.67 24.8
-2 1 3 339.57 17.8
1 -1 -3 491.15 30.6
1 -1 -3 532.15 31.4
-1 1 3 558.34 29.4
-1 1 3 537.95 32.9
0 -1 -3 1649.54 81.49
0 -1 -3 1476.55 83.89
0 -1 -3 1541.05 82.29
0 1 3 1688.53 83.29
0 1 3 1552.34 82.89
-2 -1 -3 1382.06 74.19
-2 -1 -3 1353.06 76.29
2 1 3 1367.76 73.49
2 1 3 1521.35 75.39
-3 -1 -3 1812.12 104.09
3 1 3 1922.81 102.99
3 1 3 2086.89 102.59
4 1 3 65.19 6.8
4 1 3 71.69 8.5
-5 -1 -3 88.39 10.7
5 1 3 102.09 12
5 1 3 119.89 16.3
5 1 3 86.49 8.9
-6 -1 -3 123.99 14.4
6 1 3 174.98 17.1
-7 -1 -3 54.99 10.3
7 1 3 44.7 15
8 1 3 -0.9 7.4
6 -2 -3 116.79 20.5
5 -2 -3 8.6 5.8
4 -2 -3 226.38 23.3
-4 2 3 242.18 25.9
3 -2 -3 60.99 11
-3 2 3 41.5 11
-3 2 3 49.2 3.8
2 -2 -3 2564.04 132.89
-2 2 3 2421.56 126.79
-2 2 3 2363.56 134.29
1 -2 -3 220.18 15.3
1 -2 -3 193.28 15.6
-1 2 3 184.88 20.4
-1 2 3 201.78 14.4
0 -2 -3 266.07 15.9
0 -2 -3 239.98 18.4
0 2 3 255.47 16.6
0 2 3 249.97 17.7
-1 -2 -3 743.73 39.6
-1 -2 -3 652.33 42.6
-1 -2 -3 731.93 37.2
1 2 3 755.42 39.2
1 2 3 728.23 42.4
-2 -2 -3 3585.54 178.68
-2 -2 -3 3299.07 183.88
2 2 3 3641.64 177.98
2 2 3 3473.45 180.78
2 2 3 3534.85 183.08
-3 -2 -3 3765.42 219.18
3 2 3 4516.95 218.18
3 2 3 4313.47 215.48
-4 -2 -3 582.64 41.2
4 2 3 728.33 39.5
4 2 3 662.43 39.8
-5 -2 -3 227.98 20.6
5 2 3 229.18 25
5 2 3 302.97 21.6
-6 -2 -3 74.39 11
6 2 3 82.19 13.9
6 2 3 57.59 14.6
6 2 3 92.59 9.1
-7 -2 -3 91.79 13
7 2 3 93.49 10.1
7 2 3 80.29 18.4
8 2 3 49 14.7
6 -3 -3 111.89 21
5 -3 -3 42.7 11.5
4 -3 -3 548.05 42.1
3 -3 -3 16.6 6.1
-3 3 3 22.8 3.7
-3 3 3 13.9 6.6
2 -3 -3 1351.96 73.09
-2 3 3 1120.79 68.59
-2 3 3 1306.07 75.49
1 -3 -3 215.98 15.6
-1 3 3 192.28 16.8
-1 3 3 189.68 16
-1 -3 -3 1015.2 50.59
-1 -3 -3 1027.1 52.69
-1 -3 -3 884.41 57.99
1 3 3 958.7 57.79
1 3 3 1013.2 52.59
2 3 3 2194.08 119.49
2 3 3 2189.28 113.89
-3 -3 -3 16.4 5.4
-4 -3 -3 318.97 27.2
4 3 3 401.66 24
4 3 3 379.46 26.6
-5 -3 -3 299.87 27
5 3 3 380.96 25.9
5 3 3 385.46 25.2
6 3 3 197.28 15.3
6 3 3 158.28 21.7
6 3 3 173.18 17.2
-7 -3 -3 49.7 11
7 3 3 81.29 17.9
7 3 3 67.29 8.4
7 3 3 77.69 14.4
8 3 3 16.1 5.3
8 3 3 11.4 9.7
5 -4 -3 401.86 36.5
4 -4 -3 150.48 19
-4 4 3 171.88 11.6
-4 4 3 148.39 11.3
3 -4 -3 66.19 12.7
-3 4 3 34.9 10.1
-3 4 3 44.4 6.9
2 -4 -3 -1.6 2
-2 4 3 1.5 3.5
-2 4 3 -1.9 2
1 -4 -3 3271.27 164.68
-1 4 3 3044.5 167.58
-1 4 3 3064.59 167.78
0 -4 -3 22.1 4
0 -4 -3 24.8 4.5
0 4 3 23.4 4.9
0 4 3 20.3 5.8
-1 -4 -3 339.77 29.1
-1 -4 -3 406.36 23.1
-1 -4 -3 409.06 22.6
1 4 3 413.46 23.7
1 4 3 397.06 29.8
2 4 3 185.38 22.3
2 4 3 202.98 12.9
-3 -4 -3 251.07 23.5
3 4 3 272.27 20.9
3 4 3 294.97 23.9
3 4 3 288.77 14.7
3 4 3 282.27 15.2
-4 -4 -3 159.68 17.9
4 4 3 173.88 17
4 4 3 179.08 12.6
-5 -4 -3 43.7 10.1
5 4 3 53.49 8.4
5 4 3 65.19 11
-6 -4 -3 239.88 25.2
6 4 3 313.07 30.2
6 4 3 330.77 23.6
6 4 3 321.67 24.2
7 4 3 173.08 22.7
7 4 3 141.29 17.4
7 4 3 153.48 14.1
8 4 3 74.39 9.2
8 4 3 81.49 18.2
5 -5 -3 69.09 15.8
4 -5 -3 80.99 15.2
-4 5 3 75.59 8.2
-4 5 3 60.69 8.5
3 -5 -3 48.3 11
3 -5 -3 49 11.1
-3 5 3 57.89 8.6
-3 5 3 42.3 11.7
2 -5 -3 2378.46 118.19
2 -5 -3 2173.88 118.19
-2 5 3 1984.5 120.39
-2 5 3 1912.71 117.19
1 -5 -3 1849.81 98.19
1 -5 -3 1760.72 96.09
-1 5 3 1739.43 100.09
-1 5 3 1708.33 101.39
0 -5 -3 840.02 46.2
0 -5 -3 781.62 44.2
0 5 3 792.32 47.5
0 5 3 741.43 51.79
-1 -5 -3 1566.44 82.39
-1 -5 -3 1562.14 82.29
1 5 3 1592.24 83.99
1 5 3 1552.24 92.89
-2 -5 -3 448.76 38
2 5 3 583.34 40.6
2 5 3 567.14 30.4
-3 -5 -3 300.77 27.8
3 5 3 358.46 29.1
-4 -5 -3 38.6 10.3
4 5 3 48.5 10.8
4 5 3 50.29 3.6
4 5 3 45.4 4.7
-5 -5 -3 87.49 13.6
5 5 3 98.09 7.7
5 5 3 104.59 13.6
5 5 3 112.19 10
6 5 3 117.79 16.9
6 5 3 102.79 12.5
6 5 3 141.79 10.9
6 5 3 128.09 15.2
7 5 3 127.49 13.9
7 5 3 134.49 12.4
7 5 3 131.69 23.2
7 5 3 118.29 15.6
8 5 3 130.89 12.5
8 5 3 108.59 12.5
8 5 3 108.69 23.1
4 -6 -3 28.3 9.5
-4 6 3 22 6.3
-4 6 3 18.4 5.8
-3 6 3 130.29 15.5
2 -6 -3 48.7 10.4
2 -6 -3 43.1 8.7
-2 6 3 44.1 10
1 -6 -3 649.04 40.3
1 -6 -3 669.23 42.4
-1 6 3 671.13 44.8
-1 6 3 637.94 46.8
0 -6 -3 1021.3 58.39
0 -6 -3 1058.49 56.39
0 6 3 1005.7 66.89
0 6 3 993.1 60.39
-1 -6 -3 51.99 5.2
-1 -6 -3 47.1 5.4
1 6 3 53.09 12.1
1 6 3 53.99 6.8
-2 -6 -3 651.33 33.6
2 6 3 680.83 48.6
2 6 3 616.64 36.2
3 6 3 2565.64 149.49
3 6 3 2671.83 136.59
4 6 3 152.38 18.4
4 6 3 137.59 11.7
4 6 3 150.78 8.5
5 6 3 8.3 1.7
5 6 3 18.1 6.9
6 6 3 128.89 12
6 6 3 100.79 8.1
6 6 3 98.89 13.9
6 6 3 64.59 14.4
7 6 3 739.73 44.7
7 6 3 807.32 52.99
7 6 3 835.32 50.49
7 6 3 799.12 59.69
8 6 3 50.49 15.4
8 6 3 82.89 11.6
8 6 3 86.79 14.1
8 6 3 73.09 8.7
4 -7 -3 332.27 28.4
-4 7 3 273.67 23.9
-4 7 3 229.48 22.2
3 -7 -3 6.7 4.6
-3 7 3 4.8 5.1
2 -7 -3 32.7 8.2
2 -7 -3 22.8 7.5
-2 7 3 33.1 10.1
-2 7 3 44.7 11.4
1 -7 -3 51.89 7.1
1 -7 -3 67.89 10.7
-1 7 3 48.6 10.9
-1 7 3 48.9 11.9
0 -7 -3 682.03 38.8
0 -7 -3 663.43 41.1
0 7 3 656.13 43.7
0 7 3 689.23 51.39
-1 -7 -3 137.69 11.1
-1 -7 -3 157.38 10.9
1 7 3 137.69 12.9
1 7 3 143.39 19.9
-2 -7 -3 406.46 21.7
2 7 3 388.36 35.7
2 7 3 380.86 24.4
3 7 3 370.16 35.2
3 7 3 404.76 23.5
4 7 3 518.35 30.2
4 7 3 504.35 42.6
5 7 3 47.8 6.8
5 7 3 74.39 15.5
5 7 3 55.39 4.5
6 7 3 8.9 5.4
6 7 3 -0.3 3.9
6 7 3 1.8 1.5
6 7 3 3.2 3.6
7 7 3 131.79 22.7
7 7 3 165.68 14.9
7 7 3 122.19 10
8 7 3 74.19 18.6
8 7 3 78.19 8
8 7 3 74.69 12.6
3 -8 -3 16.9 7.7
-3 8 3 30.5 9.6
2 -8 -3 145.39 14.9
-2 8 3 131.49 18.6
1 -8 -3 991.1 55.09
1 -8 -3 960.7 58.49
-1 8 3 899.31 60.89
-1 8 3 875.61 65.89
0 -8 -3 275.47 20.9
0 -8 -3 289.47 18.6
0 8 3 238.78 22.2
0 8 3 238.28 28.2
-1 -8 -3 76.59 7.7
-1 -8 -3 62.99 6.7
1 8 3 63.79 16.6
1 8 3 75.89 9
-2 -8 -3 1070.99 56.79
2 8 3 1056.09 60.49
2 8 3 1125.19 76.99
-3 -8 -3 25.5 2.4
3 8 3 26.7 9.5
3 8 3 22.9 4.2
4 8 3 643.74 36.5
4 8 3 653.53 53.19
5 8 3 31.4 2.7
5 8 3 29.2 5.6
5 8 3 48 14.2
6 8 3 677.93 51.79
6 8 3 793.92 42.6
6 8 3 771.72 57.79
6 8 3 731.83 40.2
7 8 3 284.67 19.9
7 8 3 254.57 27.3
7 8 3 231.28 15.7
7 8 3 202.38 25.3
2 -9 -3 1.7 3.3
-2 9 3 6.6 8.8
1 -9 -3 67.59 8.6
-1 9 3 39.8 14.6
-1 9 3 64.59 13.1
0 -9 -3 0.9 4.7
0 -9 -3 5.5 2.8
0 9 3 3 5.5
0 9 3 11.7 8.2
-1 -9 -3 919.61 50.79
-1 -9 -3 907.91 49.99
1 9 3 846.52 53.69
1 9 3 866.31 67.79
-2 -9 -3 103.09 7.8
2 9 3 115.09 19.5
2 9 3 87.59 10.2
-3 -9 -3 239.48 13
3 9 3 235.98 28.9
3 9 3 196.28 15.4
4 9 3 70.49 18.6
5 9 3 136.09 22.2
5 9 3 165.78 12
6 9 3 122.59 8
6 9 3 102.29 10.9
6 9 3 155.08 16.8
6 9 3 126.49 7.6
6 9 3 145.29 21.3
7 9 3 161.18 13.2
7 9 3 168.98 23.3
7 9 3 158.58 10.9
7 9 3 138.19 14.9
7 9 3 194.38 22.3
1 -10 -3 161.98 13.9
-1 10 3 136.39 22.2
-1 10 3 110.89 18.3
0 -10 -3 7.2 3.1
0 -10 -3 6.4 4.8
0 10 3 0.5 8
0 10 3 26.9 7.5
-1 -10 -3 28.6 5
-1 -10 -3 26.4 6.1
1 10 3 24.5 10.3
1 10 3 32.8 6.5
-2 -10 -3 53.29 5.6
2 10 3 51.79 15.1
2 10 3 40.2 7.2
-3 -10 -3 2279.47 117.29
3 10 3 2395.26 147.39
3 10 3 2223.78 120.69
4 10 3 482.05 48.5
4 10 3 505.55 29.5
5 10 3 22.8 6.6
5 10 3 55.09 15.9
5 10 3 34.4 4.6
6 10 3 180.28 14.5
6 10 3 217.28 28.1
6 10 3 225.08 21
0 -11 -3 9.7 3.8
0 11 3 13 11.5
-1 -11 -3 2.3 3.8
1 11 3 7.5 6
1 11 3 5.9 8.8
-2 -11 -3 252.47 16.4
2 11 3 229.78 17.9
2 11 3 257.17 34.2
-3 -11 -3 34.4 3.7
3 11 3 23.2 4
3 11 3 14.2 12.1
4 11 3 65.19 5.9
4 11 3 63.39 5.8
4 11 3 61.19 18.4
5 11 3 543.55 32.3
5 11 3 589.74 34.7
5 11 3 626.04 56.89
3 12 3 57.69 18
4 11 -4 135.29 17.3
3 11 -4 67.19 12.1
2 11 -4 163.18 18.1
1 11 -4 8.5 6.4
0 11 -4 152.28 20.2
5 10 -4 258.47 22.2
5 10 -4 227.28 31.1
4 10 -4 195.98 19.1
3 10 -4 143.49 16
2 10 -4 113.99 17.2
1 10 -4 14.6 7.4
0 10 -4 28.1 8.8
-1 10 -4 16 7.6
1 -10 4 5.8 2.8
1 -10 4 2.5 3.4
2 -10 4 82.99 12
6 9 -4 -0.2 2.5
6 9 -4 -3.3 3.6
6 9 -4 7.4 8.9
5 9 -4 1.8 1.5
5 9 -4 3.2 3.4
4 9 -4 565.54 39.2
3 9 -4 574.24 38.9
2 9 -4 120.19 13.6
0 9 -4 469.45 36.5
-1 9 -4 347.87 31.4
1 -9 4 351.06 24.6
-2 9 -4 -1.8 4
2 -9 4 4 5.5
3 -9 4 34.1 11.1
6 8 -4 6.6 3.9
6 8 -4 1.5 3.7
5 8 -4 38.2 7.1
4 8 -4 14.1 2.3
4 8 -4 5.3 3.5
3 8 -4 55.39 9.7
-3 -8 4 73.69 8
2 8 -4 721.63 46.2
-2 -8 4 739.53 42.6
1 8 -4 11.2 4.7
-1 -8 4 23.8 4.6
0 8 -4 3.4 4.9
0 -8 4 7.5 2.3
0 -8 4 3.6 1.2
-1 8 -4 112.59 14.8
1 -8 4 96.39 11.4
1 -8 4 99.79 11.9
-2 8 -4 487.45 40.3
2 -8 4 543.85 38.4
-3 8 -4 103.89 17.7
3 -8 4 101.99 17.4
4 -8 4 56.69 16.4
7 7 -4 -0.5 3.4
7 7 -4 3.4 5
7 7 -4 -0.9 6.6
6 7 -4 20.6 8.2
6 7 -4 12 5.2
6 7 -4 18.5 5.2
6 7 -4 15 7.8
5 7 -4 270.57 18.3
5 7 -4 199.48 21.2
4 7 -4 16.2 4.2
4 7 -4 15.7 3.1
-4 -7 4 9.2 4.5
3 7 -4 61.09 7.8
3 7 -4 62.89 5
-3 -7 4 69.59 7.7
2 7 -4 66.69 8.7
-2 -7 4 73.19 7.4
1 7 -4 510.35 41.5
1 7 -4 617.64 38.7
-1 -7 4 628.54 38
0 7 -4 183.38 17.9
0 7 -4 155.88 19.1
0 -7 4 186.38 15
0 -7 4 190.98 11.5
0 -7 4 198.58 14.2
-1 7 -4 5.1 4.2
-1 7 -4 2.1 4.6
1 -7 4 1 2.3
1 -7 4 0.1 2.9
-2 7 -4 57.69 12.5
2 -7 4 63.29 12.5
-3 7 -4 2.1 4.6
3 -7 4 -0.7 5.8
4 -7 4 292.57 30.9
7 6 -4 55.09 11.4
7 6 -4 52.59 8.9
7 6 -4 49.5 10.4
7 6 -4 70.69 9.1
6 6 -4 237.78 24.4
6 6 -4 251.67 18.7
6 6 -4 246.78 21.2
6 6 -4 219.88 20.3
5 6 -4 61.89 8.2
5 6 -4 73.59 7.7
5 6 -4 55.19 9.4
4 6 -4 160.28 12.5
4 6 -4 127.99 15.2
-4 -6 4 166.78 16.2
-4 -6 4 138.09 13.8
3 6 -4 182.58 11.8
3 6 -4 179.48 14.2
-3 -6 4 186.18 14.3
-3 -6 4 175.18 15.1
2 6 -4 994.7 52.49
2 6 -4 973.3 56.79
-2 -6 4 994.9 54.49
-2 -6 4 1023 55.19
1 6 -4 477.35 39.6
1 6 -4 608.64 37.2
-1 -6 4 605.94 31.8
-1 -6 4 618.34 34.3
0 6 -4 5 2.9
0 6 -4 8.1 4.6
0 -6 4 8.1 1.9
0 -6 4 15.9 3.8
-1 6 -4 17.2 8.7
-1 6 -4 22.8 6.5
1 -6 4 16.6 5.1
1 -6 4 24.3 5.1
-2 6 -4 92.89 15.1
-2 6 -4 106.99 13.7
2 -6 4 108.19 12.6
2 -6 4 111.49 13.8
-3 6 -4 355.66 29.4
-3 6 -4 393.36 32.6
3 -6 4 405.56 33.5
-4 6 -4 221.98 24.5
5 -6 4 17.4 10.8
7 5 -4 44.1 5.1
7 5 -4 49.3 6.6
7 5 -4 44.3 8.1
7 5 -4 36.4 11.4
6 5 -4 797.22 51.19
6 5 -4 819.22 46.6
6 5 -4 730.03 45.8
6 5 -4 744.83 51.49
5 5 -4 30.9 7.2
5 5 -4 36.5 7.7
5 5 -4 31.1 5.8
-5 -5 4 19.4 7.4
4 5 -4 44.5 5.9
4 5 -4 50.99 7
4 5 -4 40.2 8.9
-4 -5 4 54.09 10.9
3 5 -4 982.1 66.99
3 5 -4 1161.28 61.69
3 5 -4 1140.09 62.59
-3 -5 4 1227.28 64.59
-3 -5 4 1208.68 66.69
2 5 -4 277.57 18.9
2 5 -4 278.57 16.3
2 5 -4 235.28 21.8
-2 -5 4 295.07 19.2
-2 -5 4 287.07 18.2
1 5 -4 18.7 4.5
1 5 -4 13.2 5.4
-1 -5 4 8.8 2.8
-1 -5 4 10.2 2.3
0 5 -4 1214.78 68.49
0 5 -4 1081.69 71.19
0 -5 4 1234.98 63.09
0 -5 4 1268.27 66.09
-1 5 -4 11.7 4.8
-1 5 -4 2.4 2.3
1 -5 4 7.6 3.3
-2 5 -4 252.37 22.8
-2 5 -4 261.17 22.5
2 -5 4 315.07 25.1
2 -5 4 265.97 22.4
-3 5 -4 70.49 9.7
-3 5 -4 68.29 12.8
3 -5 4 59.49 13.2
3 -5 4 50.59 11.4
-4 5 -4 3.8 3.8
4 -5 4 9.3 6.8
-5 5 -4 76.59 10.1
5 -5 4 63.99 16.7
-6 5 -4 -8.6 5.4
6 -5 4 -8.8 8.5
7 4 -4 87.09 16
7 4 -4 58.19 10
6 4 -4 140.59 16.9
6 4 -4 158.48 13.3
6 4 -4 143.99 10.7
6 4 -4 152.18 13.8
5 4 -4 345.97 24.8
5 4 -4 350.26 27.8
5 4 -4 367.86 24.1
5 4 -4 354.56 27.5
-5 -4 4 353.66 37.1
4 4 -4 144.49 13.3
4 4 -4 127.09 12.6
4 4 -4 141.09 11.3
-4 -4 4 115.59 15
3 4 -4 205.98 14.3
3 4 -4 195.78 14.8
3 4 -4 189.68 16.8
-3 -4 4 225.28 16.4
-3 -4 4 192.78 17.5
2 4 -4 987.3 65.29
2 4 -4 1165.88 60.29
2 4 -4 1155.18 61.69
-2 -4 4 1153.08 61.69
-2 -4 4 1207.68 63.99
1 4 -4 382.86 29.8
1 4 -4 447.16 24.9
1 4 -4 446.96 27.1
-1 -4 4 446.96 25.5
-1 -4 4 463.45 25.9
0 4 -4 3.3 2.4
0 4 -4 6.6 2.7
0 -4 4 7.1 1.7
0 -4 4 3.3 1.8
-1 4 -4 630.14 39.1
-1 4 -4 588.94 39.9
1 -4 4 635.24 37.2
-2 4 -4 3585.04 190.68
-2 4 -4 3468.05 189.48
2 -4 4 3677.63 188.68
-3 4 -4 -0.2 2
-3 4 -4 5.5 3.7
3 -4 4 -2.3 3.5
3 -4 4 -2.9 3.5
-4 4 -4 0.4 2.5
4 -4 4 3.7 5.9
-5 4 -4 12.6 4
5 -4 4 2.7 6.1
6 -4 4 408.66 41.9
7 3 -4 60.49 13.6
7 3 -4 46.4 9.3
6 3 -4 353.26 30.9
6 3 -4 359.06 26.2
5 3 -4 84.89 7
5 3 -4 92.69 9.7
5 3 -4 87.19 9.5
5 3 -4 78.79 11.7
-5 -3 4 74.39 15
4 3 -4 186.78 17.1
4 3 -4 196.58 14.6
4 3 -4 174.18 13.8
-4 -3 4 207.18 20.4
3 3 -4 435.86 28.7
3 3 -4 434.46 28.4
3 3 -4 479.95 27.2
-3 -3 4 435.96 31.9
2 3 -4 1322.07 68.69
2 3 -4 1293.87 68.79
2 3 -4 1091.09 75.49
-2 -3 4 1339.57 69.89
-2 -3 4 1366.86 72.39
1 3 -4 358.36 20.2
1 3 -4 306.97 23.6
1 3 -4 366.86 23.8
-1 -3 4 349.87 20.8
-1 -3 4 351.26 21.2
0 3 -4 287.07 22.8
0 3 -4 316.87 23
0 -3 4 342.57 20
0 -3 4 330.47 18.8
-1 3 -4 497.95 30.4
-1 3 -4 466.75 30.8
1 -3 4 499.75 28.9
1 -3 4 427.36 27.5
-2 3 -4 1806.02 101.89
-2 3 -4 1858.11 103.39
2 -3 4 1973.5 102.09
-3 3 -4 326.67 26
-3 3 -4 331.27 23.1
3 -3 4 333.97 24.8
-4 3 -4 7.4 3
4 -3 4 21.5 6.8
4 -3 4 0.1 3.8
-5 3 -4 17.2 5
5 -3 4 14 7.4
-6 3 -4 417.46 29.6
6 -3 4 436.96 42.2
-7 3 -4 41.6 9.7
7 -3 4 -4.4 11.7
7 2 -4 25.5 10.8
7 2 -4 44.5 9.4
6 2 -4 201.58 18.9
6 2 -4 235.08 23.8
5 2 -4 116.49 15.2
5 2 -4 115.49 11.9
-5 -2 4 81.19 16.8
4 2 -4 5.1 3.9
4 2 -4 6.2 1.8
4 2 -4 9.3 3.3
-4 -2 4 10.4 4.9
3 2 -4 8.5 2.2
3 2 -4 -1.2 1.9
-3 -2 4 4.6 3.6
2 2 -4 698.23 38.8
2 2 -4 697.63 40.2
-2 -2 4 689.23 43
-2 -2 4 699.23 40.5
1 2 -4 2276.57 112.89
1 2 -4 2230.38 113.09
1 2 -4 2128.69 115.09
-1 -2 4 1878.81 116.09
-1 -2 4 2240.28 114.39
-1 -2 4 2310.07 113.29
0 2 -4 1143.39 58.89
0 2 -4 1098.29 61.29
0 2 -4 1095.69 59.39
0 -2 4 1118.19 58.29
0 -2 4 1006.8 62.69
0 -2 4 1143.29 60.39
-1 2 -4 1470.95 79.19
-1 2 -4 1509.15 79.89
1 -2 4 1526.05 77.89
1 -2 4 1475.55 77.89
1 -2 4 1332.67 81.49
-2 2 -4 1372.76 75.29
-2 2 -4 1396.06 73.79
2 -2 4 1461.35 74.09
2 -2 4 1121.89 80.49
-3 2 -4 318.87 25.7
-3 2 -4 404.26 24
3 -2 4 306.87 25.5
3 -2 4 379.36 25.6
-4 2 -4 301.57 19.9
4 -2 4 234.18 21.7
4 -2 4 274.97 22.6
-5 2 -4 16.5 4.9
5 -2 4 9.9 6.8
-6 2 -4 126.09 13.8
6 -2 4 124.69 23.9
-7 2 -4 9.8 6.3
7 -2 4 22 12.9
7 1 -4 48.5 15
6 1 -4 452.55 33.6
6 1 -4 465.35 38.8
5 1 -4 127.69 16
5 1 -4 134.09 14.6
4 1 -4 26.7 7.6
4 1 -4 27.7 6
-4 -1 4 25.3 8.4
3 1 -4 1827.22 98.79
3 1 -4 1964.8 95.49
3 1 -4 1793.62 101.99
-3 -1 4 1760.62 105.09
2 1 -4 1619.44 89.09
2 1 -4 1715.83 86.99
2 1 -4 1792.92 86.09
-2 -1 4 1685.43 91.89
-2 -1 4 1400.06 87.19
1 1 -4 183.08 12.4
1 1 -4 173.28 11.6
1 1 -4 188.68 12.4
-1 -1 4 171.88 13.4
-1 -1 4 168.28 13.7
0 1 -4 504.65 27.6
0 1 -4 432.66 26
0 1 -4 438.96 25.9
0 -1 4 443.46 26
0 -1 4 483.55 29.2
0 -1 4 456.75 25.6
-2 1 -4 3202.98 160.78
-2 1 -4 2917.61 161.38
2 -1 4 3138.99 162.98
-3 1 -4 63.49 6.9
-3 1 -4 49.2 8.4
3 -1 4 49.2 10.3
3 -1 4 51.09 6.9
-4 1 -4 204.48 15.6
4 -1 4 183.58 16.8
4 -1 4 186.58 17
-5 1 -4 5.7 3.2
5 -1 4 6.5 4.2
5 -1 4 5.6 4.6
5 -1 4 8.8 5
-6 1 -4 22.6 6.7
6 -1 4 32.1 11.3
6 -1 4 22.4 6.9
-7 1 -4 -2.9 5.3
7 -1 4 0.9 8.1
7 0 -4 10.7 9.1
7 0 -4 7.6 5.1
6 0 -4 418.86 36.7
6 0 -4 388.46 31.3
5 0 -4 7 6.3
4 0 -4 97.59 13.1
4 0 -4 88.19 10.4
-4 0 4 102.79 15
3 0 -4 695.13 40.7
3 0 -4 688.73 43.6
3 0 -4 637.84 36.7
-3 0 4 673.63 46.3
2 0 -4 3047 154.28
2 0 -4 3025.8 155.78
2 0 -4 2965.3 157.88
-2 0 4 2900.31 154.58
-2 0 4 3027.6 160.98
0 0 -4 1581.24 84.89
0 0 -4 1553.64 83.89
0 0 -4 1735.93 85.99
0 0 4 1502.15 83.99
0 0 4 1516.25 84.99
0 0 4 1852.91 86.49
-1 0 -4 2075.79 104.99
-1 0 -4 1927.51 103.19
-1 0 -4 1885.11 104.39
1 0 4 2142.79 105.19
1 0 4 1987 102.49
1 0 4 1921.31 103.49
-3 0 -4 4.3 2.6
-3 0 -4 1.4 1.5
3 0 4 2.2 1.9
3 0 4 1.7 2
-4 0 -4 153.88 13.6
4 0 4 158.08 14.2
4 0 4 145.99 13.3
-5 0 -4 12.8 4.6
5 0 4 14.7 5
5 0 4 7.6 3.8
-6 0 -4 49.5 9.7
6 0 4 46.1 9.6
6 0 4 47.5 10.4
6 0 4 39.3 11.3
-7 0 -4 104.29 13.5
7 0 4 112.39 22.3
7 0 4 90.09 12.2
6 -1 -4 -9 6
5 -1 -4 -5.3 4
4 -1 -4 178.48 19.5
-4 1 4 182.98 21.8
3 -1 -4 699.43 44.8
-3 1 4 719.83 48.1
-3 1 4 633.34 35.9
2 -1 -4 1836.92 105.89
2 -1 -4 2102.19 109.49
-2 1 4 1898.01 111.59
-2 1 4 2173.48 103.99
1 -1 -4 282.87 17.8
1 -1 -4 256.47 18.7
1 -1 -4 300.07 19.2
-1 1 4 274.37 20.5
-1 1 4 290.77 17.3
0 -1 -4 556.84 29.8
0 -1 -4 555.94 31.1
0 -1 -4 519.55 32.7
0 1 4 529.85 31.6
0 1 4 591.54 31.7
0 1 4 531.55 30.6
-1 -1 -4 2337.67 123.39
-1 -1 -4 2390.46 119.29
-1 -1 -4 2214.18 120.99
1 1 4 2407.66 120.69
1 1 4 2503.55 121.99
1 1 4 2123.29 118.69
-2 -1 -4 474.55 28.3
-2 -1 -4 485.85 31.2
2 1 4 485.75 27.4
2 1 4 533.85 29.9
-3 -1 -4 4.6 2.5
3 1 4 4.9 2.3
3 1 4 6.7 2.2
-4 -1 -4 2100.69 122.29
4 1 4 2318.67 121.29
4 1 4 2360.56 120.09
-5 -1 -4 79.79 10.1
5 1 4 98.19 9.9
5 1 4 118.59 12.3
-6 -1 -4 159.98 17.3
6 1 4 172.58 23.3
6 1 4 212.78 16.9
6 1 4 186.88 19.6
-7 -1 -4 209.58 21.6
7 1 4 272.47 31.1
7 1 4 238.18 20.3
-8 -1 -4 18.6 8.2
8 1 4 23.4 6.3
8 1 4 8.5 10.6
6 -2 -4 195.18 24.5
5 -2 -4 45.7 11.9
4 -2 -4 699.33 49.5
3 -2 -4 1215.58 74.19
-3 2 4 1182.48 77.49
-3 2 4 1297.47 64.59
2 -2 -4 4209.18 217.68
2 -2 -4 3720.83 215.08
-2 2 4 4342.57 211.98
-2 2 4 4303.87 221.58
1 -2 -4 72.49 8.5
1 -2 -4 77.89 8
-1 2 4 81.99 7.5
-1 2 4 73.19 9.4
0 -2 -4 351.96 24.9
0 -2 -4 367.76 20.8
0 -2 -4 350.06 21.7
0 2 4 378.66 23.5
0 2 4 345.57 25.4
-1 -2 -4 1522.95 91.59
-1 -2 -4 1713.03 88.29
-1 -2 -4 1700.83 85.69
1 2 4 1721.63 90.69
1 2 4 1780.92 87.99
1 2 4 1601.84 86.09
-2 -2 -4 -1.3 1.4
-2 -2 -4 -0.2 0.7
2 2 4 2.3 1.7
2 2 4 2.2 0.7
-3 -2 -4 1597.94 96.09
3 2 4 1783.02 90.69
3 2 4 1813.02 95.89
-4 -2 -4 5.1 3.1
4 2 4 1.6 1.6
4 2 4 8.5 3
-5 -2 -4 647.24 48.6
5 2 4 861.71 46.4
5 2 4 827.32 48
-6 -2 -4 532.95 41.2
6 2 4 635.44 50.49
6 2 4 659.93 38.3
6 2 4 605.04 41.6
-7 -2 -4 227.28 23.4
7 2 4 268.07 30.8
7 2 4 282.37 21.2
-8 -2 -4 13.8 9
8 2 4 18.4 6.6
8 2 4 22.6 11.7
6 -3 -4 122.09 21.5
5 -3 -4 595.34 46.9
4 -3 -4 107.19 15
3 -3 -4 314.47 26.3
-3 3 4 313.37 19.1
-3 3 4 311.67 28.7
2 -3 -4 257.67 20.3
-2 3 4 259.07 23
-2 3 4 227.58 17
1 -3 -4 25.8 6.4
1 -3 -4 35 6.4
-1 3 4 35.8 5.7
-1 3 4 56.49 8
0 -3 -4 5257.67 290.67
0 3 4 5805.62 285.17
-1 -3 -4 1174.78 72.09
-1 -3 -4 1288.57 63.79
-1 -3 -4 1214.08 66.19
1 3 4 1229.88 70.99
1 3 4 1283.37 66.59
-2 -3 -4 462.65 24.1
-2 -3 -4 416.76 31.8
2 3 4 458.65 35.7
2 3 4 454.35 23.7
2 3 4 481.25 28.8
-3 -3 -4 116.99 14.3
3 3 4 171.78 12.8
3 3 4 164.48 14.7
3 3 4 155.48 9.4
-4 -3 -4 27.4 6.7
4 3 4 33.3 4.9
4 3 4 26.6 6
-5 -3 -4 399.96 33.6
5 3 4 472.55 30.9
5 3 4 502.15 30.5
-6 -3 -4 3.1 4.1
6 3 4 -1.7 3.4
6 3 4 6.3 3.3
-7 -3 -4 56.29 12.9
7 3 4 99.19 19
7 3 4 119.79 14.2
7 3 4 81.59 9.6
-8 -3 -4 149.88 20
8 3 4 205.28 28.3
8 3 4 189.78 16.9
5 -4 -4 1.5 6.4
4 -4 -4 176.48 19.8
-4 4 4 136.99 11
-4 4 4 181.58 10.5
3 -4 -4 102.29 13.3
-3 4 4 76.09 14.6
-3 4 4 93.89 9.2
2 -4 -4 296.97 23.1
-2 4 4 274.57 21.4
-2 4 4 303.37 26.2
1 -4 -4 87.59 9.5
-1 4 4 90.39 10.8
-1 4 4 82.49 11
0 -4 -4 182.68 18.4
0 -4 -4 203.98 14
0 4 4 176.78 15.2
-1 -4 -4 129.99 15
-1 -4 -4 144.39 8.9
-1 -4 -4 139.09 10.5
1 4 4 147.69 15.1
1 4 4 134.89 10.9
-2 -4 -4 4971.8 290.07
-2 -4 -4 5627.64 283.17
2 4 4 5695.33 290.17
2 4 4 5765.12 281.77
-3 -4 -4 280.37 26.1
3 4 4 330.17 26.1
3 4 4 354.26 21.4
-4 -4 -4 0.8 2.4
4 4 4 0.2 1.1
4 4 4 2.1 2.2
-5 -4 -4 332.57 30.5
5 4 4 406.26 28.9
5 4 4 383.86 24.6
-6 -4 -4 -0.9 5.4
6 4 4 -3 3.2
6 4 4 -0.9 2.2
-7 -4 -4 25.9 9.3
7 4 4 31.4 6.9
7 4 4 26.7 11.2
7 4 4 29 8.5
8 4 4 31.7 7.2
8 4 4 25 10.9
5 -5 -4 26.7 10.2
4 -5 -4 72.49 13.7
-4 5 4 30.6 5.8
-4 5 4 43.9 5.7
-3 5 4 199.18 20.5
2 -5 -4 217.08 21.4
2 -5 -4 280.27 21.5
-2 5 4 242.48 21
-2 5 4 220.28 23.2
1 -5 -4 597.34 35.5
1 -5 -4 536.65 36.4
-1 5 4 521.15 38.4
-1 5 4 559.54 39.2
0 -5 -4 620.34 33.7
0 -5 -4 480.15 37.2
0 5 4 548.95 40
0 5 4 580.64 37.1
-1 -5 -4 182.58 12.8
-1 -5 -4 153.48 18.3
-1 -5 -4 168.38 12
1 5 4 183.68 14
1 5 4 181.38 19
-2 -5 -4 475.95 28.2
-2 -5 -4 373.06 34
2 5 4 467.15 35.4
2 5 4 493.95 27.3
-3 -5 -4 999.7 69.79
3 5 4 1187.98 60.49
3 5 4 1112.79 69.59
-4 -5 -4 4260.17 264.97
4 5 4 5259.47 256.87
4 5 4 5357.76 265.77
-5 -5 -4 298.57 30.6
5 5 4 375.26 21.3
5 5 4 405.26 30.8
5 5 4 388.76 22.9
-6 -5 -4 95.29 21.6
6 5 4 128.89 12.3
6 5 4 120.49 10.2
6 5 4 133.49 15.4
7 5 4 55.19 11.4
7 5 4 62.39 16.3
7 5 4 77.69 8.7
7 5 4 75.59 10.5
8 5 4 131.29 18.5
8 5 4 145.99 15
8 5 4 167.18 23.8
-4 6 4 224.08 18.2
3 -6 -4 4.2 4.6
-3 6 4 3 3.9
2 -6 -4 1.3 4.7
2 -6 -4 10.9 4.6
-2 6 4 4.4 5.1
-2 6 4 -2.1 5.2
1 -6 -4 139.89 12.6
1 -6 -4 130.39 13.2
-1 6 4 121.39 15.9
-1 6 4 118.19 15.7
0 -6 -4 913.01 52.59
0 -6 -4 925.41 50.69
0 6 4 884.91 55.19
0 6 4 855.21 59.49
-1 -6 -4 19 3.6
-1 -6 -4 16 3.5
1 6 4 22.7 7.7
1 6 4 19.5 4.8
-2 -6 -4 52.19 3.2
-2 -6 -4 47 5.9
-2 -6 -4 49.5 3.2
2 6 4 49.8 12
2 6 4 51.59 5.8
-3 -6 -4 275.87 29.2
3 6 4 374.96 21.5
3 6 4 350.36 31.1
4 6 4 175.68 20.6
4 6 4 181.18 14
-5 -6 -4 3.3 5.9
5 6 4 5.6 1.8
5 6 4 7.4 1.3
5 6 4 7.1 3.1
5 6 4 -2 5.2
6 6 4 561.64 32.1
6 6 4 606.54 35.2
6 6 4 598.74 43.6
7 6 4 23.2 9.9
7 6 4 12.6 6
7 6 4 26.4 4.6
7 6 4 30.1 8.4
8 6 4 -0.8 3
8 6 4 3.9 4.2
8 6 4 22.2 11.8
4 -7 -4 11 6.8
-4 7 4 6.3 5.5
-4 7 4 21.2 8
3 -7 -4 -6.6 3.9
-3 7 4 5.8 5.3
2 -7 -4 226.88 19.4
-2 7 4 192.38 22.1
1 -7 -4 20.3 5.3
1 -7 -4 25.1 7.2
-1 7 4 18.2 7.2
-1 7 4 21.8 8.3
0 -7 -4 199.88 15
0 -7 -4 191.48 16.6
0 7 4 197.38 18.7
0 7 4 198.48 23
-1 -7 -4 743.73 42.6
-1 -7 -4 784.82 42.6
1 7 4 718.83 54.79
1 7 4 723.23 45.7
-2 -7 -4 0.7 1.7
2 7 4 13.2 6.9
2 7 4 1.2 1.6
3 7 4 183.48 22.4
3 7 4 174.78 12.9
4 7 4 283.67 29.1
4 7 4 279.37 18.6
5 7 4 -4.2 4.6
5 7 4 1 2.7
6 7 4 9.1 4.6
6 7 4 4.6 2.1
6 7 4 8.8 1.6
7 7 4 10.9 4.7
7 7 4 5.4 2
7 7 4 10.4 7.1
7 7 4 3.6 4.6
8 7 4 327.27 28
8 7 4 287.47 19.7
8 7 4 321.87 25.4
8 7 4 330.27 35.3
3 -8 -4 10.1 5.2
-3 8 4 -7.6 5.9
2 -8 -4 1.5 3.6
-2 8 4 6.1 7.4
1 -8 -4 52.79 7.8
1 -8 -4 75.19 12.4
-1 8 4 49.3 13.1
-1 8 4 61.19 12.8
0 -8 -4 936.61 51.89
0 -8 -4 935.01 54.49
0 8 4 855.41 64.59
0 8 4 888.01 58.29
-1 -8 -4 29.4 5.1
-1 -8 -4 24.8 5.2
1 8 4 35.6 11.2
1 8 4 27.3 6.8
-2 -8 -4 18.5 4.3
-2 -8 -4 16.1 2.6
2 8 4 18.9 8.9
2 8 4 14.1 4.4
3 8 4 70.29 17.4
3 8 4 59.39 7
4 8 4 218.48 15.7
4 8 4 254.37 30.3
5 8 4 36.5 10.7
5 8 4 31.1 5.6
6 8 4 13.3 6.8
6 8 4 20.8 5.9
7 8 4 8.4 2
7 8 4 5.4 3.2
7 8 4 21.3 8.2
2 -9 -4 40.8 8.8
-2 9 4 39.8 11.4
1 -9 -4 19.3 5.3
-1 9 4 20.8 10.2
-1 9 4 17.9 8.3
0 -9 -4 154.28 15.8
0 -9 -4 154.58 13
0 9 4 151.98 22.5
0 9 4 164.38 17.7
-1 -9 -4 15.1 4
-1 -9 -4 13.9 4.3
1 9 4 1.6 7
1 9 4 32.4 7.3
-2 -9 -4 79.09 8.6
-2 -9 -4 84.19 6.7
2 9 4 75.09 19
2 9 4 111.69 11
3 9 4 11.5 7.3
3 9 4 5.5 3.4
4 9 4 158.98 22.7
4 9 4 119.69 10.6
5 9 4 0.3 5.3
5 9 4 7.4 2.9
6 9 4 10.4 4.1
6 9 4 7.1 6.8
7 9 4 34.5 10
7 9 4 12.5 8.8
1 -10 -4 112.89 15.4
-1 10 4 146.19 22.8
0 -10 -4 393.86 25.4
0 -10 -4 384.06 28.3
0 10 4 346.67 31.2
0 10 4 360.76 38.4
-1 -10 -4 41.8 6.9
-1 -10 -4 38.4 6.6
1 10 4 58.19 10.6
1 10 4 25.5 13.6
2 10 4 11.4 5.2
2 10 4 22.7 11.3
3 10 4 1.3 3.6
3 10 4 4.5 8.9
4 10 4 41.4 6.7
4 10 4 68.69 17
5 10 4 46.5 6.1
5 10 4 34.4 13.9
6 10 4 13.5 9.8
6 10 4 33.3 5.8
6 10 4 34.1 9.2
-1 -11 -4 378.76 25.8
1 11 4 433.96 44.6
1 11 4 398.66 30.7
-2 -11 -4 493.35 28.6
2 11 4 480.75 33.8
2 11 4 547.55 51.69
3 11 4 223.98 31.5
3 11 4 204.88 20.7
4 11 4 -1.7 7.8
5 11 4 5.4 10.8
5 11 4 14.5 4.9
3 11 -5 77.99 13.7
2 11 -5 8.4 6.9
1 11 -5 55.89 13.7
4 10 -5 125.39 15.4
3 10 -5 1029.6 64.69
2 10 -5 188.48 20.1
1 10 -5 7.9 5.9
0 10 -5 13.5 7.5
-1 10 -5 13.6 8
1 -10 5 0.7 2.2
1 -10 5 4.1 3.6
5 9 -5 20.4 5.4
5 9 -5 10.8 2.5
4 9 -5 66.49 10.7
3 9 -5 97.69 12.3
2 9 -5 37.3 8.2
1 9 -5 682.43 47.5
0 9 -5 152.38 18.7
0 -9 5 154.98 9.3
0 -9 5 151.58 8.9
-1 9 -5 43.3 11.5
1 -9 5 64.59 9.1
-2 9 -5 139.79 22.3
2 -9 5 124.59 13.7
2 -9 5 189.98 18.2
6 8 -5 114.89 10.8
6 8 -5 84.79 19.1
6 8 -5 110.79 11.9
5 8 -5 6.2 2.7
5 8 -5 0.6 3.3
4 8 -5 6.9 1.9
4 8 -5 7.4 3.7
3 8 -5 287.77 30.3
2 8 -5 31.9 7.8
1 8 -5 86.79 11.6
0 8 -5 174.58 18.5
0 -8 5 179.28 13.7
0 -8 5 170.18 10.9
-1 8 -5 1258.07 79.89
1 -8 5 1264.77 74.39
1 -8 5 1326.17 69.39
-2 8 -5 304.77 29.7
2 -8 5 325.27 27.3
-3 8 -5 15.8 7.4
3 -8 5 11.5 7.2
6 7 -5 12.6 8
6 7 -5 14 4.6
6 7 -5 25.6 8.9
6 7 -5 13.4 4.9
5 7 -5 0.1 2.2
5 7 -5 0.7 2
5 7 -5 19.7 6.6
4 7 -5 20.4 7.8
4 7 -5 17.7 4.5
3 7 -5 41.3 10.9
3 7 -5 57.09 5.1
3 7 -5 56.09 8.8
-3 -7 5 54.39 7.6
-3 -7 5 41.3 7.2
2 7 -5 8.8 6.9
2 7 -5 3.5 3.6
-2 -7 5 3.9 2.8
-2 -7 5 4.1 2.8
1 7 -5 101.09 14.4
1 7 -5 148.49 13.9
-1 -7 5 100.19 9.8
-1 -7 5 105.49 8.2
0 7 -5 230.88 21.8
0 -7 5 267.87 15.7
0 -7 5 261.67 19.3
-1 7 -5 65.49 14
1 -7 5 55.09 6.2
1 -7 5 48.6 9.2
-2 7 -5 11.9 7.3
2 -7 5 15.9 6.8
-3 7 -5 723.33 53.89
3 -7 5 789.42 54.99
4 -7 5 86.39 18.2
6 6 -5 12.9 5.6
6 6 -5 5.1 5.7
6 6 -5 8.3 6.3
6 6 -5 10.8 4
5 6 -5 156.98 17.4
5 6 -5 164.08 15
5 6 -5 201.78 15.3
-5 -6 5 169.98 20
4 6 -5 45.4 7.4
4 6 -5 38 5.3
-4 -6 5 22.5 8
3 6 -5 234.48 17.5
3 6 -5 222.38 14.6
-3 -6 5 209.18 21.3
-3 -6 5 232.98 17.5
2 6 -5 490.35 27.7
2 6 -5 377.66 45.7
2 6 -5 501.95 31.7
-2 -6 5 523.25 30.6
1 6 -5 11.3 4.4
1 6 -5 5.9 3.9
-1 -6 5 9 2.2
-1 -6 5 6.4 2.5
0 6 -5 524.15 40.9
0 6 -5 598.44 38.8
0 -6 5 586.74 32
0 -6 5 591.84 35.3
-1 6 -5 150.28 16.5
-1 6 -5 152.08 17.5
1 -6 5 154.08 12
1 -6 5 175.88 14.3
-2 6 -5 171.28 18.6
-2 6 -5 191.18 20
2 -6 5 184.98 19.4
-3 6 -5 -2.7 3.8
3 -6 5 6.7 5.7
4 -6 5 85.39 16.7
5 -6 5 297.07 33.1
7 5 -5 8.6 6.1
7 5 -5 3.1 2.9
7 5 -5 16.7 4.6
7 5 -5 9.9 3.5
6 5 -5 16.9 4.6
6 5 -5 18.7 4.6
6 5 -5 16.4 6.6
6 5 -5 22.4 7
5 5 -5 106.09 10
5 5 -5 77.59 10.4
5 5 -5 109.59 11.8
-5 -5 5 127.19 17.5
4 5 -5 80.09 11
4 5 -5 109.99 10.3
4 5 -5 105.19 9.7
-4 -5 5 80.29 13.7
3 5 -5 671.63 46.9
3 5 -5 674.13 46.4
3 5 -5 748.93 42.3
-3 -5 5 776.02 46.6
-3 -5 5 745.53 44.9
2 5 -5 369.96 23.4
2 5 -5 347.57 20.6
2 5 -5 322.87 26.7
-2 -5 5 332.67 23.5
-2 -5 5 346.97 22.4
1 5 -5 605.74 43
1 5 -5 656.43 39.6
-1 -5 5 649.14 36.7
-1 -5 5 671.43 37.4
0 5 -5 26.6 5.9
0 5 -5 26.7 7.3
0 -5 5 36.5 3.9
0 -5 5 43.3 5.4
-1 5 -5 70.59 10.3
-1 5 -5 60.49 10.5
1 -5 5 62.39 8
1 -5 5 71.29 6.9
-2 5 -5 56.59 10.4
-2 5 -5 76.69 12.9
2 -5 5 66.19 8.9
-3 5 -5 532.25 37.1
-3 5 -5 541.85 41
3 -5 5 556.14 42.4
-4 5 -5 -2.6 2.8
-4 5 -5 1.5 5
4 -5 5 -3.8 5.3
5 -5 5 2.7 7
7 4 -5 -3.5 4.5
7 4 -5 -8.6 5.7
6 4 -5 58.39 9.3
6 4 -5 45.2 4.8
6 4 -5 32.3 6.9
6 4 -5 49.2 10.5
5 4 -5 0.3 1.6
5 4 -5 5 2.4
5 4 -5 -3.1 3.3
-5 -4 5 -0.8 6.5
4 4 -5 23.9 5
4 4 -5 24.6 5.5
4 4 -5 21.2 5.5
-4 -4 5 24.1 7.2
3 4 -5 65.09 7.3
3 4 -5 69.89 7.4
3 4 -5 73.89 9.3
-3 -4 5 80.29 8.9
-3 -4 5 67.09 9.8
2 4 -5 0.7 1.6
2 4 -5 -0.1 2
2 4 -5 3.3 1.8
-2 -4 5 -0.6 1.5
1 4 -5 2377.46 120.59
1 4 -5 2158.48 124.09
1 4 -5 2309.07 118.19
-1 -4 5 2256.57 118.99
-1 -4 5 2260.07 118.89
0 4 -5 30.6 6
0 4 -5 32.1 7.2
0 -4 5 30.1 3.7
0 -4 5 30.4 4.9
-1 4 -5 51.39 8.8
-1 4 -5 48.5 9.4
1 -4 5 53.29 6.5
1 -4 5 50.79 5.9
-2 4 -5 145.19 14.6
-2 4 -5 133.79 13.6
2 -4 5 132.99 13
-3 4 -5 7.3 3.8
-3 4 -5 13.8 4.6
3 -4 5 20 5.4
-4 4 -5 8.5 6.2
-4 4 -5 12.3 4.3
4 -4 5 2.6 5.6
-5 4 -5 288.97 22.2
5 -4 5 289.77 32.1
-6 4 -5 48.4 10
6 -4 5 29.3 12
7 3 -5 262.07 26.6
7 3 -5 275.47 27.9
6 3 -5 87.29 10.8
6 3 -5 94.69 13.8
5 3 -5 1.7 2.3
5 3 -5 1.1 1.6
5 3 -5 7.8 4.4
5 3 -5 4 2.9
4 3 -5 75.09 8.2
4 3 -5 80.89 8.3
4 3 -5 86.39 10.5
-4 -3 5 84.89 15.5
3 3 -5 13.5 4.1
3 3 -5 13.4 3.5
3 3 -5 16 4.2
-3 -3 5 13.1 5
2 3 -5 74.99 7.1
2 3 -5 63.59 7.8
2 3 -5 80.79 7.2
-2 -3 5 73.39 9
-2 -3 5 74.39 7.8
1 3 -5 1038.6 63.09
1 3 -5 1130.69 59.59
1 3 -5 1110.49 60.69
-1 -3 5 1098.99 59.99
-1 -3 5 1166.18 61.19
0 3 -5 1405.76 71.79
0 3 -5 1326.17 73.69
0 3 -5 1293.97 70.19
0 -3 5 1350.56 69.09
0 -3 5 1252.37 69.39
0 -3 5 1176.88 75.29
-1 3 -5 546.75 34.1
-1 3 -5 508.45 32.9
1 -3 5 535.35 31.3
1 -3 5 536.15 30.7
1 -3 5 472.15 35.9
-2 3 -5 385.06 26.1
-2 3 -5 363.96 26.7
2 -3 5 346.97 28.5
2 -3 5 377.46 25.1
-3 3 -5 100.79 10.3
-3 3 -5 100.49 12.1
3 -3 5 89.19 10.3
3 -3 5 65.59 10.9
-4 3 -5 87.49 9.9
-4 3 -5 89.69 14.9
4 -3 5 95.19 11.7
-5 3 -5 0.5 3.1
5 -3 5 1.5 4.8
-6 3 -5 14.3 5.7
6 -3 5 7.7 7.5
7 2 -5 8.7 5
6 2 -5 9.2 7.1
6 2 -5 7.1 4.1
5 2 -5 954.1 56.59
4 2 -5 473.25 26.6
4 2 -5 502.85 33.8
4 2 -5 472.25 29.8
-4 -2 5 361.06 40.6
3 2 -5 638.74 37.1
3 2 -5 618.14 39.1
3 2 -5 648.04 36
-3 -2 5 609.44 43.1
2 2 -5 1503.75 96.99
2 2 -5 1876.51 94.39
2 2 -5 1847.22 93.09
-2 -2 5 1814.02 97.99
-2 -2 5 1757.22 95.09
1 2 -5 1350.06 71.09
1 2 -5 1377.76 71.09
1 2 -5 1329.27 72.89
-1 -2 5 1186.58 75.09
-1 -2 5 1345.37 74.09
-1 -2 5 1405.86 71.49
0 2 -5 599.74 33.3
0 2 -5 543.05 30.9
0 2 -5 515.75 31.8
0 -2 5 524.75 30.1
0 -2 5 545.55 30.4
0 -2 5 403.26 43.9
-1 2 -5 358.56 24.3
-1 2 -5 390.66 24.4
1 -2 5 379.96 22.9
1 -2 5 373.16 22.7
1 -2 5 350.36 27
-2 2 -5 111.19 11.4
-2 2 -5 121.19 11
2 -2 5 108.69 12.7
2 -2 5 139.09 11.1
-3 2 -5 278.57 22.6
-3 2 -5 316.67 21
3 -2 5 262.97 23.3
3 -2 5 284.07 21.3
-4 2 -5 89.99 9.6
-4 2 -5 96.79 12.6
4 -2 5 88.39 11.7
-5 2 -5 -0.8 2.7
5 -2 5 2.5 4.2
-6 2 -5 65.79 11.5
6 -2 5 44.6 15.7
-7 2 -5 152.38 18.1
7 -2 5 185.38 26.8
6 1 -5 -4.2 3.9
6 1 -5 8.8 4.4
5 1 -5 182.88 17.4
5 1 -5 209.08 21.5
4 1 -5 2.9 3.4
4 1 -5 -1.5 1.7
4 1 -5 2.3 1.4
-4 -1 5 -5.6 4
3 1 -5 580.04 38
3 1 -5 574.74 35.3
3 1 -5 607.34 33.5
-3 -1 5 588.64 42.1
2 1 -5 608.34 35.2
2 1 -5 662.03 35
2 1 -5 647.54 37.3
-2 -1 5 605.34 39.9
-2 -1 5 534.65 36.6
1 1 -5 543.25 29
1 1 -5 487.85 28.5
1 1 -5 465.95 27.6
-1 -1 5 451.65 29.9
-1 -1 5 459.05 30.7
-1 -1 5 470.55 28.6
0 1 -5 2066.29 111.19
0 1 -5 2387.46 113.29
0 1 -5 2013.5 111.49
0 -1 5 1996.8 110.59
0 -1 5 2236.08 115.59
-1 1 -5 3154.18 156.98
-1 1 -5 3149.19 156.28
1 -1 5 2974.6 155.18
1 -1 5 2996.8 159.18
1 -1 5 2755.12 154.38
-2 1 -5 343.47 23.3
-2 1 -5 370.36 22.9
2 -1 5 335.17 24.4
2 -1 5 317.97 22.1
2 -1 5 315.67 21.1
-3 1 -5 114.49 10.7
-3 1 -5 115.69 12
3 -1 5 110.09 10.4
3 -1 5 104.49 12
-4 1 -5 2.3 2.4
-4 1 -5 2.2 2.3
4 -1 5 -1.3 2.3
4 -1 5 0.4 2.8
-5 1 -5 -2.5 3.3
5 -1 5 0.1 3.3
5 -1 5 -1.3 4.5
-6 1 -5 31.9 7.9
6 -1 5 9.4 4.8
6 -1 5 10.1 9.3
-7 1 -5 146.39 17.7
7 -1 5 111.79 23
6 0 -5 -7.2 3.9
6 0 -5 3.9 4
5 0 -5 457.85 36.8
5 0 -5 452.95 32.9
4 0 -5 1.3 3.8
4 0 -5 0.8 1.8
-4 0 5 1.2 3.3
3 0 -5 50.99 9.6
3 0 -5 57.19 7.2
3 0 -5 57.19 6.1
-3 0 5 49.2 10.8
2 0 -5 1.3 2.3
2 0 -5 1.8 1.7
2 0 -5 0.3 1.6
-2 0 5 5.6 2.8
-2 0 5 18 5.4
1 0 -5 583.64 32.5
1 0 -5 548.45 32.3
-1 0 5 527.45 34.2
-1 0 5 573.64 32.8
-1 0 5 483.15 32
0 0 -5 1701.43 87.59
0 0 -5 1749.22 90.09
0 0 -5 1658.53 88.69
0 0 5 1638.34 89.09
0 0 5 1881.01 90.59
0 0 5 1460.35 87.39
-1 0 -5 33.1 4.8
-1 0 -5 47.4 5.7
1 0 5 42.1 4.7
1 0 5 47 5.9
1 0 5 36.6 3.8
-2 0 -5 1247.58 67.79
-2 0 -5 1306.87 69.29
2 0 5 1208.88 67.79
2 0 5 1246.48 66.19
2 0 5 1196.88 70.59
-3 0 -5 2942.01 151.38
-3 0 -5 2757.32 150.98
3 0 5 2921.01 150.98
3 0 5 2768.32 148.89
-4 0 -5 81.89 10.4
-4 0 -5 79.19 9.7
4 0 5 92.49 10.2
4 0 5 85.69 9.9
-5 0 -5 185.48 16.8
5 0 5 161.28 16.1
5 0 5 185.48 17.1
-6 0 -5 -7.6 3.4
6 0 5 2.5 3.8
6 0 5 8.5 6.8
-7 0 -5 147.09 17.7
7 0 5 170.38 24.8
7 0 5 156.18 16.9
6 -1 -5 17.5 9.4
6 -1 -5 23.3 7.2
5 -1 -5 9.4 5.8
5 -1 -5 21.3 8.8
4 -1 -5 43.2 9.9
4 -1 -5 32.8 7.6
3 -1 -5 950.1 54.79
3 -1 -5 1016 57.49
3 -1 -5 1036.4 60.59
-3 1 5 980.9 53.09
-3 1 5 889.91 71.39
2 -1 -5 7.8 3.2
2 -1 -5 12.7 4
2 -1 -5 14.4 3.8
-2 1 5 14.6 3.1
-2 1 5 16.2 5
1 -1 -5 6.2 2.4
1 -1 -5 8.2 3.3
-1 1 5 8.1 2.6
-1 1 5 6.2 2.7
0 -1 -5 205.08 15.9
0 -1 -5 185.78 13.7
0 -1 -5 196.68 12.6
0 1 5 235.38 14.8
0 1 5 200.78 14.6
0 1 5 186.58 13.4
-1 -1 -5 482.25 31.2
-1 -1 -5 488.75 27.2
-1 -1 -5 463.65 29
1 1 5 477.65 28.4
1 1 5 482.65 26.8
1 1 5 528.35 29.9
-2 -1 -5 1554.44 80.89
-2 -1 -5 1557.64 84.89
2 1 5 1607.34 79.49
2 1 5 1377.26 86.19
2 1 5 1509.75 81.69
-3 -1 -5 648.54 42
-3 -1 -5 643.24 39.3
3 1 5 664.03 37.8
3 1 5 713.83 40.1
-4 -1 -5 530.05 37.2
4 1 5 549.54 34.3
4 1 5 592.74 35.2
-5 -1 -5 230.58 21.3
5 1 5 265.27 20.6
5 1 5 264.57 20
-6 -1 -5 53.89 11
6 1 5 60.09 9.5
6 1 5 72.69 12.5
-7 -1 -5 3.9 6.8
7 1 5 14.1 6
7 1 5 7.6 8.3
8 1 5 -5.3 6.8
8 1 5 10.2 5.7
6 -2 -5 9.3 7.6
5 -2 -5 34.4 10
4 -2 -5 33.7 8.8
3 -2 -5 340.27 26.9
-3 2 5 344.77 20
-3 2 5 307.97 29.3
2 -2 -5 128.49 13.1
2 -2 -5 161.08 14.6
-2 2 5 154.38 10.8
-2 2 5 159.28 16.7
1 -2 -5 549.05 38.7
1 -2 -5 650.83 37.6
1 -2 -5 609.34 36
-1 2 5 649.14 40.8
-1 2 5 662.73 36.4
0 -2 -5 124.49 10
0 -2 -5 124.99 8.7
0 -2 -5 100.39 12.3
0 2 5 115.89 10.9
0 2 5 141.49 11.2
-1 -2 -5 0.9 1.4
-1 -2 -5 4.6 1.2
-1 -2 -5 7.4 3.5
1 2 5 2.1 1
1 2 5 0.4 1.2
1 2 5 1.9 1.1
-2 -2 -5 58.29 4.9
-2 -2 -5 49.9 7.5
2 2 5 48.8 6.5
2 2 5 43.2 5.3
2 2 5 48.3 3.9
-3 -2 -5 727.63 41.6
-3 -2 -5 671.03 46.3
3 2 5 729.13 43.4
3 2 5 734.53 40
3 2 5 807.82 44.4
-4 -2 -5 172.48 17.9
4 2 5 186.98 14.2
4 2 5 220.18 16.3
-5 -2 -5 297.47 25.7
5 2 5 309.97 22.4
5 2 5 321.07 22.7
-6 -2 -5 72.69 11.5
6 2 5 91.39 11.3
6 2 5 94.09 10.4
-7 -2 -5 80.09 16
7 2 5 60.89 17.3
7 2 5 104.99 12.1
-8 -2 -5 33.6 11.5
8 2 5 3.5 6.6
5 -3 -5 -1.2 6.4
4 -3 -5 4.3 4.4
3 -3 -5 629.54 42.9
-3 3 5 561.14 46.4
-3 3 5 645.14 34.7
2 -3 -5 170.58 15.6
-2 3 5 144.19 17
-2 3 5 152.78 12.1
1 -3 -5 57.99 7
1 -3 -5 52.49 8.4
-1 3 5 53.79 10.1
-1 3 5 48.5 6.6
0 -3 -5 310.47 20.3
0 -3 -5 321.57 25.2
0 -3 -5 331.97 19.3
0 3 5 317.07 23.3
0 3 5 278.77 21.6
-1 -3 -5 156.48 11.9
-1 -3 -5 157.08 9.6
-1 -3 -5 153.48 15.9
1 3 5 169.38 14.7
1 3 5 155.38 12
-2 -3 -5 99.19 6.8
-2 -3 -5 94.99 12.2
-2 -3 -5 100.89 9.6
2 3 5 99.99 6.5
2 3 5 106.99 8.9
2 3 5 104.19 11.3
-3 -3 -5 251.07 23.3
3 3 5 300.17 19.8
3 3 5 290.87 22
3 3 5 291.37 15.9
-4 -3 -5 101.89 13.5
4 3 5 127.19 12.6
4 3 5 115.49 8.9
-5 -3 -5 133.69 16.9
5 3 5 162.38 13.4
5 3 5 174.18 15.2
-6 -3 -5 -0.7 4
6 3 5 0 3.2
6 3 5 -0.6 3.2
-7 -3 -5 157.38 20.3
7 3 5 163.98 15.7
7 3 5 159.78 18.3
7 3 5 132.09 24
-8 -3 -5 7.7 8.8
8 3 5 1.4 10.8
8 3 5 7.1 5.2
5 -4 -5 -8.8 4.6
-4 4 5 3.8 1.6
3 -4 -5 14.2 9.5
-3 4 5 7.2 3
2 -4 -5 37.9 8
-2 4 5 34.3 5.8
-2 4 5 30.2 8.8
1 -4 -5 800.42 46.2
1 -4 -5 665.43 49.7
-1 4 5 845.22 48.6
-1 4 5 774.72 50.49
0 -4 -5 79.69 11.9
0 -4 -5 90.89 8.6
0 4 5 100.89 11.5
0 4 5 93.19 9.8
-1 -4 -5 0.6 0.8
-1 -4 -5 0.8 1.4
1 4 5 -1.2 1.1
1 4 5 0.2 2.1
-2 -4 -5 16.2 4
-2 -4 -5 12.6 5.4
-2 -4 -5 12 1.4
2 4 5 7.1 2.5
2 4 5 8.6 4.3
-3 -4 -5 30.7 8.3
3 4 5 35.5 8
3 4 5 33.6 5.7
-4 -4 -5 146.59 18.2
4 4 5 183.28 15.3
4 4 5 199.18 11.4
4 4 5 210.28 18.6
-5 -4 -5 187.58 21.9
5 4 5 244.48 15.9
5 4 5 242.68 20.6
-6 -4 -5 151.28 19.7
6 4 5 192.58 15.3
6 4 5 169.28 16.2
-7 -4 -5 6.2 6.7
7 4 5 1.9 5.6
7 4 5 4.8 3.7
-8 -4 -5 -5.5 9.3
8 4 5 -9.4 10
8 4 5 -5.6 3.6
4 -5 -5 -5.5 3.9
-4 5 5 0.8 1.8
3 -5 -5 108.99 13.8
-3 5 5 87.49 11.6
2 -5 -5 9.8 3.9
-2 5 5 2 3
-2 5 5 -1.1 5.9
1 -5 -5 3.3 2
-1 5 5 3.9 3.2
-1 5 5 -3.3 3.7
0 -5 -5 4.9 4.1
0 -5 -5 10.2 3.1
0 5 5 6 3.8
0 5 5 5.5 4.3
-1 -5 -5 1553.94 79.69
-1 -5 -5 1608.94 82.39
-1 -5 -5 1311.17 90.69
1 5 5 1572.54 84.29
1 5 5 1570.84 90.79
-2 -5 -5 -2.9 2.6
-2 -5 -5 3.8 2.2
2 5 5 2.1 1.6
2 5 5 3.3 2.3
-3 -5 -5 2.8 3.8
3 5 5 6.4 4
3 5 5 5.2 2.1
-4 -5 -5 364.66 35
4 5 5 478.15 35.2
4 5 5 478.25 29
-5 -5 -5 29.3 9.3
5 5 5 45.9 4.4
5 5 5 40.9 3.9
5 5 5 52.09 9.1
5 5 5 55.99 9.4
-6 -5 -5 13.6 6.9
7 5 5 17 5.7
8 5 5 48 11
8 5 5 26.4 12.4
8 5 5 45.8 9.4
4 -6 -5 2.2 5.7
-4 6 5 -3.2 4.6
3 -6 -5 338.57 27.5
-3 6 5 278.37 23.2
2 -6 -5 29.8 8.4
2 -6 -5 18.4 6.4
-2 6 5 15.7 6.2
1 -6 -5 80.69 9.6
1 -6 -5 74.19 10.3
-1 6 5 87.39 12.8
-1 6 5 80.79 15.1
0 -6 -5 41.6 5.7
0 -6 -5 32.6 6.7
0 6 5 46.1 9.3
0 6 5 37.1 9.6
-1 -6 -5 136.99 11.1
-1 -6 -5 142.49 11.5
1 6 5 152.18 18
1 6 5 132.59 13
-2 -6 -5 467.75 28.4
-2 -6 -5 375.76 36
-2 -6 -5 443.76 22.6
-2 -6 -5 443.86 22.9
2 6 5 437.26 27.8
2 6 5 462.65 36.8
-3 -6 -5 845.22 66.19
3 6 5 1067.69 67.29
3 6 5 1061.09 55.59
-4 -6 -5 72.99 15.2
4 6 5 90.59 9
4 6 5 85.89 13.8
-5 -6 -5 55.79 13.1
5 6 5 78.29 9.3
5 6 5 86.49 12.8
6 6 5 113.89 7.7
6 6 5 117.39 8.8
6 6 5 122.99 13.3
6 6 5 127.89 16.1
7 6 5 5.7 3.9
7 6 5 6.8 5.3
8 6 5 9.4 12.6
8 6 5 35 9
8 6 5 36.5 6.4
8 6 5 23.3 7.4
3 -7 -5 247.78 23.3
-3 7 5 240.38 22.1
2 -7 -5 41.8 8.9
-2 7 5 48.3 10.5
1 -7 -5 143.09 18.3
1 -7 -5 156.88 13.6
-1 7 5 122.59 16.6
-1 7 5 112.69 16.7
0 -7 -5 2.1 2.2
0 -7 -5 0.9 3.3
0 7 5 -4.1 2.7
0 7 5 9.4 5.1
-1 -7 -5 123.59 10.7
-1 -7 -5 115.49 10.6
1 7 5 124.89 13.5
1 7 5 141.99 18.4
-2 -7 -5 534.65 32
-2 -7 -5 516.55 26.7
-2 -7 -5 504.95 26.9
2 7 5 442.06 40.3
2 7 5 521.15 32.6
3 7 5 30.8 9.1
3 7 5 44.6 5.6
4 7 5 1.3 4.7
4 7 5 5.6 2.1
5 7 5 796.22 47.1
6 7 5 1.6 4
6 7 5 -2.8 4.2
7 7 5 66.99 5.2
7 7 5 67.99 6.6
7 7 5 79.49 13.2
8 7 5 10.6 10
8 7 5 24.1 8.7
2 -8 -5 -1 3.3
-2 8 5 2.3 5
1 -8 -5 155.98 14.2
1 -8 -5 136.29 17.1
-1 8 5 135.49 19.1
0 -8 -5 1009.3 60.79
0 -8 -5 1049.79 58.69
0 8 5 1040 71.29
0 8 5 1001.6 65.99
-1 -8 -5 61.69 7.3
-1 -8 -5 47.6 6.3
1 8 5 50.09 10.5
1 8 5 55.79 14.2
-2 -8 -5 263.37 15.3
-2 -8 -5 273.07 19.7
2 8 5 315.67 41.4
2 8 5 256.47 20.6
3 8 5 0.2 2.9
3 8 5 15.1 8.3
4 8 5 7.6 6.6
4 8 5 4.7 2.2
5 8 5 32.7 6.2
5 8 5 18.9 9.7
6 8 5 2.4 7.1
6 8 5 0 3.9
7 8 5 286.47 29.9
2 -9 -5 170.48 16.8
-2 9 5 162.98 20.9
1 -9 -5 4.8 4
-1 9 5 3.8 7.5
0 -9 -5 243.38 20.8
0 -9 -5 263.37 18.4
0 9 5 223.08 27.8
0 9 5 184.88 22.4
-1 -9 -5 199.18 15.9
-1 -9 -5 198.88 15.7
1 9 5 228.08 26.8
1 9 5 203.48 20.4
-2 -9 -5 322.07 22.8
-2 -9 -5 319.67 18.5
2 9 5 310.77 25
2 9 5 350.86 36.1
3 9 5 26 5.6
3 9 5 12 8
4 9 5 62.99 7.5
4 9 5 31.2 12
5 9 5 9.3 3.3
5 9 5 7.3 6.7
6 9 5 1.9 3.9
6 9 5 5.8 8.1
7 9 5 28.8 12.8
0 -10 -5 8.8 6.8
0 -10 -5 25.3 5.8
0 10 5 12.2 9.8
-1 -10 -5 29.1 5.3
-1 -10 -5 23.3 6
1 10 5 11.9 8.3
-2 -10 -5 -2.2 3.1
-2 -10 -5 6.6 2
2 10 5 -6.5 5.1
2 10 5 4.9 6.5
3 10 5 341.87 37.8
3 10 5 329.67 25
4 10 5 177.68 15.3
4 10 5 183.28 27.3
6 10 5 140.89 21.9
6 10 5 99.49 10.3
-1 -11 -5 3.1 5.8
-1 -11 -5 6.8 4.3
1 11 5 10.7 9.5
1 11 5 8.7 9.8
2 11 5 49.2 10.6
2 11 5 65.79 17.4
3 11 5 242.78 21.4
3 11 5 290.37 35.9
4 11 5 21 17.3
4 11 5 -13 4.8
5 11 5 63.49 9.5
5 11 5 77.69 20.4
4 10 -6 129.59 15.7
3 10 -6 3.1 5.3
2 10 -6 1.8 5
1 10 -6 28.9 8.5
0 10 -6 73.89 15.7
1 -10 6 -1.7 2.8
1 -10 6 -0.8 4
5 9 -6 4.1 5.1
4 9 -6 400.26 30.5
3 9 -6 4.5 3.8
2 9 -6 86.49 14.5
1 9 -6 -1.7 3.4
0 9 -6 11.6 7.7
0 -9 6 16.4 3
0 -9 6 12.9 3.8
-1 9 -6 14 8.2
1 -9 6 36.8 5.1
-2 9 -6 166.28 22
2 -9 6 151.68 18
2 -9 6 141.69 13.6
5 8 -6 168.08 16.2
5 8 -6 173.28 13.1
4 8 -6 3.6 3
4 8 -6 0.1 1.9
3 8 -6 217.48 19.2
-3 -8 6 194.48 15.1
2 8 -6 914.51 55.59
-2 -8 6 845.92 47.1
1 8 -6 34.7 8.2
-1 -8 6 25.2 4
0 8 -6 68.39 13.5
0 -8 6 65.99 6.2
0 -8 6 76.89 9
-1 8 -6 4.9 4.3
1 -8 6 12 5.8
1 -8 6 7.3 3
-2 8 -6 7.3 7.1
2 -8 6 5.1 4
2 -8 6 12.7 6.4
-3 8 -6 -10.1 6.2
3 -8 6 8.3 7.1
6 7 -6 261.47 19.5
6 7 -6 207.48 25.9
6 7 -6 231.08 21.6
6 7 -6 249.18 20.1
5 7 -6 9.2 4
5 7 -6 0.9 3.2
-5 -7 6 13.7 8.4
4 7 -6 6.7 4.4
4 7 -6 14.4 3.6
-4 -7 6 14 7
3 7 -6 290.47 21.8
3 7 -6 265.37 17.4
2 7 -6 -1.3 2.2
-2 -7 6 2.5 2.9
1 7 -6 254.97 22
-1 -7 6 274.67 17.7
0 -7 6 1164.48 62.19
-1 7 -6 12.3 5.4
-2 7 -6 96.19 16.7
2 -7 6 108.49 15.1
2 -7 6 101.29 11.1
-3 7 -6 44.3 10.9
3 -7 6 34.9 11.3
-4 7 -6 0.8 6.9
4 -7 6 3.8 9
6 6 -6 98.09 11.1
6 6 -6 102.49 15.7
6 6 -6 102.49 11.8
6 6 -6 97.99 12.5
5 6 -6 1.7 3
5 6 -6 -2.3 2.3
5 6 -6 2.6 6
-5 -6 6 10.8 9.4
4 6 -6 567.74 34.5
4 6 -6 558.44 40.3
4 6 -6 595.24 36.5
-4 -6 6 601.64 41.8
3 6 -6 -0.8 1.8
3 6 -6 5.1 3
3 6 -6 0 4.6
-3 -6 6 -1.2 3.7
2 6 -6 -1 3.3
2 6 -6 3 1.6
2 6 -6 2 3.1
-2 -6 6 8 3.7
-2 -6 6 6.4 2.8
1 6 -6 732.63 45.2
1 6 -6 648.14 48.2
-1 -6 6 737.83 41.2
-1 -6 6 738.43 41.9
0 6 -6 17.9 6.1
0 6 -6 22.1 6.4
0 -6 6 14 3.9
-1 6 -6 811.22 52.49
1 -6 6 794.82 45.1
-2 6 -6 1220.78 77.29
2 -6 6 1292.17 71.29
-3 6 -6 172.58 20.9
3 -6 6 234.48 24.3
-4 6 -6 -2 4.5
4 -6 6 7.5 7.9
5 -6 6 -8.7 7.7
6 5 -6 99.39 9.7
6 5 -6 106.19 11.1
6 5 -6 97.69 14.1
6 5 -6 108.99 13.1
5 5 -6 7.5 4.2
5 5 -6 3 2.5
5 5 -6 2.9 3
-5 -5 6 1.3 6.2
4 5 -6 1.9 2.5
4 5 -6 1.6 3.9
4 5 -6 -2.6 1.9
-4 -5 6 3.8 5.9
3 5 -6 0.8 2
3 5 -6 -3.8 2.5
3 5 -6 -0.4 2.1
-3 -5 6 -0.4 2.8
-3 -5 6 1.6 2.4
2 5 -6 828.12 46.9
2 5 -6 803.42 44
2 5 -6 720.03 49.99
-2 -5 6 810.42 47.9
-2 -5 6 784.62 45.8
1 5 -6 110.39 9.7
1 5 -6 118.49 11.4
1 5 -6 112.79 13.5
0 5 -6 198.98 24.2
0 5 -6 189.78 17.5
0 -5 6 223.38 14.3
0 -5 6 210.98 17.8
-1 5 -6 36 7.6
-1 5 -6 28.6 6.9
1 -5 6 28.2 5.4
1 -5 6 26.2 4.7
-2 5 -6 58.79 9.4
-2 5 -6 58.39 11.4
2 -5 6 61.29 8.3
2 -5 6 53.79 7.4
-3 5 -6 18.4 7.2
-3 5 -6 19.7 6.1
-4 5 -6 360.96 31.9
5 -5 6 101.79 22
6 4 -6 78.19 9.9
6 4 -6 90.89 10.7
6 4 -6 97.09 13.2
6 4 -6 78.79 7
5 4 -6 17.6 5.9
5 4 -6 3 2.5
5 4 -6 4.7 2.5
4 4 -6 394.06 26.7
4 4 -6 327.57 33
4 4 -6 382.36 25.7
-4 -4 6 370.66 31.9
3 4 -6 272.27 18.9
3 4 -6 278.37 18.8
3 4 -6 256.57 20.6
-3 -4 6 260.37 22.9
-3 -4 6 266.77 20.9
2 4 -6 359.06 21.4
2 4 -6 320.17 22.3
2 4 -6 333.97 25.1
-2 -4 6 333.57 24.5
-2 -4 6 324.47 22.7
1 4 -6 627.74 38.4
1 4 -6 630.84 36.7
1 4 -6 609.34 41.2
-1 -4 6 643.64 37.1
-1 -4 6 683.93 38.2
0 4 -6 236.28 20.5
0 4 -6 263.47 19.5
0 -4 6 248.48 17.2
0 -4 6 258.47 16.6
-1 4 -6 634.44 42.3
-1 4 -6 715.33 42.7
1 -4 6 622.34 38.8
1 -4 6 672.13 37.9
-2 4 -6 1.7 3.3
-2 4 -6 12 6.7
2 -4 6 5.1 3.3
2 -4 6 8.9 3.4
-3 4 -6 79.19 10.1
-3 4 -6 93.49 12.5
3 -4 6 76.99 10.1
-4 4 -6 86.19 15.2
-4 4 -6 97.59 11.3
5 -4 6 8.5 8.4
6 -4 6 88.69 20.3
6 3 -6 13.6 4.9
6 3 -6 25.2 7.9
5 3 -6 120.49 14.5
5 3 -6 124.29 9.8
5 3 -6 139.39 12.5
4 3 -6 43.1 8.5
4 3 -6 62.69 10.4
4 3 -6 59.59 6.5
-4 -3 6 46.4 11.1
3 3 -6 44 5.9
3 3 -6 47.4 6.3
3 3 -6 43.3 5.6
-3 -3 6 44.3 10.1
2 3 -6 1529.25 81.29
2 3 -6 1509.15 81.39
2 3 -6 1487.65 83.19
-2 -3 6 1465.95 82.79
-2 -3 6 1566.24 85.99
1 3 -6 2.9 1.6
1 3 -6 3.5 2.2
1 3 -6 6.4 2.4
-1 -3 6 4.1 2.2
-1 -3 6 2.3 1.5
0 3 -6 546.75 34.8
0 3 -6 616.64 37.1
0 3 -6 592.44 34.5
0 -3 6 559.74 33.1
0 -3 6 579.74 33.3
0 -3 6 541.85 39.8
-1 3 -6 28.6 6.1
-1 3 -6 29.1 6.4
1 -3 6 25.3 4.4
1 -3 6 38.3 4.9
1 -3 6 32.3 8.2
-2 3 -6 311.97 22.5
-2 3 -6 286.77 23
2 -3 6 261.97 25.1
2 -3 6 318.07 21.4
2 -3 6 325.77 21.7
-3 3 -6 848.72 55.09
-3 3 -6 900.21 52.29
3 -3 6 924.11 52.79
3 -3 6 814.22 57.09
-4 3 -6 21.4 6.7
-4 3 -6 9.6 4
4 -3 6 11.6 6.2
-5 3 -6 6.8 4.4
6 -3 6 340.57 36.9
6 2 -6 -1 3.8
6 2 -6 4.5 6.3
5 2 -6 367.36 20.7
5 2 -6 351.36 25.7
5 2 -6 358.46 21.4
5 2 -6 363.56 29.5
4 2 -6 1 2
4 2 -6 -5.2 2.3
4 2 -6 1.1 1.5
-4 -2 6 0.1 5.7
3 2 -6 960 54.49
3 2 -6 1057.39 53.99
3 2 -6 952.2 56.59
-3 -2 6 871.51 60.99
2 2 -6 38.6 5.1
2 2 -6 35.7 4.8
2 2 -6 29.2 4.7
-2 -2 6 41.2 6.7
-2 -2 6 26.9 6.9
1 2 -6 928.81 50.89
1 2 -6 897.11 49.3
1 2 -6 928.31 49.4
-1 -2 6 877.41 51.29
-1 -2 6 785.22 53.79
-1 -2 6 896.91 49.7
0 2 -6 1623.44 81.69
0 2 -6 1496.55 79.89
0 2 -6 1344.77 83.19
0 -2 6 1423.76 85.09
0 -2 6 1518.35 78.79
0 -2 6 1458.65 79.09
-1 2 -6 37.5 6.4
-1 2 -6 38.5 5.6
1 -2 6 27.8 4.8
1 -2 6 35.1 8.1
1 -2 6 34 4.5
-2 2 -6 678.43 42.6
-2 2 -6 730.23 42
2 -2 6 669.83 40.1
2 -2 6 680.83 45.8
2 -2 6 677.53 40.6
-3 2 -6 46.6 9
-3 2 -6 40.1 6.2
3 -2 6 59.39 7.2
3 -2 6 44.6 10.1
-4 2 -6 10.9 3.9
-4 2 -6 3.3 4.2
4 -2 6 0.9 3.6
4 -2 6 6.2 4.6
-5 2 -6 600.74 38.6
5 -2 6 535.45 41.4
-6 2 -6 283.07 24.9
6 -2 6 345.97 36.9
6 -2 6 269.97 26.3
7 -2 6 5.7 10.2
6 1 -6 208.18 22.6
6 1 -6 223.88 19.9
5 1 -6 134.99 16.9
5 1 -6 146.69 14
4 1 -6 23.4 4.4
4 1 -6 28.4 10.3
4 1 -6 36.7 8.1
3 1 -6 46.6 8.4
3 1 -6 38.4 6.4
3 1 -6 51.79 5.9
-3 -1 6 25.4 8.1
2 1 -6 68.19 7.7
2 1 -6 65.39 6.9
2 1 -6 65.39 6.8
-2 -1 6 57.99 8.1
-2 -1 6 60.79 10.7
1 1 -6 477.75 28.6
1 1 -6 470.65 28.3
1 1 -6 465.55 27.4
-1 -1 6 468.95 28.7
-1 -1 6 465.55 30.5
-1 -1 6 430.86 34.3
0 1 -6 353.36 23.5
0 1 -6 382.76 23.4
0 1 -6 420.56 25.1
0 -1 6 359.56 22.7
0 -1 6 374.96 23.9
0 -1 6 401.66 27.4
-1 1 -6 2034.7 110.99
-1 1 -6 2039.8 110.09
-1 1 -6 2179.08 111.29
1 -1 6 1965.7 108.09
1 -1 6 2121.49 109.39
1 -1 6 2127.89 114.29
-2 1 -6 1549.64 84.89
-2 1 -6 1680.43 85.39
2 -1 6 1416.96 83.29
2 -1 6 1539.65 82.49
2 -1 6 1539.15 87.69
-3 1 -6 9 3.6
-3 1 -6 8.3 3.2
3 -1 6 8.4 3.1
3 -1 6 4.8 3.5
-4 1 -6 -0.3 2.2
-4 1 -6 3.4 3.2
4 -1 6 2 3.1
4 -1 6 5.2 3.9
-5 1 -6 53.59 10.2
5 -1 6 69.79 11.2
5 -1 6 59.49 12
-6 1 -6 110.09 13.3
6 -1 6 78.19 13.2
-7 1 -6 135.69 18
7 -1 6 128.79 24.3
7 -1 6 113.69 16.4
6 0 -6 236.38 25.6
6 0 -6 189.68 22.2
5 0 -6 9.7 5.8
5 0 -6 21.6 6.3
4 0 -6 289.17 18.1
4 0 -6 316.87 22.9
4 0 -6 273.47 25.7
3 0 -6 8.7 2.9
3 0 -6 1.8 1.8
3 0 -6 6.6 3.2
-3 0 6 4 2.5
-3 0 6 1.8 4.8
2 0 -6 46.2 5.7
2 0 -6 54.39 6.4
2 0 -6 54.29 7
-2 0 6 58.49 7.3
-2 0 6 39.3 9.1
1 0 -6 22.2 4
1 0 -6 19.6 4.2
1 0 -6 22 4.7
-1 0 6 21.5 5.6
-1 0 6 28 5.6
-1 0 6 22 4.6
0 0 -6 561.24 34.7
0 0 -6 551.44 33.3
0 0 6 539.35 32.5
0 0 6 547.75 33.9
0 0 6 654.53 37.2
-1 0 -6 662.23 39.6
-1 0 -6 700.33 40.8
-1 0 -6 670.23 38.1
1 0 6 713.73 41
1 0 6 664.93 38.4
1 0 6 630.84 36.8
-2 0 -6 359.46 24.3
-2 0 -6 380.36 26.2
2 0 6 368.56 22.7
2 0 6 389.96 24.6
2 0 6 412.16 26.6
-3 0 -6 1311.37 73.29
-3 0 -6 1185.68 71.39
3 0 6 1287.67 72.09
3 0 6 1216.88 69.39
3 0 6 1373.76 73.39
-4 0 -6 251.57 20.8
-4 0 -6 225.18 20
4 0 6 256.97 20.6
4 0 6 257.47 19.1
-5 0 -6 29.7 7.7
5 0 6 25 7.2
5 0 6 24.8 6.3
-6 0 -6 44.8 9.7
6 0 6 49.8 10.6
-7 0 -6 44 11.6
7 0 6 88.89 21.1
7 0 6 61.79 11.9
6 -1 -6 84.89 14.9
6 -1 -6 105.19 18.3
5 -1 -6 16.7 7.1
5 -1 -6 25.3 7.1
4 -1 -6 408.66 28.7
4 -1 -6 373.16 31
3 -1 -6 1.1 2
3 -1 -6 2.1 3
3 -1 -6 6.2 3.2
-3 1 6 0.1 4.9
2 -1 -6 475.05 32.5
2 -1 -6 507.15 31
2 -1 -6 517.45 33.2
-2 1 6 532.15 30.8
-2 1 6 484.15 36.6
1 -1 -6 107.09 9.7
1 -1 -6 104.19 8.6
1 -1 -6 94.59 10.7
-1 1 6 100.59 11.3
-1 1 6 106.19 9.3
0 -1 -6 810.92 44.1
0 -1 -6 850.21 46.1
0 -1 -6 802.02 48.7
0 1 6 786.72 45.4
0 1 6 812.12 50.59
0 1 6 800.02 47.1
-1 -1 -6 116.09 12.3
-1 -1 -6 129.59 10.9
-1 -1 -6 131.49 9.4
1 1 6 145.09 11.6
1 1 6 129.99 10.5
1 1 6 117.49 8.9
-2 -1 -6 3343.37 174.68
-2 -1 -6 3193.88 169.48
2 1 6 3192.08 167.58
2 1 6 3213.78 170.18
2 1 6 3441.06 172.08
-3 -1 -6 760.32 46.3
-3 -1 -6 752.42 49.6
3 1 6 877.21 47.9
3 1 6 793.42 47.3
3 1 6 805.12 44.3
-4 -1 -6 1167.48 72.09
-4 -1 -6 1167.78 69.19
4 1 6 1270.57 69.59
4 1 6 1235.78 67.19
-5 -1 -6 175.08 18.7
5 1 6 225.98 18.5
5 1 6 204.58 17.4
-6 -1 -6 808.32 57.39
6 1 6 881.31 55.39
6 1 6 959.8 56.09
-7 -1 -6 0.6 6.1
7 1 6 0.2 6.1
7 1 6 0.6 4.4
5 -2 -6 27.3 8.4
5 -2 -6 31.6 8.1
4 -2 -6 97.29 13.4
4 -2 -6 108.49 12.8
3 -2 -6 3 2.7
3 -2 -6 2.2 2.9
3 -2 -6 6.8 4.1
-3 2 6 2.1 1.7
2 -2 -6 344.07 25
2 -2 -6 317.87 28.9
2 -2 -6 336.67 23.3
-2 2 6 376.56 21.9
-2 2 6 281.77 33.1
1 -2 -6 82.79 7.5
1 -2 -6 72.39 9.6
1 -2 -6 81.29 8.5
-1 2 6 59.39 9
-1 2 6 82.99 7.8
0 -2 -6 94.59 9.1
0 -2 -6 100.19 11.5
0 -2 -6 101.39 7.9
0 2 6 114.09 10.8
0 2 6 105.59 9.7
-1 -2 -6 118.89 10.7
-1 -2 -6 133.49 8.9
-1 -2 -6 117.59 13.3
1 2 6 120.79 10.5
1 2 6 130.19 11.5
1 2 6 129.99 9.5
-2 -2 -6 3410.76 194.18
-2 -2 -6 3624.64 186.88
2 2 6 3592.74 188.58
2 2 6 3672.73 185.58
2 2 6 3905.41 191.28
-3 -2 -6 295.27 19.7
-3 -2 -6 274.27 24.3
3 2 6 307.97 17.9
3 2 6 305.07 21.8
3 2 6 314.07 21.3
-4 -2 -6 561.64 35.1
-4 -2 -6 508.95 39.3
4 2 6 542.45 32.7
4 2 6 609.44 36.6
4 2 6 599.04 37.3
-5 -2 -6 287.27 26.5
5 2 6 301.37 21.7
5 2 6 331.17 23.5
-6 -2 -6 114.89 15.6
6 2 6 123.69 13.1
6 2 6 107.69 12.6
-7 -2 -6 -5.4 7.4
7 2 6 3.8 3.4
7 2 6 -13 7.9
8 2 6 574.24 42.4
8 2 6 642.14 57.59
5 -3 -6 140.59 18.7
5 -3 -6 183.08 18.7
4 -3 -6 18.6 6.7
3 -3 -6 136.79 15.7
-3 3 6 166.58 11.6
2 -3 -6 -1.3 3.3
2 -3 -6 7.6 3
2 -3 -6 3.2 2.2
-2 3 6 10.2 6.9
-2 3 6 4.3 2.1
1 -3 -6 398.86 31.6
1 -3 -6 437.56 26.9
1 -3 -6 431.36 28.1
-1 3 6 440.06 27.8
-1 3 6 415.66 31.8
0 -3 -6 2.7 1.8
0 -3 -6 3 3.2
0 -3 -6 2.3 1.4
0 3 6 -1.3 2.2
0 3 6 1.1 2.2
-1 -3 -6 399.76 31.6
-1 -3 -6 437.66 23.8
-1 -3 -6 411.16 26.6
1 3 6 432.46 29.3
1 3 6 440.76 27.3
-2 -3 -6 381.46 21.3
-2 -3 -6 366.86 25.1
-2 -3 -6 339.77 28.9
2 3 6 383.76 23.7
2 3 6 381.76 21.1
2 3 6 358.36 26.4
-3 -3 -6 1.8 1.6
-3 -3 -6 0.2 2.3
3 3 6 1.1 1.6
3 3 6 2.8 0.9
-4 -3 -6 510.25 40.3
4 3 6 523.45 35.5
4 3 6 571.94 31.3
4 3 6 616.34 37.5
-5 -3 -6 71.49 22
5 3 6 59.69 7.1
5 3 6 61.69 8.6
-6 -3 -6 141.39 19.5
6 3 6 197.38 17.2
6 3 6 174.48 15.5
-7 -3 -6 38.4 11.9
7 3 6 36.5 9
7 3 6 36.1 8.8
8 3 6 -3.3 9
5 -4 -6 0.9 5.7
4 -4 -6 223.78 22.1
-4 4 6 169.98 11.3
3 -4 -6 67.99 12.1
-3 4 6 65.19 6.9
2 -4 -6 13.3 4.4
-2 4 6 25 8.9
-2 4 6 15.8 4.4
1 -4 -6 349.77 31.2
1 -4 -6 412.56 27.2
1 -4 -6 426.86 26.5
-1 4 6 404.86 28.1
-1 4 6 401.86 44.1
0 -4 -6 213.88 22.8
0 -4 -6 263.47 17.4
0 -4 -6 266.97 18.7
0 4 6 274.87 21.6
0 4 6 281.07 21.8
-1 -4 -6 684.53 52.29
-1 -4 -6 811.02 46
-1 -4 -6 846.52 42.6
1 4 6 777.82 47
1 4 6 851.31 51.09
-2 -4 -6 274.07 20
-2 -4 -6 279.07 15.6
-2 -4 -6 232.98 24.6
2 4 6 289.87 23.3
2 4 6 286.67 19
-3 -4 -6 353.16 31.4
3 4 6 358.56 24.3
3 4 6 432.86 30.1
-4 -4 -6 -0.3 2.6
4 4 6 -0.2 2.6
4 4 6 1.4 2.4
-5 -4 -6 37.9 11.4
5 4 6 54.89 8.9
5 4 6 38.7 7.8
5 4 6 47.8 4.9
-6 -4 -6 30.5 10.3
6 4 6 49.3 7.3
6 4 6 45 9.2
7 4 6 10.7 5.1
7 4 6 6.7 5
8 4 6 29 13.8
8 4 6 24.4 7.7
8 4 6 -5.3 8.7
-4 5 6 465.35 26.6
3 -5 -6 -3.3 2.8
-3 5 6 3.5 2.8
-2 5 6 759.02 47.1
1 -5 -6 0 2.3
-1 5 6 4.9 3.6
-1 5 6 2.7 3.2
0 -5 -6 5.8 2.8
0 -5 -6 2.2 3.7
0 -5 -6 8.1 2.6
0 5 6 1.7 3.4
0 5 6 3.9 4.3
-1 -5 -6 762.32 57.19
-1 -5 -6 877.81 48.9
-1 -5 -6 879.71 45.4
1 5 6 837.32 50.79
1 5 6 866.41 55.59
-2 -5 -6 39.2 3.1
-2 -5 -6 35.9 10.5
-2 -5 -6 46.2 6.4
2 5 6 43.6 5.9
2 5 6 43.5 10
3 5 6 414.36 31.8
3 5 6 367.46 24.7
-4 -5 -6 359.56 34.8
4 5 6 443.66 27.9
4 5 6 442.36 33.5
-5 -5 -6 19.7 7.9
5 5 6 27.9 7.7
5 5 6 33.1 6.8
5 5 6 25.6 2.4
6 5 6 -4.4 1.9
6 5 6 0 2.1
7 5 6 9.9 3.9
7 5 6 11.1 5
8 5 6 1.9 5
8 5 6 -12.4 6.1
3 -6 -6 23.5 7.7
-3 6 6 24.2 5.9
2 -6 -6 1591.44 90.49
-2 6 6 1566.04 90.99
1 -6 -6 -2.3 2.3
-1 6 6 10 5.3
-1 6 6 -2.6 2.8
0 -6 -6 317.57 22
0 6 6 302.07 27.4
-1 -6 -6 198.58 23.9
-1 -6 -6 222.98 14.3
-1 -6 -6 247.88 17.2
-1 -6 -6 220.58 16.3
1 6 6 207.28 18.6
1 6 6 226.98 22.9
-2 -6 -6 240.48 18
-2 -6 -6 216.48 25
-2 -6 -6 226.88 13.2
-2 -6 -6 236.28 12.5
2 6 6 211.08 17.5
2 6 6 240.88 24
-3 -6 -6 253.67 28
3 6 6 273.57 26.3
3 6 6 300.77 19.8
-4 -6 -6 210.78 25.6
4 6 6 254.27 18.3
4 6 6 279.27 25.9
5 6 6 27.7 8.6
5 6 6 43 7.4
6 6 6 418.76 22.3
6 6 6 471.95 35.9
6 6 6 423.26 22.5
7 6 6 100.89 8.2
7 6 6 112.49 11.1
7 6 6 128.79 15.5
8 6 6 -2.2 4.8
8 6 6 14.9 7.1
8 6 6 0.2 3.1
8 6 6 -6.1 10
3 -7 -6 38.6 9.6
-3 7 6 27.8 7.7
2 -7 -6 85.39 11.3
-2 7 6 109.99 14.4
1 -7 -6 16.7 7
1 -7 -6 25.8 10.5
-1 7 6 38.2 10.4
0 -7 -6 1061.89 58.59
0 -7 -6 992.4 59.89
0 7 6 997.2 67.39
0 7 6 992.9 65.19
-1 -7 -6 -3.5 2.9
-1 -7 -6 3.8 2
-1 -7 -6 0.7 1.9
1 7 6 -1.3 3.4
1 7 6 0.4 4.1
-2 -7 -6 16.5 8.7
-2 -7 -6 26.6 2.8
-2 -7 -6 30.2 2.2
-2 -7 -6 32.8 6.4
2 7 6 23.8 9.1
2 7 6 21.1 6.3
3 7 6 44.8 6.6
3 7 6 50.59 13.1
4 7 6 177.68 20.9
4 7 6 144.69 12.7
5 7 6 1.4 3.4
5 7 6 -2.1 4.6
6 7 6 235.48 25.1
7 7 6 64.89 13.7
2 -8 -6 3.3 5
-2 8 6 15.5 7.3
1 -8 -6 123.49 18.3
1 -8 -6 136.89 13.4
-1 8 6 95.59 27.8
0 -8 -6 83.99 12.4
0 -8 -6 76.99 8.9
0 8 6 62.39 13.6
0 8 6 58.99 14.9
-1 -8 -6 16.4 4.7
-1 -8 -6 9.6 3.6
1 8 6 11.8 6.6
1 8 6 6.6 5.8
-2 -8 -6 394.56 20.8
-2 -8 -6 382.26 21.3
-2 -8 -6 428.46 27.6
2 8 6 370.86 35.7
2 8 6 363.56 28.1
3 8 6 55.99 13.9
3 8 6 48.9 8.5
4 8 6 27 6.2
4 8 6 45.1 12.4
5 8 6 49.7 12.9
5 8 6 39 6.9
6 8 6 82.49 17.6
7 8 6 1.2 6.3
1 -9 -6 3.7 4.4
-1 9 6 17 7.9
0 -9 -6 -4.8 6
0 9 6 -3.7 5.8
-1 -9 -6 7 4
-1 -9 -6 -0.8 2.6
1 9 6 7.4 6
1 9 6 -7.7 5.7
-2 -9 -6 19.6 2.4
-2 -9 -6 18.4 2.6
-2 -9 -6 21.1 5.5
3 9 6 -4.2 6
3 9 6 0.3 3.3
4 9 6 35.9 7.1
4 9 6 31.8 11.6
5 9 6 140.49 12.8
5 9 6 131.59 20.9
6 9 6 -10.1 5.9
0 -10 -6 280.87 21.7
0 -10 -6 287.67 25.4
0 10 6 306.87 33.4
-1 -10 -6 40.9 7.6
-1 -10 -6 35.2 6.9
1 10 6 37.9 14.1
1 10 6 29.9 12.1
-2 -10 -6 126.29 8.6
-2 -10 -6 153.28 14.2
-2 -10 -6 122.99 8.5
2 10 6 145.39 17.2
2 10 6 150.68 23
3 10 6 31.7 14
3 10 6 49.2 11.5
4 10 6 74.99 19.6
4 10 6 87.59 14.1
5 10 6 -3.3 6
5 10 6 -1.8 3.8
6 10 6 14.3 13.1
3 11 6 39 16.7
4 11 6 38.6 11.3
4 11 6 55.99 18.1
3 10 -7 24.8 7.9
2 10 -7 217.18 22.6
1 10 -7 -1.5 6.4
4 9 -7 67.79 12.6
3 9 -7 236.38 22
2 9 -7 36.2 9.4
1 9 -7 7.9 5.1
0 9 -7 248.38 27.5
0 -9 7 312.67 21.7
0 -9 7 317.07 19
-1 9 -7 182.18 22.6
1 -9 7 232.18 19.6
1 -9 7 185.08 13.9
-2 9 -7 31.4 10.9
2 -9 7 21.2 9.6
2 -9 7 22 6
5 8 -7 325.57 22.1
5 8 -7 351.96 26.6
4 8 -7 3.5 2.6
4 8 -7 4.6 4.3
-4 -8 7 7.7 6.5
3 8 -7 45.8 9.8
2 8 -7 288.57 25.5
-2 -8 7 318.07 21.4
1 8 -7 124.09 15.4
-1 -8 7 121.69 10.5
0 8 -7 -1.1 5.1
-1 8 -7 447.46 36.2
1 -8 7 402.96 31.9
1 -8 7 398.66 25.1
-2 8 -7 22.7 8
2 -8 7 25.4 7.8
2 -8 7 16 5.7
-3 8 -7 79.79 16.6
3 -8 7 102.59 20.3
5 7 -7 50.29 9.7
5 7 -7 70.79 8.5
-5 -7 7 38.1 13.4
4 7 -7 4.5 3.5
4 7 -7 1.1 2.5
-4 -7 7 -6.1 5.7
3 7 -7 717.13 41.5
3 7 -7 718.03 46
-3 -7 7 747.63 47.2
2 7 -7 15.2 4.5
-2 -7 7 5.1 4.5
1 7 -7 167.78 17.3
0 7 -7 14.9 6
0 -7 7 12.8 3.2
-1 7 -7 381.66 33.2
1 -7 7 421.86 25.5
-2 7 -7 31.6 10.1
2 -7 7 26.6 6
-3 7 -7 311.27 30.2
3 -7 7 295.87 30.3
3 -7 7 319.67 29.8
-4 7 -7 9.2 6.7
4 -7 7 20.6 10.9
5 6 -7 61.39 8.3
5 6 -7 71.19 8.8
5 6 -7 65.19 10.4
-5 -6 7 33.9 12.5
4 6 -7 1768.02 94.29
4 6 -7 1656.73 91.29
4 6 -7 1626.94 96.99
-4 -6 7 1726.73 100.89
3 6 -7 2.3 2.1
3 6 -7 -6 4.2
3 6 -7 4.6 3.5
-3 -6 7 12.3 5.8
2 6 -7 331.97 21.1
2 6 -7 290.07 28.5
2 6 -7 322.47 25.8
-2 -6 7 308.67 23.7
1 6 -7 336.87 26.6
-1 -6 7 348.87 23.3
0 6 -7 82.59 13.5
0 -6 7 70.29 7
-1 6 -7 608.94 43.5
1 -6 7 623.64 36.2
-2 6 -7 74.29 13.3
2 -6 7 59.09 8.5
-3 6 -7 418.96 35.2
3 -6 7 398.76 29.7
-4 6 -7 10.7 6.7
4 -6 7 2.9 8.3
6 5 -7 39.4 6.6
6 5 -7 36.4 9
6 5 -7 37.4 8.9
5 5 -7 31.5 10.7
5 5 -7 26 6.1
5 5 -7 29.6 6.3
4 5 -7 349.57 24.2
4 5 -7 359.36 25
4 5 -7 358.36 26.7
-4 -5 7 371.66 31.7
3 5 -7 146.19 11.4
3 5 -7 134.69 12.7
3 5 -7 107.29 14.3
-3 -5 7 122.59 15.2
2 5 -7 2288.17 120.49
2 5 -7 2352.06 123.49
2 5 -7 2218.18 126.79
-2 -5 7 2292.67 125.09
1 5 -7 411.06 32.6
1 5 -7 461.65 30.8
1 5 -7 473.35 28.7
-1 -5 7 437.36 28.3
-1 -5 7 463.05 29.1
0 5 -7 1177.18 70.79
0 5 -7 1162.28 68.69
0 -5 7 1179.58 63.69
0 -5 7 1136.19 64.69
-1 5 -7 54.59 10.4
-1 5 -7 58.99 11.2
1 -5 7 74.29 7.3
1 -5 7 51.49 7
2 -5 7 164.08 14.1
-3 5 -7 396.86 32.9
3 -5 7 390.36 28.3
-4 5 -7 355.26 32.5
5 -5 7 227.88 29.2
6 4 -7 16.4 9.4
6 4 -7 16 3.7
6 4 -7 11.7 5
6 4 -7 18.7 6.7
5 4 -7 276.27 20.2
5 4 -7 236.18 20.8
5 4 -7 248.88 17.9
4 4 -7 57.89 7.9
4 4 -7 78.19 8.8
4 4 -7 78.89 9.1
-4 -4 7 60.59 13.5
3 4 -7 156.18 13.3
3 4 -7 161.08 14.8
3 4 -7 171.38 14.2
-3 -4 7 183.38 19
2 4 -7 806.32 44.3
2 4 -7 761.92 45.4
2 4 -7 721.53 47.3
-2 -4 7 818.62 46.2
-2 -4 7 732.13 48.2
1 4 -7 450.05 32.4
1 4 -7 483.95 30.9
1 4 -7 497.45 29.5
-1 -4 7 451.05 29.2
-1 -4 7 492.05 30.7
0 4 -7 1530.35 89.79
0 -4 7 1619.24 86.99
0 -4 7 1694.13 86.99
-1 4 -7 1095.99 62.59
-1 4 -7 1000.6 61.89
1 -4 7 1063.09 57.49
1 -4 7 987.1 58.09
-2 4 -7 2119.89 113.89
-2 4 -7 2066.69 115.59
2 -4 7 2063.49 110.29
2 -4 7 1949.8 110.69
-3 4 -7 187.98 21.1
-3 4 -7 191.48 26.7
3 -4 7 201.38 17.4
-4 4 -7 325.87 29.5
-5 4 -7 147.99 19.4
5 -4 7 122.99 22.9
6 -4 7 30.1 14.3
6 3 -7 40.8 9.1
5 3 -7 15.9 5.3
4 3 -7 8 2.8
4 3 -7 7.7 3
4 3 -7 3.2 2.6
-4 -3 7 14.9 8.3
3 3 -7 134.89 12.1
3 3 -7 120.09 11.5
3 3 -7 128.29 11.3
-3 -3 7 129.09 15.9
2 3 -7 68.39 8.1
2 3 -7 65.99 7.5
2 3 -7 84.89 8.3
-2 -3 7 74.39 9.9
-2 -3 7 55.49 9.1
1 3 -7 561.54 32.3
1 3 -7 558.24 33.1
1 3 -7 541.15 34.4
-1 -3 7 531.25 33.8
-1 -3 7 451.85 37.3
-1 -3 7 545.45 32.4
0 3 -7 1686.23 91.99
0 3 -7 1684.83 91.39
0 3 -7 1900.21 94.09
0 -3 7 1594.74 89.49
0 -3 7 1637.64 89.99
0 -3 7 1575.54 98.19
-1 3 -7 55.79 8.1
-1 3 -7 58.39 9.4
1 -3 7 50.29 6.2
1 -3 7 70.79 6.9
1 -3 7 45.2 10.7
-2 3 -7 694.33 43.6
-2 3 -7 641.34 41.7
2 -3 7 617.94 46.7
2 -3 7 735.43 49.4
2 -3 7 650.83 39.6
-3 3 -7 2081.39 112.59
-3 3 -7 2006.1 108.49
3 -3 7 1763.32 114.29
3 -3 7 2025 107.89
-4 3 -7 1042.2 57.99
4 -3 7 829.02 62.49
-5 3 -7 72.59 14.4
5 -3 7 57.49 17.2
6 -3 7 103.49 21.8
6 2 -7 24.9 6.7
6 2 -7 43.8 10.7
5 2 -7 63.59 12
5 2 -7 74.59 9.6
5 2 -7 66.59 6.7
4 2 -7 8.3 5.4
4 2 -7 8.1 2.7
4 2 -7 5.4 3
3 2 -7 45.1 5.8
3 2 -7 38.5 7.2
3 2 -7 47.1 6.1
-3 -2 7 35.1 9.5
2 2 -7 739.43 42.7
2 2 -7 692.03 41.5
2 2 -7 749.33 42.5
-2 -2 7 702.43 44.2
-2 -2 7 716.33 47.2
1 2 -7 260.77 18
1 2 -7 271.87 19
1 2 -7 242.78 17.5
-1 -2 7 249.08 22.3
-1 -2 7 251.67 18.2
-1 -2 7 266.37 20
0 2 -7 106.19 10.2
0 2 -7 119.79 10.7
0 2 -7 131.09 11.8
0 -2 7 128.89 10.1
0 -2 7 128.29 10.9
0 -2 7 114.89 14
-1 2 -7 0.3 1.8
-1 2 -7 -3.4 1.2
1 -2 7 3.4 1.7
1 -2 7 -1.4 2.6
1 -2 7 0.7 1.5
-2 2 -7 879.51 54.29
-2 2 -7 935.21 55.79
2 -2 7 943.81 60.19
2 -2 7 968.5 53.49
2 -2 7 934.81 52.59
-3 2 -7 47.6 9.2
3 -2 7 45.6 8
3 -2 7 45 11
3 -2 7 58.19 8.7
-4 2 -7 502.75 35.3
-4 2 -7 496.75 32.5
4 -2 7 388.86 34.9
4 -2 7 447.76 31.5
-5 2 -7 745.13 52.59
-5 2 -7 795.42 54.29
5 -2 7 736.73 53.39
6 -2 7 186.58 22
6 1 -7 72.69 11.5
5 1 -7 330.87 28.2
5 1 -7 317.67 24.5
4 1 -7 198.88 15.1
4 1 -7 162.78 15.5
4 1 -7 211.48 19
3 1 -7 51.79 7.3
3 1 -7 41.1 6.2
3 1 -7 51.29 6.8
-3 -1 7 57.79 11.8
2 1 -7 87.89 8.3
2 1 -7 83.69 9
2 1 -7 88.19 8.8
-2 -1 7 68.29 9.9
-2 -1 7 74.09 12.5
1 1 -7 33 5.3
1 1 -7 32 5.7
1 1 -7 41.3 5.8
-1 -1 7 25.6 5.2
-1 -1 7 40 6.8
-1 -1 7 29.2 6.4
0 1 -7 760.82 45.7
0 1 -7 783.32 45.1
0 1 -7 852.01 47.2
0 -1 7 770.92 46.1
0 -1 7 844.72 50.49
0 -1 7 768.02 44.5
-1 1 -7 37.8 6.9
-1 1 -7 25.4 5.4
-1 1 -7 26.5 5.4
1 -1 7 26.9 7.1
1 -1 7 21.7 4.4
1 -1 7 27.6 3.6
-2 1 -7 324.87 23.6
-2 1 -7 345.17 24.3
2 -1 7 372.36 22
2 -1 7 330.97 26.7
2 -1 7 324.57 22.6
-3 1 -7 48.9 9.1
-3 1 -7 54.69 7.9
3 -1 7 57.89 9.7
3 -1 7 63.29 8.4
3 -1 7 59.49 7
-4 1 -7 344.57 28.1
-4 1 -7 383.46 28.1
4 -1 7 368.36 30.1
4 -1 7 388.36 26.6
-5 1 -7 14.3 6.1
-5 1 -7 31.8 8.5
5 -1 7 11.6 6.1
5 -1 7 19.4 7
6 -1 7 554.44 42.4
7 -1 7 101.69 16.2
5 0 -7 21.6 7.6
5 0 -7 18.1 5.5
4 0 -7 126.49 14.6
4 0 -7 116.09 11
4 0 -7 128.99 12.9
3 0 -7 1131.29 60.99
3 0 -7 1033 57.09
-3 0 7 883.61 56.89
-3 0 7 931.91 67.99
2 0 -7 93.79 9.1
2 0 -7 123.69 11.3
2 0 -7 106.29 11
-2 0 7 94.09 11.8
1 0 -7 168.78 12.9
1 0 -7 185.28 15.5
1 0 -7 184.78 14.5
-1 0 7 169.78 16.1
-1 0 7 192.18 16.1
0 0 -7 181.98 13.3
0 0 -7 195.68 16
0 0 -7 180.68 14.3
0 0 7 191.28 14
0 0 7 213.08 16.7
0 0 7 184.88 15.1
-1 0 -7 470.25 29.9
-1 0 -7 466.85 31
-1 0 -7 457.95 28
1 0 7 442.66 28.4
1 0 7 505.45 31.6
1 0 7 432.66 26.7
-2 0 -7 827.52 47.6
-2 0 -7 796.82 49.8
2 0 7 822.52 47
2 0 7 820.32 49.9
2 0 7 823.12 45.1
-3 0 -7 34.6 6.9
-3 0 -7 35.3 7.9
3 0 7 37.2 7
3 0 7 49.7 5.7
3 0 7 43.4 7.3
-4 0 -7 11.5 4.7
4 0 7 5.4 4.4
4 0 7 6.1 3.2
4 0 7 9.3 4.2
-5 0 -7 21.9 7.4
5 0 7 23.1 5.9
5 0 7 16.8 6.3
-6 0 -7 4.3 9.6
6 0 7 5.7 6.1
7 0 7 -7.6 6.5
5 -1 -7 27.2 9
5 -1 -7 11.2 4.8
4 -1 -7 48.2 9.1
4 -1 -7 58.59 11.1
3 -1 -7 171.28 14.4
3 -1 -7 149.19 15.1
-3 1 7 169.18 14
2 -1 -7 4.4 2.1
2 -1 -7 5.9 3.5
2 -1 -7 4.5 3.2
-2 1 7 0.4 3
1 -1 -7 1408.16 77.89
1 -1 -7 1337.47 75.59
1 -1 -7 1385.96 80.59
-1 1 7 1373.56 81.79
-1 1 7 1557.54 78.49
0 -1 -7 840.52 52.59
0 -1 -7 897.21 47.5
0 -1 -7 839.12 49.4
0 1 7 825.42 49
0 1 7 948.81 50.79
0 1 7 829.32 50.89
-1 -1 -7 499.45 33.7
-1 -1 -7 483.55 30.9
-1 -1 -7 466.75 30
1 1 7 460.95 29.9
1 1 7 466.55 28
1 1 7 543.45 31.9
-2 -1 -7 6 2.9
-2 -1 -7 6.1 2.3
2 1 7 7.5 3.1
2 1 7 5.9 1.7
2 1 7 6.3 2.4
-3 -1 -7 168.98 15.1
-3 -1 -7 153.08 16.3
3 1 7 158.68 11.7
3 1 7 165.78 14.1
3 1 7 191.88 15.7
-4 -1 -7 70.59 8.9
-4 -1 -7 74.79 15.1
4 1 7 78.89 7.8
4 1 7 70.39 9.6
4 1 7 66.49 9.2
-5 -1 -7 710.13 51.79
5 1 7 782.92 49.7
5 1 7 828.42 47
-6 -1 -7 33.8 10.1
6 1 7 40.4 8.6
6 1 7 29.2 8
7 1 7 3.4 6.4
5 -2 -7 172.08 21.4
5 -2 -7 162.18 17.6
4 -2 -7 -1.3 3.4
4 -2 -7 3.4 3
3 -2 -7 79.29 17.3
3 -2 -7 82.09 11.5
3 -2 -7 90.19 11.9
-3 2 7 93.39 8.9
2 -2 -7 27.4 7.6
2 -2 -7 29.2 6.6
2 -2 -7 38.3 6.3
-2 2 7 34.3 5.3
-2 2 7 21.6 8.1
1 -2 -7 52.59 8.7
1 -2 -7 61.79 7.7
1 -2 -7 68.39 6.8
-1 2 7 55.49 12.6
-1 2 7 66.39 7.5
0 -2 -7 14.2 2.8
0 -2 -7 15.4 4.1
0 -2 -7 10.5 4.3
0 2 7 16.5 4.8
0 2 7 19.1 4.7
-1 -2 -7 2782.52 139.29
-1 -2 -7 2705.73 142.49
-1 -2 -7 2475.55 146.99
1 2 7 2977.6 143.79
1 2 7 2561.34 141.89
1 2 7 2650.93 140.09
-2 -2 -7 34.2 8.1
-2 -2 -7 31.1 6.6
-2 -2 -7 30.8 4.8
2 2 7 30.6 3.4
2 2 7 30.3 5.5
2 2 7 27.4 5.8
-3 -2 -7 304.37 21.4
-3 -2 -7 304.57 26.9
3 2 7 359.26 24.4
3 2 7 346.77 23.1
3 2 7 322.77 19.3
-4 -2 -7 390.16 27.7
4 2 7 370.06 27.6
4 2 7 387.36 24
4 2 7 444.26 28.9
-5 -2 -7 647.74 50.19
5 2 7 725.93 42.6
5 2 7 785.82 46.6
-6 -2 -7 8.7 7.3
6 2 7 -5.8 3.5
6 2 7 1.1 3.1
7 2 7 244.28 22.8
5 -3 -7 13.5 7.3
5 -3 -7 -3.4 4.3
4 -3 -7 3.9 5.4
4 -3 -7 14.6 5.3
-4 3 7 14.5 2.7
3 -3 -7 494.95 33.5
3 -3 -7 467.45 35.3
-3 3 7 497.15 29.6
2 -3 -7 251.57 19
2 -3 -7 235.88 20.1
2 -3 -7 223.38 21.6
-2 3 7 258.97 17.7
1 -3 -7 1052.09 56.89
1 -3 -7 883.51 60.79
1 -3 -7 954 54.09
-1 3 7 1031.7 55.69
-1 3 7 888.01 60.69
0 -3 -7 64.49 5.8
0 -3 -7 63.29 7.3
0 -3 -7 53.99 11.6
0 3 7 58.19 7.7
0 3 7 40.7 8.1
-1 -3 -7 2327.87 121.19
-1 -3 -7 2427.86 125.29
-1 -3 -7 2142.59 131.39
1 3 7 2448.06 127.29
1 3 7 2388.06 125.79
-2 -3 -7 656.33 39
-2 -3 -7 555.44 42.8
-2 -3 -7 617.44 34.1
2 3 7 622.84 34
2 3 7 592.84 36.6
-3 -3 -7 34.8 4.5
-3 -3 -7 19.7 7.3
3 3 7 37 7.6
3 3 7 33.4 5.9
3 3 7 34.8 3.3
-4 -3 -7 7.7 2.5
-4 -3 -7 -2.5 4.3
4 3 7 1.1 2.9
4 3 7 3.8 1.6
4 3 7 2.7 1.6
-5 -3 -7 10.6 6.6
5 3 7 20.6 6
5 3 7 11.9 3.7
6 3 7 35.7 7
6 3 7 51.09 10
7 3 7 146.89 15.1
7 3 7 129.89 15.4
8 3 7 1.1 5.4
8 3 7 1.1 9.6
4 -4 -7 122.79 14.9
4 -4 -7 117.79 16.9
3 -4 -7 424.66 32.5
3 -4 -7 399.06 30.3
-3 4 7 420.06 26.2
2 -4 -7 3.2 2.9
2 -4 -7 1.7 3.3
1 -4 -7 19.8 6.7
1 -4 -7 20.1 5.1
1 -4 -7 15.7 3.9
-1 4 7 19 5
-1 4 7 15.8 7
0 -4 -7 46.3 6.6
0 -4 -7 44.1 10.7
0 -4 -7 49.2 5.2
0 4 7 27.7 9.9
0 4 7 51.69 8.1
-1 -4 -7 421.06 23
-1 -4 -7 412.16 26.5
-1 -4 -7 361.86 32.7
1 4 7 410.46 29.8
1 4 7 375.76 27.4
-2 -4 -7 4.6 2.8
-2 -4 -7 4.5 1.4
2 4 7 5.5 3.7
2 4 7 2.1 2.4
-3 -4 -7 344.07 20.6
-3 -4 -7 334.57 31.3
3 4 7 343.27 23.7
3 4 7 403.36 28.7
-4 -4 -7 136.19 18.3
4 4 7 149.19 15.8
4 4 7 147.09 13.3
4 4 7 143.39 8.8
-5 -4 -7 -2.3 3.9
5 4 7 -1.9 1.2
5 4 7 2 2.7
6 4 7 7.6 5.5
6 4 7 7.2 2.9
7 4 7 47.6 8.1
7 4 7 59.09 11.2
8 4 7 9.8 5.7
8 4 7 -11.8 7.1
4 -5 -7 3 6.9
4 -5 -7 0.6 4.1
-4 5 7 -0.7 2.3
3 -5 -7 589.94 40.2
3 -5 -7 488.15 36.8
-3 5 7 531.15 32.8
2 -5 -7 92.69 10.4
2 -5 -7 66.39 11.9
-2 5 7 76.39 9.5
1 -5 -7 6.4 5.7
1 -5 -7 2.5 2.7
1 -5 -7 7.3 3.4
-1 5 7 5.8 3.8
0 -5 -7 205.08 16
0 -5 -7 166.48 21
0 -5 -7 199.58 14
0 5 7 196.78 19.4
0 5 7 195.88 18.8
-1 -5 -7 570.34 30.4
-1 -5 -7 567.74 34.5
1 5 7 545.05 39
1 5 7 488.95 36.9
-2 -5 -7 40.9 3.5
-2 -5 -7 43.9 7.6
-2 -5 -7 22.7 9
2 5 7 39.3 6.9
2 5 7 31.7 8.2
-3 -5 -7 196.18 23.6
3 5 7 254.07 22.7
3 5 7 232.88 17.4
-4 -5 -7 5.6 4.6
4 5 7 -0.9 2.5
4 5 7 -1.3 3.7
5 5 7 797.92 58.09
5 5 7 731.83 38.6
6 5 7 8.1 5.1
6 5 7 6.9 2.1
7 5 7 131.29 11.1
7 5 7 121.59 14.9
3 -6 -7 430.76 33.1
-3 6 7 421.06 28.3
2 -6 -7 48.3 9.7
-2 6 7 74.09 10.5
1 -6 -7 2.7 2.8
1 -6 -7 2.5 2.5
-1 6 7 -0.3 3.4
0 -6 -7 5.8 3
0 -6 -7 4.7 3.1
0 -6 -7 10.7 6
0 6 7 11.6 5.4
0 6 7 9.4 6.4
-1 -6 -7 235.28 27.2
-1 -6 -7 272.97 16.4
-1 -6 -7 282.37 20.2
1 6 7 250.47 22.1
1 6 7 285.87 25.8
-2 -6 -7 523.05 33
-2 -6 -7 515.45 26.3
-2 -6 -7 498.65 27.7
-2 -6 -7 429.26 40.4
2 6 7 391.66 39.8
2 6 7 538.65 39.7
3 6 7 6.1 5.3
4 6 7 256.17 36.6
4 6 7 239.48 18.4
5 6 7 1046.7 68.19
6 6 7 217.78 22
7 6 7 12.7 2.6
7 6 7 15.2 6.2
7 6 7 11.2 2.3
2 -7 -7 4 3.9
-2 7 7 1 5.2
1 -7 -7 10.9 4.7
1 -7 -7 0.9 5.6
-1 7 7 13.4 6
0 -7 -7 477.25 31.6
0 -7 -7 447.86 32.5
0 -7 -7 469.15 29.7
0 7 7 490.25 38.2
-1 -7 -7 165.58 11.5
-1 -7 -7 159.08 13.8
-1 -7 -7 161.18 14.3
1 7 7 184.98 21.4
1 7 7 155.78 18.3
-2 -7 -7 124.99 8.2
-2 -7 -7 104.29 12.2
-2 -7 -7 120.99 7.1
2 7 7 118.49 12.9
2 7 7 109.69 17.9
3 7 7 6.6 4.3
3 7 7 5.8 4.9
4 7 7 -2.2 3
4 7 7 1.3 3.2
5 7 7 182.68 21.7
6 7 7 -0.9 5.8
7 7 7 102.49 16
2 -8 -7 98.69 13.4
-2 8 7 120.69 16.4
1 -8 -7 30.8 7.2
-1 8 7 11.3 8
0 -8 -7 49.2 10.3
0 -8 -7 50.29 7.3
0 -8 -7 46.5 7.6
0 8 7 60.69 13.3
-1 -8 -7 182.18 16.5
-1 -8 -7 187.28 15.2
-1 -8 -7 185.48 15.7
1 8 7 152.78 21.7
-2 -8 -7 80.29 5.1
-2 -8 -7 86.29 10
-2 -8 -7 81.89 5.8
2 8 7 88.89 18.5
2 8 7 68.19 11.9
3 8 7 5.1 7
3 8 7 -1.3 4.2
4 8 7 54.89 14.1
4 8 7 49.9 8.3
5 8 7 53.59 14
6 8 7 213.78 25.5
7 8 7 0.7 6
0 -9 -7 17.3 5.3
0 -9 -7 6.7 9.3
0 9 7 14.1 8
-1 -9 -7 142.69 11.3
-1 -9 -7 155.48 17
-1 -9 -7 125.99 12.7
1 9 7 158.18 22.2
-2 -9 -7 112.39 12.5
-2 -9 -7 108.29 6.8
-2 -9 -7 102.79 6.3
2 9 7 127.29 19.8
2 9 7 104.49 14.7
3 9 7 50.79 9.4
3 9 7 26.1 10.8
4 9 7 731.73 45.9
4 9 7 770.62 60.49
5 9 7 154.58 22.1
6 9 7 160.18 23.6
-1 -10 -7 154.18 11.8
-1 -10 -7 129.59 13.9
-1 -10 -7 143.79 13.9
1 10 7 136.19 21.1
3 10 7 24.9 11.2
3 10 7 8 8
4 10 7 82.09 19.5
4 10 7 103.69 13.9
5 10 7 94.99 21.2
3 9 -8 3 5.2
-3 -9 8 -0.3 4.7
0 9 -8 82.99 15.7
0 -9 8 109.39 12.6
-1 9 -8 121.29 21.5
1 -9 8 133.29 11.9
1 -9 8 146.09 17.5
4 8 -8 262.27 19.2
4 8 -8 295.47 24.4
-4 -8 8 299.87 26.7
3 8 -8 14.5 6.5
-3 -8 8 34.2 8.9
2 8 -8 129.99 15.1
-2 -8 8 127.89 13.6
1 8 -8 110.99 17.7
-1 -8 8 145.19 13
0 8 -8 920.91 61.19
0 -8 8 883.11 50.89
-1 8 -8 -3 6.2
1 -8 8 -1.2 3.5
-2 8 -8 65.89 18.1
2 -8 8 59.39 8.2
2 -8 8 52.19 12.1
5 7 -8 287.07 22.7
5 7 -8 241.08 18.9
4 7 -8 136.49 14.7
4 7 -8 122.79 11.3
-4 -7 8 122.69 22.2
3 7 -8 404.76 30
3 7 -8 406.66 26.3
-3 -7 8 407.86 31.9
2 7 -8 3.6 3
-2 -7 8 1.6 4.8
1 7 -8 14.7 5.6
-1 -7 8 9 4.4
0 7 -8 -1 4.2
0 -7 8 -5.6 2.5
-1 7 -8 6.5 4.3
1 -7 8 17.7 4.6
-2 7 -8 331.27 31.4
2 -7 8 362.26 24.4
-3 7 -8 5.3 7.8
3 -7 8 -4.2 7
5 6 -8 100.19 11.6
5 6 -8 136.69 13.5
4 6 -8 500.95 31.8
4 6 -8 510.05 34.2
-4 -6 8 499.15 40.5
3 6 -8 244.08 18.1
3 6 -8 246.88 20.4
-3 -6 8 267.57 24.6
2 6 -8 215.58 19.4
2 6 -8 247.68 17.6
-2 -6 8 209.98 19.8
1 6 -8 265.67 22.6
-1 -6 8 255.37 19.9
0 6 -8 509.65 37
0 -6 8 510.35 31.4
-1 6 -8 0.4 2.7
1 -6 8 7.1 3.3
-2 6 -8 182.98 20.5
2 -6 8 170.58 14.6
-3 6 -8 34.9 11.1
-4 6 -8 386.96 36
5 5 -8 22 6.2
5 5 -8 22.6 5.8
4 5 -8 755.02 47.5
4 5 -8 778.92 47
4 5 -8 769.22 46
-4 -5 8 771.72 55.29
3 5 -8 245.68 20
3 5 -8 247.08 21.1
3 5 -8 260.17 18.6
-3 -5 8 237.98 28.4
2 5 -8 196.38 18.6
2 5 -8 206.28 15.6
2 5 -8 202.28 17
-2 -5 8 179.78 17.9
1 5 -8 1089.69 59.89
1 5 -8 968.6 67.09
-1 -5 8 1039.6 60.49
0 5 -8 42.3 12.7
0 -5 8 41.1 6
-1 5 -8 397.86 31.1
1 -5 8 414.86 26.2
-2 5 -8 301.47 26.8
-3 5 -8 13.6 6.1
3 -5 8 -2.5 4.6
-4 5 -8 22.3 9.6
5 -5 8 -7.4 8.8
5 4 -8 35.6 7
5 4 -8 47.9 6.2
5 4 -8 32.6 8.5
4 4 -8 133.49 12.9
4 4 -8 148.29 16.1
4 4 -8 139.69 13
3 4 -8 5.3 2.7
3 4 -8 4.4 5.1
3 4 -8 5.8 2.8
-3 -4 8 17.8 6.6
2 4 -8 356.66 26.7
2 4 -8 384.66 24.7
-2 -4 8 364.76 28.6
1 4 -8 78.39 9.4
1 4 -8 74.09 9.6
1 4 -8 77.29 8.4
-1 -4 8 85.19 9.7
-1 -4 8 73.99 8.9
0 4 -8 1679.93 94.69
0 4 -8 1754.92 95.89
0 -4 8 1700.43 91.39
0 -4 8 1625.94 91.39
-1 4 -8 1126.39 65.29
1 -4 8 1074.29 60.39
1 -4 8 1151.38 60.29
1 -4 8 919.81 69.29
-2 4 -8 978.6 59.79
2 -4 8 823.52 65.19
2 -4 8 968.3 54.29
-3 4 -8 532.95 38.3
3 -4 8 529.35 33.5
3 -4 8 393.66 38.5
-4 4 -8 1608.84 98.09
-5 4 -8 247.58 26
5 3 -8 -4.1 2.2
5 3 -8 4 3.1
5 3 -8 -0.3 3.4
4 3 -8 74.09 9
4 3 -8 83.19 10.3
4 3 -8 83.59 9.1
3 3 -8 11.7 4.2
3 3 -8 4.3 2.8
3 3 -8 9.5 3.4
-3 -3 8 14.4 7.3
2 3 -8 171.28 14.2
2 3 -8 169.88 14.3
2 3 -8 189.38 15.4
-2 -3 8 172.08 17.7
1 3 -8 117.79 11
1 3 -8 110.49 11.4
1 3 -8 128.49 12.4
-1 -3 8 107.79 11.6
-1 -3 8 128.09 11.3
-1 -3 8 110.99 14.8
0 3 -8 2543.25 129.09
0 3 -8 2548.84 129.79
0 3 -8 2264.47 127.79
0 -3 8 2171.18 135.29
0 -3 8 2436.16 126.09
0 -3 8 2351.66 126.99
-1 3 -8 42.9 7.1
-1 3 -8 42.2 8.2
1 -3 8 25.4 8.5
1 -3 8 42.6 5.6
1 -3 8 43.5 6.1
-2 3 -8 183.68 16.2
-2 3 -8 167.78 16.9
2 -3 8 158.48 13.7
2 -3 8 155.58 19.6
2 -3 8 183.68 14.5
-3 3 -8 -5 2.9
3 -3 8 -3.8 2.8
3 -3 8 4.3 4.2
-4 3 -8 86.79 15.1
4 -3 8 93.59 15
-5 3 -8 3.9 5.5
5 -3 8 0.4 5.6
5 2 -8 55.09 11
5 2 -8 48.6 7
5 2 -8 70.29 8.8
4 2 -8 461.05 30.3
4 2 -8 458.25 29.8
4 2 -8 445.56 32.2
3 2 -8 87.89 9.2
3 2 -8 76.59 9.4
3 2 -8 84.29 9.1
-3 -2 8 76.29 18.1
2 2 -8 111.09 10.6
2 2 -8 122.59 11.5
2 2 -8 141.59 12
-2 -2 8 103.79 12.1
-2 -2 8 110.89 14.3
-2 -2 8 97.29 13.8
1 2 -8 273.27 20.5
1 2 -8 295.67 20.1
1 2 -8 277.07 20
-1 -2 8 269.77 24.8
-1 -2 8 288.17 22.3
-1 -2 8 293.37 20.4
0 2 -8 88.39 9.8
0 2 -8 90.49 9.4
0 2 -8 87.79 9.3
0 -2 8 83.59 9.1
0 -2 8 73.99 11.7
0 -2 8 90.99 8.5
-1 2 -8 265.07 20.4
1 -2 8 279.57 19.1
1 -2 8 265.77 24.8
1 -2 8 262.27 18
-2 2 -8 339.17 25.3
-2 2 -8 357.56 26
2 -2 8 341.47 22.9
2 -2 8 316.87 29
2 -2 8 371.86 23.8
-3 2 -8 621.34 42.4
-3 2 -8 634.04 41.1
3 -2 8 627.34 38.7
3 -2 8 673.83 40.4
3 -2 8 599.84 45.8
-4 2 -8 617.24 41.7
4 -2 8 519.65 42.6
-5 2 -8 54.89 11.8
5 -2 8 78.69 16.1
6 -2 8 331.87 32.5
5 1 -8 32.7 7.5
5 1 -8 29.1 9.4
4 1 -8 244.58 20.9
4 1 -8 205.28 17.4
4 1 -8 212.68 17.7
3 1 -8 3.9 3
3 1 -8 -1.7 1.3
2 1 -8 145.99 13.3
2 1 -8 133.69 12.6
2 1 -8 165.28 12.6
-2 -1 8 120.99 15.6
-2 -1 8 129.09 15
1 1 -8 29.2 5.1
1 1 -8 19.2 4.7
1 1 -8 20 5.1
-1 -1 8 33.5 8.2
-1 -1 8 25.1 8.3
-1 -1 8 24.8 6.1
0 1 -8 181.78 15.2
0 1 -8 152.18 13.7
0 1 -8 189.98 13.9
0 -1 8 155.08 12.6
0 -1 8 160.98 14.3
0 -1 8 169.48 17.4
-1 1 -8 488.15 32
-1 1 -8 490.55 31.9
-1 1 -8 461.45 30.2
1 -1 8 448.16 28.1
1 -1 8 460.35 29.6
1 -1 8 493.15 35
-2 1 -8 78.19 9.2
-2 1 -8 82.99 10.9
2 -1 8 89.59 8
2 -1 8 79.19 8.6
2 -1 8 74.69 11.2
-3 1 -8 283.57 22.4
-3 1 -8 269.47 22
3 -1 8 258.37 23.9
3 -1 8 257.67 20.2
3 -1 8 269.07 19
-4 1 -8 715.93 46.8
-4 1 -8 706.73 46.2
4 -1 8 707.33 49.1
4 -1 8 652.03 42
-5 1 -8 3.5 5.8
5 -1 8 24.1 10
6 -1 8 102.59 15.5
7 -1 8 33.7 10
5 0 -8 37.9 9.2
5 0 -8 40.9 8.3
4 0 -8 46.8 7.9
4 0 -8 43.9 9.1
4 0 -8 48 8.5
3 0 -8 38 6.8
3 0 -8 46 7.8
3 0 -8 28.1 7
-3 0 8 37.9 7.9
2 0 -8 141.39 11.6
2 0 -8 131.79 12.8
2 0 -8 123.89 13.3
-2 0 8 103.39 15.2
-2 0 8 143.29 14.4
1 0 -8 1434.86 81.49
1 0 -8 1449.15 83.89
1 0 -8 1514.65 79.89
-1 0 8 1568.04 85.19
-1 0 8 1432.36 85.79
0 0 -8 868.81 47.3
0 0 -8 799.92 48.5
0 0 -8 834.72 51.09
0 0 8 760.22 49.4
0 0 8 901.21 52.09
0 0 8 836.12 48
-1 0 -8 2481.25 135.99
-1 0 -8 2457.85 134.19
-1 0 -8 2442.16 131.89
1 0 8 2570.94 130.79
1 0 8 2653.03 136.89
1 0 8 2418.56 132.59
-2 0 -8 -2.1 2
-2 0 -8 -0.2 2.7
2 0 8 2.9 2.2
2 0 8 2.7 2.9
2 0 8 2.4 1.7
-3 0 -8 188.18 16.3
-3 0 -8 187.18 17.9
3 0 8 164.78 13.1
3 0 8 172.98 15.1
3 0 8 198.78 18.3
-4 0 -8 26.2 7.6
-4 0 -8 28 7
4 0 8 31.5 8.6
4 0 8 31.2 5.6
-5 0 -8 35.7 8.7
5 0 8 45.7 10.6
5 0 8 44.7 8.8
6 0 8 317.77 29.3
7 0 8 161.38 20.5
5 -1 -8 34.6 9.2
5 -1 -8 22 8.9
4 -1 -8 562.54 37.1
4 -1 -8 519.15 34.6
4 -1 -8 598.44 40.8
3 -1 -8 731.53 45.2
3 -1 -8 601.64 43.2
3 -1 -8 697.93 41.6
2 -1 -8 4.1 2.7
2 -1 -8 1.2 2.3
2 -1 -8 11.4 4.9
-2 1 8 7.8 3.9
1 -1 -8 1413.86 73.29
1 -1 -8 1281.17 75.09
1 -1 -8 1285.27 78.69
-1 1 8 1314.87 79.89
-1 1 8 1442.76 76.69
0 -1 -8 604.34 34.1
0 -1 -8 577.54 36.1
0 -1 -8 538.95 39.1
0 1 8 651.03 38
0 1 8 583.44 39.2
0 1 8 548.25 35.6
-1 -1 -8 5.1 3.2
-1 -1 -8 4.1 2.5
-1 -1 -8 4.3 3
1 1 8 0.7 1.6
1 1 8 3 2.5
1 1 8 6.3 2.3
-2 -1 -8 186.38 14.8
-2 -1 -8 208.68 19.5
2 1 8 203.28 17.2
2 1 8 198.18 15.5
2 1 8 193.28 13.3
-3 -1 -8 286.47 22.7
-3 -1 -8 320.77 27.3
3 1 8 320.57 23.1
3 1 8 406.16 26.9
3 1 8 328.67 20.5
-4 -1 -8 26.5 6.3
-4 -1 -8 19.9 6.9
4 1 8 18.3 5.6
4 1 8 22.1 5.9
4 1 8 15.1 3.6
-5 -1 -8 12.5 5.5
5 1 8 16.2 4.4
5 1 8 11.6 5.3
6 1 8 126.79 15.9
6 1 8 137.79 13.8
7 1 8 45.2 12.1
4 -2 -8 231.58 22.5
4 -2 -8 240.58 20.5
3 -2 -8 683.13 46.7
3 -2 -8 762.72 44.5
3 -2 -8 690.53 46.7
2 -2 -8 792.72 54.39
2 -2 -8 851.81 49.2
2 -2 -8 843.72 51.79
-2 2 8 884.21 49.9
1 -2 -8 103.09 10.6
1 -2 -8 96.79 13.2
1 -2 -8 99.39 9
-1 2 8 105.29 10.5
-1 2 8 94.19 13.5
0 -2 -8 55.19 9.2
0 -2 -8 60.19 6
0 -2 -8 58.29 7.5
0 2 8 63.49 8
0 2 8 66.39 9.2
-1 -2 -8 111.59 8.9
-1 -2 -8 97.39 10.5
-1 -2 -8 95.59 13
1 2 8 107.29 9.5
1 2 8 105.29 11.2
1 2 8 103.59 11.3
-2 -2 -8 537.25 40.9
-2 -2 -8 509.85 35.2
-2 -2 -8 470.75 32.1
2 2 8 556.84 30.6
2 2 8 587.54 35.7
-3 -2 -8 99.79 13.9
-3 -2 -8 90.99 10.3
3 2 8 131.09 12.8
3 2 8 97.99 10.4
3 2 8 101.19 7.9
-4 -2 -8 -4.4 4.3
4 2 8 -0.3 1.5
4 2 8 3.2 3.2
4 2 8 -0.2 1.3
5 2 8 539.75 32.8
5 2 8 540.75 37.5
6 2 8 255.07 23.1
6 2 8 252.67 20
7 2 8 209.78 21.3
4 -3 -8 268.77 23.1
4 -3 -8 257.27 24.9
3 -3 -8 1.3 2.9
3 -3 -8 -4.2 2.4
-3 3 8 -3.7 2.6
2 -3 -8 100.79 11.6
2 -3 -8 93.29 13.3
2 -3 -8 95.89 9.9
-2 3 8 97.69 9.7
1 -3 -8 435.56 29.6
1 -3 -8 438.16 27.1
1 -3 -8 385.76 34.2
-1 3 8 463.15 28.9
0 -3 -8 512.85 28.7
0 -3 -8 405.96 36
0 -3 -8 492.55 31.5
0 3 8 448.06 33.9
0 3 8 533.85 32.6
-1 -3 -8 17.7 6.7
-1 -3 -8 22.2 5.3
-1 -3 -8 19.7 3.3
1 3 8 15.7 4.5
1 3 8 10.6 4.1
-2 -3 -8 510.25 29.8
-2 -3 -8 460.05 39.1
-2 -3 -8 511.45 34.4
2 3 8 506.05 32.5
2 3 8 562.04 35.3
-3 -3 -8 428.96 26.8
-3 -3 -8 420.86 35.9
3 3 8 466.85 31.4
3 3 8 421.96 28.7
3 3 8 438.36 24.8
-4 -3 -8 12.2 3.6
-4 -3 -8 2.6 3.4
4 3 8 6.6 4
4 3 8 3.6 3.2
5 3 8 263.97 16.9
5 3 8 245.88 26.5
6 3 8 228.88 17.2
6 3 8 240.58 21.6
7 3 8 19.1 7.3
7 3 8 31.2 6.5
4 -4 -8 -6.1 4.7
4 -4 -8 8.1 4.4
-4 4 8 1.4 2.7
3 -4 -8 64.39 10.7
3 -4 -8 80.69 11.3
-3 4 8 63.59 7.9
2 -4 -8 681.23 44.4
2 -4 -8 678.63 52.19
2 -4 -8 594.84 47.9
-2 4 8 744.03 41.7
1 -4 -8 90.09 14.1
1 -4 -8 91.69 9
1 -4 -8 104.19 10.9
-1 4 8 79.79 9.9
0 -4 -8 259.97 17.2
0 -4 -8 229.78 25.3
0 -4 -8 278.67 20.3
0 4 8 261.67 23.3
0 4 8 278.37 21.6
-1 -4 -8 1107.69 77.49
-1 -4 -8 1261.57 69.79
1 4 8 1198.58 71.29
1 4 8 1318.07 72.79
-2 -4 -8 688.83 53.69
-2 -4 -8 806.82 41.9
-2 -4 -8 728.73 46.9
2 4 8 752.82 45.8
2 4 8 806.02 49.5
-3 -4 -8 853.81 45.4
-3 -4 -8 769.22 57.99
3 4 8 851.61 52.69
3 4 8 793.92 48.3
4 4 8 -5.3 2.2
4 4 8 2.6 1.1
4 4 8 2.7 3.2
5 4 8 54.39 9
5 4 8 49.9 4.6
6 4 8 425.26 25.7
6 4 8 435.36 32.6
7 4 8 3.4 3.9
7 4 8 0.5 4.5
3 -5 -8 104.59 13.6
3 -5 -8 96.39 12.1
-3 5 8 77.89 9.1
2 -5 -8 30 8.3
2 -5 -8 35.4 7
-2 5 8 30.8 6.6
1 -5 -8 323.37 22.7
1 -5 -8 280.07 30.8
1 -5 -8 328.27 24.6
-1 5 8 369.36 25.9
0 -5 -8 379.66 27.2
0 -5 -8 351.16 34.4
0 -5 -8 423.66 24.6
0 5 8 412.36 30.4
-1 -5 -8 3.2 2.4
-1 -5 -8 -1.4 4.5
-1 -5 -8 2.4 2.8
1 5 8 -0.8 3.2
1 5 8 2.9 3.8
-2 -5 -8 82.59 9.8
-2 -5 -8 66.99 5.6
-2 -5 -8 63.79 14.8
2 5 8 58.79 8.3
2 5 8 70.69 10.7
-3 -5 -8 184.08 11.2
3 5 8 178.48 15.3
3 5 8 190.58 19.4
4 5 8 101.49 13.5
5 5 8 223.28 12.5
5 5 8 257.67 23.2
6 5 8 431.86 32.4
6 5 8 370.46 21.6
7 5 8 8.6 3.3
7 5 8 10.2 6.4
3 -6 -8 14.5 5.8
2 -6 -8 240.28 20.1
2 -6 -8 241.28 21.8
-2 6 8 231.68 20.1
1 -6 -8 164.18 14.3
1 -6 -8 156.98 15.2
-1 6 8 162.38 16.8
0 -6 -8 59.59 15.2
0 -6 -8 76.89 9.2
0 -6 -8 70.39 7.4
0 6 8 77.29 11.6
-1 -6 -8 156.98 15
1 6 8 206.08 20.6
-2 -6 -8 2091.19 110.39
-2 -6 -8 2158.48 117.99
2 6 8 2212.58 118.89
3 6 8 -1.6 4.3
3 6 8 -0.5 2.9
4 6 8 197.58 21.4
5 6 8 105.99 14.7
6 6 8 4.3 6
7 6 8 109.29 15.2
2 -7 -8 101.39 12.7
2 -7 -8 47.3 10.9
-2 7 8 81.19 12
1 -7 -8 6.5 4.4
1 -7 -8 9.1 4.3
-1 7 8 1.4 5.9
0 -7 -8 69.89 7.5
0 -7 -8 54.59 10.9
0 -7 -8 66.59 8.6
0 7 8 65.69 11.2
-1 -7 -8 235.58 20.6
-1 -7 -8 246.28 15.6
-1 -7 -8 251.77 19.2
1 7 8 261.37 25.6
-2 -7 -8 118.59 7.7
-2 -7 -8 103.79 12.6
-2 -7 -8 126.49 9.2
2 7 8 147.49 18.4
3 7 8 119.59 16.6
4 7 8 677.33 50.59
5 7 8 1 5.7
6 7 8 5.4 5.2
7 7 8 57.59 13.8
1 -8 -8 -9.4 3.4
1 -8 -8 3.3 4.3
-1 8 8 10 6.7
0 -8 -8 14.9 4.7
0 -8 -8 30.1 11.2
0 -8 -8 11.9 5
0 8 8 18.4 7.3
-1 -8 -8 22 5.9
-1 -8 -8 36.5 7.8
-1 -8 -8 35 4.3
1 8 8 19.6 8.4
-2 -8 -8 444.86 25.1
-2 -8 -8 436.46 33.3
-2 -8 -8 450.05 24.2
2 8 8 514.75 41.2
3 8 8 236.28 26.7
4 8 8 6.8 5.3
5 8 8 144.89 20.2
6 8 8 575.64 46.8
0 -9 -8 -7.5 8.6
0 -9 -8 -1.7 3.9
0 -9 -8 -0.9 3.6
0 9 8 4.6 6.9
-1 -9 -8 54.39 9.6
-1 -9 -8 55.79 9.1
-1 -9 -8 66.39 6.5
1 9 8 65.79 15.6
-2 -9 -8 5.9 4.7
-2 -9 -8 1.4 0.8
2 9 8 2.3 6.5
3 9 8 -3.3 5.5
4 9 8 212.48 27.1
5 9 8 8.9 6.9
6 9 8 8.7 8.5
-2 -10 -8 -0.3 4.3
3 10 8 12.2 12.3
4 10 8 14.6 8
3 8 -9 3.8 6
-3 -8 9 1.4 9.3
2 8 -9 -1.4 5
1 8 -9 24 7.8
-1 -8 9 24.4 6.7
0 8 -9 8.1 4.7
0 -8 9 8.7 4.6
1 -8 9 168.78 14.5
4 7 -9 198.08 15.8
4 7 -9 184.98 18.6
-4 -7 9 164.88 25
3 7 -9 74.69 12.7
3 7 -9 95.09 10.3
-3 -7 9 92.49 16.7
2 7 -9 135.09 15.3
-2 -7 9 125.39 16.1
1 7 -9 9.5 5.3
-1 -7 9 9.3 5.5
0 7 -9 51.59 11.2
0 -7 9 48.6 8.1
-1 7 -9 138.29 18.3
1 -7 9 157.58 15.8
-2 7 -9 111.59 18.3
2 -7 9 92.89 10.8
-3 7 -9 10.6 7.6
4 6 -9 15.7 5.3
4 6 -9 12 7.2
3 6 -9 25.6 6.4
3 6 -9 15.5 4.4
-3 -6 9 22.3 9.8
2 6 -9 729.83 44.2
2 6 -9 679.23 46.7
-2 -6 9 765.42 48.9
1 6 -9 109.59 13.8
-1 -6 9 133.29 13.9
0 6 -9 590.04 43.7
0 -6 9 665.03 39.6
-1 6 -9 196.18 21.1
-2 6 -9 33 10.3
2 -6 9 42.5 7.2
-3 6 -9 -5.3 7.1
-4 6 -9 3 8.4
4 5 -9 157.98 14.2
4 5 -9 145.19 14.9
3 5 -9 146.49 15
3 5 -9 166.88 14.4
-3 -5 9 184.58 21.3
2 5 -9 37.1 6.8
2 5 -9 40.6 8.3
-2 -5 9 34.9 9
1 5 -9 93.69 10.6
1 5 -9 89.59 11
-1 -5 9 87.19 10.8
0 5 -9 312.47 25.9
0 -5 9 329.47 23.3
-1 5 -9 931.71 56.79
1 -5 9 767.82 58.99
-2 5 -9 100.29 16.6
2 -5 9 119.09 11.7
-3 5 -9 4.5 6.1
-4 5 -9 3 6.7
5 4 -9 24.6 6.2
5 4 -9 24.2 6.8
5 4 -9 25.1 6.4
4 4 -9 5.7 2.9
4 4 -9 0.9 2.1
4 4 -9 0.5 3.3
3 4 -9 180.08 15.9
3 4 -9 184.88 15.9
3 4 -9 190.38 16.4
2 4 -9 45.7 6.7
2 4 -9 36 8.5
2 4 -9 47.2 8.2
-2 -4 9 51.29 10.6
1 4 -9 -3.2 1.8
1 4 -9 -1.7 1.9
-1 -4 9 -2.8 6.2
0 4 -9 2.6 2.2
0 -4 9 -0.4 2.4
-1 4 -9 7.2 4.3
1 -4 9 -0.4 3.1
1 -4 9 18.1 7.8
-2 4 -9 503.15 35.6
2 -4 9 366.76 37.1
2 -4 9 467.55 29.7
-3 4 -9 507.55 39
3 -4 9 493.15 43.5
-4 4 -9 69.49 12.6
-5 4 -9 21.5 9.9
5 3 -9 72.29 12.6
5 3 -9 84.79 10.9
5 3 -9 106.19 11.6
4 3 -9 -1 2.5
4 3 -9 0.5 3.2
4 3 -9 2.8 3.7
3 3 -9 391.96 30.6
3 3 -9 381.16 26
3 3 -9 342.17 27
2 3 -9 12.3 4.8
2 3 -9 15 4.4
2 3 -9 15.7 4.4
-2 -3 9 10.6 5.9
1 3 -9 24.3 5.6
1 3 -9 12.4 4.9
1 3 -9 21.2 6.7
-1 -3 9 9.5 5.4
-1 -3 9 6.2 4.9
0 3 -9 80.49 9.9
0 3 -9 77.09 10
0 3 -9 92.19 10.5
0 -3 9 78.59 15.9
-1 3 -9 202.38 18.6
1 -3 9 206.78 16.3
1 -3 9 216.08 16.8
1 -3 9 199.88 22.9
-2 3 -9 18.4 6.1
2 -3 9 14 4.1
2 -3 9 7.9 4.9
-3 3 -9 -0.7 3.7
3 -3 9 1.8 4.7
-4 3 -9 8.5 5.7
4 -3 9 13.1 8.5
-5 3 -9 668.33 47.9
5 -3 9 561.04 48.9
5 2 -9 1 3.9
5 2 -9 6.5 4.5
4 2 -9 39.7 7.6
4 2 -9 44.3 8.6
4 2 -9 32.9 7.8
3 2 -9 552.24 34.6
3 2 -9 541.65 35.6
3 2 -9 532.05 35.6
2 2 -9 24.3 5.9
2 2 -9 26.5 5.4
2 2 -9 24.2 5.7
-2 -2 9 23.4 9
-2 -2 9 31.4 8.9
1 2 -9 91.39 10.3
1 2 -9 78.29 9.1
1 2 -9 80.59 9.3
-1 -2 9 79.49 10.6
-1 -2 9 87.49 13.3
-1 -2 9 84.79 13.8
0 2 -9 217.78 18.1
0 2 -9 229.48 18.7
0 2 -9 239.68 18.2
0 -2 9 203.68 17.9
0 -2 9 220.48 22.7
0 -2 9 211.08 16.4
-1 2 -9 227.48 18.2
-1 2 -9 197.38 17.8
1 -2 9 211.98 22.3
1 -2 9 213.38 15.8
1 -2 9 208.08 16.4
-2 2 -9 41.8 8.3
2 -2 9 32 9.7
2 -2 9 40.1 6.8
2 -2 9 45.2 5.9
-3 2 -9 180.98 18.2
3 -2 9 189.18 21.8
3 -2 9 173.28 14.6
-4 2 -9 21.6 7.8
4 -2 9 22.7 8.5
-5 2 -9 52.69 12
5 -2 9 72.59 17
6 -2 9 73.09 16.7
5 1 -9 7.4 4.5
5 1 -9 6.3 3.2
4 1 -9 29.9 6.2
4 1 -9 20 6.3
4 1 -9 28.4 7.9
3 1 -9 16.3 4.5
3 1 -9 6.4 3.3
3 1 -9 20.9 6.1
2 1 -9 349.47 26.2
2 1 -9 367.66 25.8
2 1 -9 390.16 24.4
-2 -1 9 308.07 27.8
1 1 -9 412.46 28.9
1 1 -9 400.16 26.3
1 1 -9 415.66 27.7
-1 -1 9 376.46 30.3
-1 -1 9 430.66 28.9
-1 -1 9 400.96 31.9
0 1 -9 229.18 17.9
0 1 -9 240.68 19.1
0 1 -9 268.77 20.7
0 -1 9 223.58 17.6
0 -1 9 233.38 19.6
0 -1 9 273.07 23.6
-1 1 -9 19.7 5.8
-1 1 -9 22.2 5.5
-1 1 -9 35.1 5.9
1 -1 9 17.9 4.3
1 -1 9 20.7 4.8
1 -1 9 22.6 7.1
-2 1 -9 17.8 4.7
-2 1 -9 14.4 5
2 -1 9 11.2 4.3
2 -1 9 16.8 4.7
2 -1 9 24.6 6.5
-3 1 -9 139.79 14.5
3 -1 9 129.49 16.3
3 -1 9 110.99 10.5
3 -1 9 128.59 15.1
-4 1 -9 171.18 18.3
4 -1 9 181.08 15.6
4 -1 9 213.08 22.4
-5 1 -9 261.77 25
5 -1 9 273.07 28
6 -1 9 174.08 21.7
4 0 -9 84.59 12.6
4 0 -9 109.79 13.2
4 0 -9 114.99 11.8
3 0 -9 185.68 15.8
3 0 -9 185.38 17.4
3 0 -9 226.58 19.4
-3 0 9 176.58 17.8
2 0 -9 74.09 10.3
2 0 -9 58.29 10.5
2 0 -9 80.59 9.6
-2 0 9 82.99 11.2
1 0 -9 -2.2 1.5
1 0 -9 -0.8 1.3
1 0 -9 3.3 3.5
-1 0 9 -3 3.2
-1 0 9 0.9 2.8
0 0 -9 451.05 27.6
0 0 -9 448.86 29.2
0 0 -9 430.96 42.5
0 0 9 388.26 27.9
0 0 9 380.06 29.7
0 0 9 468.35 32.5
-1 0 -9 214.88 16.6
-1 0 -9 222.08 19.7
-1 0 -9 228.98 18.7
1 0 9 199.68 16.8
1 0 9 198.78 15.1
1 0 9 231.88 20.5
-2 0 -9 200.08 19.8
-2 0 -9 204.48 17.1
2 0 9 220.68 20.2
2 0 9 200.28 16.6
2 0 9 234.58 15.5
-3 0 -9 21.1 5.9
3 0 9 22.9 4.4
3 0 9 15 5
3 0 9 29.7 7.9
-4 0 -9 144.49 15.9
4 0 9 136.59 16.3
4 0 9 152.78 12.7
-5 0 -9 193.88 20
5 0 9 217.78 23.2
5 0 9 208.98 17.7
6 0 9 57.69 13.4
7 0 9 9.7 8.4
4 -1 -9 145.39 15
4 -1 -9 181.98 18.7
3 -1 -9 84.19 11.9
3 -1 -9 87.29 9.7
3 -1 -9 86.59 11.5
-3 1 9 75.39 11
2 -1 -9 347.37 25
2 -1 -9 390.16 27
2 -1 -9 335.07 28.3
-2 1 9 359.76 27
1 -1 -9 1044 60.99
1 -1 -9 1070.29 58.59
1 -1 -9 1006.6 64.89
-1 1 9 1069.89 62.69
0 -1 -9 23.5 4.5
0 -1 -9 25.2 5.6
0 -1 -9 26.7 8.2
0 1 9 22.9 6.7
0 1 9 16.1 5.3
0 1 9 16.2 4.7
-1 -1 -9 1.2 2.8
-1 -1 -9 -0.5 2
-1 -1 -9 0.5 1.8
1 1 9 0.9 1.8
1 1 9 0.8 2.4
1 1 9 -0.7 2.7
-2 -1 -9 66.39 8
-2 -1 -9 64.89 12.3
2 1 9 56.79 8.8
2 1 9 64.19 6.5
2 1 9 75.49 8.6
-3 -1 -9 49.7 11
-3 -1 -9 46 7.6
3 1 9 41.7 9
3 1 9 49.3 5.6
3 1 9 38.2 7.4
-4 -1 -9 17.8 5.5
4 1 9 13.8 3.7
-5 -1 -9 17.7 6.4
5 1 9 21.1 7.2
5 1 9 19.4 5.1
6 1 9 111.89 15.4
7 1 9 9.3 8.9
4 -2 -9 457.45 32.4
3 -2 -9 494.05 38.3
3 -2 -9 581.34 38.4
3 -2 -9 582.44 35.5
-3 2 9 489.05 34.8
2 -2 -9 879.61 49.8
2 -2 -9 833.12 56.69
2 -2 -9 828.52 52.39
-2 2 9 857.41 51.49
1 -2 -9 7.5 3.6
1 -2 -9 6.2 5.2
1 -2 -9 8.2 2.7
-1 2 9 13.8 4.8
0 -2 -9 1057.39 62.39
0 -2 -9 1101.89 59.39
0 2 9 1160.48 63.59
0 2 9 919.81 78.89
-1 -2 -9 1939.31 114.89
-1 -2 -9 1984.6 104.69
-1 -2 -9 1951.4 108.49
1 2 9 1960.3 106.19
1 2 9 2079.09 109.29
1 2 9 1932.71 108.49
-2 -2 -9 22 4.8
-2 -2 -9 37.2 9.7
-2 -2 -9 41.4 8.4
2 2 9 37.1 5
2 2 9 30.4 7
2 2 9 42.6 5.9
-3 -2 -9 -1.7 1.8
-3 -2 -9 1.4 5.9
3 2 9 1.3 1.4
3 2 9 1.5 2.3
4 2 9 14 3
4 2 9 10.7 5.6
-5 -2 -9 133.59 15.1
5 2 9 158.78 12.6
5 2 9 172.28 17.9
6 2 9 19 7.7
6 2 9 34.8 6.5
7 2 9 16.9 7.6
3 -3 -9 8.7 5.4
3 -3 -9 0.4 3.2
3 -3 -9 6 6.3
-3 3 9 8.6 4.4
2 -3 -9 410.66 29.8
2 -3 -9 412.66 27
2 -3 -9 339.27 32.5
-2 3 9 427.76 28
1 -3 -9 616.34 35.3
1 -3 -9 575.14 37.9
1 -3 -9 479.75 42.7
-1 3 9 638.24 37.8
0 -3 -9 2252.27 134.99
0 -3 -9 2431.56 126.49
0 -3 -9 2125.29 137.19
0 3 9 2813.22 132.09
-1 -3 -9 0.2 5.2
-1 -3 -9 7.8 3.9
-1 -3 -9 9.3 2.9
1 3 9 -2.1 3.4
1 3 9 15.3 5.3
-2 -3 -9 1883.01 99.19
-2 -3 -9 1828.22 104.59
-2 -3 -9 1709.23 110.79
2 3 9 1881.01 99.49
2 3 9 2048.5 105.29
2 3 9 1840.52 102.49
-3 -3 -9 1299.87 76.89
3 3 9 1442.76 75.19
3 3 9 1506.55 82.69
4 3 9 0.3 3.3
4 3 9 3.2 1.7
5 3 9 20.3 6.4
5 3 9 28 4.3
6 3 9 3.6 4
6 3 9 1.5 2.4
7 3 9 93.09 14.5
7 3 9 104.49 11.5
3 -4 -9 2.2 4.9
3 -4 -9 -0.8 3.1
-3 4 9 4.8 4
2 -4 -9 7.7 3.7
2 -4 -9 -0.8 2.8
2 -4 -9 -6.4 5.5
-2 4 9 3.4 3.3
1 -4 -9 11.8 3.6
1 -4 -9 26.5 6.4
1 -4 -9 17 9.3
-1 4 9 18.9 5.2
0 -4 -9 154.48 12
0 -4 -9 143.99 20.1
0 -4 -9 166.28 15.2
0 4 9 171.48 15.8
-1 -4 -9 170.58 12
-1 -4 -9 162.88 15.4
-1 -4 -9 148.29 20.5
1 4 9 183.38 17.1
-2 -4 -9 2759.72 160.08
-2 -4 -9 2895.11 154.18
2 4 9 3291.57 162.98
-3 -4 -9 15.2 3.7
3 4 9 23 8.9
-4 -4 -9 1425.66 77.59
4 4 9 1457.55 84.89
4 4 9 1430.16 75.19
5 4 9 534.05 38.8
5 4 9 546.65 31.3
6 4 9 217.68 14.8
6 4 9 229.48 21.5
7 4 9 7.8 3.7
7 4 9 0.1 5
3 -5 -9 72.29 11.6
2 -5 -9 24.2 7.4
2 -5 -9 20.6 5.9
-2 5 9 33.5 6.8
1 -5 -9 157.08 13.4
1 -5 -9 148.19 21.3
1 -5 -9 153.48 15.4
-1 5 9 188.48 16.6
0 -5 -9 21.4 5.1
0 -5 -9 12.2 3.3
0 -5 -9 10 8.4
0 5 9 13 5.3
-1 -5 -9 31.2 4.2
-1 -5 -9 43.3 8.3
1 5 9 39.6 9.2
-2 -5 -9 27.2 4.2
2 5 9 35.1 8.8
-3 -5 -9 11.6 2.8
3 5 9 18.2 6.8
4 5 9 1282.87 78.29
5 5 9 10.9 6.1
6 5 9 289.77 16.5
6 5 9 304.37 26.9
7 5 9 75.79 9.3
7 5 9 62.39 13.2
2 -6 -9 -5.5 4
2 -6 -9 4.5 4.5
-2 6 9 -0.5 3.6
1 -6 -9 381.66 28.2
-1 6 9 360.36 34.3
0 -6 -9 51.39 9.3
0 -6 -9 53.49 6.5
0 6 9 62.89 10.3
-1 -6 -9 498.65 28.7
-1 -6 -9 470.45 33.8
1 6 9 532.95 38.5
-2 -6 -9 -0.7 1.4
-2 -6 -9 -0.1 2.9
2 6 9 8.4 5.7
3 6 9 24.5 8
4 6 9 392.66 32.9
5 6 9 45.7 11.2
6 6 9 534.75 41
7 6 9 90.99 14.1
1 -7 -9 21.3 5.7
1 -7 -9 26.2 7.1
-1 7 9 35.5 8.8
0 -7 -9 28.2 6.9
0 -7 -9 14.7 3.8
0 7 9 8.4 6.9
-1 -7 -9 686.43 44.2
-1 -7 -9 676.33 42.6
-1 -7 -9 678.93 38
1 7 9 692.53 49.7
-2 -7 -9 1.7 2.4
-2 -7 -9 7.6 4.3
-2 -7 -9 -1 1.4
2 7 9 -7.6 4.1
3 7 9 305.07 29.6
4 7 9 37.4 10.5
5 7 9 1.8 5.6
6 7 9 327.87 30.9
0 -8 -9 20.3 10.2
0 -8 -9 42.9 6.4
0 -8 -9 34.1 7.7
0 8 9 31.1 10
-1 -8 -9 67.59 9.7
-1 -8 -9 49.9 5.5
-1 -8 -9 46.6 9
1 8 9 51.49 12.5
-2 -8 -9 135.49 9
-2 -8 -9 152.88 10.3
-2 -8 -9 160.58 16.2
2 8 9 160.98 21
3 8 9 232.98 26.3
4 8 9 1.6 5.5
5 8 9 124.49 18.2
6 8 9 -1.3 6.3
-1 -9 -9 3.8 2.6
-1 -9 -9 13.6 7.1
-1 -9 -9 10.8 5.6
1 9 9 5.8 7.1
-2 -9 -9 57.99 11.2
2 9 9 52.19 13.5
3 9 9 0.6 6.1
4 9 9 106.69 25.8
5 9 9 110.99 17.7
1 8 -10 -6 6.1
-1 -8 10 -9.7 7.1
0 8 -10 224.38 23.8
0 -8 10 197.48 19.3
3 7 -10 -2.2 3
3 7 -10 5.1 4.1
-3 -7 10 19.3 11.6
2 7 -10 71.09 12.8
-2 -7 10 78.19 14.4
1 7 -10 126.09 16.3
0 7 -10 235.88 23.2
0 -7 10 223.58 19.5
-1 7 -10 -5.5 5.8
1 -7 10 6 5.3
-2 7 -10 120.29 20.4
3 6 -10 48.9 11.3
3 6 -10 33.4 11.4
2 6 -10 8.7 5.3
2 6 -10 16.7 4.7
-2 -6 10 5.1 8.4
1 6 -10 10 3.5
-1 -6 10 12.6 6
0 6 -10 91.99 14.9
0 -6 10 97.89 12.2
-1 6 -10 -0.6 2.7
1 -6 10 6.2 4.9
-2 6 -10 2.9 7.7
-3 6 -10 -2.6 8.6
4 5 -10 0.5 4.2
4 5 -10 9.8 4.8
3 5 -10 26.6 7.1
3 5 -10 15.3 4.9
2 5 -10 36.3 6.8
2 5 -10 14.2 5.8
1 5 -10 18.8 6.1
1 5 -10 23.4 5.7
-1 -5 10 14.3 6.5
0 5 -10 248.18 22.8
0 -5 10 259.07 21
-1 5 -10 68.09 13.2
1 -5 10 65.69 9.1
-2 5 -10 157.48 19
-3 5 -10 3.1 6
4 4 -10 195.08 17.4
4 4 -10 158.88 15.9
3 4 -10 9.3 4.5
3 4 -10 14.4 4.4
2 4 -10 109.79 14
2 4 -10 125.09 13.4
1 4 -10 48.9 9.4
1 4 -10 59.39 10
-1 -4 10 51.79 10.3
0 4 -10 1110.89 65.49
0 -4 10 1023.9 62.59
-1 4 -10 166.98 16.8
1 -4 10 134.69 13.1
1 -4 10 98.19 16.9
-2 4 -10 41.2 10
2 -4 10 48.9 13.8
-3 4 -10 5.9 6.8
3 -4 10 19.8 9
-4 4 -10 124.39 20.8
4 3 -10 795.92 49.1
4 3 -10 755.12 48.8
3 3 -10 46.6 8.4
3 3 -10 41.6 8.2
3 3 -10 54.19 8.2
2 3 -10 13.7 5
2 3 -10 16.2 5.1
1 3 -10 65.69 9
1 3 -10 70.79 9.1
0 3 -10 17.4 4.7
0 3 -10 14.5 3.7
0 -3 10 12.4 4.7
0 -3 10 9.9 6.1
-1 3 -10 66.39 11.3
1 -3 10 76.79 9.1
1 -3 10 57.19 14.3
-2 3 -10 1404.46 81.29
2 -3 10 1295.07 87.59
-3 3 -10 51.79 12
3 -3 10 38.8 11.7
-4 3 -10 141.89 18
4 -3 10 122.09 19.6
-5 3 -10 16.6 10.2
5 -3 10 20.1 9.7
4 2 -10 -3.3 3.4
4 2 -10 7 4.5
4 2 -10 6.8 5.1
3 2 -10 26.4 6.9
3 2 -10 21.2 5.5
3 2 -10 21.1 6.4
2 2 -10 287.17 22.6
2 2 -10 290.17 20.9
2 2 -10 265.67 21.5
-2 -2 10 257.07 25.7
1 2 -10 22.6 6.5
1 2 -10 19.5 6.2
1 2 -10 23.2 5.4
-1 -2 10 21.9 7.2
0 2 -10 34.2 7.5
0 2 -10 26.4 10.9
0 -2 10 19.1 7.4
0 -2 10 24.1 8.5
-1 2 -10 64.79 10.5
1 -2 10 56.19 9.8
1 -2 10 60.39 14
-2 2 -10 5.9 4.2
2 -2 10 8.3 5.8
-3 2 -10 21.4 7
3 -2 10 16 8.2
-4 2 -10 1380.26 85.79
4 -2 10 1436.16 91.69
-5 2 -10 4 5.2
5 -2 10 6.6 7.4
4 1 -10 368.36 29.1
4 1 -10 300.27 25.7
4 1 -10 302.47 25.9
3 1 -10 62.99 10.4
3 1 -10 74.49 9
3 1 -10 84.09 10.7
2 1 -10 81.89 11
2 1 -10 85.29 10.4
2 1 -10 86.89 9.7
-2 -1 10 86.79 13.1
1 1 -10 55.79 7.8
1 1 -10 81.29 10.7
1 1 -10 72.09 8.4
-1 -1 10 58.99 12.3
0 1 -10 116.79 12.9
0 1 -10 131.19 14.8
0 1 -10 127.59 12.2
0 -1 10 134.69 16.5
0 -1 10 119.49 14.3
-1 1 -10 -0.8 2.6
-1 1 -10 4.9 3.5
1 -1 10 1.4 2.4
1 -1 10 11.9 5.3
-2 1 -10 38 7.8
2 -1 10 23.3 7.7
2 -1 10 40 6.1
-3 1 -10 9.8 5.2
3 -1 10 1.2 2.9
3 -1 10 20 8.2
4 -1 10 124.99 17.8
-5 1 -10 19.9 7.5
5 -1 10 21.2 9.9
6 -1 10 172.28 22.5
4 0 -10 29.4 8.8
3 0 -10 44 8
3 0 -10 39.7 8.5
3 0 -10 42.9 10.6
-3 0 10 59.99 11.4
2 0 -10 651.83 46.1
2 0 -10 704.23 43.4
2 0 -10 711.33 41.2
-2 0 10 628.24 45.8
1 0 -10 12.8 4.3
1 0 -10 17.5 5.9
1 0 -10 1 4.2
-1 0 10 7.8 5.6
0 0 -10 18.3 8.7
0 0 -10 22.3 5.2
0 0 -10 15.2 5.6
0 0 10 18.2 6.7
0 0 10 19.4 5.3
-1 0 -10 36.4 7
-1 0 -10 34.2 7.7
1 0 10 22.4 4.9
1 0 10 35.5 9.3
-2 0 -10 -4 1.4
2 0 10 -0.1 1.6
2 0 10 3.6 3.9
-3 0 -10 172.58 16
3 0 10 154.08 12.4
3 0 10 141.29 17.1
-4 0 -10 8.1 5
4 0 10 0 3.2
4 0 10 9 5.2
-5 0 -10 3.1 7.1
5 0 10 -3.2 5.3
6 0 10 -4.8 6.3
4 -1 -10 27.9 6.8
4 -1 -10 34.2 8.2
3 -1 -10 276.67 20.9
3 -1 -10 272.97 23.2
3 -1 -10 248.78 25
-3 1 10 259.17 23
2 -1 -10 81.49 10.5
2 -1 -10 87.99 9.3
-2 1 10 82.79 11.3
1 -1 -10 15.4 3.8
1 -1 -10 25.8 6
1 -1 -10 26.7 8.7
-1 1 10 31.5 7.5
0 -1 -10 1523.85 87.79
0 -1 -10 1462.25 92.69
0 -1 -10 1532.95 84.99
0 1 10 1727.43 91.49
-1 -1 -10 183.18 14.6
-1 -1 -10 170.18 34.2
1 1 10 171.48 14.7
1 1 10 178.28 17.9
-2 -1 -10 -2.4 2.3
2 1 10 -4.5 6.2
2 1 10 3.4 2.1
-3 -1 -10 133.49 14.3
3 1 10 153.98 11.9
3 1 10 152.58 16.6
-4 -1 -10 172.88 16.3
4 1 10 149.88 17.3
4 1 10 142.59 12.7
-5 -1 -10 -4.6 4
5 1 10 2.2 3.3
5 1 10 2 3.5
6 1 10 -0.9 6.2
3 -2 -10 6.9 5.3
3 -2 -10 5.9 7.1
-3 2 10 5 5.2
2 -2 -10 121.89 11.4
2 -2 -10 102.59 12.7
2 -2 -10 107.29 21.8
-2 2 10 110.79 13
1 -2 -10 238.18 25.5
1 -2 -10 257.17 18.7
1 -2 -10 259.57 21.2
-1 2 10 289.47 22.7
0 -2 -10 69.29 7.5
0 -2 -10 50.09 12.5
0 -2 -10 57.79 8.3
0 2 10 80.49 9.7
-1 -2 -10 -1.3 1.8
-1 -2 -10 3.4 1.9
1 2 10 2.6 3
-2 -2 -10 1051.69 65.69
-2 -2 -10 1066.29 60.99
2 2 10 1097.09 60.19
2 2 10 1097.99 77.49
-3 -2 -10 83.29 9.8
3 2 10 98.39 12.1
3 2 10 70.99 7.6
-4 -2 -10 135.09 14.5
4 2 10 161.08 17.3
4 2 10 160.58 11.8
-5 -2 -10 20.4 5.9
5 2 10 6.4 5.2
5 2 10 3 2.9
6 2 10 102.49 15.3
6 2 10 121.49 11.3
3 -3 -10 264.07 27.9
3 -3 -10 296.37 22.9
3 -3 -10 298.77 26.6
-3 3 10 318.17 24
2 -3 -10 20.4 10.7
2 -3 -10 28.1 6.3
2 -3 -10 34.9 8.1
-2 3 10 31.4 7.4
1 -3 -10 2 3.2
1 -3 -10 -1.4 5
1 -3 -10 5.6 3.2
-1 3 10 5.5 3.9
0 -3 -10 290.17 35.1
0 -3 -10 294.17 23.5
0 -3 -10 312.97 20.9
0 3 10 351.46 25.3
-1 -3 -10 282.97 18.9
-1 -3 -10 271.77 22.3
1 3 10 269.07 22.6
-2 -3 -10 140.29 11.9
-2 -3 -10 124.99 14.6
2 3 10 165.88 16.2
-3 -3 -10 172.98 13.9
3 3 10 155.98 16.7
3 3 10 164.18 12.4
-4 -3 -10 857.81 52.69
4 3 10 914.51 57.49
4 3 10 914.71 49.1
-5 -3 -10 66.99 10.3
5 3 10 50.19 10.6
5 3 10 54.99 6
6 3 10 74.89 8.1
6 3 10 104.59 14.5
2 -4 -10 63.69 11.4
2 -4 -10 68.39 16.2
2 -4 -10 64.59 8.6
-2 4 10 69.29 10
1 -4 -10 660.03 41.8
1 -4 -10 537.75 55.39
1 -4 -10 573.54 45.3
-1 4 10 682.23 41.3
0 -4 -10 1.2 1.8
0 -4 -10 6.2 3.4
0 4 10 2.5 3.5
-1 -4 -10 46.6 9.1
-1 -4 -10 40.2 5.4
1 4 10 56.29 8.8
-2 -4 -10 195.18 14.4
-2 -4 -10 187.08 18.5
2 4 10 208.18 19.2
-3 -4 -10 25 5.4
3 4 10 43.7 9.5
-4 -4 -10 426.96 28
4 4 10 427.76 30.3
4 4 10 469.35 34.1
5 4 10 329.27 19.6
5 4 10 329.77 27.9
6 4 10 526.85 39.3
6 4 10 495.35 28.9
2 -5 -10 81.89 10
2 -5 -10 83.09 14.8
-2 5 10 87.19 11.2
1 -5 -10 15.1 4.4
1 -5 -10 0.4 3.6
-1 5 10 -2.2 4.3
0 -5 -10 227.68 16.3
0 -5 -10 222.18 19.6
0 5 10 235.08 20.8
-1 -5 -10 406.56 30.8
-1 -5 -10 416.46 25.7
1 5 10 462.85 33.1
-2 -5 -10 13.4 3.9
-2 -5 -10 1.9 3.4
2 5 10 1.5 2.9
-3 -5 -10 232.98 16.7
3 5 10 287.17 24.5
-4 -5 -10 293.77 18.8
4 5 10 333.27 27.6
5 5 10 1.7 3.8
6 5 10 320.17 18.8
6 5 10 375.26 30.9
1 -6 -10 72.59 10.4
1 -6 -10 70.19 8.4
-1 6 10 70.69 10.8
0 -6 -10 324.67 26.5
0 -6 -10 346.47 22.7
0 6 10 395.76 29.6
-1 -6 -10 4.4 2.6
-1 -6 -10 3.1 2.2
1 6 10 -2.7 2.8
-2 -6 -10 92.29 11.8
-2 -6 -10 75.59 7.1
2 6 10 84.39 13.4
-3 -6 -10 29.5 3.5
3 6 10 15.2 7.4
4 6 10 110.99 15.6
5 6 10 204.48 21.9
6 6 10 458.35 37.2
0 -7 -10 110.29 9.9
0 -7 -10 103.99 12.7
0 7 10 85.09 13.7
-1 -7 -10 29.5 7.7
-1 -7 -10 17.6 3.7
1 7 10 27.4 7.9
-2 -7 -10 215.98 19.7
-2 -7 -10 192.78 14.9
-2 -7 -10 181.98 12.6
2 7 10 212.78 22.5
3 7 10 2.1 5.3
4 7 10 7 7.2
5 7 10 2 6.3
6 7 10 149.99 19.4
-1 -8 -10 4.6 4.8
-1 -8 -10 5.7 2.9
-1 -8 -10 10.3 7.6
1 8 10 -3.2 5.1
-2 -8 -10 32 8.8
2 8 10 28 8.7
3 8 10 151.48 21
4 8 10 65.09 22.8
5 8 10 35.8 11.1
0 7 -11 -2.7 4.9
2 6 -11 9.9 4.6
2 6 -11 3 5.1
1 6 -11 46.4 13.3
0 6 -11 319.07 28.6
-1 6 -11 29.7 10.4
-2 6 -11 1.3 6.9
3 5 -11 -4.1 3.3
3 5 -11 12.5 5.2
2 5 -11 90.49 12.1
2 5 -11 72.89 12.5
1 5 -11 18.7 7.8
0 5 -11 64.69 12.5
-1 5 -11 108.39 14.9
-2 5 -11 171.78 20.8
-3 5 -11 2.1 5.4
3 4 -11 305.27 23.3
3 4 -11 290.47 24.6
2 4 -11 -0.4 3.8
2 4 -11 11.4 5
1 4 -11 2.9 4.7
1 4 -11 10.3 5.2
0 4 -11 72.89 12.8
-1 4 -11 146.39 17.4
1 -4 11 143.89 21.5
-2 4 -11 39.4 9.6
2 -4 11 34.6 12.2
-3 4 -11 37.5 11.4
3 -4 11 44.2 13.1
-4 4 -11 15.4 8.1
4 -4 11 5.1 7.3
3 3 -11 -0.8 3
3 3 -11 -6.3 2.9
2 3 -11 436.86 31.3
2 3 -11 473.25 32.1
1 3 -11 390.06 28.2
1 3 -11 402.46 28.6
-1 -3 11 336.37 34.1
0 3 -11 57.19 10.4
0 3 -11 50.39 9.9
0 -3 11 47.9 13.6
-1 3 -11 123.49 14.5
1 -3 11 91.79 19.8
-2 3 -11 156.68 17.9
2 -3 11 146.39 21.2
-3 3 -11 49.9 11.5
3 -3 11 38.9 12.3
-4 3 -11 20.5 7.5
4 -3 11 -7.4 6.9
3 2 -11 11.1 4.7
3 2 -11 4.6 3.6
2 2 -11 290.77 22.4
2 2 -11 306.47 22.6
-2 -2 11 243.58 26.7
1 2 -11 -3.5 2.3
1 2 -11 -2.7 2.7
-1 -2 11 -2.6 4
0 2 -11 219.88 19.5
0 2 -11 239.38 20.6
0 -2 11 213.38 24.6
-1 2 -11 445.36 32
1 -2 11 425.86 38.2
-2 2 -11 80.19 13.2
2 -2 11 73.29 12.4
-3 2 -11 34.2 9.3
3 -2 11 31.1 10
-4 2 -11 24.6 7.8
4 -2 11 32 12.1
-5 2 -11 19.7 7.9
5 -2 11 8 8.9
3 1 -11 64.09 11.6
3 1 -11 42 7.7
3 1 -11 50.39 12.2
2 1 -11 131.49 13.9
2 1 -11 130.59 13
-2 -1 11 123.69 17.6
1 1 -11 0.4 2.5
1 1 -11 -0.3 2.9
-1 -1 11 -0.4 4.3
0 1 -11 805.12 49.5
0 1 -11 806.32 51.29
0 -1 11 821.12 57.19
-1 1 -11 27 7.3
-1 1 -11 14.6 6
1 -1 11 49.4 12.1
2 -1 11 349.27 32.1
-3 1 -11 363.36 28.7
3 -1 11 342.17 32.3
-4 1 -11 265.17 24.3
4 -1 11 226.08 26.2
-5 1 -11 55.69 12.4
5 -1 11 31.3 11.3
3 0 -11 1.7 2.7
3 0 -11 18 9
3 0 -11 7.2 5.3
-3 0 11 -0.5 6
2 0 -11 0.6 3.1
2 0 -11 -2.3 7.9
2 0 -11 0.5 2.7
-2 0 11 2.1 5.4
1 0 -11 347.37 23.2
1 0 -11 311.57 24.1
-1 0 11 268.67 31.5
0 0 -11 118.39 12.1
0 0 -11 106.79 12.8
0 0 11 114.29 15.5
-1 0 -11 71.79 8.9
-1 0 -11 83.19 11.3
1 0 11 57.79 9.8
-2 0 -11 390.26 26.8
2 0 11 350.06 30.3
2 0 11 297.97 22.5
-3 0 -11 597.24 40.1
3 0 11 577.84 35.6
3 0 11 571.14 44
-4 0 -11 133.69 15.9
4 0 11 110.59 16.8
-5 0 -11 -2 5.1
5 0 11 -5.9 4.9
-6 0 -11 67.09 14.7
6 0 11 54.59 14.8
3 -1 -11 17.9 5.4
3 -1 -11 4.9 8.9
3 -1 -11 23 7.3
-3 1 11 33.2 9.3
2 -1 -11 -1.5 2.4
2 -1 -11 -5.3 6.5
2 -1 -11 -1.1 2.3
-2 1 11 0.4 5.1
1 -1 -11 207.78 18.8
1 -1 -11 221.78 17.2
-1 1 11 210.88 21
0 -1 -11 21.6 6.5
0 -1 -11 24.9 5.5
0 1 11 19.4 7.1
-1 -1 -11 25.8 5.8
-1 -1 -11 19.4 5.8
1 1 11 29.9 8.9
1 1 11 23.4 6
-2 -1 -11 305.47 22.8
2 1 11 292.17 20.9
2 1 11 300.07 26.8
-3 -1 -11 176.38 17.2
3 1 11 167.38 13.8
3 1 11 203.08 20.6
-4 -1 -11 167.98 17.3
4 1 11 187.78 20.5
4 1 11 172.78 13.8
-5 -1 -11 65.49 12.9
5 1 11 73.99 14.6
6 1 11 137.29 19.1
2 -2 -11 25.5 10.4
2 -2 -11 34.7 6.5
2 -2 -11 34.9 7.8
-2 2 11 29.3 8.8
1 -2 -11 197.38 15.9
1 -2 -11 206.88 19
-1 2 11 217.48 24.5
0 -2 -11 6.6 3.4
0 -2 -11 7.3 3.7
0 2 11 6.6 4.7
-1 -2 -11 9.8 3.9
-1 -2 -11 -2 2.8
1 2 11 0.9 3.6
-2 -2 -11 60.59 12.1
-2 -2 -11 66.29 9
2 2 11 69.39 11
2 2 11 61.59 8.1
-3 -2 -11 501.85 34
3 2 11 527.05 31.5
3 2 11 521.55 38.4
-4 -2 -11 182.78 18.1
4 2 11 203.18 21.3
4 2 11 223.98 15.3
-5 -2 -11 5.5 5.9
5 2 11 -1.5 3.1
5 2 11 -2.6 2.8
6 2 11 29.4 8.9
6 2 11 40.7 9
2 -3 -11 6.4 4.3
2 -3 -11 16.5 8.9
-2 3 11 3.3 5.3
1 -3 -11 473.45 30.8
1 -3 -11 518.75 35.3
-1 3 11 479.25 36.8
0 -3 -11 136.59 14.3
0 -3 -11 124.69 11.7
0 3 11 151.68 15.7
-1 -3 -11 103.99 13.2
-1 -3 -11 95.39 9.8
1 3 11 112.29 13.7
-2 -3 -11 81.29 9.3
-2 -3 -11 91.59 12.6
2 3 11 90.49 12.2
-3 -3 -11 448.06 30.6
3 3 11 511.05 36.3
3 3 11 465.55 29.5
-4 -3 -11 48.3 9
4 3 11 50.59 6.4
4 3 11 44.9 10.3
-5 -3 -11 8 5.2
5 3 11 11.1 3.3
5 3 11 5.1 6.2
6 3 11 44.5 12
6 3 11 42.2 7.3
2 -4 -11 58.79 8.9
1 -4 -11 384.16 29.3
1 -4 -11 346.77 24.6
-1 4 11 386.06 28.6
0 -4 -11 52.69 9.7
0 -4 -11 52.29 7.8
0 4 11 65.29 10.2
-1 -4 -11 8 5
-1 -4 -11 5.9 3.2
1 4 11 5 4.6
-2 -4 -11 12.8 6
-2 -4 -11 15.2 4.4
2 4 11 13.5 6
-3 -4 -11 47.3 7.4
3 4 11 35.2 9.3
-4 -4 -11 18.2 5.5
4 4 11 25.6 7.7
4 4 11 11.1 3.7
5 4 11 247.48 16.2
5 4 11 257.27 23.9
6 4 11 130.49 10.1
6 4 11 142.09 19.8
1 -5 -11 492.65 30.4
1 -5 -11 377.36 34.7
-1 5 11 497.45 34
0 -5 -11 -6.2 2.5
0 -5 -11 -1.1 2.5
0 5 11 4.8 4.6
-1 -5 -11 16 6
-1 -5 -11 27 5.4
1 5 11 20 7.2
-2 -5 -11 14.3 5
-2 -5 -11 -2.9 2.3
2 5 11 1.5 4.9
-3 -5 -11 -1 2.8
-4 -5 -11 70.59 8.2
4 5 11 99.49 13.5
5 5 11 13 6.7
6 5 11 131.79 17.3
6 5 11 139.79 10.3
0 -6 -11 3.3 3.2
0 -6 -11 1.8 3.9
0 6 11 3.4 5.2
-1 -6 -11 396.36 25.4
-1 -6 -11 404.96 31.7
1 6 11 445.76 33.5
-2 -6 -11 90.29 8.8
-2 -6 -11 88.69 12.9
2 6 11 120.79 15.3
-3 -6 -11 61.49 6.5
3 6 11 69.39 11.7
4 6 11 217.48 22.7
-1 -7 -11 33.4 9.1
-1 -7 -11 27.3 4.7
1 7 11 25.8 8.8
-2 -7 -11 79.99 11.1
-2 -7 -11 58.29 6.9
2 7 11 71.29 11.8
3 7 11 634.44 47.6
4 7 11 59.79 15.5
5 7 11 5.3 4.7
1 5 -12 6.2 5
-2 5 -12 175.58 21.7
2 4 -12 29 7.6
2 4 -12 42.8 9.2
1 4 -12 8.6 5.4
1 4 -12 8 4.1
0 4 -12 67.59 11.7
-1 4 -12 267.17 24.6
1 -4 12 221.08 27.9
-2 4 -12 32.1 10.6
2 -4 12 36.2 10.9
-3 4 -12 76.29 15.9
3 -4 12 83.59 18.7
2 3 -12 113.99 13.8
1 3 -12 237.98 21.4
1 3 -12 246.48 21.7
-1 -3 12 216.28 26.3
0 3 -12 -8.3 3.6
0 3 -12 -6.6 2.5
0 -3 12 -6.9 5.8
-1 3 -12 164.98 18.9
1 -3 12 184.08 24.1
-2 3 -12 125.19 16.3
2 -3 12 124.09 19.6
-3 3 -12 27.7 9.3
3 -3 12 12.2 9.9
2 2 -12 156.48 15.2
2 2 -12 152.58 15.7
1 2 -12 228.18 19.7
1 2 -12 245.38 21.1
-1 -2 12 188.58 24.5
0 2 -12 39.7 8.6
0 2 -12 32.5 8.7
0 -2 12 36.8 11.7
-1 2 -12 74.59 12.4
1 -2 12 77.79 16.6
-2 2 -12 2.8 5.5
2 -2 12 13.1 7.7
-3 2 -12 96.29 16.9
3 -2 12 103.59 16.7
-4 2 -12 93.29 17
2 1 -12 206.18 18.8
2 1 -12 191.68 17.3
-2 -1 12 173.08 21.1
1 1 -12 59.19 10.4
1 1 -12 42 8.2
-1 -1 12 45.5 13.3
0 1 -12 295.67 24.5
0 1 -12 288.27 23.1
0 -1 12 267.87 28.3
-1 1 -12 4.3 5.4
-1 1 -12 16.3 5.8
1 -1 12 25.7 9.5
-2 1 -12 1.4 3.8
2 -1 12 -1.1 6.4
-3 1 -12 79.79 13.8
3 -1 12 47.5 13.7
-4 1 -12 51.29 11.2
4 -1 12 54.89 14.4
2 0 -12 112.29 13.3
2 0 -12 100.79 11.5
-2 0 12 83.19 13.8
1 0 -12 48 9.7
1 0 -12 39.4 7.7
-1 0 12 54.59 12.1
0 0 -12 629.54 40.1
0 0 -12 613.04 42.5
0 0 12 629.14 47.3
-1 0 -12 369.36 26.2
-1 0 -12 342.87 28.4
1 0 12 307.87 30
-2 0 -12 98.29 12.8
2 0 12 105.29 15.3
-3 0 -12 129.99 15.1
3 0 12 156.38 19.7
-4 0 -12 9.2 6.3
4 0 12 -0.8 4.2
-5 0 -12 3.9 7.5
2 -1 -12 24 7.8
2 -1 -12 23.2 5.8
-2 1 12 6.4 8.5
1 -1 -12 152.68 16.4
1 -1 -12 166.48 14.6
-1 1 12 158.58 19.1
0 -1 -12 5.8 4.9
0 -1 -12 3.9 3.9
0 1 12 -0.9 4.3
-1 -1 -12 196.38 17
-1 -1 -12 177.48 18.8
1 1 12 183.88 20.4
-2 -1 -12 354.26 26.2
2 1 12 340.97 30.9
-3 -1 -12 39.7 8.7
3 1 12 51.09 12.1
-4 -1 -12 122.19 15.1
4 1 12 126.39 17.7
-5 -1 -12 4.3 5
5 1 12 -5.8 6.5
1 -2 -12 100.29 10.7
1 -2 -12 130.59 13.9
-1 2 12 104.89 14.7
0 -2 -12 49.3 10.5
0 -2 -12 65.49 8.6
0 2 12 73.69 11.1
-1 -2 -12 26.6 5.8
-1 -2 -12 27.3 6.7
1 2 12 34.8 9.1
-2 -2 -12 34.5 7.5
2 2 12 27.8 6.4
-3 -2 -12 25.5 6.5
3 2 12 27.9 9.1
3 2 12 27.4 5.5
-4 -2 -12 730.73 47.8
4 2 12 725.83 52.19
4 2 12 735.73 42.7
-5 -2 -12 66.99 11.8
5 2 12 70.89 8.1
5 2 12 61.09 17.5
1 -3 -12 9.3 3.6
1 -3 -12 2.7 4.8
-1 3 12 8.4 6.9
0 -3 -12 203.98 17.7
0 -3 -12 248.38 21.9
0 3 12 255.67 23
-1 -3 -12 134.49 15.5
-1 -3 -12 144.59 12.4
1 3 12 112.59 15.1
-2 -3 -12 0.1 4
-2 -3 -12 0.5 3.1
2 3 12 0.7 3.1
-3 -3 -12 89.39 11.1
3 3 12 91.49 10.6
3 3 12 99.49 14.2
-4 -3 -12 294.07 24.4
4 3 12 349.07 22.1
4 3 12 314.97 28.9
-5 -3 -12 10.6 6.6
5 3 12 20.1 4.7
0 -4 -12 323.07 21.8
0 -4 -12 272.77 26.6
0 4 12 315.77 26.5
-1 -4 -12 79.19 9.4
-1 -4 -12 79.59 13.8
1 4 12 100.89 14
-2 -4 -12 43.9 7.3
-2 -4 -12 25.9 8.1
2 4 12 16.3 6.5
-3 -4 -12 123.69 12.6
3 4 12 134.59 17.1
-4 -4 -12 392.56 28.2
4 4 12 442.66 34.8
-5 -4 -12 36.5 7.5
5 4 12 23.6 8.3
5 4 12 34.5 5.5
0 -5 -12 19.9 5
0 -5 -12 29 8
0 5 12 17.7 6.3
-1 -5 -12 53.49 8.3
-1 -5 -12 71.59 12.8
1 5 12 71.39 10.7
-2 -5 -12 3.2 4.3
-2 -5 -12 5.9 3.9
2 5 12 -3.8 4.5
-3 -5 -12 238.78 18.2
3 5 12 262.77 24.7
-4 -5 -12 41.6 7
4 5 12 69.79 18.9
5 5 12 77.49 12.8
-2 -6 -12 82.69 8.8
-2 -6 -12 58.09 13.9
2 6 12 73.59 12
-3 -6 -12 -8.6 3.1
4 6 12 176.78 20.6
0 3 -13 1.7 6
0 -3 13 5.2 7.8
-1 3 -13 48.6 11.6
-2 3 -13 9.3 6.8
2 -3 13 12.1 10
1 2 -13 300.07 25.9
-1 -2 13 278.57 30.8
0 2 -13 25 7.4
0 2 -13 21.7 7.3
0 -2 13 28.8 12.2
-1 2 -13 30.3 8.2
1 -2 13 11.3 9.4
-2 2 -13 110.19 17.1
-3 2 -13 249.88 24.3
3 -2 13 163.38 25.4
1 1 -13 84.59 12.9
1 1 -13 64.69 13.1
-1 -1 13 40.3 13.5
0 1 -13 1.8 5.3
0 1 -13 10.6 6.5
0 -1 13 12.6 6.5
-1 1 -13 126.69 14.9
1 -1 13 108.39 17.8
-2 1 -13 9.7 5.5
2 -1 13 -0.6 8
-3 1 -13 32.8 8.9
3 -1 13 26.5 10.3
1 0 -13 34.7 7.9
1 0 -13 44.4 10.2
-1 0 13 35.7 10.8
0 0 -13 0.1 3.4
0 0 -13 4.5 5
0 0 13 17.6 6.9
-1 0 -13 31.5 8.5
-1 0 -13 26.6 7.8
1 0 13 9.9 8
-2 0 -13 170.98 17.6
2 0 13 136.79 20.3
-3 0 -13 22.4 7.9
3 0 13 10.4 7.1
-4 0 -13 3.5 5.6
4 0 13 13.3 8.7
0 -1 -13 2.1 5.9
0 -1 -13 9.2 4.3
0 1 13 12.4 8.1
-1 -1 -13 -1 3.5
-1 -1 -13 7.5 5.6
1 1 13 11.4 6.1
-2 -1 -13 37.4 8.1
2 1 13 24.9 10.3
-3 -1 -13 38.2 9.9
3 1 13 31 10.2
-4 -1 -13 35.6 10.1
4 1 13 26.7 11.9
0 -2 -13 313.87 26
0 -2 -13 261.67 22
0 2 13 292.07 28
-1 -2 -13 246.18 24.3
1 2 13 251.77 25.3
-2 -2 -13 2.7 4.4
2 2 13 12.4 7.7
-3 -2 -13 50.09 10.5
3 2 13 47.8 12.3
-4 -2 -13 -8.2 5.8
4 2 13 6.6 5.4
-1 -3 -13 372.36 26.2
-1 -3 -13 353.16 30.8
1 3 13 373.76 31.8
-2 -3 -13 119.69 13.7
2 3 13 160.28 19.2
-3 -3 -13 177.58 17.3
3 3 13 183.88 25.3
-4 -3 -13 -4.1 5.7
4 3 13 -1 4.4
4 3 13 1.6 6.4
-1 -4 -13 130.69 13.1
-1 -4 -13 117.29 16.6
1 4 13 117.69 16.1
-2 -4 -13 4.2 5.5
-2 -4 -13 7.8 5.5
2 4 13 20.3 8.6
-3 -4 -13 294.17 22.4
3 4 13 293.47 28
