#------------------------------------------------------------------------------
#$Date: 2022-06-23 10:17:49 +0300 (Thu, 23 Jun 2022) $
#$Revision: 276165 $
#$URL: file:///home/coder/svn-repositories/cod/cif/8/10/54/8105459.cif $
#------------------------------------------------------------------------------
#
# This file is available in the Crystallography Open Database (COD),
# http://www.crystallography.net/
#
# All data on this site have been placed in the public domain by the
# contributors.
#
data_8105459
loop_
_publ_author_name
'Zhai, Shengxian'
'Yu, Youzhu'
'Niu, Yongsheng'
'Han, Chuchu'
_publ_section_title
;
 Crystal structure of (4aS,5S,6aS,6a1S, 10aS)-4a,5,6a,6a
 1,9,10-hexahydro-7H-4,5-methanocyclobuta[4,5]naphtho[8a,1-b]pyran-6(2H)-one,
 C15H16O2
;
_journal_issue                   6
_journal_name_full
'Zeitschrift f\"ur Kristallographie - New Crystal Structures'
_journal_page_first              1335
_journal_page_last               1337
_journal_paper_doi               10.1515/ncrs-2020-0304
_journal_volume                  235
_journal_year                    2020
_chemical_formula_moiety         'C15 H16 O2'
_chemical_formula_sum            'C15 H16 O2'
_chemical_formula_weight         228.28
_space_group_crystal_system      triclinic
_space_group_IT_number           2
_space_group_name_Hall           '-P 1'
_space_group_name_H-M_alt        'P -1'
_atom_sites_solution_hydrogens   geom
_cell_angle_alpha                92.790(7)
_cell_angle_beta                 100.516(7)
_cell_angle_gamma                106.105(6)
_cell_formula_units_Z            2
_cell_length_a                   5.6034(7)
_cell_length_b                   8.7105(11)
_cell_length_c                   12.5661(16)
_cell_measurement_reflns_used    3876
_cell_measurement_temperature    296(2)
_cell_measurement_theta_max      28.48
_cell_measurement_theta_min      3.87
_cell_volume                     576.15(13)
_computing_molecular_graphics    'Olex2 (Dolomanov et al., 2009)'
_computing_publication_material  'Olex2 (Dolomanov et al., 2009)'
_computing_structure_refinement  'XL (Sheldrick, 2008)'
_diffrn_ambient_temperature      296.15
_diffrn_measured_fraction_theta_full 0.992
_diffrn_measured_fraction_theta_max 0.983
_diffrn_measurement_device_type  'Bruker APEX-II CCD'
_diffrn_measurement_method       '\f and \w scans'
_diffrn_radiation_type           MoK\a
_diffrn_radiation_wavelength     0.71073
_diffrn_reflns_av_R_equivalents  0.0129
_diffrn_reflns_av_unetI/netI     0.0179
_diffrn_reflns_Laue_measured_fraction_full 0.992
_diffrn_reflns_Laue_measured_fraction_max 0.983
_diffrn_reflns_limit_h_max       7
_diffrn_reflns_limit_h_min       -6
_diffrn_reflns_limit_k_max       11
_diffrn_reflns_limit_k_min       -11
_diffrn_reflns_limit_l_max       16
_diffrn_reflns_limit_l_min       -16
_diffrn_reflns_number            5634
_diffrn_reflns_point_group_measured_fraction_full 0.992
_diffrn_reflns_point_group_measured_fraction_max 0.983
_diffrn_reflns_theta_full        25.242
_diffrn_reflns_theta_max         28.503
_diffrn_reflns_theta_min         3.866
_diffrn_standards_number         0
_exptl_absorpt_coefficient_mu    0.086
_exptl_absorpt_correction_type   none
_exptl_crystal_colour            colorless
_exptl_crystal_density_diffrn    1.316
_exptl_crystal_description       block
_exptl_crystal_F_000             244
_exptl_crystal_size_max          0.18
_exptl_crystal_size_mid          0.16
_exptl_crystal_size_min          0.14
_refine_diff_density_max         0.297
_refine_diff_density_min         -0.262
_refine_diff_density_rms         0.047
_refine_ls_extinction_coef       .
_refine_ls_extinction_method     none
_refine_ls_goodness_of_fit_ref   1.061
_refine_ls_hydrogen_treatment    constr
_refine_ls_matrix_type           full
_refine_ls_number_parameters     154
_refine_ls_number_reflns         2869
_refine_ls_number_restraints     0
_refine_ls_restrained_S_all      1.061
_refine_ls_R_factor_all          0.0516
_refine_ls_R_factor_gt           0.0476
_refine_ls_shift/su_max          0.000
_refine_ls_shift/su_mean         0.000
_refine_ls_structure_factor_coef Fsqd
_refine_ls_weighting_details
'w=1/[\s^2^(Fo^2^)+(0.0716P)^2^+0.1386P] where P=(Fo^2^+2Fc^2^)/3'
_refine_ls_weighting_scheme      calc
_refine_ls_wR_factor_gt          0.1305
_refine_ls_wR_factor_ref         0.1348
_reflns_Friedel_coverage         0.000
_reflns_Friedel_fraction_full    .
_reflns_Friedel_fraction_max     .
_reflns_number_gt                2588
_reflns_number_total             2869
_reflns_threshold_expression     'I > 2\s(I)'
_cod_data_source_file            suppl_ncrs-2020-0304_suppl.cif
_cod_data_source_block           2_a
_cod_database_code               8105459
_shelx_space_group_comment
;
The symmetry employed for this shelxl refinement is uniquely defined
by the following loop, which should always be used as a source of
symmetry information in preference to the above space-group names.
They are only intended as comments.
;
_shelx_estimated_absorpt_t_max   0.988
_shelx_estimated_absorpt_t_min   0.985
_olex2_refinement_description
;
1. Fixed Uiso
 At 1.2 times of:
  All C(H) groups, All C(H,H) groups
2.a Ternary CH refined with riding coordinates:
 C8(H8), C11(H11), C10(H10), C7(H7)
2.b Secondary CH2 refined with riding coordinates:
 C2(H2A,H2B), C15(H15A,H15B), C12(H12A,H12B), C3(H3A,H3B), C6(H6A,H6B)
2.c Aromatic/amide H refined with riding coordinates:
 C14(H14), C4(H4)
;
_shelx_res_file
;
    2_a.res created by SHELXL-2014/7

TITL 2_a.res in P-1
CELL 0.71073 5.6034 8.7105 12.5661 92.79 100.516 106.105
ZERR 2 0.0007 0.0011 0.0016 0.007 0.007 0.006
LATT 1
SFAC C H O
UNIT 30 32 4

L.S. 10
PLAN  5
SIZE 0.18 0.16 0.14
TEMP 23
htab 2
conf
BOND $H
fmap 2
acta
REM <olex2.extras>
REM <HklSrc "%.\\2_a.hkl">
REM </olex2.extras>

WGHT    0.071600    0.138600
FVAR       1.63734
O2    3    0.824224    0.388821    0.820209    11.00000    0.02523    0.03552 =
         0.04821   -0.00222    0.00425    0.00640
O1    3    0.347622    0.201772    0.492367    11.00000    0.13605    0.09531 =
         0.03490    0.01204    0.02639    0.05444
C8    1    0.558600    0.122340    0.771438    11.00000    0.02984    0.03140 =
         0.03639    0.00177    0.00573    0.01249
AFIX  13
H8    2    0.711587    0.090921    0.798933    11.00000   -1.20000
AFIX   0
C11   1    0.364997    0.350650    0.765180    11.00000    0.02704    0.03490 =
         0.03089    0.00497    0.00670    0.01286
AFIX  13
H11   2    0.250862    0.361711    0.813675    11.00000   -1.20000
AFIX   0
C2    1    0.555764    0.262667    0.943081    11.00000    0.04465    0.04721 =
         0.02739    0.00373    0.00290    0.01931
AFIX  23
H2A   2    0.575528    0.366002    0.981737    11.00000   -1.20000
H2B   2    0.693652    0.223107    0.977226    11.00000   -1.20000
AFIX   0
C13   1    0.451272    0.503816    0.714062    11.00000    0.04530    0.03582 =
         0.04485    0.01031    0.00891    0.01795
C10   1    0.209341    0.276885    0.648841    11.00000    0.02752    0.04683 =
         0.03416    0.00799    0.00061    0.00865
AFIX  13
H10   2    0.033900    0.215510    0.648792    11.00000   -1.20000
AFIX   0
C5    1    0.324058   -0.001933    0.787566    11.00000    0.03890    0.02966 =
         0.04636    0.00860    0.00726    0.00991
C1    1    0.576462    0.286244    0.824123    11.00000    0.02532    0.03145 =
         0.02888    0.00158    0.00385    0.00986
C9    1    0.342440    0.186096    0.587083    11.00000    0.04675    0.04382 =
         0.02999   -0.00121    0.00443    0.00571
C7    1    0.465236    0.073871    0.646004    11.00000    0.03913    0.03732 =
         0.03799   -0.00594    0.01061    0.00806
AFIX  13
H7    2    0.595194    0.049321    0.611230    11.00000   -1.20000
AFIX   0
C14   1    0.683463    0.602220    0.739528    11.00000    0.05380    0.03212 =
         0.06195    0.00945    0.01151    0.00767
AFIX  43
H14   2    0.736482    0.692294    0.703373    11.00000   -1.20000
AFIX   0
C15   1    0.855966    0.558463    0.831002    11.00000    0.04102    0.03404 =
         0.05654   -0.00634    0.00424    0.00193
AFIX  23
H15A  2    1.030751    0.616375    0.830744    11.00000   -1.20000
H15B  2    0.818459    0.589518    0.899847    11.00000   -1.20000
AFIX   0
C4    1    0.199786    0.008666    0.865801    11.00000    0.04295    0.04210 =
         0.05174    0.01943    0.01558    0.01116
AFIX  43
H4    2    0.047559   -0.068943    0.865850    11.00000   -1.20000
AFIX   0
C12   1    0.234304    0.450221    0.616947    11.00000    0.04717    0.05723 =
         0.04642    0.01956    0.00462    0.02380
AFIX  23
H12A  2    0.283470    0.468874    0.547487    11.00000   -1.20000
H12B  2    0.089661    0.488192    0.623008    11.00000   -1.20000
AFIX   0
C3    1    0.302086    0.144825    0.954584    11.00000    0.05354    0.05859 =
         0.03688    0.01620    0.01865    0.02286
AFIX  23
H3A   2    0.325800    0.101388    1.024069    11.00000   -1.20000
H3B   2    0.177987    0.203382    0.954740    11.00000   -1.20000
AFIX   0
C6    1    0.270989   -0.081081    0.672629    11.00000    0.05303    0.03230 =
         0.05552   -0.00400    0.00847    0.00355
AFIX  23
H6A   2    0.097941   -0.098915    0.633525    11.00000   -1.20000
H6B   2    0.323753   -0.177695    0.666817    11.00000   -1.20000
AFIX   0
HKLF 4

REM  2_a.res in P-1
REM R1 =  0.0476 for    2588 Fo > 4sig(Fo)  and  0.0516 for all    2869 data
REM    154 parameters refined using      0 restraints

END

WGHT      0.0716      0.1386

REM Instructions for potential hydrogen bonds
EQIV $1 x-1, y, z
HTAB C11 O2_$1
EQIV $2 -x+1, -y, -z+1
HTAB C7 O1_$2

REM Highest difference peak  0.297,  deepest hole -0.262,  1-sigma level  0.047
Q1    1   0.5038  0.2251  0.5247  11.00000  0.05    0.30
Q2    1   0.4687  0.3201  0.7969  11.00000  0.05    0.29
Q3    1   0.5538  0.2756  0.8808  11.00000  0.05    0.26
Q4    1   0.2824  0.2978  0.7114  11.00000  0.05    0.26
Q5    1   0.2924  0.2395  0.6199  11.00000  0.05    0.25
;
_shelx_hkl_file
;
  -1   0   0 8559.24  159.78
   1   0   0 8521.65  156.98
  -2   0   0 2211.48   38.70
   2   0   0 2098.99   38.60
   2   0   0 2140.09   38.80
   2   0   0 2133.79   38.20
  -3   0   0   30.30    1.00
   3   0   0   30.60    0.90
   3   0   0   31.20    0.90
   3   0   0   30.00    1.00
  -4   0   0    0.00    0.20
   4   0   0    0.00    0.20
   4   0   0    0.30    0.30
   5   0   0   33.50    1.30
   6   0   0   15.70    1.10
   7   0   0    3.60    0.80
   7  -1   0    0.00    0.50
   6  -1   0   30.80    1.50
   5  -1   0  334.07    6.80
   4  -1   0  735.83   13.60
   4  -1   0  759.52   13.70
   3  -1   0    0.90    0.20
   3  -1   0    0.90    0.10
   3  -1   0    0.90    0.20
  -3   1   0    1.00    0.20
   2  -1   0  175.68    3.30
   2  -1   0  171.78    3.30
   1  -1   0  492.95    9.00
  -1  -1   0 5147.48   92.49
   1   1   0 5273.47   91.59
  -2  -1   0  229.48    4.10
   2   1   0  188.48    3.80
   2   1   0  188.38    3.80
  -3  -1   0 1146.39   20.40
   3   1   0 1126.39   20.20
   3   1   0 1130.39   20.10
   4   1   0   84.89    2.10
   4   1   0   79.59    2.00
   5   1   0    6.10    0.60
   6   1   0   33.30    1.50
   7  -2   0   23.60    1.50
   6  -2   0    8.60    0.90
   5  -2   0   79.59    2.30
   4  -2   0    7.80    0.60
   4  -2   0    7.00    0.50
   3  -2   0   85.59    2.00
   3  -2   0   86.29    2.00
   2  -2   0  110.39    2.30
   2  -2   0  108.89    2.20
   1  -2   0  128.39    2.40
   0  -2   0  320.87    5.80
   0   2   0  330.77    5.90
  -1  -2   0  879.21   15.70
  -1  -2   0  867.01   15.70
  -2  -2   0  211.28    4.10
  -2  -2   0  207.58    4.40
   2   2   0  215.88    4.00
   2   2   0  210.38    4.10
   3   2   0  195.58    4.00
   3   2   0  195.48    3.90
   4   2   0   85.99    2.20
   4   2   0   90.49    2.20
   5   2   0    8.30    0.70
   5   2   0    8.80    0.80
   6   2   0   13.20    1.10
   7  -3   0   34.80    1.70
   6  -3   0    3.70    0.60
   5  -3   0  175.98    3.90
   5  -3   0  174.18    4.00
   4  -3   0   14.00    0.70
   4  -3   0   14.00    0.70
   3  -3   0   22.80    0.80
   3  -3   0   21.20    0.80
   2  -3   0  787.92   14.30
   2  -3   0  790.02   14.10
   1  -3   0   76.59    1.50
   1  -3   0   76.99    1.60
   0  -3   0    0.50    0.10
   0  -3   0    0.50    0.10
   0   3   0    1.00    0.10
  -1  -3   0  160.78    3.20
  -1  -3   0  168.28    3.00
  -2  -3   0    7.80    0.50
  -2  -3   0    8.30    0.30
   2   3   0    8.70    0.50
   2   3   0    8.90    0.40
  -3  -3   0  161.48    3.60
   3   3   0  167.78    3.60
   3   3   0  167.98    3.40
  -4  -3   0    5.00    0.60
   4   3   0    4.30    0.50
   4   3   0    4.30    0.50
  -5  -3   0   18.50    1.20
   5   3   0   16.40    1.00
   5   3   0   17.90    1.00
  -6  -3   0   45.20    1.90
   6   3   0   41.90    1.80
   7  -4   0    2.70    0.70
   6  -4   0   -0.10    0.30
   5  -4   0   16.00    0.90
   5  -4   0   16.70    1.00
   4  -4   0   16.30    0.80
   4  -4   0   16.20    0.80
   3  -4   0   67.69    1.70
   3  -4   0   66.29    1.70
   2  -4   0  635.54   11.50
   2  -4   0  641.84   11.50
   1  -4   0 1850.61   33.70
   1  -4   0 1867.51   33.30
  -1   4   0 1810.12   32.70
   0  -4   0    0.50    0.10
   0  -4   0    0.30    0.20
   0   4   0    0.90    0.20
  -1  -4   0  419.66    7.50
  -1  -4   0  416.06    7.70
   1   4   0  421.56    7.80
  -2  -4   0   18.30    0.80
  -2  -4   0   17.70    0.50
   2   4   0   17.10    0.80
   2   4   0   17.30    0.60
  -3  -4   0   19.60    0.90
   3   4   0   20.30    1.00
   3   4   0   20.80    0.80
  -4  -4   0   71.99    2.10
   4   4   0   71.29    2.00
   4   4   0   69.49    2.10
  -5  -4   0    4.90    0.70
   5   4   0    6.20    0.70
   7  -5   0   12.70    1.20
   6  -5   0  210.08    5.00
   6  -5   0  218.58    5.00
   5  -5   0    2.90    0.50
   5  -5   0    2.30    0.50
   4  -5   0  714.13   13.20
   4  -5   0  707.53   13.20
   3  -5   0   88.89    2.20
   3  -5   0   91.09    2.20
   2  -5   0   13.90    0.60
   2  -5   0   12.80    0.60
   2  -5   0   13.90    0.50
  -2   5   0   13.30    0.40
   1  -5   0  434.06    8.00
   1  -5   0  427.36    7.90
   1  -5   0  448.46    7.90
  -1   5   0  440.76    8.00
   0  -5   0   81.89    1.70
   0  -5   0   78.59    1.70
   0   5   0   76.19    1.80
  -1  -5   0  174.08    3.50
  -1  -5   0  174.88    3.30
   1   5   0  171.58    3.60
  -2  -5   0 1284.07   22.90
   2   5   0 1281.07   23.00
  -3  -5   0   90.89    2.40
   3   5   0   91.69    2.50
  -4  -5   0    1.80    0.50
   4   5   0    1.10    0.40
  -5  -5   0    4.10    0.70
   5   5   0    4.00    0.70
   7  -6   0   10.20    1.20
   6  -6   0   -0.10    0.40
   6  -6   0    0.00    0.40
   5  -6   0    9.10    0.80
   5  -6   0    8.90    0.80
   4  -6   0   56.19    1.70
   4  -6   0   54.09    1.70
   3  -6   0 1300.17   22.90
   3  -6   0 1255.77   22.90
   2  -6   0  986.20   17.70
   2  -6   0 1002.80   17.80
   2  -6   0 1002.40   17.90
   1  -6   0   68.29    1.60
   1  -6   0   68.69    1.60
  -1   6   0   66.09    1.60
   0  -6   0   19.50    0.70
   0  -6   0   20.00    0.70
   0   6   0   20.70    0.80
  -1  -6   0    0.30    0.20
  -1  -6   0    0.50    0.30
   1   6   0    0.30    0.30
  -2  -6   0  308.97    6.10
   2   6   0  305.17    6.20
  -3  -6   0    4.40    0.60
   3   6   0    4.30    0.60
  -4  -6   0   19.30    1.20
   4   6   0   20.50    1.30
   6  -7   0    8.40    1.00
   6  -7   0    9.40    1.00
   5  -7   0   16.40    1.10
   5  -7   0   17.70    1.10
   4  -7   0   73.59    2.20
   4  -7   0   68.29    2.10
   3  -7   0    3.20    0.50
   2  -7   0   68.89    1.80
   2  -7   0   67.89    1.60
   1  -7   0  415.26    7.80
   1  -7   0  411.66    7.70
  -1   7   0  409.66    7.70
   0  -7   0   37.00    1.10
   0  -7   0   36.50    1.10
   0   7   0   38.10    1.30
  -1  -7   0   50.79    1.50
   1   7   0   51.69    1.70
  -2  -7   0   52.79    1.60
   2   7   0   50.59    1.80
  -3  -7   0   20.30    1.10
   3   7   0   20.40    1.20
  -4  -7   0   13.40    1.10
   4   7   0   14.10    1.20
   6  -8   0   -0.30    0.50
   6  -8   0   -0.10    0.40
   5  -8   0   11.40    1.00
   4  -8   0   47.20    1.70
   3  -8   0  192.18    4.30
   2  -8   0   22.50    1.00
   2  -8   0   22.20    0.80
   1  -8   0   23.30    1.00
   1  -8   0   20.80    0.90
  -1   8   0   23.60    0.90
   0  -8   0   52.19    1.50
   0  -8   0   51.49    1.50
   0   8   0   53.39    1.70
  -1  -8   0   22.90    1.00
   1   8   0   25.00    1.20
  -2  -8   0    2.20    0.50
   2   8   0    1.60    0.50
  -3  -8   0   37.70    1.60
   3   8   0   36.40    1.70
   6  -9   0   17.50    1.40
   5  -9   0    8.90    1.00
   4  -9   0    0.80    0.50
   3  -9   0    3.40    0.60
   3  -9   0    1.60    0.40
   2  -9   0    3.00    0.50
   2  -9   0    2.80    0.40
   1  -9   0   36.50    1.30
   1  -9   0   36.40    1.20
  -1   9   0   38.40    1.70
   0  -9   0   12.30    0.80
   0   9   0   11.30    0.90
  -1  -9   0    2.70    0.50
   1   9   0    3.40    0.60
  -2  -9   0    8.20    0.80
   2   9   0    7.90    0.90
   5 -10   0    0.00    0.50
   4 -10   0    1.30    0.50
   3 -10   0    0.20    0.40
   3 -10   0   -0.20    0.30
   2 -10   0    0.90    0.40
   2 -10   0    1.10    0.40
   1 -10   0    0.90    0.40
   1 -10   0    0.60    0.40
   0 -10   0   42.90    1.50
   0  10   0   44.70    1.70
  -1 -10   0   21.70    1.20
   1  10   0   21.40    1.30
   4 -11   0   19.20    1.40
   3 -11   0   19.50    1.30
   2 -11   0   17.10    1.20
   2 -11   0   16.30    1.00
   1 -11   0    6.60    0.70
   0 -11   0   39.70    1.60
   0  11   0   42.70    1.80
   0 -11   1   11.30    0.90
   1 -11   1    2.60    0.50
   2 -11   1    2.30    0.60
   2 -11   1    3.10    0.60
   3 -11   1    1.00    0.60
   4 -11   1    0.60    0.60
   1  10  -1    0.10    0.50
  -1 -10   1    0.60    0.40
   0  10  -1    2.20    0.50
   0 -10   1    2.40    0.50
   1 -10   1   28.00    1.10
   1 -10   1   27.10    1.30
   2 -10   1   -0.20    0.30
   2 -10   1   -0.30    0.30
   3 -10   1   15.30    1.10
   4 -10   1   12.70    1.20
   5 -10   1   42.60    2.00
   2   9  -1   46.10    1.90
  -2  -9   1   44.90    1.60
   1   9  -1   36.00    1.50
  -1  -9   1   35.00    1.30
   0   9  -1   14.10    0.90
   0  -9   1   14.70    0.80
   1  -9   1   76.69    2.20
   1  -9   1   78.69    2.00
   2  -9   1    3.60    0.60
   2  -9   1    3.00    0.40
   3  -9   1   38.90    1.60
   4  -9   1   36.20    1.60
   5  -9   1   83.09    2.80
   6  -9   1   39.40    2.00
   3   8  -1   37.20    1.70
  -3  -8   1   34.20    1.40
   2   8  -1    3.30    0.60
  -2  -8   1    3.90    0.50
   1   8  -1   35.90    1.40
  -1  -8   1   32.80    1.20
   0   8  -1   73.29    2.00
   0  -8   1   73.69    1.90
   0  -8   1   72.39    1.90
  -1   8  -1   71.59    1.90
   1  -8   1   72.89    1.80
   1  -8   1   71.59    1.90
   2  -8   1   11.90    0.80
   2  -8   1   10.70    0.60
   3  -8   1   70.99    2.10
   4  -8   1   48.60    1.80
   5  -8   1   76.09    2.40
   5  -8   1   78.79    2.60
   6  -8   1   16.80    1.30
   6  -8   1   16.50    1.30
   4   7  -1    1.10    0.50
  -4  -7   1    0.20    0.50
   3   7  -1    3.20    0.60
  -3  -7   1    1.60    0.50
   2   7  -1   27.20    1.30
  -2  -7   1   26.20    1.10
   1   7  -1    7.80    0.70
  -1  -7   1    7.20    0.60
   0   7  -1  281.77    5.60
   0  -7   1  280.97    5.40
   0  -7   1  272.57    5.40
  -1   7  -1  128.09    2.70
   1  -7   1  126.49    2.80
   1  -7   1  121.59    2.60
   2  -7   1  480.75    9.00
   2  -7   1  505.15    9.30
   3  -7   1  550.34   10.80
   3  -7   1  586.44   10.70
   4  -7   1    7.00    0.80
   4  -7   1    6.30    0.70
   5  -7   1   12.10    1.00
   5  -7   1   11.60    1.00
   6  -7   1   30.60    1.60
   6  -7   1   31.40    1.60
   5   6  -1    0.90    0.50
  -5  -6   1    1.60    0.60
   4   6  -1  123.29    3.30
  -4  -6   1  119.39    3.10
   3   6  -1    0.70    0.40
  -3  -6   1    0.20    0.30
   2   6  -1    8.70    0.80
  -2  -6   1    9.60    0.70
   1   6  -1  383.86    7.40
  -1  -6   1  390.96    7.10
  -1  -6   1  376.06    7.20
   0   6  -1   19.30    0.80
   0  -6   1   18.60    0.70
   0  -6   1   19.00    0.70
  -1   6  -1   31.80    1.00
   1  -6   1   33.70    0.90
   1  -6   1   32.70    1.00
   1  -6   1   33.90    0.90
   2  -6   1  123.79    2.50
   2  -6   1  120.19    2.70
   2  -6   1  123.59    2.80
   3  -6   1  104.69    2.60
   3  -6   1  108.29    2.60
   4  -6   1   10.60    0.80
   4  -6   1   11.10    0.80
   5  -6   1    0.90    0.40
   5  -6   1    0.70    0.40
   6  -6   1   35.20    1.70
   6  -6   1   32.50    1.60
   7  -6   1    8.00    1.10
   5   5  -1   16.50    1.20
  -5  -5   1   15.40    1.10
   4   5  -1   33.70    1.50
  -4  -5   1   34.50    1.40
   3   5  -1  117.29    2.90
   3   5  -1  117.99    3.10
  -3  -5   1  115.59    2.80
   2   5  -1   26.10    1.10
  -2  -5   1   28.10    1.00
   1   5  -1  542.35   10.00
  -1  -5   1  527.25    9.80
  -1  -5   1  544.95    9.60
   0   5  -1  171.68    3.50
   0  -5   1  174.68    3.40
   0  -5   1  171.88    3.40
  -1   5  -1    6.10    0.40
   1  -5   1    6.30    0.30
   1  -5   1    5.90    0.40
   1  -5   1    5.00    0.40
  -2   5  -1  206.88    3.80
   2  -5   1  204.98    4.10
   3  -5   1    4.80    0.50
   3  -5   1    3.70    0.40
   4  -5   1    1.90    0.40
   4  -5   1    1.70    0.40
   5  -5   1   30.40    1.40
   5  -5   1   32.10    1.40
   6  -5   1   57.19    2.10
   6  -5   1   54.39    2.10
   7  -5   1   11.00    1.20
   5   4  -1    0.20    0.40
   5   4  -1    1.20    0.40
  -5  -4   1    0.00    0.40
   4   4  -1   17.50    1.00
   4   4  -1   19.40    0.90
  -4  -4   1   20.20    1.10
   3   4  -1  203.88    4.30
   3   4  -1  199.08    4.10
  -3  -4   1  207.48    4.30
   2   4  -1    5.70    0.50
  -2  -4   1    5.80    0.50
   1   4  -1  720.93   13.10
  -1  -4   1  722.93   13.00
  -1  -4   1  733.53   13.00
   0   4  -1  648.34   11.60
   0  -4   1  645.04   11.50
   0  -4   1  653.13   11.50
  -1   4  -1 3009.90   52.89
   1  -4   1 2978.10   53.79
   1  -4   1 2961.60   53.29
   1  -4   1 2981.00   52.99
   2  -4   1   21.60    0.80
   2  -4   1   23.20    0.80
   3  -4   1  128.49    2.90
   3  -4   1  129.49    2.90
   4  -4   1   14.90    0.80
   4  -4   1   14.90    0.80
   5  -4   1   16.20    1.00
   5  -4   1   16.50    1.00
   6  -4   1    0.40    0.40
   7  -4   1   44.50    2.00
   6   3  -1    8.20    0.90
  -6  -3   1   11.30    1.10
   5   3  -1   11.30    0.90
   5   3  -1   11.30    0.90
  -5  -3   1   11.40    0.90
   4   3  -1   24.90    1.10
   4   3  -1   26.70    1.10
  -4  -3   1   27.80    1.10
   3   3  -1  112.89    2.60
   3   3  -1  109.49    2.40
  -3  -3   1  108.39    2.50
  -3  -3   1  109.49    2.90
   2   3  -1    5.20    0.40
  -2  -3   1    5.70    0.60
  -2  -3   1    5.20    0.40
  -2  -3   1    7.10    0.20
   1   3  -1  813.52   14.50
  -1  -3   1  805.02   14.50
  -1  -3   1  852.71   14.60
  -1  -3   1  797.62   14.90
   0   3  -1 2157.78   38.70
   0  -3   1 2138.49   39.20
   0  -3   1 2207.08   38.90
   1  -3   1  608.24   11.20
   1  -3   1  620.74   11.20
   1  -3   1  647.44   11.30
   2  -3   1  872.61   15.70
   2  -3   1  881.31   15.70
   3  -3   1  291.47    5.70
   3  -3   1  287.97    5.60
   4  -3   1   -0.20    0.20
   4  -3   1    0.20    0.20
   5  -3   1   14.70    0.90
   6  -3   1    0.50    0.40
   7  -3   1   -0.20    0.50
   6   2  -1   59.59    2.10
   5   2  -1    2.70    0.50
   5   2  -1    2.50    0.50
   4   2  -1    0.40    0.30
   4   2  -1    0.00    0.30
  -4  -2   1   -0.20    0.30
   3   2  -1   25.00    0.90
   3   2  -1   26.20    0.90
  -3  -2   1   26.00    1.10
   2   2  -1  613.64   11.30
  -2  -2   1  640.44   11.10
  -2  -2   1  623.64   11.30
  -2  -2   1  629.44   11.60
   1   2  -1   32.00    0.80
  -1  -2   1   33.40    0.70
  -1  -2   1   33.60    1.00
   0  -2   1   46.90    1.00
   0  -2   1   48.10    1.00
   0  -2   1   44.50    1.10
   1  -2   1 5525.55   97.49
   2  -2   1 3497.65   64.79
   2  -2   1 3740.13   64.89
   3  -2   1    1.20    0.20
   3  -2   1    0.70    0.20
   4  -2   1  332.97    6.60
   4  -2   1  336.97    6.60
   5  -2   1  567.94   10.90
   6  -2   1    4.70    0.70
   7  -2   1   27.60    1.60
   6   1  -1    4.60    0.70
   5   1  -1    4.20    0.50
   5   1  -1    3.80    0.50
   4   1  -1   18.70    0.80
   4   1  -1   18.30    0.80
  -4  -1   1   20.80    1.00
   3   1  -1 1345.37   23.90
   3   1  -1 1359.76   24.20
  -3  -1   1 1359.76   24.20
   2   1  -1 2867.41   51.39
  -2  -1   1 2861.01   52.49
  -1  -1   1  593.24   11.00
  -1  -1   1  619.44   11.00
   2  -1   1  248.78    4.80
   2  -1   1  265.27    4.80
   3  -1   1   44.20    1.00
   3  -1   1   43.10    1.20
   3  -1   1   43.20    1.20
   4  -1   1  523.25    9.80
   5  -1   1  447.96    8.80
   6  -1   1   17.80    1.20
   7  -1   1    1.70    0.60
   7   0  -1   24.20    1.50
   6   0  -1   23.10    1.20
   5   0  -1   -0.10    0.30
   4   0  -1  320.07    6.10
   4   0  -1  321.27    6.30
  -4   0   1  320.47    6.40
   3   0  -1   13.50    0.50
   3   0  -1   14.00    0.50
   3   0  -1   13.00    0.60
  -3   0   1   14.90    0.70
   2   0  -1  658.03   12.20
   2   0  -1  686.33   12.30
   2   0  -1  705.43   12.20
   2   0   1  146.09    2.90
   2   0   1  147.79    2.80
   3   0   1  757.22   14.00
   3   0   1  798.52   13.90
   4   0   1   46.00    1.50
   4   0   1   46.20    1.30
   5   0   1   28.50    1.30
   6   0   1   41.30    1.70
   7  -1  -1   73.99    2.60
   6  -1  -1    3.20    0.60
   5  -1  -1  326.87    6.60
   4  -1  -1  103.39    2.30
   4  -1  -1   98.49    2.10
   4  -1  -1   95.79    2.40
  -4   1   1  100.59    2.30
   3  -1  -1   46.50    1.20
   3  -1  -1   44.40    1.10
   3  -1  -1   47.50    1.10
   2  -1  -1   10.70    0.40
   2  -1  -1   11.80    0.40
   1  -1  -1 9999.00  181.78
   1   1   1 2910.41   51.89
   2   1   1  168.58    3.30
   2   1   1  167.08    3.30
   3   1   1   62.69    1.60
   3   1   1   63.59    1.50
   4   1   1    5.40    0.50
   5   1   1   22.50    1.10
   6   1   1   14.40    1.10
   7  -2  -1    2.80    0.70
   6  -2  -1  125.49    3.30
   5  -2  -1  264.87    5.50
   4  -2  -1    2.20    0.40
   4  -2  -1    1.10    0.30
   3  -2  -1   68.89    1.60
   3  -2  -1   67.29    1.60
   2  -2  -1 1248.58   22.70
   2  -2  -1 1272.77   22.90
   1  -2  -1   12.60    0.40
   0  -2  -1    3.60    0.20
   0   2   1    3.50    0.20
  -1  -2  -1    2.30    0.20
   1   2   1    2.20    0.10
   2   2   1  518.45    9.60
   2   2   1  541.75    9.60
   3   2   1  395.16    7.50
   3   2   1  399.96    7.50
   4   2   1   23.50    1.00
   4   2   1   22.80    1.00
   5   2   1    1.30    0.40
   5   2   1    0.60    0.30
   6   2   1    0.20    0.50
   7  -3  -1   12.40    1.20
   6  -3  -1    5.20    0.70
   5  -3  -1  167.08    3.80
   5  -3  -1  171.88    3.80
   4  -3  -1   10.80    0.70
   4  -3  -1   13.60    0.70
   3  -3  -1    4.40    0.40
   3  -3  -1    3.90    0.40
   2  -3  -1  123.19    2.50
   2  -3  -1  122.39    2.50
   1  -3  -1    8.90    0.30
   1  -3  -1    8.30    0.30
  -1   3   1    7.90    0.30
   0  -3  -1  586.04   10.20
   0  -3  -1  567.64   10.10
   0   3   1  570.64   10.30
  -1  -3  -1  704.83   12.70
  -1  -3  -1  701.43   12.60
   1   3   1  704.93   12.40
   1   3   1  697.43   12.60
  -2  -3  -1  172.88    3.60
   2   3   1  181.78    3.40
   2   3   1  175.68    3.60
  -3  -3  -1  119.19    2.80
   3   3   1  124.59    2.70
   3   3   1  122.79    2.80
  -4  -3  -1    0.40    0.40
   4   3   1    0.20    0.30
   4   3   1    0.30    0.30
  -5  -3  -1    1.00    0.50
   5   3   1    0.20    0.40
   5   3   1    0.70    0.40
  -6  -3  -1   27.90    1.60
   7  -4  -1   47.80    2.00
   6  -4  -1   11.00    0.90
   5  -4  -1    2.60    0.50
   5  -4  -1    3.10    0.50
   4  -4  -1  172.88    3.70
   4  -4  -1  167.98    3.60
   3  -4  -1  169.18    3.40
   3  -4  -1  165.88    3.40
   2  -4  -1   55.99    1.30
   2  -4  -1   57.59    1.40
   2  -4  -1   58.29    1.30
   1  -4  -1 1367.26   24.20
   1  -4  -1 1331.67   24.70
  -1   4   1 1341.67   23.60
   0  -4  -1   81.19    1.60
   0  -4  -1   79.89    1.70
   0   4   1   78.19    1.80
  -1  -4  -1    8.90    0.40
  -1  -4  -1    8.70    0.50
   1   4   1    8.70    0.50
   1   4   1    8.60    0.30
  -2  -4  -1  691.83   12.00
  -2  -4  -1  666.43   12.40
   2   4   1  673.53   12.50
   2   4   1  689.23   12.20
  -3  -4  -1   31.10    1.20
   3   4   1   31.30    1.10
   3   4   1   30.60    1.20
  -4  -4  -1  200.08    4.50
   4   4   1  198.18    4.40
  -5  -4  -1    6.10    0.80
   5   4   1    7.90    0.80
   7  -5  -1    1.60    0.60
   6  -5  -1    1.30    0.50
   6  -5  -1    1.80    0.50
   5  -5  -1   11.30    0.80
   5  -5  -1   11.50    0.80
   4  -5  -1  181.38    3.90
   4  -5  -1  183.98    3.90
   3  -5  -1  784.92   14.00
   3  -5  -1  766.12   14.00
   2  -5  -1  380.16    7.00
   2  -5  -1  370.76    7.00
   2  -5  -1  386.46    6.90
  -2   5   1  379.16    6.80
   1  -5  -1  155.18    3.10
   1  -5  -1  160.68    3.10
  -1   5   1  150.98    3.10
   0  -5  -1   24.70    0.80
   0  -5  -1   26.50    0.70
   0   5   1   24.60    0.80
  -1  -5  -1   26.90    0.70
  -1  -5  -1   25.80    0.90
   1   5   1   26.20    1.00
  -2  -5  -1  259.67    5.30
   2   5   1  263.27    5.30
  -3  -5  -1   22.10    1.10
   3   5   1   22.00    1.10
  -4  -5  -1   76.89    2.30
   4   5   1   76.39    2.30
  -5  -5  -1   29.20    1.60
   5   5   1   28.10    1.50
   7  -6  -1  128.29    3.70
   6  -6  -1  108.09    3.10
   6  -6  -1  108.69    3.10
   5  -6  -1  180.38    4.10
   5  -6  -1  181.48    4.20
   4  -6  -1   76.29    2.10
   4  -6  -1   78.39    2.10
   3  -6  -1  183.78    3.80
   3  -6  -1  178.88    3.80
   2  -6  -1    5.80    0.40
   2  -6  -1    5.50    0.50
  -2   6   1    5.60    0.40
   1  -6  -1  105.99    2.20
   1  -6  -1  104.49    2.30
  -1   6   1  101.49    2.30
   0  -6  -1    4.00    0.40
   0  -6  -1    4.70    0.30
   0   6   1    4.20    0.40
  -1  -6  -1  649.93   12.00
  -1  -6  -1  660.73   11.80
   1   6   1  661.03   12.20
  -2  -6  -1  141.59    3.20
   2   6   1  141.09    3.40
  -3  -6  -1    3.70    0.50
   3   6   1    4.30    0.60
  -4  -6  -1    3.50    0.60
   4   6   1    3.40    0.70
   7  -7  -1    4.80    0.90
   6  -7  -1   48.60    2.00
   6  -7  -1   47.50    1.90
   5  -7  -1    0.10    0.30
   5  -7  -1    0.40    0.30
   4  -7  -1  230.28    4.90
   3  -7  -1 1173.38   21.10
   2  -7  -1  104.49    2.30
   2  -7  -1  110.69    2.50
   1  -7  -1   46.90    1.30
   1  -7  -1   47.40    1.30
  -1   7   1   48.30    1.40
   0  -7  -1  137.69    3.00
   0  -7  -1  141.59    2.90
   0   7   1  139.69    3.10
  -1  -7  -1  123.49    2.80
   1   7   1  126.19    3.00
  -2  -7  -1    1.20    0.40
   2   7   1    2.20    0.50
  -3  -7  -1    5.20    0.70
   3   7   1    7.20    0.90
  -4  -7  -1   60.39    2.10
   4   7   1   61.59    2.30
   6  -8  -1    6.30    0.90
   5  -8  -1   56.29    2.00
   4  -8  -1   24.80    1.20
   3  -8  -1   89.69    2.40
   3  -8  -1   87.59    2.10
   2  -8  -1   56.99    1.70
   2  -8  -1   53.09    1.50
   1  -8  -1   12.00    0.70
   1  -8  -1   12.80    0.70
  -1   8   1   12.20    0.70
   0  -8  -1  171.38    3.60
   0  -8  -1  166.48    3.60
   0   8   1  176.98    3.80
  -1  -8  -1    0.10    0.30
   1   8   1    0.30    0.40
  -2  -8  -1    4.30    0.60
   2   8   1    4.80    0.70
  -3  -8  -1    7.10    0.80
   3   8   1    6.40    0.90
   6  -9  -1    3.30    0.80
   5  -9  -1    7.80    0.90
   4  -9  -1    5.00    0.70
   3  -9  -1   40.50    1.30
   3  -9  -1   40.70    1.50
   2  -9  -1   51.39    1.50
   2  -9  -1   50.99    1.70
   1  -9  -1   10.00    0.70
   1  -9  -1    9.20    0.70
  -1   9   1    9.00    0.80
   0  -9  -1   44.80    1.40
   0  -9  -1   40.50    1.50
   0   9   1   43.30    1.60
  -1  -9  -1   14.60    0.90
   1   9   1   14.70    1.10
  -2  -9  -1   31.80    1.40
   2   9   1   27.50    1.50
   5 -10  -1   -0.20    0.50
   4 -10  -1   -0.50    0.40
   3 -10  -1    3.40    0.50
   3 -10  -1    3.10    0.60
   2 -10  -1   14.40    1.00
   2 -10  -1   14.80    0.80
   1 -10  -1   31.80    1.20
   1 -10  -1   31.60    1.30
   0 -10  -1   15.10    1.00
   0  10   1   14.30    1.10
  -1 -10  -1    5.90    0.70
   1  10   1    4.90    0.80
   4 -11  -1   26.10    1.50
   3 -11  -1    4.00    0.70
   3 -11  -1    4.50    0.60
   2 -11  -1   15.30    1.10
   2 -11  -1   17.00    1.00
   1 -11  -1   42.90    1.60
   0 -11  -1    4.20    0.70
   0  11   1    4.80    0.80
   0 -11   2   19.30    1.10
   1 -11   2    3.30    0.60
   2 -11   2    1.20    0.50
   2 -11   2    1.00    0.60
   3 -11   2   65.49    2.40
   4 -11   2    6.80    1.20
   1  10  -2   19.20    1.30
  -1 -10   2   18.60    1.10
   0  10  -2   47.30    1.70
   0 -10   2   46.30    1.50
   1 -10   2   19.50    1.10
   1 -10   2   21.00    1.00
   2 -10   2    1.30    0.40
   2 -10   2    1.90    0.50
   3 -10   2   -0.30    0.40
   4 -10   2   39.20    1.90
   5 -10   2   22.40    1.60
   2   9  -2    3.30    0.70
  -2  -9   2    3.40    0.50
   1   9  -2    2.70    0.60
  -1  -9   2    1.80    0.40
   0   9  -2    6.70    0.70
   0  -9   2    6.90    0.60
   1  -9   2   63.69    1.70
   1  -9   2   61.69    1.90
   2  -9   2   11.20    0.90
   2  -9   2   10.70    0.70
   3  -9   2    1.60    0.50
   4  -9   2    9.80    1.00
   5  -9   2   22.70    1.50
   3   8  -2   -0.40    0.40
  -3  -8   2    0.20    0.40
   2   8  -2    0.20    0.40
  -2  -8   2    1.00    0.40
   1   8  -2   -0.10    0.30
  -1  -8   2    0.10    0.20
   0   8  -2  214.68    4.50
   0  -8   2  207.28    4.20
   0  -8   2  208.88    4.40
  -1   8  -2  311.37    6.00
   1  -8   2  297.47    6.10
   1  -8   2  301.27    5.80
   2  -8   2    9.70    0.60
   2  -8   2    9.40    0.80
   3  -8   2    0.40    0.40
   4  -8   2   30.00    1.50
   4  -8   2   29.80    1.40
   5  -8   2   44.70    1.90
   5  -8   2   47.50    2.00
   6  -8   2    1.70    0.70
   6  -8   2    2.20    0.70
   4   7  -2   38.00    1.70
  -4  -7   2   38.60    1.60
   3   7  -2   13.60    1.10
  -3  -7   2   12.20    0.80
   2   7  -2   27.70    1.30
  -2  -7   2   27.60    1.10
   1   7  -2   23.50    1.10
  -1  -7   2   22.10    0.90
   0   7  -2  112.19    2.60
   0  -7   2  109.89    2.40
   0  -7   2  109.79    2.50
  -1   7  -2    0.50    0.30
   1  -7   2    0.80    0.20
   1  -7   2    0.40    0.30
   2  -7   2  146.79    3.30
   2  -7   2  157.28    3.50
   2  -7   2  146.69    3.10
   3  -7   2   60.89    1.80
   3  -7   2   59.69    1.90
   4  -7   2  176.68    4.20
   4  -7   2  176.68    4.10
   5  -7   2    3.10    0.70
   5  -7   2    2.30    0.60
   6  -7   2    6.70    1.00
   6  -7   2    5.90    0.90
   5   6  -2    2.70    0.70
  -5  -6   2    2.30    0.60
   4   6  -2   44.00    1.80
  -4  -6   2   44.00    1.60
   3   6  -2  152.38    3.60
  -3  -6   2  146.99    3.40
   2   6  -2   58.59    1.80
  -2  -6   2   64.09    1.70
   1   6  -2  463.65    8.60
  -1  -6   2  429.06    8.30
  -1  -6   2  466.95    8.60
   0   6  -2   19.70    0.80
   0  -6   2   19.80    0.70
   0  -6   2   18.60    0.70
  -1   6  -2  191.88    3.80
   1  -6   2  194.88    3.90
   1  -6   2  193.18    4.00
   1  -6   2  197.08    3.80
   2  -6   2  609.54   11.30
   2  -6   2  600.74   11.20
   3  -6   2    0.70    0.30
   3  -6   2    0.10    0.30
   4  -6   2   76.39    2.30
   4  -6   2   77.69    2.30
   5  -6   2   79.39    2.50
   5  -6   2   80.69    2.50
   6  -6   2    0.30    0.40
   6  -6   2    0.00    0.40
   5   5  -2    7.50    0.90
  -5  -5   2    6.80    0.80
   4   5  -2   14.20    0.90
   4   5  -2   14.10    1.00
  -4  -5   2   14.60    0.90
   3   5  -2   67.99    2.00
  -3  -5   2   67.59    1.90
   2   5  -2  225.38    4.70
  -2  -5   2  226.88    5.20
  -2  -5   2  231.28    4.50
   1   5  -2  191.08    3.90
  -1  -5   2  199.28    3.80
  -1  -5   2  191.88    3.70
  -1  -5   2  186.28    4.40
   0   5  -2  619.84   11.10
   0  -5   2  604.94   11.10
   0  -5   2  618.54   11.00
  -1   5  -2   20.00    0.60
   1  -5   2   19.90    0.80
   1  -5   2   21.00    0.60
   1  -5   2   20.10    0.70
  -2   5  -2   93.49    1.80
   2  -5   2   91.29    2.20
   2  -5   2   89.29    2.20
   3  -5   2  103.69    2.50
   3  -5   2   96.59    2.50
   4  -5   2   11.50    0.80
   4  -5   2   10.80    0.80
   5  -5   2   91.79    2.70
   5  -5   2   88.89    2.60
   6  -5   2    1.10    0.50
   6  -5   2    0.30    0.40
   7  -5   2   10.40    1.20
   6   4  -2   16.30    1.20
   6   4  -2   15.60    1.20
  -6  -4   2   16.30    1.20
   5   4  -2   18.30    1.10
   5   4  -2   17.50    1.10
  -5  -4   2   18.20    1.10
   4   4  -2    0.50    0.40
   4   4  -2    0.80    0.30
  -4  -4   2    1.10    0.50
  -4  -4   2    1.00    0.40
   3   4  -2    0.60    0.30
  -3  -4   2    0.40    0.40
  -3  -4   2    0.60    0.30
   2   4  -2   42.40    1.30
  -2  -4   2   44.80    1.20
  -2  -4   2   45.20    1.60
   1   4  -2    5.60    0.40
  -1  -4   2    6.00    0.60
  -1  -4   2    6.70    0.40
  -1  -4   2    7.30    0.30
   0   4  -2    4.20    0.30
   0  -4   2    5.30    0.30
   0  -4   2    5.00    0.30
   0  -4   2    5.50    0.30
   0  -4   2    5.60    0.50
   1  -4   2  209.28    3.80
   1  -4   2  206.18    4.00
   1  -4   2  211.08    3.80
   1  -4   2  200.68    4.00
   2  -4   2 1216.98   21.90
   2  -4   2 1243.58   21.90
   3  -4   2  238.88    4.90
   3  -4   2  242.18    4.90
   4  -4   2    2.50    0.40
   4  -4   2    2.90    0.50
   5  -4   2    0.50    0.30
   5  -4   2    0.30    0.40
   6  -4   2    4.90    0.80
   7  -4   2    2.20    0.70
   6   3  -2   42.90    1.80
  -6  -3   2   45.30    1.80
   5   3  -2    9.70    0.80
   5   3  -2   10.30    0.80
  -5  -3   2   10.30    0.90
   4   3  -2   48.90    1.50
   4   3  -2   54.19    1.60
  -4  -3   2   49.20    1.60
  -4  -3   2   46.20    1.90
   3   3  -2  224.88    4.60
  -3  -3   2  232.18    4.60
  -3  -3   2  228.98    5.10
   2   3  -2 1756.22   33.00
  -2  -3   2 1857.71   32.10
  -2  -3   2 1885.71   33.60
  -2  -3   2 1827.62   32.60
   1   3  -2  926.41   16.40
  -1  -3   2  923.41   16.40
  -1  -3   2  897.41   16.70
  -1  -3   2  925.61   16.30
  -1  -3   2  947.11   16.60
   0  -3   2 1637.74   30.50
   0  -3   2 1633.84   29.50
   0  -3   2 1686.83   29.70
   0  -3   2 1594.74   29.10
   1  -3   2  183.48    3.70
   1  -3   2  187.78    3.60
   1  -3   2  188.38    3.40
   1  -3   2  191.38    3.70
   2  -3   2 4993.70   89.09
   2  -3   2 4931.71   88.79
   3  -3   2 1348.57   23.90
   3  -3   2 1326.97   23.90
   4  -3   2    5.90    0.60
   4  -3   2    5.20    0.60
   5  -3   2   16.60    1.00
   5  -3   2   17.20    1.00
   6  -3   2  108.49    3.10
   7  -3   2   73.49    2.70
   6   2  -2    3.30    0.60
   5   2  -2   66.69    2.00
   5   2  -2   65.99    1.90
  -5  -2   2   66.19    2.30
   4   2  -2  103.79    2.50
   4   2  -2  107.59    2.50
  -4  -2   2  102.39    2.90
   3   2  -2  120.29    2.60
  -3  -2   2  122.39    3.00
   2   2  -2 4120.29   74.69
  -2  -2   2 4168.88   75.99
  -2  -2   2 4263.47   74.29
  -1  -2   2 2103.29   36.70
  -1  -2   2 2071.29   37.20
  -1  -2   2 2066.49   38.50
   0  -2   2 3928.21   69.49
   0  -2   2 3933.91   69.19
   0  -2   2 3939.01   70.49
   1  -2   2 4975.10   91.29
   1  -2   2 4737.93   86.69
   1  -2   2 4941.41   86.69
   2  -2   2 1117.29   19.60
   2  -2   2 1084.29   19.60
   3  -2   2    5.10    0.50
   3  -2   2    6.30    0.30
   4  -2   2    1.20    0.30
   4  -2   2    1.90    0.40
   5  -2   2   52.29    1.70
   6  -2   2    5.70    0.80
   7  -2   2    0.20    0.50
   6   1  -2   27.60    1.40
   5   1  -2   11.30    0.70
   5   1  -2   11.50    0.80
   4   1  -2   62.79    1.70
   4   1  -2   64.19    1.60
  -4  -1   2   63.19    1.90
   3   1  -2   51.59    1.30
   3   1  -2   47.80    1.30
  -3  -1   2   49.80    1.50
  -3  -1   2   52.99    1.00
  -2  -1   2  843.52   14.60
  -2  -1   2  816.72   14.70
  -1  -1   2 2289.67   40.70
   0  -1   2  398.26    7.10
   1  -1   2 6748.33  135.29
   2  -1   2   53.79    1.40
   2  -1   2   55.59    1.40
   2  -1   2   58.39    1.20
   3  -1   2   48.80    1.40
   3  -1   2   50.49    1.40
   3  -1   2   50.29    1.20
   4  -1   2  256.27    5.30
   5  -1   2    1.20    0.40
   6  -1   2   36.10    1.60
   7  -1   2    7.60    1.00
   7   0  -2    1.20    0.60
   6   0  -2   27.40    1.30
   5   0  -2    5.20    0.60
   4   0  -2  342.07    6.60
   4   0  -2  339.37    6.40
  -4   0   2  343.67    6.80
   3   0  -2  560.44    9.70
   3   0  -2  530.95    9.90
   3   0  -2  550.24    9.80
   2   0  -2    2.50    0.10
  -2   0   2    2.90    0.20
   1   0  -2 5832.22  108.09
  -1   0   2 5999.10  109.19
   1   0   2 2214.88   39.60
   2   0   2    3.20    0.30
   2   0   2    2.60    0.30
   3   0   2    4.30    0.40
   3   0   2    4.90    0.40
   4   0   2  488.85    8.90
   4   0   2  480.05    9.20
   5   0   2  104.39    2.80
   6   0   2    0.70    0.50
   7  -1  -2   22.40    1.50
   6  -1  -2   32.50    1.40
   5  -1  -2   71.89    2.00
   4  -1  -2    0.10    0.20
   4  -1  -2    0.10    0.20
   4  -1  -2   -0.10    0.20
   3  -1  -2   36.70    0.90
   3  -1  -2   36.30    1.00
  -3   1   2   35.30    0.90
   2  -1  -2 1583.34   28.40
  -2   1   2 1580.34   28.40
   1  -1  -2 2003.90   35.50
   0   1   2 2240.28   39.60
   2   1   2  739.33   13.00
   2   1   2  719.13   13.00
   3   1   2   82.39    2.00
   3   1   2   82.79    1.90
   4   1   2  245.18    5.10
   4   1   2  250.37    5.00
   5   1   2    9.50    0.80
   6   1   2   26.20    1.40
   7  -2  -2    8.40    1.00
   6  -2  -2  254.47    5.50
   5  -2  -2    7.20    0.70
   4  -2  -2  565.34   10.50
   4  -2  -2  584.14   10.60
   3  -2  -2    3.50    0.30
  -3   2   2    3.30    0.20
   2  -2  -2 2452.15   44.50
   2  -2  -2 2523.45   44.50
   1  -2  -2 7360.46  141.09
   0  -2  -2 3525.25   75.49
   0   2   2 3618.34   63.39
   0   2   2 3536.85   70.89
  -1  -2  -2   39.50    1.00
   1   2   2   38.10    0.80
   1   2   2   40.60    1.00
  -2  -2  -2   76.29    1.80
   2   2   2   78.39    1.70
   2   2   2   75.09    1.80
   3   2   2    0.20    0.20
   3   2   2    0.00    0.20
   4   2   2   33.30    1.20
   4   2   2   34.10    1.20
   5   2   2    9.30    0.80
   5   2   2    8.60    0.80
  -6  -2  -2   -0.90    0.50
   6   2   2    0.30    0.40
   7  -3  -2    6.40    0.90
   6  -3  -2   28.00    1.40
   5  -3  -2  148.19    3.40
   5  -3  -2  145.89    3.30
   4  -3  -2   16.90    0.80
   4  -3  -2   17.80    0.70
   3  -3  -2  720.33   13.10
   3  -3  -2  739.03   13.10
   2  -3  -2  550.24    9.80
   2  -3  -2  564.54    9.90
   2  -3  -2  546.25    9.90
   1  -3  -2   90.99    1.70
   1  -3  -2   85.89    1.70
  -1   3   2   85.49    1.80
   0  -3  -2 2114.49   37.40
   0  -3  -2 2074.79   37.80
   0   3   2 2112.39   38.00
  -1  -3  -2  862.61   15.90
  -1  -3  -2  879.41   15.70
   1   3   2  892.61   15.70
   1   3   2  878.51   15.40
  -2  -3  -2   87.19    2.10
   2   3   2   87.19    1.90
   2   3   2   84.29    2.00
  -3  -3  -2   49.20    1.60
   3   3   2   51.49    1.50
   3   3   2   54.79    1.40
  -4  -3  -2  200.58    4.40
   4   3   2  192.28    4.30
   4   3   2  198.28    4.30
  -5  -3  -2   13.80    1.10
   5   3   2   12.80    1.00
   5   3   2   14.80    1.00
  -6  -3  -2    0.00    0.60
   7  -4  -2    6.90    0.90
   6  -4  -2   55.89    2.00
   5  -4  -2  228.38    4.80
   5  -4  -2  224.08    4.80
   4  -4  -2   30.20    1.10
   4  -4  -2   29.10    1.00
   3  -4  -2   38.90    1.10
   3  -4  -2   38.70    1.10
   2  -4  -2  184.38    3.50
   2  -4  -2  185.18    3.60
   2  -4  -2  189.68    3.60
  -2   4   2  185.58    3.50
   1  -4  -2  426.66    7.60
   1  -4  -2  417.36    7.60
  -1   4   2  419.76    7.60
   0  -4  -2 1146.29   20.40
   0  -4  -2 1163.98   20.90
   0   4   2 1162.88   20.50
  -1  -4  -2   93.99    2.10
  -1  -4  -2   96.49    2.00
   1   4   2   97.59    1.90
   1   4   2   96.29    2.20
  -2  -4  -2   25.20    1.00
  -2  -4  -2   24.90    0.70
   2   4   2   24.60    1.00
  -3  -4  -2    0.60    0.40
   3   4   2    0.80    0.40
  -4  -4  -2   27.60    1.30
   4   4   2   28.50    1.30
  -5  -4  -2    7.60    0.90
   5   4   2    8.30    0.90
   7  -5  -2    0.10    0.50
   6  -5  -2    0.10    0.40
   5  -5  -2  143.69    3.40
   5  -5  -2  145.29    3.40
   4  -5  -2  169.88    3.60
   4  -5  -2  165.68    3.60
   3  -5  -2    0.30    0.20
   3  -5  -2    0.40    0.20
   2  -5  -2  740.53   13.50
   2  -5  -2  741.53   13.40
   2  -5  -2  766.22   13.40
  -2   5   2  770.42   13.40
   1  -5  -2 1323.27   23.90
   1  -5  -2 1363.96   24.90
  -1   5   2 1399.76   24.20
   0  -5  -2   74.99    1.70
   0  -5  -2   73.49    1.60
   0   5   2   73.49    1.80
  -1  -5  -2   39.70    0.90
  -1  -5  -2   30.90    1.10
   1   5   2   31.10    1.10
  -2  -5  -2  110.59    2.70
   2   5   2  112.89    2.70
  -3  -5  -2   22.10    1.10
   3   5   2   23.20    1.10
  -4  -5  -2   31.00    1.40
   4   5   2   29.90    1.40
  -5  -5  -2   70.09    2.40
   5   5   2   71.19    2.40
   7  -6  -2   18.50    1.30
   6  -6  -2   55.49    2.00
   6  -6  -2   55.39    2.00
   5  -6  -2   32.60    1.30
   5  -6  -2   34.50    1.40
   4  -6  -2  133.59    3.00
   4  -6  -2  131.39    3.10
   3  -6  -2  100.29    2.30
   3  -6  -2   96.39    2.70
   2  -6  -2  330.87    6.30
   2  -6  -2  345.17    6.40
  -2   6   2  342.87    6.30
   1  -6  -2   13.60    0.60
   1  -6  -2   13.50    0.60
  -1   6   2   15.00    0.70
   0  -6  -2   41.60    1.20
   0  -6  -2   41.40    1.10
   0   6   2   40.60    1.30
  -1  -6  -2  958.60   17.10
  -1  -6  -2  952.00   17.40
   1   6   2  981.20   17.50
  -2  -6  -2  493.25    9.50
   2   6   2  501.15    9.60
  -3  -6  -2   36.80    1.50
   3   6   2   35.70    1.50
  -4  -6  -2    3.00    0.70
   4   6   2    4.90    0.70
   7  -7  -2   44.90    2.00
   6  -7  -2    1.80    0.50
   6  -7  -2    1.40    0.50
   5  -7  -2    1.40    0.40
   4  -7  -2   33.10    1.30
   3  -7  -2   18.80    0.70
   3  -7  -2   14.50    0.90
   2  -7  -2    0.90    0.30
   2  -7  -2    0.90    0.30
   1  -7  -2    4.50    0.40
   1  -7  -2    5.00    0.50
  -1   7   2    5.80    0.50
   0  -7  -2  145.09    3.00
   0  -7  -2  141.29    3.10
   0   7   2  147.39    3.30
  -1  -7  -2    1.60    0.40
  -1  -7  -2    1.30    0.30
   1   7   2    1.50    0.50
  -2  -7  -2   28.70    1.20
   2   7   2   29.80    1.30
  -3  -7  -2   -0.20    0.40
   3   7   2    0.00    0.40
  -4  -7  -2    4.60    0.80
   4   7   2    3.90    0.80
   6  -8  -2    0.90    0.50
   5  -8  -2    2.40    0.60
   4  -8  -2    7.90    0.80
   3  -8  -2    0.20    0.30
   3  -8  -2    0.20    0.20
   2  -8  -2   36.00    1.20
   2  -8  -2   33.00    1.10
   1  -8  -2   27.70    1.00
   1  -8  -2   26.20    1.00
  -1   8   2   26.20    1.10
   0  -8  -2   14.70    0.80
   0  -8  -2   14.40    0.70
   0   8   2   14.60    0.90
  -1  -8  -2   73.49    2.00
   1   8   2   71.19    2.20
  -2  -8  -2    4.50    0.60
   2   8   2    4.10    0.70
  -3  -8  -2   55.99    2.00
   3   8   2   55.69    2.20
   6  -9  -2    6.30    0.90
   5  -9  -2    7.90    0.90
   4  -9  -2   54.79    1.90
   3  -9  -2   70.59    2.10
   3  -9  -2   68.69    1.80
   2  -9  -2   68.59    2.00
   2  -9  -2   67.79    1.80
   1  -9  -2   93.19    2.30
   1  -9  -2   94.29    2.40
  -1   9   2   95.99    2.50
   0  -9  -2   11.10    0.80
   0  -9  -2   11.50    0.70
   0   9   2   10.40    0.90
  -1  -9  -2   18.30    1.00
   1   9   2   15.00    1.10
  -2  -9  -2   -0.10    0.50
   2   9   2    0.50    0.50
   5 -10  -2   15.50    1.20
   4 -10  -2   10.10    1.00
   3 -10  -2   26.40    1.10
   3 -10  -2   24.70    1.30
   2 -10  -2   13.10    0.90
   2 -10  -2   14.30    0.90
   1 -10  -2    0.30    0.40
   1 -10  -2    0.70    0.40
   0 -10  -2   41.00    1.50
   0  10   2   38.90    1.60
  -1 -10  -2    5.80    0.70
   1  10   2    6.90    0.90
   4 -11  -2   22.80    1.70
   3 -11  -2    6.20    0.80
   3 -11  -2    5.30    0.70
   2 -11  -2    4.60    0.70
   2 -11  -2    5.60    0.70
   1 -11  -2   10.80    0.90
   1 -11  -2    9.90    1.00
   0 -11   3    3.30    0.60
   1 -11   3    9.00    0.80
   2 -11   3   30.10    1.60
   2 -11   3   34.20    1.30
   3 -11   3   21.70    1.60
   1  10  -3    4.60    0.70
  -1 -10   3    4.80    0.60
   0  10  -3    0.20    0.40
   0 -10   3    0.30    0.30
   1 -10   3   14.90    1.10
   1 -10   3   17.90    0.90
   2 -10   3    0.90    0.50
   2 -10   3    0.50    0.30
   3 -10   3    0.50    0.50
   4 -10   3   18.60    1.40
   3   9  -3   17.40    1.30
  -3  -9   3   12.80    1.10
   2   9  -3    3.80    0.70
  -2  -9   3    4.80    0.60
   1   9  -3    1.70    0.50
  -1  -9   3    0.70    0.30
   0   9  -3   21.20    1.10
   0  -9   3   20.60    0.90
   1  -9   3    0.40    0.30
   1  -9   3   -0.30    0.30
   2  -9   3   23.50    0.90
   2  -9   3   22.60    1.20
   3  -9   3    2.40    0.60
   4  -9   3   63.89    2.30
   5  -9   3   85.79    3.00
   3   8  -3    0.80    0.60
  -3  -8   3    1.50    0.40
   2   8  -3   10.70    0.90
  -2  -8   3   11.10    0.70
   1   8  -3    6.40    0.70
  -1  -8   3    6.70    0.60
   0   8  -3  135.99    3.20
   0  -8   3  134.29    3.20
   0  -8   3  140.79    3.00
  -1   8  -3  111.59    2.60
   1  -8   3  111.69    2.80
   1  -8   3  110.29    2.40
   2  -8   3  122.99    3.10
   2  -8   3  115.59    2.60
   3  -8   3   36.80    1.40
   3  -8   3   36.20    1.50
   4  -8   3    9.20    0.90
   4  -8   3    9.40    0.90
   5  -8   3    6.90    0.90
   5  -8   3    4.50    0.80
   6  -8   3    8.40    1.10
   6  -8   3    8.60    1.00
   4   7  -3    1.00    0.50
  -4  -7   3    0.40    0.40
   3   7  -3   35.40    1.50
  -3  -7   3   32.70    1.20
   2   7  -3    9.60    0.80
  -2  -7   3    9.40    0.60
   1   7  -3   19.50    1.00
  -1  -7   3   18.90    0.80
   0   7  -3  211.58    4.40
   0  -7   3  210.88    4.40
   0  -7   3  214.08    4.20
  -1   7  -3   43.00    1.20
   1  -7   3   37.40    1.10
   1  -7   3   35.80    1.20
   1  -7   3   38.30    1.30
   2  -7   3  159.38    3.50
   2  -7   3  159.18    3.70
   3  -7   3   73.79    2.10
   4  -7   3    0.10    0.40
   4  -7   3    0.50    0.30
   5  -7   3   27.60    1.50
   5  -7   3   26.80    1.50
   6  -7   3    8.60    1.10
   6  -7   3    8.30    1.10
   5   6  -3   30.50    1.60
   4   6  -3    6.10    0.80
  -4  -6   3    6.80    0.70
   3   6  -3    9.70    0.90
  -3  -6   3    9.10    0.70
   2   6  -3  166.78    3.70
  -2  -6   3  159.88    3.40
  -2  -6   3  168.78    4.30
   1   6  -3  347.27    6.70
  -1  -6   3  335.57    6.40
  -1  -6   3  341.27    7.20
   0   6  -3   75.29    1.80
   0  -6   3   77.19    1.90
   0  -6   3   74.69    1.70
  -1   6  -3    6.60    0.40
   1  -6   3    6.20    0.40
   1  -6   3    6.00    0.50
   1  -6   3    6.30    0.50
   2  -6   3  489.45    9.40
   2  -6   3  501.35    9.40
   3  -6   3   25.90    1.10
   4  -6   3   22.80    1.20
   5  -6   3    3.30    0.60
   5  -6   3    3.60    0.60
   6  -6   3    8.80    1.10
   6  -6   3    9.80    1.00
   5   5  -3   17.50    1.50
   5   5  -3   19.50    1.30
  -5  -5   3   19.20    1.10
   4   5  -3    7.80    0.70
   4   5  -3    8.70    0.80
  -4  -5   3    8.60    0.70
  -4  -5   3    9.30    1.10
   3   5  -3  138.69    3.30
  -3  -5   3  140.49    3.80
  -3  -5   3  138.59    3.10
   2   5  -3  243.08    4.90
  -2  -5   3  239.78    5.50
  -2  -5   3  242.28    4.70
   1   5  -3   43.00    1.20
  -1  -5   3   39.70    1.10
  -1  -5   3   42.10    1.10
  -1  -5   3   40.80    1.50
   0   5  -3 2869.71   51.49
   0  -5   3 2891.21   52.09
   0  -5   3 2860.21   52.89
   0  -5   3 2881.11   51.29
   0  -5   3 2826.22   51.29
   1  -5   3  107.89    2.20
   1  -5   3  111.89    2.20
   1  -5   3  101.79    2.40
   1  -5   3  103.79    2.40
   2  -5   3   73.39    1.90
   2  -5   3   74.89    1.60
   3  -5   3  188.88    4.20
   3  -5   3  198.38    4.30
   4  -5   3   51.69    1.80
   4  -5   3   53.69    1.80
   5  -5   3   19.50    1.20
   5  -5   3   21.80    1.20
   6  -5   3    0.70    0.50
   6  -5   3    1.80    0.60
   6   4  -3   10.30    1.00
   6   4  -3   13.00    1.10
   5   4  -3   40.80    1.50
   5   4  -3   40.00    1.60
  -5  -4   3   41.70    2.00
  -5  -4   3   38.80    1.50
   4   4  -3    6.60    0.60
   4   4  -3    6.90    0.70
  -4  -4   3    6.90    0.70
  -4  -4   3    8.10    1.00
   3   4  -3   21.90    1.00
  -3  -4   3   20.20    1.20
  -3  -4   3   21.10    0.90
   2   4  -3  184.48    3.80
  -2  -4   3  182.88    3.70
  -2  -4   3  188.98    4.30
  -1  -4   3   99.59    2.00
  -1  -4   3   98.59    2.50
  -1  -4   3   97.79    2.00
  -1  -4   3   99.99    2.20
   0  -4   3  425.16    7.90
   0  -4   3  438.36    7.90
   0  -4   3  440.86    7.80
   0  -4   3  453.85    8.00
   0  -4   3  415.66    8.20
   1  -4   3   17.30    0.70
   1  -4   3   17.60    0.50
   1  -4   3   17.70    0.50
   1  -4   3   16.20    0.70
   2  -4   3   28.50    1.00
   2  -4   3   28.30    0.70
   2  -4   3   28.80    1.00
   3  -4   3    0.00    0.20
   3  -4   3   -0.40    0.20
   4  -4   3   25.90    1.20
   4  -4   3   24.80    1.20
   5  -4   3    0.20    0.40
   5  -4   3    0.60    0.40
   6  -4   3   84.29    2.90
   6  -4   3   87.19    2.80
   7  -4   3   59.39    2.50
   6   3  -3    0.00    0.40
  -6  -3   3    0.70    0.60
   5   3  -3    1.10    0.40
   5   3  -3    1.50    0.40
  -5  -3   3    1.50    0.40
  -5  -3   3    0.80    0.50
   4   3  -3   31.10    1.10
   4   3  -3   33.10    1.20
  -4  -3   3   34.00    1.60
  -4  -3   3   30.60    1.20
   3   3  -3   43.30    1.30
  -3  -3   3   37.40    1.20
  -3  -3   3   37.20    1.50
   2   3  -3   11.50    0.60
  -2  -3   3   10.40    0.70
  -2  -3   3   10.20    0.50
  -1  -3   3  306.77    5.50
  -1  -3   3  299.67    6.00
  -1  -3   3  310.47    5.70
   0  -3   3  525.05    9.60
   0  -3   3  539.15    9.60
   0  -3   3  540.55    9.50
   0  -3   3  519.65    9.70
   1  -3   3  553.24   10.20
   1  -3   3  578.54    9.90
   1  -3   3  571.54   10.10
   1  -3   3  549.85   10.20
   2  -3   3 1014.40   18.40
   2  -3   3 1033.20   18.40
   3  -3   3   31.20    1.10
   4  -3   3  217.08    4.60
   4  -3   3  204.38    4.60
   5  -3   3   35.40    1.50
   5  -3   3   33.00    1.50
   6  -3   3   13.40    1.10
   7  -3   3   16.50    1.40
   6   2  -3   35.80    1.60
  -6  -2   3   37.50    1.60
   5   2  -3   34.00    1.30
   5   2  -3   36.30    1.40
  -5  -2   3   33.70    1.60
   4   2  -3   78.29    2.00
   4   2  -3   77.49    2.00
  -4  -2   3   80.39    2.40
   3   2  -3   58.59    1.50
  -3  -2   3   59.19    1.80
  -2  -2   3  744.93   13.40
  -2  -2   3  761.72   13.30
  -2  -2   3  740.83   13.70
  -1  -2   3  162.18    3.00
   0  -2   3   58.39    1.30
   0  -2   3   54.19    1.30
   0  -2   3   56.99    1.20
   1  -2   3 3129.69   54.49
   1  -2   3 3026.30   53.39
   1  -2   3 2941.71   54.49
   2  -2   3  726.63   12.60
   2  -2   3  710.13   13.00
   2  -2   3  711.83   13.00
   3  -2   3   96.39    1.90
   3  -2   3   96.79    2.40
   3  -2   3   91.89    2.30
   4  -2   3   43.60    1.50
   4  -2   3   41.60    1.50
   5  -2   3    3.50    0.60
   6  -2   3  161.08    4.20
   7   1  -3    0.00    0.50
   6   1  -3    0.50    0.40
   5   1  -3   21.30    0.90
   5   1  -3   22.90    1.10
  -5  -1   3   22.70    1.20
   4   1  -3  153.48    3.30
   4   1  -3  152.98    3.20
  -4  -1   3  156.18    3.70
  -3  -1   3  779.62   14.30
  -3  -1   3  820.62   14.00
  -2  -1   3   42.10    0.90
  -2  -1   3   41.80    1.00
  -1  -1   3  102.89    2.00
   0  -1   3  189.88    3.40
   1  -1   3  636.94   11.80
   1  -1   3  668.53   11.90
   1  -1   3  673.63   11.80
   2  -1   3  156.38    3.40
   2  -1   3  173.88    3.40
   2  -1   3  171.98    3.20
   3  -1   3    0.30    0.20
   3  -1   3    0.40    0.20
   4  -1   3  796.52   14.70
   5  -1   3   65.29    2.10
   6  -1   3    4.40    0.70
   7   0  -3   26.30    1.50
   6   0  -3   17.70    1.10
   5   0  -3  108.49    2.80
  -5   0   3  119.59    3.90
   4   0  -3  425.16    7.80
   4   0  -3  421.46    8.00
   3   0  -3  446.36    7.90
  -3   0   3  445.66    8.10
   2   0  -3   52.59    1.00
  -2   0   3   54.59    1.20
  -2   0   3   53.69    1.10
  -1   0   3 3217.28   56.99
  -1   0   3 3233.78   56.79
   0   0   3  191.68    3.50
   1   0   3  339.87    6.30
   1   0   3  344.67    6.20
   2   0   3  205.38    3.90
   2   0   3  206.08    4.10
   3   0   3   64.49    1.70
   3   0   3   63.19    1.50
   4   0   3  234.48    4.60
   4   0   3  229.48    4.90
   5   0   3   15.50    1.00
   6   0   3   17.50    1.20
   7  -1  -3   23.00    1.40
   6  -1  -3   47.40    1.80
   5  -1  -3   44.40    1.50
   4  -1  -3    3.30    0.30
   4  -1  -3    3.00    0.40
   3  -1  -3  593.94   10.80
   3  -1  -3  599.44   10.60
  -3   1   3  603.64   10.60
   2  -1  -3   99.09    1.90
  -2   1   3  100.19    1.90
   1  -1  -3  353.16    6.30
  -1   1   3  358.66    6.30
  -1   1   3  354.46    6.30
   0   1   3 1759.22   32.00
   0   1   3 1847.62   32.70
   1   1   3  142.39    2.80
   2   1   3  720.83   12.80
   2   1   3  698.43   12.70
   3   1   3   69.79    1.70
   3   1   3   68.29    1.80
   4   1   3   12.10    0.80
   4   1   3   14.80    0.80
   5   1   3   21.80    1.20
   6   1   3    1.00    0.50
   7  -2  -3    1.20    0.60
   6  -2  -3   69.29    2.20
   5  -2  -3   13.90    0.80
   4  -2  -3   16.60    0.70
   4  -2  -3   16.70    0.80
   3  -2  -3 1043.50   18.40
   3  -2  -3 1030.00   18.90
  -3   2   3 1045.60   18.60
   2  -2  -3   13.90    0.50
   2  -2  -3   13.60    0.40
  -2   2   3   14.50    0.40
   1  -2  -3 3628.54   65.89
  -1   2   3 3820.12   65.99
   0   2   3   13.50    0.40
   0   2   3   13.00    0.50
  -1  -2  -3   97.49    2.10
  -2  -2  -3  607.84   11.50
   2   2   3  623.84   11.40
   2   2   3  652.33   11.30
   3   2   3    0.30    0.20
   3   2   3    0.00    0.20
   4   2   3  101.19    2.60
   4   2   3  103.29    2.50
   5   2   3    1.80    0.50
   5   2   3    0.00    0.40
  -6  -2  -3    4.90    0.80
   6   2   3    4.00    0.70
   7  -3  -3   13.00    1.10
   6  -3  -3    8.90    0.90
   5  -3  -3  166.28    3.70
   4  -3  -3  161.38    3.30
   4  -3  -3  159.58    3.40
   3  -3  -3  323.47    6.00
   3  -3  -3  323.37    6.10
  -3   3   3  332.97    5.80
   2  -3  -3 1591.34   27.80
   2  -3  -3 1566.54   27.70
   2  -3  -3 1524.05   28.00
  -2   3   3 1541.15   27.50
   1  -3  -3  777.92   14.20
   1  -3  -3  808.32   14.00
  -1   3   3  805.42   14.10
   0  -3  -3  857.81   15.10
   0  -3  -3  844.02   15.10
   0   3   3  862.71   15.10
   0   3   3  843.72   15.20
  -1  -3  -3  101.99    2.20
   1   3   3   97.99    2.20
   1   3   3   98.69    2.00
  -2  -3  -3  238.58    4.80
   2   3   3  243.88    4.60
   2   3   3  241.28    4.80
  -3  -3  -3    2.20    0.50
   3   3   3    2.40    0.40
   3   3   3    2.20    0.40
  -4  -3  -3    1.80    0.50
   4   3   3    1.00    0.40
   4   3   3    1.40    0.40
  -5  -3  -3    3.30    0.70
   5   3   3    3.70    0.60
   7  -4  -3   52.09    2.10
   6  -4  -3  198.28    4.60
   5  -4  -3  197.28    4.30
   5  -4  -3  203.68    4.30
   4  -4  -3    8.50    0.60
   4  -4  -3    9.40    0.60
   3  -4  -3   53.29    1.30
   3  -4  -3   52.69    1.30
   2  -4  -3  114.19    2.30
   2  -4  -3  115.89    2.30
   2  -4  -3  113.49    2.30
  -2   4   3  113.69    2.30
   1  -4  -3  806.82   14.40
   1  -4  -3  813.52   14.30
  -1   4   3  799.32   14.40
   0  -4  -3  161.18    3.20
   0  -4  -3  157.48    3.10
   0   4   3  158.28    3.20
   0   4   3  160.48    3.00
  -1  -4  -3    0.30    0.20
   1   4   3    0.30    0.20
   1   4   3    0.70    0.20
  -2  -4  -3  369.86    7.00
  -2  -4  -3  360.96    6.70
   2   4   3  360.66    7.10
  -3  -4  -3  868.01   16.00
   3   4   3  866.51   16.00
  -4  -4  -3   74.79    2.30
   4   4   3   71.19    2.20
  -5  -4  -3    1.80    0.60
   5   4   3    2.10    0.60
   7  -5  -3    2.60    0.70
   6  -5  -3   35.10    1.50
   5  -5  -3  121.89    3.00
   5  -5  -3  121.59    2.90
   4  -5  -3    5.40    0.50
   4  -5  -3    5.50    0.50
   3  -5  -3    9.60    0.50
   3  -5  -3    9.50    0.50
   2  -5  -3  248.08    4.70
   2  -5  -3  248.88    4.70
  -2   5   3  245.58    4.70
   1  -5  -3  556.64    9.80
   1  -5  -3  525.55    9.80
  -1   5   3  546.65    9.90
   0  -5  -3  200.98    4.00
   0  -5  -3  218.68    4.10
   0   5   3  213.38    3.90
   0   5   3  204.18    4.20
  -1  -5  -3    1.90    0.30
  -1  -5  -3    1.90    0.30
   1   5   3    2.70    0.40
  -2  -5  -3  263.17    5.00
  -2  -5  -3  262.07    5.40
   2   5   3  269.77    5.50
  -3  -5  -3    1.90    0.50
   3   5   3    1.20    0.40
  -4  -5  -3    1.10    0.50
   4   5   3    1.10    0.50
  -5  -5  -3    3.20    0.70
   5   5   3    3.80    0.80
   7  -6  -3   85.59    2.80
   6  -6  -3    3.60    0.60
   6  -6  -3    4.80    0.70
   5  -6  -3   65.69    2.00
   5  -6  -3   67.69    2.00
   4  -6  -3   41.50    1.40
   4  -6  -3   42.70    1.40
   3  -6  -3    0.10    0.20
   3  -6  -3    0.10    0.20
   2  -6  -3  473.85    8.70
   2  -6  -3  457.45    8.50
  -2   6   3  474.55    8.60
   1  -6  -3    0.60    0.20
   1  -6  -3    0.20    0.20
  -1   6   3    0.10    0.20
   0  -6  -3   50.09    1.40
   0  -6  -3   49.99    1.30
   0   6   3   49.10    1.50
   0   6   3   52.29    1.20
  -1  -6  -3    0.70    0.30
  -1  -6  -3    0.80    0.30
   1   6   3    0.10    0.30
  -2  -6  -3    2.40    0.50
   2   6   3    2.40    0.50
  -3  -6  -3    6.20    0.70
   3   6   3    7.30    0.80
  -4  -6  -3   27.60    1.50
   4   6   3   26.00    1.50
   7  -7  -3   47.00    2.00
   6  -7  -3    2.10    0.50
   5  -7  -3   32.10    1.30
   4  -7  -3   81.19    2.20
   3  -7  -3    2.40    0.30
   3  -7  -3    1.70    0.40
   2  -7  -3   78.19    1.90
   2  -7  -3   76.89    1.80
  -2   7   3   74.29    2.00
   1  -7  -3   43.30    1.20
   1  -7  -3   40.40    1.20
  -1   7   3   41.00    1.30
   0  -7  -3   67.39    1.70
   0  -7  -3   65.09    1.60
   0   7   3   66.19    1.90
  -1  -7  -3  238.88    4.90
  -1  -7  -3  242.68    4.70
   1   7   3  238.58    5.10
  -2  -7  -3    0.60    0.40
   2   7   3    0.60    0.40
  -3  -7  -3    7.10    0.80
   3   7   3    8.00    0.90
   6  -8  -3    0.30    0.40
   5  -8  -3   14.20    1.00
   4  -8  -3   46.00    1.60
   3  -8  -3   89.59    2.10
   3  -8  -3   91.79    2.40
   2  -8  -3   25.60    1.00
   2  -8  -3   23.10    0.90
   1  -8  -3   64.59    1.70
   1  -8  -3   61.69    1.70
  -1   8   3   65.29    1.80
   0  -8  -3    0.60    0.30
   0  -8  -3    1.60    0.30
   0   8   3    1.60    0.40
  -1  -8  -3  118.69    2.90
   1   8   3  120.79    3.10
  -2  -8  -3   26.50    1.30
   2   8   3   27.80    1.40
  -3  -8  -3    5.00    0.80
   3   8   3    4.80    0.80
   6  -9  -3    0.70    0.50
   5  -9  -3   45.50    1.80
   4  -9  -3  219.68    4.90
   3  -9  -3  100.09    2.60
   3  -9  -3  101.79    2.40
   2  -9  -3    2.50    0.40
   2  -9  -3    3.20    0.50
   1  -9  -3  113.89    2.70
   1  -9  -3  113.69    2.70
  -1   9   3  112.79    2.80
   0  -9  -3   78.39    2.10
   0  -9  -3   80.49    2.20
   0   9   3   79.59    2.40
  -1  -9  -3    0.90    0.40
   1   9   3    0.70    0.50
  -2  -9  -3    2.20    0.60
   2   9   3    2.20    0.60
   5 -10  -3    2.60    0.70
   4 -10  -3   24.00    1.30
   3 -10  -3    9.90    0.80
   3 -10  -3    9.20    0.90
   2 -10  -3    3.00    0.50
   2 -10  -3    2.40    0.50
   1 -10  -3    1.40    0.40
   1 -10  -3    1.60    0.40
   0 -10  -3   44.00    1.60
   0  10   3   43.70    1.80
  -1 -10  -3   62.09    2.00
   1  10   3   60.99    2.30
   3 -11  -3   19.30    1.10
   3 -11  -3   17.70    1.20
   2 -11  -3   30.20    1.30
   2 -11  -3   26.90    1.40
   1 -11  -3   45.80    1.80
   1 -11  -3   49.90    1.80
   0 -11   4   -0.10    0.40
   1 -11   4   10.00    0.90
   2 -11   4   66.39    2.50
   3 -11   4    5.90    1.00
   1  10  -4    0.20    0.50
  -1 -10   4    0.40    0.40
   0  10  -4    1.60    0.50
   0 -10   4    2.50    0.50
   1 -10   4    9.40    0.70
   2 -10   4    7.50    0.90
   3 -10   4    1.10    0.60
   4 -10   4    3.10    0.80
   2   9  -4   18.20    1.20
   1   9  -4   25.70    1.30
  -1  -9   4   26.10    1.00
   0   9  -4    8.20    0.80
   0  -9   4    8.50    0.60
   1  -9   4   96.19    2.70
   1  -9   4  101.89    2.30
   2  -9   4   51.99    1.90
   3  -9   4    1.70    0.50
   4  -9   4    3.20    0.70
   5  -9   4    0.20    0.60
   5  -9   4    1.60    0.60
   3   8  -4    2.60    0.60
   2   8  -4   36.30    1.50
  -2  -8   4   36.10    1.20
   1   8  -4   32.30    1.30
  -1  -8   4   34.70    1.10
   0   8  -4   91.69    2.40
   0  -8   4   93.29    2.10
  -1   8  -4  101.39    2.80
   1  -8   4  102.19    2.70
   1  -8   4  105.59    2.30
   2  -8   4   53.19    1.90
   2  -8   4   54.19    1.70
   3  -8   4    4.50    0.70
   3  -8   4    4.40    0.60
   4  -8   4   17.30    1.10
   4  -8   4   17.30    1.20
   5  -8   4   14.80    1.20
   5  -8   4   15.30    1.30
   6  -8   4   18.80    1.60
   6  -8   4   20.70    1.50
   4   7  -4   33.70    1.70
   3   7  -4    0.10    0.40
  -3  -7   4    0.00    0.40
   2   7  -4   46.30    1.70
  -2  -7   4   49.00    1.40
   1   7  -4    0.70    0.30
  -1  -7   4    1.00    0.30
   0   7  -4   69.99    1.90
   0  -7   4   72.09    1.70
   0  -7   4   69.19    1.90
  -1   7  -4  175.78    3.50
   1  -7   4  170.88    3.40
   1  -7   4  166.38    3.80
   1  -7   4  168.28    3.60
   2  -7   4   65.89    2.10
   2  -7   4   71.99    2.00
   3  -7   4  218.18    4.90
   3  -7   4  217.68    4.80
   4  -7   4    0.00    0.30
   4  -7   4   -0.20    0.40
   5  -7   4   77.29    2.60
   5  -7   4   76.69    2.70
   6  -7   4    0.00    0.50
   6  -7   4    0.20    0.50
   5   6  -4   19.20    1.40
   4   6  -4    1.10    0.50
   3   6  -4   31.20    1.40
  -3  -6   4   33.40    1.80
  -3  -6   4   33.40    1.20
   2   6  -4   11.90    0.80
  -2  -6   4   11.20    1.10
  -2  -6   4   12.70    0.60
   1   6  -4    3.40    0.40
  -1  -6   4    5.50    0.40
  -1  -6   4    4.00    0.70
   0   6  -4  366.76    6.90
   0  -6   4  358.56    7.40
   0  -6   4  364.96    7.00
   0  -6   4  360.26    6.70
  -1   6  -4    2.60    0.30
   1  -6   4    3.20    0.40
   1  -6   4    2.00    0.40
   1  -6   4    1.80    0.30
   1  -6   4    1.90    0.30
   2  -6   4  265.57    5.50
   2  -6   4  259.67    5.40
   3  -6   4    5.20    0.60
   3  -6   4    4.90    0.60
   4  -6   4   51.89    1.90
   4  -6   4   52.49    1.90
   5  -6   4   32.90    1.60
   5  -6   4   35.60    1.70
   6  -6   4   25.70    1.60
   6  -6   4   25.80    1.60
   5   5  -4    5.50    0.80
   5   5  -4    6.20    0.70
  -5  -5   4    5.40    1.00
   4   5  -4   26.70    1.30
  -4  -5   4   27.80    1.70
   3   5  -4  129.19    3.10
  -3  -5   4  134.79    2.90
  -3  -5   4  127.39    3.60
   2   5  -4  453.75    8.70
  -2  -5   4  464.15    8.50
  -2  -5   4  470.85    9.40
   1   5  -4  439.96    8.10
  -1  -5   4  435.56    8.70
  -1  -5   4  425.26    8.10
  -1  -5   4  433.16    8.00
  -1  -5   4  443.26    7.90
   0  -5   4   28.50    0.90
   0  -5   4   23.90    0.70
   0  -5   4   24.00    0.80
   0  -5   4   20.20    1.00
   0  -5   4   23.90    0.80
   1  -5   4  984.60   17.60
   1  -5   4  973.90   17.60
   1  -5   4 1003.40   17.30
   1  -5   4  965.30   17.60
   1  -5   4  956.80   17.20
   2  -5   4   33.90    1.20
   2  -5   4   32.90    1.20
   3  -5   4  512.95    9.90
   3  -5   4  509.85    9.90
   4  -5   4    4.50    0.60
   4  -5   4    4.00    0.60
   5  -5   4  108.09    3.10
   5  -5   4  104.19    3.10
   6  -5   4    5.10    0.80
   6  -5   4    3.60    0.70
   6   4  -4   20.30    1.30
   6   4  -4   21.10    1.30
   5   4  -4   18.30    1.00
   5   4  -4   18.70    1.20
  -5  -4   4   20.50    1.60
   4   4  -4    6.10    0.70
  -4  -4   4    5.50    0.80
  -4  -4   4    6.20    0.60
   3   4  -4   17.50    0.80
  -3  -4   4   17.90    0.80
  -2  -4   4   26.40    1.30
  -2  -4   4   27.90    1.00
  -2  -4   4   29.40    0.90
  -1  -4   4  322.77    5.90
  -1  -4   4  311.27    6.40
  -1  -4   4  313.27    6.00
  -1  -4   4  332.47    5.80
   0  -4   4  145.39    2.70
   0  -4   4  145.59    2.90
   0  -4   4  146.39    3.00
   0  -4   4  140.39    3.00
   0  -4   4  142.49    3.20
   1  -4   4  162.38    3.40
   1  -4   4  158.78    3.40
   1  -4   4  169.38    3.10
   2  -4   4  114.49    2.30
   2  -4   4  114.89    2.10
   2  -4   4  110.99    2.70
   2  -4   4  106.39    2.60
   3  -4   4   75.19    2.10
   3  -4   4   78.99    2.20
   4  -4   4    2.70    0.50
   4  -4   4    2.30    0.50
   5  -4   4   33.90    1.60
   5  -4   4   36.10    1.60
   6  -4   4   10.10    1.00
   6  -4   4    9.50    1.00
   6   3  -4   10.00    1.00
   6   3  -4    9.80    1.40
   5   3  -4   18.50    1.00
   5   3  -4   17.70    1.00
  -5  -3   4   19.20    1.30
   4   3  -4   33.00    1.20
  -4  -3   4   33.10    1.60
  -4  -3   4   33.80    1.20
   3   3  -4  289.97    5.80
  -3  -3   4  305.07    5.70
  -3  -3   4  296.07    6.30
  -2  -3   4  740.83   13.00
  -2  -3   4  722.73   13.70
  -2  -3   4  733.63   13.20
  -1  -3   4  134.69    2.80
  -1  -3   4  146.89    2.80
   0  -3   4  137.89    2.80
   0  -3   4  140.19    2.80
   0  -3   4  139.49    2.70
   1  -3   4    6.90    0.40
   1  -3   4    7.40    0.30
   1  -3   4    6.90    0.50
   2  -3   4   37.00    1.20
   2  -3   4   43.40    0.90
   2  -3   4   37.40    0.80
   2  -3   4   37.60    1.30
   3  -3   4    5.80    0.50
   3  -3   4    5.70    0.60
   4  -3   4    6.50    0.70
   4  -3   4    5.00    0.60
   5  -3   4   37.50    1.60
   5  -3   4   37.40    1.60
   6  -3   4  112.49    3.40
   6   2  -4   -0.50    0.40
   5   2  -4   24.80    1.10
   5   2  -4   25.20    1.10
  -5  -2   4   26.80    1.50
   4   2  -4    1.60    0.30
  -4  -2   4    1.90    0.50
  -3  -2   4  205.98    4.10
  -3  -2   4  206.88    4.10
  -3  -2   4  209.18    4.60
  -1  -2   4    0.40    0.10
   0  -2   4 1301.27   23.40
   0  -2   4 1337.57   23.60
   0  -2   4 1295.27   23.80
   1  -2   4   36.20    0.80
   1  -2   4   36.70    1.10
   1  -2   4   36.10    1.10
   2  -2   4  930.71   17.10
   2  -2   4  954.60   16.90
   2  -2   4  965.20   17.20
   3  -2   4   15.50    0.80
   3  -2   4   15.70    0.80
   3  -2   4   17.90    0.60
   4  -2   4    3.00    0.50
   5  -2   4    0.60    0.40
   6  -2   4   30.80    1.60
   7   1  -4   56.39    2.20
   6   1  -4    2.20    0.60
   5   1  -4    1.80    0.40
   5   1  -4    2.60    0.40
  -5  -1   4    2.60    0.60
   4   1  -4  572.44   10.60
  -4  -1   4  580.94   11.10
  -3  -1   4   36.20    1.00
  -3  -1   4   36.90    0.90
   2   1  -4  256.17    4.70
  -2  -1   4  259.07    4.90
  -2  -1   4  281.97    4.90
   0  -1   4   17.30    0.50
   0  -1   4   17.30    0.60
   1  -1   4  124.09    2.60
   1  -1   4  125.49    2.40
   2  -1   4 1873.91   33.90
   2  -1   4 1909.61   34.30
   3  -1   4    1.70    0.20
   3  -1   4    1.40    0.30
   4  -1   4  106.69    2.70
   5  -1   4   26.70    1.30
   6  -1   4    5.20    0.80
   7   0  -4   -0.20    0.50
   6   0  -4   33.20    1.50
   5   0  -4  176.38    3.90
  -5   0   4  172.18    4.20
   4   0  -4   55.99    1.60
  -4   0   4   59.39    1.30
  -4   0   4   57.09    1.40
   3   0  -4  857.51   15.30
  -3   0   4  866.11   15.30
  -3   0   4  874.21   15.20
   2   0  -4   53.89    1.10
  -2   0   4   54.39    1.20
  -2   0   4   54.79    1.20
  -1   0   4 6186.28  108.69
   1   0   4  232.28    4.40
   1   0   4  233.58    4.40
   2   0   4  618.04   11.30
   2   0   4  620.84   11.10
   3   0   4  586.64   10.80
   3   0   4  597.24   11.00
   4   0   4  518.05    9.60
   4   0   4  520.75   10.00
   5   0   4    4.90    0.70
   6   0   4    4.90    0.80
   7  -1  -4   10.40    1.10
   6  -1  -4   -0.20    0.40
   5  -1  -4  395.06    7.70
   4  -1  -4   62.39    1.60
  -4   1   4   65.49    1.50
   3  -1  -4   53.19    1.10
  -3   1   4   52.29    1.20
   2  -1  -4   47.50    1.00
  -2   1   4   46.60    1.10
  -2   1   4   48.30    1.00
  -1   1   4 1504.85   27.30
  -1   1   4 1554.04   27.20
   0   1   4  501.75    8.90
   0   1   4  489.65    8.90
   1   1   4   17.90    0.60
   1   1   4   17.80    0.60
   2   1   4    5.80    0.40
   2   1   4    6.50    0.40
   3   1   4   91.39    2.20
   3   1   4   90.39    2.10
   4   1   4    6.20    0.60
   4   1   4    6.90    0.70
   5   1   4   66.49    2.20
   6   1   4    5.40    0.90
   7  -2  -4   10.50    1.10
   6  -2  -4   91.39    2.60
   5  -2  -4    0.00    0.30
   4  -2  -4   53.19    1.50
   4  -2  -4   52.19    1.30
   3  -2  -4  599.24   10.80
   3  -2  -4  594.94   10.70
  -3   2   4  607.04   10.60
   2  -2  -4  353.76    6.40
  -2   2   4  356.06    6.40
  -1   2   4    2.90    0.20
  -1   2   4    1.90    0.20
   0  -2  -4   47.40    1.10
   0   2   4   47.30    1.20
   0   2   4   48.40    1.10
  -1  -2  -4    1.10    0.20
   1   2   4    1.50    0.20
   1   2   4    1.20    0.20
  -2  -2  -4  159.18    3.40
   2   2   4  160.88    3.30
   2   2   4  161.78    3.40
   3   2   4  218.18    4.50
   3   2   4  217.78    4.50
   4   2   4   35.80    1.40
   4   2   4   35.20    1.30
   5   2   4    1.30    0.50
   7  -3  -4   -0.40    0.40
   6  -3  -4    0.60    0.40
   5  -3  -4  178.18    3.90
   4  -3  -4   11.50    0.60
   4  -3  -4   10.50    0.50
   3  -3  -4  231.28    4.50
   3  -3  -4  234.18    4.40
  -3   3   4  236.18    4.30
   2  -3  -4   13.70    0.40
   2  -3  -4   11.90    0.40
   2  -3  -4   10.70    0.40
  -2   3   4   14.20    0.50
   1  -3  -4  398.66    7.20
   1  -3  -4  399.06    7.30
  -1   3   4  392.36    7.30
  -1   3   4  418.16    7.20
   0  -3  -4  921.11   16.40
   0   3   4  931.31   16.40
   0   3   4  934.31   16.60
  -1  -3  -4   37.20    1.10
   1   3   4   36.10    0.90
   1   3   4   37.10    1.10
  -2  -3  -4  140.79    3.10
   2   3   4  140.99    3.10
   2   3   4  142.19    2.90
  -3  -3  -4  334.67    6.60
   3   3   4  324.57    6.50
  -4  -3  -4  288.27    6.10
   4   3   4  284.37    5.90
  -5  -3  -4    3.60    0.70
   5   3   4    3.80    0.60
   7  -4  -4    1.00    0.60
   6  -4  -4   12.50    0.90
   5  -4  -4   56.49    1.70
   5  -4  -4   58.29    1.60
   4  -4  -4   14.60    0.70
   4  -4  -4   14.40    0.60
   3  -4  -4  100.09    2.20
   3  -4  -4   98.59    2.10
  -3   4   4   99.79    2.00
   2  -4  -4  416.86    7.40
   2  -4  -4  395.66    7.40
   2  -4  -4  416.96    7.50
  -2   4   4  412.56    7.50
   1  -4  -4  252.77    4.70
   1  -4  -4  251.77    4.70
  -1   4   4  251.07    4.80
   0  -4  -4  373.56    6.90
   0  -4  -4  373.86    7.00
   0   4   4  375.36    7.10
   0   4   4  386.46    6.90
  -1  -4  -4  186.48    3.70
  -1  -4  -4  187.18    3.90
   1   4   4  194.58    4.00
   1   4   4  190.68    3.60
  -2  -4  -4   24.80    1.00
   2   4   4   23.80    1.00
  -3  -4  -4    2.70    0.50
   3   4   4    1.40    0.40
  -4  -4  -4    0.60    0.50
   4   4   4    0.60    0.40
  -5  -4  -4    0.10    0.50
   5   4   4   -0.60    0.40
   7  -5  -4    2.00    0.60
   6  -5  -4    9.10    0.80
   5  -5  -4   59.69    1.70
   5  -5  -4   61.19    1.80
   4  -5  -4    3.30    0.40
   4  -5  -4    2.70    0.40
   3  -5  -4  104.99    2.30
   3  -5  -4  104.29    2.20
   3  -5  -4  102.19    2.20
   2  -5  -4  495.35    9.10
   2  -5  -4  493.25    9.00
  -2   5   4  513.35    9.10
   1  -5  -4   94.59    2.10
   1  -5  -4   98.79    2.10
  -1   5   4   96.39    2.20
   0  -5  -4  286.17    5.40
   0  -5  -4  283.17    5.50
   0   5   4  292.97    5.30
  -1  -5  -4    8.50    0.50
  -1  -5  -4    9.90    0.60
   1   5   4    9.80    0.70
  -2  -5  -4  188.78    3.80
  -2  -5  -4  189.28    4.10
   2   5   4  190.58    4.20
  -3  -5  -4   18.80    1.10
   3   5   4   18.80    1.10
  -4  -5  -4   18.20    1.20
   4   5   4   19.10    1.20
   7  -6  -4    6.90    0.90
   6  -6  -4    3.00    0.60
   6  -6  -4    2.90    0.60
   5  -6  -4   40.50    1.40
   5  -6  -4   40.90    1.50
   4  -6  -4    2.50    0.40
   3  -6  -4    5.70    0.50
   3  -6  -4    5.40    0.40
   2  -6  -4  190.88    3.90
   2  -6  -4  197.18    3.80
  -2   6   4  190.98    3.90
   1  -6  -4  111.59    2.40
   1  -6  -4  111.79    2.40
  -1   6   4  110.79    2.50
   0  -6  -4    2.90    0.30
   0  -6  -4    3.10    0.40
   0   6   4    2.10    0.40
  -1  -6  -4  818.92   15.40
  -1  -6  -4  874.61   15.20
   1   6   4  847.92   15.60
  -2  -6  -4   78.89    2.20
   2   6   4   79.89    2.30
  -3  -6  -4   15.20    1.00
   3   6   4   13.40    1.00
  -4  -6  -4   10.10    1.00
   4   6   4   10.90    1.10
   6  -7  -4    0.10    0.40
   5  -7  -4    4.80    0.60
   4  -7  -4   -0.10    0.30
   3  -7  -4   -0.10    0.20
   3  -7  -4   -0.10    0.20
   2  -7  -4   18.40    0.80
  -2   7   4   18.30    0.80
   1  -7  -4    1.90    0.30
   1  -7  -4    1.40    0.30
  -1   7   4    1.30    0.30
   0  -7  -4    0.60    0.30
   0  -7  -4    0.50    0.30
   0   7   4    1.00    0.40
  -1  -7  -4   38.80    1.40
  -1  -7  -4   36.90    1.10
   1   7   4   36.60    1.50
  -2  -7  -4    1.10    0.40
   2   7   4    2.40    0.60
  -3  -7  -4    0.20    0.50
   3   7   4    0.80    0.50
   6  -8  -4   53.99    2.00
   5  -8  -4    7.10    0.80
   4  -8  -4   47.20    1.60
   3  -8  -4   34.50    1.10
   3  -8  -4   34.90    1.30
   2  -8  -4    0.90    0.30
   2  -8  -4    0.90    0.30
   1  -8  -4   76.79    1.90
   1  -8  -4   69.19    1.90
  -1   8   4   74.39    2.00
   0  -8  -4  119.79    2.80
   0  -8  -4  121.29    2.70
   0   8   4  125.69    3.10
  -1  -8  -4   73.39    2.10
   1   8   4   68.39    2.20
  -2  -8  -4   -0.10    0.50
   2   8   4    1.20    0.50
   6  -9  -4    3.40    0.70
   5  -9  -4    4.20    0.70
   4  -9  -4   10.30    0.90
   3  -9  -4   27.60    1.20
   3  -9  -4   28.40    1.10
   2  -9  -4    7.80    0.70
   2  -9  -4    7.40    0.70
   1  -9  -4    3.40    0.50
   1  -9  -4    2.60    0.40
  -1   9   4    3.20    0.60
   0  -9  -4   33.10    1.20
   0  -9  -4   35.70    1.30
   0   9   4   33.00    1.50
  -1  -9  -4   49.70    1.70
   1   9   4   48.70    1.90
  -2  -9  -4    0.40    0.50
   2   9   4    0.80    0.60
   5 -10  -4   44.20    1.90
   4 -10  -4   50.69    1.90
   3 -10  -4    5.20    0.60
   3 -10  -4    3.20    0.60
   2 -10  -4    8.00    0.70
   2 -10  -4    7.40    0.80
   1 -10  -4   -0.10    0.30
   1 -10  -4    0.10    0.40
   0 -10  -4   21.20    1.20
   0  10   4   21.70    1.30
   3 -11  -4   70.89    2.10
   3 -11  -4   69.99    2.30
   2 -11  -4   11.80    0.90
   2 -11  -4   11.10    1.00
   1 -11   5   73.39    2.00
   2 -11   5   28.90    1.70
   3 -11   5   24.00    1.60
   1  10  -5   43.30    1.80
   0  10  -5   37.20    1.60
   0 -10   5   36.80    1.30
   1 -10   5    5.00    0.50
   2 -10   5    2.90    0.70
   3 -10   5   44.30    2.10
   4 -10   5   40.90    2.10
   2   9  -5    3.00    0.70
   1   9  -5    4.40    0.60
   0   9  -5    0.80    0.40
   0  -9   5    0.80    0.30
   1  -9   5   16.40    0.80
   1  -9   5   15.20    1.10
   2  -9   5   40.40    1.70
   3  -9   5    0.20    0.50
   3  -9   5    1.00    0.50
   4  -9   5   54.69    2.10
   4  -9   5   51.79    2.20
   5  -9   5   26.10    1.60
   5  -9   5   28.30    1.80
   3   8  -5   21.90    1.40
   2   8  -5   38.40    1.60
   1   8  -5   51.79    1.80
  -1  -8   5   52.99    1.50
   0   8  -5   57.39    1.70
   0  -8   5   58.29    1.50
   1  -8   5   42.00    1.20
   1  -8   5   41.20    1.40
   1  -8   5   41.60    1.60
   2  -8   5   82.09    2.30
   2  -8   5   84.89    2.50
   3  -8   5    2.00    0.60
   3  -8   5    1.90    0.50
   4  -8   5    3.50    0.70
   4  -8   5    2.90    0.70
   5  -8   5    4.20    0.80
   5  -8   5    3.00    0.80
   4   7  -5    3.40    0.70
   3   7  -5    9.00    0.90
  -3  -7   5    7.30    1.10
   2   7  -5   40.20    1.50
  -2  -7   5   39.90    2.00
   1   7  -5  184.58    4.10
  -1  -7   5  191.28    3.80
  -1  -7   5  186.98    4.70
   0   7  -5   78.39    2.00
   0  -7   5   79.29    2.50
   0  -7   5   80.19    1.80
   0  -7   5   77.89    2.10
  -1   7  -5   35.20    1.10
   1  -7   5   32.70    1.00
   1  -7   5   32.90    1.30
   1  -7   5   32.90    1.20
   2  -7   5   44.00    1.70
   2  -7   5   43.30    1.50
   3  -7   5    1.00    0.50
   3  -7   5    2.20    0.50
   4  -7   5   78.59    2.60
   4  -7   5   81.69    2.60
   5  -7   5    1.40    0.60
   5  -7   5    1.40    0.60
   6  -7   5  145.39    4.30
   6  -7   5  147.09    4.20
   5   6  -5  100.89    3.10
   4   6  -5   25.70    1.40
  -4  -6   5   26.50    1.80
   3   6  -5    1.80    0.50
  -3  -6   5    1.60    0.60
   2   6  -5  262.87    5.20
  -2  -6   5  256.97    5.80
  -2  -6   5  221.98    5.00
   1   6  -5   50.79    1.50
  -1  -6   5   52.89    1.30
  -1  -6   5   49.90    1.90
   0  -6   5   47.30    1.20
   0  -6   5   47.80    1.40
   0  -6   5   45.20    1.60
   0  -6   5   47.40    1.30
   1  -6   5    0.60    0.30
   1  -6   5    0.70    0.30
   1  -6   5    0.40    0.30
   2  -6   5  685.73   12.90
   2  -6   5  678.83   12.80
   3  -6   5  336.57    6.90
   3  -6   5  333.17    7.00
   4  -6   5    0.70    0.40
   4  -6   5    0.40    0.40
   5  -6   5   11.50    1.10
   5  -6   5   12.20    1.20
   6  -6   5    0.70    0.60
   6  -6   5    0.60    0.60
   5   5  -5    7.70    0.90
   5   5  -5    7.80    0.80
  -5  -5   5   11.50    1.40
   4   5  -5   42.50    1.60
  -4  -5   5   42.10    2.00
   3   5  -5   39.20    1.40
  -3  -5   5   39.70    1.80
   2   5  -5  279.77    5.50
  -2  -5   5  274.37    5.50
  -2  -5   5  276.97    6.10
  -2  -5   5  278.87    5.20
  -1  -5   5  231.08    4.20
  -1  -5   5  222.48    5.00
  -1  -5   5  223.48    4.40
  -1  -5   5  223.18    4.50
   0  -5   5  426.56    8.20
   0  -5   5  435.46    8.50
   0  -5   5  427.06    8.00
   0  -5   5  454.15    7.90
   0  -5   5  440.66    8.10
   1  -5   5    2.00    0.30
   1  -5   5    1.70    0.30
   1  -5   5    1.40    0.30
   2  -5   5    7.50    0.70
   2  -5   5    6.80    0.60
   3  -5   5    0.60    0.30
   3  -5   5    0.30    0.30
   4  -5   5   52.29    1.90
   4  -5   5   54.69    1.90
   5  -5   5   20.40    1.30
   5  -5   5   22.90    1.40
   6  -5   5    5.90    0.90
   6  -5   5    5.10    0.90
   6   4  -5   25.90    1.50
   6   4  -5   25.30    1.40
  -6  -4   5   25.50    1.90
   5   4  -5   45.70    1.60
   5   4  -5   48.90    1.80
  -5  -4   5   45.10    2.20
   4   4  -5   27.40    1.20
  -4  -4   5   24.80    1.50
   3   4  -5   10.20    0.70
  -3  -4   5    8.40    1.00
  -2  -4   5   78.59    1.70
  -2  -4   5   78.09    1.90
  -2  -4   5   76.39    2.30
  -1  -4   5  219.78    4.70
  -1  -4   5  218.68    4.30
  -1  -4   5  226.18    4.10
  -1  -4   5  215.48    4.30
   0  -4   5   99.69    2.20
   0  -4   5   96.29    2.40
   0  -4   5  102.59    1.90
   0  -4   5   98.39    2.10
   0  -4   5   98.09    2.30
   1  -4   5  126.59    2.70
   1  -4   5  123.99    2.40
   1  -4   5  119.39    2.80
   2  -4   5  190.38    4.10
   2  -4   5  192.28    3.50
   2  -4   5  190.18    4.20
   3  -4   5  107.79    2.80
   3  -4   5  109.79    2.80
   4  -4   5   47.40    1.80
   4  -4   5   48.30    1.80
   5  -4   5    1.90    0.50
   5  -4   5    2.40    0.60
   6  -4   5   45.20    2.10
   6   3  -5   14.70    1.10
   6   3  -5   13.20    1.10
  -6  -3   5   14.50    1.50
   5   3  -5   18.10    1.00
   5   3  -5   18.20    1.00
  -5  -3   5   17.00    1.30
   4   3  -5   11.40    0.70
  -4  -3   5   10.30    1.00
  -3  -3   5   54.49    1.50
  -3  -3   5   55.39    1.90
  -2  -3   5  493.65    8.70
  -2  -3   5  476.35    8.90
  -1  -3   5  413.76    7.60
   0  -3   5  177.78    3.70
   0  -3   5  182.68    3.60
   0  -3   5  181.88    3.40
   1  -3   5  581.04   10.70
   1  -3   5  581.14   10.30
   2  -3   5   13.30    0.70
   2  -3   5   15.00    0.40
   2  -3   5   13.10    0.70
   3  -3   5   25.80    1.10
   3  -3   5   24.30    1.10
   4  -3   5    3.70    0.60
   4  -3   5    4.00    0.60
   5  -3   5    0.70    0.40
   6  -3   5   28.60    1.70
   6   2  -5   15.20    1.10
   5   2  -5    2.20    0.50
   5   2  -5    2.10    0.40
  -5  -2   5    2.10    0.60
   4   2  -5   13.90    0.70
  -4  -2   5   14.00    1.00
  -4  -2   5   12.60    0.70
  -3  -2   5    5.20    0.40
  -3  -2   5    4.80    0.40
  -2  -2   5    0.70    0.20
   0  -2   5  441.76    7.80
   0  -2   5  426.16    8.00
   1  -2   5   86.79    2.10
   1  -2   5   85.39    2.00
   1  -2   5   82.09    1.70
   2  -2   5  282.77    5.70
   2  -2   5  284.37    5.20
   2  -2   5  288.97    5.70
   3  -2   5    2.10    0.20
   3  -2   5    1.60    0.40
   4  -2   5   59.39    1.90
   5  -2   5   32.50    1.50
   6  -2   5    5.20    0.90
   6   1  -5    2.10    0.50
   5   1  -5    8.00    0.70
   5   1  -5    7.80    0.60
  -5  -1   5    7.80    0.90
  -4  -1   5  441.56    8.20
  -3  -1   5  311.27    5.90
  -3  -1   5  311.77    5.70
  -2  -1   5  273.77    5.00
  -2  -1   5  269.17    5.00
  -1  -1   5  118.39    2.30
   0  -1   5  224.38    4.20
   0  -1   5  228.68    4.30
   1  -1   5  941.21   16.50
   1  -1   5  902.81   16.30
   2  -1   5   27.10    1.00
   2  -1   5   26.20    0.80
   3  -1   5  170.28    3.40
   3  -1   5  174.38    3.80
   4  -1   5  481.75    9.40
   5  -1   5   15.40    1.10
   6  -1   5    7.40    1.00
   7   0  -5    4.80    0.80
   6   0  -5    5.80    0.70
   5   0  -5  343.97    6.70
   5   0  -5  336.07    6.70
  -4   0   5  282.97    5.10
  -4   0   5  270.77    5.30
   3   0  -5   91.19    1.80
  -3   0   5   91.19    2.00
  -3   0   5   92.89    1.90
   2   0  -5   79.69    1.60
  -2   0   5   79.89    1.60
  -2   0   5   78.79    1.70
  -1   0   5  159.38    3.10
  -1   0   5  160.38    3.00
   0   0   5 1116.09   20.30
   0   0   5 1126.29   19.80
   1   0   5   77.69    1.70
   1   0   5   77.99    1.80
   2   0   5   43.50    1.20
   2   0   5   44.50    1.30
   3   0   5   21.10    0.80
   3   0   5   21.70    1.00
   4   0   5    0.10    0.30
   4   0   5    0.30    0.30
   5   0   5   69.49    2.30
   6   0   5    9.40    1.10
   7  -1  -5   12.10    1.10
   6  -1  -5    0.20    0.40
   5  -1  -5  141.79    3.30
  -4   1   5  241.48    4.60
  -4   1   5  245.98    4.60
   3  -1  -5  827.72   14.80
  -3   1   5  822.72   14.60
  -3   1   5  818.62   14.50
   2  -1  -5 1403.76   25.20
  -2   1   5 1397.16   25.10
  -2   1   5 1367.16   24.90
  -1   1   5 1028.10   18.60
  -1   1   5 1029.90   18.10
   0   1   5    3.70    0.30
   0   1   5    3.50    0.30
   0   1   5    3.90    0.30
   1   1   5 1463.05   26.60
   1   1   5 1498.05   26.10
   2   1   5  207.48    4.20
   2   1   5  201.58    4.10
   3   1   5  134.19    3.10
   3   1   5  134.89    3.00
   4   1   5    1.90    0.50
   4   1   5    3.60    0.50
   5   1   5   46.80    1.80
   6   1   5    0.10    0.50
   7  -2  -5   18.10    1.30
   6  -2  -5    9.40    0.90
   5  -2  -5   44.70    1.50
   4  -2  -5   49.30    1.20
   4  -2  -5   49.99    1.40
  -4   2   5   48.50    1.20
   3  -2  -5    0.20    0.10
  -3   2   5   -0.10    0.10
   2  -2  -5 1046.30   19.10
  -2   2   5 1020.40   18.20
  -2   2   5 1041.50   18.40
  -1   2   5  233.08    4.30
  -1   2   5  226.18    4.30
   0  -2  -5  756.92   13.40
   0   2   5  760.62   13.50
   0   2   5  753.52   13.60
  -1  -2  -5    0.70    0.20
   1   2   5    0.50    0.20
   1   2   5    0.60    0.20
  -2  -2  -5  311.67    6.20
   2   2   5  318.97    6.10
   2   2   5  319.97    6.10
  -3  -2  -5   41.00    1.40
   3   2   5   39.60    1.30
   3   2   5   38.80    1.30
   4   2   5    0.30    0.30
   4   2   5    0.60    0.40
  -5  -2  -5   -0.20    0.50
   7  -3  -5    0.20    0.50
   6  -3  -5   27.00    1.30
   5  -3  -5   67.19    1.90
   4  -3  -5   10.20    0.60
   4  -3  -5   10.50    0.50
   3  -3  -5    8.40    0.40
   3  -3  -5    7.90    0.40
  -3   3   5    7.80    0.30
   2  -3  -5    0.40    0.10
   2  -3  -5    0.20    0.10
  -2   3   5    0.40    0.20
  -2   3   5    0.40    0.10
   1  -3  -5   59.39    1.30
   1  -3  -5   56.69    1.30
  -1   3   5   56.29    1.30
  -1   3   5   55.79    1.40
   0  -3  -5  177.48    3.50
   0   3   5  178.08    3.60
   0   3   5  177.78    3.40
  -1  -3  -5   88.09    2.10
   1   3   5   95.19    2.20
  -2  -3  -5   10.50    0.70
   2   3   5   11.30    0.70
  -3  -3  -5   74.69    2.20
   3   3   5   74.39    2.10
  -4  -3  -5   20.90    1.20
   4   3   5   20.40    1.10
  -5  -3  -5   -0.50    0.50
   5   3   5    0.20    0.40
   7  -4  -5   -0.60    0.40
   6  -4  -5   32.50    1.40
   5  -4  -5  170.68    3.80
   5  -4  -5  171.08    3.60
   4  -4  -5    0.00    0.20
   4  -4  -5    0.10    0.20
   3  -4  -5  157.88    3.20
   3  -4  -5  156.68    3.20
  -3   4   5  159.28    3.00
   2  -4  -5   13.60    0.50
   2  -4  -5   13.00    0.50
   2  -4  -5   13.90    0.50
  -2   4   5   12.80    0.50
   1  -4  -5  329.37    5.90
   1  -4  -5  319.07    6.00
  -1   4   5  325.87    6.00
  -1   4   5  316.07    6.10
   0  -4  -5  365.96    6.90
   0  -4  -5  368.46    6.90
   0   4   5  368.06    7.00
   0   4   5  375.46    6.80
  -1  -4  -5    1.00    0.30
   1   4   5    1.00    0.30
   1   4   5    0.80    0.20
  -2  -4  -5  210.18    4.40
   2   4   5  209.58    4.50
  -3  -4  -5  368.96    7.50
   3   4   5  377.06    7.50
  -4  -4  -5    9.80    1.00
   4   4   5   10.40    0.90
  -5  -4  -5    0.90    0.60
   5   4   5    0.50    0.50
   7  -5  -5    0.10    0.50
   6  -5  -5   15.10    1.00
   5  -5  -5    2.10    0.40
   5  -5  -5    0.70    0.30
   4  -5  -5    0.10    0.20
   4  -5  -5    0.10    0.20
   3  -5  -5  115.79    2.40
   3  -5  -5  112.59    2.50
   2  -5  -5    0.10    0.20
   2  -5  -5    0.40    0.20
  -2   5   5    0.50    0.20
   1  -5  -5  129.49    2.70
   1  -5  -5  134.59    2.70
  -1   5   5  134.29    2.70
  -1   5   5  132.99    2.90
   0  -5  -5    2.60    0.30
   0  -5  -5    3.30    0.40
   0   5   5    3.60    0.30
   0   5   5    3.60    0.40
  -1  -5  -5  112.09    2.60
  -1  -5  -5  108.19    2.40
   1   5   5  110.09    2.70
  -2  -5  -5   58.09    1.80
  -2  -5  -5   55.39    1.50
   2   5   5   56.39    1.80
  -3  -5  -5    1.10    0.50
   3   5   5    0.20    0.40
  -4  -5  -5    3.50    0.70
   4   5   5    3.40    0.70
   7  -6  -5   84.29    2.70
   6  -6  -5    0.80    0.40
   5  -6  -5   -0.30    0.30
   4  -6  -5   28.10    1.00
   3  -6  -5  415.36    7.80
   3  -6  -5  413.16    7.60
   2  -6  -5    8.50    0.50
   2  -6  -5    7.20    0.50
  -2   6   5    7.50    0.50
   1  -6  -5  350.56    6.60
   1  -6  -5  349.87    6.60
  -1   6   5  349.96    6.50
  -1   6   5  341.47    6.70
   0  -6  -5   26.60    0.90
   0  -6  -5   27.10    1.00
   0   6   5   27.10    1.10
   0   6   5   27.00    0.90
  -1  -6  -5   77.09    1.90
  -1  -6  -5   77.29    2.10
   1   6   5   79.99    2.20
  -2  -6  -5   58.09    1.80
   2   6   5   56.49    1.90
  -3  -6  -5   49.80    1.80
   3   6   5   49.80    1.90
  -4  -6  -5    1.50    0.60
   4   6   5    1.50    0.60
   6  -7  -5   86.59    2.50
   5  -7  -5   22.00    1.10
   4  -7  -5  163.28    3.60
   3  -7  -5   11.80    0.60
   3  -7  -5   13.10    0.70
   2  -7  -5   11.80    0.70
   2  -7  -5   10.90    0.60
  -2   7   5   10.70    0.70
   1  -7  -5   29.80    1.00
   1  -7  -5   30.20    1.00
  -1   7   5   30.00    1.00
  -1   7   5   28.90    1.10
   0  -7  -5  129.69    2.80
   0  -7  -5  128.99    2.90
   0   7   5  128.39    3.10
  -1  -7  -5   43.50    1.50
  -1  -7  -5   42.20    1.30
   1   7   5   42.90    1.60
  -2  -7  -5   18.50    1.10
   2   7   5   17.80    1.20
  -3  -7  -5    0.10    0.50
   3   7   5    0.00    0.50
   6  -8  -5   -0.50    0.40
   5  -8  -5   26.80    1.30
   4  -8  -5    2.20    0.50
   3  -8  -5   38.10    1.30
   3  -8  -5   36.60    1.20
   2  -8  -5   17.00    0.80
   2  -8  -5   15.80    0.80
   1  -8  -5   22.30    0.90
   1  -8  -5   21.20    0.90
  -1   8   5   20.70    0.80
  -1   8   5   21.50    1.10
   0  -8  -5   49.80    1.60
   0  -8  -5   47.60    1.50
   0   8   5   49.70    1.70
  -1  -8  -5   24.40    1.20
   1   8   5   23.10    1.30
  -2  -8  -5    0.00    0.40
   2   8   5    0.20    0.50
   5  -9  -5    2.10    0.60
   4  -9  -5   18.00    1.10
   3  -9  -5   20.00    1.00
   3  -9  -5   21.00    0.90
   2  -9  -5   26.10    1.10
   2  -9  -5   26.00    1.10
   1  -9  -5  118.49    2.90
   1  -9  -5  129.59    3.00
  -1   9   5  124.99    3.10
   0  -9  -5   46.10    1.60
   0  -9  -5   44.60    1.50
   0   9   5   42.30    1.70
  -1  -9  -5   14.50    1.00
   1   9   5   13.60    1.20
   4 -10  -5    2.40    0.60
   3 -10  -5   29.00    1.20
   3 -10  -5   29.60    1.40
   2 -10  -5   31.60    1.30
   2 -10  -5   29.80    1.20
   1 -10  -5    0.50    0.40
   1 -10  -5    0.70    0.40
  -1  10   5    1.50    0.90
   0 -10  -5   17.60    1.10
   0  10   5   18.50    1.30
   2 -11   6   23.20    1.60
   1  10  -6    5.50    0.80
   2 -10   6   14.00    1.20
   3 -10   6    1.00    0.60
   4 -10   6   13.70    1.50
   2   9  -6   11.30    1.10
   1   9  -6    1.40    0.50
   0   9  -6   25.20    1.20
   1  -9   6   74.69    2.40
   2  -9   6   34.80    1.80
   2  -9   6   37.90    1.70
   3  -9   6   14.90    1.10
   3  -9   6   15.20    1.30
   4  -9   6    4.30    0.90
   4  -9   6    5.00    0.80
   5  -9   6    0.60    0.70
   3   8  -6   33.80    1.60
   2   8  -6    5.20    0.70
  -2  -8   6    6.40    1.10
   1   8  -6   40.00    1.50
  -1  -8   6   39.60    2.00
   0   8  -6   33.00    1.30
   0  -8   6   33.20    1.70
   1  -8   6    9.60    0.70
   1  -8   6   10.30    0.90
   2  -8   6   15.20    1.00
   2  -8   6   14.90    1.10
   3  -8   6   56.69    2.20
   3  -8   6   59.19    2.10
   4  -8   6  172.98    4.40
   4  -8   6  167.08    4.50
   5  -8   6   24.60    1.60
   5  -8   6   20.10    1.50
   4   7  -6   75.29    2.50
  -4  -7   6   76.19    3.20
   3   7  -6   13.50    1.00
  -3  -7   6   11.00    1.30
   2   7  -6   14.20    0.90
  -2  -7   6   11.60    1.20
   1   7  -6   44.20    1.50
  -1  -7   6   45.70    2.00
   0  -7   6   31.30    1.30
   0  -7   6   31.40    1.50
   0  -7   6   30.40    1.10
   0  -7   6   30.40    0.90
   1  -7   6   68.69    2.00
   1  -7   6   69.99    2.10
   1  -7   6   72.09    1.80
   1  -7   6   70.99    2.20
   2  -7   6   22.10    1.10
   2  -7   6   23.60    1.30
   3  -7   6  214.68    4.90
   3  -7   6  208.28    5.00
   4  -7   6    0.50    0.50
   4  -7   6    0.40    0.50
   5  -7   6    7.10    1.00
   5  -7   6    6.80    1.00
   5   6  -6    0.10    0.50
   5   6  -6    0.00    0.50
  -5  -6   6   -0.30    0.70
   4   6  -6    7.40    0.90
  -4  -6   6    6.40    1.10
   3   6  -6    2.50    0.50
  -3  -6   6    3.20    0.80
   2   6  -6   80.29    2.20
  -2  -6   6   78.59    2.70
  -1  -6   6   14.30    1.00
  -1  -6   6   13.70    0.80
   0  -6   6   16.20    0.90
   0  -6   6   17.30    0.80
   0  -6   6   16.90    0.60
   0  -6   6   17.60    0.80
   0  -6   6   17.30    1.00
   1  -6   6   51.79    1.30
   1  -6   6   49.10    1.60
   1  -6   6   50.99    1.70
   1  -6   6   50.79    1.70
   2  -6   6  104.49    2.70
   2  -6   6  102.99    2.80
   3  -6   6    4.40    0.70
   3  -6   6    1.00    0.40
   4  -6   6  290.47    6.40
   4  -6   6  289.27    6.50
   5  -6   6    1.60    0.60
   5  -6   6    1.00    0.50
   6  -6   6   57.79    2.50
   6  -6   6   61.89    2.60
   5   5  -6   21.70    1.30
  -5  -5   6   23.30    1.80
   4   5  -6   57.49    1.90
  -4  -5   6   57.89    2.50
   3   5  -6  123.59    3.00
  -3  -5   6  123.19    3.60
  -2  -5   6  165.28    3.60
  -2  -5   6  165.58    4.20
  -1  -5   6   12.60    0.70
  -1  -5   6   12.40    0.90
   0  -5   6   19.00    0.60
   0  -5   6   18.90    0.90
   0  -5   6   20.50    0.70
   0  -5   6   17.10    0.90
   0  -5   6   18.70    0.80
   1  -5   6  303.77    6.20
   1  -5   6  317.67    5.80
   1  -5   6  312.57    6.30
   1  -5   6  312.97    6.20
   2  -5   6  276.97    5.80
   2  -5   6  272.57    5.70
   3  -5   6  123.89    3.20
   3  -5   6  127.19    3.30
   4  -5   6   28.20    1.50
   4  -5   6   28.40    1.40
   5  -5   6   10.90    1.10
   5  -5   6   11.70    1.10
   6  -5   6    2.10    0.70
   5   4  -6    7.80    0.80
  -5  -4   6    8.10    1.20
   4   4  -6   17.80    1.00
  -4  -4   6   18.00    1.30
  -3  -4   6  224.18    5.30
  -3  -4   6  229.68    4.70
  -2  -4   6  206.88    4.80
  -1  -4   6    0.60    0.20
  -1  -4   6    0.80    0.20
   0  -4   6  109.79    2.30
   0  -4   6  111.99    2.50
   0  -4   6  110.29    2.60
   1  -4   6   26.90    1.10
   1  -4   6   27.30    1.00
   1  -4   6   25.30    0.70
   2  -4   6    3.00    0.40
   2  -4   6    4.00    0.50
   2  -4   6    3.50    0.30
   3  -4   6   -0.50    0.20
   3  -4   6    0.10    0.30
   4  -4   6    1.70    0.50
   4  -4   6    1.10    0.40
   5  -4   6   -0.40    0.40
   6  -4   6    5.00    0.90
   6   3  -6    8.60    0.90
   6   3  -6    8.30    0.90
  -6  -3   6    7.50    1.20
   5   3  -6   13.80    0.90
  -5  -3   6   15.40    1.30
   4   3  -6   13.70    0.80
  -4  -3   6   13.00    0.80
  -4  -3   6   13.50    1.10
  -3  -3   6  711.13   13.20
  -3  -3   6  737.43   13.90
  -2  -3   6  217.88    4.30
  -1  -3   6  631.54   11.30
   0  -3   6    8.20    0.40
   0  -3   6    7.90    0.50
   0  -3   6    8.60    0.50
   1  -3   6  482.15    9.10
   1  -3   6  484.65    8.70
   1  -3   6  492.05    9.20
   2  -3   6   66.79    1.40
   2  -3   6   65.89    1.90
   2  -3   6   67.29    1.90
   3  -3   6   99.79    2.70
   3  -3   6  103.09    2.70
   4  -3   6   -0.30    0.30
   5  -3   6   55.29    2.10
   6  -3   6   69.29    2.70
   6   2  -6   57.79    2.00
  -6  -2   6   55.59    2.40
   5   2  -6    1.40    0.40
  -5  -2   6    2.20    0.60
  -4  -2   6    7.20    0.60
  -3  -2   6  423.16    7.90
  -2  -2   6  130.49    2.70
  -1  -2   6   75.19    1.60
   0  -2   6    9.60    0.40
   0  -2   6   10.10    0.50
   1  -2   6  457.15    8.20
   1  -2   6  459.75    8.60
   2  -2   6  512.35    9.70
   2  -2   6  507.15    9.20
   3  -2   6   25.50    1.10
   3  -2   6   25.80    0.80
   4  -2   6   56.99    2.00
   5  -2   6    6.10    0.80
   6  -2   6    3.80    0.90
   6   1  -6   35.80    1.50
   5   1  -6   91.19    2.30
  -5  -1   6   94.99    2.90
  -5  -1   6   93.69    2.30
  -4  -1   6   54.89    1.50
  -3  -1   6   10.90    0.50
  -3  -1   6   10.10    0.50
  -2  -1   6   38.50    1.00
  -2  -1   6   39.30    1.00
  -1  -1   6  308.97    5.60
   0  -1   6 2067.99   36.50
   0  -1   6 2035.50   36.90
   1  -1   6   17.30    0.70
   1  -1   6   19.90    0.60
   2  -1   6    0.10    0.20
   2  -1   6    0.20    0.20
   3  -1   6  255.77    5.40
   3  -1   6  254.17    4.90
   4  -1   6    4.00    0.60
   5  -1   6    4.50    0.70
   6  -1   6   44.40    2.10
   7   0  -6   11.90    1.20
   6   0  -6    5.10    0.70
   5   0  -6  144.99    3.30
  -5   0   6  144.29    3.20
  -4   0   6  257.37    5.00
  -4   0   6  252.17    4.80
   3   0  -6   41.40    0.90
  -3   0   6   42.90    1.10
  -3   0   6   40.60    1.10
  -2   0   6   13.20    0.50
  -2   0   6   13.70    0.50
  -1   0   6   -0.10    0.10
  -1   0   6    0.20    0.10
   0   0   6  799.72   14.50
   0   0   6  828.72   14.50
   1   0   6  764.12   13.70
   1   0   6  751.02   13.60
   2   0   6  194.78    4.00
   2   0   6  188.18    3.80
   3   0   6  724.83   13.10
   3   0   6  718.53   13.40
   4   0   6  249.18    5.40
   5   0   6    0.40    0.40
   6   0   6    7.00    1.00
   7  -1  -6   24.90    1.50
   6  -1  -6    5.20    0.70
   5  -1  -6   38.50    1.40
  -4   1   6    0.20    0.20
  -4   1   6    0.20    0.20
   3  -1  -6    8.10    0.30
  -3   1   6    8.50    0.40
  -3   1   6    8.30    0.40
   2  -1  -6   51.89    1.20
  -2   1   6   52.39    1.30
  -2   1   6   51.59    1.20
  -1   1   6 1670.73   29.80
  -1   1   6 1674.43   30.20
   0  -1  -6 2667.83   49.00
   0   1   6 2706.73   48.40
   0   1   6 2706.33   47.80
  -1  -1  -6  403.86    7.40
   1   1   6  403.26    7.40
   1   1   6  392.06    7.40
   2   1   6  304.87    6.00
   2   1   6  309.47    6.00
   3   1   6  144.19    3.20
   3   1   6  139.59    3.30
   4   1   6  135.49    3.20
   4   1   6  131.99    3.30
   5   1   6   31.20    1.50
   7  -2  -6   44.70    1.90
   6  -2  -6   50.79    1.80
   5  -2  -6  154.18    3.50
  -5   2   6  158.78    3.20
   4  -2  -6  130.39    2.60
  -4   2   6  129.99    2.60
  -4   2   6  134.59    2.70
   3  -2  -6   45.00    1.10
  -3   2   6   43.90    1.00
  -3   2   6   43.90    1.10
   2  -2  -6   50.69    1.20
  -2   2   6   51.99    1.20
  -2   2   6   50.69    1.20
   1  -2  -6  206.98    3.80
  -1   2   6  207.68    4.00
  -1   2   6  202.38    4.00
   0  -2  -6    0.80    0.20
   0   2   6    0.40    0.20
   0   2   6    0.50    0.10
   0   2   6    0.60    0.20
  -1  -2  -6  267.67    5.30
   1   2   6  277.17    5.30
   1   2   6  285.67    5.40
  -2  -2  -6   44.70    1.40
   2   2   6   44.40    1.30
   2   2   6   43.20    1.40
  -3  -2  -6    9.10    0.70
   3   2   6    8.60    0.70
   3   2   6    9.90    0.70
  -4  -2  -6   60.09    2.00
   4   2   6   60.49    1.90
  -5  -2  -6   32.30    1.60
   7  -3  -6   -0.10    0.40
   6  -3  -6    9.00    0.90
   5  -3  -6   20.40    1.00
   4  -3  -6   17.20    0.70
   4  -3  -6   16.80    0.60
   3  -3  -6   49.30    1.20
  -3   3   6   48.30    1.20
  -3   3   6   52.09    1.30
   2  -3  -6   64.19    1.50
   2  -3  -6   63.29    1.30
  -2   3   6   62.59    1.50
   1  -3  -6  355.26    6.40
   1  -3  -6  352.66    6.50
  -1   3   6  349.37    6.60
  -1   3   6  346.47    6.50
   0  -3  -6  276.67    5.20
   0   3   6  267.87    5.40
   0   3   6  285.17    5.30
  -1  -3  -6   44.80    1.30
   1   3   6   43.20    1.30
  -2  -3  -6   50.99    1.60
   2   3   6   50.59    1.60
  -3  -3  -6  106.39    2.80
   3   3   6  106.79    2.70
  -4  -3  -6   37.20    1.60
   4   3   6   38.30    1.50
  -5  -3  -6   -0.40    0.50
   5   3   6    0.20    0.60
   7  -4  -6    8.20    0.90
   6  -4  -6   20.00    1.10
   5  -4  -6   62.29    1.80
   5  -4  -6   64.19    1.90
   4  -4  -6   82.49    2.00
   4  -4  -6   83.59    1.90
   3  -4  -6   27.50    0.80
   3  -4  -6   27.20    0.90
  -3   4   6   27.60    0.80
   2  -4  -6   28.30    0.80
   2  -4  -6   29.20    0.90
  -2   4   6   30.60    0.90
   1  -4  -6  232.78    4.40
   1  -4  -6  231.48    4.50
  -1   4   6  228.08    4.60
  -1   4   6  228.38    4.40
   0  -4  -6   37.30    1.10
   0  -4  -6   37.40    1.10
   0   4   6   36.60    1.20
   0   4   6   36.70    1.00
  -1  -4  -6  100.39    2.40
   1   4   6  103.19    2.50
   1   4   6   98.69    2.20
  -2  -4  -6  115.49    2.80
   2   4   6  113.29    2.80
  -3  -4  -6    1.00    0.40
   3   4   6    1.10    0.40
  -4  -4  -6    0.80    0.50
   4   4   6    0.50    0.50
   7  -5  -6    1.60    0.60
   6  -5  -6   46.70    1.70
   5  -5  -6   20.90    1.00
   5  -5  -6   20.80    0.90
   4  -5  -6   16.80    0.70
   3  -5  -6  291.97    5.50
   3  -5  -6  274.87    5.40
  -3   5   6  297.57    5.40
   2  -5  -6  513.85    9.40
   2  -5  -6  511.95    9.30
  -2   5   6  519.65    9.40
  -2   5   6  508.05    9.50
   1  -5  -6  117.39    2.50
   1  -5  -6  119.49    2.60
  -1   5   6  119.79    2.50
  -1   5   6  121.59    2.70
   0  -5  -6    4.60    0.40
   0  -5  -6    5.60    0.50
   0   5   6    4.70    0.40
   0   5   6    4.50    0.50
  -1  -5  -6    0.30    0.30
  -1  -5  -6    1.40    0.30
   1   5   6    0.20    0.30
  -2  -5  -6   40.40    1.30
  -2  -5  -6   42.50    1.50
   2   5   6   42.00    1.60
  -3  -5  -6   61.79    2.00
   3   5   6   58.49    2.00
  -4  -5  -6   23.80    1.40
   4   5   6   23.60    1.40
   5  -6  -6   65.59    1.90
   4  -6  -6   67.29    1.80
   3  -6  -6   25.30    0.90
   3  -6  -6   25.10    0.90
   2  -6  -6    9.00    0.50
   2  -6  -6    9.10    0.60
  -2   6   6   10.00    0.60
  -2   6   6    9.80    0.60
   1  -6  -6   58.19    1.50
   1  -6  -6   56.99    1.50
  -1   6   6   56.89    1.70
  -1   6   6   60.99    1.50
   0  -6  -6  228.28    4.60
   0  -6  -6  234.08    4.60
   0   6   6  227.48    4.80
   0   6   6  228.68    4.50
  -1  -6  -6  237.38    4.80
  -1  -6  -6  237.68    4.90
   1   6   6  237.78    5.10
  -2  -6  -6    2.00    0.50
   2   6   6    2.80    0.60
  -3  -6  -6    2.00    0.60
   3   6   6    2.00    0.60
   6  -7  -6   -0.10    0.40
   5  -7  -6    0.80    0.40
   4  -7  -6  140.69    3.20
   3  -7  -6   24.90    1.00
   3  -7  -6   24.80    0.90
   2  -7  -6   29.30    1.10
   2  -7  -6   27.50    1.00
  -2   7   6   28.90    1.10
  -2   7   6   28.30    1.00
   1  -7  -6   26.80    1.00
   1  -7  -6   27.50    1.00
  -1   7   6   26.20    0.90
  -1   7   6   26.30    1.10
   0  -7  -6   12.90    0.70
   0  -7  -6   14.50    0.80
   0   7   6   14.00    0.90
  -1  -7  -6    5.30    0.60
  -1  -7  -6    5.40    0.60
   1   7   6    6.50    0.80
  -2  -7  -6   24.70    1.30
   2   7   6   27.60    1.40
  -3  -7  -6   -0.50    0.50
   3   7   6    0.10    0.50
   6  -8  -6   10.40    1.00
   5  -8  -6   74.39    2.20
   4  -8  -6   73.89    2.10
   3  -8  -6    0.10    0.30
   3  -8  -6   -0.30    0.30
   2  -8  -6   17.40    0.90
   2  -8  -6   18.20    0.90
  -2   8   6   17.40    0.80
   1  -8  -6   54.99    1.60
   1  -8  -6   52.99    1.60
  -1   8   6   54.19    1.80
  -1   8   6   54.19    1.50
   0  -8  -6   31.00    1.20
   0  -8  -6   30.10    1.10
   0   8   6   29.00    1.40
  -1  -8  -6   12.40    1.20
  -1  -8  -6   13.70    1.00
   1   8   6   14.90    1.20
  -2  -8  -6   14.30    1.10
   2   8   6   12.60    1.20
   5  -9  -6    0.60    0.50
   4  -9  -6    7.90    0.80
   3  -9  -6    1.20    0.40
   3  -9  -6    1.70    0.40
   2  -9  -6    0.00    0.30
   2  -9  -6    0.10    0.30
  -2   9   6   -0.80    0.30
   1  -9  -6    7.30    0.70
   1  -9  -6    7.20    0.70
  -1   9   6    6.10    0.70
   0  -9  -6    4.20    0.60
   0  -9  -6    3.80    0.50
   0   9   6    3.70    0.70
  -1  -9  -6    0.20    0.50
   1   9   6   -0.40    0.50
   4 -10  -6   33.20    1.50
   3 -10  -6    9.60    0.80
   3 -10  -6    9.20    0.90
  -3  10   6    8.00    0.70
   2 -10  -6    0.90    0.40
   2 -10  -6    0.60    0.40
   1 -10  -6   29.40    1.30
   1 -10  -6   31.30    1.30
  -1  10   6   31.30    1.50
   1  10  -7   44.50    1.90
   2 -10   7    8.20    1.00
   3 -10   7   36.10    1.90
   2   9  -7    0.10    0.50
   1   9  -7   57.09    2.00
   0   9  -7   10.70    0.90
   1  -9   7    0.70    0.50
   1  -9   7    0.40    0.40
   2  -9   7    0.10    0.40
   2  -9   7    0.40    0.50
   3  -9   7   -0.20    0.40
   3  -9   7    0.50    0.50
   4  -9   7   60.59    2.60
   4  -9   7   61.49    2.40
   3   8  -7   72.19    2.50
  -3  -8   7   77.09    3.20
   2   8  -7  102.39    2.80
  -2  -8   7  104.39    3.60
   1   8  -7    2.40    0.50
  -1  -8   7    1.90    0.70
   0   8  -7  221.68    4.60
   0  -8   7  217.48    5.30
   1  -8   7  108.39    2.80
   1  -8   7  107.89    3.00
   2  -8   7    2.50    0.50
   2  -8   7    3.30    0.60
   3  -8   7   10.80    1.10
   3  -8   7   11.70    1.00
   4  -8   7   51.79    2.10
   4  -8   7   46.10    2.20
   5  -8   7    0.30    0.60
   5  -8   7    0.50    0.60
   4   7  -7   42.10    1.90
  -4  -7   7   42.30    2.40
   3   7  -7   -0.40    0.40
  -3  -7   7    0.60    0.60
   2   7  -7   19.40    1.10
  -2  -7   7   19.30    1.40
  -1  -7   7   16.70    1.30
  -1  -7   7   15.00    0.90
   0  -7   7   65.99    2.30
   0  -7   7   67.49    1.80
   0  -7   7   59.79    2.60
   1  -7   7    4.10    0.40
   1  -7   7    4.30    0.50
   1  -7   7    4.20    0.60
   2  -7   7   31.10    1.40
   2  -7   7   33.10    1.50
   3  -7   7   30.30    1.60
   3  -7   7   28.70    1.40
   4  -7   7   12.50    1.20
   4  -7   7   12.20    1.20
   5  -7   7   30.60    1.80
   5  -7   7   35.40    2.00
   4   6  -7   28.00    1.40
  -4  -6   7   26.60    1.80
   3   6  -7   -0.60    0.30
  -3  -6   7    0.20    0.50
  -2  -6   7    0.90    0.50
  -2  -6   7    0.30    0.30
  -1  -6   7  105.19    3.10
  -1  -6   7  106.09    2.50
   0  -6   7   42.20    1.30
   0  -6   7   40.80    1.60
   0  -6   7   41.00    1.40
   0  -6   7   41.80    1.30
   1  -6   7  124.89    3.10
   1  -6   7  123.69    2.70
   1  -6   7  123.39    3.00
   1  -6   7  124.69    3.10
   2  -6   7  349.07    7.10
   2  -6   7  342.97    7.20
   3  -6   7  128.19    3.40
   3  -6   7  123.99    3.40
   4  -6   7   -0.20    0.40
   4  -6   7    0.50    0.50
   5  -6   7   21.60    1.50
   5  -6   7   22.40    1.50
   5   5  -7    3.90    0.70
  -5  -5   7    3.00    0.90
   4   5  -7   -0.10    0.30
  -4  -5   7    0.00    0.50
  -3  -5   7  137.19    3.20
  -3  -5   7  134.29    3.90
  -2  -5   7   45.40    1.90
  -2  -5   7   40.10    1.40
  -1  -5   7  320.37    6.30
  -1  -5   7  339.47    7.00
   0  -5   7   58.29    1.70
   0  -5   7   61.09    1.50
   0  -5   7   60.99    1.80
   0  -5   7   59.59    1.90
   1  -5   7   18.60    0.90
   1  -5   7   17.90    0.90
   1  -5   7   17.00    0.90
   1  -5   7   18.30    0.70
   2  -5   7  493.05    9.60
   2  -5   7  497.75    9.80
   3  -5   7    5.20    0.70
   3  -5   7    7.80    0.90
   4  -5   7  140.09    3.80
   4  -5   7  149.88    3.90
   5  -5   7    0.60    0.50
   5  -5   7    0.00    0.50
   6  -5   7    1.70    0.80
   5   4  -7   18.80    1.20
  -5  -4   7   19.90    1.60
   4   4  -7    2.20    0.50
  -4  -4   7    3.70    0.80
  -4  -4   7    3.50    0.60
  -3  -4   7    2.40    0.40
  -3  -4   7    2.30    0.60
  -2  -4   7   90.19    2.20
  -1  -4   7   16.10    0.70
   0  -4   7    2.10    0.30
   0  -4   7    1.50    0.30
   1  -4   7   51.29    1.60
   1  -4   7   49.80    1.60
   1  -4   7   50.49    1.20
   2  -4   7  125.29    2.50
   2  -4   7  125.49    3.10
   2  -4   7  121.79    3.10
   3  -4   7   32.50    1.50
   3  -4   7   31.00    1.40
   4  -4   7    2.20    0.50
   5  -4   7   40.30    1.90
   6  -4   7   28.90    1.80
   6   3  -7   84.99    2.60
   6   3  -7   81.29    2.50
  -6  -3   7   82.29    3.20
   5   3  -7   44.40    1.60
  -5  -3   7   41.40    2.00
  -4  -3   7    0.60    0.50
  -4  -3   7    0.30    0.30
  -3  -3   7    1.20    0.30
  -2  -3   7   36.30    1.10
  -1  -3   7    1.50    0.20
   0  -3   7   44.60    1.30
   0  -3   7   43.00    1.10
   1  -3   7   17.40    0.80
   1  -3   7   18.90    0.60
   2  -3   7   83.69    2.30
   2  -3   7   81.59    1.80
   3  -3   7  221.78    4.90
   4  -3   7   89.29    2.70
   5  -3   7    3.90    0.70
   6  -3   7   44.20    2.20
   6   2  -7    6.60    0.80
  -6  -2   7    7.30    1.10
   5   2  -7   46.00    1.50
  -5  -2   7   48.20    2.10
  -5  -2   7   47.60    1.60
  -4  -2   7    7.90    0.60
  -3  -2   7  569.04   10.50
  -2  -2   7  351.76    6.60
  -1  -2   7  142.69    2.80
   0  -2   7 1087.39   19.30
   0  -2   7 1076.19   19.40
   1  -2   7   23.40    0.70
   1  -2   7   22.90    0.90
   2  -2   7  409.76    7.60
   2  -2   7  421.36    8.10
   3  -2   7   15.70    1.00
   3  -2   7   16.70    0.70
   4  -2   7    0.20    0.30
   5  -2   7   79.79    2.70
   6  -2   7   -0.10    0.50
   6   1  -7   28.30    1.40
  -6  -1   7   28.90    1.70
  -5  -1   7   18.80    0.90
  -4  -1   7   13.40    0.70
  -3  -1   7    2.40    0.30
  -3  -1   7    1.40    0.30
  -2  -1   7  249.48    4.70
  -1  -1   7  194.48    3.70
   0  -1   7  764.62   13.60
   0  -1   7  745.33   13.40
   1  -1   7  760.12   13.90
   1  -1   7  761.52   13.60
   2  -1   7   71.19    1.70
   2  -1   7   74.29    2.00
   3  -1   7  117.29    2.60
   3  -1   7  121.19    3.00
   4  -1   7   64.59    2.10
   5  -1   7   17.50    1.30
   7   0  -7    0.20    0.50
   6   0  -7   40.40    1.60
  -5   0   7   27.10    1.00
  -4   0   7  276.77    5.40
  -4   0   7  278.97    5.30
   3   0  -7   53.29    1.20
  -3   0   7   55.19    1.30
  -3   0   7   56.99    1.40
  -2   0   7   49.50    1.20
  -2   0   7   50.79    1.30
  -1   0   7 1247.58   21.90
  -1   0   7 1203.08   21.70
   0   0   7 1045.00   18.60
   0   0   7 1051.89   18.60
   1   0   7    0.90    0.20
   1   0   7    1.10    0.30
   2   0   7    5.70    0.50
   2   0   7    5.40    0.50
   3   0   7   75.49    2.00
   3   0   7   78.19    2.20
   4   0   7   44.30    1.70
   5   0   7    8.90    1.00
   7  -1  -7   -0.30    0.50
   6  -1  -7   13.30    1.00
   5  -1  -7  107.49    2.70
  -4   1   7   68.99    1.70
  -4   1   7   68.19    1.60
   3  -1  -7   49.70    1.10
  -3   1   7   49.10    1.30
  -3   1   7   47.70    1.20
  -2   1   7  177.58    3.60
  -2   1   7  179.38    3.50
  -1   1   7   93.69    2.00
  -1   1   7   94.89    2.10
   0  -1  -7  126.89    2.50
   0   1   7  125.19    2.70
   0   1   7  128.19    2.60
  -1  -1  -7 1397.26   25.10
   1   1   7 1427.56   25.20
   1   1   7 1445.06   25.20
   2   1   7    3.70    0.40
   2   1   7    2.70    0.40
   3   1   7   96.89    2.50
   3   1   7   96.69    2.40
   4   1   7   30.40    1.40
   4   1   7   30.40    1.30
   5   1   7   32.10    2.10
   7  -2  -7   18.90    1.30
   6  -2  -7   18.60    1.10
   5  -2  -7    1.90    0.40
  -5   2   7    1.30    0.30
   4  -2  -7   15.90    0.90
  -4   2   7   17.60    0.60
  -4   2   7   18.70    0.70
   3  -2  -7  183.08    3.50
  -3   2   7  181.78    3.50
  -3   2   7  186.08    3.70
   2  -2  -7  588.64   10.70
   2  -2  -7  598.34   10.50
  -2   2   7  595.84   10.70
  -2   2   7  586.84   10.70
   1  -2  -7   17.40    0.50
  -1   2   7   16.60    0.70
  -1   2   7   15.80    0.70
   0  -2  -7    0.40    0.20
   0   2   7    0.40    0.20
   0   2   7    0.50    0.20
   0   2   7    0.80    0.30
  -1  -2  -7    4.70    0.40
   1   2   7    4.60    0.40
   1   2   7    4.80    0.50
  -2  -2  -7   70.09    1.90
   2   2   7   67.79    1.80
   2   2   7   69.79    1.90
  -3  -2  -7    0.20    0.40
   3   2   7    0.50    0.30
  -4  -2  -7    3.30    0.70
   4   2   7    4.20    0.60
  -5  -2  -7   19.00    1.40
   7  -3  -7   -0.50    0.40
   6  -3  -7   53.49    1.80
   5  -3  -7   15.40    0.90
  -5   3   7   13.80    0.70
   4  -3  -7   17.90    0.80
   4  -3  -7   17.00    0.70
  -4   3   7   17.30    0.70
   3  -3  -7    2.20    0.30
  -3   3   7    1.90    0.30
  -3   3   7    1.80    0.20
   2  -3  -7  102.09    2.20
   2  -3  -7  106.29    2.00
  -2   3   7  100.29    2.20
  -2   3   7  101.29    2.20
   1  -3  -7  661.73   11.70
  -1   3   7  652.83   11.90
  -1   3   7  651.63   11.90
   0  -3  -7  181.68    3.60
   0   3   7  186.38    3.80
   0   3   7  182.38    3.70
  -1  -3  -7    9.70    0.60
  -2  -3  -7   28.30    1.20
   2   3   7   31.40    1.20
  -3  -3  -7    0.70    0.40
   3   3   7    0.80    0.40
  -4  -3  -7   28.10    1.50
   4   3   7   28.10    1.40
   7  -4  -7    0.40    0.50
   6  -4  -7  132.19    3.30
  -6   4   7  134.79    3.00
   5  -4  -7  225.68    4.80
  -5   4   7  235.18    4.60
   4  -4  -7   16.40    0.70
   4  -4  -7   14.30    0.70
  -4   4   7   15.80    0.70
   3  -4  -7  189.58    3.90
   3  -4  -7  195.48    3.80
  -3   4   7  190.98    3.80
  -3   4   7  192.18    3.90
   2  -4  -7    0.20    0.20
   2  -4  -7    0.20    0.20
  -2   4   7    0.10    0.20
  -2   4   7    0.40    0.20
   1  -4  -7    6.80    0.50
   1  -4  -7    7.60    0.40
  -1   4   7    6.00    0.50
  -1   4   7    7.30    0.50
   0  -4  -7   55.19    1.40
   0   4   7   53.99    1.60
   0   4   7   57.29    1.50
  -1  -4  -7   24.70    1.00
   1   4   7   22.80    1.00
  -2  -4  -7  172.38    3.90
   2   4   7  173.38    4.00
  -3  -4  -7   23.80    1.20
   3   4   7   26.30    1.30
  -4  -4  -7   16.30    1.20
   4   4   7   13.90    1.20
   7  -5  -7    1.30    0.60
   6  -5  -7   -0.10    0.40
   5  -5  -7    1.30    0.30
   4  -5  -7    1.10    0.30
  -4   5   7    0.80    0.30
   3  -5  -7   85.79    2.00
   3  -5  -7   84.79    1.90
  -3   5   7   85.79    2.00
  -3   5   7   84.79    2.00
   2  -5  -7  234.18    4.50
   2  -5  -7  238.08    4.50
  -2   5   7  224.68    4.50
  -2   5   7  227.08    4.60
   1  -5  -7   -0.10    0.20
   1  -5  -7    0.20    0.20
  -1   5   7    0.00    0.30
  -1   5   7    0.30    0.20
   0  -5  -7    9.60    0.60
   0  -5  -7    8.80    0.60
   0   5   7    9.10    0.60
   0   5   7    8.80    0.70
  -1  -5  -7  207.78    4.30
  -1  -5  -7  202.58    4.30
   1   5   7  207.18    4.50
  -2  -5  -7    1.80    0.50
  -2  -5  -7    1.80    0.40
   2   5   7    2.20    0.50
  -3  -5  -7    2.60    0.60
   3   5   7    1.90    0.60
  -4  -5  -7   -0.40    0.50
   4   5   7   -0.90    0.50
   5  -6  -7    0.80    0.40
   4  -6  -7  230.08    4.70
   3  -6  -7  939.31   16.90
   3  -6  -7  931.11   17.10
  -3   6   7  978.30   17.10
   2  -6  -7    1.30    0.30
   2  -6  -7    1.60    0.30
  -2   6   7    2.20    0.40
  -2   6   7    1.90    0.40
   1  -6  -7   17.50    0.80
   1  -6  -7   18.10    0.80
  -1   6   7   18.10    0.80
  -1   6   7   17.40    0.90
   0  -6  -7   70.59    1.90
   0  -6  -7   74.39    1.90
   0   6   7   71.89    2.10
   0   6   7   69.69    1.80
  -1  -6  -7    5.60    0.60
  -1  -6  -7    5.30    0.50
   1   6   7    5.00    0.70
  -2  -6  -7   12.80    0.90
  -2  -6  -7   12.20    0.80
   2   6   7   12.60    1.10
  -3  -6  -7   14.60    1.20
   3   6   7   13.40    1.20
   6  -7  -7    3.40    0.60
   5  -7  -7   -0.10    0.30
   4  -7  -7    7.20    0.70
   3  -7  -7    1.60    0.40
   3  -7  -7    1.30    0.30
  -3   7   7    1.80    0.40
   2  -7  -7  149.19    3.30
   2  -7  -7  154.48    3.30
  -2   7   7  156.58    3.50
  -2   7   7  155.38    3.30
   1  -7  -7    0.50    0.30
   1  -7  -7    0.40    0.30
  -1   7   7    0.80    0.30
  -1   7   7    0.70    0.40
   0  -7  -7   85.29    2.10
   0  -7  -7   87.49    2.20
   0   7   7   84.49    2.40
  -1  -7  -7    0.50    0.30
  -1  -7  -7    0.60    0.40
   1   7   7    0.60    0.50
  -2  -7  -7    0.20    0.40
   2   7   7   -0.40    0.40
   6  -8  -7    0.10    0.40
   5  -8  -7    0.40    0.40
   4  -8  -7    0.30    0.40
   3  -8  -7    1.70    0.40
   3  -8  -7    2.00    0.40
  -3   8   7    1.20    0.40
   2  -8  -7   14.60    0.80
   2  -8  -7   15.40    0.80
  -2   8   7   13.50    0.80
  -2   8   7   13.80    0.90
   1  -8  -7   13.20    0.80
   1  -8  -7   13.00    0.80
  -1   8   7   12.20    0.80
  -1   8   7   12.90    1.00
   0  -8  -7   71.19    2.00
   0  -8  -7   70.49    2.00
   0   8   7   75.59    2.30
  -1  -8  -7    2.30    0.50
  -1  -8  -7    3.40    0.60
   1   8   7    1.20    0.60
   5  -9  -7   -0.50    0.40
   4  -9  -7   21.00    1.20
   4  -9  -7   18.70    1.00
   3  -9  -7   25.10    1.10
   3  -9  -7   24.60    1.20
  -3   9   7   24.90    1.10
   2  -9  -7    9.60    0.80
   2  -9  -7    8.60    0.80
  -2   9   7    9.50    0.70
   1  -9  -7   25.80    1.10
   1  -9  -7   26.40    1.20
  -1   9   7   26.60    1.40
   0  -9  -7    1.10    0.40
   0  -9  -7    0.70    0.40
   0   9   7    1.40    0.60
   4 -10  -7   15.00    0.90
  -4  10   7   13.30    1.00
   3 -10  -7   25.90    1.20
   3 -10  -7   24.00    1.30
  -3  10   7   23.20    1.10
   2 -10  -7    0.20    0.40
   2 -10  -7    0.60    0.40
   1 -10  -7    0.50    0.40
   1 -10  -7    0.70    0.50
  -1  10   7    0.80    0.60
   2 -10   8    9.40    1.10
   3 -10   8    6.90    1.10
   3 -10   8    7.50    1.00
   2   9  -8    5.90    0.80
  -2  -9   8    5.80    1.10
   1   9  -8   15.80    1.10
  -1  -9   8   17.40    1.60
   0   9  -8   65.69    2.00
   1  -9   8   16.10    1.00
   2  -9   8   19.50    1.40
   2  -9   8   20.30    1.20
   3  -9   8    8.70    1.10
   3  -9   8    6.90    0.90
   4  -9   8   72.99    2.70
   4  -9   8   74.19    2.90
   3   8  -8   12.00    1.10
  -3  -8   8   10.50    1.40
   2   8  -8   50.09    1.80
  -2  -8   8   46.90    2.40
   1   8  -8   24.00    1.20
  -1  -8   8   24.90    1.60
   0  -8   8   14.80    1.30
   0  -8   8   14.20    0.90
   1  -8   8   19.30    1.10
   1  -8   8   19.30    1.30
   2  -8   8    1.40    0.60
   2  -8   8    1.80    0.50
   3  -8   8   49.99    2.00
   3  -8   8   47.00    2.10
   4  -8   8  105.09    3.50
   4  -8   8  105.49    3.30
   4   7  -8    5.50    0.90
  -4  -7   8    5.00    1.50
   3   7  -8   13.40    1.10
  -3  -7   8   12.90    1.40
   2   7  -8   11.40    0.90
  -2  -7   8   11.90    1.30
  -2  -7   8   11.40    0.90
  -1  -7   8  152.18    3.50
  -1  -7   8  154.68    4.20
   0  -7   8   51.59    1.60
   0  -7   8   52.39    2.00
   1  -7   8   30.00    1.30
   1  -7   8   28.90    1.40
   1  -7   8   29.30    1.10
   2  -7   8   12.30    1.00
   2  -7   8   14.40    1.10
   3  -7   8  117.49    3.50
   3  -7   8  121.49    3.30
   4  -7   8   50.69    2.10
   4  -7   8   45.70    2.10
   5  -7   8   10.60    1.20
   5  -7   8   10.40    1.30
   4   6  -8    8.70    0.90
  -4  -6   8    8.60    1.20
   3   6  -8   -0.30    0.30
  -3  -6   8   -0.40    0.30
  -3  -6   8    0.30    0.50
  -2  -6   8    0.50    0.50
  -2  -6   8    0.00    0.30
  -1  -6   8  131.39    3.60
  -1  -6   8  128.39    3.00
   0  -6   8    0.30    0.40
   0  -6   8    0.20    0.30
   0  -6   8   -0.30    0.30
   0  -6   8    0.50    0.30
   1  -6   8  133.29    2.90
   1  -6   8  136.79    3.30
   1  -6   8  136.89    3.40
   2  -6   8    1.70    0.50
   2  -6   8    2.40    0.60
   3  -6   8    3.70    0.70
   3  -6   8    3.00    0.60
   4  -6   8   16.50    1.30
   4  -6   8   17.10    1.30
   5  -6   8    0.70    0.60
   5  -6   8    0.00    0.50
   5   5  -8   64.09    2.20
  -5  -5   8   64.09    2.90
   4   5  -8   39.50    1.60
  -4  -5   8   42.00    2.20
  -3  -5   8   26.90    1.60
  -3  -5   8   27.20    1.20
  -2  -5   8    2.70    0.60
  -2  -5   8    2.10    0.40
  -1  -5   8  126.19    3.30
  -1  -5   8  120.69    2.80
   0  -5   8   92.59    2.20
   0  -5   8   95.59    2.40
   0  -5   8   94.99    2.50
   1  -5   8   29.00    1.20
   1  -5   8   30.00    1.30
   1  -5   8   29.70    0.90
   2  -5   8   33.20    1.50
   2  -5   8   33.90    1.40
   3  -5   8    9.50    1.00
   3  -5   8    8.50    0.90
   4  -5   8   14.80    1.20
   4  -5   8   15.50    1.20
   5  -5   8   31.50    1.80
   5   4  -8   10.70    0.90
  -5  -4   8   11.20    1.40
  -4  -4   8   55.79    2.30
  -4  -4   8   55.39    1.80
  -3  -4   8   49.60    2.00
  -3  -4   8   49.40    1.60
  -2  -4   8  238.08    4.80
  -1  -4   8   86.49    2.00
   0  -4   8   93.39    2.30
   0  -4   8   92.49    2.10
   1  -4   8   45.30    1.10
   1  -4   8   43.90    1.50
   2  -4   8  324.07    5.90
   2  -4   8  315.67    6.60
   3  -4   8   11.20    0.90
   4  -4   8    3.70    0.70
   5  -4   8   -0.40    0.40
   6   3  -8    1.40    0.60
   6   3  -8    0.30    0.50
  -6  -3   8    0.60    0.80
   5   3  -8    0.50    0.40
  -5  -3   8    0.60    0.40
  -5  -3   8    0.10    0.50
  -4  -3   8   50.59    1.60
  -3  -3   8  294.47    5.80
  -2  -3   8  248.98    4.90
  -1  -3   8    8.80    0.50
   0  -3   8   49.30    1.20
   0  -3   8   47.90    1.40
   1  -3   8  576.74   10.50
   1  -3   8  589.04   11.00
   2  -3   8 1022.90   18.80
   2  -3   8 1030.80   18.20
   3  -3   8  103.49    2.90
   4  -3   8    3.40    0.70
   5  -3   8   47.70    2.10
   6   2  -8   42.60    2.30
   6   2  -8   46.60    1.80
  -6  -2   8   40.20    2.10
  -5  -2   8    7.10    0.70
  -5  -2   8    8.60    1.10
  -4  -2   8  244.58    5.00
  -3  -2   8  308.97    6.00
  -2  -2   8   95.89    2.10
  -1  -2   8   83.69    1.80
   0  -2   8    2.00    0.30
   0  -2   8    2.20    0.30
   1  -2   8  414.76    8.10
   1  -2   8  424.06    7.70
   2  -2   8  506.75    9.30
   2  -2   8  509.45    9.80
   3  -2   8  230.38    5.00
   3  -2   8  207.68    4.90
   4  -2   8    0.70    0.40
   5  -2   8  153.58    4.20
   6   1  -8    7.20    0.80
  -6  -1   8    8.20    1.10
  -5  -1   8  153.08    3.40
  -4  -1   8   70.19    1.80
  -3  -1   8  827.92   14.80
  -3  -1   8  817.92   14.80
  -2  -1   8  373.16    6.90
  -1  -1   8  329.57    6.10
   0  -1   8    2.40    0.30
   0  -1   8    2.40    0.30
   1  -1   8  742.43   13.70
   1  -1   8  751.52   13.40
   2  -1   8   38.40    1.40
   2  -1   8   36.90    1.10
   3  -1   8  150.98    3.20
   3  -1   8  150.98    3.70
   4  -1   8   62.99    2.20
   5  -1   8    5.10    0.80
   6   0  -8    3.70    0.60
  -5   0   8    1.60    0.40
  -4   0   8    1.50    0.30
  -4   0   8    1.80    0.30
  -3   0   8   41.80    1.10
  -3   0   8   42.20    1.20
  -2   0   8    1.40    0.30
  -2   0   8    1.20    0.20
  -1   0   8   52.99    1.30
   0   0   8    1.30    0.30
   0   0   8    1.90    0.30
   1   0   8  100.59    2.40
   1   0   8   94.89    2.20
   2   0   8   41.70    1.40
   2   0   8   42.90    1.30
   3   0   8   21.30    1.10
   3   0   8   19.60    0.90
   4   0   8   23.80    1.30
   5   0   8    8.90    1.00
   7  -1  -8   27.80    1.50
   6  -1  -8    0.50    0.40
  -4   1   8  117.69    2.60
  -4   1   8  125.09    2.70
   3  -1  -8    9.90    0.40
  -3   1   8    9.50    0.50
  -3   1   8    9.40    0.50
  -2   1   8  152.18    3.00
  -2   1   8  148.59    3.10
  -1   1   8  137.69    2.90
  -1   1   8  133.79    2.80
   0  -1  -8   86.49    1.80
   0   1   8   84.59    2.00
   0   1   8   87.49    2.00
  -1  -1  -8  107.99    2.40
   1   1   8  115.09    2.60
   1   1   8  111.59    2.60
  -2  -1  -8  159.68    3.50
   2   1   8  158.98    3.50
   2   1   8  158.08    3.50
   3   1   8   54.39    1.70
   3   1   8   52.29    1.80
   4   1   8    1.60    0.50
   4   1   8    2.40    0.50
   7  -2  -8    4.20    0.70
   6  -2  -8   27.10    1.30
   5  -2  -8   23.30    1.00
  -5   2   8   21.60    0.90
  -4   2   8  220.28    4.30
  -4   2   8  222.58    4.40
   3  -2  -8   22.40    0.70
  -3   2   8   21.50    0.70
  -3   2   8   21.10    0.80
   2  -2  -8  140.09    2.90
  -2   2   8  138.69    2.90
  -2   2   8  141.09    3.00
   1  -2  -8  125.89    2.50
  -1   2   8  130.69    2.80
  -1   2   8  124.89    2.70
   0  -2  -8  135.89    2.70
   0   2   8  129.19    2.90
   0   2   8  129.59    2.70
  -1  -2  -8   10.80    0.60
   1   2   8    9.80    0.70
  -2  -2  -8   25.00    1.00
   2   2   8   24.30    1.10
  -3  -2  -8   63.29    2.00
   3   2   8   62.39    1.90
  -4  -2  -8  114.89    3.20
   4   2   8  117.09    3.10
   7  -3  -8    0.60    0.50
   6  -3  -8   13.90    1.00
   5  -3  -8    5.80    0.60
  -5   3   8    5.40    0.50
   4  -3  -8   49.90    1.30
  -4   3   8   49.30    1.20
  -4   3   8   49.50    1.40
   3  -3  -8   21.10    0.70
  -3   3   8   20.20    0.70
  -3   3   8   19.80    0.80
   2  -3  -8  838.12   14.90
  -2   3   8  825.72   14.90
  -2   3   8  821.22   14.90
   1  -3  -8 1460.85   25.10
  -1   3   8 1428.76   25.30
  -1   3   8 1397.96   25.40
   0  -3  -8   91.99    2.10
   0   3   8   95.09    2.30
   0   3   8   93.39    2.20
  -1  -3  -8   55.49    1.60
  -2  -3  -8    4.70    0.60
   2   3   8    4.00    0.60
  -3  -3  -8   33.40    1.40
   3   3   8   31.80    1.40
  -4  -3  -8    0.30    0.50
   4   3   8    0.20    0.50
   7  -4  -8    8.00    1.00
   6  -4  -8   17.90    1.10
  -6   4   8   18.60    1.00
   5  -4  -8   29.90    1.20
  -5   4   8   29.60    1.10
   4  -4  -8    1.20    0.30
   4  -4  -8    1.20    0.30
  -4   4   8    0.80    0.30
   3  -4  -8   11.50    0.60
  -3   4   8   11.30    0.60
  -3   4   8   11.10    0.60
   2  -4  -8  280.17    5.30
   2  -4  -8  280.27    5.20
  -2   4   8  274.37    5.40
  -2   4   8  270.07    5.40
   1  -4  -8  492.25    9.00
   1  -4  -8  493.15    9.20
  -1   4   8  497.95    9.30
  -1   4   8  497.75    9.20
   0  -4  -8   71.49    1.80
   0   4   8   69.69    2.00
   0   4   8   71.19    1.80
  -1  -4  -8  139.79    3.20
   1   4   8  146.09    3.40
  -2  -4  -8    9.40    0.80
   2   4   8    9.50    0.80
  -3  -4  -8   74.39    2.30
   3   4   8   72.39    2.30
  -4  -4  -8    6.40    0.90
   4   4   8    5.80    0.80
  -6   5   8  214.68    4.50
   5  -5  -8  127.79    2.90
  -5   5   8  126.79    2.90
   4  -5  -8   11.20    0.70
  -4   5   8   12.80    0.70
   3  -5  -8  140.49    3.00
   3  -5  -8  136.69    2.80
  -3   5   8  140.09    3.10
  -3   5   8  140.09    3.00
   2  -5  -8   19.70    0.80
   2  -5  -8   20.60    0.90
  -2   5   8   21.60    0.90
  -2   5   8   20.10    0.90
   1  -5  -8   60.19    1.50
   1  -5  -8   60.09    1.60
  -1   5   8   59.99    1.70
  -1   5   8   56.89    1.60
   0  -5  -8    1.00    0.30
   0  -5  -8    1.40    0.30
   0   5   8    1.50    0.30
   0   5   8    1.40    0.40
  -1  -5  -8   64.59    1.80
  -1  -5  -8   62.19    1.80
   1   5   8   64.49    2.00
  -2  -5  -8   18.50    1.10
   2   5   8   19.50    1.20
  -3  -5  -8   21.30    1.30
   3   5   8   20.90    1.30
  -6   6   8   22.00    1.10
   5  -6  -8   16.80    0.90
  -5   6   8   15.10    0.80
   4  -6  -8   16.70    0.80
  -4   6   8   17.00    0.80
   3  -6  -8   85.09    1.90
   3  -6  -8   78.29    2.00
  -3   6   8   82.29    2.10
   2  -6  -8    6.30    0.60
   2  -6  -8    5.70    0.50
  -2   6   8    7.20    0.70
  -2   6   8    5.40    0.50
   1  -6  -8    3.00    0.40
   1  -6  -8    3.10    0.40
  -1   6   8    3.00    0.50
  -1   6   8    2.80    0.40
   0  -6  -8   68.39    1.80
   0  -6  -8   64.19    1.80
   0   6   8   67.69    2.10
   0   6   8   65.19    1.80
  -1  -6  -8   23.00    1.10
  -1  -6  -8   21.50    1.00
   1   6   8   23.40    1.20
  -2  -6  -8   20.50    1.00
  -2  -6  -8   20.20    1.20
   2   6   8   20.30    1.30
  -3  -6  -8   17.30    1.30
   3   6   8   15.60    1.30
  -6   7   8    0.00    0.40
   5  -7  -8    0.40    0.40
  -5   7   8   -0.10    0.40
   4  -7  -8   41.40    1.40
  -4   7   8   41.60    1.40
   3  -7  -8    2.30    0.40
   3  -7  -8    1.90    0.40
  -3   7   8    2.20    0.50
   2  -7  -8   33.90    1.20
   2  -7  -8   32.80    1.10
  -2   7   8   32.90    1.20
  -2   7   8   34.60    1.30
   1  -7  -8    2.40    0.40
   1  -7  -8    2.80    0.40
  -1   7   8    2.10    0.40
  -1   7   8    2.60    0.50
   0  -7  -8    1.00    0.40
   0  -7  -8    0.90    0.40
   0   7   8    0.70    0.50
  -1  -7  -8   11.60    0.80
  -1  -7  -8   11.30    0.90
   1   7   8   10.70    1.00
  -2  -7  -8   10.60    1.00
   2   7   8   11.20    1.10
   5  -8  -8   18.80    1.10
  -5   8   8   19.70    1.10
   4  -8  -8    6.40    0.70
  -4   8   8    7.70    0.70
   3  -8  -8    0.40    0.40
   3  -8  -8    1.20    0.40
  -3   8   8    0.70    0.40
   2  -8  -8   10.80    0.70
   2  -8  -8    9.40    0.70
  -2   8   8   11.00    0.90
  -2   8   8   11.70    0.80
   1  -8  -8    2.20    0.40
   1  -8  -8    2.80    0.50
  -1   8   8    2.40    0.50
   0  -8  -8    9.30    0.80
   0  -8  -8    8.90    0.80
   0   8   8    8.90    0.90
  -1  -8  -8   11.00    1.00
  -1  -8  -8   10.10    0.80
   1   8   8    8.40    1.00
   5  -9  -8   13.50    1.10
   4  -9  -8   39.00    1.50
   4  -9  -8   40.10    1.40
  -4   9   8   39.90    1.50
   3  -9  -8   16.00    0.90
   3  -9  -8   16.10    1.00
  -3   9   8   17.10    1.00
   2  -9  -8    4.90    0.60
   2  -9  -8    5.10    0.60
  -2   9   8    5.40    0.60
   1  -9  -8    6.90    0.70
   1  -9  -8    6.30    0.70
  -1   9   8    6.40    0.80
   0  -9  -8    3.60    0.60
   0  -9  -8    4.40    0.60
   0   9   8    3.80    0.80
   2 -10   9   13.70    1.30
   2 -10   9   15.70    1.30
   1   9  -9   37.00    1.60
  -1  -9   9   34.90    2.10
   0   9  -9    4.60    0.60
   1  -9   9   10.10    0.90
   2  -9   9   20.50    1.50
   2  -9   9   21.10    1.30
   3  -9   9    2.60    0.70
   3  -9   9    2.90    0.80
   3   8  -9   23.40    1.40
   2   8  -9   21.80    1.30
  -2  -8   9   22.00    1.70
  -1  -8   9   57.69    2.40
  -1  -8   9   52.49    1.80
   0  -8   9   29.00    1.30
   1  -8   9    8.60    0.90
   1  -8   9    9.00    0.80
   2  -8   9    8.60    1.00
   2  -8   9    9.90    1.00
   3  -8   9    0.80    0.60
   3  -8   9    0.60    0.60
   4  -8   9   79.59    2.90
   4  -8   9   81.69    3.10
   3   7  -9    3.60    0.70
  -3  -7   9    4.80    1.10
  -2  -7   9   17.10    1.50
  -2  -7   9   16.20    1.10
  -1  -7   9   10.80    1.20
  -1  -7   9    8.40    0.80
   0  -7   9   24.20    1.40
   0  -7   9   22.60    1.00
   1  -7   9    0.00    0.30
   1  -7   9   -0.50    0.40
   2  -7   9    6.80    0.80
   2  -7   9    5.60    0.80
   3  -7   9    1.50    0.60
   3  -7   9    0.70    0.60
   4  -7   9   -0.30    0.50
   4  -7   9    0.10    0.60
   4   6  -9   18.10    1.20
  -4  -6   9   17.30    1.70
  -3  -6   9   31.70    1.90
  -3  -6   9   31.70    1.40
  -2  -6   9  120.59    3.00
  -2  -6   9  118.29    3.60
  -1  -6   9    5.60    0.60
  -1  -6   9    6.70    0.90
   0  -6   9   98.89    2.50
   0  -6   9   97.49    2.40
   0  -6   9   97.09    2.80
   1  -6   9   18.90    0.80
   1  -6   9   16.40    1.10
   1  -6   9   16.70    1.00
   2  -6   9    2.00    0.50
   2  -6   9    2.10    0.60
   3  -6   9   17.50    1.20
   3  -6   9   17.20    1.30
   4  -6   9    0.70    0.60
   5  -6   9    0.90    0.70
   5   5  -9   27.60    1.50
  -5  -5   9   30.30    2.20
  -4  -5   9   15.10    1.10
  -4  -5   9   17.60    1.50
  -3  -5   9   15.60    1.30
  -3  -5   9   15.60    1.00
  -2  -5   9   15.80    1.20
  -2  -5   9   16.00    0.90
  -1  -5   9    0.00    0.30
   0  -5   9   54.49    1.50
   0  -5   9   53.29    1.70
   1  -5   9  137.29    2.90
   1  -5   9  135.39    3.30
   2  -5   9  137.39    3.50
   3  -5   9   95.99    2.90
   4  -5   9  137.79    3.90
   5  -5   9   21.80    1.60
   5   4  -9   19.10    1.20
  -5  -4   9   22.10    1.70
  -4  -4   9   42.40    2.10
  -4  -4   9   42.80    1.60
  -3  -4   9    2.30    0.40
  -2  -4   9   56.39    1.60
  -1  -4   9   16.80    0.80
   0  -4   9  240.78    4.70
   0  -4   9  247.98    5.10
   1  -4   9 1009.40   18.00
   1  -4   9 1018.50   18.60
   2  -4   9  178.38    3.50
   2  -4   9  179.78    4.20
   3  -4   9    5.10    0.70
   4  -4   9   24.40    1.50
   5  -4   9    4.10    0.90
  -5  -3   9   22.20    1.60
  -5  -3   9   22.70    1.20
  -4  -3   9   12.30    0.80
  -3  -3   9    4.60    0.50
  -2  -3   9  243.98    4.80
  -1  -3   9   21.20    0.80
   0  -3   9  155.58    3.10
   0  -3   9  151.48    3.40
   1  -3   9   23.10    1.10
   1  -3   9   24.70    0.80
   2  -3   9  176.68    4.10
   2  -3   9  176.38    3.50
   3  -3   9   32.60    1.50
   4  -3   9    0.50    0.40
   5  -3   9   48.10    2.20
   6   2  -9    4.00    0.60
  -6  -2   9    3.60    0.90
  -5  -2   9    4.80    0.60
  -4  -2   9   38.60    1.40
  -3  -2   9  280.27    5.50
  -2  -2   9  151.28    3.10
  -1  -2   9    3.50    0.30
   0  -2   9   20.30    0.70
   0  -2   9   21.80    0.90
   1  -2   9  445.76    8.60
   1  -2   9  440.86    8.10
   2  -2   9  136.49    3.40
   2  -2   9  139.19    2.90
   3  -2   9   47.00    1.80
   4  -2   9    0.30    0.40
   5  -2   9    3.40    0.70
   6   1  -9    0.10    0.40
  -5  -1   9   25.80    1.10
  -4  -1   9  110.39    2.60
  -3  -1   9  142.19    3.00
  -2  -1   9   46.10    1.20
  -1  -1   9   13.10    0.60
   0  -1   9  511.05    9.40
   0  -1   9  516.35    9.60
   1  -1   9  150.18    3.40
   1  -1   9  144.39    3.10
   2  -1   9    0.10    0.30
   2  -1   9    0.20    0.20
   3  -1   9    4.30    0.60
   3  -1   9    4.50    0.50
   4  -1   9   87.49    2.70
   5  -1   9    6.70    1.00
   6   0  -9   12.30    1.00
  -5   0   9    7.70    0.70
  -4   0   9  258.37    5.00
  -4   0   9  250.07    5.00
  -3   0   9   33.20    1.00
  -3   0   9   32.40    1.10
  -2   0   9  156.28    3.30
  -2   0   9  156.08    3.20
  -1   0   9   11.90    0.60
   0   0   9  350.86    6.70
   0   0   9  350.56    6.60
   1   0   9   91.49    2.20
   1   0   9   92.29    2.30
   2   0   9   79.89    2.00
   2   0   9   80.79    2.20
   3   0   9   18.80    0.90
   3   0   9   19.60    1.10
   4   0   9   62.79    2.20
   5   0   9    0.60    0.50
   6  -1  -9   20.00    1.20
  -5   1   9    3.60    0.70
  -4   1   9    0.40    0.30
  -4   1   9    0.30    0.30
   3  -1  -9   70.99    1.60
  -3   1   9   64.49    1.70
  -3   1   9   64.99    1.60
  -2   1   9    6.70    0.50
  -2   1   9    5.90    0.40
  -1   1   9    7.50    0.50
  -1   1   9    7.50    0.50
   0   1   9  403.96    7.50
   0   1   9  395.76    7.50
  -1  -1  -9    6.60    0.50
   1   1   9    6.20    0.60
  -2  -1  -9    4.60    0.50
   2   1   9    4.00    0.50
   2   1   9    4.30    0.60
  -3  -1  -9  190.78    4.30
   3   1   9  188.88    4.20
   3   1   9  190.18    4.50
  -4  -1  -9   98.99    2.90
   4   1   9  101.99    2.90
   6  -2  -9    0.50    0.40
  -5   2   9    4.00    0.50
  -4   2   9   31.80    1.10
  -4   2   9   32.20    1.00
   3  -2  -9    0.90    0.20
  -3   2   9    0.70    0.20
  -3   2   9    1.10    0.30
   2  -2  -9  131.59    2.80
  -2   2   9  131.69    2.90
  -2   2   9  132.99    2.80
  -1   2   9  812.62   14.90
  -1   2   9  824.72   14.80
   0  -2  -9  147.19    3.00
   0   2   9  143.39    3.30
   0   2   9  147.59    3.20
  -1  -2  -9   -0.20    0.20
   1   2   9    0.00    0.30
  -2  -2  -9    2.80    0.50
   2   2   9    2.50    0.50
  -3  -2  -9    3.50    0.60
   3   2   9    3.30    0.60
  -4  -2  -9    0.80    0.50
   4   2   9    1.00    0.50
   6  -3  -9    4.80    0.70
   5  -3  -9  130.49    3.00
  -5   3   9  126.99    2.90
   4  -3  -9   91.59    2.10
  -4   3   9   95.89    2.10
  -4   3   9   93.59    2.30
   3  -3  -9   19.30    0.80
  -3   3   9   18.60    0.80
  -3   3   9   18.60    0.70
   2  -3  -9   42.40    1.20
  -2   3   9   40.60    1.30
  -2   3   9   39.70    1.20
  -1   3   9  874.31   15.80
  -1   3   9  871.11   15.80
   0  -3  -9  238.18    4.60
   0   3   9  231.78    4.80
   0   3   9  239.88    4.90
  -1  -3  -9   16.80    0.80
   1   3   9   16.40    0.90
  -2  -3  -9   26.10    1.20
   2   3   9   24.90    1.20
  -3  -3  -9   62.89    2.10
   3   3   9   68.29    2.20
  -4  -3  -9   44.90    1.90
   4   3   9   41.40    1.80
   6  -4  -9   91.89    2.60
  -6   4   9   88.59    2.40
   5  -4  -9   64.19    1.90
  -5   4   9   60.49    1.80
   4  -4  -9    0.20    0.20
  -4   4   9    0.00    0.30
   3  -4  -9  164.98    3.40
  -3   4   9  162.38    3.50
  -3   4   9  165.08    3.40
   2  -4  -9  640.54   11.60
  -2   4   9  626.34   11.70
  -2   4   9  629.14   11.60
   1  -4  -9  343.17    6.50
   1  -4  -9  326.37    6.20
  -1   4   9  336.77    6.50
  -1   4   9  328.37    6.60
   0  -4  -9    9.30    0.60
   0   4   9    9.10    0.70
   0   4   9    9.30    0.60
  -1  -4  -9    1.20    0.40
   1   4   9    1.00    0.40
  -2  -4  -9   49.60    1.70
   2   4   9   49.70    1.80
  -3  -4  -9    5.90    0.80
   3   4   9    6.90    0.90
  -6   5   9   49.50    1.60
   5  -5  -9   37.80    1.30
  -5   5   9   37.20    1.30
   4  -5  -9   27.90    1.00
  -4   5   9   26.50    1.10
   3  -5  -9    4.10    0.50
  -3   5   9    4.50    0.50
  -3   5   9    4.40    0.50
   2  -5  -9  128.99    2.70
   2  -5  -9  125.99    2.80
  -2   5   9  122.89    2.90
  -2   5   9  128.19    2.90
   1  -5  -9    0.00    0.20
   1  -5  -9    0.30    0.30
  -1   5   9    0.30    0.30
  -1   5   9    0.50    0.30
   0  -5  -9    1.30    0.30
   0  -5  -9    2.10    0.40
   0   5   9    1.80    0.40
   0   5   9    1.50    0.40
  -1  -5  -9    8.20    0.70
  -1  -5  -9    7.60    0.70
   1   5   9    8.20    0.80
  -2  -5  -9  164.68    3.80
   2   5   9  154.68    3.90
  -3  -5  -9   14.80    1.20
   3   5   9   14.60    1.20
  -6   6   9    9.80    0.80
   5  -6  -9   10.60    0.80
  -5   6   9   11.00    0.80
   4  -6  -9  108.19    2.60
  -4   6   9  106.89    2.60
   3  -6  -9    2.50    0.40
  -3   6   9    2.80    0.50
  -3   6   9    2.60    0.40
   2  -6  -9   85.59    2.10
   2  -6  -9   87.39    2.00
  -2   6   9   84.19    2.20
  -2   6   9   86.39    2.30
   1  -6  -9   11.10    0.70
   1  -6  -9   10.60    0.70
  -1   6   9   10.70    0.80
  -1   6   9   10.90    0.70
   0  -6  -9    6.10    0.60
   0  -6  -9    6.80    0.60
   0   6   9    7.30    0.60
   0   6   9    7.80    0.80
  -1  -6  -9   17.50    1.00
  -1  -6  -9   18.10    1.00
   1   6   9   16.40    1.10
  -2  -6  -9    1.20    0.40
  -2  -6  -9    1.70    0.60
   2   6   9    1.80    0.60
  -6   7   9    1.10    0.50
   5  -7  -9    3.40    0.50
  -5   7   9    4.00    0.60
   4  -7  -9   17.60    1.00
  -4   7   9   17.70    1.00
   3  -7  -9    1.40    0.40
   3  -7  -9    1.40    0.30
  -3   7   9    1.40    0.40
   2  -7  -9   39.90    1.40
   2  -7  -9   40.10    1.30
  -2   7   9   40.60    1.40
  -2   7   9   39.80    1.50
   1  -7  -9    5.80    0.60
   1  -7  -9    5.20    0.60
  -1   7   9    5.60    0.70
  -1   7   9    5.60    0.60
   0  -7  -9   13.70    0.90
   0  -7  -9   15.10    0.90
   0   7   9   13.20    1.10
  -1  -7  -9   41.90    1.60
  -1  -7  -9   43.00    1.50
   1   7   9   43.90    1.90
   5  -8  -9   67.09    2.10
  -5   8   9   69.99    2.10
   4  -8  -9   76.59    2.20
  -4   8   9   79.89    2.20
   3  -8  -9   30.60    1.30
   3  -8  -9   29.30    1.10
  -3   8   9   29.70    1.20
   2  -8  -9   13.20    0.90
   2  -8  -9   13.30    0.80
  -2   8   9   12.00    0.80
  -2   8   9   11.20    0.90
   1  -8  -9   18.30    1.00
   1  -8  -9   18.40    1.00
  -1   8   9   18.50    1.20
   0  -8  -9    5.70    0.60
   0  -8  -9    4.60    0.60
   0   8   9    6.80    0.90
   4  -9  -9   27.50    1.30
  -4   9   9   28.10    1.30
   3  -9  -9   19.00    1.10
   3  -9  -9   18.20    1.00
  -3   9   9   17.80    1.10
   2  -9  -9    0.40    0.40
   2  -9  -9    0.00    0.40
  -2   9   9    0.30    0.40
   1  -9  -9   13.70    1.00
   1  -9  -9   13.40    0.90
  -1   9   9   12.40    1.20
   1   9 -10   10.80    1.00
  -1  -9  10   10.30    1.40
   2  -9  10    1.80    0.60
   2  -9  10    0.60    0.70
   2   8 -10   22.90    1.30
  -2  -8  10   23.20    1.80
  -1  -8  10    0.10    0.40
  -1  -8  10    0.10    0.60
   0  -8  10   -0.20    0.40
   1  -8  10   25.20    1.50
   1  -8  10   26.20    1.30
   2  -8  10   72.79    2.40
   2  -8  10   69.79    2.60
   3  -8  10    8.20    1.10
   3  -8  10    7.40    1.00
   3   7 -10   14.20    1.10
  -3  -7  10   16.10    1.20
  -3  -7  10   13.60    1.50
  -2  -7  10   12.10    1.00
  -2  -7  10   12.60    1.40
  -1  -7  10   29.10    1.30
  -1  -7  10   29.00    1.70
   0  -7  10   59.99    1.80
   0  -7  10   54.29    2.80
   1  -7  10   14.70    1.00
   1  -7  10   14.60    1.10
   2  -7  10   12.70    1.10
   2  -7  10   13.10    1.20
   3  -7  10    7.20    1.00
   3  -7  10    7.70    1.00
   4  -7  10   -0.30    0.50
   4   6 -10    2.50    0.60
  -4  -6  10    2.40    0.90
  -3  -6  10    4.20    0.90
  -3  -6  10    4.10    0.60
  -2  -6  10   46.60    1.60
  -2  -6  10   45.20    2.10
  -1  -6  10   35.80    1.40
  -1  -6  10   38.60    1.80
   0  -6  10    9.90    1.00
   0  -6  10    8.80    0.70
   1  -6  10    4.60    0.60
   1  -6  10    4.70    0.50
   2  -6  10   15.40    1.10
   3  -6  10  108.59    3.20
   4  -6  10   42.00    2.00
  -4  -5  10    0.40    0.50
  -4  -5  10    0.30    0.60
  -3  -5  10   24.30    1.60
  -3  -5  10   28.00    1.30
  -2  -5  10   10.40    0.80
  -1  -5  10  485.35    9.20
   0  -5  10  280.57    5.50
   0  -5  10  280.17    5.80
   1  -5  10    1.00    0.30
   1  -5  10    1.00    0.50
   2  -5  10   63.29    2.20
   3  -5  10   25.10    1.40
   4  -5  10    2.40    0.70
  -5  -4  10   82.39    3.30
  -5  -4  10   84.39    2.60
  -4  -4  10    3.90    0.90
  -4  -4  10    4.60    0.70
  -3  -4  10   70.89    2.00
  -2  -4  10    0.40    0.30
  -1  -4  10   29.80    1.10
   0  -4  10  148.39    3.10
   0  -4  10  150.28    3.40
   1  -4  10  330.07    6.20
   1  -4  10  333.17    6.80
   2  -4  10    4.80    0.40
   2  -4  10    3.60    0.60
   3  -4  10  229.18    5.40
   4  -4  10   27.90    1.60
   5  -4  10   10.30    1.20
  -5  -3  10   53.19    2.50
  -5  -3  10   55.99    1.90
  -4  -3  10  135.99    3.30
  -3  -3  10   19.90    0.90
  -2  -3  10  199.68    4.10
  -1  -3  10   45.10    1.30
   0  -3  10   84.09    1.90
   0  -3  10   81.39    2.20
   1  -3  10  209.68    4.60
   1  -3  10  210.18    4.10
   2  -3  10   17.40    0.70
   2  -3  10   19.00    1.10
   3  -3  10    1.20    0.50
   4  -3  10   14.50    1.20
   5  -3  10    0.00    0.60
  -6  -2  10   19.10    1.20
  -6  -2  10   19.30    1.70
  -5  -2  10   38.60    1.50
  -4  -2  10    4.30    0.60
  -3  -2  10   79.69    2.00
  -2  -2  10   59.89    1.60
  -1  -2  10   14.40    0.60
   0  -2  10    8.60    0.50
   0  -2  10    8.30    0.60
   1  -2  10   20.40    1.00
   1  -2  10   19.80    0.80
   2  -2  10   45.80    1.70
   2  -2  10   44.80    1.30
   3  -2  10    9.30    0.90
   4  -2  10   24.60    1.50
   5  -2  10   56.29    2.40
  -5  -1  10    4.80    0.60
  -4  -1  10   37.90    1.30
  -3  -1  10   12.10    0.70
  -2  -1  10   38.00    1.10
  -1  -1  10    6.60    0.50
   0  -1  10   23.20    1.00
   0  -1  10   25.40    0.90
   1  -1  10   19.50    1.00
   1  -1  10   18.10    0.80
   2  -1  10   70.89    1.90
   2  -1  10   74.69    2.20
   3  -1  10    7.90    0.80
   3  -1  10    7.00    0.60
   4  -1  10    6.60    0.90
  -5   0  10   90.09    2.30
  -4   0  10   43.90    1.40
  -4   0  10   45.00    1.40
  -3   0  10   41.50    1.20
  -3   0  10   40.50    1.30
  -2   0  10   15.40    0.70
  -1   0  10  372.06    7.00
   0   0  10   48.00    1.40
   0   0  10   49.30    1.40
   1   0  10  346.47    6.80
   1   0  10  339.37    6.60
   2   0  10   30.00    1.10
   2   0  10   30.90    1.30
   3   0  10   29.80    1.20
   3   0  10   30.50    1.40
   4   0  10    0.50    0.40
   6  -1 -10    5.30    0.70
  -5   1  10   36.40    1.30
  -4   1  10  208.28    4.40
  -4   1  10  218.18    4.30
   3  -1 -10 1025.70   17.80
  -3   1  10  975.40   18.00
  -3   1  10  998.30   17.80
  -2   1  10   68.09    1.70
  -2   1  10   68.49    1.80
  -1   1  10   46.20    1.30
   0   1  10    2.50    0.40
   0   1  10    2.10    0.40
   1   1  10   13.00    0.80
   1   1  10   11.90    0.80
  -2  -1 -10    3.90    0.50
   2   1  10    3.10    0.60
   2   1  10    3.00    0.50
  -3  -1 -10    6.20    0.70
   3   1  10    5.70    0.70
  -4  -1 -10   13.00    1.20
   6  -2 -10    0.10    0.40
  -5   2  10   22.70    1.00
  -4   2  10    0.10    0.20
  -4   2  10   -0.20    0.30
   3  -2 -10    1.50    0.30
  -3   2  10    0.80    0.30
  -3   2  10    1.20    0.30
  -2   2  10  180.08    3.70
  -2   2  10  179.88    3.80
  -1   2  10   11.30    0.70
  -1   2  10   12.90    0.70
   0   2  10   70.89    1.90
  -1  -2 -10   57.89    1.60
   1   2  10   59.49    1.80
  -2  -2 -10   85.39    2.30
   2   2  10   80.29    2.30
  -3  -2 -10  110.49    2.90
   3   2  10  102.49    2.80
  -4  -2 -10   16.50    1.30
   4   2  10   15.70    1.20
   6  -3 -10    1.00    0.50
   5  -3 -10   36.60    1.40
  -5   3  10   35.30    1.30
   4  -3 -10   39.00    1.10
  -4   3  10   36.60    1.30
  -4   3  10   38.10    1.10
   3  -3 -10  124.49    2.70
  -3   3  10  127.49    2.70
  -3   3  10  120.79    2.90
   2  -3 -10  431.66    8.10
  -2   3  10  430.36    8.10
  -2   3  10  426.96    8.20
  -1   3  10  139.89    3.20
  -1   3  10  149.59    3.30
   0   3  10   35.10    1.30
  -1  -3 -10   63.89    1.80
   1   3  10   64.79    2.00
  -2  -3 -10    2.90    0.50
   2   3  10    3.20    0.60
  -3  -3 -10   45.90    1.80
   3   3  10   44.70    1.80
   6  -4 -10    3.40    0.60
  -6   4  10    3.70    0.60
  -5   4  10   51.89    1.70
   4  -4 -10   25.80    0.90
  -4   4  10   25.20    1.00
   3  -4 -10    0.30    0.30
  -3   4  10   -0.10    0.30
  -3   4  10    0.40    0.30
   2  -4 -10   74.59    1.90
  -2   4  10   72.29    2.00
  -2   4  10   76.29    2.00
   1  -4 -10   10.40    0.70
  -1   4  10   11.00    0.70
  -1   4  10   11.40    0.80
   0  -4 -10   28.70    1.00
   0   4  10   30.00    1.30
  -1  -4 -10    0.30    0.30
   1   4  10    0.40    0.40
  -2  -4 -10   27.90    1.30
   2   4  10   28.90    1.40
  -3  -4 -10   48.30    1.90
   3   4  10   49.20    2.00
  -6   5  10   17.20    1.00
  -5   5  10    5.40    0.60
   4  -5 -10    9.40    0.70
  -4   5  10    9.50    0.70
   3  -5 -10   16.50    0.80
  -3   5  10   16.40    0.80
  -3   5  10   16.60    0.90
   2  -5 -10   29.90    1.10
  -2   5  10   29.50    1.20
  -2   5  10   28.70    1.20
   1  -5 -10    3.20    0.50
  -1   5  10    3.60    0.50
  -1   5  10    4.30    0.60
   0  -5 -10   -0.30    0.30
   0  -5 -10    0.10    0.30
   0   5  10   -0.40    0.30
   0   5  10    0.20    0.30
  -1  -5 -10   78.99    2.20
  -1  -5 -10   73.49    2.10
   1   5  10   79.09    2.40
  -2  -5 -10    1.20    0.50
   2   5  10    1.10    0.60
  -6   6  10   18.00    1.10
   5  -6 -10    0.90    0.40
  -5   6  10    0.90    0.40
   4  -6 -10    0.50    0.30
  -4   6  10    0.30    0.40
   3  -6 -10    8.90    0.70
  -3   6  10    9.30    0.70
  -3   6  10    9.30    0.70
   2  -6 -10   43.60    1.40
  -2   6  10   40.60    1.50
  -2   6  10   42.80    1.50
   1  -6 -10   67.09    1.90
   1  -6 -10   61.99    1.70
  -1   6  10   66.49    1.90
  -1   6  10   66.59    2.10
   0  -6 -10   57.89    1.80
   0  -6 -10   52.69    1.60
   0   6  10   57.59    2.00
   0   6  10   58.49    2.00
  -1  -6 -10   86.09    2.40
  -1  -6 -10   84.79    2.30
   1   6  10   82.69    2.60
  -2  -6 -10    3.60    0.70
  -2  -6 -10    3.60    0.60
   2   6  10    3.30    0.70
   5  -7 -10   15.70    1.00
  -5   7  10   16.60    1.00
   4  -7 -10    9.80    0.80
  -4   7  10    9.70    0.80
   3  -7 -10   32.10    1.30
  -3   7  10   31.20    1.30
   2  -7 -10    1.90    0.40
  -2   7  10    1.70    0.40
  -2   7  10    2.10    0.50
   1  -7 -10    5.30    0.60
   1  -7 -10    5.80    0.60
  -1   7  10    4.80    0.60
  -1   7  10    4.40    0.70
   0  -7 -10    3.70    0.50
   0  -7 -10    2.90    0.50
   0   7  10    3.40    0.70
  -1  -7 -10    3.00    0.60
  -1  -7 -10    2.40    0.50
   1   7  10    3.80    0.80
   4  -8 -10    8.30    0.90
  -4   8  10    7.30    0.80
   3  -8 -10   31.80    1.30
  -3   8  10   35.00    1.40
   2  -8 -10   15.80    0.90
   2  -8 -10   16.60    1.00
  -2   8  10   17.20    1.00
  -2   8  10   15.10    1.10
   1  -8 -10    0.10    0.40
   1  -8 -10    0.10    0.40
  -1   8  10    0.40    0.50
   0  -8 -10    9.40    0.80
   0  -8 -10    9.80    0.90
   0   8  10   10.60    1.10
  -2  -8  11    6.60    0.90
  -2  -8  11    6.10    1.20
  -1  -8  11    5.00    1.00
  -1  -8  11    4.20    0.70
   0  -8  11    3.40    0.60
   1  -8  11   11.30    1.00
   2  -8  11   79.69    2.70
   3  -8  11    5.60    1.00
  -3  -7  11   34.40    1.70
  -3  -7  11   33.70    2.20
  -2  -7  11    8.50    0.90
  -2  -7  11    7.90    1.20
  -1  -7  11    1.60    0.50
  -1  -7  11    1.50    0.70
   0  -7  11    6.00    0.70
   1  -7  11    1.30    0.50
   2  -7  11    1.60    0.60
   3  -7  11   30.40    1.70
  -3  -6  11    0.40    0.50
  -3  -6  11    0.10    0.60
  -2  -6  11   35.10    2.00
  -2  -6  11   36.90    1.50
  -1  -6  11   35.60    1.40
  -1  -6  11   34.90    1.80
   0  -6  11   77.39    3.20
   0  -6  11   77.89    2.10
   1  -6  11    9.90    0.70
   1  -6  11   10.30    0.90
   2  -6  11   10.00    1.00
   3  -6  11    7.40    1.00
   4  -6  11   25.90    1.70
  -4  -5  11    7.60    1.30
  -4  -5  11    6.70    0.80
  -3  -5  11   14.70    1.40
  -3  -5  11   14.80    1.00
  -2  -5  11   18.90    1.00
  -1  -5  11   99.59    2.50
   0  -5  11   60.49    1.90
   0  -5  11   62.19    1.70
   1  -5  11  170.28    4.10
   1  -5  11  173.08    3.60
   2  -5  11   29.20    1.50
   3  -5  11   92.79    3.00
   4  -5  11   19.50    1.50
  -5  -4  11    2.50    0.60
  -5  -4  11    2.40    1.00
  -4  -4  11   -0.10    0.40
  -3  -4  11    1.20    0.40
  -2  -4  11  109.59    2.70
  -1  -4  11  190.38    4.00
   0  -4  11   66.99    2.00
   0  -4  11   64.19    1.70
   1  -4  11    2.30    0.40
   1  -4  11    1.80    0.50
   2  -4  11   36.10    1.60
   3  -4  11    0.30    0.50
   4  -4  11   -0.10    0.50
  -5  -3  11   15.60    1.10
  -4  -3  11   25.10    1.20
  -3  -3  11   -0.20    0.30
  -2  -3  11  200.18    4.20
  -1  -3  11   40.90    1.20
   0  -3  11   22.40    0.90
   0  -3  11   22.20    1.10
   1  -3  11    0.90    0.40
   1  -3  11    0.20    0.30
   2  -3  11   30.50    1.40
   2  -3  11   28.90    1.00
   3  -3  11   34.40    1.70
   4  -3  11   12.20    1.20
  -5  -2  11   34.00    1.50
  -4  -2  11   36.00    1.40
  -3  -2  11    0.00    0.30
  -2  -2  11    8.10    0.60
  -1  -2  11  217.58    4.30
   0  -2  11   73.39    1.80
   0  -2  11   71.79    2.00
   1  -2  11    2.10    0.40
   1  -2  11    2.60    0.50
   2  -2  11   17.10    0.80
   2  -2  11   14.20    1.00
   3  -2  11    4.70    0.70
   4  -2  11   34.40    1.80
  -5  -1  11    0.50    0.40
  -4  -1  11    0.40    0.30
  -3  -1  11    7.50    0.60
  -2  -1  11   13.50    0.70
  -1  -1  11   83.99    2.00
   0  -1  11  110.29    2.50
   0  -1  11  109.29    2.60
   1  -1  11  233.88    5.00
   1  -1  11  236.18    4.70
   2  -1  11  175.58    4.10
   2  -1  11  173.98    3.80
   3  -1  11    0.20    0.30
   3  -1  11    0.70    0.50
   4  -1  11    2.30    0.60
  -5   0  11    2.30    0.50
  -4   0  11   28.40    1.10
  -4   0  11   29.10    1.10
  -3   0  11  301.87    5.80
  -2   0  11   19.20    0.80
  -1   0  11   62.09    1.60
   0   0  11   58.99    1.60
   0   0  11   59.29    1.70
   1   0  11   89.99    2.40
   1   0  11   94.29    2.30
   2   0  11    8.70    0.70
   2   0  11    8.30    0.80
   3   0  11   58.49    1.80
   3   0  11   55.89    2.00
  -5   1  11   47.00    1.50
  -4   1  11   54.79    1.50
  -4   1  11   52.59    1.70
   3  -1 -11    0.70    0.30
  -3   1  11    0.60    0.40
  -3   1  11    1.10    0.30
  -2   1  11  216.58    4.60
  -2   1  11  223.68    4.40
  -1   1  11   18.50    0.80
   0   1  11  613.04   11.30
   0   1  11  613.24   11.40
   1   1  11   42.70    1.40
   2   1  11    2.10    0.50
  -3  -1 -11   15.10    1.10
   3   1  11   14.80    1.00
  -4  -1 -11   27.00    1.50
   6  -2 -11    0.20    0.40
  -5   2  11   26.40    1.20
  -4   2  11  234.58    5.00
  -4   2  11  237.08    4.70
   3  -2 -11  173.88    3.60
  -3   2  11  168.98    3.80
  -3   2  11  173.58    3.60
  -2   2  11   11.70    0.80
  -2   2  11   11.70    0.70
  -1   2  11  210.18    4.40
   0   2  11   13.40    0.80
   1   2  11    3.50    0.50
  -2  -2 -11   21.70    1.10
   2   2  11   21.20    1.20
  -3  -2 -11   31.30    1.50
   3   2  11   29.90    1.40
   6  -3 -11   28.30    1.40
  -5   3  11   32.20    1.30
  -4   3  11   10.10    0.60
  -4   3  11    9.70    0.70
   3  -3 -11   77.79    1.90
  -3   3  11   77.29    1.90
  -3   3  11   71.69    2.10
   2  -3 -11  134.39    3.00
  -2   3  11  130.09    3.10
  -2   3  11  135.49    3.00
  -1   3  11    5.90    0.60
  -1   3  11    8.00    0.70
   0   3  11  215.58    4.60
   1   3  11   21.80    1.20
  -2  -3 -11    3.70    0.60
   2   3  11    2.80    0.60
  -3  -3 -11    8.70    0.90
   3   3  11    9.10    1.00
  -6   4  11   12.70    0.90
  -5   4  11   11.00    0.90
   4  -4 -11    8.30    0.60
  -4   4  11    9.10    0.70
  -4   4  11    8.40    0.70
   3  -4 -11    3.60    0.40
  -3   4  11    4.20    0.60
  -3   4  11    3.90    0.50
   2  -4 -11    7.80    0.60
  -2   4  11    8.00    0.70
  -2   4  11    8.10    0.70
   1  -4 -11    1.10    0.40
  -1   4  11    0.90    0.40
  -1   4  11    0.50    0.40
   0   4  11   12.20    0.90
  -1  -4 -11   25.60    1.10
   1   4  11   24.60    1.30
  -2  -4 -11    0.90    0.40
   2   4  11    0.70    0.50
  -6   5  11    0.60    0.50
  -5   5  11    5.20    0.70
   4  -5 -11    0.40    0.30
  -4   5  11    0.30    0.40
   3  -5 -11    8.50    0.70
  -3   5  11    8.50    0.70
  -3   5  11    9.00    0.70
   2  -5 -11   98.99    2.40
  -2   5  11   94.49    2.50
  -2   5  11   95.79    2.50
   1  -5 -11  159.78    3.60
  -1   5  11  150.38    3.60
  -1   5  11  156.48    3.70
   0  -5 -11    8.20    0.80
   0   5  11   10.10    0.90
  -1  -5 -11   10.50    0.90
   1   5  11    9.20    0.90
  -2  -5 -11    4.30    0.70
   2   5  11    2.20    0.70
   5  -6 -11    0.50    0.40
  -5   6  11    0.60    0.40
   4  -6 -11   67.39    1.90
  -4   6  11   67.29    2.10
   3  -6 -11    4.40    0.50
  -3   6  11    4.70    0.60
  -3   6  11    4.60    0.60
   2  -6 -11   24.30    1.10
  -2   6  11   23.60    1.20
  -2   6  11   24.30    1.20
   1  -6 -11   32.70    1.30
  -1   6  11   34.60    1.40
  -1   6  11   33.90    1.50
   0  -6 -11   59.19    1.80
   0  -6 -11   54.49    1.80
   0   6  11   57.79    2.10
  -1  -6 -11   14.50    1.00
  -1  -6 -11   15.70    1.00
   1   6  11   15.10    1.20
   5  -7 -11    7.70    0.80
  -5   7  11    6.80    0.90
   4  -7 -11   22.60    1.10
  -4   7  11   23.60    1.20
   3  -7 -11   18.50    1.00
  -3   7  11   18.80    1.10
   2  -7 -11   73.79    2.10
  -2   7  11   75.49    2.30
  -2   7  11   73.99    2.20
   1  -7 -11   24.30    1.20
  -1   7  11   24.70    1.40
  -1   7  11   24.90    1.20
   0  -7 -11    2.70    0.50
   0  -7 -11    1.90    0.50
   0   7  11    0.90    0.60
   4  -8 -11    0.00    0.40
  -4   8  11    0.20    0.70
   3  -8 -11    7.40    0.80
  -3   8  11    9.20    0.90
   2  -8 -11    1.00    0.50
  -2   8  11    0.20    0.50
  -2   8  11    0.50    0.50
   1  -8 -11    0.90    0.50
  -1   8  11    0.10    0.50
  -1  -8  12   20.00    1.30
  -1  -8  12   22.40    1.90
   0  -8  12   74.69    2.30
   1  -8  12    3.60    0.70
   2  -8  12    3.50    0.80
  -2  -7  12    9.10    1.30
  -2  -7  12    8.60    0.90
  -1  -7  12   11.00    0.90
  -1  -7  12   10.30    1.30
   0  -7  12   18.10    1.00
   1  -7  12   13.80    1.10
   2  -7  12    3.40    0.80
   3  -7  12   17.10    1.50
  -3  -6  12   16.40    1.20
  -3  -6  12   15.90    1.60
  -2  -6  12   28.90    1.90
  -2  -6  12   30.10    1.40
  -1  -6  12   -0.20    0.50
  -1  -6  12   -0.20    0.30
   0  -6  12   71.29    2.00
   1  -6  12   11.80    0.90
   1  -6  12   15.00    1.10
   2  -6  12    9.30    1.00
   3  -6  12    2.90    0.80
  -4  -5  12   20.90    1.30
  -4  -5  12   17.10    1.70
  -3  -5  12    4.90    0.70
  -2  -5  12    1.40    0.50
  -1  -5  12   54.99    1.70
   0  -5  12    2.80    0.50
   0  -5  12    1.60    0.40
   1  -5  12   29.70    1.10
   1  -5  12   30.70    1.50
   2  -5  12    3.50    0.70
   3  -5  12    0.10    0.50
  -4  -4  12   14.50    1.10
  -3  -4  12   51.39    1.80
  -2  -4  12    0.50    0.30
  -1  -4  12    1.70    0.40
   0  -4  12  117.59    2.70
   0  -4  12  116.89    3.00
   1  -4  12   20.40    1.20
   1  -4  12   18.50    0.80
   2  -4  12   21.90    1.30
   3  -4  12    0.30    0.50
   4  -4  12   18.50    1.50
  -5  -3  12    2.60    0.60
  -4  -3  12    1.70    0.50
  -3  -3  12    2.60    0.50
  -2  -3  12   47.60    1.50
  -1  -3  12   58.29    1.60
   0  -3  12   17.90    1.00
   0  -3  12   15.90    0.80
   1  -3  12  107.69    2.90
   1  -3  12  107.39    2.50
   2  -3  12    8.50    0.60
   2  -3  12    7.00    0.80
   3  -3  12   -0.50    0.40
   4  -3  12    5.50    0.90
  -5  -2  12    0.40    0.40
  -4  -2  12   10.70    0.80
  -3  -2  12  193.88    4.10
  -2  -2  12   25.20    1.00
  -1  -2  12  244.88    4.90
   0  -2  12  132.39    2.90
   0  -2  12  128.09    3.10
   1  -2  12    0.40    0.40
   1  -2  12    0.90    0.30
   2  -2  12   -0.10    0.40
   2  -2  12    0.00    0.30
   3  -2  12    0.70    0.50
   4  -2  12   -0.50    0.50
  -5  -1  12    0.20    0.40
  -4  -1  12    9.20    0.80
  -3  -1  12   13.50    0.80
  -2  -1  12  191.58    4.00
  -1  -1  12  147.39    3.20
   0  -1  12   15.50    0.90
   0  -1  12   13.90    0.80
   1  -1  12    2.40    0.50
   1  -1  12    2.20    0.40
   2  -1  12    0.70    0.30
   2  -1  12    1.50    0.50
   3  -1  12   43.30    1.80
   4  -1  12    0.80    0.60
  -5   0  12   32.60    1.30
  -4   0  12    0.80    0.30
  -3   0  12    3.60    0.40
  -2   0  12    0.10    0.30
  -1   0  12   24.10    1.00
   0   0  12   17.00    0.90
   0   0  12   17.20    0.90
   1   0  12   17.90    1.00
   1   0  12   20.10    1.00
   2   0  12    5.60    0.70
   2   0  12    5.70    0.60
   3   0  12   16.70    1.00
  -5   1  12    2.40    0.50
  -4   1  12  122.79    2.80
  -4   1  12  121.89    3.00
  -3   1  12   28.60    1.00
  -3   1  12   27.30    1.20
  -2   1  12    4.10    0.50
  -1   1  12    0.10    0.30
   0   1  12    9.20    0.70
   0   1  12    8.10    0.90
   1   1  12   10.10    0.80
   2   1  12    1.10    0.40
   3   1  12    0.60    0.50
   6  -2 -12   23.60    1.30
  -5   2  12   37.20    1.40
  -4   2  12   10.70    0.70
  -4   2  12   10.60    0.80
   3  -2 -12    0.80    0.30
  -3   2  12    0.80    0.30
  -3   2  12    0.60    0.40
  -2   2  12   22.50    1.00
  -2   2  12   23.40    1.00
  -1   2  12   72.29    2.00
   0   2  12   61.29    1.90
   1   2  12    0.90    0.40
   2   2  12    2.60    0.60
   3   2  12   13.70    1.10
   6  -3 -12    0.60    0.50
  -5   3  12   13.30    0.90
  -4   3  12    1.90    0.40
  -4   3  12    2.20    0.50
   3  -3 -12    1.50    0.40
  -3   3  12    1.40    0.40
  -3   3  12    1.60    0.40
   2  -3 -12   13.00    0.80
  -2   3  12   13.10    0.80
  -2   3  12   11.20    0.80
  -1   3  12    5.10    0.60
   0   3  12    2.30    0.50
   1   3  12    2.40    0.50
   2   3  12   47.70    1.90
  -5   4  12    9.40    0.90
   4  -4 -12    4.70    0.50
  -4   4  12    5.20    0.70
  -4   4  12    4.90    0.50
   3  -4 -12    8.80    0.70
  -3   4  12    9.50    0.80
  -3   4  12    8.80    0.70
   2  -4 -12   34.40    1.30
  -2   4  12   31.80    1.30
  -2   4  12   34.60    1.30
   1  -4 -12   94.29    2.50
  -1   4  12   89.59    2.50
  -1   4  12   94.39    2.50
   0   4  12    1.20    0.50
   1   4  12   40.90    1.70
   2   4  12   -0.10    0.50
  -5   5  12   -0.10    0.40
   4  -5 -12   76.99    2.00
  -4   5  12   74.59    2.30
   3  -5 -12   15.40    0.90
  -3   5  12   18.10    1.00
  -3   5  12   17.60    1.00
   2  -5 -12   24.10    1.10
  -2   5  12   24.90    1.20
  -2   5  12   23.40    1.20
   1  -5 -12    0.20    0.40
  -1   5  12    0.10    0.40
  -1   5  12    0.10    0.40
   0  -5 -12   33.70    1.40
   0   5  12   36.00    1.60
  -1  -5 -12   54.29    1.90
   1   5  12   49.70    2.00
  -5   6  12    1.40    0.50
   4  -6 -12    0.40    0.40
  -4   6  12    0.20    0.40
   3  -6 -12    5.20    0.60
  -3   6  12    5.20    0.60
  -3   6  12    4.90    0.70
   2  -6 -12   30.10    1.30
  -2   6  12   30.40    1.40
  -2   6  12   32.30    1.40
   1  -6 -12    6.80    0.70
  -1   6  12    7.10    0.80
  -1   6  12    6.40    0.80
   0  -6 -12    5.60    0.70
   0   6  12    6.10    0.80
   4  -7 -12    0.70    0.40
  -4   7  12   -0.80    0.40
   3  -7 -12    7.70    0.80
  -3   7  12    8.50    0.90
   2  -7 -12   55.69    1.80
  -2   7  12   56.59    2.00
  -2   7  12   54.89    1.90
   1  -7 -12    0.10    0.40
  -1   7  12    0.60    0.40
  -1   7  12   -0.20    0.50
  -1  -7  13   41.40    1.70
  -1  -7  13   39.50    2.20
   0  -7  13    6.00    0.70
   1  -7  13    0.10    0.50
   2  -7  13    0.10    0.50
  -3  -6  13    3.00    0.70
  -2  -6  13    0.00    0.70
  -2  -6  13    0.10    0.40
  -1  -6  13    0.10    0.40
   0  -6  13   -0.10    0.40
   1  -6  13   24.20    1.40
   2  -6  13   27.80    1.60
  -3  -5  13   55.79    2.00
  -2  -5  13    9.90    0.90
  -1  -5  13   13.30    0.90
   0  -5  13    4.10    0.50
   1  -5  13    2.60    0.60
   1  -5  13    2.00    0.40
   2  -5  13    4.40    0.80
   3  -5  13    7.40    1.00
  -4  -4  13    4.90    0.70
  -3  -4  13    3.60    0.60
  -2  -4  13    0.00    0.30
  -1  -4  13   24.40    1.10
   0  -4  13    6.70    0.60
   0  -4  13    6.50    0.70
   1  -4  13    0.70    0.30
   1  -4  13   -0.40    0.40
   2  -4  13   50.79    2.00
   3  -4  13    4.90    0.90
  -4  -3  13   11.70    1.00
  -3  -3  13  115.59    2.90
  -2  -3  13   26.10    1.10
  -1  -3  13   22.90    1.00
   0  -3  13   17.20    0.90
   0  -3  13   17.50    1.00
   1  -3  13    5.90    0.70
   1  -3  13    6.90    0.60
   2  -3  13    3.20    0.50
   2  -3  13    3.00    0.60
   3  -3  13   22.70    1.50
  -5  -2  13    1.30    0.50
  -4  -2  13    4.00    0.60
  -3  -2  13   25.90    1.10
  -2  -2  13  150.48    3.30
  -1  -2  13   85.69    2.20
   0  -2  13  145.49    3.20
   0  -2  13  146.09    3.40
   1  -2  13  167.58    4.00
   1  -2  13  169.78    3.60
   2  -2  13    1.10    0.40
   2  -2  13    1.00    0.50
   3  -2  13   31.00    1.60
  -5  -1  13    0.20    0.40
  -4  -1  13   36.60    1.40
  -3  -1  13   31.80    1.20
  -2  -1  13   14.50    0.80
  -1  -1  13   22.20    1.00
   0  -1  13    0.70    0.40
   0  -1  13    0.10    0.30
   1  -1  13   11.90    0.90
   1  -1  13   10.70    0.80
   2  -1  13   28.40    1.20
   2  -1  13   29.60    1.40
   3  -1  13    0.70    0.50
  -5   0  13    2.00    0.50
  -4   0  13   34.30    1.30
  -3   0  13    0.50    0.30
  -2   0  13   27.20    1.10
  -1   0  13  129.29    3.00
   0   0  13   53.49    1.60
   0   0  13   54.39    1.70
   1   0  13   36.50    1.40
   1   0  13   36.30    1.40
   2   0  13    1.10    0.40
   3   0  13   -0.30    0.40
  -5   1  13    2.10    0.50
  -4   1  13    4.50    0.60
  -4   1  13    3.90    0.50
  -3   1  13    6.10    0.60
  -1   1  13   13.70    0.80
   0   1  13   38.40    1.40
   1   1  13   49.80    1.70
   2   1  13    3.70    0.60
   3   1  13    1.10    0.50
  -5   2  13    1.40    0.50
  -4   2  13    3.20    0.50
  -4   2  13    5.30    0.70
   3  -2 -13    0.90    0.30
  -3   2  13    0.40    0.30
  -3   2  13    0.20    0.30
  -2   2  13    4.90    0.60
  -1   2  13    1.90    0.40
   0   2  13    0.10    0.40
   1   2  13   30.30    1.40
   2   2  13   38.50    1.60
  -5   3  13   22.50    1.30
  -4   3  13   29.70    1.20
  -4   3  13   30.60    1.40
   3  -3 -13    2.70    0.50
  -3   3  13    3.00    0.60
  -3   3  13    4.10    0.50
   2  -3 -13    1.90    0.40
  -2   3  13    2.10    0.50
  -2   3  13    2.60    0.50
  -1   3  13   27.40    1.20
   0   3  13    0.40    0.40
   1   3  13   38.00    1.60
   2   3  13    6.60    0.80
  -5   4  13   39.10    1.60
   4  -4 -13   14.20    0.80
  -4   4  13   14.10    0.90
  -4   4  13   13.30    1.00
   3  -4 -13   13.20    0.90
  -3   4  13   14.30    1.00
  -3   4  13   13.50    0.90
   2  -4 -13  117.49    2.90
  -2   4  13  112.79    3.00
  -2   4  13  119.19    2.90
   1  -4 -13   68.19    2.00
  -1   4  13   64.89    2.10
   0   4  13    9.80    0.90
   1   4  13   -0.20    0.50
  -5   5  13    4.40    0.70
   4  -5 -13   42.10    1.40
  -4   5  13   38.20    1.60
   3  -5 -13   36.40    1.40
  -3   5  13   36.70    1.50
  -3   5  13   34.30    1.40
   2  -5 -13   14.60    1.00
  -2   5  13   14.20    1.00
  -2   5  13   15.50    1.00
   1  -5 -13   35.70    1.50
  -1   5  13   34.70    1.50
   0  -5 -13   40.90    1.60
   0   5  13   42.60    1.80
   1   5  13    3.40    0.70
   4  -6 -13    4.20    0.60
  -4   6  13    5.80    0.80
   3  -6 -13   15.50    1.00
  -3   6  13   16.80    1.10
  -3   6  13   14.90    1.00
   2  -6 -13    5.50    0.70
  -2   6  13    6.80    0.80
  -2   6  13    5.60    0.70
   1  -6 -13    4.20    0.60
  -1   6  13    4.70    0.70
  -1   6  13    4.30    0.70
   0   6  13   13.30    1.20
  -2  -6  14    5.50    0.80
  -2  -6  14    4.50    1.00
  -1  -6  14    0.20    0.40
   0  -6  14    8.80    0.80
   1  -6  14   -0.20    0.50
  -3  -5  14    1.60    0.60
  -2  -5  14   24.30    1.30
  -1  -5  14   33.50    1.40
   0  -5  14   10.10    0.80
   1  -5  14    2.80    0.60
   1  -5  14    1.80    0.40
   2  -5  14    0.70    0.60
  -3  -4  14   13.50    1.10
  -2  -4  14    7.10    0.70
  -1  -4  14    7.90    0.70
   0  -4  14   61.89    1.80
   1  -4  14    7.40    0.70
   1  -4  14    7.10    0.90
   2  -4  14   39.80    1.90
  -4  -3  14    2.60    0.60
  -3  -3  14    2.50    0.60
  -2  -3  14    6.30    0.70
  -1  -3  14   67.79    1.90
   0  -3  14   32.90    1.20
   1  -3  14   26.40    1.10
   1  -3  14   28.10    1.40
   2  -3  14   49.60    2.00
  -4  -2  14   28.00    1.30
  -3  -2  14   56.29    1.80
  -2  -2  14    3.40    0.50
  -1  -2  14   31.60    1.20
   0  -2  14   17.10    0.90
   0  -2  14   15.50    1.00
   1  -2  14   31.00    1.40
   1  -2  14   30.70    1.20
   2  -2  14    1.80    0.50
   2  -2  14    2.00    0.60
  -4  -1  14   15.70    1.00
  -3  -1  14   32.80    1.30
  -2  -1  14   29.50    1.20
  -1  -1  14    5.10    0.60
   0  -1  14   58.49    1.80
   0  -1  14   58.79    1.80
   1  -1  14    1.80    0.50
   1  -1  14    1.90    0.50
   2  -1  14    1.90    0.60
   2  -1  14    1.50    0.50
  -5   0  14    1.60    0.50
  -4   0  14    0.90    0.40
  -3   0  14    9.20    0.70
  -2   0  14   35.90    1.30
  -1   0  14    4.70    0.60
   0   0  14    3.20    0.50
   1   0  14   28.90    1.30
   2   0  14    0.70    0.50
  -5   1  14   18.90    1.10
  -4   1  14   59.09    1.80
  -3   1  14    0.20    0.30
  -2   1  14   43.30    1.50
  -1   1  14   70.29    2.00
   0   1  14   29.80    1.30
   1   1  14   81.99    2.40
   2   1  14    6.30    0.80
  -5   2  14    2.80    0.60
  -4   2  14    2.70    0.50
  -4   2  14    2.20    0.50
   3  -2 -14    7.90    0.70
  -3   2  14    7.20    0.70
  -2   2  14   18.90    1.00
  -1   2  14    3.30    0.50
   0   2  14    0.90    0.50
   1   2  14    8.00    0.80
   2   2  14   47.00    1.90
  -5   3  14    2.70    0.60
  -4   3  14    0.30    0.50
  -4   3  14    0.10    0.30
   3  -3 -14   10.80    0.80
  -3   3  14   11.30    0.90
  -3   3  14   10.50    0.80
   2  -3 -14   10.90    0.90
  -2   3  14   11.00    0.90
  -1   3  14   28.20    1.30
   0   3  14   12.30    1.00
   1   3  14    9.10    1.00
  -4   4  14   20.50    1.00
  -4   4  14   19.40    1.20
   3  -4 -14    1.50    0.50
  -3   4  14    1.40    0.50
  -3   4  14    0.90    0.40
   2  -4 -14   15.00    1.00
  -2   4  14   15.30    1.00
  -2   4  14   12.20    1.00
   1  -4 -14    6.70    0.70
  -1   4  14    6.80    0.80
   0   4  14   57.59    2.10
   4  -5 -14    0.30    0.40
  -4   5  14    1.00    0.60
   3  -5 -14   70.09    2.10
  -3   5  14   74.59    2.10
  -3   5  14   72.19    2.40
   2  -5 -14   49.99    1.80
  -2   5  14   50.89    1.90
  -2   5  14   53.59    1.90
   1  -5 -14    3.20    0.60
  -1   5  14    3.70    0.70
   0   5  14   10.20    1.00
  -2   6  14   20.20    1.20
  -2  -5  15    7.00    0.80
  -1  -5  15   21.30    1.20
   0  -5  15   13.10    0.90
   1  -5  15    7.60    1.00
   1  -5  15    6.80    0.90
  -2  -4  15   28.00    1.30
  -1  -4  15   35.60    1.40
   0  -4  15    2.10    0.50
   1  -4  15   -0.20    0.30
   1  -4  15    0.10    0.50
  -3  -3  15   -0.10    0.40
  -2  -3  15   32.90    1.40
  -1  -3  15   -0.50    0.30
   0  -3  15    3.70    0.60
   1  -3  15   91.59    2.40
   1  -3  15   92.19    2.80
   2  -3  15   54.79    2.20
  -4  -2  15    1.90    0.60
  -3  -2  15    2.80    0.60
  -2  -2  15   19.10    1.00
  -1  -2  15   15.20    0.90
   0  -2  15    0.30    0.30
   1  -2  15    1.50    0.40
   1  -2  15    1.00    0.50
   2  -2  15   24.30    1.40
   2  -2  15   25.70    1.20
  -4  -1  15    4.20    0.60
  -3  -1  15    0.10    0.40
  -2  -1  15   11.10    0.80
  -1  -1  15    6.20    0.60
   0  -1  15   26.30    1.20
   1  -1  15   10.20    1.00
   1  -1  15    9.30    0.90
   2  -1  15   -0.30    0.40
  -4   0  15   90.89    2.50
  -3   0  15   30.60    1.30
  -2   0  15    1.50    0.40
  -1   0  15   -0.30    0.30
   0   0  15   22.70    1.10
   1   0  15   43.70    1.60
  -4   1  15   15.80    1.00
  -3   1  15   -0.30    0.30
  -2   1  15    1.40    0.40
  -1   1  15    5.30    0.60
   0   1  15    0.30    0.40
   1   1  15   17.60    1.10
  -4   2  15   29.10    1.30
  -3   2  15    4.20    0.60
  -2   2  15    0.40    0.40
  -1   2  15    4.60    0.60
   0   2  15   35.20    1.50
   1   2  15   15.30    1.20
  -4   3  15    1.60    0.50
  -4   3  15    1.60    0.50
   3  -3 -15    0.40    0.40
  -3   3  15   -0.20    0.40
   2  -3 -15   26.50    1.20
  -2   3  15   27.30    1.30
  -1   3  15   90.29    2.60
   0   3  15    8.10    0.90
   3  -4 -15   18.10    1.00
  -3   4  15   14.40    1.10
  -3   4  15   16.60    1.10
   2  -4 -15   19.60    1.10
  -2   4  15   19.20    1.20
   1  -4 -15   19.40    1.20
  -1   4  15   19.10    1.30
  -1  -4  16   36.50    1.50
   0  -4  16   29.40    1.30
  -2  -3  16    6.70    0.80
  -1  -3  16   33.20    1.30
   0  -3  16    7.70    0.70
  -3  -2  16    5.40    0.70
  -2  -2  16   69.69    2.10
  -1  -2  16    1.00    0.50
   0  -2  16    2.80    0.50
   1  -2  16   48.80    1.70
  -3  -1  16    0.70    0.40
  -2  -1  16    8.60    0.80
  -1  -1  16    5.50    0.70
   0  -1  16   35.70    1.50
   1  -1  16   29.40    1.40
  -3   0  16    6.90    0.70
  -2   0  16    4.60    0.60
  -1   0  16    0.40    0.40
   0   0  16    0.40    0.40
  -3   1  16    3.40    0.60
  -2   1  16    7.00    0.70
  -1   1  16   12.40    1.00
   0   1  16  108.99    2.90
  -3   2  16   37.50    1.50
  -2   2  16   49.30    1.70
  -1   2  16   11.30    1.00
   2  -3 -16    0.20    0.40
  -2   3  16   -0.60    0.40
;
loop_
_space_group_symop_operation_xyz
'x, y, z'
'-x, -y, -z'
loop_
_atom_site_label
_atom_site_type_symbol
_atom_site_fract_x
_atom_site_fract_y
_atom_site_fract_z
_atom_site_U_iso_or_equiv
_atom_site_adp_type
_atom_site_occupancy
_atom_site_site_symmetry_order
_atom_site_calc_flag
_atom_site_refinement_flags_posn
_atom_site_refinement_flags_adp
_atom_site_refinement_flags_occupancy
_atom_site_disorder_assembly
_atom_site_disorder_group
C1 C 0.5765(2) 0.28624(13) 0.82412(9) 0.0285(2) Uani 1 1 d . . . . .
C2 C 0.5558(3) 0.26267(16) 0.94308(9) 0.0391(3) Uani 1 1 d . . . . .
H2A H 0.5755 0.3660 0.9817 0.047 Uiso 1 1 calc R . . . .
H2B H 0.6937 0.2231 0.9772 0.047 Uiso 1 1 calc R . . . .
C3 C 0.3021(3) 0.14482(18) 0.95458(11) 0.0467(3) Uani 1 1 d . . . . .
H3A H 0.3258 0.1014 1.0241 0.056 Uiso 1 1 calc R . . . .
H3B H 0.1780 0.2034 0.9547 0.056 Uiso 1 1 calc R . . . .
C4 C 0.1998(3) 0.00867(16) 0.86580(12) 0.0446(3) Uani 1 1 d . . . . .
H4 H 0.0476 -0.0689 0.8658 0.053 Uiso 1 1 calc R . . . .
C5 C 0.3241(2) -0.00193(14) 0.78757(11) 0.0384(3) Uani 1 1 d . . . . .
C6 C 0.2710(3) -0.08108(16) 0.67263(12) 0.0494(3) Uani 1 1 d . . . . .
H6A H 0.0979 -0.0989 0.6335 0.059 Uiso 1 1 calc R . . . .
H6B H 0.3238 -0.1777 0.6668 0.059 Uiso 1 1 calc R . . . .
C7 C 0.4652(2) 0.07387(15) 0.64600(10) 0.0388(3) Uani 1 1 d . . . . .
H7 H 0.5952 0.0493 0.6112 0.047 Uiso 1 1 calc R . . . .
C8 C 0.5586(2) 0.12234(13) 0.77144(9) 0.0320(2) Uani 1 1 d . . . . .
H8 H 0.7116 0.0909 0.7989 0.038 Uiso 1 1 calc R . . . .
C9 C 0.3424(3) 0.18610(16) 0.58708(10) 0.0424(3) Uani 1 1 d . . . . .
C10 C 0.2093(2) 0.27689(16) 0.64884(10) 0.0372(3) Uani 1 1 d . . . . .
H10 H 0.0339 0.2155 0.6488 0.045 Uiso 1 1 calc R . . . .
C11 C 0.3650(2) 0.35065(13) 0.76518(9) 0.0300(2) Uani 1 1 d . . . . .
H11 H 0.2509 0.3617 0.8137 0.036 Uiso 1 1 calc R . . . .
C12 C 0.2343(3) 0.45022(18) 0.61695(12) 0.0487(3) Uani 1 1 d . . . . .
H12A H 0.2835 0.4689 0.5475 0.058 Uiso 1 1 calc R . . . .
H12B H 0.0897 0.4882 0.6230 0.058 Uiso 1 1 calc R . . . .
C13 C 0.4513(3) 0.50382(15) 0.71406(11) 0.0406(3) Uani 1 1 d . . . . .
C14 C 0.6835(3) 0.60222(16) 0.73953(13) 0.0502(3) Uani 1 1 d . . . . .
H14 H 0.7365 0.6923 0.7034 0.060 Uiso 1 1 calc R . . . .
C15 C 0.8560(3) 0.55846(15) 0.83100(12) 0.0469(3) Uani 1 1 d . . . . .
H15A H 1.0308 0.6164 0.8307 0.056 Uiso 1 1 calc R . . . .
H15B H 0.8185 0.5895 0.8998 0.056 Uiso 1 1 calc R . . . .
O1 O 0.3476(3) 0.20177(19) 0.49237(9) 0.0831(5) Uani 1 1 d . . . . .
O2 O 0.82422(15) 0.38882(10) 0.82021(7) 0.0375(2) Uani 1 1 d . . . . .
loop_
_atom_site_aniso_label
_atom_site_aniso_U_11
_atom_site_aniso_U_22
_atom_site_aniso_U_33
_atom_site_aniso_U_23
_atom_site_aniso_U_13
_atom_site_aniso_U_12
O2 0.0252(4) 0.0355(4) 0.0482(5) -0.0022(4) 0.0043(3) 0.0064(3)
O1 0.1360(14) 0.0953(10) 0.0349(6) 0.0120(6) 0.0264(7) 0.0544(10)
C8 0.0298(5) 0.0314(5) 0.0364(6) 0.0018(4) 0.0057(4) 0.0125(4)
C11 0.0270(5) 0.0349(5) 0.0309(5) 0.0050(4) 0.0067(4) 0.0129(4)
C2 0.0446(7) 0.0472(7) 0.0274(5) 0.0037(5) 0.0029(5) 0.0193(5)
C13 0.0453(7) 0.0358(6) 0.0449(7) 0.0103(5) 0.0089(5) 0.0179(5)
C10 0.0275(5) 0.0468(7) 0.0342(6) 0.0080(5) 0.0006(4) 0.0086(5)
C5 0.0389(6) 0.0297(5) 0.0464(7) 0.0086(5) 0.0073(5) 0.0099(5)
C1 0.0253(5) 0.0315(5) 0.0289(5) 0.0016(4) 0.0038(4) 0.0099(4)
C9 0.0467(7) 0.0438(7) 0.0300(6) -0.0012(5) 0.0044(5) 0.0057(5)
C7 0.0391(6) 0.0373(6) 0.0380(6) -0.0059(5) 0.0106(5) 0.0081(5)
C14 0.0538(8) 0.0321(6) 0.0619(9) 0.0095(6) 0.0115(7) 0.0077(5)
C15 0.0410(7) 0.0340(6) 0.0565(8) -0.0063(5) 0.0042(6) 0.0019(5)
C4 0.0430(7) 0.0421(7) 0.0517(7) 0.0194(6) 0.0156(6) 0.0112(5)
C12 0.0472(7) 0.0572(8) 0.0464(7) 0.0196(6) 0.0046(6) 0.0238(6)
C3 0.0535(8) 0.0586(8) 0.0369(6) 0.0162(6) 0.0187(6) 0.0229(6)
C6 0.0530(8) 0.0323(6) 0.0555(8) -0.0040(5) 0.0085(6) 0.0036(5)
loop_
_atom_type_symbol
_atom_type_description
_atom_type_scat_dispersion_real
_atom_type_scat_dispersion_imag
_atom_type_scat_source
C C 0.0033 0.0016 'International Tables Vol C Tables 4.2.6.8 and 6.1.1.4'
H H 0.0000 0.0000 'International Tables Vol C Tables 4.2.6.8 and 6.1.1.4'
O O 0.0106 0.0060 'International Tables Vol C Tables 4.2.6.8 and 6.1.1.4'
loop_
_geom_angle_atom_site_label_1
_geom_angle_atom_site_label_2
_geom_angle_atom_site_label_3
_geom_angle
_geom_angle_site_symmetry_1
_geom_angle_site_symmetry_3
C15 O2 C1 116.23(9) . .
C5 C8 H8 111.1 . .
C5 C8 C1 110.98(9) . .
C5 C8 C7 88.14(9) . .
C1 C8 H8 111.1 . .
C1 C8 C7 122.27(10) . .
C7 C8 H8 111.1 . .
C13 C11 H11 110.4 . .
C13 C11 C10 85.84(9) . .
C13 C11 C1 115.84(10) . .
C10 C11 H11 110.4 . .
C1 C11 H11 110.4 . .
C1 C11 C10 121.77(9) . .
H2A C2 H2B 107.7 . .
C1 C2 H2A 108.9 . .
C1 C2 H2B 108.9 . .
C1 C2 C3 113.47(10) . .
C3 C2 H2A 108.9 . .
C3 C2 H2B 108.9 . .
C11 C13 C12 92.92(10) . .
C14 C13 C11 123.76(12) . .
C14 C13 C12 138.92(14) . .
C11 C10 H10 112.9 . .
C9 C10 C11 113.27(9) . .
C9 C10 H10 112.9 . .
C9 C10 C12 113.79(11) . .
C12 C10 C11 88.88(9) . .
C12 C10 H10 112.9 . .
C8 C5 C6 92.49(10) . .
C4 C5 C8 125.45(12) . .
C4 C5 C6 138.57(13) . .
O2 C1 C8 106.41(8) . .
O2 C1 C11 111.78(9) . .
O2 C1 C2 109.95(9) . .
C8 C1 C11 111.08(9) . .
C8 C1 C2 105.58(9) . .
C11 C1 C2 111.73(9) . .
O1 C9 C10 121.15(14) . .
O1 C9 C7 120.92(14) . .
C7 C9 C10 117.92(11) . .
C8 C7 H7 112.8 . .
C8 C7 C6 87.92(9) . .
C9 C7 C8 114.41(10) . .
C9 C7 H7 112.8 . .
C9 C7 C6 113.80(11) . .
C6 C7 H7 112.8 . .
C13 C14 H14 122.5 . .
C13 C14 C15 115.07(13) . .
C15 C14 H14 122.5 . .
O2 C15 C14 110.55(10) . .
O2 C15 H15A 109.5 . .
O2 C15 H15B 109.5 . .
C14 C15 H15A 109.5 . .
C14 C15 H15B 109.5 . .
H15A C15 H15B 108.1 . .
C5 C4 H4 119.8 . .
C5 C4 C3 120.42(12) . .
C3 C4 H4 119.8 . .
C13 C12 C10 85.99(9) . .
C13 C12 H12A 114.3 . .
C13 C12 H12B 114.3 . .
C10 C12 H12A 114.3 . .
C10 C12 H12B 114.3 . .
H12A C12 H12B 111.5 . .
C2 C3 H3A 108.9 . .
C2 C3 H3B 108.9 . .
C4 C3 C2 113.46(11) . .
C4 C3 H3A 108.9 . .
C4 C3 H3B 108.9 . .
H3A C3 H3B 107.7 . .
C5 C6 C7 87.61(9) . .
C5 C6 H6A 114.1 . .
C5 C6 H6B 114.1 . .
C7 C6 H6A 114.1 . .
C7 C6 H6B 114.1 . .
H6A C6 H6B 111.2 . .
loop_
_geom_bond_atom_site_label_1
_geom_bond_atom_site_label_2
_geom_bond_distance
_geom_bond_site_symmetry_2
O2 C1 1.4385(13) .
O2 C15 1.4351(15) .
O1 C9 1.2093(17) .
C8 H8 0.9800 .
C8 C5 1.5064(16) .
C8 C1 1.5136(15) .
C8 C7 1.5646(16) .
C11 H11 0.9800 .
C11 C13 1.5051(16) .
C11 C10 1.5630(16) .
C11 C1 1.5350(14) .
C2 H2A 0.9700 .
C2 H2B 0.9700 .
C2 C1 1.5395(16) .
C2 C3 1.541(2) .
C13 C14 1.316(2) .
C13 C12 1.5078(19) .
C10 H10 0.9800 .
C10 C9 1.5042(19) .
C10 C12 1.5563(19) .
C5 C4 1.3178(19) .
C5 C6 1.5107(19) .
C9 C7 1.495(2) .
C7 H7 0.9800 .
C7 C6 1.5749(19) .
C14 H14 0.9300 .
C14 C15 1.497(2) .
C15 H15A 0.9700 .
C15 H15B 0.9700 .
C4 H4 0.9300 .
C4 C3 1.497(2) .
C12 H12A 0.9700 .
C12 H12B 0.9700 .
C3 H3A 0.9700 .
C3 H3B 0.9700 .
C6 H6A 0.9700 .
C6 H6B 0.9700 .
loop_
_geom_torsion_atom_site_label_1
_geom_torsion_atom_site_label_2
_geom_torsion_atom_site_label_3
_geom_torsion_atom_site_label_4
_geom_torsion
_geom_torsion_site_symmetry_1
_geom_torsion_site_symmetry_2
_geom_torsion_site_symmetry_3
_geom_torsion_site_symmetry_4
O1 C9 C7 C8 152.02(15) . . . .
O1 C9 C7 C6 -108.96(17) . . . .
C8 C5 C4 C3 -6.0(2) . . . .
C8 C5 C6 C7 -14.99(10) . . . .
C8 C7 C6 C5 14.41(9) . . . .
C11 C13 C14 C15 -4.7(2) . . . .
C11 C13 C12 C10 -19.34(10) . . . .
C11 C10 C9 O1 -136.04(15) . . . .
C11 C10 C9 C7 44.81(15) . . . .
C11 C10 C12 C13 18.58(10) . . . .
C13 C11 C10 C9 96.90(11) . . . .
C13 C11 C10 C12 -18.62(9) . . . .
C13 C11 C1 O2 0.72(13) . . . .
C13 C11 C1 C8 -117.97(11) . . . .
C13 C11 C1 C2 124.41(11) . . . .
C13 C14 C15 O2 42.81(18) . . . .
C10 C11 C13 C14 -141.12(14) . . . .
C10 C11 C13 C12 19.26(10) . . . .
C10 C11 C1 O2 102.55(11) . . . .
C10 C11 C1 C8 -16.14(14) . . . .
C10 C11 C1 C2 -133.76(11) . . . .
C10 C9 C7 C8 -28.83(16) . . . .
C10 C9 C7 C6 70.19(14) . . . .
C5 C8 C1 O2 170.54(9) . . . .
C5 C8 C1 C11 -67.59(12) . . . .
C5 C8 C1 C2 53.71(12) . . . .
C5 C8 C7 C9 100.83(11) . . . .
C5 C8 C7 C6 -14.45(9) . . . .
C5 C4 C3 C2 -0.18(18) . . . .
C1 O2 C15 C14 -61.88(15) . . . .
C1 C8 C5 C4 -23.12(17) . . . .
C1 C8 C5 C6 139.12(10) . . . .
C1 C8 C7 C9 -12.94(16) . . . .
C1 C8 C7 C6 -128.23(11) . . . .
C1 C11 C13 C14 -17.67(18) . . . .
C1 C11 C13 C12 142.71(10) . . . .
C1 C11 C10 C9 -21.06(15) . . . .
C1 C11 C10 C12 -136.58(11) . . . .
C1 C2 C3 C4 35.13(15) . . . .
C9 C10 C12 C13 -96.46(12) . . . .
C9 C7 C6 C5 -101.44(11) . . . .
C7 C8 C5 C4 -147.16(13) . . . .
C7 C8 C5 C6 15.08(10) . . . .
C7 C8 C1 O2 -87.86(12) . . . .
C7 C8 C1 C11 34.01(14) . . . .
C7 C8 C1 C2 155.31(10) . . . .
C14 C13 C12 C10 135.52(18) . . . .
C15 O2 C1 C8 159.74(10) . . . .
C15 O2 C1 C11 38.31(13) . . . .
C15 O2 C1 C2 -86.38(12) . . . .
C4 C5 C6 C7 142.95(17) . . . .
C12 C13 C14 C15 -154.05(16) . . . .
C12 C10 C9 O1 -36.47(19) . . . .
C12 C10 C9 C7 144.39(12) . . . .
C3 C2 C1 O2 -176.08(10) . . . .
C3 C2 C1 C8 -61.68(12) . . . .
C3 C2 C1 C11 59.20(13) . . . .
C6 C5 C4 C3 -158.57(15) . . . .
