#------------------------------------------------------------------------------
#$Date: 2022-08-24 10:34:23 +0300 (Wed, 24 Aug 2022) $
#$Revision: 277370 $
#$URL: file:///home/coder/svn-repositories/cod/cif/8/10/56/8105688.cif $
#------------------------------------------------------------------------------
#
# This file is available in the Crystallography Open Database (COD),
# http://www.crystallography.net/
#
# All data on this site have been placed in the public domain by the
# contributors.
#
data_8105688
loop_
_publ_author_name
'Wang, Jie'
'Luo, Li-Sha'
'Deng, Yu-Cong'
'Li, Zhong-Chao'
'Peng, Da-Yong'
_publ_section_title
;
 Crystal structure of
 6-methyl-3-(pyrrolidine-1-carbonyl)-2H-chromen-2-one, C15H15N1O3
;
_journal_issue                   3
_journal_name_full
'Zeitschrift f\"ur Kristallographie - New Crystal Structures'
_journal_page_first              331
_journal_page_last               333
_journal_paper_doi               10.1515/ncrs-2022-0011
_journal_volume                  237
_journal_year                    2022
_chemical_formula_moiety         'C15 H15 N O3'
_chemical_formula_sum            'C15 H15 N O3'
_chemical_formula_weight         257.28
_space_group_crystal_system      triclinic
_space_group_IT_number           2
_space_group_name_Hall           '-P 1'
_space_group_name_H-M_alt        'P -1'
_atom_sites_solution_hydrogens   geom
_cell_angle_alpha                85.810(2)
_cell_angle_beta                 79.896(2)
_cell_angle_gamma                87.055(2)
_cell_formula_units_Z            2
_cell_length_a                   7.1053(11)
_cell_length_b                   8.3014(12)
_cell_length_c                   11.0297(16)
_cell_measurement_reflns_used    3070
_cell_measurement_temperature    296(2)
_cell_measurement_theta_max      27.55
_cell_measurement_theta_min      2.46
_cell_volume                     638.28(16)
_computing_cell_refinement       'APEX2, SAINT and SADABS [1]'
_computing_data_collection       'APEX2, SAINT and SADABS [1]'
_computing_data_reduction        'APEX2, SAINT and SADABS [1]'
_computing_molecular_graphics    'Diamond 4.0 [4]'
_computing_publication_material  'SHELXL-2014/7 (Sheldrick, 2014) [2,3]'
_computing_structure_refinement  'SHELXL-2014/7 (Sheldrick, 2014) [2,3]'
_computing_structure_solution    'SHELXL-2014/7 (Sheldrick, 2014) [2,3]'
_diffrn_ambient_temperature      296(2)
_diffrn_measured_fraction_theta_full 0.993
_diffrn_measured_fraction_theta_max 0.992
_diffrn_measurement_device_type  'Bruker APEX-II CCD'
_diffrn_measurement_method       '\f and \w scans'
_diffrn_radiation_monochromator  graphite
_diffrn_radiation_source         'sealed tube'
_diffrn_radiation_type           MoK\a
_diffrn_radiation_wavelength     0.71073
_diffrn_reflns_av_R_equivalents  0.0185
_diffrn_reflns_av_unetI/netI     0.0210
_diffrn_reflns_Laue_measured_fraction_full 0.993
_diffrn_reflns_Laue_measured_fraction_max 0.992
_diffrn_reflns_limit_h_max       8
_diffrn_reflns_limit_h_min       -8
_diffrn_reflns_limit_k_max       10
_diffrn_reflns_limit_k_min       -10
_diffrn_reflns_limit_l_max       11
_diffrn_reflns_limit_l_min       -13
_diffrn_reflns_number            4943
_diffrn_reflns_point_group_measured_fraction_full 0.993
_diffrn_reflns_point_group_measured_fraction_max 0.992
_diffrn_reflns_theta_full        25.242
_diffrn_reflns_theta_max         25.494
_diffrn_reflns_theta_min         2.914
_exptl_absorpt_coefficient_mu    0.094
_exptl_crystal_colour            colorless
_exptl_crystal_density_diffrn    1.339
_exptl_crystal_description       block
_exptl_crystal_F_000             272
_exptl_crystal_size_max          0.160
_exptl_crystal_size_mid          0.160
_exptl_crystal_size_min          0.120
_refine_diff_density_max         0.160
_refine_diff_density_min         -0.146
_refine_diff_density_rms         0.031
_refine_ls_abs_structure_details
;
 Flack x determined using 1462 quotients [(I+)-(I-)]/[(I+)+(I-)]
 (Parsons, Flack and Wagner, Acta Crystallogr. B69 (2013) 249-259).
;
_refine_ls_extinction_coef       0.036(6)
_refine_ls_extinction_expression Fc^*^=kFc[1+0.001xFc^2^\l^3^/sin(2\q)]^-1/4^
_refine_ls_extinction_method     'SHELXL-2014/7 (Sheldrick 2014'
_refine_ls_goodness_of_fit_ref   1.063
_refine_ls_hydrogen_treatment    constr
_refine_ls_matrix_type           full
_refine_ls_number_parameters     174
_refine_ls_number_reflns         2357
_refine_ls_number_restraints     0
_refine_ls_restrained_S_all      1.063
_refine_ls_R_factor_all          0.0433
_refine_ls_R_factor_gt           0.0371
_refine_ls_shift/su_max          0.001
_refine_ls_shift/su_mean         0.000
_refine_ls_structure_factor_coef Fsqd
_refine_ls_weighting_details
'w=1/[\s^2^(Fo^2^)+(0.0498P)^2^+0.1379P] where P=(Fo^2^+2Fc^2^)/3'
_refine_ls_weighting_scheme      calc
_refine_ls_wR_factor_gt          0.1000
_refine_ls_wR_factor_ref         0.1062
_reflns_Friedel_coverage         0.000
_reflns_Friedel_fraction_full    .
_reflns_Friedel_fraction_max     .
_reflns_number_gt                2003
_reflns_number_total             2357
_reflns_threshold_expression     'I > 2\s(I)'
_cod_data_source_file            suppl_j_ncrs-2022-0011_suppl.cif
_cod_data_source_block           3992_0m
_cod_database_code               8105688
_shelx_space_group_comment
;
The symmetry employed for this shelxl refinement is uniquely defined
by the following loop, which should always be used as a source of
symmetry information in preference to the above space-group names.
They are only intended as comments.
;
_shelx_estimated_absorpt_t_min   0.989
_shelx_estimated_absorpt_t_max   0.992
_shelx_res_file
;

    3992_0m.res created by SHELXL-2014/7

TITL 3992_0m in P-1
CELL 0.71073   7.1053   8.3014  11.0297  85.810  79.896  87.055
ZERR    1.00   0.0011   0.0012   0.0016   0.002   0.002   0.002
LATT 1
SFAC C  H  N  O
UNIT 23  19  3  3
OMIT -3 51
L.S. 10
ACTA
BOND
FMAP 2
PLAN 20
SIZE 0.12 0.16 0.16
TEMP 23.000
WGHT    0.049800    0.137900
EXTI    0.035822
FVAR       0.34704
MOLE 1
C1    1    0.255914    0.499963    0.426695    11.00000    0.03467    0.04052 =
         0.04767   -0.01075   -0.00614   -0.00344
C2    1    0.210231    0.649905    0.473217    11.00000    0.04753    0.04130 =
         0.06334   -0.01380   -0.00725   -0.00018
AFIX  43
H2    2    0.193226    0.740536    0.420933    11.00000   -1.20000
AFIX   0
C3    1    0.190485    0.662045    0.598609    11.00000    0.04299    0.04965 =
         0.07038   -0.02867   -0.00595    0.00054
AFIX  43
H3    2    0.161334    0.762847    0.630308    11.00000   -1.20000
AFIX   0
C4    1    0.212774    0.527874    0.680048    11.00000    0.03474    0.06515 =
         0.05239   -0.02723   -0.00766   -0.00148
C5    1    0.262017    0.380074    0.630539    11.00000    0.04001    0.05357 =
         0.04404   -0.01394   -0.01008    0.00098
AFIX  43
H5    2    0.280310    0.289693    0.682779    11.00000   -1.20000
AFIX   0
C6    1    0.284808    0.363964    0.503499    11.00000    0.03350    0.04287 =
         0.04373   -0.01293   -0.00839   -0.00152
C7    1    0.343428    0.215084    0.446522    11.00000    0.04258    0.03869 =
         0.04280   -0.00728   -0.01206    0.00120
AFIX  43
H7    2    0.368164    0.123185    0.495576    11.00000   -1.20000
AFIX   0
C8    1    0.363172    0.206023    0.324033    11.00000    0.04037    0.03745 =
         0.04065   -0.00864   -0.00897   -0.00176
C9    1    0.324874    0.347998    0.244406    11.00000    0.04484    0.03899 =
         0.04496   -0.00771   -0.00659   -0.00216
C10   1    0.448901    0.055668    0.263492    11.00000    0.04540    0.03679 =
         0.03696   -0.00540   -0.00714   -0.00047
C11   1    0.147026    0.018129    0.182199    11.00000    0.05292    0.06450 =
         0.07411   -0.02791   -0.02143    0.00522
AFIX  23
H11A  2    0.137451    0.106945    0.121087    11.00000   -1.20000
H11B  2    0.069409    0.044996    0.260079    11.00000   -1.20000
AFIX   0
C12   1    0.087574   -0.138015    0.140078    11.00000    0.06458    0.06845 =
         0.06395   -0.01195   -0.02174   -0.01402
AFIX  23
H12A  2    0.044338   -0.212887    0.209931    11.00000   -1.20000
H12B  2   -0.013774   -0.118257    0.091642    11.00000   -1.20000
AFIX   0
C13   1    0.268121   -0.202220    0.062576    11.00000    0.08589    0.04811 =
         0.04802   -0.01368   -0.01670   -0.00973
AFIX  23
H13A  2    0.286741   -0.149510   -0.019838    11.00000   -1.20000
H13B  2    0.264153   -0.317934    0.056488    11.00000   -1.20000
AFIX   0
C14   1    0.424856   -0.162743    0.130747    11.00000    0.06047    0.03871 =
         0.04457   -0.01337   -0.00286   -0.00145
AFIX  23
H14A  2    0.450488   -0.251425    0.188618    11.00000   -1.20000
H14B  2    0.541990   -0.139262    0.073767    11.00000   -1.20000
AFIX   0
C15   1    0.184456    0.544691    0.817262    11.00000    0.06138    0.08870 =
         0.05883   -0.03973   -0.01093    0.00378
AFIX 137
H15A  2    0.052554    0.529901    0.852516    11.00000   -1.50000
H15B  2    0.219644    0.650437    0.832728    11.00000   -1.50000
H15C  2    0.263131    0.464448    0.853941    11.00000   -1.50000
AFIX   0
N1    3    0.346789   -0.018845    0.195753    11.00000    0.04779    0.04363 =
         0.04784   -0.01843   -0.00978    0.00273
O1    4    0.274273    0.490299    0.300927    11.00000    0.05576    0.03601 =
         0.04493   -0.00601   -0.00725    0.00028
O2    4    0.336085    0.353330    0.134114    11.00000    0.08665    0.05217 =
         0.03860   -0.00497   -0.00870    0.00170
O3    4    0.609513    0.006248    0.279012    11.00000    0.05492    0.05231 =
         0.07193   -0.02203   -0.02363    0.01223
HKLF 4

REM  3992_0m in P-1
REM R1 =  0.0371 for    2003 Fo > 4sig(Fo)  and  0.0433 for all    2357 data
REM    174 parameters refined using      0 restraints

END

WGHT      0.0506      0.1356

REM Highest difference peak  0.160,  deepest hole -0.146,  1-sigma level  0.031
Q1    1   0.3226  0.5545  0.8447  11.00000  0.05    0.16
Q2    1   0.0842  0.6392  0.8486  11.00000  0.05    0.16
Q3    1   0.2213  0.4140  0.4712  11.00000  0.05    0.15
Q4    1   0.3860  0.1385  0.2924  11.00000  0.05    0.15
Q5    1   0.3204  0.4412  0.4650  11.00000  0.05    0.14
Q6    1   0.3963  0.2845  0.2821  11.00000  0.05    0.14
Q7    1   0.2200  0.3531  0.5639  11.00000  0.05    0.13
Q8    1   0.1369  0.4254  0.8868  11.00000  0.05    0.13
Q9    1   0.2876  0.1935  0.3780  11.00000  0.05    0.13
Q10   1   0.3591 -0.0202  0.2609  11.00000  0.05    0.13
Q11   1   0.0936  0.1228  0.2048  11.00000  0.05    0.12
Q12   1   0.2737  0.2935  0.4762  11.00000  0.05    0.12
Q13   1   0.2618  0.6374  0.5358  11.00000  0.05    0.12
Q14   1   0.1994  0.5220  0.7530  11.00000  0.05    0.12
Q15   1   0.2595  0.6013  0.6362  11.00000  0.05    0.11
Q16   1   0.2978  0.2546  0.2955  11.00000  0.05    0.11
Q17   1  -0.0591 -0.1122  0.1295  11.00000  0.05    0.11
Q18   1   0.2647  0.0075  0.1896  11.00000  0.05    0.11
Q19   1   0.1907 -0.2313  0.1278  11.00000  0.05    0.11
Q20   1   0.3936 -0.0797  0.1609  11.00000  0.05    0.10
;
_shelx_res_checksum              3690
_shelx_hkl_file
;
  -1   0   0  155.39    2.68
   1   0   0  156.54    2.85
   1   0   0  156.62    2.81
  -2   0   0  549.86    9.76
   2   0   0  590.92   10.35
   2   0   0  594.88   10.20
  -3   0   0   44.37    0.77
   3   0   0   44.30    0.82
   3   0   0   43.99    0.80
  -4   0   0    0.45    0.04
   4   0   0    0.35    0.04
   4   0   0    0.44    0.04
  -5   0   0    0.56    0.05
   5   0   0    0.70    0.05
   5   0   0    0.61    0.05
  -6   0   0    0.11    0.03
   6   0   0    0.10    0.03
   6   0   0    0.11    0.04
  -7   0   0    0.28    0.05
   7   0   0    0.38    0.05
   7   0   0    0.42    0.05
  -8   0   0    0.01    0.03
   8   0   0    0.03    0.04
  -9   0   0    0.03    0.04
   9   0   0    0.01    0.04
   9  -1   0    1.64    0.11
  -9   1   0    1.81    0.11
   8  -1   0    0.07    0.04
  -8   1   0    0.03    0.03
   7  -1   0    0.13    0.04
   7  -1   0    0.04    0.03
  -7   1   0    0.07    0.03
   6  -1   0    0.36    0.04
   6  -1   0    0.39    0.05
  -6   1   0    0.37    0.04
   5  -1   0    2.68    0.10
   5  -1   0    2.76    0.11
  -5   1   0    2.76    0.10
   4  -1   0   12.86    0.28
   4  -1   0   12.66    0.28
  -4   1   0   13.43    0.27
   3  -1   0    2.12    0.07
   3  -1   0    2.04    0.07
  -3   1   0    2.04    0.07
   2  -1   0   49.49    0.90
   2  -1   0   49.11    0.89
  -2   1   0   49.05    0.84
   1  -1   0   21.70    0.40
  -1   1   0   21.63    0.38
  -1  -1   0   89.48    1.56
   1   1   0   92.21    1.64
  -2  -1   0  782.84   16.41
   2   1   0 1000.00   15.84
   2   1   0  878.01   16.29
  -3  -1   0    0.75    0.04
   3   1   0    0.70    0.05
   3   1   0    0.72    0.03
  -4  -1   0  269.94    4.48
   4   1   0  270.44    4.76
   4   1   0  263.38    4.77
  -5  -1   0   14.40    0.30
   5   1   0   13.74    0.32
   5   1   0   13.71    0.30
  -6  -1   0    3.44    0.12
   6   1   0    3.44    0.12
   6   1   0    3.40    0.13
  -7  -1   0    0.14    0.04
   7   1   0    0.10    0.04
  -8  -1   0    0.04    0.03
   8   1   0    0.10    0.04
  -9  -1   0    0.36    0.06
   9   1   0    0.36    0.06
   8  -2   0    0.15    0.05
   8  -2   0    0.12    0.04
  -8   2   0    0.15    0.05
   7  -2   0    3.36    0.14
   7  -2   0    3.41    0.14
  -7   2   0    3.58    0.14
   6  -2   0    1.70    0.09
   6  -2   0    1.50    0.08
  -6   2   0    1.46    0.08
   5  -2   0   -0.02    0.02
   5  -2   0    0.02    0.02
  -5   2   0    0.00    0.02
   4  -2   0   38.35    0.73
   4  -2   0   38.00    0.74
  -4   2   0   38.25    0.69
   3  -2   0    3.05    0.10
   3  -2   0    3.09    0.10
  -3   2   0    3.06    0.09
   2  -2   0   23.39    0.45
  -2   2   0   23.14    0.42
   1  -2   0   28.09    0.54
   1  -2   0   29.13    0.53
  -1   2   0   28.98    0.50
  -1   2   0   28.53    0.40
   0  -2   0  103.77    1.86
   0  -2   0  105.33    1.79
   0   2   0  103.28    1.83
  -1  -2   0   35.21    0.60
   1   2   0   34.61    0.63
   1   2   0   35.33    0.65
  -2  -2   0  127.37    2.17
   2   2   0  126.05    2.29
   2   2   0  132.68    2.30
  -3  -2   0   12.19    0.24
   3   2   0   12.50    0.24
   3   2   0   12.06    0.26
  -4  -2   0   77.61    1.33
   4   2   0   75.86    1.42
   4   2   0   77.99    1.38
  -5  -2   0    4.22    0.13
   5   2   0    4.50    0.12
   5   2   0    4.35    0.15
  -6  -2   0   16.94    0.36
   6   2   0   17.00    0.39
  -7  -2   0    0.07    0.03
   7   2   0    0.10    0.05
  -8  -2   0    2.02    0.11
   8   2   0    2.33    0.13
  -9  -2   0    0.12    0.04
   9   2   0    0.23    0.06
   8  -3   0    0.26    0.06
   8  -3   0    0.42    0.06
  -8   3   0    0.28    0.05
   7  -3   0    0.02    0.03
   7  -3   0    0.03    0.03
  -7   3   0    0.02    0.03
   6  -3   0    0.18    0.04
   6  -3   0    0.14    0.04
  -6   3   0    0.09    0.03
   5  -3   0    9.34    0.24
   5  -3   0    9.41    0.25
  -5   3   0    9.47    0.23
   4  -3   0    9.27    0.23
   4  -3   0    9.59    0.23
  -4   3   0    9.23    0.21
   3  -3   0    0.00    0.01
   3  -3   0    0.01    0.02
  -3   3   0    0.01    0.01
   2  -3   0    3.23    0.10
   2  -3   0    3.35    0.10
  -2   3   0    3.20    0.08
   1  -3   0    6.17    0.15
   1  -3   0    6.26    0.15
  -1   3   0    6.09    0.10
  -1   3   0    6.32    0.13
   0  -3   0   14.65    0.26
   0   3   0   14.15    0.28
  -1  -3   0   21.55    0.38
   1   3   0   22.07    0.40
   1   3   0   21.13    0.42
  -2  -3   0    0.18    0.02
   2   3   0    0.18    0.02
   2   3   0    0.18    0.02
  -3  -3   0   10.52    0.21
   3   3   0   10.80    0.21
   3   3   0   10.46    0.24
  -4  -3   0   15.25    0.30
   4   3   0   14.77    0.29
   4   3   0   13.75    0.32
  -5  -3   0    4.09    0.12
   5   3   0    4.31    0.15
  -6  -3   0   29.03    0.56
   6   3   0   29.00    0.62
  -7  -3   0   -0.01    0.03
   7   3   0    0.05    0.05
  -8  -3   0    2.89    0.13
   8   3   0    2.98    0.15
   8  -4   0    2.62    0.15
  -8   4   0    2.58    0.13
   7  -4   0   -0.02    0.03
   7  -4   0    0.00    0.03
  -7   4   0   -0.01    0.03
   6  -4   0    3.07    0.14
   6  -4   0    3.03    0.13
  -6   4   0    3.20    0.12
   5  -4   0   10.22    0.27
   5  -4   0   10.41    0.27
  -5   4   0   10.46    0.25
   4  -4   0    5.64    0.17
   4  -4   0    5.78    0.17
  -4   4   0    5.65    0.15
   3  -4   0    1.72    0.08
   3  -4   0    1.62    0.08
  -3   4   0    1.70    0.07
   2  -4   0    0.33    0.03
   2  -4   0    0.35    0.04
  -2   4   0    0.30    0.02
   1  -4   0    0.45    0.04
   1  -4   0    0.40    0.03
  -1   4   0    0.44    0.02
  -1   4   0    0.48    0.03
   0  -4   0   11.27    0.25
   0  -4   0   11.88    0.21
   0   4   0   11.33    0.24
  -1  -4   0   16.18    0.34
  -1  -4   0   16.39    0.29
   1   4   0   16.02    0.32
  -2  -4   0    5.17    0.11
   2   4   0    5.26    0.12
   2   4   0    5.24    0.14
  -3  -4   0    0.16    0.02
   3   4   0    0.18    0.02
   3   4   0    0.17    0.03
  -4  -4   0   -0.01    0.01
   4   4   0   -0.02    0.03
  -5  -4   0    0.56    0.04
   5   4   0    0.55    0.06
  -6  -4   0    4.27    0.14
   6   4   0    4.08    0.16
  -7  -4   0    0.49    0.05
   7   4   0    0.45    0.07
  -8  -4   0    0.63    0.07
   8   4   0    0.68    0.09
   7  -5   0    0.08    0.04
   7  -5   0    0.14    0.05
  -7   5   0    0.17    0.04
   6  -5   0    1.12    0.09
   6  -5   0    1.12    0.09
  -6   5   0    1.13    0.08
   5  -5   0    3.42    0.14
   5  -5   0    3.44    0.14
  -5   5   0    3.46    0.12
   4  -5   0   48.36    0.94
   4  -5   0   48.10    0.94
  -4   5   0   46.83    0.86
   3  -5   0   28.65    0.58
   3  -5   0   28.42    0.58
  -3   5   0   27.61    0.52
   2  -5   0   12.06    0.28
   2  -5   0   11.82    0.28
  -2   5   0   12.04    0.24
   1  -5   0   29.30    0.59
  -1   5   0   30.30    0.58
  -1   5   0   29.45    0.42
  -1   5   0   29.93    0.53
   0  -5   0   17.83    0.32
   0  -5   0   17.01    0.37
   0   5   0   16.90    0.36
  -1  -5   0    4.59    0.10
  -1  -5   0    4.48    0.13
   1   5   0    4.38    0.12
  -2  -5   0    5.48    0.12
   2   5   0    5.49    0.13
   2   5   0    5.18    0.15
  -3  -5   0    0.41    0.03
   3   5   0    0.46    0.05
  -4  -5   0    0.35    0.03
   4   5   0    0.27    0.05
  -5  -5   0    1.09    0.06
   5   5   0    1.13    0.08
  -6  -5   0    1.24    0.07
   6   5   0    1.27    0.10
   7   5   0   -0.01    0.04
   8   5   0    0.55    0.09
   7  -6   0    0.17    0.05
  -7   6   0    0.11    0.04
   6  -6   0    0.49    0.07
   6  -6   0    0.33    0.06
  -6   6   0    0.39    0.05
   5  -6   0   -0.02    0.03
   5  -6   0   -0.03    0.03
  -5   6   0    0.02    0.03
   4  -6   0    0.01    0.03
   4  -6   0    0.03    0.03
  -4   6   0    0.07    0.03
   3  -6   0    5.15    0.17
   3  -6   0    5.30    0.17
  -3   6   0    5.34    0.14
   2  -6   0   30.98    0.63
   2  -6   0   30.53    0.63
  -2   6   0   31.24    0.56
   1  -6   0    1.87    0.09
  -1   6   0    2.05    0.09
  -1   6   0    2.05    0.07
  -1   6   0    2.05    0.05
   0  -6   0   96.18    1.77
   0  -6   0   97.90    1.62
   0   6   0   93.57    1.73
  -1  -6   0   26.52    0.55
   1   6   0   27.56    0.53
   2   6   0   11.26    0.24
   2   6   0   10.76    0.27
   3   6   0    0.43    0.05
   4   6   0    0.24    0.05
   5   6   0    0.55    0.06
   6   6   0   -0.01    0.05
   7   6   0    0.06    0.06
   6  -7   0    1.11    0.09
   6  -7   0    1.01    0.09
   5  -7   0    0.81    0.08
   5  -7   0    0.66    0.07
   4  -7   0    2.14    0.12
   4  -7   0    2.19    0.11
   3  -7   0    0.72    0.07
  -3   7   0    0.67    0.07
   2  -7   0   20.41    0.46
  -2   7   0   20.31    0.45
   1  -7   0    0.24    0.05
  -1   7   0    0.24    0.04
   0  -7   0   26.98    0.57
   0   7   0   27.39    0.56
   1   7   0   10.84    0.26
   1   7   0   11.07    0.29
   2   7   0   24.23    0.53
   3   7   0    8.91    0.25
   4   7   0    9.55    0.27
   5   7   0    1.24    0.10
   6   7   0    0.35    0.07
   7   7   0    0.06    0.06
   5  -8   0    0.16    0.05
  -5   8   0    0.25    0.06
   4  -8   0    3.52    0.16
  -4   8   0    3.61    0.16
   3  -8   0    0.04    0.04
  -3   8   0   -0.01    0.03
   2  -8   0    1.89    0.11
  -2   8   0    2.11    0.11
   1  -8   0    1.21    0.09
  -1   8   0    1.31    0.08
   0  -8   0    6.61    0.21
   0   8   0    7.14    0.21
   1   8   0    1.99    0.11
   2   8   0   35.14    0.74
   3   8   0    7.03    0.23
   4   8   0    9.46    0.28
   5   8   0    3.51    0.16
   6   8   0    0.81    0.10
   4  -9   0    0.82    0.09
  -4   9   0    0.93    0.09
   3  -9   0    0.13    0.05
  -3   9   0    0.12    0.05
   2  -9   0    0.42    0.06
  -2   9   0    0.47    0.06
   1  -9   0    0.15    0.05
  -1   9   0    0.16    0.04
   0  -9   0    0.35    0.06
   1   9   0    0.00    0.04
   2   9   0    0.01    0.04
   3   9   0    3.59    0.16
   4   9   0    6.33    0.22
   5   9   0    0.04    0.06
   3 -10   0    2.66    0.15
  -3  10   0    2.34    0.14
   2 -10   0    0.10    0.05
  -2  10   0    0.16    0.05
   1 -10   0    0.53    0.07
   0 -10   0   -0.01    0.03
   1  10   0    0.31    0.06
   2  10   0    0.66    0.09
   3  10   0    0.06    0.05
   3  10  -1    1.64    0.12
   2  10  -1    0.00    0.05
   1  10  -1    0.32    0.07
   0 -10   1    0.18    0.05
   1 -10   1    0.25    0.06
  -2  10  -1    0.16    0.05
   2 -10   1    0.16    0.05
  -3  10  -1    0.01    0.04
   3 -10   1    0.05    0.05
   5   9  -1    1.99    0.13
   4   9  -1    7.04    0.24
   3   9  -1    0.03    0.05
   2   9  -1    1.64    0.11
   1   9  -1    0.09    0.05
   0  -9   1    0.27    0.05
  -1   9  -1    1.27    0.09
   1  -9   1    1.28    0.09
  -2   9  -1    2.07    0.12
   2  -9   1    1.93    0.12
  -3   9  -1    0.06    0.04
   3  -9   1    0.04    0.04
  -4   9  -1    0.08    0.05
   4  -9   1    0.08    0.05
   6   8  -1    0.43    0.08
   5   8  -1    0.08    0.06
   4   8  -1    1.05    0.09
   3   8  -1    4.73    0.18
   2   8  -1   19.04    0.45
   1   8  -1    3.92    0.16
   0   8  -1   17.25    0.39
   0  -8   1   16.52    0.40
  -1   8  -1    0.09    0.03
   1  -8   1    0.02    0.03
  -2   8  -1    1.27    0.09
   2  -8   1    1.35    0.09
  -3   8  -1    0.15    0.05
   3  -8   1    0.09    0.04
  -4   8  -1    0.58    0.07
   4  -8   1    0.75    0.08
  -5   8  -1    0.11    0.05
   5  -8   1    0.08    0.05
   6   7  -1    0.06    0.06
   5   7  -1    0.05    0.04
   4   7  -1    0.08    0.04
   3   7  -1    0.22    0.05
   2   7  -1    0.41    0.06
   1   7  -1    8.65    0.22
  -1  -7   1    8.28    0.24
   0   7  -1   35.15    0.69
   0  -7   1   34.26    0.71
  -1   7  -1    8.60    0.23
   1  -7   1    8.35    0.24
  -2   7  -1   25.78    0.55
   2  -7   1   25.41    0.56
  -3   7  -1    2.49    0.12
   3  -7   1    2.17    0.11
  -4   7  -1    2.33    0.12
   4  -7   1    2.24    0.12
  -5   7  -1    0.09    0.05
   5  -7   1    0.14    0.05
   6  -7   1   -0.04    0.04
   6  -7   1    0.07    0.04
   7   6  -1    0.05    0.06
   6   6  -1    0.02    0.05
   5   6  -1    0.64    0.07
   4   6  -1    0.14    0.04
   3   6  -1    0.22    0.04
   2   6  -1    1.45    0.07
   2   6  -1    1.45    0.08
   1   6  -1    4.33    0.13
  -1  -6   1    4.40    0.15
   0   6  -1    0.55    0.05
   0  -6   1    0.64    0.06
  -1   6  -1   48.82    0.92
   1  -6   1   46.97    0.93
  -2   6  -1   45.02    0.87
   2  -6   1   44.05    0.88
  -3   6  -1   16.76    0.34
  -3   6  -1   16.71    0.39
   3  -6   1   16.84    0.39
  -4   6  -1   46.36    0.82
   4  -6   1   44.55    0.90
   4  -6   1   43.95    0.90
  -5   6  -1    0.45    0.05
   5  -6   1    0.35    0.06
   5  -6   1    0.39    0.06
  -6   6  -1    4.99    0.16
   6  -6   1    5.14    0.20
   6  -6   1    4.74    0.19
  -7   6  -1   -0.02    0.03
   7  -6   1    0.05    0.04
   7  -6   1   -0.03    0.04
   8   5  -1    1.36    0.12
   7   5  -1    5.50    0.21
   6   5  -1   -0.02    0.05
   5   5  -1    5.32    0.17
   4   5  -1    1.60    0.09
   3   5  -1   11.96    0.29
   3   5  -1   12.36    0.26
   2   5  -1    0.18    0.03
   2   5  -1    0.15    0.03
  -2  -5   1    0.19    0.02
   1   5  -1    4.58    0.13
  -1  -5   1    4.56    0.09
  -1  -5   1    4.43    0.14
   0   5  -1   11.86    0.27
   0  -5   1   12.04    0.28
   0  -5   1   12.19    0.22
  -1   5  -1    0.19    0.03
  -1   5  -1    0.10    0.01
   1  -5   1    0.11    0.03
  -2   5  -1    0.19    0.02
  -2   5  -1    0.18    0.03
   2  -5   1    0.18    0.03
  -3   5  -1   21.24    0.40
   3  -5   1   20.77    0.45
   3  -5   1   20.73    0.45
  -4   5  -1    9.26    0.21
   4  -5   1    8.93    0.25
   4  -5   1    9.11    0.25
  -5   5  -1   21.55    0.44
   5  -5   1   21.45    0.49
   5  -5   1   21.08    0.48
  -6   5  -1   17.32    0.38
   6  -5   1   17.40    0.43
   6  -5   1   17.65    0.43
  -7   5  -1    1.09    0.08
   7  -5   1    0.99    0.09
   7  -5   1    1.09    0.09
   8   4  -1   -0.01    0.05
   7   4  -1    0.89    0.10
  -7  -4   1    1.00    0.07
   6   4  -1    3.03    0.14
  -6  -4   1    2.93    0.11
   5   4  -1    0.62    0.07
  -5  -4   1    0.57    0.04
   4   4  -1    6.49    0.15
   4   4  -1    6.24    0.18
  -4  -4   1    6.33    0.15
   3   4  -1   33.70    0.62
   3   4  -1   33.34    0.65
  -3  -4   1   32.94    0.59
   2   4  -1    5.82    0.16
   2   4  -1    5.82    0.14
  -2  -4   1    5.72    0.12
   1   4  -1   13.05    0.28
  -1  -4   1   13.59    0.24
  -1  -4   1   13.53    0.29
   0   4  -1    0.13    0.02
   0  -4   1    0.12    0.02
   0  -4   1    0.15    0.01
  -1   4  -1   13.29    0.25
  -1   4  -1   13.90    0.29
   1  -4   1   13.28    0.29
  -2   4  -1    1.91    0.06
   2  -4   1    1.99    0.08
   2  -4   1    1.89    0.08
  -3   4  -1    0.50    0.04
   3  -4   1    0.58    0.05
   3  -4   1    0.46    0.05
  -4   4  -1   -0.01    0.01
   4  -4   1    0.02    0.02
   4  -4   1    0.01    0.02
  -5   4  -1    3.01    0.11
   5  -4   1    2.90    0.13
   5  -4   1    3.17    0.13
  -6   4  -1    3.35    0.12
   6  -4   1    3.09    0.14
   6  -4   1    3.00    0.14
  -7   4  -1    4.62    0.16
   7  -4   1    4.86    0.19
   7  -4   1    4.80    0.18
  -8   4  -1    2.45    0.12
   8  -4   1    2.41    0.14
   8  -4   1    2.55    0.14
   8   3  -1    0.07    0.05
  -8  -3   1    0.13    0.04
   7   3  -1    2.88    0.14
  -7  -3   1    2.65    0.11
   6   3  -1    0.18    0.05
  -6  -3   1    0.17    0.04
   5   3  -1    3.37    0.13
   5   3  -1    3.53    0.11
  -5  -3   1    3.48    0.11
   4   3  -1    0.33    0.03
   4   3  -1    0.55    0.05
  -4  -3   1    0.30    0.03
   3   3  -1    0.46    0.03
   3   3  -1    0.39    0.04
  -3  -3   1    0.46    0.03
   2   3  -1    8.38    0.19
   2   3  -1    8.54    0.18
  -2  -3   1    8.44    0.16
   1   3  -1   27.83    0.52
  -1  -3   1   28.30    0.54
  -1  -3   1   28.62    0.48
   0   3  -1    1.06    0.05
   0  -3   1    1.06    0.03
   0  -3   1    1.05    0.05
  -1   3  -1    0.01    0.01
  -1   3  -1    0.00    0.01
   1  -3   1    0.01    0.01
  -2   3  -1   19.27    0.35
   2  -3   1   19.08    0.39
  -3   3  -1    2.63    0.08
   3  -3   1    2.66    0.09
   3  -3   1    2.56    0.09
  -4   3  -1    1.06    0.06
   4  -3   1    1.19    0.07
   4  -3   1    1.12    0.07
  -5   3  -1    1.16    0.07
   5  -3   1    1.10    0.07
   5  -3   1    1.30    0.08
  -6   3  -1    4.98    0.16
   6  -3   1    4.97    0.17
   6  -3   1    5.06    0.17
  -7   3  -1    3.78    0.14
   7  -3   1    3.70    0.15
   7  -3   1    3.65    0.15
  -8   3  -1    0.43    0.06
   8  -3   1    0.52    0.07
   8  -3   1    0.45    0.07
   8   2  -1    0.13    0.05
  -8  -2   1    0.01    0.03
   7   2  -1    0.16    0.05
  -7  -2   1    0.19    0.04
   6   2  -1    0.57    0.06
  -6  -2   1    0.41    0.05
   5   2  -1    0.88    0.05
   5   2  -1    0.71    0.06
  -5  -2   1    0.88    0.05
   4   2  -1    4.73    0.14
   4   2  -1    4.63    0.12
  -4  -2   1    4.60    0.12
   3   2  -1    6.05    0.14
   3   2  -1    6.17    0.15
  -3  -2   1    5.82    0.14
   2   2  -1   27.55    0.50
   2   2  -1   26.77    0.51
  -2  -2   1   27.32    0.48
   1   2  -1   29.14    0.55
   1   2  -1   29.54    0.54
  -1  -2   1   29.77    0.51
   0   2  -1   79.64    1.40
   0  -2   1   78.64    1.42
  -1   2  -1   17.12    0.33
  -1   2  -1   17.07    0.30
   1  -2   1   16.83    0.33
  -2   2  -1    1.75    0.05
   2  -2   1    1.84    0.07
   2  -2   1    1.81    0.06
  -3   2  -1    2.31    0.07
   3  -2   1    2.37    0.08
  -4   2  -1    7.10    0.17
   4  -2   1    6.96    0.18
   4  -2   1    7.03    0.18
  -5   2  -1    0.96    0.06
   5  -2   1    1.00    0.06
   5  -2   1    0.96    0.06
  -6   2  -1    5.97    0.17
   6  -2   1    5.82    0.19
   6  -2   1    6.08    0.18
  -7   2  -1    1.71    0.09
   7  -2   1    1.71    0.10
   7  -2   1    1.65    0.10
  -8   2  -1    1.86    0.11
   8  -2   1    1.83    0.11
   8  -2   1    2.02    0.12
   8   1  -1    0.39    0.06
  -8  -1   1    0.22    0.05
   7   1  -1    0.05    0.03
  -7  -1   1    0.02    0.03
   6   1  -1    0.03    0.03
   6   1  -1    0.02    0.02
  -6  -1   1   -0.01    0.02
   5   1  -1    0.17    0.03
   5   1  -1    0.18    0.04
  -5  -1   1    0.19    0.03
   4   1  -1    0.53    0.05
   4   1  -1    0.53    0.04
  -4  -1   1    0.51    0.04
   3   1  -1   14.80    0.29
   3   1  -1   14.64    0.30
  -3  -1   1   14.94    0.28
   2   1  -1   91.09    1.66
   2   1  -1   93.00    1.64
  -2  -1   1   95.31    1.57
   1   1  -1  101.18    1.79
   1   1  -1   98.23    1.80
  -1  -1   1  101.88    1.70
   0   1  -1  369.31    6.69
   0  -1   1  384.72    6.79
  -1   1  -1  160.32    2.69
   1  -1   1  156.18    2.84
  -2   1  -1  185.74    3.20
   2  -1   1  187.68    3.40
   2  -1   1  191.20    3.36
   3  -1   1    3.72    0.10
  -4   1  -1    1.77    0.07
   4  -1   1    1.77    0.07
  -5   1  -1    0.17    0.03
   5  -1   1    0.15    0.03
   5  -1   1    0.14    0.03
  -6   1  -1    3.54    0.13
   6  -1   1    3.48    0.13
   6  -1   1    3.60    0.13
  -7   1  -1    0.81    0.07
   7  -1   1    0.91    0.08
   7  -1   1    0.91    0.07
  -8   1  -1    0.40    0.06
   8  -1   1    0.36    0.06
  -9   1  -1    0.14    0.05
   9  -1   1    0.12    0.05
   8   0  -1    0.91    0.08
  -8   0   1    0.90    0.08
   7   0  -1    1.58    0.09
   7   0  -1    1.37    0.08
  -7   0   1    1.42    0.08
   6   0  -1    4.04    0.14
   6   0  -1    4.09    0.14
  -6   0   1    4.07    0.13
   5   0  -1    5.36    0.15
  -5   0   1    5.21    0.15
   4   0  -1    6.16    0.16
   4   0  -1    6.04    0.16
  -4   0   1    6.22    0.15
   3   0  -1   16.78    0.34
   3   0  -1   16.93    0.33
  -3   0   1   16.95    0.32
   2   0  -1    0.22    0.02
   2   0  -1    0.22    0.02
  -2   0   1    0.22    0.02
   1   0  -1  187.75    3.34
   1   0  -1  184.43    3.30
  -1   0   1  181.69    2.52
  -1   0   1  182.62    3.15
   1   0   1  116.10    2.12
  -2   0  -1  455.68    8.01
   2   0   1  478.55    8.41
   2   0   1  471.46    8.28
   3   0   1   20.68    0.41
   3   0   1   20.95    0.40
  -4   0  -1  118.53    1.99
   4   0   1  115.23    2.07
   4   0   1  116.97    2.11
  -5   0  -1    0.17    0.03
   5   0   1    0.00    0.02
   5   0   1    0.00    0.02
  -6   0  -1   11.61    0.27
   6   0   1   11.61    0.27
   6   0   1   11.53    0.29
  -7   0  -1    0.08    0.03
   7   0   1    0.09    0.04
  -8   0  -1    0.08    0.04
   8   0   1    0.07    0.04
  -9   0  -1    0.29    0.06
   9   0   1    0.39    0.07
   8  -1  -1    0.65    0.07
   8  -1  -1    0.75    0.08
  -8   1   1    0.71    0.07
   7  -1  -1   11.37    0.30
   7  -1  -1   11.39    0.30
  -7   1   1   11.41    0.29
   6  -1  -1    4.23    0.14
   6  -1  -1    4.04    0.14
  -6   1   1    4.05    0.14
   5  -1  -1    5.72    0.16
   5  -1  -1    5.41    0.16
  -5   1   1    5.51    0.16
   4  -1  -1    0.95    0.05
   4  -1  -1    1.10    0.06
  -4   1   1    1.04    0.05
   3  -1  -1    5.38    0.13
  -3   1   1    5.05    0.13
   2  -1  -1  109.22    1.94
   2  -1  -1  108.27    1.92
  -2   1   1  108.48    1.83
   1  -1  -1   37.58    0.68
   1  -1  -1   37.34    0.67
  -1   1   1   37.20    0.64
  -1   1   1   36.43    0.51
   0  -1  -1   76.61    1.34
   0  -1  -1   77.95    1.40
  -1  -1  -1   47.75    0.82
   1   1   1   48.55    0.87
  -2  -1  -1  390.75    6.65
   2   1   1  393.91    7.05
   2   1   1  394.08    6.96
  -3  -1  -1   42.13    0.74
   3   1   1   42.65    0.76
   3   1   1   42.45    0.79
  -4  -1  -1  227.50    3.81
   4   1   1  227.95    4.05
   4   1   1  226.27    3.97
  -5  -1  -1    0.18    0.03
   5   1   1    0.14    0.03
   5   1   1    0.19    0.04
  -6  -1  -1   40.15    0.75
   6   1   1   39.82    0.80
  -7  -1  -1    0.33    0.05
   7   1   1    0.30    0.05
  -8  -1  -1    4.31    0.16
   8   1   1    4.27    0.17
  -9  -1  -1    0.00    0.03
   9   1   1    0.04    0.04
   8  -2  -1    0.13    0.04
  -8   2   1    0.05    0.04
   7  -2  -1    3.03    0.13
   7  -2  -1    3.06    0.14
  -7   2   1    3.12    0.13
   6  -2  -1    1.87    0.09
   6  -2  -1    1.63    0.09
  -6   2   1    1.59    0.09
   5  -2  -1    8.29    0.22
   5  -2  -1    8.46    0.22
  -5   2   1    8.41    0.21
   4  -2  -1    2.30    0.09
   4  -2  -1    2.32    0.09
  -4   2   1    2.35    0.08
   3  -2  -1   13.34    0.28
  -3   2   1   13.52    0.27
   2  -2  -1   11.40    0.23
  -2   2   1   11.39    0.18
   1  -2  -1   26.82    0.50
   1  -2  -1   26.08    0.50
   1  -2  -1   27.27    0.47
   0  -2  -1   69.02    1.24
   0  -2  -1   69.54    1.18
   0  -2  -1   70.86    1.25
  -1  -2  -1  106.02    1.78
   1   2   1  102.84    1.86
  -2  -2  -1   29.72    0.51
   2   2   1   28.40    0.54
  -3  -2  -1   46.99    0.82
   3   2   1   47.38    0.88
   3   2   1   47.31    0.84
  -4  -2  -1   72.59    1.26
   4   2   1   73.02    1.30
   4   2   1   73.09    1.35
  -5  -2  -1    4.20    0.12
   5   2   1    4.05    0.14
   5   2   1    3.87    0.11
  -6  -2  -1   72.77    1.28
   6   2   1   71.48    1.37
  -7  -2  -1    1.56    0.09
   7   2   1    1.56    0.10
  -8  -2  -1   10.05    0.27
   8   2   1   10.45    0.30
  -9  -2  -1    0.08    0.04
   9   2   1    0.10    0.05
   8  -3  -1    0.05    0.04
  -8   3   1    0.06    0.04
   7  -3  -1    2.01    0.11
   7  -3  -1    1.87    0.11
  -7   3   1    1.91    0.10
   6  -3  -1    2.98    0.13
   6  -3  -1    2.77    0.12
  -6   3   1    2.86    0.12
   5  -3  -1   29.18    0.61
   5  -3  -1   29.96    0.60
  -5   3   1   29.46    0.57
   4  -3  -1    6.57    0.18
   4  -3  -1    6.47    0.17
  -4   3   1    6.63    0.17
   3  -3  -1   42.10    0.79
   3  -3  -1   41.26    0.79
  -3   3   1   41.91    0.74
   2  -3  -1    0.73    0.04
   2  -3  -1    0.59    0.04
  -2   3   1    0.54    0.03
  -2   3   1    0.54    0.03
   1  -3  -1    3.23    0.09
   1  -3  -1    3.42    0.08
   1  -3  -1    3.33    0.09
   0  -3  -1   55.76    0.94
   0  -3  -1   54.55    1.01
   0  -3  -1   54.87    0.99
  -1  -3  -1    4.08    0.09
   1   3   1    3.97    0.11
   1   3   1    4.07    0.09
  -2  -3  -1    0.03    0.01
   2   3   1    0.00    0.01
   2   3   1    0.11    0.02
  -3  -3  -1   45.20    0.80
   3   3   1   47.09    0.82
   3   3   1   45.39    0.86
  -4  -3  -1    7.90    0.18
   4   3   1    8.19    0.16
   4   3   1    7.52    0.20
  -5  -3  -1    7.81    0.19
   5   3   1    7.72    0.22
  -6  -3  -1    0.03    0.03
   6   3   1    0.00    0.05
  -7  -3  -1   13.98    0.33
   7   3   1   14.71    0.37
  -8  -3  -1   11.00    0.29
   8   3   1   11.19    0.32
   8  -4  -1    0.12    0.05
  -8   4   1    0.13    0.04
   7  -4  -1    0.40    0.06
  -7   4   1    0.37    0.05
   6  -4  -1    0.13    0.04
   6  -4  -1    0.09    0.03
  -6   4   1    0.03    0.03
   5  -4  -1    0.59    0.06
   5  -4  -1    0.58    0.06
  -5   4   1    0.67    0.05
   4  -4  -1    3.09    0.11
   4  -4  -1    3.08    0.12
  -4   4   1    2.90    0.10
   3  -4  -1   20.43    0.42
   3  -4  -1   19.76    0.43
  -3   4   1   20.68    0.39
   2  -4  -1   19.08    0.39
   2  -4  -1   19.28    0.40
  -2   4   1   18.85    0.36
  -2   4   1   19.13    0.29
   1  -4  -1  115.52    2.05
   1  -4  -1  116.03    2.08
   1  -4  -1  114.59    1.95
   0  -4  -1   14.31    0.29
   0  -4  -1   14.79    0.27
   0  -4  -1   14.53    0.30
  -1  -4  -1   21.24    0.38
   1   4   1   20.85    0.40
   1   4   1   21.13    0.42
  -2  -4  -1   18.50    0.34
   2   4   1   18.97    0.35
   2   4   1   18.24    0.38
  -3  -4  -1    7.96    0.18
   3   4   1    8.47    0.20
   3   4   1    8.44    0.17
  -4  -4  -1    0.37    0.03
   4   4   1    0.47    0.05
  -5  -4  -1    0.93    0.06
   5   4   1    0.99    0.08
  -6  -4  -1    2.69    0.11
   6   4   1    2.55    0.13
  -7  -4  -1    0.33    0.05
   7   4   1    0.38    0.07
  -8  -4  -1    0.00    0.03
   8   4   1   -0.01    0.05
   7  -5  -1   -0.02    0.03
  -7   5   1    0.00    0.03
   6  -5  -1    0.19    0.05
   6  -5  -1    0.22    0.05
  -6   5   1    0.19    0.04
   5  -5  -1    2.89    0.13
   5  -5  -1    2.96    0.13
  -5   5   1    2.94    0.11
   4  -5  -1    0.68    0.06
   4  -5  -1    0.73    0.06
  -4   5   1    0.63    0.05
   3  -5  -1   11.73    0.28
   3  -5  -1   11.56    0.27
  -3   5   1   11.03    0.25
   2  -5  -1    3.63    0.12
   2  -5  -1    3.53    0.12
  -2   5   1    3.63    0.10
  -2   5   1    3.52    0.08
   1  -5  -1    1.95    0.08
   1  -5  -1    1.71    0.07
   1  -5  -1    1.67    0.06
   0  -5  -1    3.18    0.11
   0  -5  -1    3.13    0.08
   0   5   1    3.15    0.10
  -1  -5  -1    1.29    0.05
   1   5   1    1.23    0.05
   1   5   1    1.26    0.07
  -2  -5  -1   14.12    0.27
   2   5   1   14.25    0.32
   2   5   1   14.02    0.28
  -3  -5  -1    0.08    0.02
   3   5   1    0.02    0.03
  -4  -5  -1    0.13    0.02
   4   5   1    0.07    0.04
  -5  -5  -1    0.07    0.02
   5   5   1    0.04    0.04
  -6  -5  -1    1.90    0.09
   6   5   1    1.88    0.11
  -7  -5  -1    0.02    0.03
   7   5   1    0.08    0.06
   8   5   1    0.05    0.06
   7  -6  -1    0.15    0.05
  -7   6   1    0.12    0.04
   6  -6  -1    0.49    0.07
  -6   6   1    0.47    0.05
   5  -6  -1    0.50    0.07
   5  -6  -1    0.54    0.06
  -5   6   1    0.56    0.05
   4  -6  -1    1.35    0.09
   4  -6  -1    1.35    0.09
  -4   6   1    1.41    0.07
   3  -6  -1    0.01    0.03
   3  -6  -1   -0.01    0.02
  -3   6   1    0.01    0.02
   2  -6  -1    0.80    0.06
   2  -6  -1    0.80    0.06
  -2   6   1    0.79    0.05
  -2   6   1    0.87    0.04
   1  -6  -1    4.35    0.14
   1  -6  -1    4.53    0.12
   1  -6  -1    4.44    0.14
   0  -6  -1    4.65    0.12
   0  -6  -1    4.75    0.15
   0   6   1    4.45    0.14
  -1  -6  -1    1.35    0.05
   1   6   1    1.30    0.06
   1   6   1    1.25    0.07
  -2  -6  -1    1.31    0.05
   2   6   1    1.19    0.08
  -3  -6  -1    0.13    0.02
   3   6   1    0.05    0.03
   4   6   1    0.36    0.05
   5   6   1    0.08    0.05
   6   6   1    0.34    0.07
   7   6   1   -0.08    0.05
   6  -7  -1   -0.03    0.03
  -6   7   1   -0.02    0.03
   5  -7  -1    0.01    0.03
   5  -7  -1    0.01    0.04
  -5   7   1    0.00    0.03
   4  -7  -1    0.75    0.07
   4  -7  -1    0.73    0.07
  -4   7   1    0.77    0.06
   3  -7  -1    0.01    0.03
   3  -7  -1   -0.03    0.02
  -3   7   1    0.04    0.02
   2  -7  -1   10.37    0.27
   2  -7  -1   10.50    0.28
  -2   7   1   10.89    0.19
  -2   7   1   10.49    0.23
   1  -7  -1    5.65    0.18
  -1   7   1    5.35    0.17
   0  -7  -1    1.75    0.09
   0   7   1    1.72    0.08
   1   7   1    3.61    0.14
   2   7   1   24.19    0.52
   3   7   1    1.02    0.08
   4   7   1    1.14    0.09
   5   7   1   -0.07    0.05
   6   7   1    0.43    0.08
   7   7   1   -0.09    0.06
   5  -8  -1    0.19    0.05
   4  -8  -1    0.01    0.03
   4  -8  -1   -0.01    0.03
   3  -8  -1    0.02    0.03
   2  -8  -1    0.35    0.05
  -2   8   1    0.29    0.05
   1  -8  -1    0.19    0.04
  -1   8   1    0.18    0.04
   0  -8  -1    3.09    0.13
   0   8   1    3.12    0.12
   1   8   1    1.14    0.09
   2   8   1    0.06    0.04
   3   8   1    6.69    0.22
   4   8   1   19.09    0.45
   5   8   1    0.97    0.10
   6   8   1    3.90    0.18
   4  -9  -1    1.60    0.11
  -4   9   1    1.72    0.12
   3  -9  -1   -0.02    0.04
  -3   9   1    0.07    0.04
   2  -9  -1    0.02    0.03
  -2   9   1    0.07    0.04
   1  -9  -1    0.10    0.04
  -1   9   1    0.18    0.04
   0  -9  -1    0.47    0.06
   1   9   1    0.00    0.03
   2   9   1    0.04    0.04
   3   9   1    0.97    0.09
   4   9   1    0.13    0.06
   5   9   1    0.69    0.09
   3 -10  -1    3.67    0.17
  -3  10   1    3.55    0.17
   2 -10  -1    0.18    0.05
  -2  10   1    0.17    0.05
   1 -10  -1    1.31    0.10
   0  10   1    0.14    0.05
   1  10   1    0.06    0.05
   2  10   1    1.54    0.11
   3  10   1    0.65    0.09
   2  10  -2    2.42    0.14
   1  10  -2    1.44    0.12
   0 -10   2    0.20    0.06
  -1  10  -2    0.68    0.08
   1 -10   2    0.77    0.09
  -2  10  -2    0.17    0.05
   2 -10   2    0.15    0.05
   4   9  -2    0.20    0.06
   3   9  -2    0.83    0.09
   2   9  -2    0.09    0.05
   1   9  -2   -0.07    0.05
   0   9  -2    0.56    0.06
   0  -9   2    0.55    0.07
  -1   9  -2    0.67    0.07
   1  -9   2    0.57    0.07
  -2   9  -2    1.31    0.10
   2  -9   2    1.31    0.10
  -3   9  -2    0.33    0.06
   3  -9   2    0.31    0.06
  -4   9  -2    0.30    0.06
   4  -9   2    0.23    0.06
   5   8  -2    0.01    0.04
   4   8  -2    0.51    0.07
   3   8  -2    0.24    0.06
   2   8  -2   -0.01    0.04
  -1  -8   2    0.59    0.07
   0   8  -2    0.27    0.05
   0  -8   2    0.04    0.03
  -1   8  -2    1.54    0.09
   1  -8   2    1.40    0.10
  -2   8  -2    0.46    0.06
   2  -8   2    0.61    0.07
  -3   8  -2    4.41    0.18
   3  -8   2    4.71    0.18
  -4   8  -2    1.30    0.10
   4  -8   2    1.27    0.10
  -5   8  -2    0.19    0.06
   5  -8   2    0.30    0.06
   6   7  -2   -0.04    0.05
   5   7  -2   -0.05    0.04
   4   7  -2    0.02    0.04
   3   7  -2    0.30    0.05
   2   7  -2    1.21    0.08
   2   7  -2    1.33    0.09
   1   7  -2    5.97    0.17
  -1  -7   2    5.57    0.18
   0   7  -2   11.03    0.28
   0  -7   2   11.00    0.29
  -1   7  -2    1.65    0.09
   1  -7   2    1.80    0.10
  -2   7  -2    8.85    0.25
   2  -7   2    8.77    0.25
  -3   7  -2    1.42    0.09
   3  -7   2    1.51    0.10
  -4   7  -2    0.05    0.04
   4  -7   2    0.04    0.04
  -5   7  -2    1.87    0.12
   5  -7   2    1.83    0.12
  -6   7  -2    1.34    0.11
   6  -7   2    1.31    0.11
   7   6  -2    1.22    0.11
   6   6  -2    0.29    0.07
   5   6  -2    0.35    0.06
   4   6  -2    0.01    0.03
   3   6  -2    0.06    0.03
   2   6  -2    0.01    0.03
   2   6  -2    0.00    0.03
   1   6  -2   17.29    0.37
  -1  -6   2   17.68    0.39
   0   6  -2    1.97    0.09
   0  -6   2    1.90    0.09
  -1   6  -2   -0.01    0.02
   1  -6   2    0.02    0.02
  -2   6  -2   -0.02    0.03
   2  -6   2   -0.03    0.02
  -3   6  -2   26.32    0.56
   3  -6   2   26.26    0.57
  -4   6  -2   27.24    0.59
   4  -6   2   26.77    0.59
  -5   6  -2    0.27    0.05
   5  -6   2    0.35    0.06
  -6   6  -2    4.81    0.16
  -6   6  -2    4.50    0.19
   6  -6   2    4.75    0.19
  -7   6  -2    0.06    0.05
  -7   6  -2    0.05    0.04
   7  -6   2    0.10    0.05
   7   5  -2    0.06    0.06
   6   5  -2   10.08    0.28
   5   5  -2    5.24    0.17
   4   5  -2    2.81    0.12
   3   5  -2   12.13    0.29
   3   5  -2   12.27    0.27
   2   5  -2    0.05    0.03
   2   5  -2    0.03    0.02
   1   5  -2   13.06    0.29
  -1  -5   2   13.72    0.31
   0   5  -2    3.29    0.11
   0  -5   2    3.41    0.12
  -1   5  -2    3.56    0.12
   1  -5   2    3.61    0.12
  -2   5  -2    1.77    0.08
  -2   5  -2    1.62    0.06
   2  -5   2    1.65    0.08
  -3   5  -2    4.97    0.16
  -3   5  -2    4.97    0.13
   3  -5   2    5.00    0.16
  -4   5  -2    2.81    0.10
  -4   5  -2    2.68    0.12
   4  -5   2    2.81    0.12
  -5   5  -2   14.24    0.31
   5  -5   2   14.12    0.35
   5  -5   2   13.49    0.35
  -6   5  -2    6.90    0.19
   6  -5   2    6.42    0.22
   6  -5   2    6.69    0.22
  -7   5  -2    4.97    0.17
   7  -5   2    5.17    0.20
   7  -5   2    4.77    0.20
   8   4  -2    0.29    0.07
   7   4  -2    1.62    0.11
   6   4  -2    0.29    0.06
   5   4  -2    5.28    0.17
  -5  -4   2    5.20    0.14
   4   4  -2   16.95    0.37
   4   4  -2   17.68    0.35
  -4  -4   2   16.65    0.33
   3   4  -2   18.13    0.36
   3   4  -2   17.16    0.37
  -3  -4   2   17.47    0.33
   2   4  -2   15.25    0.31
   2   4  -2   15.19    0.33
  -2  -4   2   15.22    0.27
   1   4  -2   16.98    0.34
  -1  -4   2   16.81    0.36
   0   4  -2    7.47    0.18
  -1   4  -2    8.10    0.20
  -1   4  -2    7.60    0.15
  -2   4  -2    1.81    0.06
  -2   4  -2    1.88    0.08
   2  -4   2    1.91    0.08
  -3   4  -2    0.01    0.02
  -3   4  -2    0.03    0.02
   3  -4   2   -0.01    0.02
  -4   4  -2   10.70    0.24
   4  -4   2   11.37    0.28
   4  -4   2   11.10    0.28
  -5   4  -2    0.25    0.04
   5  -4   2    0.37    0.05
   5  -4   2    0.28    0.05
  -6   4  -2    0.52    0.05
   6  -4   2    0.39    0.05
   6  -4   2    0.53    0.07
  -7   4  -2    3.46    0.14
   7  -4   2    3.65    0.16
   7  -4   2    3.65    0.16
  -8   4  -2    1.08    0.09
   8  -4   2    1.05    0.10
   8  -4   2    1.03    0.10
   8   3  -2    0.03    0.04
  -8  -3   2    0.00    0.03
   7   3  -2    0.40    0.07
  -7  -3   2    0.32    0.05
   6   3  -2    0.29    0.05
  -6  -3   2    0.28    0.04
   5   3  -2    1.47    0.09
   5   3  -2    1.43    0.07
  -5  -3   2    1.37    0.07
   4   3  -2   17.20    0.35
   4   3  -2   17.36    0.37
  -4  -3   2   17.70    0.34
   3   3  -2    9.25    0.21
   3   3  -2    9.18    0.20
  -3  -3   2    8.93    0.19
   2   3  -2  109.59    1.96
   2   3  -2  106.87    1.92
  -2  -3   2  109.45    1.82
   1   3  -2  133.12    2.35
  -1  -3   2  133.42    2.39
   0   3  -2    1.49    0.06
   0  -3   2    1.32    0.06
  -1   3  -2   20.32    0.36
  -1   3  -2   20.55    0.40
   1  -3   2   20.23    0.41
  -2   3  -2    1.22    0.04
  -2   3  -2    1.20    0.06
   2  -3   2    1.14    0.06
  -3   3  -2    1.40    0.05
   3  -3   2    1.24    0.07
   3  -3   2    1.39    0.07
  -4   3  -2    4.08    0.12
   4  -3   2    4.16    0.14
   4  -3   2    4.46    0.14
  -5   3  -2    4.05    0.13
   5  -3   2    4.34    0.15
   5  -3   2    4.19    0.14
  -6   3  -2    0.04    0.03
   6  -3   2    0.06    0.03
   6  -3   2    0.03    0.03
  -7   3  -2    0.32    0.05
   7  -3   2    0.40    0.06
   7  -3   2    0.38    0.06
  -8   3  -2   -0.01    0.03
   8  -3   2    0.01    0.03
   8  -3   2   -0.01    0.04
  -8  -2   2   -0.01    0.03
   7   2  -2   -0.01    0.03
  -7  -2   2   -0.01    0.02
   6   2  -2    0.67    0.07
   6   2  -2    0.72    0.05
  -6  -2   2    1.06    0.07
   5   2  -2    2.31    0.10
   5   2  -2    2.24    0.09
  -5  -2   2    2.09    0.08
   4   2  -2    0.71    0.06
   4   2  -2    0.72    0.04
  -4  -2   2    0.60    0.04
   3   2  -2    0.76    0.05
   3   2  -2    0.72    0.04
  -3  -2   2    0.74    0.04
   2   2  -2   16.10    0.32
   2   2  -2   16.54    0.33
  -2  -2   2   16.62    0.30
   1   2  -2   17.32    0.34
  -1  -2   2   17.69    0.31
  -1  -2   2   17.64    0.34
   0   2  -2  779.70   14.33
   0  -2   2  849.17   14.54
  -1   2  -2  135.85    2.40
  -1   2  -2  137.59    2.32
   1  -2   2  134.78    2.43
  -2   2  -2   52.84    0.89
  -2   2  -2   51.37    0.95
   2  -2   2   52.46    0.97
  -3   2  -2   77.79    1.34
   3  -2   2   79.09    1.41
   3  -2   2   77.91    1.44
  -4   2  -2    8.47    0.19
   4  -2   2    8.52    0.21
   4  -2   2    8.28    0.21
  -5   2  -2    3.40    0.11
   5  -2   2    3.39    0.12
   5  -2   2    3.30    0.12
  -6   2  -2    0.09    0.03
   6  -2   2    0.10    0.03
   6  -2   2    0.05    0.04
  -7   2  -2    0.00    0.03
   7  -2   2    0.04    0.04
   7  -2   2    0.07    0.03
  -8   2  -2   -0.05    0.03
   8  -2   2   -0.01    0.04
  -9   2  -2    0.49    0.07
  -8  -1   2   -0.01    0.03
   7   1  -2    0.02    0.03
   7   1  -2    0.01    0.03
  -7  -1   2   -0.01    0.03
   6   1  -2    0.17    0.03
   6   1  -2    0.22    0.04
  -6  -1   2    0.13    0.03
   5   1  -2    2.36    0.10
   5   1  -2    2.34    0.09
  -5  -1   2    2.39    0.09
   4   1  -2   11.32    0.25
   4   1  -2   11.37    0.25
  -4  -1   2   11.23    0.24
   3   1  -2    0.37    0.03
   3   1  -2    0.31    0.03
  -3  -1   2    0.35    0.03
   2   1  -2   24.78    0.47
   2   1  -2   25.55    0.47
  -2  -1   2   25.26    0.45
   1   1  -2  234.03    4.30
   1   1  -2  238.70    4.25
  -1  -1   2  244.23    4.06
   0   1  -2  218.09    3.96
   0  -1   2  223.42    4.02
  -1   1  -2   15.33    0.27
  -1   1  -2   15.60    0.30
   1  -1   2   15.72    0.30
  -2   1  -2   73.56    1.25
  -2   1  -2   74.01    1.32
  -4   1  -2   40.17    0.69
   4  -1   2   37.26    0.72
   4  -1   2   36.70    0.73
  -5   1  -2    6.28    0.16
   5  -1   2    6.15    0.18
   5  -1   2    5.81    0.16
  -6   1  -2    1.39    0.08
   6  -1   2    1.34    0.09
   6  -1   2    1.48    0.08
  -7   1  -2    0.78    0.06
   7  -1   2    0.83    0.08
   7  -1   2    0.81    0.06
  -8   1  -2    0.25    0.05
   8  -1   2    0.26    0.06
  -9   1  -2    0.04    0.04
   9  -1   2    0.04    0.04
  -8   0   2    0.00    0.03
   7   0  -2    0.14    0.04
   7   0  -2    0.21    0.04
  -7   0   2    0.10    0.03
   6   0  -2    0.45    0.05
   6   0  -2    0.46    0.05
  -6   0   2    0.44    0.05
   5   0  -2    1.68    0.08
   5   0  -2    1.76    0.08
  -5   0   2    1.67    0.08
   4   0  -2   13.14    0.29
   4   0  -2   13.15    0.28
  -4   0   2   13.13    0.27
   3   0  -2    1.50    0.06
   3   0  -2    1.47    0.06
  -3   0   2    1.51    0.06
   2   0  -2   13.42    0.27
   2   0  -2   13.59    0.26
  -2   0   2   13.43    0.25
   1   0  -2  252.56    4.44
   1   0  -2  243.71    4.21
   0   0  -2  163.26    3.31
   0   0  -2  186.45    3.14
  -1   0  -2   19.03    0.33
  -1   0  -2   19.13    0.35
   1   0   2   18.62    0.35
  -2   0  -2   18.56    0.34
  -3   0  -2   23.39    0.43
   3   0   2   23.43    0.46
   3   0   2   23.99    0.44
  -4   0  -2   37.03    0.66
   4   0   2   36.52    0.68
   4   0   2   36.66    0.71
  -5   0  -2    0.54    0.04
   5   0   2    0.54    0.05
   5   0   2    0.49    0.04
  -6   0  -2    0.50    0.05
   6   0   2    0.47    0.05
   6   0   2    0.38    0.05
  -7   0  -2    0.12    0.03
   7   0   2    0.14    0.05
  -8   0  -2    0.00    0.03
   8   0   2   -0.06    0.04
  -9   0  -2    0.06    0.04
   9   0   2    0.12    0.05
   8  -1  -2    0.09    0.04
  -8   1   2    0.08    0.04
   7  -1  -2    2.59    0.12
  -7   1   2    2.62    0.12
   6  -1  -2    0.55    0.06
   6  -1  -2    0.58    0.06
  -6   1   2    0.56    0.06
   5  -1  -2    0.02    0.02
   5  -1  -2    0.01    0.02
  -5   1   2    0.01    0.02
   4  -1  -2    4.46    0.12
  -4   1   2    4.44    0.13
   3  -1  -2    5.26    0.14
   3  -1  -2    5.41    0.13
  -3   1   2    5.30    0.13
   2  -1  -2    0.37    0.03
   2  -1  -2    0.46    0.02
  -2   1   2    0.45    0.03
  -2   1   2    0.42    0.02
   1  -1  -2   24.95    0.44
   1  -1  -2   24.99    0.46
   0  -1  -2    0.00    0.01
   0  -1  -2    0.04    0.01
   1   1   2    5.14    0.11
  -2  -1  -2   12.13    0.23
  -2  -1  -2   11.98    0.23
   2   1   2   12.09    0.25
  -3  -1  -2   24.73    0.46
   3   1   2   25.08    0.49
   3   1   2   25.36    0.46
  -4  -1  -2   -0.03    0.02
   4   1   2    0.05    0.03
   4   1   2    0.01    0.02
  -6  -1  -2    3.71    0.13
   6   1   2    3.68    0.14
  -7  -1  -2    0.00    0.03
   7   1   2    0.03    0.04
  -8  -1  -2    3.79    0.15
   8   1   2    4.10    0.17
  -9  -1  -2    0.01    0.03
   9   1   2    0.02    0.04
   8  -2  -2    0.95    0.08
  -8   2   2    0.98    0.08
   7  -2  -2    0.31    0.05
  -7   2   2    0.48    0.06
   6  -2  -2    2.80    0.11
   6  -2  -2    2.64    0.12
  -6   2   2    2.45    0.11
   5  -2  -2   42.85    0.82
   5  -2  -2   42.11    0.83
  -5   2   2   42.33    0.79
   4  -2  -2    0.74    0.05
   4  -2  -2    0.62    0.05
  -4   2   2    0.57    0.04
   3  -2  -2   62.37    1.14
   3  -2  -2   62.30    1.15
  -3   2   2   63.17    1.09
   2  -2  -2    0.41    0.03
   2  -2  -2    0.37    0.03
  -2   2   2    0.38    0.03
  -2   2   2    0.40    0.02
   1  -2  -2    1.67    0.05
   1  -2  -2    1.64    0.05
   0  -2  -2    8.66    0.17
   0  -2  -2    8.62    0.17
   0  -2  -2    8.71    0.17
  -1  -2  -2    0.02    0.01
   1   2   2   -0.01    0.01
  -2  -2  -2   54.60    0.94
   2   2   2   54.69    1.00
  -3  -2  -2    0.17    0.02
   3   2   2    0.16    0.01
   3   2   2    0.17    0.03
  -4  -2  -2    0.17    0.03
   4   2   2    0.33    0.02
   4   2   2    0.30    0.04
  -5  -2  -2    7.85    0.19
   5   2   2    7.43    0.21
  -6  -2  -2   21.09    0.43
   6   2   2   20.56    0.47
  -7  -2  -2    0.66    0.06
   7   2   2    0.65    0.08
  -8  -2  -2    5.51    0.18
   8   2   2    5.43    0.20
  -9  -2  -2    0.11    0.04
   9   2   2    0.05    0.05
   8  -3  -2    0.05    0.04
  -8   3   2    0.04    0.04
   7  -3  -2    0.26    0.05
  -7   3   2    0.30    0.05
   6  -3  -2    0.11    0.04
  -6   3   2    0.17    0.04
   5  -3  -2    3.51    0.13
   5  -3  -2    3.45    0.14
  -5   3   2    3.76    0.13
   4  -3  -2   41.11    0.79
  -4   3   2   41.08    0.75
   3  -3  -2   78.66    1.42
   3  -3  -2   76.74    1.42
  -3   3   2   78.38    1.35
   2  -3  -2   19.31    0.38
   2  -3  -2   19.06    0.39
  -2   3   2   19.37    0.36
  -2   3   2   19.26    0.29
   1  -3  -2  348.75    6.08
   1  -3  -2  340.81    6.10
   1  -3  -2  331.71    5.75
   0  -3  -2   69.12    1.23
   0  -3  -2   70.06    1.18
   0  -3  -2   68.85    1.25
  -1  -3  -2   25.62    0.46
  -1  -3  -2   25.29    0.45
   1   3   2   25.25    0.48
  -2  -3  -2   22.27    0.41
   2   3   2   22.49    0.44
  -3  -3  -2    0.24    0.03
   3   3   2    0.26    0.03
  -4  -3  -2    2.96    0.09
   4   3   2    2.73    0.11
  -5  -3  -2   12.96    0.28
   5   3   2   12.01    0.30
  -6  -3  -2    5.71    0.17
   6   3   2    5.33    0.18
  -7  -3  -2    0.00    0.03
   7   3   2   -0.01    0.04
  -8  -3  -2    3.30    0.14
   8   3   2    3.02    0.15
  -9  -3  -2    0.93    0.08
   9   3   2    0.95    0.10
   8  -4  -2   -0.01    0.03
  -8   4   2    0.02    0.04
   7  -4  -2    0.29    0.06
  -7   4   2    0.38    0.06
   6  -4  -2    1.24    0.09
  -6   4   2    1.49    0.09
   5  -4  -2    5.48    0.19
   5  -4  -2    5.84    0.17
  -5   4   2    5.52    0.17
   4  -4  -2    1.63    0.09
   4  -4  -2    1.84    0.08
  -4   4   2    1.70    0.08
   3  -4  -2    0.32    0.04
   3  -4  -2    0.29    0.04
  -3   4   2    0.30    0.03
  -3   4   2    0.34    0.03
   2  -4  -2   11.68    0.25
   2  -4  -2   11.56    0.26
  -2   4   2   11.65    0.19
  -2   4   2   11.49    0.24
   1  -4  -2   11.72    0.25
   1  -4  -2   11.78    0.24
   1  -4  -2   11.55    0.25
   0  -4  -2  214.04    3.58
   0  -4  -2  214.02    3.76
   0  -4  -2  212.01    3.79
  -1  -4  -2  148.59    2.50
   1   4   2  146.91    2.62
   1   4   2  152.36    2.67
  -2  -4  -2   15.81    0.30
   2   4   2   16.24    0.34
   2   4   2   16.32    0.30
  -3  -4  -2    7.79    0.17
   3   4   2    7.96    0.20
  -4  -4  -2    0.78    0.05
   4   4   2    0.72    0.06
  -5  -4  -2    0.42    0.04
   5   4   2    0.48    0.06
  -6  -4  -2   -0.01    0.02
   6   4   2   -0.03    0.04
  -7  -4  -2    0.37    0.05
   7   4   2    0.22    0.06
  -8  -4  -2    0.81    0.08
   8   4   2    1.06    0.10
   7  -5  -2    0.23    0.05
  -7   5   2    0.16    0.05
   6  -5  -2    0.53    0.07
  -6   5   2    0.64    0.06
   5  -5  -2    4.82    0.18
   5  -5  -2    5.18    0.17
  -5   5   2    4.96    0.16
   4  -5  -2    9.61    0.26
   4  -5  -2    9.49    0.24
  -4   5   2    8.74    0.22
   3  -5  -2    0.05    0.03
   3  -5  -2    0.03    0.02
  -3   5   2    0.09    0.02
  -3   5   2    0.04    0.02
   2  -5  -2   26.48    0.52
   2  -5  -2   25.75    0.52
  -2   5   2   25.73    0.48
  -2   5   2   25.25    0.39
   1  -5  -2   21.91    0.45
   1  -5  -2   22.10    0.41
   1  -5  -2   22.20    0.45
   0  -5  -2    0.36    0.04
   0  -5  -2    0.34    0.03
   0  -5  -2    0.29    0.03
  -1  -5  -2   57.57    0.98
   1   5   2   57.15    1.07
   1   5   2   56.42    1.03
  -2  -5  -2   13.34    0.26
   2   5   2   13.10    0.29
  -3  -5  -2   42.03    0.75
   3   5   2   43.02    0.82
  -4  -5  -2   10.15    0.23
   4   5   2   10.42    0.26
  -5  -5  -2    4.05    0.12
   5   5   2    3.67    0.14
  -6  -5  -2    0.26    0.04
   6   5   2    0.23    0.06
  -7  -5  -2    0.16    0.04
   7   5   2    0.06    0.05
  -8  -5  -2   -0.02    0.03
   8   5   2   -0.07    0.05
   7  -6  -2   -0.01    0.04
  -7   6   2   -0.03    0.03
   6  -6  -2    0.38    0.06
  -6   6   2    0.44    0.06
   5  -6  -2    1.06    0.09
  -5   6   2    1.06    0.07
   4  -6  -2    2.54    0.12
   4  -6  -2    2.57    0.11
  -4   6   2    2.38    0.10
   3  -6  -2    0.13    0.04
   3  -6  -2    0.19    0.04
  -3   6   2    0.12    0.03
  -3   6   2    0.17    0.02
   2  -6  -2    2.02    0.09
   2  -6  -2    1.88    0.09
  -2   6   2    1.85    0.08
  -2   6   2    1.86    0.06
   1  -6  -2    1.47    0.07
   1  -6  -2    1.47    0.06
   1  -6  -2    1.42    0.07
   0  -6  -2    8.38    0.21
   0  -6  -2    8.33    0.18
  -1  -6  -2    0.74    0.04
   1   6   2    0.65    0.04
   1   6   2    0.73    0.06
  -2  -6  -2    9.03    0.19
   2   6   2    9.11    0.23
  -3  -6  -2   12.77    0.26
   3   6   2   13.06    0.31
  -4  -6  -2    0.02    0.02
   4   6   2   -0.02    0.04
  -5  -6  -2    7.23    0.18
   5   6   2    7.28    0.22
  -6  -6  -2    0.04    0.03
   6   6   2    0.01    0.05
   7   6   2    0.34    0.08
   6  -7  -2    0.16    0.05
  -6   7   2    0.13    0.04
   5  -7  -2    0.49    0.07
  -5   7   2    0.55    0.06
   4  -7  -2    1.04    0.08
   4  -7  -2    1.06    0.08
  -4   7   2    1.10    0.07
   3  -7  -2    3.03    0.12
   3  -7  -2    2.71    0.13
  -3   7   2    2.88    0.11
   2  -7  -2    0.52    0.06
   2  -7  -2    0.47    0.05
  -2   7   2    0.43    0.04
  -2   7   2    0.45    0.03
   1  -7  -2    0.81    0.06
   1  -7  -2    0.80    0.06
   1  -7  -2    0.84    0.05
   0  -7  -2    0.30    0.03
   0  -7  -2    0.33    0.04
   0   7   2    0.27    0.04
  -1  -7  -2    3.90    0.11
   1   7   2    3.80    0.14
   2   7   2    1.26    0.08
   3   7   2    1.40    0.09
   4   7   2    0.32    0.06
   5   7   2    0.13    0.06
   6   7   2    0.88    0.10
   7   7   2    0.47    0.09
   5  -8  -2    2.03    0.13
   4  -8  -2    1.07    0.09
   3  -8  -2    0.08    0.03
   3  -8  -2    0.14    0.04
   2  -8  -2    0.03    0.03
   2  -8  -2    0.07    0.03
   1  -8  -2    0.84    0.07
  -1   8   2    0.61    0.06
   0  -8  -2    0.49    0.06
   1   8   2    4.96    0.17
   2   8   2    8.80    0.25
   3   8   2    1.60    0.10
   4   8   2    0.38    0.07
   5   8   2    0.92    0.09
   6   8   2    1.53    0.12
   4  -9  -2    1.70    0.12
  -3   9   2    2.71    0.14
   2  -9  -2    0.17    0.05
  -2   9   2    0.21    0.05
   1  -9  -2    1.37    0.09
   0   9   2    0.14    0.05
   1   9   2    0.51    0.07
   2   9   2    0.54    0.07
   3   9   2    0.09    0.05
   4   9   2    0.19    0.06
   5   9   2    0.02    0.06
   2 -10  -2   -0.01    0.04
   1 -10  -2    1.56    0.11
   0  10   2    0.14    0.05
   1  10   2    0.36    0.07
   2  10   2    0.00    0.04
   3  10   2    0.12    0.06
   2  10  -3    1.68    0.12
   1  10  -3   -0.01    0.05
   0 -10   3    4.38    0.19
  -1  10  -3    1.48    0.11
   1 -10   3    1.49    0.11
  -2  10  -3    0.28    0.06
   2 -10   3    0.31    0.07
   4   9  -3    0.04    0.05
   3   9  -3   -0.02    0.04
   2   9  -3   -0.06    0.04
   1   9  -3   -0.10    0.04
   0   9  -3    1.13    0.09
   0  -9   3    1.14    0.09
  -1   9  -3    0.33    0.06
   1  -9   3    0.33    0.06
  -2   9  -3    4.05    0.17
   2  -9   3    3.87    0.18
  -3   9  -3    0.15    0.05
   3  -9   3    0.23    0.06
  -4   9  -3    0.49    0.08
   4  -9   3    0.23    0.06
   5   8  -3   -0.06    0.04
   4   8  -3    0.00    0.04
   3   8  -3    0.20    0.05
   2   8  -3   -0.03    0.03
   1   8  -3    0.08    0.04
  -1  -8   3    0.12    0.04
   0   8  -3    0.78    0.07
   0  -8   3    0.81    0.07
  -1   8  -3    0.96    0.08
   1  -8   3    0.98    0.08
  -2   8  -3    2.11    0.12
   2  -8   3    2.08    0.12
  -3   8  -3    0.28    0.06
   3  -8   3    0.37    0.06
  -4   8  -3    5.60    0.21
   4  -8   3    5.34    0.21
  -5   8  -3    0.09    0.05
   5  -8   3    0.08    0.05
   6   7  -3    0.05    0.05
   5   7  -3    0.10    0.05
   4   7  -3    0.18    0.05
   3   7  -3    0.91    0.08
   2   7  -3   -0.02    0.03
   2   7  -3   -0.02    0.03
   1   7  -3    0.03    0.03
  -1  -7   3    0.06    0.04
   0   7  -3    3.09    0.13
   0  -7   3    3.21    0.13
  -1   7  -3    0.74    0.07
   1  -7   3    0.91    0.07
  -2   7  -3    1.39    0.09
   2  -7   3    1.16    0.08
  -3   7  -3    0.03    0.04
   3  -7   3    0.00    0.03
  -4   7  -3    1.13    0.09
   4  -7   3    0.99    0.09
  -5   7  -3    0.33    0.06
   5  -7   3    0.33    0.06
  -6   7  -3    0.52    0.08
   6  -7   3    0.52    0.08
   7   6  -3    1.07    0.11
   6   6  -3    0.41    0.07
   5   6  -3    1.63    0.10
   4   6  -3    0.01    0.03
   3   6  -3    1.18    0.07
   3   6  -3    1.32    0.08
   2   6  -3    0.10    0.03
   2   6  -3    0.17    0.04
   1   6  -3    2.62    0.10
  -1  -6   3    2.56    0.11
   0   6  -3    3.10    0.12
   0  -6   3    2.98    0.12
  -1   6  -3   -0.01    0.02
   1  -6   3    0.05    0.03
  -2   6  -3    0.20    0.04
   2  -6   3    0.23    0.04
  -3   6  -3    0.03    0.03
   3  -6   3    0.16    0.04
  -4   6  -3    0.00    0.03
   4  -6   3    0.08    0.04
  -5   6  -3    0.57    0.07
   5  -6   3    0.63    0.07
  -6   6  -3    1.57    0.11
   6  -6   3    1.62    0.11
  -7   6  -3   -0.01    0.04
   7  -6   3   -0.03    0.04
   7   5  -3    0.24    0.07
   6   5  -3   -0.05    0.05
   5   5  -3    0.03    0.04
   4   5  -3    5.52    0.16
   4   5  -3    5.34    0.17
   3   5  -3    7.69    0.20
   3   5  -3    7.73    0.21
   2   5  -3    2.62    0.11
   2   5  -3    2.51    0.10
   1   5  -3    0.03    0.02
  -1  -5   3    0.03    0.02
   0   5  -3    2.49    0.10
   0  -5   3    2.38    0.10
  -1   5  -3    0.05    0.02
   1  -5   3    0.04    0.02
  -2   5  -3    0.75    0.06
   2  -5   3    0.76    0.06
  -3   5  -3    0.00    0.02
   3  -5   3    0.04    0.03
  -4   5  -3    1.04    0.06
  -4   5  -3    0.91    0.07
   4  -5   3    0.92    0.07
  -5   5  -3    0.28    0.05
  -5   5  -3    0.10    0.03
   5  -5   3    0.22    0.05
  -6   5  -3    2.28    0.12
  -6   5  -3    2.10    0.10
   6  -5   3    2.24    0.12
  -7   5  -3   -0.02    0.03
  -7   5  -3    0.08    0.04
   7  -5   3    0.10    0.05
   7   4  -3    0.14    0.06
   6   4  -3    1.45    0.10
   5   4  -3    0.00    0.02
   5   4  -3   -0.03    0.04
   4   4  -3    1.34    0.08
   4   4  -3    1.38    0.07
   3   4  -3    0.47    0.05
   3   4  -3    0.52    0.05
   2   4  -3   28.48    0.55
   2   4  -3   28.38    0.57
   1   4  -3   10.70    0.24
  -1  -4   3   10.21    0.24
   0   4  -3   40.06    0.75
   0  -4   3   39.40    0.76
  -1   4  -3   17.15    0.30
  -1   4  -3   17.12    0.37
  -2   4  -3    3.07    0.08
  -2   4  -3    3.10    0.11
   2  -4   3    2.86    0.11
  -3   4  -3    1.17    0.07
  -3   4  -3    1.14    0.05
   3  -4   3    1.18    0.07
  -4   4  -3    1.45    0.07
  -4   4  -3    1.51    0.08
   4  -4   3    1.52    0.08
  -5   4  -3    0.75    0.07
  -5   4  -3    0.93    0.06
   5  -4   3    0.85    0.07
  -6   4  -3    3.21    0.12
   6  -4   3    3.07    0.14
   6  -4   3    3.13    0.14
  -7   4  -3    0.39    0.05
   7  -4   3    0.34    0.06
   7  -4   3    0.36    0.06
  -8   4  -3    1.05    0.09
   8  -4   3    0.91    0.09
   7   3  -3    0.11    0.05
  -7  -3   3    0.00    0.03
   6   3  -3    0.02    0.04
  -6  -3   3    0.05    0.03
   5   3  -3    0.11    0.04
   5   3  -3    0.13    0.03
  -5  -3   3    0.08    0.02
   4   3  -3    0.33    0.04
   4   3  -3    0.32    0.04
  -4  -3   3    0.34    0.03
   3   3  -3    0.36    0.04
   3   3  -3    0.31    0.04
  -3  -3   3    0.28    0.02
   2   3  -3   13.68    0.29
   2   3  -3   13.87    0.30
  -2  -3   3   14.05    0.25
   1   3  -3    7.31    0.17
  -1  -3   3    7.61    0.18
   0   3  -3  107.94    1.91
   0  -3   3  106.96    1.94
  -1   3  -3   54.38    0.91
  -1   3  -3   53.38    0.99
  -2   3  -3   74.52    1.26
  -2   3  -3   74.94    1.35
   2  -3   3   73.10    1.37
  -3   3  -3   16.35    0.36
  -3   3  -3   16.70    0.32
   3  -3   3   16.56    0.36
  -4   3  -3    1.29    0.07
  -4   3  -3    1.28    0.06
   4  -3   3    1.20    0.07
  -5   3  -3    5.45    0.15
   5  -3   3    5.47    0.18
   5  -3   3    5.68    0.17
  -6   3  -3    4.65    0.15
   6  -3   3    4.44    0.16
   6  -3   3    4.70    0.17
  -7   3  -3    1.14    0.08
   7  -3   3    1.06    0.09
   7  -3   3    1.16    0.09
  -8   3  -3    0.28    0.05
   8  -3   3    0.48    0.07
   8  -3   3    0.48    0.07
  -8  -2   3    0.04    0.04
  -7  -2   3    0.75    0.06
   6   2  -3    0.44    0.06
   6   2  -3    0.46    0.05
  -6  -2   3    0.50    0.05
   5   2  -3    0.10    0.04
   5   2  -3    0.11    0.03
  -5  -2   3    0.06    0.02
   4   2  -3    0.02    0.03
   4   2  -3    0.03    0.02
  -4  -2   3    0.05    0.02
   3   2  -3    1.03    0.05
   3   2  -3    0.90    0.05
  -3  -2   3    0.97    0.04
   2   2  -3    4.07    0.11
   2   2  -3    4.07    0.11
  -2  -2   3    4.15    0.09
   1   2  -3   28.30    0.54
  -1  -2   3   28.96    0.54
  -1  -2   3   28.79    0.49
   0   2  -3    1.86    0.06
   0  -2   3    1.83    0.06
  -1   2  -3    7.25    0.17
  -1   2  -3    7.50    0.14
  -2   2  -3  100.58    1.70
  -2   2  -3  100.92    1.80
   2  -2   3  101.93    1.83
  -3   2  -3   32.05    0.58
  -3   2  -3   32.18    0.62
   3  -2   3   32.92    0.64
  -4   2  -3   54.45    0.96
   4  -2   3   54.57    1.04
   4  -2   3   55.15    1.02
  -5   2  -3    1.37    0.07
   5  -2   3    1.32    0.08
   5  -2   3    1.52    0.08
  -6   2  -3   10.40    0.25
   6  -2   3   10.10    0.28
   6  -2   3   10.40    0.26
  -7   2  -3    1.17    0.08
   7  -2   3    1.13    0.08
   7  -2   3    1.10    0.09
  -8   2  -3    0.34    0.05
   8  -2   3    0.33    0.06
  -8  -1   3    0.35    0.05
   7   1  -3    0.16    0.04
  -7  -1   3    0.06    0.03
   6   1  -3    0.93    0.07
   6   1  -3    0.99    0.07
  -6  -1   3    0.82    0.06
   5   1  -3    0.00    0.02
   5   1  -3   -0.02    0.03
  -5  -1   3   -0.01    0.02
   4   1  -3    1.43    0.07
   4   1  -3    1.41    0.07
  -4  -1   3    1.41    0.06
   3   1  -3    2.23    0.07
   3   1  -3    2.35    0.08
  -3  -1   3    2.14    0.07
   2   1  -3    0.47    0.03
   2   1  -3    0.49    0.04
  -2  -1   3    0.60    0.03
   1   1  -3    0.01    0.01
   1   1  -3    0.01    0.01
   0   1  -3   65.60    1.18
   0   1  -3   66.33    1.13
   0  -1   3   66.51    1.19
  -1   1  -3    8.67    0.16
  -1   1  -3    8.58    0.18
   1  -1   3    8.70    0.18
  -2   1  -3   38.50    0.72
  -2   1  -3   39.42    0.68
   2  -1   3   38.97    0.73
  -3   1  -3   10.67    0.23
  -3   1  -3   10.99    0.22
  -4   1  -3   34.70    0.62
   4  -1   3   33.52    0.65
   4  -1   3   34.08    0.67
  -5   1  -3   11.90    0.27
   5  -1   3   12.27    0.29
   5  -1   3   12.15    0.27
  -6   1  -3    7.72    0.20
   6  -1   3    7.57    0.22
   6  -1   3    7.62    0.20
  -7   1  -3    0.81    0.06
   7  -1   3    0.74    0.08
  -8   1  -3    2.30    0.12
   8  -1   3    2.32    0.13
  -9   1  -3    0.07    0.04
   9  -1   3    0.10    0.05
   8   0  -3    0.63    0.07
  -8   0   3    0.73    0.07
   7   0  -3    2.05    0.11
  -7   0   3    1.95    0.10
   6   0  -3    0.05    0.03
   6   0  -3    0.01    0.02
  -6   0   3    0.05    0.03
   5   0  -3    0.93    0.06
   5   0  -3    0.95    0.06
  -5   0   3    0.98    0.06
   4   0  -3    8.89    0.20
   4   0  -3    8.98    0.22
  -4   0   3    8.92    0.21
   3   0  -3   -0.01    0.01
   3   0  -3    0.00    0.01
  -3   0   3    0.01    0.01
   2   0  -3    7.37    0.17
   2   0  -3    7.54    0.15
  -2   0   3    7.58    0.13
  -2   0   3    7.41    0.16
   1   0  -3    0.47    0.02
   1   0  -3    0.48    0.03
   0   0  -3   87.49    1.46
   0   0  -3   86.77    1.53
   0   0   3   85.54    1.57
  -1   0  -3   35.33    0.64
  -1   0  -3   35.98    0.61
   1   0   3   35.57    0.65
  -2   0  -3    1.72    0.05
  -2   0  -3    1.65    0.05
  -3   0  -3    0.29    0.02
   3   0   3    0.26    0.03
  -4   0  -3   21.25    0.40
   4   0   3   20.46    0.41
   4   0   3   21.03    0.43
  -5   0  -3    2.17    0.09
   5   0   3    2.28    0.10
   5   0   3    2.16    0.08
  -6   0  -3   15.17    0.33
   6   0   3   15.17    0.33
   6   0   3   14.86    0.36
  -7   0  -3    2.59    0.11
   7   0   3    2.32    0.12
  -8   0  -3    1.11    0.08
   8   0   3    1.04    0.09
  -9   0  -3    0.08    0.04
   9   0   3    0.08    0.05
   8  -1  -3    0.01    0.03
  -8   1   3    0.03    0.03
   7  -1  -3    0.08    0.04
  -7   1   3    0.00    0.03
   6  -1  -3   -0.01    0.02
  -6   1   3    0.00    0.02
   5  -1  -3    0.43    0.05
   5  -1  -3    0.47    0.04
  -5   1   3    0.49    0.04
   4  -1  -3    0.23    0.03
   4  -1  -3    0.22    0.03
  -4   1   3    0.21    0.03
   3  -1  -3    8.66    0.20
   3  -1  -3    8.42    0.18
   2  -1  -3    0.91    0.04
   2  -1  -3    0.72    0.03
  -2   1   3    0.77    0.03
  -2   1   3    0.74    0.04
   1  -1  -3    5.64    0.13
   1  -1  -3    5.69    0.12
   0  -1  -3    3.27    0.08
   0  -1  -3    3.21    0.08
  -1  -1  -3   28.29    0.49
  -1  -1  -3   28.17    0.51
   1   1   3   28.01    0.52
  -2  -1  -3    1.91    0.05
  -2  -1  -3    1.86    0.06
   2   1   3    1.77    0.06
  -3  -1  -3   10.03    0.21
  -3  -1  -3   10.32    0.20
   3   1   3   10.18    0.23
  -4  -1  -3    8.61    0.20
   4   1   3    8.69    0.18
   4   1   3    8.41    0.21
  -5  -1  -3    0.10    0.02
   5   1   3    0.05    0.03
   5   1   3    0.12    0.02
  -6  -1  -3    6.82    0.19
   6   1   3    6.91    0.21
  -7  -1  -3    5.40    0.17
   7   1   3    5.15    0.18
  -8  -1  -3    0.37    0.06
   8   1   3    0.43    0.07
  -9  -1  -3    0.02    0.04
   9   1   3    0.10    0.05
   8  -2  -3    0.20    0.05
  -8   2   3    0.04    0.04
   7  -2  -3    0.05    0.03
  -7   2   3    0.02    0.03
   6  -2  -3    1.47    0.09
  -6   2   3    1.36    0.08
   5  -2  -3    0.21    0.04
   5  -2  -3    0.19    0.03
  -5   2   3    0.22    0.04
   4  -2  -3    3.62    0.13
   4  -2  -3    3.62    0.11
  -4   2   3    3.78    0.12
   3  -2  -3    3.36    0.11
   3  -2  -3    3.34    0.09
  -3   2   3    3.34    0.08
  -3   2   3    3.34    0.10
   2  -2  -3    1.13    0.04
   2  -2  -3    1.23    0.06
   1  -2  -3   13.60    0.26
   1  -2  -3   13.60    0.27
   1  -2  -3   13.85    0.26
   0  -2  -3   15.82    0.30
   0  -2  -3   15.39    0.29
   0   2   3   15.83    0.29
  -1  -2  -3   13.06    0.25
  -1  -2  -3   13.35    0.25
   1   2   3   13.64    0.26
  -2  -2  -3   52.93    0.92
   2   2   3   54.31    0.98
  -3  -2  -3   30.73    0.56
   3   2   3   30.86    0.60
  -4  -2  -3    3.51    0.11
   4   2   3    3.57    0.12
  -5  -2  -3    2.73    0.10
   5   2   3    2.77    0.12
  -6  -2  -3   14.58    0.33
   6   2   3   14.90    0.36
  -7  -2  -3    1.25    0.08
   7   2   3    1.20    0.09
  -8  -2  -3    0.99    0.08
   8   2   3    1.20    0.10
  -9  -2  -3    0.70    0.08
   9   2   3    0.61    0.08
   8  -3  -3    0.03    0.04
  -8   3   3    0.01    0.04
   7  -3  -3    0.03    0.03
  -7   3   3    0.00    0.03
   6  -3  -3    0.82    0.07
  -6   3   3    0.70    0.06
   5  -3  -3    1.22    0.08
  -5   3   3    1.36    0.08
   4  -3  -3    0.25    0.04
   4  -3  -3    0.25    0.03
  -4   3   3    0.29    0.04
   3  -3  -3    3.28    0.11
   3  -3  -3    3.32    0.10
  -3   3   3    3.18    0.08
  -3   3   3    3.38    0.10
   2  -3  -3   61.35    1.11
   2  -3  -3   60.59    1.12
   2  -3  -3   61.81    1.07
   1  -3  -3   22.82    0.45
   1  -3  -3   23.32    0.43
   1  -3  -3   23.42    0.44
   0  -3  -3    5.04    0.12
   0  -3  -3    5.04    0.12
   0   3   3    5.25    0.12
  -1  -3  -3   25.66    0.46
  -1  -3  -3   26.30    0.47
   1   3   3   25.93    0.49
  -2  -3  -3   82.76    1.43
   2   3   3   85.45    1.52
  -3  -3  -3   21.83    0.40
   3   3   3   20.46    0.42
  -4  -3  -3    0.49    0.04
   4   3   3    0.55    0.06
  -5  -3  -3    0.58    0.05
   5   3   3    0.52    0.06
  -6  -3  -3    5.53    0.17
   6   3   3    5.75    0.19
  -7  -3  -3    1.15    0.08
   7   3   3    1.13    0.09
  -8  -3  -3    0.95    0.08
   8   3   3    0.95    0.09
  -9  -3  -3    0.22    0.05
   9   3   3    0.19    0.06
   7  -4  -3    0.08    0.04
  -7   4   3    0.07    0.04
   6  -4  -3   -0.01    0.03
  -6   4   3    0.03    0.03
   5  -4  -3    0.16    0.04
  -5   4   3    0.16    0.04
   4  -4  -3    0.00    0.02
   4  -4  -3    0.00    0.02
  -4   4   3    0.02    0.02
   3  -4  -3    0.40    0.04
   3  -4  -3    0.49    0.04
  -3   4   3    0.43    0.03
  -3   4   3    0.49    0.04
   2  -4  -3    0.04    0.02
   2  -4  -3    0.04    0.02
   2  -4  -3    0.04    0.02
   1  -4  -3    4.96    0.14
   1  -4  -3    5.10    0.13
   1  -4  -3    5.14    0.13
   0  -4  -3   25.67    0.46
   0  -4  -3   25.03    0.49
   0  -4  -3   25.40    0.48
  -1  -4  -3   13.95    0.27
  -1  -4  -3   14.19    0.27
   1   4   3   13.48    0.29
  -2  -4  -3    2.12    0.07
   2   4   3    2.05    0.05
   2   4   3    1.90    0.07
  -3  -4  -3   38.90    0.69
   3   4   3   38.02    0.74
  -4  -4  -3    0.60    0.04
   4   4   3    0.64    0.06
  -5  -4  -3    4.00    0.12
   5   4   3    3.94    0.15
  -6  -4  -3    4.02    0.13
   6   4   3    3.78    0.15
  -7  -4  -3    0.01    0.03
   7   4   3    0.06    0.05
  -8  -4  -3    0.00    0.03
   8   4   3    0.08    0.05
   7  -5  -3    0.58    0.08
  -7   5   3    0.35    0.06
   6  -5  -3    0.90    0.08
  -6   5   3    0.94    0.07
   5  -5  -3    0.00    0.03
  -5   5   3    0.00    0.02
   4  -5  -3    1.53    0.09
  -4   5   3    1.52    0.08
   3  -5  -3    1.44    0.08
   3  -5  -3    1.52    0.07
  -3   5   3    1.38    0.06
  -3   5   3    1.45    0.07
   2  -5  -3    8.42    0.20
   2  -5  -3    8.43    0.20
   2  -5  -3    8.18    0.22
   1  -5  -3    4.55    0.13
   1  -5  -3    4.61    0.13
   1  -5  -3    5.05    0.14
   0  -5  -3    3.57    0.11
   0  -5  -3    3.56    0.10
   0  -5  -3    3.55    0.11
  -1  -5  -3    5.04    0.12
  -1  -5  -3    4.95    0.12
   1   5   3    4.96    0.14
  -2  -5  -3   58.37    1.02
   2   5   3   58.98    1.09
  -3  -5  -3    4.65    0.12
   3   5   3    4.82    0.15
  -4  -5  -3    3.65    0.11
   4   5   3    3.60    0.13
  -5  -5  -3    9.29    0.22
   5   5   3    9.24    0.25
  -6  -5  -3    0.03    0.02
   6   5   3    0.00    0.04
  -7  -5  -3    1.87    0.10
   7   5   3    1.74    0.12
  -8  -5  -3    0.00    0.03
   8   5   3    0.01    0.06
   6  -6  -3    0.06    0.04
  -6   6   3    0.00    0.03
   5  -6  -3    2.83    0.14
  -5   6   3    2.91    0.12
   4  -6  -3    0.02    0.03
  -4   6   3    0.06    0.03
   3  -6  -3    0.13    0.03
   3  -6  -3    0.21    0.04
  -3   6   3    0.18    0.03
  -3   6   3    0.18    0.03
   2  -6  -3    3.53    0.13
   2  -6  -3    3.82    0.13
   1  -6  -3    1.08    0.05
   1  -6  -3    1.03    0.06
   1  -6  -3    0.98    0.06
   0  -6  -3    1.87    0.08
   0  -6  -3    2.06    0.09
   0  -6  -3    1.98    0.07
  -1  -6  -3    0.06    0.02
   1   6   3    0.04    0.03
  -2  -6  -3    2.54    0.08
   2   6   3    2.33    0.10
  -3  -6  -3    2.75    0.09
   3   6   3    2.84    0.11
  -4  -6  -3   19.19    0.38
   4   6   3   18.61    0.42
  -5  -6  -3    2.47    0.10
   5   6   3    2.27    0.12
  -6  -6  -3    5.23    0.16
   6   6   3    5.21    0.20
  -7  -6  -3    3.55    0.13
   7   6   3    3.68    0.17
   6  -7  -3    0.27    0.06
  -6   7   3    0.17    0.05
   5  -7  -3    0.04    0.04
  -5   7   3    0.02    0.03
   4  -7  -3    0.12    0.04
  -4   7   3    0.12    0.03
   3  -7  -3    5.18    0.18
  -3   7   3    4.82    0.12
  -3   7   3    5.00    0.15
   2  -7  -3    1.97    0.10
   2  -7  -3    1.93    0.10
  -2   7   3    1.82    0.08
  -2   7   3    1.93    0.07
   1  -7  -3    0.86    0.06
   1  -7  -3    0.89    0.05
   1  -7  -3    0.88    0.06
   0  -7  -3    0.01    0.02
   0   7   3   -0.04    0.03
  -1  -7  -3    2.82    0.09
   1   7   3    3.06    0.12
  -2  -7  -3    3.26    0.10
   2   7   3    3.32    0.13
  -3  -7  -3    3.42    0.11
   3   7   3    3.26    0.13
  -4  -7  -3    1.32    0.07
   4   7   3    1.31    0.09
   5   7   3   -0.02    0.05
   6   7   3    0.05    0.06
   7   7   3   -0.05    0.05
   5  -8  -3    1.63    0.12
  -5   8   3    1.96    0.11
   4  -8  -3    0.11    0.04
  -4   8   3    0.06    0.03
   3  -8  -3    0.07    0.03
  -3   8   3    0.04    0.02
  -3   8   3    0.04    0.03
   2  -8  -3    0.21    0.04
   2  -8  -3    0.19    0.04
  -2   8   3    0.24    0.03
  -2   8   3    0.23    0.04
   1  -8  -3    0.07    0.03
   1  -8  -3    0.03    0.03
   1  -8  -3    0.03    0.02
   0   8   3    0.11    0.04
   1   8   3    1.14    0.08
   2   8   3    5.43    0.18
   3   8   3    4.83    0.17
   4   8   3   -0.04    0.04
   5   8   3    0.01    0.05
   6   8   3    0.22    0.07
   4  -9  -3    0.15    0.05
   3  -9  -3    0.03    0.04
   1  -9  -3    0.09    0.04
   0   9   3    0.00    0.03
   1   9   3    0.10    0.04
   2   9   3    1.65    0.10
   3   9   3    0.24    0.06
   4   9   3    0.36    0.07
   5   9   3   -0.05    0.05
   0  10   3    0.48    0.07
   1  10   3    0.80    0.08
   2  10   3    0.06    0.05
   3  10   3    0.69    0.08
   1  10  -4    0.28    0.07
   0 -10   4    0.44    0.07
  -1  10  -4    0.10    0.05
   1 -10   4    0.08    0.05
   3   9  -4    0.10    0.05
   2   9  -4    0.18    0.06
   0   9  -4    1.18    0.09
   0  -9   4    1.27    0.10
  -1   9  -4    0.05    0.04
   1  -9   4    0.10    0.04
  -2   9  -4    2.12    0.13
   2  -9   4    2.30    0.14
  -3   9  -4    0.70    0.09
   3  -9   4    0.81    0.09
  -4   9  -4    0.72    0.09
   4  -9   4    0.76    0.09
   5   8  -4    0.18    0.06
   4   8  -4    0.01    0.04
   3   8  -4    0.01    0.04
   2   8  -4    0.04    0.04
   1   8  -4    1.87    0.11
  -1  -8   4    1.98    0.11
   0   8  -4    0.06    0.04
   0  -8   4    0.11    0.04
  -1   8  -4    0.09    0.04
   1  -8   4    0.15    0.05
  -2   8  -4    0.45    0.07
   2  -8   4    0.57    0.07
  -3   8  -4    5.03    0.20
   3  -8   4    5.17    0.20
  -4   8  -4    3.42    0.17
   4  -8   4    3.32    0.16
  -5   8  -4    0.00    0.04
   5  -8   4   -0.01    0.04
   6   7  -4    0.24    0.07
   5   7  -4   -0.03    0.04
   4   7  -4   -0.02    0.04
   3   7  -4    0.03    0.04
   2   7  -4    0.32    0.05
   2   7  -4    0.39    0.06
   1   7  -4    3.93    0.15
  -1  -7   4    4.06    0.15
   0   7  -4    0.03    0.03
   0  -7   4    0.04    0.03
   1  -7   4    0.50    0.06
  -2   7  -4    1.53    0.10
   2  -7   4    1.49    0.10
  -3   7  -4    3.62    0.16
   3  -7   4    3.50    0.15
  -4   7  -4    1.00    0.09
   4  -7   4    1.07    0.09
  -5   7  -4    1.56    0.11
   5  -7   4    1.54    0.11
  -6   7  -4    0.46    0.08
   6  -7   4    0.46    0.07
   6   6  -4    0.77    0.09
   5   6  -4   -0.04    0.04
   4   6  -4    0.00    0.03
   3   6  -4    0.03    0.03
   3   6  -4   -0.01    0.03
   2   6  -4    0.39    0.05
   2   6  -4    0.40    0.05
   1   6  -4    0.02    0.03
  -1  -6   4    0.07    0.03
   0   6  -4    0.59    0.05
   0  -6   4    0.65    0.06
  -1   6  -4    0.16    0.04
   1  -6   4    0.16    0.04
  -2   6  -4    0.35    0.05
   2  -6   4    0.49    0.06
  -3   6  -4    3.07    0.14
   3  -6   4    2.97    0.13
  -4   6  -4    1.64    0.10
   4  -6   4    1.70    0.10
  -5   6  -4    0.07    0.04
   5  -6   4    0.10    0.04
  -6   6  -4   -0.04    0.03
   6  -6   4    0.00    0.04
  -7   6  -4    0.02    0.04
   7  -6   4   -0.03    0.04
   6   5  -4    0.05    0.05
   5   5  -4    0.35    0.06
   4   5  -4    0.07    0.03
   4   5  -4    0.11    0.03
   3   5  -4    0.22    0.04
   3   5  -4    0.24    0.04
   2   5  -4    0.76    0.06
   2   5  -4    0.76    0.06
   1   5  -4    2.72    0.11
  -1  -5   4    2.78    0.11
   0   5  -4    1.79    0.08
   0  -5   4    1.74    0.08
  -1   5  -4    0.09    0.03
   1  -5   4    0.02    0.02
  -2   5  -4    1.54    0.08
   2  -5   4    1.63    0.09
  -3   5  -4    1.85    0.10
   3  -5   4    2.09    0.10
  -4   5  -4    0.79    0.07
   4  -5   4    0.87    0.07
  -5   5  -4    0.13    0.04
   5  -5   4    0.17    0.05
  -6   5  -4   -0.04    0.03
   6  -5   4    0.00    0.03
  -7   5  -4   -0.02    0.03
  -7   5  -4    0.01    0.03
   7  -5   4   -0.02    0.04
   6   4  -4    0.24    0.06
   5   4  -4    0.35    0.04
   5   4  -4    0.33    0.05
   4   4  -4   -0.03    0.02
   4   4  -4   -0.02    0.03
   3   4  -4    0.13    0.03
   3   4  -4    0.17    0.03
   2   4  -4    1.90    0.08
   2   4  -4    1.95    0.08
   1   4  -4    6.31    0.17
  -1  -4   4    6.27    0.17
   0   4  -4   12.05    0.27
   0  -4   4   12.04    0.28
  -1   4  -4    1.10    0.06
   1  -4   4    1.11    0.06
  -2   4  -4    0.18    0.03
  -2   4  -4    0.23    0.02
   2  -4   4    0.26    0.04
  -3   4  -4    4.19    0.11
  -3   4  -4    4.14    0.14
   3  -4   4    4.03    0.14
  -4   4  -4    4.39    0.12
  -4   4  -4    4.50    0.16
   4  -4   4    4.51    0.16
  -5   4  -4    0.55    0.06
  -5   4  -4    0.45    0.04
   5  -4   4    0.43    0.06
  -6   4  -4    0.23    0.05
  -6   4  -4    0.16    0.04
   6  -4   4    0.17    0.05
  -7   4  -4    0.08    0.04
  -7   4  -4    0.07    0.04
   7  -4   4    0.04    0.04
  -8   4  -4    0.02    0.04
  -8   4  -4   -0.06    0.03
   8  -4   4    0.01    0.04
   6   3  -4    0.11    0.03
   5   3  -4    0.10    0.04
   5   3  -4    0.23    0.04
  -5  -3   4    0.20    0.03
   4   3  -4    0.57    0.05
   4   3  -4    0.55    0.05
  -4  -3   4    0.48    0.04
   3   3  -4    0.16    0.03
   3   3  -4    0.16    0.03
  -3  -3   4    0.12    0.02
   2   3  -4    9.48    0.22
   2   3  -4    9.39    0.22
  -2  -3   4    9.30    0.18
   1   3  -4   47.94    0.88
  -1  -3   4   47.68    0.81
  -1  -3   4   47.54    0.89
   0   3  -4   41.81    0.79
   0  -3   4   42.25    0.80
  -1   3  -4    1.49    0.07
  -1   3  -4    1.63    0.04
   1  -3   4    1.56    0.07
  -2   3  -4   11.01    0.26
  -2   3  -4   11.22    0.21
   2  -3   4   10.90    0.26
  -3   3  -4   14.27    0.32
  -3   3  -4   14.25    0.28
   3  -3   4   14.35    0.33
  -4   3  -4    0.37    0.03
  -4   3  -4    0.43    0.05
   4  -3   4    0.41    0.05
  -5   3  -4    1.41    0.08
  -5   3  -4    1.57    0.07
   5  -3   4    1.37    0.09
  -6   3  -4    3.96    0.15
  -6   3  -4    3.87    0.13
   6  -3   4    3.52    0.15
  -7   3  -4    0.02    0.03
  -7   3  -4    0.03    0.03
   7  -3   4   -0.02    0.03
  -8   3  -4   -0.04    0.03
  -8   3  -4   -0.05    0.03
   8  -3   4   -0.02    0.03
  -8  -2   4    0.06    0.03
  -7  -2   4    1.58    0.09
   6   2  -4    1.26    0.08
  -6  -2   4    1.34    0.07
   5   2  -4    0.00    0.04
   4   2  -4    0.61    0.05
   4   2  -4    0.71    0.06
  -4  -2   4    0.65    0.04
   3   2  -4    3.46    0.10
   3   2  -4    3.33    0.11
  -3  -2   4    3.33    0.09
   2   2  -4   20.53    0.40
   2   2  -4   19.99    0.40
  -2  -2   4   20.31    0.37
   1   2  -4   86.50    1.58
  -1  -2   4   89.85    1.49
  -1  -2   4   88.15    1.59
  -1  -2   4   89.07    1.19
   0   2  -4   40.07    0.75
   0   2  -4   40.71    0.68
   0  -2   4   39.85    0.75
  -1   2  -4    1.48    0.06
  -1   2  -4    1.52    0.04
   1  -2   4    1.46    0.06
  -2   2  -4    0.14    0.03
  -2   2  -4    0.07    0.01
   2  -2   4    0.13    0.02
  -3   2  -4   18.45    0.38
  -3   2  -4   18.20    0.35
   3  -2   4   18.52    0.39
  -4   2  -4   28.30    0.53
  -4   2  -4   28.35    0.57
   4  -2   4   28.75    0.58
  -5   2  -4    2.98    0.11
  -5   2  -4    3.18    0.11
   5  -2   4    3.15    0.13
  -6   2  -4    1.57    0.08
  -6   2  -4    1.74    0.09
   6  -2   4    1.56    0.10
  -7   2  -4    3.27    0.13
  -7   2  -4    3.54    0.14
   7  -2   4    3.33    0.15
  -8   2  -4    0.65    0.07
   8  -2   4    0.65    0.08
  -8  -1   4    0.00    0.03
   7   1  -4    2.30    0.12
  -7  -1   4    2.46    0.11
   6   1  -4    0.19    0.04
  -6  -1   4    0.19    0.04
   5   1  -4   11.57    0.27
   5   1  -4   11.54    0.28
  -5  -1   4   11.89    0.27
   4   1  -4    1.95    0.08
   4   1  -4    1.96    0.08
  -4  -1   4    1.80    0.07
   3   1  -4   18.09    0.37
   3   1  -4   17.78    0.35
  -3  -1   4   17.89    0.34
   2   1  -4   12.46    0.24
   2   1  -4   11.90    0.26
  -2  -1   4   11.99    0.24
  -2  -1   4   12.15    0.19
   1   1  -4   78.02    1.33
   1   1  -4   78.50    1.40
  -1  -1   4   79.27    1.41
   0   1  -4    4.85    0.12
   0   1  -4    4.93    0.10
   0  -1   4    4.78    0.11
  -1   1  -4    4.58    0.10
  -1   1  -4    4.51    0.11
   1  -1   4    4.46    0.11
  -2   1  -4    5.33    0.12
  -2   1  -4    5.11    0.13
   2  -1   4    5.02    0.13
  -3   1  -4   24.97    0.49
  -3   1  -4   25.11    0.46
  -4   1  -4    1.26    0.06
  -4   1  -4    1.24    0.06
   4  -1   4    1.20    0.07
  -5   1  -4    0.03    0.02
  -5   1  -4   -0.02    0.02
   5  -1   4    0.00    0.03
  -6   1  -4    5.15    0.16
  -6   1  -4    5.38    0.16
   6  -1   4    5.02    0.18
  -7   1  -4    0.09    0.03
   7  -1   4    0.17    0.05
  -8   1  -4    2.38    0.12
   8  -1   4    2.53    0.14
  -9   1  -4    0.35    0.06
   9  -1   4    0.37    0.07
   8   0  -4    0.26    0.05
  -8   0   4    0.24    0.05
   7   0  -4    0.41    0.06
  -7   0   4    0.25    0.05
   6   0  -4    0.11    0.04
  -6   0   4    0.13    0.03
   5   0  -4    0.14    0.03
  -5   0   4    0.18    0.03
   4   0  -4    0.05    0.02
   4   0  -4    0.06    0.02
  -4   0   4    0.07    0.02
   2   0  -4    4.01    0.09
   2   0  -4    3.90    0.11
  -2   0   4    3.89    0.08
  -2   0   4    3.87    0.10
   1   0  -4   65.32    1.18
   1   0  -4   65.95    1.13
   1   0  -4   67.00    1.19
   0   0  -4    2.95    0.08
   0   0  -4    2.92    0.07
   0   0   4    2.90    0.07
  -1   0  -4    0.60    0.03
  -1   0  -4    0.65    0.03
   1   0   4    0.57    0.03
  -2   0  -4    3.83    0.09
  -2   0  -4    3.81    0.10
   2   0   4    3.75    0.10
  -3   0  -4   35.76    0.64
  -3   0  -4   36.05    0.67
   3   0   4   36.19    0.69
  -4   0  -4    0.23    0.03
  -4   0  -4    0.20    0.03
   4   0   4    0.20    0.03
  -5   0  -4    4.35    0.13
  -5   0  -4    4.38    0.13
   5   0   4    4.18    0.14
  -6   0  -4    3.99    0.13
   6   0   4    4.00    0.15
  -7   0  -4    0.00    0.03
   7   0   4    0.05    0.04
  -8   0  -4    1.83    0.10
   8   0   4    1.84    0.12
  -9   0  -4    0.22    0.05
   9   0   4    0.26    0.06
   8  -1  -4    0.17    0.05
  -8   1   4    0.04    0.04
   7  -1  -4    0.02    0.03
  -7   1   4   -0.04    0.03
   6  -1  -4   -0.02    0.02
  -6   1   4   -0.03    0.02
   5  -1  -4    9.04    0.24
  -5   1   4    9.26    0.23
   4  -1  -4    0.98    0.06
  -4   1   4    1.09    0.06
   3  -1  -4    0.04    0.02
   3  -1  -4    0.03    0.02
  -3   1   4    0.04    0.01
  -3   1   4    0.07    0.02
   2  -1  -4    0.80    0.03
   2  -1  -4    0.87    0.05
   2  -1  -4    0.84    0.04
   1  -1  -4   47.86    0.87
   1  -1  -4   47.56    0.83
   0  -1  -4   44.18    0.78
   0  -1  -4   42.68    0.75
  -1  -1  -4    0.02    0.01
  -1  -1  -4    0.05    0.01
   1   1   4    0.03    0.01
  -2  -1  -4   30.49    0.55
  -2  -1  -4   30.10    0.54
   2   1   4   30.04    0.57
  -3  -1  -4    5.04    0.13
  -3  -1  -4    5.40    0.12
   3   1   4    5.22    0.14
  -4  -1  -4    2.93    0.08
  -4  -1  -4    2.90    0.09
   4   1   4    2.84    0.10
  -5  -1  -4    6.48    0.17
   5   1   4    6.38    0.19
  -6  -1  -4    1.44    0.08
   6   1   4    1.33    0.09
  -7  -1  -4   -0.02    0.02
   7   1   4    0.12    0.04
  -8  -1  -4    0.92    0.07
   8   1   4    0.89    0.09
  -9  -1  -4    0.54    0.07
   9   1   4    0.41    0.07
   8  -2  -4   -0.04    0.03
  -8   2   4    0.05    0.04
   7  -2  -4    0.21    0.05
  -7   2   4    0.21    0.04
   6  -2  -4    2.92    0.13
  -6   2   4    3.01    0.13
   5  -2  -4    7.84    0.22
  -5   2   4    7.70    0.21
   4  -2  -4    0.15    0.03
  -4   2   4    0.19    0.03
   3  -2  -4    2.34    0.09
   3  -2  -4    2.40    0.07
  -3   2   4    2.27    0.08
  -3   2   4    2.35    0.07
   2  -2  -4    1.87    0.07
   2  -2  -4    1.72    0.05
   2  -2  -4    1.75    0.07
   1  -2  -4   29.93    0.56
   1  -2  -4   29.94    0.54
   0  -2  -4    9.04    0.19
   0  -2  -4    9.57    0.19
   0   2   4    9.30    0.18
  -1  -2  -4    1.61    0.05
  -1  -2  -4    1.63    0.05
   1   2   4    1.70    0.05
  -2  -2  -4    0.64    0.02
  -2  -2  -4    0.48    0.03
   2   2   4    0.47    0.04
  -3  -2  -4    5.41    0.13
  -3  -2  -4    5.45    0.11
   3   2   4    5.50    0.15
  -4  -2  -4    0.01    0.01
   4   2   4   -0.03    0.03
  -5  -2  -4    4.27    0.13
   5   2   4    4.20    0.15
  -6  -2  -4    0.37    0.05
   6   2   4    0.31    0.05
  -7  -2  -4    0.05    0.03
   7   2   4    0.08    0.04
  -8  -2  -4    0.40    0.06
   8   2   4    0.44    0.07
  -9  -2  -4    0.30    0.05
   9   2   4    0.38    0.07
   7  -3  -4    0.78    0.08
  -7   3   4    0.82    0.07
   6  -3  -4    1.07    0.08
  -6   3   4    1.05    0.08
   5  -3  -4    9.15    0.26
  -5   3   4    8.72    0.23
   4  -3  -4    7.18    0.21
  -4   3   4    7.43    0.19
   3  -3  -4    0.00    0.02
  -3   3   4    0.02    0.01
  -3   3   4    0.00    0.01
   2  -3  -4   35.10    0.65
   2  -3  -4   34.60    0.67
   2  -3  -4   35.12    0.64
   1  -3  -4   46.37    0.86
   1  -3  -4   46.61    0.82
   1  -3  -4   46.65    0.84
   0  -3  -4   18.84    0.36
   0  -3  -4   18.68    0.35
   0   3   4   18.70    0.36
  -1  -3  -4   26.40    0.49
  -1  -3  -4   27.49    0.50
   1   3   4   27.40    0.51
  -2  -3  -4    0.07    0.02
   2   3   4    0.05    0.02
  -3  -3  -4    6.22    0.15
   3   3   4    6.23    0.16
  -4  -3  -4    0.61    0.04
   4   3   4    0.74    0.06
  -5  -3  -4    4.42    0.13
   5   3   4    4.53    0.16
  -6  -3  -4    0.03    0.03
   6   3   4    0.04    0.04
  -7  -3  -4    0.03    0.03
   7   3   4    0.03    0.04
  -8  -3  -4    0.38    0.06
   8   3   4    0.41    0.07
   7  -4  -4    0.16    0.05
  -7   4   4    0.18    0.05
   6  -4  -4    4.20    0.18
  -6   4   4    4.35    0.16
   5  -4  -4    4.62    0.17
  -5   4   4    4.77    0.16
   4  -4  -4    0.65    0.06
  -4   4   4    0.54    0.05
   3  -4  -4    1.49    0.08
  -3   4   4    1.46    0.07
  -3   4   4    1.50    0.06
   2  -4  -4    5.59    0.14
   2  -4  -4    5.45    0.16
   2  -4  -4    5.62    0.15
   1  -4  -4    8.07    0.19
   1  -4  -4    8.10    0.18
   1  -4  -4    8.09    0.20
   0  -4  -4   12.48    0.26
   0  -4  -4   12.37    0.25
   0   4   4   12.28    0.26
  -1  -4  -4    3.22    0.09
  -1  -4  -4    3.34    0.09
   1   4   4    3.30    0.10
  -2  -4  -4    1.18    0.05
   2   4   4    1.09    0.06
  -3  -4  -4    3.84    0.11
   3   4   4    3.84    0.12
  -4  -4  -4    9.57    0.22
   4   4   4    9.54    0.24
  -5  -4  -4    0.82    0.06
   5   4   4    0.75    0.08
  -6  -4  -4    0.16    0.03
   6   4   4    0.14    0.05
  -7  -4  -4    1.11    0.07
   7   4   4    0.93    0.09
  -8  -4  -4    0.03    0.03
   8   4   4    0.06    0.05
   7  -5  -4    0.44    0.07
  -7   5   4    0.45    0.06
   6  -5  -4    0.62    0.08
  -6   5   4    0.58    0.06
   5  -5  -4    4.64    0.18
  -5   5   4    4.71    0.16
   4  -5  -4    3.82    0.15
  -4   5   4    3.64    0.13
   3  -5  -4    7.79    0.22
  -3   5   4    7.65    0.20
  -3   5   4    7.47    0.16
   2  -5  -4    3.12    0.12
   2  -5  -4    3.14    0.10
   2  -5  -4    2.92    0.10
   1  -5  -4    0.03    0.02
   1  -5  -4    0.00    0.01
   1  -5  -4    0.01    0.02
   0  -5  -4    0.63    0.04
   0  -5  -4    0.60    0.04
   0   5   4    0.59    0.04
  -1  -5  -4   16.60    0.33
  -1  -5  -4   16.73    0.33
   1   5   4   16.60    0.35
  -2  -5  -4    0.35    0.03
   2   5   4    0.38    0.04
  -3  -5  -4    3.43    0.10
   3   5   4    3.47    0.12
  -4  -5  -4   -0.01    0.02
   4   5   4   -0.02    0.04
  -5  -5  -4    4.66    0.14
   5   5   4    4.67    0.17
  -6  -5  -4    0.27    0.04
   6   5   4    0.18    0.06
  -7  -5  -4    0.43    0.05
   7   5   4    0.47    0.08
  -8  -5  -4    0.29    0.05
   8   5   4    0.27    0.07
   6  -6  -4    2.06    0.13
  -6   6   4    2.06    0.11
   5  -6  -4    0.28    0.05
  -5   6   4    0.27    0.04
   4  -6  -4    1.77    0.11
  -4   6   4    1.73    0.09
   3  -6  -4    0.03    0.03
  -3   6   4    0.14    0.03
  -3   6   4    0.10    0.02
   2  -6  -4    3.97    0.14
   2  -6  -4    4.20    0.13
   1  -6  -4    2.49    0.10
   1  -6  -4    2.59    0.09
   1  -6  -4    2.52    0.09
   0  -6  -4    0.13    0.03
   0  -6  -4    0.16    0.03
   0   6   4    0.19    0.03
  -1  -6  -4   12.93    0.27
   1   6   4   12.50    0.29
  -2  -6  -4    9.88    0.22
   2   6   4    9.64    0.24
  -3  -6  -4    5.52    0.15
   3   6   4    5.41    0.17
  -4  -6  -4    0.68    0.05
   4   6   4    0.66    0.07
  -5  -6  -4    2.94    0.11
   5   6   4    2.92    0.13
  -6  -6  -4    1.66    0.09
   6   6   4    1.71    0.11
  -7  -6  -4    0.67    0.06
   7   6   4    0.82    0.10
   5  -7  -4    2.79    0.15
  -5   7   4    2.85    0.13
   4  -7  -4    2.99    0.14
  -4   7   4    3.07    0.13
   3  -7  -4    2.59    0.12
  -3   7   4    2.51    0.09
  -3   7   4    2.61    0.11
   2  -7  -4    0.32    0.05
   2  -7  -4    0.29    0.04
   1  -7  -4    0.24    0.04
   1  -7  -4    0.31    0.04
   1  -7  -4    0.27    0.04
   0  -7  -4    2.56    0.09
   0   7   4    2.47    0.11
  -1  -7  -4    3.11    0.10
   1   7   4    3.11    0.12
  -2  -7  -4    1.20    0.06
   2   7   4    1.18    0.08
  -3  -7  -4    0.04    0.02
   3   7   4    0.03    0.04
  -4  -7  -4    0.30    0.04
   4   7   4    0.28    0.06
  -5  -7  -4    0.07    0.03
   5   7   4    0.04    0.05
  -6  -7  -4    0.30    0.04
   6   7   4    0.21    0.07
   7   7   4    0.05    0.06
   5  -8  -4    1.59    0.12
  -5   8   4    1.68    0.10
   4  -8  -4    0.00    0.03
  -4   8   4    0.01    0.03
   3  -8  -4    0.09    0.04
  -3   8   4    0.04    0.03
  -3   8   4    0.04    0.02
   2  -8  -4    0.16    0.04
  -2   8   4    0.17    0.03
  -2   8   4    0.14    0.03
   1  -8  -4    3.27    0.12
   0  -8  -4    0.19    0.03
   0   8   4    0.24    0.05
  -1  -8  -4    7.28    0.19
   1   8   4    6.99    0.21
   2   8   4    0.97    0.08
   3   8   4    1.67    0.10
   4   8   4    0.13    0.05
   5   8   4   -0.09    0.05
   6   8   4    0.00    0.06
   3  -9  -4    0.13    0.04
   0   9   4    0.34    0.06
   1   9   4   -0.01    0.04
   2   9   4    0.02    0.04
   3   9   4    0.50    0.07
   4   9   4    1.13    0.10
   5   9   4    0.19    0.07
   1  10   4    0.16    0.05
   2  10   4    0.29    0.06
   3  10   4   -0.06    0.05
   3   9  -5    0.04    0.05
   2   9  -5    0.06    0.05
   1   9  -5   -0.06    0.04
   0   9  -5    0.27    0.06
   0  -9   5    0.31    0.07
  -1   9  -5    0.31    0.06
   1  -9   5    0.27    0.06
  -2   9  -5    0.27    0.06
   2  -9   5    0.20    0.06
  -3   9  -5    0.36    0.07
   3  -9   5    0.29    0.06
   4   8  -5    0.00    0.04
   3   8  -5    1.40    0.10
   2   8  -5    0.28    0.06
   2   8  -5    0.42    0.07
   1   8  -5    0.88    0.08
  -1  -8   5    0.76    0.08
   0   8  -5    0.64    0.07
   0  -8   5    0.76    0.08
  -1   8  -5    0.07    0.04
   1  -8   5    0.03    0.04
  -2   8  -5   -0.03    0.03
   2  -8   5   -0.05    0.03
  -3   8  -5    0.11    0.05
   3  -8   5    0.11    0.05
  -4   8  -5   -0.02    0.03
   4  -8   5    0.03    0.04
  -5   8  -5    0.15    0.05
   5  -8   5    0.17    0.06
   5   7  -5    1.16    0.10
   4   7  -5    0.01    0.04
   3   7  -5    0.22    0.05
   3   7  -5    0.23    0.05
   2   7  -5    0.02    0.03
   2   7  -5    0.00    0.04
   1   7  -5    4.63    0.17
  -1  -7   5    4.85    0.17
   0   7  -5    1.58    0.10
   0  -7   5    1.57    0.10
  -1   7  -5    0.05    0.03
   1  -7   5    0.04    0.03
  -2   7  -5    0.10    0.04
   2  -7   5    0.11    0.04
  -3   7  -5    0.79    0.08
   3  -7   5    0.83    0.08
  -4   7  -5    0.29    0.06
   4  -7   5    0.35    0.06
  -5   7  -5    0.01    0.04
   5  -7   5   -0.02    0.04
  -6   7  -5    0.06    0.05
   6  -7   5    0.07    0.05
   5   6  -5   -0.02    0.04
   4   6  -5    0.36    0.06
   4   6  -5    0.44    0.06
   3   6  -5    2.31    0.11
   3   6  -5    2.20    0.11
   2   6  -5    0.14    0.04
   2   6  -5    0.18    0.04
   1   6  -5   -0.06    0.03
  -1  -6   5    0.03    0.03
   0   6  -5    1.51    0.09
   0  -6   5    1.67    0.09
  -1   6  -5    0.00    0.03
   1  -6   5    0.03    0.03
  -2   6  -5    0.49    0.06
   2  -6   5    0.58    0.06
  -3   6  -5    0.13    0.04
   3  -6   5    0.15    0.04
  -4   6  -5    0.65    0.07
   4  -6   5    0.71    0.08
  -5   6  -5   -0.02    0.03
   5  -6   5    0.01    0.03
  -6   6  -5    0.47    0.07
   6  -6   5    0.35    0.07
  -7   6  -5    0.16    0.06
   7  -6   5    0.31    0.07
   5   5  -5   -0.05    0.03
   4   5  -5    0.97    0.07
   4   5  -5    0.95    0.07
   3   5  -5    0.01    0.03
   3   5  -5    0.00    0.03
   2   5  -5    0.10    0.03
   2   5  -5    0.13    0.04
   1   5  -5    0.35    0.05
  -1  -5   5    0.36    0.05
   0   5  -5    0.44    0.05
   0  -5   5    0.26    0.04
  -1   5  -5    0.06    0.03
   1  -5   5    0.20    0.04
  -2   5  -5    0.80    0.06
   2  -5   5    0.76    0.06
  -3   5  -5    0.23    0.04
   3  -5   5    0.30    0.05
  -4   5  -5    0.00    0.02
   4  -5   5    0.03    0.03
  -5   5  -5    1.50    0.10
   5  -5   5    1.58    0.10
  -6   5  -5    1.16    0.09
   6  -5   5    1.24    0.10
  -7   5  -5    0.08    0.04
   7  -5   5    0.06    0.05
   5   4  -5    0.18    0.05
   5   4  -5    0.24    0.04
   4   4  -5    0.04    0.03
   4   4  -5    0.02    0.03
   3   4  -5    0.13    0.04
   3   4  -5    0.15    0.03
   2   4  -5    0.34    0.04
   2   4  -5    0.16    0.03
   1   4  -5    1.64    0.08
  -1  -4   5    1.67    0.08
   0   4  -5    2.37    0.10
   0  -4   5    2.43    0.10
  -1   4  -5    3.35    0.12
   1  -4   5    3.41    0.12
  -2   4  -5    1.05    0.07
   2  -4   5    1.06    0.07
  -3   4  -5    0.25    0.04
   3  -4   5    0.25    0.04
  -4   4  -5    0.29    0.04
  -4   4  -5    0.40    0.04
   4  -4   5    0.35    0.05
  -5   4  -5    3.34    0.14
  -5   4  -5    3.36    0.11
   5  -4   5    3.44    0.15
  -6   4  -5    1.64    0.10
  -6   4  -5    1.57    0.08
   6  -4   5    1.76    0.11
  -7   4  -5   -0.02    0.03
  -7   4  -5    0.03    0.03
   7  -4   5    0.04    0.04
  -8   4  -5    0.04    0.04
  -8   4  -5    0.07    0.04
   8  -4   5    0.02    0.05
   6   3  -5    1.55    0.09
   5   3  -5    0.22    0.04
   4   3  -5   -0.01    0.03
   4   3  -5    0.04    0.03
   3   3  -5    1.02    0.06
   3   3  -5    1.09    0.06
   2   3  -5    0.67    0.05
   2   3  -5    0.77    0.06
   1   3  -5    1.22    0.07
  -1  -3   5    1.13    0.06
   0   3  -5   18.27    0.38
   0  -3   5   18.12    0.38
  -1   3  -5    0.41    0.04
  -1   3  -5    0.42    0.02
   1  -3   5    0.41    0.04
  -2   3  -5    0.36    0.04
  -3   3  -5    2.06    0.07
  -3   3  -5    1.97    0.09
   3  -3   5    2.19    0.10
  -4   3  -5    0.21    0.03
  -4   3  -5    0.18    0.03
   4  -3   5    0.22    0.04
  -5   3  -5    3.03    0.13
  -5   3  -5    3.35    0.11
   5  -3   5    3.30    0.14
  -6   3  -5    0.45    0.06
  -6   3  -5    0.51    0.05
   6  -3   5    0.46    0.06
  -7   3  -5    0.44    0.06
  -7   3  -5    0.37    0.05
   7  -3   5    0.43    0.07
  -8   3  -5    0.08    0.04
   8  -3   5    0.05    0.05
   7   2  -5    0.71    0.07
   6   2  -5    0.76    0.07
  -6  -2   5    0.67    0.06
   5   2  -5    3.78    0.13
  -5  -2   5    3.79    0.12
   4   2  -5   13.51    0.30
   4   2  -5   13.39    0.29
  -4  -2   5   12.86    0.28
   3   2  -5    0.05    0.03
   3   2  -5    0.08    0.02
  -3  -2   5    0.04    0.02
   2   2  -5    1.78    0.08
   2   2  -5    1.83    0.07
  -2  -2   5    1.73    0.06
   1   2  -5    5.67    0.15
  -1  -2   5    5.69    0.14
  -1  -2   5    5.82    0.10
  -1  -2   5    5.83    0.12
   0   2  -5   17.82    0.31
   0   2  -5   17.07    0.35
   0  -2   5   17.28    0.35
  -1   2  -5    3.80    0.11
  -1   2  -5    3.85    0.08
   1  -2   5    3.63    0.11
  -2   2  -5    0.23    0.02
  -2   2  -5    0.27    0.03
   2  -2   5    0.28    0.03
  -3   2  -5    0.19    0.03
  -3   2  -5    0.21    0.02
   3  -2   5    0.19    0.03
  -4   2  -5    1.10    0.06
  -4   2  -5    1.25    0.07
   4  -2   5    1.02    0.07
  -5   2  -5    3.61    0.12
  -5   2  -5    3.49    0.13
   5  -2   5    3.61    0.14
  -6   2  -5    0.15    0.03
  -6   2  -5    0.21    0.04
   6  -2   5    0.18    0.04
  -7   2  -5    0.14    0.04
  -7   2  -5    0.15    0.04
   7  -2   5    0.17    0.05
  -8   2  -5    0.36    0.05
   8  -2   5    0.42    0.07
   7   1  -5    1.56    0.10
  -7  -1   5    1.61    0.09
   6   1  -5    0.04    0.03
  -6  -1   5    0.05    0.03
   5   1  -5    8.91    0.24
  -5  -1   5    9.59    0.23
   4   1  -5    0.86    0.06
  -4  -1   5    0.85    0.05
   3   1  -5   11.22    0.24
   3   1  -5   11.39    0.26
  -3  -1   5   11.02    0.23
   2   1  -5   16.91    0.32
   2   1  -5   16.90    0.35
  -2  -1   5   16.54    0.25
  -2  -1   5   16.62    0.32
   1   1  -5    9.66    0.19
   1   1  -5   10.04    0.22
  -1  -1   5    9.89    0.20
   0   1  -5    3.57    0.10
   0   1  -5    3.55    0.08
   0  -1   5    3.53    0.09
  -1   1  -5   10.45    0.23
  -1   1  -5   10.44    0.20
   1  -1   5   10.36    0.22
  -2   1  -5    1.65    0.07
  -2   1  -5    1.77    0.06
   2  -1   5    1.81    0.07
  -3   1  -5    2.36    0.09
  -3   1  -5    2.31    0.08
   3  -1   5    2.42    0.09
  -4   1  -5    1.68    0.07
  -4   1  -5    1.62    0.07
   4  -1   5    1.55    0.08
  -5   1  -5    3.58    0.12
  -5   1  -5    3.14    0.11
   5  -1   5    3.35    0.13
  -6   1  -5    2.86    0.11
  -6   1  -5    2.87    0.11
   6  -1   5    2.93    0.13
  -7   1  -5    1.59    0.09
   7  -1   5    1.68    0.11
  -8   1  -5    0.18    0.04
   8  -1   5    0.19    0.05
   7   0  -5    0.04    0.03
  -7   0   5   -0.02    0.03
   6   0  -5    1.00    0.08
  -6   0   5    0.97    0.07
   5   0  -5    3.94    0.14
  -5   0   5    3.85    0.13
   4   0  -5    1.22    0.07
  -4   0   5    1.28    0.06
   3   0  -5   67.04    1.24
  -3   0   5   67.94    1.18
  -3   0   5   67.46    0.94
   2   0  -5    2.97    0.07
   2   0  -5    2.91    0.10
  -2   0   5    2.98    0.09
  -2   0   5    3.06    0.07
   1   0  -5   91.37    1.61
   1   0  -5   89.09    1.60
   1   0  -5   88.83    1.52
   0   0  -5   36.47    0.63
   0   0  -5   35.77    0.67
   0   0   5   35.83    0.66
  -1   0  -5    0.16    0.02
   1   0   5    0.02    0.01
  -2   0  -5    1.87    0.06
  -2   0  -5    1.96    0.07
   2   0   5    1.99    0.07
  -3   0  -5   15.25    0.30
  -3   0  -5   15.32    0.31
   3   0   5   15.29    0.33
  -4   0  -5    0.39    0.03
  -4   0  -5    0.33    0.03
   4   0   5    0.38    0.04
  -5   0  -5    6.43    0.17
  -5   0  -5    6.37    0.17
   5   0   5    6.45    0.19
  -6   0  -5    7.53    0.20
   6   0   5    7.57    0.23
  -7   0  -5    1.15    0.08
   7   0   5    1.33    0.09
  -8   0  -5    0.35    0.06
   8   0   5    0.50    0.07
  -9   0  -5    0.01    0.03
   9   0   5    0.00    0.04
   7  -1  -5    0.04    0.03
  -7   1   5   -0.03    0.03
   6  -1  -5   -0.03    0.02
  -6   1   5   -0.03    0.03
   5  -1  -5   -0.01    0.02
  -5   1   5    0.02    0.02
   4  -1  -5    1.23    0.07
  -4   1   5    1.35    0.07
   3  -1  -5    6.22    0.17
  -3   1   5    5.98    0.12
  -3   1   5    5.95    0.15
   2  -1  -5   36.89    0.69
   2  -1  -5   36.26    0.66
   1  -1  -5   51.40    0.89
   1  -1  -5   50.42    0.93
   0  -1  -5    1.98    0.07
   0  -1  -5    2.29    0.07
  -1  -1  -5  146.93    2.50
  -1  -1  -5  147.02    2.62
   1   1   5  152.16    2.65
  -2  -1  -5   59.17    1.01
  -2  -1  -5   57.91    1.04
   2   1   5   58.50    1.07
  -3  -1  -5    0.23    0.02
  -3  -1  -5    0.26    0.03
   3   1   5    0.21    0.03
  -4  -1  -5    2.37    0.09
  -4  -1  -5    2.49    0.08
   4   1   5    2.41    0.10
  -5  -1  -5    5.53    0.16
   5   1   5    5.52    0.17
  -6  -1  -5    8.95    0.23
   6   1   5    9.09    0.25
  -7  -1  -5    0.35    0.05
   7   1   5    0.47    0.06
  -8  -1  -5    0.62    0.06
   8   1   5    0.70    0.08
  -9  -1  -5    0.04    0.04
   9   1   5    0.14    0.06
   7  -2  -5    0.25    0.05
  -7   2   5    0.23    0.05
   6  -2  -5    0.13    0.04
  -6   2   5    0.11    0.04
   5  -2  -5    0.02    0.03
  -5   2   5   -0.03    0.02
   4  -2  -5    3.47    0.13
  -4   2   5    3.60    0.12
   3  -2  -5    1.36    0.07
  -3   2   5    1.39    0.05
   2  -2  -5    0.53    0.04
   2  -2  -5    0.59    0.04
   1  -2  -5    9.61    0.20
   1  -2  -5    9.31    0.21
   0  -2  -5   15.07    0.29
   0  -2  -5   15.35    0.30
   0   2   5   15.14    0.28
  -1  -2  -5    0.84    0.04
  -1  -2  -5    0.77    0.04
   1   2   5    0.85    0.04
  -2  -2  -5   22.85    0.43
  -2  -2  -5   23.14    0.42
   2   2   5   22.62    0.45
  -3  -2  -5    6.31    0.15
  -3  -2  -5    6.23    0.13
   3   2   5    6.25    0.16
  -4  -2  -5    0.89    0.05
   4   2   5    0.88    0.06
  -5  -2  -5   12.07    0.27
   5   2   5   12.12    0.30
  -6  -2  -5    7.69    0.21
   6   2   5    7.67    0.23
  -7  -2  -5    0.04    0.03
   7   2   5    0.07    0.04
  -8  -2  -5    0.71    0.07
   8   2   5    0.45    0.07
  -9  -2  -5    0.03    0.04
   9   2   5    0.10    0.05
   7  -3  -5    0.99    0.09
  -7   3   5    1.05    0.09
   6  -3  -5    2.30    0.13
  -6   3   5    2.46    0.12
   5  -3  -5    2.42    0.12
  -5   3   5    2.23    0.10
   4  -3  -5    2.97    0.12
  -4   3   5    2.96    0.09
  -4   3   5    2.92    0.11
   3  -3  -5    1.60    0.08
  -3   3   5    1.76    0.08
  -3   3   5    1.65    0.06
   2  -3  -5    1.37    0.07
   2  -3  -5    1.49    0.07
   1  -3  -5    2.06    0.08
   1  -3  -5    2.07    0.08
  -1   3   5    2.11    0.05
   0  -3  -5    6.57    0.15
   0  -3  -5    6.52    0.15
   0   3   5    6.55    0.14
  -1  -3  -5   21.94    0.42
  -1  -3  -5   22.41    0.42
   1   3   5   22.70    0.43
  -2  -3  -5   23.95    0.45
  -2  -3  -5   24.68    0.44
   2   3   5   23.55    0.47
  -3  -3  -5    9.17    0.20
   3   3   5    9.06    0.22
  -4  -3  -5    0.36    0.04
   4   3   5    0.32    0.05
  -5  -3  -5    0.21    0.04
   5   3   5    0.20    0.05
  -6  -3  -5    4.66    0.15
   6   3   5    4.68    0.17
  -7  -3  -5    0.56    0.06
   7   3   5    0.52    0.07
  -8  -3  -5    0.26    0.05
   8   3   5    0.24    0.06
   7  -4  -5    0.02    0.04
  -7   4   5    0.02    0.04
   6  -4  -5    0.37    0.07
  -6   4   5    0.21    0.05
   5  -4  -5    0.68    0.07
  -5   4   5    0.65    0.06
   4  -4  -5    0.65    0.07
  -4   4   5    0.64    0.05
  -4   4   5    0.64    0.06
   3  -4  -5    0.47    0.05
  -3   4   5    0.51    0.04
  -3   4   5    0.45    0.04
   2  -4  -5    2.80    0.11
   2  -4  -5    2.83    0.10
   1  -4  -5    0.92    0.05
   1  -4  -5    0.88    0.05
   0  -4  -5    0.04    0.02
   0  -4  -5    0.00    0.01
   0   4   5   -0.01    0.01
  -1  -4  -5    1.68    0.07
  -1  -4  -5    1.63    0.06
   1   4   5    1.64    0.06
  -2  -4  -5    0.48    0.04
   2   4   5    0.42    0.04
  -3  -4  -5    0.02    0.02
   3   4   5    0.03    0.03
  -4  -4  -5    8.74    0.21
   4   4   5    8.61    0.23
  -5  -4  -5    1.55    0.08
   5   4   5    1.56    0.09
  -6  -4  -5    0.96    0.07
   6   4   5    1.04    0.09
  -7  -4  -5    0.31    0.05
   7   4   5    0.35    0.07
  -8  -4  -5    0.01    0.03
   8   4   5   -0.03    0.04
   6  -5  -5    0.22    0.06
  -6   5   5    0.16    0.04
   5  -5  -5    1.19    0.09
  -5   5   5    1.17    0.08
   4  -5  -5    3.08    0.14
  -4   5   5    3.00    0.10
  -4   5   5    3.30    0.13
   3  -5  -5    4.69    0.16
  -3   5   5    4.95    0.15
  -3   5   5    4.78    0.12
   2  -5  -5    0.01    0.02
   2  -5  -5    0.00    0.02
   1  -5  -5    2.91    0.10
   1  -5  -5    3.00    0.11
   0  -5  -5    1.36    0.06
   0  -5  -5    1.34    0.06
   0   5   5    1.41    0.06
  -1  -5  -5   13.42    0.28
   1   5   5   13.04    0.28
  -2  -5  -5    9.03    0.21
   2   5   5    9.22    0.22
  -3  -5  -5    2.30    0.09
   3   5   5    2.48    0.10
  -4  -5  -5    2.26    0.09
   4   5   5    2.04    0.10
  -5  -5  -5    1.74    0.08
   5   5   5    1.71    0.10
  -6  -5  -5    0.56    0.05
   6   5   5    0.30    0.06
  -7  -5  -5   -0.02    0.03
   7   5   5   -0.02    0.04
  -8  -5  -5    0.34    0.05
   8   5   5    0.32    0.07
   6  -6  -5    0.64    0.08
  -6   6   5    0.64    0.07
   5  -6  -5    0.12    0.04
  -5   6   5    0.14    0.04
   4  -6  -5    1.27    0.09
  -4   6   5    1.25    0.08
  -4   6   5    1.11    0.06
   3  -6  -5   11.03    0.30
  -3   6   5   11.13    0.27
  -3   6   5   11.00    0.22
   2  -6  -5    8.46    0.23
   2  -6  -5    8.40    0.22
   1  -6  -5    2.81    0.11
   1  -6  -5    2.66    0.10
   0  -6  -5    2.92    0.10
   0  -6  -5    2.94    0.11
   0   6   5    3.07    0.10
  -1  -6  -5    8.02    0.20
   1   6   5    8.03    0.20
  -2  -6  -5    8.04    0.20
   2   6   5    8.03    0.21
  -3  -6  -5    8.75    0.21
   3   6   5    8.64    0.23
  -4  -6  -5    0.53    0.05
   4   6   5    0.50    0.06
  -5  -6  -5    1.21    0.07
   5   6   5    1.36    0.10
  -6  -6  -5    0.42    0.05
   6   6   5    0.35    0.07
  -7  -6  -5    0.01    0.03
   7   6   5   -0.07    0.04
   5  -7  -5    0.85    0.09
  -5   7   5    0.90    0.08
   4  -7  -5    0.38    0.06
  -4   7   5    0.36    0.05
  -4   7   5    0.39    0.04
   3  -7  -5    0.63    0.07
  -3   7   5    0.61    0.06
  -3   7   5    0.60    0.05
   2  -7  -5    4.53    0.15
   2  -7  -5    4.78    0.17
   1  -7  -5    5.77    0.18
   1  -7  -5    5.65    0.17
   0  -7  -5    5.93    0.17
  -1  -7  -5   19.87    0.41
   1   7   5   20.44    0.43
  -2  -7  -5   19.88    0.40
   2   7   5   20.28    0.44
  -3  -7  -5    0.06    0.02
   3   7   5    0.03    0.04
  -4  -7  -5    1.55    0.08
   4   7   5    1.49    0.09
  -5  -7  -5    0.00    0.02
   5   7   5   -0.04    0.05
  -6  -7  -5    0.08    0.03
   6   7   5    0.11    0.06
  -7  -7  -5    0.04    0.03
   7   7   5   -0.08    0.05
   4  -8  -5    0.28    0.06
  -4   8   5    0.25    0.05
   3  -8  -5    0.09    0.04
  -3   8   5    0.06    0.03
  -3   8   5    0.06    0.03
   2  -8  -5    0.92    0.08
   2  -8  -5    1.02    0.07
   1  -8  -5    0.75    0.06
   0  -8  -5    4.81    0.15
  -1  -8  -5    0.21    0.04
   1   8   5    0.25    0.05
  -2  -8  -5    0.20    0.04
   2   8   5    0.21    0.05
  -3  -8  -5    1.67    0.08
   3   8   5    1.59    0.10
  -4  -8  -5    0.25    0.04
   4   8   5    0.18    0.05
   5   8   5    0.35    0.07
   6   8   5    1.39    0.12
   3  -9  -5    0.60    0.08
  -3   9   5    0.61    0.06
  -3   9   5    0.64    0.05
   2   9   5    1.19    0.09
   3   9   5    3.28    0.15
   4   9   5    0.50    0.08
   5   9   5    1.21    0.11
   3  10   5   -0.09    0.05
   2   9  -6    0.04    0.05
   1   9  -6    0.55    0.08
   1   9  -6    0.51    0.08
   0   9  -6   -0.02    0.04
   0  -9   6    0.04    0.04
  -1   9  -6    0.36    0.07
   1  -9   6    0.50    0.08
  -2   9  -6    0.94    0.09
   2  -9   6    0.90    0.10
   3   8  -6    1.93    0.12
   2   8  -6    0.43    0.07
   2   8  -6    0.46    0.07
   1   8  -6    0.72    0.08
  -1  -8   6    0.70    0.08
   0   8  -6    1.69    0.11
   0  -8   6    1.87    0.11
  -1   8  -6   -0.01    0.04
   1  -8   6    0.07    0.04
  -2   8  -6    0.35    0.07
   2  -8   6    0.28    0.06
  -3   8  -6    0.90    0.09
   3  -8   6    0.90    0.10
  -4   8  -6    0.34    0.07
   4  -8   6    0.27    0.06
   4   7  -6    0.13    0.05
   3   7  -6    1.32    0.09
   3   7  -6    1.28    0.10
   2   7  -6    1.16    0.09
   2   7  -6    1.34    0.09
   1   7  -6    4.42    0.17
  -1  -7   6    4.03    0.16
   0   7  -6    0.09    0.04
   0  -7   6    0.11    0.04
  -1   7  -6    3.11    0.14
   1  -7   6    3.29    0.15
  -2   7  -6    3.61    0.16
   2  -7   6    3.38    0.16
  -3   7  -6    0.29    0.06
   3  -7   6    0.34    0.06
  -4   7  -6   -0.05    0.03
   4  -7   6   -0.02    0.04
  -5   7  -6    0.00    0.04
   5  -7   6    0.02    0.04
   4   6  -6    0.02    0.04
   4   6  -6   -0.03    0.04
   3   6  -6    0.01    0.04
   3   6  -6    0.06    0.04
   2   6  -6    0.03    0.03
   2   6  -6   -0.02    0.04
   1   6  -6    0.96    0.07
  -1  -6   6    0.94    0.07
   0   6  -6    2.85    0.13
   0  -6   6    2.63    0.12
  -1   6  -6    7.17    0.22
   1  -6   6    6.78    0.21
  -2   6  -6    1.09    0.08
   2  -6   6    1.09    0.08
  -3   6  -6    7.89    0.25
   3  -6   6    7.59    0.24
  -4   6  -6    0.69    0.08
   4  -6   6    0.67    0.08
  -5   6  -6    0.67    0.08
   5  -6   6    0.66    0.08
  -6   6  -6    0.04    0.04
   6  -6   6    0.06    0.05
   5   5  -6    0.29    0.05
   4   5  -6    0.25    0.05
   4   5  -6    0.32    0.05
   3   5  -6    0.09    0.04
   3   5  -6    0.02    0.03
   2   5  -6    0.45    0.05
   2   5  -6    0.53    0.06
   1   5  -6    3.70    0.14
  -1  -5   6    3.72    0.13
   0   5  -6    1.48    0.08
   0  -5   6    1.21    0.08
  -1   5  -6    2.55    0.11
   1  -5   6    2.33    0.11
  -2   5  -6    0.03    0.03
   2  -5   6    0.01    0.03
  -3   5  -6    0.63    0.06
   3  -5   6    0.60    0.07
  -4   5  -6    0.25    0.05
   4  -5   6    0.14    0.04
  -5   5  -6    1.80    0.11
   5  -5   6    1.92    0.12
  -6   5  -6    0.75    0.08
   6  -5   6    0.86    0.09
  -7   5  -6    0.32    0.06
   7  -5   6    0.22    0.06
   5   4  -6    0.16    0.04
   4   4  -6    0.19    0.04
   3   4  -6    1.70    0.09
   3   4  -6    2.00    0.09
   2   4  -6   11.41    0.28
   2   4  -6   11.96    0.28
   1   4  -6   10.93    0.27
  -1  -4   6   11.00    0.26
   0   4  -6    0.31    0.04
   0  -4   6    0.39    0.04
  -1   4  -6    0.99    0.07
   1  -4   6    0.93    0.06
  -2   4  -6    1.04    0.07
   2  -4   6    0.94    0.07
  -3   4  -6    6.20    0.19
   3  -4   6    6.48    0.20
  -4   4  -6   -0.03    0.03
   4  -4   6    0.03    0.03
  -5   4  -6    0.09    0.04
   5  -4   6    0.18    0.05
  -6   4  -6    1.21    0.09
   6  -4   6    1.43    0.10
  -7   4  -6    0.30    0.06
   7  -4   6    0.14    0.05
   6   3  -6    0.01    0.03
   5   3  -6    0.87    0.07
   4   3  -6    0.22    0.04
   3   3  -6    6.77    0.19
   3   3  -6    6.85    0.18
   2   3  -6    9.14    0.22
   2   3  -6    9.36    0.23
   1   3  -6   17.49    0.38
  -1  -3   6   17.27    0.36
   0   3  -6    0.65    0.05
   0  -3   6    0.69    0.05
  -1   3  -6    2.80    0.11
   1  -3   6    2.70    0.10
  -2   3  -6    1.37    0.07
  -2   3  -6    1.41    0.05
   2  -3   6    1.47    0.08
  -3   3  -6    6.82    0.20
  -3   3  -6    7.19    0.16
   3  -3   6    7.03    0.20
  -4   3  -6    0.59    0.04
  -4   3  -6    0.57    0.05
   4  -3   6    0.56    0.06
  -5   3  -6    0.48    0.04
  -5   3  -6    0.50    0.06
   5  -3   6    0.48    0.06
  -6   3  -6    0.03    0.03
  -6   3  -6    0.00    0.02
   6  -3   6    0.04    0.04
  -7   3  -6    0.62    0.07
  -7   3  -6    0.65    0.06
   7  -3   6    0.69    0.08
  -8   3  -6    0.40    0.06
   8  -3   6    0.57    0.08
   7   2  -6    0.15    0.05
   6   2  -6    0.20    0.04
   5   2  -6    2.38    0.11
   4   2  -6    0.10    0.04
  -4  -2   6    0.12    0.03
   3   2  -6   10.02    0.25
  -3  -2   6   10.33    0.22
   2   2  -6   14.91    0.33
   2   2  -6   14.75    0.30
  -2  -2   6   14.39    0.28
   1   2  -6    9.55    0.19
   1   2  -6    9.76    0.23
  -1  -2   6    9.82    0.21
   0   2  -6    5.95    0.12
   0   2  -6    6.12    0.16
   0  -2   6    5.90    0.15
  -1   2  -6   -0.03    0.02
  -1   2  -6    0.00    0.01
   1  -2   6    0.00    0.01
  -2   2  -6    0.26    0.02
  -2   2  -6    0.29    0.04
   2  -2   6    0.27    0.03
  -3   2  -6   14.39    0.29
  -3   2  -6   14.31    0.32
   3  -2   6   14.56    0.33
  -4   2  -6    0.02    0.02
  -4   2  -6    0.06    0.03
   4  -2   6    0.07    0.03
  -5   2  -6    0.25    0.04
  -5   2  -6    0.23    0.03
   5  -2   6    0.25    0.05
  -6   2  -6    0.35    0.05
  -6   2  -6    0.38    0.04
   6  -2   6    0.31    0.05
  -7   2  -6    0.15    0.04
   7  -2   6    0.09    0.04
  -8   2  -6   -0.02    0.03
   8  -2   6   -0.04    0.03
   7   1  -6    0.00    0.03
   6   1  -6    0.00    0.03
  -6  -1   6    0.04    0.03
   5   1  -6    0.02    0.03
  -5  -1   6   -0.01    0.02
   4   1  -6    0.34    0.05
  -4  -1   6    0.35    0.04
   3   1  -6   10.17    0.24
  -3  -1   6    9.86    0.22
   2   1  -6    0.44    0.04
  -2  -1   6    0.49    0.03
  -2  -1   6    0.51    0.03
   1   1  -6   58.19    1.07
   1   1  -6   56.52    1.00
  -1  -1   6   60.00    1.05
   0   1  -6   20.78    0.38
   0   1  -6   21.20    0.42
   0  -1   6   20.66    0.40
  -1   1  -6    1.56    0.05
  -1   1  -6    1.52    0.07
   1  -1   6    1.52    0.06
  -2   1  -6   18.44    0.38
  -2   1  -6   18.80    0.35
   2  -1   6   18.43    0.38
  -3   1  -6    4.45    0.13
  -3   1  -6    4.33    0.12
   3  -1   6    4.29    0.13
  -4   1  -6    4.25    0.13
  -4   1  -6    4.03    0.12
   4  -1   6    4.08    0.14
  -5   1  -6    0.91    0.06
  -5   1  -6    0.95    0.06
   5  -1   6    0.82    0.07
  -6   1  -6    0.11    0.03
   6  -1   6    0.12    0.04
  -7   1  -6    0.02    0.03
   7  -1   6    0.03    0.04
  -8   1  -6    0.01    0.03
   8  -1   6   -0.02    0.03
   7   0  -6    0.16    0.05
  -7   0   6    0.12    0.04
   6   0  -6    0.19    0.04
  -6   0   6    0.20    0.04
   5   0  -6    0.82    0.07
  -5   0   6    0.73    0.06
   4   0  -6    0.30    0.04
  -4   0   6    0.30    0.04
   3   0  -6    1.40    0.08
  -3   0   6    1.52    0.05
  -3   0   6    1.50    0.07
   2   0  -6    2.11    0.07
   2   0  -6    2.22    0.09
   1   0  -6   17.10    0.35
   1   0  -6   17.53    0.32
   1   0  -6   17.04    0.33
   0   0  -6   11.55    0.23
   0   0  -6   11.14    0.25
   0   0   6   11.74    0.23
  -1   0  -6   69.15    1.25
  -1   0  -6   69.70    1.18
   1   0   6   68.49    1.25
  -2   0  -6   11.82    0.25
  -2   0  -6   11.85    0.24
   2   0   6   11.33    0.25
  -3   0  -6    4.38    0.12
  -3   0  -6    4.59    0.12
   3   0   6    4.58    0.14
  -4   0  -6    0.49    0.04
  -4   0  -6    0.54    0.04
   4   0   6    0.56    0.05
  -5   0  -6    2.70    0.10
   5   0   6    2.72    0.12
  -6   0  -6    0.07    0.03
   6   0   6    0.09    0.04
  -7   0  -6    0.02    0.03
   7   0   6    0.01    0.04
  -8   0  -6    0.04    0.03
   8   0   6    0.04    0.04
   7  -1  -6    0.90    0.08
  -7   1   6    1.00    0.08
   6  -1  -6    1.09    0.08
  -6   1   6    1.15    0.08
   5  -1  -6    5.34    0.18
  -5   1   6    5.03    0.16
   4  -1  -6    0.04    0.03
  -4   1   6    0.00    0.02
   3  -1  -6    0.20    0.03
  -3   1   6    0.12    0.03
  -3   1   6    0.14    0.02
   2  -1  -6   14.38    0.29
   2  -1  -6   14.18    0.31
   1  -1  -6   48.14    0.89
   1  -1  -6   47.72    0.84
   0  -1  -6    0.35    0.03
   0   1   6    0.42    0.02
  -1  -1  -6  118.48    2.10
  -1  -1  -6  118.44    2.01
   1   1   6  120.05    2.12
  -2  -1  -6    5.69    0.14
  -2  -1  -6    5.59    0.13
   2   1   6    5.55    0.14
  -3  -1  -6  102.11    1.77
  -3  -1  -6  101.49    1.72
   3   1   6   97.23    1.82
  -4  -1  -6   12.19    0.26
   4   1   6   12.13    0.29
  -5  -1  -6    1.84    0.08
   5   1   6    1.77    0.09
  -6  -1  -6    1.00    0.07
   6   1   6    1.04    0.08
  -7  -1  -6    0.99    0.07
   7   1   6    0.87    0.08
  -8  -1  -6    0.00    0.03
   8   1   6    0.02    0.04
   7  -2  -6    0.36    0.07
  -7   2   6    0.36    0.06
  -6   2   6   19.42    0.44
  -5   2   6    4.53    0.16
   4  -2  -6    0.23    0.04
  -4   2   6    0.22    0.03
  -4   2   6    0.16    0.03
   3  -2  -6    0.04    0.02
  -3   2   6    0.07    0.02
  -3   2   6    0.07    0.02
   2  -2  -6   28.08    0.56
   2  -2  -6   27.75    0.53
   1  -2  -6   18.69    0.37
   1  -2  -6   18.82    0.38
   0  -2  -6    0.13    0.02
   0  -2  -6    0.16    0.02
  -1  -2  -6    3.07    0.09
  -1  -2  -6    3.15    0.09
   1   2   6    3.15    0.08
  -2  -2  -6    2.40    0.07
  -2  -2  -6    2.56    0.08
   2   2   6    2.41    0.08
  -3  -2  -6   46.68    0.83
   3   2   6   45.90    0.88
  -4  -2  -6    1.52    0.07
   4   2   6    1.57    0.08
  -5  -2  -6   41.39    0.77
   5   2   6   41.24    0.82
  -6  -2  -6    0.20    0.04
   6   2   6    0.15    0.05
  -7  -2  -6    1.65    0.09
   7   2   6    1.63    0.11
  -8  -2  -6    0.09    0.04
   8   2   6    0.16    0.05
   7  -3  -6    0.19    0.06
  -7   3   6    0.24    0.05
   6  -3  -6    3.29    0.16
  -6   3   6    3.21    0.14
   5  -3  -6    5.32    0.19
  -5   3   6    5.49    0.18
   4  -3  -6   12.80    0.32
  -4   3   6   12.35    0.30
  -4   3   6   12.64    0.24
   3  -3  -6    7.38    0.21
  -3   3   6    7.58    0.16
  -3   3   6    7.69    0.20
   2  -3  -6   16.48    0.34
   2  -3  -6   15.99    0.35
   1  -3  -6    0.15    0.02
   1  -3  -6    0.13    0.03
   0  -3  -6    1.75    0.07
   0  -3  -6    1.82    0.07
  -1  -3  -6    1.89    0.06
  -1  -3  -6    1.78    0.07
   1   3   6    1.94    0.07
  -2  -3  -6    1.86    0.06
  -2  -3  -6    1.84    0.07
   2   3   6    1.85    0.08
  -3  -3  -6    2.70    0.09
   3   3   6    2.76    0.10
  -4  -3  -6    0.11    0.03
   4   3   6    0.21    0.04
  -5  -3  -6    0.23    0.04
   5   3   6    0.29    0.05
  -6  -3  -6    0.02    0.02
   6   3   6    0.02    0.04
  -7  -3  -6    7.39    0.22
   7   3   6    7.46    0.24
  -8  -3  -6   -0.02    0.03
   8   3   6    0.02    0.04
   6  -4  -6    5.09    0.20
  -6   4   6    5.13    0.19
   5  -4  -6    0.04    0.04
  -5   4   6    0.00    0.03
   4  -4  -6   12.50    0.32
  -4   4   6   12.28    0.24
  -4   4   6   11.89    0.29
   3  -4  -6    0.19    0.04
  -3   4   6    0.23    0.04
  -3   4   6    0.31    0.03
   2  -4  -6   12.74    0.30
   2  -4  -6   12.82    0.29
   1  -4  -6    8.96    0.22
   1  -4  -6    8.99    0.21
   0  -4  -6    0.23    0.03
   0  -4  -6    0.26    0.03
  -1  -4  -6   20.02    0.39
  -1  -4  -6   19.53    0.39
   1   4   6   21.09    0.40
  -2  -4  -6    0.63    0.04
   2   4   6    0.69    0.05
   3   4   6    7.38    0.20
  -4  -4  -6    0.08    0.02
   4   4   6    0.12    0.04
  -5  -4  -6    3.37    0.12
   5   4   6    3.33    0.14
  -6  -4  -6    0.07    0.03
   6   4   6    0.02    0.04
  -7  -4  -6   -0.01    0.03
   7   4   6    0.00    0.04
  -8  -4  -6    0.69    0.07
   8   4   6    0.71    0.09
   6  -5  -6    0.13    0.05
  -6   5   6    0.13    0.04
   5  -5  -6   -0.02    0.03
  -5   5   6    0.04    0.03
   4  -5  -6    0.94    0.08
  -4   5   6    0.84    0.07
  -4   5   6    0.92    0.06
   3  -5  -6    0.22    0.04
  -3   5   6    0.18    0.04
  -3   5   6    0.20    0.03
   2  -5  -6    0.08    0.03
   2  -5  -6    0.08    0.03
   1  -5  -6    0.36    0.04
   1  -5  -6    0.39    0.05
   0  -5  -6   15.84    0.33
   0  -5  -6   15.21    0.33
  -1  -5  -6    3.14    0.11
   1   5   6    3.24    0.10
  -2  -5  -6    0.08    0.02
   2   5   6    0.10    0.03
  -3  -5  -6    1.16    0.06
   3   5   6    1.20    0.08
  -4  -5  -6    4.32    0.14
   4   5   6    4.42    0.15
  -5  -5  -6    0.80    0.06
   5   5   6    0.76    0.08
  -6  -5  -6    0.10    0.03
   6   5   6   -0.01    0.05
  -7  -5  -6    0.46    0.06
   7   5   6    0.49    0.08
  -8  -5  -6    0.41    0.06
   8   5   6    0.36    0.07
   5  -6  -6    2.65    0.14
  -5   6   6    2.64    0.13
   4  -6  -6    0.37    0.06
  -4   6   6    0.38    0.04
  -4   6   6    0.37    0.05
   3  -6  -6    1.97    0.11
  -3   6   6    1.92    0.08
  -3   6   6    1.90    0.10
   2  -6  -6    0.07    0.03
   2  -6  -6    0.11    0.03
   1  -6  -6    0.04    0.03
   1  -6  -6    0.04    0.02
   0  -6  -6   12.38    0.28
  -1  -6  -6    7.44    0.19
  -2  -6  -6    0.09    0.03
   2   6   6    0.03    0.04
  -3  -6  -6    2.55    0.10
   3   6   6    2.44    0.11
  -4  -6  -6    1.70    0.08
   4   6   6    1.63    0.10
  -5  -6  -6    0.09    0.03
   5   6   6    0.09    0.05
  -6  -6  -6    0.41    0.05
   6   6   6    0.36    0.07
  -7  -6  -6    0.04    0.03
   7   6   6    0.11    0.06
   5  -7  -6    2.42    0.14
  -5   7   6    2.54    0.13
   4  -7  -6    0.18    0.05
  -4   7   6    0.18    0.04
  -4   7   6    0.17    0.03
   3  -7  -6    0.04    0.03
  -3   7   6    0.01    0.03
  -3   7   6    0.00    0.02
   2  -7  -6    1.55    0.09
   2  -7  -6    1.46    0.08
   1  -7  -6    4.45    0.15
   1  -7  -6    4.40    0.15
   0  -7  -6    0.99    0.06
  -1  -7  -6    7.02    0.19
  -2  -7  -6    2.18    0.09
   2   7   6    2.28    0.10
  -3  -7  -6    0.92    0.06
   3   7   6    0.88    0.08
  -4  -7  -6    0.33    0.04
   4   7   6    0.31    0.06
  -5  -7  -6    0.22    0.04
   5   7   6    0.11    0.06
  -6  -7  -6    0.09    0.04
   6   7   6    0.05    0.06
   4  -8  -6    0.14    0.05
  -4   8   6    0.11    0.04
  -4   8   6    0.08    0.03
   3  -8  -6    0.12    0.04
  -3   8   6    0.12    0.04
  -3   8   6    0.09    0.03
   2  -8  -6    0.10    0.03
   2  -8  -6    0.09    0.04
   1  -8  -6    0.03    0.03
   0  -8  -6   -0.02    0.02
  -1  -8  -6    1.11    0.07
  -2  -8  -6    0.29    0.04
  -3  -8  -6    6.11    0.18
   3   8   6    5.78    0.19
  -4  -8  -6    5.11    0.16
   4   8   6    5.03    0.19
  -5  -8  -6    2.13    0.10
   5   8   6    2.00    0.13
   6   8   6    0.22    0.08
  -2   9   6    0.39    0.04
  -2   9   6    0.44    0.06
   1  -9  -6    0.24    0.04
   0  -9  -6    0.02    0.03
  -1  -9  -6    0.92    0.07
   3   9   6    0.01    0.05
   4   9   6   -0.07    0.05
   0   9  -7    0.85    0.10
   0  -9   7    0.91    0.10
  -1   9  -7   -0.02    0.05
   1  -9   7    0.04    0.05
   3   8  -7    0.01    0.05
   2   8  -7    0.83    0.09
   2   8  -7    0.63    0.09
   1   8  -7    1.12    0.10
  -1  -8   7    1.41    0.10
   0   8  -7    0.07    0.05
   0  -8   7    0.26    0.06
  -1   8  -7    0.07    0.05
   1  -8   7    0.11    0.05
  -2   8  -7    0.06    0.05
   2  -8   7    0.07    0.05
  -3   8  -7    0.08    0.05
   3  -8   7    0.11    0.05
  -4   8  -7    0.22    0.06
   4  -8   7    0.27    0.07
   3   7  -7    0.11    0.05
   3   7  -7    0.10    0.05
   2   7  -7    0.12    0.06
   2   7  -7    0.10    0.04
   1   7  -7    0.30    0.06
  -1  -7   7    0.28    0.05
   0   7  -7    0.18    0.06
   0  -7   7    0.25    0.05
  -1   7  -7    2.64    0.13
   1  -7   7    2.63    0.13
  -2   7  -7    0.07    0.04
   2  -7   7    0.12    0.05
  -3   7  -7    2.14    0.13
   3  -7   7    2.15    0.13
  -4   7  -7   -0.03    0.04
   4  -7   7    0.00    0.04
  -5   7  -7    0.46    0.08
   5  -7   7    0.26    0.06
   4   6  -7    0.74    0.08
   3   6  -7    0.12    0.05
   3   6  -7    0.09    0.04
   2   6  -7    0.49    0.06
   2   6  -7    0.40    0.06
   1   6  -7    0.01    0.04
  -1  -6   7   -0.02    0.03
   0   6  -7    0.26    0.06
   0  -6   7    0.25    0.05
  -1   6  -7    0.05    0.04
   1  -6   7    0.13    0.04
  -2   6  -7    1.07    0.09
   2  -6   7    1.14    0.09
  -3   6  -7    3.26    0.15
   3  -6   7    3.34    0.15
  -4   6  -7    0.07    0.04
   4  -6   7   -0.05    0.03
  -5   6  -7    0.08    0.05
   5  -6   7    0.13    0.06
  -6   6  -7    0.26    0.06
   6  -6   7    0.15    0.06
   5   5  -7    0.15    0.05
   4   5  -7    1.55    0.10
   3   5  -7    0.01    0.04
   2   5  -7    0.27    0.06
   2   5  -7    0.31    0.05
   1   5  -7    0.05    0.04
  -1  -5   7    0.11    0.04
   0   5  -7    0.04    0.04
   0  -5   7    0.13    0.04
  -1   5  -7    0.00    0.03
   1  -5   7   -0.01    0.02
  -2   5  -7    0.36    0.05
   2  -5   7    0.46    0.05
  -3   5  -7    0.17    0.04
   3  -5   7    0.09    0.04
  -4   5  -7    4.02    0.17
   4  -5   7    4.31    0.18
  -5   5  -7    8.89    0.28
   5  -5   7    9.14    0.28
  -6   5  -7    0.10    0.05
   6  -5   7    0.10    0.05
  -7   5  -7    0.98    0.09
   7  -5   7    1.08    0.11
   6   4  -7    1.77    0.11
   5   4  -7    3.47    0.14
   4   4  -7   15.36    0.37
   3   4  -7    0.23    0.05
   2   4  -7    7.23    0.21
   2   4  -7    7.33    0.20
   1   4  -7    6.75    0.20
  -1  -4   7    6.74    0.19
   0   4  -7    5.95    0.18
   0  -4   7    5.69    0.17
  -1   4  -7    0.59    0.06
   1  -4   7    0.61    0.06
  -2   4  -7    0.53    0.06
   2  -4   7    0.48    0.06
  -3   4  -7    0.07    0.04
   3  -4   7    0.04    0.03
  -4   4  -7    0.01    0.03
   4  -4   7    0.00    0.03
  -5   4  -7    0.79    0.07
   5  -4   7    0.75    0.08
  -6   4  -7    1.44    0.10
   6  -4   7    1.36    0.11
  -7   4  -7    1.92    0.12
   7  -4   7    1.96    0.13
   6   3  -7    0.78    0.07
   5   3  -7    1.65    0.10
   4   3  -7    2.23    0.11
   3   3  -7    5.23    0.17
   2   3  -7   12.11    0.29
   1   3  -7    5.92    0.18
  -1  -3   7    5.84    0.16
   0   3  -7   10.12    0.25
   0  -3   7    9.82    0.24
  -1   3  -7    0.07    0.03
   1  -3   7    0.13    0.03
  -2   3  -7    2.62    0.11
   2  -3   7    2.64    0.11
  -3   3  -7    0.81    0.06
   3  -3   7    0.77    0.06
  -4   3  -7    1.55    0.07
  -4   3  -7    1.35    0.08
   4  -3   7    1.42    0.09
  -5   3  -7    1.38    0.07
  -5   3  -7    1.46    0.09
   5  -3   7    1.48    0.10
  -6   3  -7    0.32    0.04
  -6   3  -7    0.32    0.05
   6  -3   7    0.32    0.06
  -7   3  -7    0.37    0.05
  -7   3  -7    0.26    0.05
   7  -3   7    0.40    0.07
  -8   3  -7    0.14    0.04
   8  -3   7    0.14    0.06
   6   2  -7    0.26    0.05
   5   2  -7    0.41    0.06
   4   2  -7    2.08    0.10
   3   2  -7    7.64    0.21
   2   2  -7    6.53    0.19
   1   2  -7    3.52    0.12
  -1  -2   7    3.28    0.10
   0   2  -7   20.44    0.37
   0   2  -7   20.10    0.43
   0  -2   7   20.47    0.41
  -1   2  -7    0.24    0.02
  -1   2  -7    0.15    0.03
   1  -2   7    0.12    0.03
  -2   2  -7    4.31    0.14
  -2   2  -7    4.57    0.11
   2  -2   7    4.29    0.14
  -3   2  -7    1.45    0.06
  -3   2  -7    1.29    0.07
   3  -2   7    1.32    0.08
  -4   2  -7    0.27    0.04
  -4   2  -7    0.29    0.03
   4  -2   7    0.24    0.04
  -5   2  -7    1.93    0.10
  -5   2  -7    1.99    0.09
   5  -2   7    1.85    0.10
  -6   2  -7    0.21    0.04
  -6   2  -7    0.22    0.04
   6  -2   7    0.21    0.05
  -7   2  -7    0.66    0.06
   7  -2   7    0.54    0.08
  -8   2  -7    0.05    0.04
   8  -2   7    0.02    0.04
   7   1  -7   -0.01    0.03
   6   1  -7   -0.01    0.03
  -6  -1   7   -0.01    0.03
   5   1  -7    0.11    0.03
  -5  -1   7    0.10    0.03
   4   1  -7    1.44    0.08
  -4  -1   7    1.56    0.07
   3   1  -7   -0.03    0.03
  -3  -1   7    0.03    0.02
   2   1  -7   14.68    0.33
  -2  -1   7   14.08    0.29
  -2  -1   7   14.69    0.23
   1   1  -7    0.16    0.02
   1   1  -7    0.16    0.03
   0   1  -7    0.60    0.03
   0   1  -7    0.67    0.05
   0  -1   7    0.54    0.04
  -1   1  -7    6.16    0.14
  -1   1  -7    6.43    0.17
   1  -1   7    6.26    0.16
  -2   1  -7    8.04    0.20
  -2   1  -7    8.31    0.18
   2  -1   7    8.01    0.20
  -3   1  -7    2.07    0.07
  -3   1  -7    1.98    0.08
   3  -1   7    1.98    0.09
  -4   1  -7    5.45    0.16
  -4   1  -7    5.43    0.15
   4  -1   7    5.43    0.17
  -5   1  -7    7.67    0.19
  -5   1  -7    7.53    0.21
   5  -1   7    7.61    0.23
  -6   1  -7    2.65    0.11
   6  -1   7    2.75    0.13
  -7   1  -7    0.04    0.03
   7  -1   7    0.01    0.04
  -8   1  -7    0.06    0.04
   8  -1   7   -0.02    0.04
   7   0  -7    0.37    0.06
  -7   0   7    0.37    0.06
   6   0  -7    0.10    0.04
  -6   0   7   -0.03    0.02
   5   0  -7    0.20    0.04
  -5   0   7    0.21    0.04
   4   0  -7    0.02    0.03
  -4   0   7    0.00    0.02
   3   0  -7    0.11    0.03
  -3   0   7    0.11    0.02
  -3   0   7    0.10    0.03
   2   0  -7    0.40    0.05
   2   0  -7    0.37    0.04
   1   0  -7    0.11    0.02
   1   0  -7    0.13    0.03
   0   0  -7   19.49    0.39
   0   0  -7   18.85    0.36
  -1   0  -7   22.89    0.42
  -1   0  -7   22.83    0.45
   1   0   7   22.97    0.44
  -2   0  -7    5.65    0.14
  -2   0  -7    5.68    0.15
   2   0   7    6.03    0.15
  -3   0  -7    1.83    0.07
  -3   0  -7    1.96    0.08
   3   0   7    1.95    0.08
  -4   0  -7   10.24    0.23
  -4   0  -7    9.90    0.23
   4   0   7    9.81    0.25
  -5   0  -7    5.84    0.16
   5   0   7    5.75    0.19
  -6   0  -7    3.27    0.12
   6   0   7    3.28    0.14
  -7   0  -7    0.22    0.04
   7   0   7    0.15    0.05
  -8   0  -7    0.14    0.04
   8   0   7    0.07    0.05
   7  -1  -7    0.86    0.09
  -7   1   7    0.78    0.08
   6  -1  -7    1.23    0.09
  -6   1   7    1.15    0.08
   5  -1  -7    5.67    0.19
  -5   1   7    5.94    0.18
   4  -1  -7    1.16    0.08
  -4   1   7    1.16    0.07
   3  -1  -7    3.16    0.12
  -3   1   7    3.19    0.11
  -3   1   7    3.17    0.09
   2  -1  -7    0.08    0.02
   2  -1  -7    0.02    0.02
   1  -1  -7    6.07    0.16
   1  -1  -7    5.93    0.15
   0  -1  -7    0.03    0.02
   0  -1  -7    0.05    0.02
  -1  -1  -7   10.10    0.22
  -1  -1  -7   10.24    0.23
   1   1   7   10.42    0.21
  -2  -1  -7   13.81    0.28
  -2  -1  -7   13.41    0.28
   2   1   7   13.17    0.28
  -3  -1  -7    4.50    0.12
  -3  -1  -7    4.53    0.13
   3   1   7    4.33    0.13
  -4  -1  -7    0.82    0.05
   4   1   7    0.82    0.06
  -5  -1  -7   24.19    0.48
   5   1   7   24.16    0.52
  -6  -1  -7    6.71    0.19
   6   1   7    7.04    0.22
  -7  -1  -7    0.19    0.04
   7   1   7    0.15    0.05
  -8  -1  -7    0.07    0.04
   8   1   7    0.09    0.05
   7  -2  -7    0.49    0.08
   6  -2  -7   12.39    0.35
  -6   2   7   12.42    0.32
   5  -2  -7    0.08    0.04
  -5   2   7    0.12    0.04
   4  -2  -7   22.61    0.50
  -4   2   7   22.97    0.47
  -4   2   7   23.14    0.38
   3  -2  -7    7.87    0.22
  -3   2   7    7.88    0.20
  -3   2   7    7.98    0.16
   2  -2  -7    1.39    0.07
   2  -2  -7    1.48    0.08
   1  -2  -7    0.01    0.02
   1  -2  -7    0.05    0.02
   0  -2  -7    0.15    0.02
   0  -2  -7    0.18    0.03
  -1  -2  -7    0.03    0.02
  -1  -2  -7    0.04    0.02
   1   2   7    0.08    0.02
  -2  -2  -7    0.05    0.02
  -2  -2  -7    0.04    0.02
   2   2   7    0.05    0.02
  -3  -2  -7    1.38    0.06
   3   2   7    1.36    0.07
  -4  -2  -7    1.97    0.08
   4   2   7    1.86    0.09
  -5  -2  -7    0.24    0.04
   5   2   7    0.36    0.05
  -6  -2  -7    0.76    0.06
   6   2   7    0.81    0.07
  -7  -2  -7    4.30    0.15
   7   2   7    4.45    0.18
  -8  -2  -7    0.39    0.06
   8   2   7    0.50    0.08
   6  -3  -7    6.45    0.23
  -6   3   7    6.20    0.21
   5  -3  -7    0.44    0.06
  -5   3   7    0.43    0.06
   4  -3  -7   36.37    0.75
  -4   3   7   35.41    0.56
  -4   3   7   36.97    0.71
   3  -3  -7    1.16    0.08
  -3   3   7    1.13    0.06
  -3   3   7    1.16    0.07
   2  -3  -7   38.96    0.72
   2  -3  -7   38.59    0.76
   1  -3  -7    5.41    0.15
   1  -3  -7    5.48    0.15
   0  -3  -7    5.88    0.15
   0  -3  -7    5.94    0.15
  -1  -3  -7   10.80    0.23
  -1  -3  -7   10.63    0.24
  -2  -3  -7    0.01    0.01
   2   3   7    0.06    0.03
  -3  -3  -7    0.88    0.05
   3   3   7    0.71    0.06
  -4  -3  -7    2.94    0.11
   4   3   7    2.91    0.12
  -5  -3  -7    5.64    0.17
   5   3   7    5.68    0.18
  -6  -3  -7    0.01    0.02
   6   3   7    0.01    0.04
  -7  -3  -7    3.15    0.13
   7   3   7    3.28    0.15
  -8  -3  -7   -0.01    0.03
   8   3   7    0.03    0.05
   6  -4  -7    0.99    0.09
  -6   4   7    1.12    0.09
   5  -4  -7    0.09    0.04
  -5   4   7    0.09    0.04
   4  -4  -7    7.95    0.24
  -4   4   7    8.04    0.23
  -4   4   7    8.21    0.18
   3  -4  -7   11.75    0.30
  -3   4   7   11.30    0.28
  -3   4   7   11.47    0.22
   2  -4  -7   56.62    1.07
   2  -4  -7   56.15    1.02
   1  -4  -7    2.55    0.10
   1  -4  -7    2.69    0.11
   0  -4  -7   68.81    1.22
   0  -4  -7   70.10    1.27
  -1  -4  -7   17.42    0.36
  -1  -4  -7   18.38    0.36
  -2  -4  -7    0.47    0.04
   2   4   7    0.50    0.05
  -3  -4  -7    7.22    0.18
   3   4   7    7.21    0.20
  -4  -4  -7    0.01    0.02
   4   4   7    0.00    0.04
  -5  -4  -7    9.25    0.23
   5   4   7    9.44    0.26
  -6  -4  -7    0.42    0.05
   6   4   7    0.48    0.07
  -7  -4  -7    0.13    0.04
   7   4   7    0.25    0.06
  -8  -4  -7    0.14    0.04
   8   4   7    0.16    0.05
   6  -5  -7    0.18    0.06
   5  -5  -7   -0.03    0.03
  -5   5   7    0.02    0.03
   4  -5  -7    2.61    0.13
  -4   5   7    2.63    0.10
  -4   5   7    2.55    0.12
   3  -5  -7    0.94    0.08
  -3   5   7    0.90    0.06
  -3   5   7    0.96    0.07
   2  -5  -7   18.06    0.41
   2  -5  -7   17.28    0.38
   1  -5  -7    3.76    0.13
   1  -5  -7    3.89    0.13
   0  -5  -7   28.42    0.55
   0  -5  -7   28.75    0.57
  -1  -5  -7   47.84    0.87
  -2  -5  -7   75.51    1.33
  -3  -5  -7    0.18    0.03
   3   5   7    0.18    0.05
  -4  -5  -7    9.86    0.24
   4   5   7   10.19    0.27
  -5  -5  -7    0.83    0.06
   5   5   7    0.77    0.08
  -6  -5  -7    0.01    0.03
   6   5   7    0.00    0.04
  -7  -5  -7    0.17    0.04
   7   5   7    0.15    0.06
   5  -6  -7    0.02    0.04
  -5   6   7    0.04    0.04
   4  -6  -7    0.04    0.03
  -4   6   7    0.04    0.03
  -4   6   7    0.02    0.03
   3  -6  -7    0.00    0.03
  -3   6   7   -0.01    0.02
  -3   6   7   -0.03    0.02
   2  -6  -7    0.86    0.06
   2  -6  -7    0.94    0.07
   1  -6  -7    0.79    0.06
   1  -6  -7    0.59    0.06
   0  -6  -7   17.97    0.38
  -1  -6  -7    6.15    0.17
  -2  -6  -7    3.26    0.12
  -3  -6  -7    3.53    0.12
   3   6   7    3.42    0.13
  -4  -6  -7    4.42    0.15
   4   6   7    4.53    0.16
  -5  -6  -7    2.58    0.11
   5   6   7    2.66    0.14
  -6  -6  -7    4.42    0.16
   6   6   7    4.39    0.18
  -7  -6  -7    0.11    0.04
   7   6   7    0.07    0.06
   4  -7  -7    1.13    0.10
  -4   7   7    1.14    0.09
  -4   7   7    1.11    0.07
   3  -7  -7    0.05    0.03
  -3   7   7    0.07    0.03
  -3   7   7    0.06    0.03
   2  -7  -7    0.01    0.03
   2  -7  -7    0.04    0.03
   1  -7  -7    0.01    0.02
   0  -7  -7    0.01    0.02
  -1  -7  -7    0.43    0.05
  -2  -7  -7    1.56    0.08
  -3  -7  -7    0.74    0.06
   3   7   7    0.59    0.07
  -4  -7  -7    1.13    0.07
   4   7   7    1.05    0.09
  -5  -7  -7    0.50    0.06
   5   7   7    0.43    0.08
  -6  -7  -7    0.09    0.03
   6   7   7    0.13    0.06
   3  -8  -7    0.54    0.07
  -3   8   7    0.57    0.05
  -3   8   7    0.53    0.06
   2  -8  -7    0.04    0.03
   1  -8  -7    0.44    0.05
   0  -8  -7    0.17    0.04
  -1  -8  -7   -0.03    0.02
  -2  -8  -7    0.46    0.05
  -3  -8  -7    1.45    0.08
  -4  -8  -7    0.07    0.03
   4   8   7   -0.01    0.05
  -5  -8  -7    0.02    0.03
   5   8   7   -0.05    0.05
   1  -9  -7    0.05    0.04
   0  -9  -7    0.07    0.03
  -1  -9  -7    0.96    0.07
  -2  -9  -7    0.80    0.07
  -3  -9  -7    0.38    0.05
   1   8  -8    0.11    0.06
   0   8  -8   -0.01    0.05
   0  -8   8    0.03    0.04
  -1   8  -8    0.55    0.08
   1  -8   8    0.70    0.08
  -2   8  -8    0.21    0.06
   2  -8   8    0.23    0.06
  -3   8  -8    1.94    0.13
   3  -8   8    2.17    0.14
   3   7  -8   -0.01    0.04
   2   7  -8    0.00    0.05
   1   7  -8   -0.05    0.05
  -1  -7   8   -0.02    0.03
   0   7  -8    0.18    0.06
   0  -7   8    0.18    0.05
  -1   7  -8   -0.02    0.04
   1  -7   8    0.02    0.04
  -2   7  -8    0.43    0.07
   2  -7   8    0.50    0.07
  -3   7  -8    0.02    0.05
   3  -7   8   -0.02    0.04
  -4   7  -8   -0.03    0.03
   4  -7   8    0.00    0.04
   4   6  -8    0.43    0.07
   3   6  -8    0.09    0.05
   2   6  -8    0.99    0.09
   1   6  -8    1.16    0.10
  -1  -6   8    1.20    0.08
   0   6  -8    0.10    0.05
   0  -6   8    0.30    0.05
  -1   6  -8    0.48    0.07
   1  -6   8    0.44    0.06
  -2   6  -8    0.04    0.04
   2  -6   8   -0.02    0.04
  -3   6  -8    0.04    0.04
   3  -6   8   -0.01    0.03
  -4   6  -8    0.10    0.05
   4  -6   8    0.14    0.05
  -5   6  -8    0.47    0.07
   5  -6   8    0.49    0.08
   5   5  -8    1.14    0.09
   4   5  -8    4.38    0.17
   3   5  -8    1.98    0.11
   2   5  -8    0.00    0.04
   1   5  -8    0.00    0.04
  -1  -5   8   -0.01    0.03
   0   5  -8    0.05    0.04
   0  -5   8    0.00    0.03
  -1   5  -8    0.02    0.04
   1  -5   8    0.06    0.04
  -2   5  -8   -0.04    0.03
   2  -5   8   -0.01    0.03
  -3   5  -8    0.77    0.07
   3  -5   8    0.84    0.08
  -4   5  -8   -0.01    0.03
   4  -5   8    0.01    0.03
  -5   5  -8    0.01    0.04
   5  -5   8   -0.01    0.04
  -6   5  -8    0.51    0.07
   6  -5   8    0.37    0.07
   5   4  -8    3.61    0.16
   4   4  -8    2.62    0.13
   3   4  -8   15.96    0.38
   2   4  -8   30.86    0.64
   1   4  -8    0.12    0.04
   0   4  -8   14.49    0.35
   0  -4   8   14.76    0.34
  -1   4  -8    2.09    0.11
   1  -4   8    1.88    0.10
  -2   4  -8    0.61    0.07
   2  -4   8    0.47    0.06
  -3   4  -8    1.26    0.08
   3  -4   8    1.24    0.09
  -4   4  -8    0.52    0.06
   4  -4   8    0.51    0.07
  -5   4  -8    0.02    0.04
   5  -4   8    0.05    0.04
  -6   4  -8    0.07    0.04
   6  -4   8    0.10    0.05
  -7   4  -8    0.25    0.06
   7  -4   8    0.17    0.06
   6   3  -8    0.09    0.05
   5   3  -8    0.45    0.07
   4   3  -8    2.04    0.11
   3   3  -8    5.89    0.19
   2   3  -8    7.27    0.21
   1   3  -8   29.08    0.60
   0   3  -8   31.31    0.64
   0  -3   8   31.32    0.62
  -1   3  -8    2.38    0.11
   1  -3   8    2.31    0.10
  -2   3  -8   31.94    0.65
   2  -3   8   32.36    0.66
  -3   3  -8    3.48    0.14
   3  -3   8    3.61    0.14
  -4   3  -8    1.87    0.10
   4  -3   8    1.77    0.10
  -5   3  -8    0.31    0.05
   5  -3   8    0.22    0.05
  -6   3  -8    0.99    0.08
   6  -3   8    0.90    0.09
   7  -3   8    0.03    0.04
   6   2  -8    0.00    0.03
   5   2  -8    0.06    0.04
   4   2  -8    0.10    0.04
   3   2  -8    0.52    0.06
   2   2  -8    2.87    0.12
   1   2  -8   10.67    0.27
   0   2  -8   17.52    0.39
  -1   2  -8   36.66    0.72
   1  -2   8   36.19    0.71
  -2   2  -8   24.05    0.44
  -2   2  -8   24.32    0.50
   2  -2   8   23.46    0.50
  -3   2  -8    5.47    0.17
  -3   2  -8    5.39    0.14
   3  -2   8    5.18    0.17
  -4   2  -8    4.42    0.13
  -4   2  -8    4.28    0.15
   4  -2   8    4.06    0.16
  -5   2  -8    0.12    0.04
  -5   2  -8    0.08    0.03
   5  -2   8    0.07    0.04
  -6   2  -8    0.59    0.06
   6  -2   8    0.56    0.07
  -7   2  -8    0.05    0.03
   7  -2   8    0.08    0.05
  -8   2  -8    0.12    0.04
   8  -2   8    0.10    0.05
   6   1  -8    0.19    0.05
   5   1  -8    0.54    0.06
   4   1  -8    0.01    0.03
  -4  -1   8    0.00    0.02
   3   1  -8    0.02    0.03
  -3  -1   8    0.00    0.02
  -3  -1   8    0.00    0.02
   2   1  -8    3.09    0.12
  -2  -1   8    3.22    0.10
  -2  -1   8    3.12    0.08
   1   1  -8    4.98    0.16
   1   1  -8    5.71    0.14
   0   1  -8    0.69    0.06
   0   1  -8    0.74    0.04
  -1   1  -8   18.94    0.40
  -1   1  -8   19.06    0.36
   1  -1   8   18.64    0.39
  -2   1  -8   10.98    0.23
  -2   1  -8   11.14    0.26
   2  -1   8   11.07    0.26
  -3   1  -8   50.66    0.96
  -3   1  -8   51.28    0.90
   3  -1   8   50.18    0.97
  -4   1  -8   27.44    0.55
  -4   1  -8   27.00    0.52
   4  -1   8   26.89    0.57
  -5   1  -8    6.33    0.18
  -5   1  -8    6.51    0.19
   5  -1   8    5.98    0.20
  -6   1  -8    5.71    0.17
   6  -1   8    5.63    0.20
  -7   1  -8    0.46    0.06
   7  -1   8    0.40    0.07
  -8   1  -8    0.16    0.05
   8  -1   8    0.18    0.06
   6   0  -8    3.01    0.15
  -6   0   8    3.10    0.13
   5   0  -8    0.62    0.07
  -5   0   8    0.57    0.06
   4   0  -8    0.26    0.04
  -4   0   8    0.28    0.04
   3   0  -8   -0.01    0.03
  -3   0   8    0.02    0.02
  -3   0   8    0.03    0.02
   2   0  -8    7.04    0.20
   2   0  -8    7.42    0.18
   1   0  -8    1.63    0.08
   1   0  -8    1.71    0.07
   0   0  -8    0.93    0.05
   0   0  -8    1.08    0.07
  -1   0  -8    0.72    0.05
  -2   0  -8    4.71    0.14
  -2   0  -8    4.75    0.13
   2   0   8    4.60    0.13
  -3   0  -8    1.70    0.07
  -3   0  -8    1.81    0.08
   3   0   8    1.78    0.08
  -4   0  -8    0.58    0.05
  -4   0  -8    0.63    0.05
   4   0   8    0.56    0.06
  -5   0  -8   12.88    0.29
   5   0   8   12.64    0.32
  -6   0  -8    1.40    0.08
   6   0   8    1.16    0.09
  -7   0  -8    2.23    0.11
   7   0   8    2.40    0.13
  -8   0  -8    1.89    0.11
   8   0   8    1.91    0.13
   6  -1  -8    3.67    0.17
  -6   1   8    3.98    0.16
   5  -1  -8    1.40    0.09
  -5   1   8    1.34    0.08
   4  -1  -8    0.19    0.04
  -4   1   8    0.22    0.04
   3  -1  -8    6.55    0.20
  -3   1   8    6.82    0.15
  -3   1   8    6.82    0.18
   2  -1  -8    8.87    0.21
   2  -1  -8    9.04    0.23
   1  -1  -8    0.26    0.04
   1  -1  -8    0.27    0.03
   0  -1  -8    0.49    0.04
   0  -1  -8    0.50    0.04
  -1  -1  -8    0.00    0.02
  -1  -1  -8    0.01    0.02
  -2  -1  -8    0.17    0.03
  -2  -1  -8    0.22    0.03
   2   1   8    0.20    0.03
  -3  -1  -8    0.08    0.02
  -3  -1  -8    0.10    0.03
   3   1   8    0.13    0.03
  -4  -1  -8    0.83    0.05
   4   1   8    0.97    0.07
  -5  -1  -8    0.35    0.05
   5   1   8    0.45    0.06
  -6  -1  -8    0.04    0.03
   6   1   8    0.01    0.03
  -7  -1  -8    2.61    0.12
   7   1   8    2.51    0.14
  -8  -1  -8    0.07    0.04
   8   1   8    0.15    0.06
   6  -2  -8   -0.02    0.03
  -6   2   8    0.03    0.03
   5  -2  -8    0.99    0.09
  -5   2   8    0.97    0.07
   4  -2  -8    3.38    0.14
  -4   2   8    3.54    0.13
  -4   2   8    3.57    0.11
   3  -2  -8    0.16    0.04
  -3   2   8    0.22    0.04
  -3   2   8    0.18    0.03
   2  -2  -8   10.41    0.25
   2  -2  -8   10.72    0.26
   1  -2  -8    8.89    0.22
   1  -2  -8    8.85    0.21
   0  -2  -8    0.41    0.04
   0  -2  -8    0.44    0.04
  -1  -2  -8    5.99    0.15
  -1  -2  -8    5.62    0.15
  -2  -2  -8    1.93    0.08
  -2  -2  -8    2.08    0.07
  -3  -2  -8    6.77    0.17
   3   2   8    6.59    0.18
  -4  -2  -8    1.15    0.07
   4   2   8    1.15    0.07
  -5  -2  -8    1.48    0.08
   5   2   8    1.61    0.09
  -6  -2  -8    0.00    0.03
   6   2   8   -0.02    0.03
  -7  -2  -8    1.74    0.10
   7   2   8    1.69    0.11
  -8  -2  -8    0.17    0.05
   8   2   8    0.15    0.06
   6  -3  -8    0.32    0.06
  -6   3   8    0.28    0.06
   5  -3  -8    1.83    0.11
   4  -3  -8    7.06    0.23
  -4   3   8    7.36    0.21
  -4   3   8    7.27    0.17
   3  -3  -8    2.22    0.11
  -3   3   8    2.38    0.11
  -3   3   8    2.36    0.09
   2  -3  -8   32.20    0.62
   2  -3  -8   31.87    0.65
   1  -3  -8    0.14    0.03
   1  -3  -8    0.13    0.03
   0  -3  -8   10.67    0.25
   0  -3  -8   10.79    0.25
  -1  -3  -8    0.46    0.04
  -1  -3  -8    0.40    0.04
  -2  -3  -8    7.16    0.18
  -3  -3  -8    2.51    0.10
   3   3   8    2.59    0.10
  -4  -3  -8    3.87    0.13
   4   3   8    3.60    0.13
  -5  -3  -8    0.31    0.04
   5   3   8    0.21    0.05
  -6  -3  -8    0.01    0.03
   6   3   8    0.02    0.04
  -7  -3  -8    1.80    0.10
   7   3   8    1.83    0.12
  -8  -3  -8    0.20    0.05
   8   3   8    0.34    0.07
   5  -4  -8    0.11    0.04
  -5   4   8    0.07    0.04
   4  -4  -8    0.06    0.04
  -4   4   8    0.05    0.03
  -4   4   8   -0.01    0.03
   3  -4  -8    2.00    0.11
  -3   4   8    2.09    0.08
  -3   4   8    2.01    0.10
   2  -4  -8    8.04    0.22
   2  -4  -8    8.37    0.23
   1  -4  -8    8.51    0.22
   1  -4  -8    8.64    0.22
   0  -4  -8  130.10    2.29
   0  -4  -8  125.52    2.20
  -1  -4  -8    1.70    0.08
  -2  -4  -8   51.33    0.93
  -3  -4  -8    3.39    0.12
   3   4   8    3.27    0.12
  -4  -4  -8    0.37    0.05
   4   4   8    0.29    0.05
  -5  -4  -8    0.09    0.03
   5   4   8    0.06    0.04
  -6  -4  -8    0.32    0.05
   6   4   8    0.50    0.07
  -7  -4  -8    0.16    0.04
   7   4   8    0.22    0.06
   5  -5  -8    1.76    0.12
  -5   5   8    1.56    0.10
   4  -5  -8    0.13    0.04
  -4   5   8    0.13    0.04
  -4   5   8    0.17    0.03
   3  -5  -8    0.07    0.03
  -3   5   8    0.18    0.03
  -3   5   8    0.12    0.04
   2  -5  -8    0.05    0.03
   2  -5  -8    0.06    0.03
   1  -5  -8    1.48    0.08
   1  -5  -8    1.49    0.08
   0  -5  -8    0.10    0.03
  -1  -5  -8   11.11    0.26
  -2  -5  -8   44.14    0.82
  -3  -5  -8    5.41    0.16
  -4  -5  -8   49.67    0.92
   4   5   8   49.73    0.97
  -5  -5  -8    0.06    0.03
   5   5   8    0.22    0.06
  -6  -5  -8    2.71    0.12
   6   5   8    3.10    0.15
  -7  -5  -8    0.26    0.05
   7   5   8    0.16    0.06
   4  -6  -8    0.87    0.08
  -4   6   8    0.90    0.06
  -4   6   8    0.88    0.08
   3  -6  -8   -0.01    0.03
  -3   6   8    0.01    0.03
  -3   6   8    0.02    0.02
   2  -6  -8    0.02    0.03
   2  -6  -8    0.02    0.03
   1  -6  -8    0.12    0.03
   1  -6  -8    0.14    0.04
   0  -6  -8    2.03    0.10
  -1  -6  -8    1.34    0.08
  -2  -6  -8    5.90    0.17
  -3  -6  -8    7.26    0.20
  -4  -6  -8   19.37    0.42
   4   6   8   19.47    0.44
  -5  -6  -8    6.59    0.20
   5   6   8    6.46    0.22
  -6  -6  -8   13.48    0.33
   6   6   8   13.95    0.37
  -7  -6  -8    0.52    0.07
   7   6   8    0.57    0.09
   4  -7  -8    0.07    0.04
  -4   7   8    0.00    0.04
  -4   7   8    0.02    0.03
   3  -7  -8    0.26    0.06
  -3   7   8    0.22    0.05
  -3   7   8    0.26    0.04
   2  -7  -8    1.96    0.11
   2  -7  -8    1.62    0.10
   1  -7  -8    0.03    0.03
   0  -7  -8    0.98    0.07
  -1  -7  -8    0.00    0.03
  -2  -7  -8    0.84    0.06
  -3  -7  -8    0.51    0.06
  -4  -7  -8    0.49    0.05
  -5  -7  -8    0.97    0.08
   5   7   8    0.98    0.10
  -6  -7  -8    6.88    0.21
   6   7   8    6.90    0.24
   2  -8  -8    1.15    0.09
   1  -8  -8    0.44    0.06
   0  -8  -8    0.23    0.04
  -1  -8  -8    1.76    0.10
  -2  -8  -8    1.23    0.08
  -3  -8  -8    0.13    0.04
  -4  -8  -8    0.20    0.05
  -5  -8  -8    0.06    0.03
   1  -9  -8    0.50    0.06
   0  -9  -8    4.75    0.18
  -1  -9  -8    3.44    0.14
  -2  -9  -8    0.69    0.07
  -3  -9  -8   -0.01    0.03
   2   7  -9    0.10    0.06
   1   7  -9   -0.10    0.05
   0   7  -9   -0.02    0.05
   0  -7   9    0.02    0.04
  -1   7  -9   -0.03    0.05
   1  -7   9    0.04    0.04
  -2   7  -9    0.14    0.06
   2  -7   9    0.07    0.05
  -3   7  -9   -0.08    0.03
   3  -7   9    0.02    0.05
   4  -7   9    1.28    0.11
   3   6  -9    0.40    0.07
   2   6  -9    0.48    0.08
   1   6  -9    0.95    0.09
   0   6  -9    0.75    0.09
   0  -6   9    0.93    0.08
  -1   6  -9   -0.06    0.04
   1  -6   9   -0.01    0.03
  -2   6  -9    0.17    0.06
   2  -6   9    0.14    0.05
  -3   6  -9   -0.03    0.03
   3  -6   9    0.01    0.04
  -4   6  -9    0.38    0.07
   4  -6   9    0.37    0.07
  -5   6  -9    0.41    0.08
   5  -6   9    0.54    0.08
   4   5  -9    0.65    0.08
   3   5  -9    0.45    0.07
   2   5  -9    1.76    0.11
   1   5  -9    0.25    0.06
   0   5  -9    0.00    0.05
  -1   5  -9    0.01    0.04
   1  -5   9   -0.02    0.03
  -2   5  -9    0.82    0.08
   2  -5   9    1.06    0.08
  -3   5  -9    0.05    0.04
   3  -5   9    0.10    0.05
  -4   5  -9    0.00    0.03
   4  -5   9    0.03    0.04
  -5   5  -9    0.06    0.04
   5  -5   9    0.09    0.05
  -6   5  -9    0.03    0.04
   6  -5   9    0.09    0.05
   5   4  -9    0.06    0.04
   4   4  -9    0.15    0.05
   3   4  -9    1.06    0.09
   2   4  -9    0.14    0.05
   1   4  -9    6.06    0.20
   0   4  -9    4.12    0.16
  -1   4  -9    0.51    0.07
   1  -4   9    0.47    0.06
  -2   4  -9    0.80    0.07
   2  -4   9    0.78    0.07
  -3   4  -9    0.43    0.06
   3  -4   9    0.54    0.07
  -4   4  -9    0.61    0.07
   4  -4   9    0.61    0.08
  -5   4  -9    0.50    0.07
   5  -4   9    0.63    0.08
  -6   4  -9   -0.03    0.04
   6  -4   9    0.08    0.05
   5   3  -9    0.01    0.04
   4   3  -9    0.07    0.04
   3   3  -9    0.64    0.07
   2   3  -9    0.82    0.08
   1   3  -9    6.91    0.21
   0   3  -9    5.26    0.18
  -1   3  -9   10.70    0.28
  -2   3  -9   11.36    0.30
   2  -3   9   11.88    0.29
  -3   3  -9    5.40    0.18
   3  -3   9    5.33    0.18
  -4   3  -9    1.38    0.09
   4  -3   9    1.19    0.10
  -5   3  -9    1.37    0.09
   5  -3   9    1.41    0.10
  -6   3  -9    1.18    0.09
   6  -3   9    1.20    0.10
   7  -3   9    0.04    0.05
   5   2  -9    0.07    0.04
   4   2  -9    0.33    0.05
   3   2  -9    0.18    0.05
   2   2  -9    0.19    0.05
   1   2  -9    0.25    0.06
   0   2  -9    3.59    0.14
  -1   2  -9   21.95    0.47
  -2   2  -9    9.47    0.25
   2  -2   9    9.45    0.24
  -3   2  -9   21.23    0.46
   3  -2   9   21.07    0.47
  -4   2  -9   40.55    0.80
   4  -2   9   39.64    0.82
  -5   2  -9    0.20    0.04
  -5   2  -9    0.21    0.05
   5  -2   9    0.13    0.05
  -6   2  -9    2.68    0.11
   6  -2   9    2.52    0.14
  -7   2  -9    0.30    0.05
   7  -2   9    0.20    0.06
   6   1  -9    0.69    0.08
   5   1  -9    2.74    0.13
   4   1  -9    0.30    0.05
   3   1  -9    1.52    0.09
   2   1  -9   -0.01    0.03
   1   1  -9    3.02    0.12
   0   1  -9    1.42    0.09
   0   1  -9    1.44    0.06
  -1   1  -9    2.52    0.11
  -1   1  -9    2.67    0.09
  -2   1  -9    2.41    0.11
  -2   1  -9    2.36    0.08
   2  -1   9    2.32    0.10
  -3   1  -9    5.54    0.17
  -3   1  -9    5.29    0.15
   3  -1   9    5.61    0.17
  -4   1  -9    0.47    0.06
  -4   1  -9    0.56    0.05
   4  -1   9    0.60    0.07
  -5   1  -9   37.05    0.69
   5  -1   9   35.29    0.75
  -6   1  -9   14.41    0.33
   6  -1   9   14.76    0.38
  -7   1  -9    2.95    0.13
   7  -1   9    3.18    0.16
   6   0  -9    0.87    0.09
   5   0  -9    0.00    0.04
  -5   0   9    0.00    0.03
   4   0  -9    5.05    0.18
  -4   0   9    5.37    0.17
   3   0  -9    6.64    0.21
  -3   0   9    7.20    0.19
  -3   0   9    7.37    0.16
   2   0  -9    0.47    0.04
   2   0  -9    0.51    0.06
   1   0  -9   -0.04    0.03
   1   0  -9    0.02    0.02
   0   0  -9    1.94    0.08
   0   0  -9    1.87    0.09
  -1   0  -9    0.14    0.04
  -1   0  -9    0.09    0.02
  -2   0  -9    0.03    0.02
  -2   0  -9    0.01    0.03
  -3   0  -9    0.82    0.07
  -3   0  -9    0.82    0.05
   3   0   9    0.82    0.06
  -4   0  -9    0.52    0.05
   4   0   9    0.58    0.06
  -5   0  -9    0.26    0.04
   5   0   9    0.31    0.05
  -6   0  -9    0.06    0.04
   6   0   9    0.06    0.04
  -7   0  -9    9.55    0.26
   7   0   9    9.84    0.30
  -8   0  -9    1.43    0.10
   8   0   9    1.62    0.12
   6  -1  -9    0.73    0.08
  -6   1   9    0.71    0.08
   5  -1  -9    1.69    0.11
  -5   1   9    1.87    0.10
   4  -1  -9    1.23    0.09
  -4   1   9    1.38    0.07
  -4   1   9    1.26    0.08
   3  -1  -9    1.06    0.08
  -3   1   9    1.03    0.07
  -3   1   9    1.13    0.06
   2  -1  -9    2.21    0.10
   2  -1  -9    2.11    0.09
   1  -1  -9    4.65    0.15
   1  -1  -9    4.68    0.14
   0  -1  -9    0.09    0.03
   0  -1  -9    0.08    0.02
  -1  -1  -9    0.91    0.05
  -1  -1  -9    0.78    0.06
  -2  -1  -9    0.08    0.02
  -2  -1  -9    0.03    0.03
  -3  -1  -9    1.24    0.07
   3   1   9    1.41    0.07
  -4  -1  -9    0.00    0.02
   4   1   9    0.03    0.03
  -5  -1  -9    2.41    0.10
   5   1   9    2.46    0.12
  -6  -1  -9    0.00    0.03
   6   1   9    0.03    0.04
  -7  -1  -9    1.03    0.08
   7   1   9    1.08    0.10
  -8  -1  -9    0.04    0.04
   8   1   9    0.19    0.06
   5  -2  -9    0.15    0.05
  -5   2   9    0.15    0.04
   4  -2  -9    0.03    0.04
  -4   2   9   -0.05    0.02
  -4   2   9   -0.02    0.03
   3  -2  -9    0.30    0.05
  -3   2   9    0.31    0.04
  -3   2   9    0.27    0.04
   2  -2  -9    0.67    0.06
   2  -2  -9    0.63    0.05
   1  -2  -9    0.35    0.04
   1  -2  -9    0.36    0.05
   0  -2  -9    4.10    0.13
   0  -2  -9    3.89    0.13
  -1  -2  -9    6.26    0.16
  -1  -2  -9    6.21    0.17
  -2  -2  -9    0.00    0.02
  -2  -2  -9   -0.02    0.02
  -3  -2  -9    1.85    0.08
  -4  -2  -9    0.19    0.03
   4   2   9    0.22    0.04
  -5  -2  -9    5.38    0.17
   5   2   9    5.69    0.19
  -6  -2  -9    0.87    0.07
   6   2   9    0.93    0.08
  -7  -2  -9    0.17    0.04
   7   2   9    0.15    0.05
  -8  -2  -9    0.01    0.04
   8   2   9    0.16    0.06
   5  -3  -9    0.23    0.05
  -5   3   9    0.25    0.05
   4  -3  -9    1.65    0.10
  -4   3   9    1.61    0.10
  -4   3   9    1.68    0.08
   3  -3  -9    3.71    0.15
  -3   3   9    3.78    0.14
  -3   3   9    3.60    0.11
   2  -3  -9    0.28    0.04
   2  -3  -9    0.24    0.04
   1  -3  -9    4.00    0.14
   1  -3  -9    4.08    0.14
   0  -3  -9    5.33    0.16
   0  -3  -9    5.50    0.16
  -1  -3  -9    8.93    0.21
  -1  -3  -9    8.84    0.22
  -2  -3  -9    1.04    0.06
  -3  -3  -9    0.30    0.04
  -4  -3  -9    1.90    0.09
   4   3   9    1.90    0.10
  -5  -3  -9    1.17    0.07
   5   3   9    1.23    0.09
  -6  -3  -9    0.48    0.05
   6   3   9    0.53    0.07
  -7  -3  -9    0.02    0.03
   7   3   9    0.01    0.04
   5  -4  -9    0.24    0.06
  -5   4   9    0.30    0.05
   4  -4  -9   -0.03    0.03
  -4   4   9   -0.03    0.03
  -4   4   9    0.05    0.02
   3  -4  -9    0.70    0.07
  -3   4   9    0.60    0.06
  -3   4   9    0.61    0.05
   2  -4  -9    0.32    0.05
   2  -4  -9    0.27    0.05
   1  -4  -9    3.59    0.13
   1  -4  -9    3.62    0.13
   0  -4  -9    4.56    0.15
   0  -4  -9    4.73    0.15
  -1  -4  -9   37.93    0.72
  -2  -4  -9   15.35    0.34
  -3  -4  -9    0.05    0.03
  -4  -4  -9   14.13    0.32
  -5  -4  -9    2.18    0.10
   5   4   9    2.42    0.12
  -6  -4  -9    0.62    0.06
   6   4   9    0.68    0.08
  -7  -4  -9   -0.01    0.03
   7   4   9   -0.04    0.04
   4  -5  -9    0.20    0.05
  -4   5   9    0.26    0.04
  -4   5   9    0.21    0.05
   3  -5  -9    0.39    0.06
  -3   5   9    0.42    0.05
  -3   5   9    0.42    0.06
   2  -5  -9    0.69    0.06
   2  -5  -9    0.75    0.07
   1  -5  -9    0.41    0.05
   1  -5  -9    0.59    0.06
   0  -5  -9    1.71    0.09
  -1  -5  -9    0.45    0.05
  -2  -5  -9    0.81    0.06
  -3  -5  -9    4.00    0.14
  -4  -5  -9    6.28    0.19
  -5  -5  -9    1.26    0.08
   5   5   9    1.34    0.10
  -6  -5  -9   10.35    0.28
   6   5   9   10.84    0.31
  -7  -5  -9   -0.05    0.03
   7   5   9    0.09    0.05
   4  -6  -9    0.17    0.05
  -4   6   9    0.09    0.04
  -4   6   9    0.08    0.03
   3  -6  -9    0.14    0.05
  -3   6   9    0.21    0.04
  -3   6   9    0.20    0.05
   2  -6  -9    0.20    0.05
   2  -6  -9    0.31    0.05
   1  -6  -9    0.88    0.07
   0  -6  -9    4.39    0.15
  -1  -6  -9    0.46    0.05
  -2  -6  -9    2.25    0.10
  -3  -6  -9    1.35    0.08
  -4  -6  -9    1.09    0.08
  -5  -6  -9    1.00    0.08
  -6  -6  -9    5.55    0.19
   6   6   9    5.48    0.21
   3  -7  -9    7.13    0.25
  -3   7   9    6.80    0.23
  -3   7   9    7.11    0.18
   2  -7  -9    0.08    0.04
   1  -7  -9    2.09    0.11
   0  -7  -9   -0.04    0.02
  -1  -7  -9    0.17    0.04
  -2  -7  -9    0.44    0.05
  -3  -7  -9    1.56    0.09
  -4  -7  -9    0.70    0.07
  -5  -7  -9    0.95    0.08
   1  -8  -9    5.30    0.19
   0  -8  -9    0.81    0.08
  -1  -8  -9    6.73    0.21
  -2  -8  -9   -0.04    0.02
  -3  -8  -9    0.31    0.05
  -4  -8  -9    0.04    0.03
   0   7 -10   -0.01    0.05
  -1   7 -10   -0.04    0.05
  -2   7 -10    0.19    0.07
   2  -7  10    0.36    0.07
   2   6 -10    3.74    0.17
   1   6 -10    0.41    0.08
   0   6 -10    1.70    0.12
  -1   6 -10    1.58    0.12
  -2   6 -10    0.06    0.05
   2  -6  10    0.16    0.05
  -3   6 -10   -0.07    0.04
   3  -6  10   -0.03    0.04
  -4   6 -10    0.06    0.05
   4  -6  10    0.23    0.06
   3   5 -10    0.28    0.06
   2   5 -10    0.29    0.07
   1   5 -10    0.58    0.08
   0   5 -10    1.85    0.12
  -1   5 -10    0.00    0.05
  -2   5 -10    3.95    0.17
   2  -5  10    4.15    0.17
  -3   5 -10    1.70    0.11
   3  -5  10    2.00    0.12
  -4   5 -10    0.04    0.05
   4  -5  10    0.06    0.05
  -5   5 -10    0.05    0.04
   5  -5  10    0.09    0.05
   4   4 -10    0.23    0.06
   3   4 -10    0.09    0.05
   2   4 -10    0.22    0.06
   1   4 -10    0.15    0.05
   0   4 -10    0.79    0.08
  -1   4 -10   -0.04    0.04
  -2   4 -10    0.01    0.04
  -3   4 -10    0.02    0.04
   3  -4  10    0.09    0.05
  -4   4 -10    0.02    0.04
   4  -4  10    0.03    0.04
  -5   4 -10    0.25    0.06
   5  -4  10    0.27    0.07
  -6   4 -10    0.03    0.04
   6  -4  10    0.09    0.05
   4   3 -10    0.14    0.05
   3   3 -10    0.26    0.06
   2   3 -10    0.48    0.06
   1   3 -10    0.17    0.05
   0   3 -10    0.05    0.04
  -1   3 -10    0.63    0.07
  -2   3 -10    0.08    0.05
  -3   3 -10    0.51    0.07
   3  -3  10    0.60    0.07
  -4   3 -10    0.17    0.05
   4  -3  10    0.08    0.04
  -5   3 -10    0.02    0.04
   5  -3  10    0.03    0.04
   6  -3  10   -0.09    0.03
   5   2 -10    0.20    0.05
   4   2 -10    0.15    0.05
   3   2 -10   -0.01    0.04
   2   2 -10    0.32    0.06
   1   2 -10    0.68    0.07
   0   2 -10   -0.01    0.04
  -1   2 -10    0.75    0.07
  -2   2 -10    1.68    0.10
  -3   2 -10    6.54    0.20
   3  -2  10    7.00    0.21
  -4   2 -10    0.61    0.07
   4  -2  10    0.46    0.06
  -5   2 -10    1.85    0.11
   5  -2  10    1.92    0.12
   6  -2  10    1.54    0.12
   7  -2  10    0.04    0.05
   5   1 -10    0.80    0.08
   4   1 -10    1.24    0.09
   3   1 -10    6.05    0.20
   2   1 -10    2.60    0.12
   1   1 -10    1.02    0.07
   0   1 -10    0.63    0.06
  -1   1 -10    0.13    0.04
  -2   1 -10    0.38    0.05
  -2   1 -10    0.45    0.04
  -3   1 -10    1.28    0.07
  -3   1 -10    1.29    0.09
  -4   1 -10    0.34    0.06
  -4   1 -10    0.42    0.05
   4  -1  10    0.43    0.06
  -5   1 -10    2.53    0.11
   5  -1  10    2.50    0.13
  -6   1 -10    0.38    0.05
   6  -1  10    0.37    0.07
  -7   1 -10    2.27    0.11
   7  -1  10    2.31    0.14
   5   0 -10    0.03    0.04
   4   0 -10    1.70    0.11
   3   0 -10    0.03    0.04
  -3   0  10    0.05    0.03
  -3   0  10    0.04    0.02
   2   0 -10    6.96    0.21
   2   0 -10    7.01    0.19
   1   0 -10    5.32    0.17
   1   0 -10    5.28    0.15
   0   0 -10    0.11    0.03
   0   0 -10    0.04    0.03
  -1   0 -10    1.34    0.08
  -1   0 -10    1.30    0.06
  -2   0 -10    1.22    0.06
  -2   0 -10    1.25    0.08
  -3   0 -10    2.18    0.09
  -3   0 -10    2.13    0.10
  -4   0 -10    0.68    0.06
   4   0  10    0.74    0.07
  -5   0 -10    1.18    0.08
   5   0  10    1.22    0.09
  -6   0 -10   -0.01    0.03
   6   0  10    0.01    0.04
  -7   0 -10    1.71    0.10
   7   0  10    1.77    0.12
   5  -1 -10    0.53    0.07
  -5   1  10    0.52    0.06
   4  -1 -10    1.76    0.11
  -4   1  10    2.07    0.10
  -4   1  10    2.02    0.08
   3  -1 -10    0.08    0.04
  -3   1  10    0.13    0.03
  -3   1  10    0.17    0.04
   2  -1 -10    6.76    0.19
   2  -1 -10    6.68    0.20
   1  -1 -10    2.34    0.10
   1  -1 -10    2.41    0.11
   0  -1 -10    5.72    0.17
   0  -1 -10    6.19    0.17
  -1  -1 -10    4.42    0.13
  -1  -1 -10    4.27    0.14
  -2  -1 -10    2.69    0.10
  -2  -1 -10    2.67    0.10
  -3  -1 -10    2.05    0.09
  -4  -1 -10    1.09    0.07
  -5  -1 -10    0.42    0.05
   5   1  10    0.50    0.06
  -6  -1 -10    0.03    0.03
   6   1  10    0.16    0.05
  -7  -1 -10    1.60    0.10
   7   1  10    1.69    0.12
   5  -2 -10    0.02    0.04
  -5   2  10   -0.02    0.03
   4  -2 -10    0.03    0.03
  -4   2  10   -0.02    0.03
  -4   2  10    0.05    0.03
   3  -2 -10    0.04    0.03
  -3   2  10    0.15    0.03
  -3   2  10    0.09    0.03
   2  -2 -10    0.98    0.07
   2  -2 -10    1.20    0.07
   1  -2 -10    0.18    0.04
   1  -2 -10    0.22    0.04
   0  -2 -10   24.44    0.50
   0  -2 -10   23.51    0.48
  -1  -2 -10    5.03    0.15
  -1  -2 -10    5.31    0.15
  -2  -2 -10   11.15    0.26
  -3  -2 -10    7.33    0.20
  -4  -2 -10    0.03    0.03
  -5  -2 -10    1.58    0.09
   5   2  10    1.59    0.10
  -6  -2 -10    0.37    0.05
   6   2  10    0.52    0.07
  -7  -2 -10    0.39    0.06
   7   2  10    0.38    0.07
   5  -3 -10   -0.03    0.03
   4  -3 -10    0.05    0.04
  -4   3  10    0.10    0.04
  -4   3  10    0.07    0.03
   3  -3 -10    0.72    0.07
  -3   3  10    0.54    0.06
  -3   3  10    0.76    0.05
   2  -3 -10    0.20    0.04
   2  -3 -10    0.21    0.04
   1  -3 -10    0.70    0.06
   1  -3 -10    0.67    0.06
   0  -3 -10    1.58    0.08
   0  -3 -10    1.46    0.08
  -1  -3 -10    0.20    0.04
  -2  -3 -10    3.62    0.13
  -3  -3 -10    0.19    0.04
  -4  -3 -10   12.83    0.30
  -5  -3 -10    0.30    0.05
  -6  -3 -10    0.07    0.04
   6   3  10    0.00    0.04
  -7  -3 -10    0.06    0.04
   7   3  10    0.13    0.05
   4  -4 -10    0.11    0.04
  -4   4  10    0.21    0.04
  -4   4  10    0.20    0.05
   3  -4 -10    0.17    0.05
  -3   4  10    0.31    0.04
  -3   4  10    0.26    0.05
   2  -4 -10    0.13    0.04
   2  -4 -10    0.06    0.03
   1  -4 -10    4.29    0.15
   1  -4 -10    4.50    0.16
   0  -4 -10    4.12    0.14
   0  -4 -10    3.87    0.14
  -1  -4 -10    0.82    0.06
  -2  -4 -10    1.08    0.07
  -3  -4 -10    1.21    0.08
  -4  -4 -10    0.02    0.03
  -5  -4 -10    0.12    0.04
  -6  -4 -10    2.44    0.12
  -7  -4 -10    0.00    0.03
   7   4  10    0.04    0.05
   4  -5 -10    0.09    0.05
  -4   5  10    0.18    0.05
  -4   5  10    0.23    0.04
   3  -5 -10   -0.02    0.03
  -3   5  10   -0.03    0.03
  -3   5  10    0.00    0.02
   2  -5 -10    0.68    0.07
   2  -5 -10    0.78    0.07
   1  -5 -10    0.07    0.03
   1  -5 -10    0.02    0.03
   0  -5 -10    0.45    0.05
  -1  -5 -10    0.09    0.03
  -2  -5 -10    1.70    0.09
  -3  -5 -10    0.23    0.04
  -4  -5 -10    0.21    0.04
  -5  -5 -10    0.65    0.06
  -6  -5 -10    0.13    0.04
   3  -6 -10    1.17    0.10
  -3   6  10    1.10    0.07
  -3   6  10    1.09    0.09
   2  -6 -10    0.01    0.03
   2  -6 -10   -0.01    0.03
   1  -6 -10    0.04    0.03
   0  -6 -10    0.33    0.05
  -1  -6 -10    0.02    0.03
  -2  -6 -10    1.12    0.08
  -3  -6 -10    1.67    0.09
  -4  -6 -10    0.53    0.06
  -5  -6 -10    0.14    0.04
   2  -7 -10    1.40    0.10
   1  -7 -10    5.01    0.18
   0  -7 -10    1.49    0.10
  -1  -7 -10   -0.01    0.03
  -2  -7 -10    0.03    0.03
  -3  -7 -10    0.07    0.03
  -4  -7 -10    0.06    0.04
   0  -8 -10   10.26    0.29
  -1  -8 -10    7.08    0.23
  -2  -8 -10    0.90    0.08
  -3  -8 -10    0.57    0.06
   0   6 -11    3.04    0.17
  -1   6 -11   -0.01    0.06
  -2   6 -11    0.72    0.09
   2   5 -11    0.02    0.06
   1   5 -11    0.30    0.08
   0   5 -11    0.44    0.08
  -1   5 -11    1.54    0.12
  -2   5 -11    3.19    0.16
  -3   5 -11    0.14    0.06
  -4   5 -11    0.87    0.09
   4  -5  11    0.90    0.10
   3   4 -11   -0.02    0.04
   2   4 -11   -0.02    0.05
   1   4 -11    0.09    0.05
   0   4 -11    0.09    0.06
  -1   4 -11    1.22    0.10
  -2   4 -11    1.08    0.10
  -3   4 -11    1.71    0.11
  -4   4 -11    7.97    0.26
   4  -4  11    8.51    0.27
  -5   4 -11    0.01    0.05
   5  -4  11    0.02    0.05
   3   3 -11    0.53    0.08
   2   3 -11    0.08    0.04
   1   3 -11    0.00    0.04
   0   3 -11    0.33    0.07
  -1   3 -11    0.07    0.04
  -2   3 -11    0.13    0.05
  -3   3 -11    0.03    0.05
  -4   3 -11    1.43    0.10
  -5   3 -11    2.31    0.13
   5  -3  11    2.59    0.14
   6  -3  11    1.75    0.12
   4   2 -11    0.05    0.04
   3   2 -11    0.27    0.06
   2   2 -11    0.03    0.04
   1   2 -11    0.24    0.05
   0   2 -11    2.26    0.12
  -1   2 -11    0.02    0.04
  -2   2 -11    0.26    0.06
  -3   2 -11    1.96    0.11
  -4   2 -11    1.22    0.09
   5  -2  11    0.34    0.06
   6  -2  11    0.51    0.08
   4   1 -11    1.03    0.09
   3   1 -11    0.13    0.05
   2   1 -11    1.19    0.09
   1   1 -11    0.07    0.04
   0   1 -11    0.84    0.07
  -1   1 -11    0.07    0.04
  -2   1 -11   -0.03    0.03
  -3   1 -11    0.48    0.07
   5  -1  11    1.33    0.10
  -6   1 -11    0.04    0.03
   6  -1  11    0.13    0.05
   4   0 -11    0.21    0.05
   3   0 -11    0.45    0.06
   2   0 -11    1.24    0.09
   1   0 -11    0.40    0.06
   0   0 -11    1.16    0.07
   0   0 -11    1.19    0.08
  -1   0 -11    0.74    0.06
  -1   0 -11    0.57    0.05
  -2   0 -11    0.21    0.05
  -2   0 -11    0.16    0.03
  -3   0 -11    1.08    0.07
  -3   0 -11    1.13    0.08
  -4   0 -11    0.05    0.03
  -5   0 -11    0.75    0.06
  -6   0 -11    0.00    0.03
   6   0  11    0.02    0.04
  -7   0 -11   -0.04    0.03
   7   0  11    0.05    0.05
   4  -1 -11    0.20    0.05
  -4   1  11    0.31    0.05
  -4   1  11    0.23    0.04
   3  -1 -11    0.98    0.08
  -3   1  11    0.96    0.06
  -3   1  11    0.90    0.07
   2  -1 -11    0.04    0.03
   2  -1 -11    0.07    0.04
   1  -1 -11    2.52    0.10
   1  -1 -11    2.53    0.11
   0  -1 -11    6.66    0.19
   0  -1 -11    6.84    0.20
  -1  -1 -11    2.47    0.11
  -1  -1 -11    2.46    0.10
  -2  -1 -11    1.77    0.08
  -2  -1 -11    1.72    0.09
  -3  -1 -11    1.23    0.07
  -4  -1 -11    0.39    0.05
  -5  -1 -11    0.04    0.03
  -6  -1 -11    0.82    0.07
  -7  -1 -11   -0.02    0.03
   7   1  11   -0.01    0.04
   4  -2 -11    0.01    0.03
  -4   2  11    0.00    0.02
  -4   2  11   -0.01    0.03
   3  -2 -11    0.05    0.03
  -3   2  11   -0.04    0.03
  -3   2  11   -0.02    0.02
   2  -2 -11    0.04    0.03
   2  -2 -11    0.01    0.03
   1  -2 -11    0.75    0.06
   1  -2 -11    0.83    0.07
   0  -2 -11    2.34    0.11
   0  -2 -11    2.40    0.11
  -1  -2 -11   13.41    0.31
  -1  -2 -11   13.46    0.31
  -2  -2 -11    7.77    0.21
  -3  -2 -11    0.21    0.04
  -4  -2 -11   14.75    0.34
  -5  -2 -11    2.54    0.11
  -6  -2 -11    2.06    0.11
  -7  -2 -11    0.19    0.05
   7   2  11    0.19    0.06
   4  -3 -11    0.00    0.03
  -4   3  11    0.06    0.03
  -4   3  11    0.03    0.03
   3  -3 -11    0.11    0.04
  -3   3  11    0.01    0.03
  -3   3  11    0.09    0.03
   2  -3 -11    0.20    0.04
   2  -3 -11    0.23    0.04
   1  -3 -11    0.80    0.06
   1  -3 -11    0.71    0.06
   0  -3 -11    4.81    0.16
   0  -3 -11    4.84    0.16
  -1  -3 -11    0.30    0.04
  -2  -3 -11    0.23    0.04
  -3  -3 -11    0.67    0.06
  -4  -3 -11    0.48    0.06
  -5  -3 -11    0.04    0.03
  -6  -3 -11    4.44    0.16
   3  -4 -11    0.51    0.07
  -3   4  11    0.56    0.05
  -3   4  11    0.51    0.07
   2  -4 -11    0.43    0.06
   2  -4 -11    0.40    0.06
   1  -4 -11    0.95    0.07
   1  -4 -11    0.95    0.08
   0  -4 -11    5.80    0.18
  -1  -4 -11    0.44    0.05
  -2  -4 -11    0.74    0.06
  -3  -4 -11    0.63    0.06
  -4  -4 -11    0.99    0.07
  -5  -4 -11    0.13    0.04
  -6  -4 -11    0.94    0.08
   3  -5 -11    0.05    0.04
  -3   5  11    0.01    0.04
  -3   5  11    0.09    0.03
   2  -5 -11    0.41    0.06
   2  -5 -11    0.36    0.06
   1  -5 -11    0.09    0.04
   0  -5 -11    1.36    0.09
  -1  -5 -11    0.33    0.05
  -2  -5 -11    0.05    0.03
  -3  -5 -11    0.04    0.03
  -4  -5 -11    0.61    0.06
  -5  -5 -11    0.26    0.05
   2  -6 -11    0.38    0.06
   1  -6 -11    0.04    0.03
   0  -6 -11    0.11    0.04
  -1  -6 -11    0.04    0.03
  -2  -6 -11   -0.05    0.02
  -3  -6 -11    0.42    0.05
  -4  -6 -11    0.03    0.03
  -5  -6 -11    0.06    0.03
   0  -7 -11    2.61    0.13
  -1  -7 -11    2.63    0.13
  -2  -7 -11    0.18    0.04
  -3  -7 -11    0.70    0.07
   0   5 -12   -0.11    0.05
  -1   5 -12    0.07    0.07
  -2   5 -12   -0.07    0.05
   1   4 -12    0.06    0.06
   0   4 -12    0.07    0.06
  -1   4 -12   -0.05    0.05
  -2   4 -12    0.41    0.08
  -3   4 -12    2.01    0.13
  -4   4 -12   -0.10    0.05
   2   3 -12    0.79    0.09
   1   3 -12   -0.03    0.04
   0   3 -12    0.02    0.05
  -1   3 -12   -0.10    0.04
  -2   3 -12    0.29    0.07
  -3   3 -12    0.33    0.07
  -4   3 -12   -0.02    0.05
   3   2 -12    0.37    0.07
   2   2 -12    0.08    0.05
   1   2 -12    0.01    0.04
   0   2 -12    1.44    0.10
  -1   2 -12    0.18    0.05
  -2   2 -12   -0.02    0.04
  -3   2 -12   -0.06    0.04
  -4   2 -12   -0.09    0.04
   3   1 -12    0.23    0.05
   2   1 -12   -0.05    0.04
   1   1 -12    0.07    0.04
   0   1 -12   -0.03    0.04
  -1   1 -12   -0.02    0.04
  -2   1 -12    0.10    0.05
  -3   1 -12   -0.08    0.04
   3   0 -12    0.09    0.04
   2   0 -12    0.02    0.04
   1   0 -12    0.10    0.04
   0   0 -12    0.19    0.05
  -1   0 -12    1.32    0.09
  -2   0 -12    0.09    0.04
  -3   0 -12    0.93    0.07
  -4   0 -12    0.85    0.06
  -5   0 -12    0.06    0.03
  -6   0 -12    0.26    0.05
   3  -1 -12    0.33    0.06
   2  -1 -12    0.48    0.06
   1  -1 -12    0.62    0.06
   1  -1 -12    0.65    0.06
   0  -1 -12    0.65    0.07
   0  -1 -12    0.58    0.05
  -1  -1 -12    0.78    0.07
  -1  -1 -12    0.78    0.06
  -2  -1 -12    0.82    0.06
  -3  -1 -12    0.19    0.04
  -4  -1 -12    0.04    0.03
  -5  -1 -12    0.10    0.04
  -6  -1 -12    1.48    0.09
   3  -2 -12    0.16    0.05
  -3   2  12    0.08    0.03
  -3   2  12    0.04    0.04
   2  -2 -12    0.19    0.04
   2  -2 -12    0.13    0.04
   1  -2 -12    3.01    0.13
   1  -2 -12    3.29    0.13
   0  -2 -12    1.34    0.08
   0  -2 -12    1.43    0.09
  -1  -2 -12    0.62    0.06
  -2  -2 -12    0.62    0.06
  -3  -2 -12    3.16    0.13
  -4  -2 -12    0.93    0.07
  -5  -2 -12    0.00    0.03
  -6  -2 -12    0.11    0.04
   3  -3 -12    2.04    0.12
  -3   3  12    2.06    0.11
  -3   3  12    2.04    0.09
   2  -3 -12    0.13    0.04
   2  -3 -12    0.14    0.04
   1  -3 -12    0.03    0.03
   1  -3 -12    0.02    0.03
   0  -3 -12   -0.01    0.02
  -1  -3 -12    0.23    0.04
  -2  -3 -12    0.35    0.05
  -3  -3 -12    0.02    0.03
  -4  -3 -12    0.15    0.04
  -5  -3 -12    0.93    0.08
  -6  -3 -12    1.28    0.09
   2  -4 -12    0.35    0.06
   2  -4 -12    0.26    0.05
   1  -4 -12    3.45    0.15
   1  -4 -12    3.83    0.15
   0  -4 -12    0.61    0.06
  -1  -4 -12    0.96    0.07
  -2  -4 -12    0.73    0.07
  -3  -4 -12    0.00    0.03
  -4  -4 -12    0.09    0.04
  -5  -4 -12    0.09    0.04
   1  -5 -12    0.26    0.05
   0  -5 -12    1.89    0.11
  -1  -5 -12    3.39    0.14
  -2  -5 -12    0.04    0.04
  -3  -5 -12    0.38    0.05
  -4  -5 -12    0.12    0.04
   0  -6 -12    0.36    0.06
  -1  -6 -12   -0.01    0.03
  -2  -6 -12    1.35    0.09
  -3  -6 -12    1.02    0.08
   0   3 -13    0.13    0.06
  -1   3 -13    0.45    0.08
  -2   3 -13   -0.02    0.05
  -3   3 -13    0.50    0.08
   1   2 -13   -0.01    0.04
   0   2 -13    0.06    0.05
  -1   2 -13    0.14    0.06
  -2   2 -13    0.19    0.06
  -3   2 -13    0.51    0.08
   2   1 -13    0.08    0.04
   1   1 -13    0.84    0.08
   0   1 -13    0.09    0.05
  -1   1 -13   -0.02    0.04
  -2   1 -13    0.43    0.07
   2   0 -13    0.07    0.04
   1   0 -13    0.11    0.04
   0   0 -13    0.26    0.05
  -1   0 -13    2.59    0.13
  -2   0 -13    0.14    0.05
   2  -1 -13    0.02    0.03
   1  -1 -13    1.53    0.10
   0  -1 -13    3.19    0.14
  -1  -1 -13    0.01    0.03
  -2  -1 -13    0.10    0.03
  -3  -1 -13   -0.02    0.03
  -4  -1 -13    0.51    0.06
  -5  -1 -13    0.17    0.04
   2  -2 -13    0.72    0.07
   2  -2 -13    0.95    0.08
   1  -2 -13    1.18    0.09
   1  -2 -13    1.20    0.08
   0  -2 -13    2.97    0.13
   0  -2 -13    2.93    0.13
  -1  -2 -13    0.59    0.06
  -2  -2 -13    0.04    0.03
  -3  -2 -13    0.64    0.06
  -4  -2 -13    0.75    0.07
  -5  -2 -13   -0.04    0.03
   1  -3 -13    2.12    0.12
   1  -3 -13    2.14    0.11
   0  -3 -13    2.42    0.12
  -1  -3 -13    0.80    0.07
  -2  -3 -13   -0.04    0.03
  -3  -3 -13    0.10    0.04
  -4  -3 -13    0.41    0.06
   1  -4 -13    1.45    0.10
   0  -4 -13    0.09    0.04
  -1  -4 -13    1.00    0.08
  -2  -4 -13    0.40    0.06
  -3  -4 -13    1.25    0.09
  -4  -4 -13    0.09    0.04
  -2  -5 -13    0.00    0.03
  -1   1 -14    0.23    0.06
  -2   1 -14   -0.04    0.04
   0   0 -14    0.04    0.04
  -1   0 -14    0.16    0.05
   0  -1 -14    0.32    0.06
   0  -2 -14    0.64    0.07
  -1  -2 -14    1.19    0.09
  -2  -2 -14    0.02    0.03
  -3  -2 -14    0.58    0.07
  -1  -3 -14    1.08    0.09
  -2  -3 -14    0.25    0.05
   0   0   0    0.00    0.00
;
_shelx_hkl_checksum              68593
loop_
_space_group_symop_operation_xyz
'x, y, z'
'-x, -y, -z'
loop_
_atom_site_label
_atom_site_type_symbol
_atom_site_fract_x
_atom_site_fract_y
_atom_site_fract_z
_atom_site_U_iso_or_equiv
_atom_site_adp_type
_atom_site_occupancy
_atom_site_site_symmetry_order
_atom_site_calc_flag
_atom_site_refinement_flags_posn
_atom_site_refinement_flags_adp
_atom_site_refinement_flags_occupancy
_atom_site_disorder_assembly
_atom_site_disorder_group
C1 C 0.25591(18) 0.49996(16) 0.42669(13) 0.0406(3) Uani 1 1 d . . . . .
C2 C 0.2102(2) 0.64990(18) 0.47322(15) 0.0505(4) Uani 1 1 d . . . . .
H2 H 0.1932 0.7405 0.4209 0.061 Uiso 1 1 calc R U . . .
C3 C 0.1905(2) 0.66205(19) 0.59861(15) 0.0537(4) Uani 1 1 d . . . . .
H3 H 0.1613 0.7628 0.6303 0.064 Uiso 1 1 calc R U . . .
C4 C 0.21277(19) 0.5279(2) 0.68005(14) 0.0496(4) Uani 1 1 d . . . . .
C5 C 0.26202(19) 0.38007(19) 0.63054(13) 0.0451(3) Uani 1 1 d . . . . .
H5 H 0.2803 0.2897 0.6828 0.054 Uiso 1 1 calc R U . . .
C6 C 0.28481(18) 0.36396(16) 0.50350(12) 0.0393(3) Uani 1 1 d . . . . .
C7 C 0.34343(19) 0.21508(16) 0.44652(12) 0.0407(3) Uani 1 1 d . . . . .
H7 H 0.3682 0.1232 0.4956 0.049 Uiso 1 1 calc R U . . .
C8 C 0.36317(18) 0.20602(16) 0.32403(12) 0.0389(3) Uani 1 1 d . . . . .
C9 C 0.32487(19) 0.34800(16) 0.24441(13) 0.0428(3) Uani 1 1 d . . . . .
C10 C 0.44890(19) 0.05567(16) 0.26349(12) 0.0396(3) Uani 1 1 d . . . . .
C11 C 0.1470(2) 0.0181(2) 0.18220(17) 0.0617(5) Uani 1 1 d . . . . .
H11A H 0.1375 0.1069 0.1211 0.074 Uiso 1 1 calc R U . . .
H11B H 0.0694 0.0450 0.2601 0.074 Uiso 1 1 calc R U . . .
C12 C 0.0876(3) -0.1380(2) 0.14008(16) 0.0636(5) Uani 1 1 d . . . . .
H12A H 0.0443 -0.2129 0.2099 0.076 Uiso 1 1 calc R U . . .
H12B H -0.0138 -0.1183 0.0916 0.076 Uiso 1 1 calc R U . . .
C13 C 0.2681(3) -0.2022(2) 0.06258(15) 0.0593(4) Uani 1 1 d . . . . .
H13A H 0.2867 -0.1495 -0.0198 0.071 Uiso 1 1 calc R U . . .
H13B H 0.2642 -0.3179 0.0565 0.071 Uiso 1 1 calc R U . . .
C14 C 0.4249(2) -0.16274(17) 0.13075(13) 0.0482(4) Uani 1 1 d . . . . .
H14A H 0.4505 -0.2514 0.1886 0.058 Uiso 1 1 calc R U . . .
H14B H 0.5420 -0.1393 0.0738 0.058 Uiso 1 1 calc R U . . .
C15 C 0.1845(3) 0.5447(3) 0.81726(16) 0.0681(5) Uani 1 1 d . . . . .
H15A H 0.0526 0.5299 0.8525 0.102 Uiso 1 1 calc R U . . .
H15B H 0.2196 0.6504 0.8327 0.102 Uiso 1 1 calc R U . . .
H15C H 0.2631 0.4644 0.8539 0.102 Uiso 1 1 calc R U . . .
N1 N 0.34679(16) -0.01884(14) 0.19575(11) 0.0456(3) Uani 1 1 d . . . . .
O1 O 0.27427(14) 0.49030(11) 0.30093(9) 0.0456(3) Uani 1 1 d . . . . .
O2 O 0.33608(18) 0.35333(13) 0.13411(9) 0.0594(3) Uani 1 1 d . . . . .
O3 O 0.60951(15) 0.00625(13) 0.27901(10) 0.0578(3) Uani 1 1 d . . . . .
loop_
_atom_site_aniso_label
_atom_site_aniso_U_11
_atom_site_aniso_U_22
_atom_site_aniso_U_33
_atom_site_aniso_U_23
_atom_site_aniso_U_13
_atom_site_aniso_U_12
C1 0.0347(7) 0.0405(7) 0.0477(8) -0.0108(6) -0.0061(5) -0.0034(5)
C2 0.0475(8) 0.0413(8) 0.0633(9) -0.0138(7) -0.0073(7) -0.0002(6)
C3 0.0430(8) 0.0497(9) 0.0704(10) -0.0287(8) -0.0060(7) 0.0005(6)
C4 0.0347(7) 0.0652(10) 0.0524(8) -0.0272(7) -0.0077(6) -0.0015(6)
C5 0.0400(7) 0.0536(8) 0.0440(8) -0.0139(6) -0.0101(6) 0.0010(6)
C6 0.0335(6) 0.0429(7) 0.0437(7) -0.0129(6) -0.0084(5) -0.0015(5)
C7 0.0426(7) 0.0387(7) 0.0428(7) -0.0073(6) -0.0121(6) 0.0012(5)
C8 0.0404(7) 0.0375(7) 0.0407(7) -0.0086(5) -0.0090(5) -0.0018(5)
C9 0.0448(7) 0.0390(7) 0.0450(8) -0.0077(6) -0.0066(6) -0.0022(6)
C10 0.0454(7) 0.0368(7) 0.0370(7) -0.0054(5) -0.0071(5) -0.0005(6)
C11 0.0529(9) 0.0645(10) 0.0741(11) -0.0279(9) -0.0214(8) 0.0052(7)
C12 0.0646(10) 0.0684(11) 0.0640(10) -0.0120(8) -0.0217(8) -0.0140(8)
C13 0.0859(12) 0.0481(9) 0.0480(9) -0.0137(7) -0.0167(8) -0.0097(8)
C14 0.0605(9) 0.0387(7) 0.0446(8) -0.0134(6) -0.0029(6) -0.0014(6)
C15 0.0614(10) 0.0887(13) 0.0588(10) -0.0397(9) -0.0109(8) 0.0038(9)
N1 0.0478(7) 0.0436(7) 0.0478(7) -0.0184(5) -0.0098(5) 0.0027(5)
O1 0.0558(6) 0.0360(5) 0.0449(6) -0.0060(4) -0.0073(4) 0.0003(4)
O2 0.0867(8) 0.0522(6) 0.0386(6) -0.0050(5) -0.0087(5) 0.0017(5)
O3 0.0549(6) 0.0523(6) 0.0719(7) -0.0220(5) -0.0236(5) 0.0122(5)
loop_
_atom_type_symbol
_atom_type_description
_atom_type_scat_dispersion_real
_atom_type_scat_dispersion_imag
_atom_type_scat_source
C C 0.0033 0.0016 'International Tables Vol C Tables 4.2.6.8 and 6.1.1.4'
H H 0.0000 0.0000 'International Tables Vol C Tables 4.2.6.8 and 6.1.1.4'
N N 0.0061 0.0033 'International Tables Vol C Tables 4.2.6.8 and 6.1.1.4'
O O 0.0106 0.0060 'International Tables Vol C Tables 4.2.6.8 and 6.1.1.4'
loop_
_geom_angle_atom_site_label_1
_geom_angle_atom_site_label_2
_geom_angle_atom_site_label_3
_geom_angle
_geom_angle_site_symmetry_1
_geom_angle_site_symmetry_3
O1 C1 C2 117.60(13) . .
O1 C1 C6 121.02(11) . .
C2 C1 C6 121.37(13) . .
C3 C2 C1 118.51(15) . .
C2 C3 C4 122.24(13) . .
C5 C4 C3 117.89(13) . .
C5 C4 C15 121.27(16) . .
C3 C4 C15 120.84(14) . .
C4 C5 C6 121.25(14) . .
C1 C6 C5 118.70(12) . .
C1 C6 C7 117.62(12) . .
C5 C6 C7 123.65(13) . .
C8 C7 C6 121.31(13) . .
C7 C8 C9 120.72(12) . .
C7 C8 C10 120.82(12) . .
C9 C8 C10 118.02(11) . .
O2 C9 O1 116.84(12) . .
O2 C9 C8 126.34(13) . .
O1 C9 C8 116.81(12) . .
O3 C10 N1 122.55(12) . .
O3 C10 C8 118.90(12) . .
N1 C10 C8 118.56(11) . .
N1 C11 C12 102.74(13) . .
C13 C12 C11 103.45(14) . .
C12 C13 C14 104.11(12) . .
N1 C14 C13 103.57(12) . .
C10 N1 C11 127.18(12) . .
C10 N1 C14 121.22(12) . .
C11 N1 C14 111.45(11) . .
C9 O1 C1 122.44(11) . .
loop_
_geom_bond_atom_site_label_1
_geom_bond_atom_site_label_2
_geom_bond_distance
_geom_bond_site_symmetry_2
C1 O1 1.3782(16) .
C1 C2 1.3825(19) .
C1 C6 1.390(2) .
C2 C3 1.376(2) .
C3 C4 1.399(2) .
C4 C5 1.383(2) .
C4 C15 1.507(2) .
C5 C6 1.3975(19) .
C6 C7 1.4369(18) .
C7 C8 1.3408(18) .
C8 C9 1.461(2) .
C8 C10 1.5086(17) .
C9 O2 1.2028(17) .
C9 O1 1.3779(16) .
C10 O3 1.2289(16) .
C10 N1 1.3308(18) .
C11 N1 1.4677(19) .
C11 C12 1.512(2) .
C12 C13 1.507(3) .
C13 C14 1.510(2) .
C14 N1 1.4718(17) .
