#------------------------------------------------------------------------------
#$Date: 2022-06-29 12:11:13 +0300 (Wed, 29 Jun 2022) $
#$Revision: 276387 $
#$URL: file:///home/coder/svn-repositories/cod/cif/8/10/55/8105559.cif $
#------------------------------------------------------------------------------
#
# This file is available in the Crystallography Open Database (COD),
# http://www.crystallography.net/
#
# All data on this site have been placed in the public domain by the
# contributors.
#
data_8105559
loop_
_publ_author_name
'Wang, Chuan-Qi'
'Wang, Xiao-Xia'
'Liu, Xiao-Hu'
'Yang, Bin-Yi'
'Zhong, Qi-Di'
'Zhuang, Peng-Yu'
'Tan, Hong-Bo'
_publ_section_title
;
 Crystal structure of methyl
 4-methyl-2,5-di(pyridin-4-yl)-1H-pyrrole-3-carboxylate monohydrate
 C17H15N3O2&#x22C5;H2O
;
_journal_issue                   1
_journal_name_full
'Zeitschrift f\"ur Kristallographie - New Crystal Structures'
_journal_page_first              113
_journal_page_last               114
_journal_paper_doi               10.1515/ncrs-2018-0216
_journal_volume                  234
_journal_year                    2018
_chemical_formula_moiety         'C17 H15 N3 O2, H2 O'
_chemical_formula_sum            'C17 H17 N3 O3'
_chemical_formula_weight         311.33
_space_group_crystal_system      triclinic
_space_group_IT_number           2
_space_group_name_Hall           '-P 1'
_space_group_name_H-M_alt        'P -1'
_atom_sites_solution_hydrogens   mixed
_cell_angle_alpha                76.216(18)
_cell_angle_beta                 76.674(18)
_cell_angle_gamma                79.158(18)
_cell_formula_units_Z            2
_cell_length_a                   5.7965(14)
_cell_length_b                   11.625(3)
_cell_length_c                   12.315(3)
_cell_measurement_reflns_used    1577
_cell_measurement_temperature    113
_cell_measurement_theta_max      27.5
_cell_measurement_theta_min      3.5
_cell_volume                     776.4(3)
_computing_cell_refinement
;
CrystalClear-SM Expert 2.1 b42 (Rigaku, 2015)
;
_computing_data_collection
;
CrystalClear-SM Expert 2.1 b42 (Rigaku, 2015)
;
_computing_data_reduction
;
CrystalClear-SM Expert 2.1 b42 (Rigaku, 2015)
;
_computing_molecular_graphics    'Olex2 (Dolomanov et al., 2009)'
_computing_publication_material  'Olex2 (Dolomanov et al., 2009)'
_computing_structure_refinement  'ShelXL (Sheldrick, 2015)'
_computing_structure_solution    'ShelXT (Sheldrick, 2015)'
_diffrn_ambient_temperature      113
_diffrn_detector                 PILT
_diffrn_detector_area_resol_mean 5.8140
_diffrn_measured_fraction_theta_full 0.989
_diffrn_measured_fraction_theta_max 0.980
_diffrn_measurement_details
;
scan:
	Number of images: 360
	           Slice: -105.0000 - 75.0000
	     Image width: 0.5000
	        Exp time: 10.0000
	   Rotation axis: Omega
	           Omega: 0.0000
	             Chi: 45.0000
	             Phi: 0.0000
	             XTD: 45.0203
	          2theta: -15.0593
scan:
	Number of images: 360
	           Slice: -105.0000 - 75.0000
	     Image width: 0.5000
	        Exp time: 10.0000
	   Rotation axis: Omega
	           Omega: 0.0000
	             Chi: 45.0000
	             Phi: 90.0000
	             XTD: 45.0203
	          2theta: -15.0593
scan:
	Number of images: 360
	           Slice: -105.0000 - 75.0000
	     Image width: 0.5000
	        Exp time: 10.0000
	   Rotation axis: Omega
	           Omega: 0.0000
	             Chi: 45.0000
	             Phi: 180.0000
	             XTD: 45.0203
	          2theta: -15.0593
;
_diffrn_measurement_device
;
AFC10: Fixed Chi 2 circle
;
_diffrn_measurement_device_type  'Rigaku Pilatus 200K'
_diffrn_measurement_method       '\w scans'
_diffrn_measurement_specimen_support Fiber
_diffrn_orient_matrix_type       d*Trek
_diffrn_orient_matrix_UB_11      -0.101318
_diffrn_orient_matrix_UB_12      0.006314
_diffrn_orient_matrix_UB_13      0.147527
_diffrn_orient_matrix_UB_21      -0.000240
_diffrn_orient_matrix_UB_22      -0.088701
_diffrn_orient_matrix_UB_23      -0.011674
_diffrn_orient_matrix_UB_31      0.077663
_diffrn_orient_matrix_UB_32      0.013029
_diffrn_orient_matrix_UB_33      0.032637
_diffrn_radiation_monochromator  Confocal
_diffrn_radiation_type           MoK\a
_diffrn_radiation_wavelength     0.71073
_diffrn_reflns_av_R_equivalents  0.1183
_diffrn_reflns_av_unetI/netI     0.0921
_diffrn_reflns_Laue_measured_fraction_full 0.989
_diffrn_reflns_Laue_measured_fraction_max 0.980
_diffrn_reflns_limit_h_max       7
_diffrn_reflns_limit_h_min       -7
_diffrn_reflns_limit_k_max       15
_diffrn_reflns_limit_k_min       -15
_diffrn_reflns_limit_l_max       15
_diffrn_reflns_limit_l_min       -15
_diffrn_reflns_number            10002
_diffrn_reflns_point_group_measured_fraction_full 0.989
_diffrn_reflns_point_group_measured_fraction_max 0.980
_diffrn_reflns_theta_full        26.000
_diffrn_reflns_theta_max         27.507
_diffrn_reflns_theta_min         3.473
_diffrn_source                   'Rotating Anode'
_diffrn_source_current           24.0
_diffrn_source_power             1.2
_diffrn_source_voltage           50.0
_exptl_absorpt_coefficient_mu    0.093
_exptl_absorpt_correction_T_max  1.000
_exptl_absorpt_correction_T_min  0.481
_exptl_absorpt_correction_type   multi-scan
_exptl_crystal_colour            Colorless
_exptl_crystal_density_diffrn    1.332
_exptl_crystal_density_meas      .
_exptl_crystal_density_method    "'not measured'"
_exptl_crystal_description       Prism
_exptl_crystal_F_000             328
_exptl_crystal_preparation       Fiber
_exptl_crystal_size_max          0.22
_exptl_crystal_size_mid          0.2
_exptl_crystal_size_min          0.18
_refine_diff_density_max         0.504
_refine_diff_density_min         -0.282
_refine_diff_density_rms         0.080
_refine_ls_extinction_coef       .
_refine_ls_extinction_method     none
_refine_ls_goodness_of_fit_ref   0.924
_refine_ls_hydrogen_treatment    mixed
_refine_ls_matrix_type           full
_refine_ls_number_parameters     220
_refine_ls_number_reflns         3503
_refine_ls_number_restraints     0
_refine_ls_restrained_S_all      0.924
_refine_ls_R_factor_all          0.0808
_refine_ls_R_factor_gt           0.0608
_refine_ls_shift/su_max          0.000
_refine_ls_shift/su_mean         0.000
_refine_ls_structure_factor_coef Fsqd
_refine_ls_weighting_details
'w=1/[\s^2^(Fo^2^)+(0.0898P)^2^] where P=(Fo^2^+2Fc^2^)/3'
_refine_ls_weighting_scheme      calc
_refine_ls_wR_factor_gt          0.1484
_refine_ls_wR_factor_ref         0.1574
_reflns_Friedel_coverage         0.000
_reflns_Friedel_fraction_full    .
_reflns_Friedel_fraction_max     .
_reflns_number_gt                2416
_reflns_number_total             3503
_reflns_threshold_expression     'I > 2\s(I)'
_cod_data_source_file            suppl_ncrs-2018-0216_suppl.cif
_cod_data_source_block           shelx
_cod_depositor_comments
;
The following automatic conversions were performed:

data item '_exptl_absorpt_correction_type' value 'Multi-scan' was
changed to 'multi-scan' in accordance with the built-in table derived
from the CIF Core dictionary named 'cif_core.dic' version 2.4.5 last
updated on 2014-11-21.

Automatic conversion script
Id: cif_fix_values 8738 2021-04-28 16:35:53Z antanas 
;
_cod_database_code               8105559
_shelx_space_group_comment
;
The symmetry employed for this shelxl refinement is uniquely defined
by the following loop, which should always be used as a source of
symmetry information in preference to the above space-group names.
They are only intended as comments.
;
_shelx_estimated_absorpt_t_max   0.983
_shelx_estimated_absorpt_t_min   0.980
_olex2_refinement_description
;
1. Fixed Uiso
 At 1.2 times of:
  All C(H) groups
 At 1.5 times of:
  All C(H,H,H) groups, All O(H,H) groups
2.a Aromatic/amide H refined with riding coordinates:
 C6(H6), C7(H7), C8(H8), C9(H9), C14(H14), C15(H15), C16(H16), C17(H17)
2.b Idealised Me refined as rotating group:
 C10(H10A,H10B,H10C), C12(H12A,H12B,H12C)
;
_shelx_res_file
;
    shelx.res created by SHELXL-2014/8

TITL shelx in P-1
CELL 0.71073 5.7965 11.6249 12.3146 76.216 76.674 79.158
ZERR 2 0.0014 0.0027 0.0027 0.018 0.018 0.018
LATT 1
SFAC C H N O
UNIT 34 34 6 6

L.S. 4
PLAN  20
SIZE 0.22 0.2 0.18
TEMP -160
BOND
fmap 2
MORE -1
BOND $H
ACTA 52
CONF
REM <olex2.extras>
REM <HklSrc "%.\\shelx.hkl">
REM </olex2.extras>

WGHT    0.089800
FVAR       0.60528
O1    4   -0.086567    1.077682    0.827081    11.00000    0.03525    0.04126 =
         0.03399   -0.01471   -0.00263   -0.00335
O2    4    0.292341    0.996535    0.838866    11.00000    0.03215    0.03951 =
         0.02371   -0.01244   -0.00138   -0.00449
N1    3    0.189447    0.722665    0.705209    11.00000    0.03399    0.03033 =
         0.01378   -0.00440   -0.00243   -0.00453
H1    2    0.230821    0.643836    0.711630    11.00000    0.02986
N2    3   -0.114802    0.660859    0.367586    11.00000    0.05008    0.04220 =
         0.01930   -0.00316   -0.00876   -0.01416
N3    3    0.637272    0.620725    1.036852    11.00000    0.04217    0.03676 =
         0.02108   -0.00535   -0.00846   -0.00840
C1    1    0.023673    0.789302    0.642025    11.00000    0.03055    0.03501 =
         0.01316   -0.00157   -0.00121   -0.00838
C2    1   -0.050479    0.898286    0.675576    11.00000    0.02878    0.03611 =
         0.01352   -0.00183    0.00200   -0.00885
C3    1    0.077919    0.895396    0.762678    11.00000    0.03094    0.03639 =
         0.01175   -0.00358    0.00212   -0.00773
C4    1    0.220847    0.784584    0.780575    11.00000    0.03152    0.03489 =
         0.01283   -0.00718    0.00062   -0.00756
C5    1   -0.029341    0.744160    0.550276    11.00000    0.03760    0.03412 =
         0.01112    0.00034   -0.00198   -0.01233
C6    1   -0.240487    0.784069    0.508287    11.00000    0.03572    0.04127 =
         0.02082   -0.00455   -0.00256   -0.00862
AFIX  43
H6    2   -0.360828    0.840235    0.541290    11.00000   -1.20000
AFIX   0
C7    1   -0.273225    0.741044    0.417937    11.00000    0.04028    0.04545 =
         0.02383   -0.00173   -0.01018   -0.01201
AFIX  43
H7    2   -0.417425    0.770412    0.390026    11.00000   -1.20000
AFIX   0
C8    1    0.086730    0.622170    0.408312    11.00000    0.04613    0.03633 =
         0.01888   -0.00671   -0.00412   -0.00888
AFIX  43
H8    2    0.202743    0.565505    0.373731    11.00000   -1.20000
AFIX   0
C9    1    0.136592    0.659690    0.497836    11.00000    0.03559    0.03638 =
         0.01624   -0.00236   -0.00491   -0.00855
AFIX  43
H9    2    0.282535    0.628396    0.523685    11.00000   -1.20000
AFIX   0
C10   1   -0.222019    1.001253    0.628873    11.00000    0.03553    0.03830 =
         0.01629   -0.00193   -0.00059   -0.00577
AFIX 137
H10A  2   -0.203688    1.007106    0.546694    11.00000   -1.50000
H10B  2   -0.188404    1.075479    0.642733    11.00000   -1.50000
H10C  2   -0.386286    0.988596    0.666612    11.00000   -1.50000
AFIX   0
C11   1    0.079551    0.998493    0.813138    11.00000    0.03150    0.03382 =
         0.01319   -0.00220    0.00260   -0.00654
C12   1    0.316718    1.092944    0.889228    11.00000    0.03447    0.04610 =
         0.02473   -0.01546   -0.00038   -0.00948
AFIX 137
H12A  2    0.240395    1.168794    0.849459    11.00000   -1.50000
H12B  2    0.486949    1.097000    0.882421    11.00000   -1.50000
H12C  2    0.239329    1.078363    0.969927    11.00000   -1.50000
AFIX   0
C13   1    0.367857    0.728444    0.866684    11.00000    0.03454    0.02862 =
         0.01392   -0.00389   -0.00334   -0.00620
C14   1    0.289116    0.745662    0.978736    11.00000    0.03993    0.03671 =
         0.01658   -0.00908   -0.00142   -0.00047
AFIX  43
H14   2    0.142136    0.794799    0.999267    11.00000   -1.20000
AFIX   0
C15   1    0.427220    0.690547    1.058742    11.00000    0.04731    0.03823 =
         0.01534   -0.00859   -0.00424   -0.00649
AFIX  43
H15   2    0.369938    0.702784    1.134453    11.00000   -1.20000
AFIX   0
C16   1    0.711890    0.603856    0.929382    11.00000    0.03251    0.03692 =
         0.02327   -0.00679   -0.00407   -0.00493
AFIX  43
H16   2    0.860168    0.554654    0.911420    11.00000   -1.20000
AFIX   0
C17   1    0.583951    0.654440    0.843437    11.00000    0.03521    0.03559 =
         0.01576   -0.00658   -0.00177   -0.00879
AFIX  43
H17   2    0.643319    0.638728    0.769012    11.00000   -1.20000
AFIX   0

O3    4    0.701357    0.521051    0.259957    11.00000    0.06132    0.03645 =
         0.02402   -0.00552   -0.01799   -0.00793
H3A   2    0.765057    0.571734    0.286260    11.00000   -1.50000
H3B   2    0.702506    0.553057    0.186860    11.00000   -1.50000
HKLF 4

REM  shelx in P-1
REM R1 =  0.0608 for    2416 Fo > 4sig(Fo)  and  0.0808 for all    3503 data
REM    220 parameters refined using      0 restraints

END

WGHT      0.0898      0.0000

REM Highest difference peak  0.504,  deepest hole -0.282,  1-sigma level  0.080
Q1    1   0.2192  0.8585  0.7629  11.00000  0.05    0.50
Q2    1  -0.1861  0.9187  0.6547  11.00000  0.05    0.42
Q3    1   0.6893  0.4385  0.2811  11.00000  0.05    0.41
Q4    1   0.0001  0.8590  0.6340  11.00000  0.05    0.40
Q5    1  -0.0861  0.9725  0.6548  11.00000  0.05    0.38
Q6    1   0.0950  0.9605  0.7637  11.00000  0.05    0.35
Q7    1   0.4387  0.6558  0.8624  11.00000  0.05    0.34
Q8    1  -0.0813  1.1629  0.8063  11.00000  0.05    0.34
Q9    1   0.3081  0.9067  0.8591  11.00000  0.05    0.32
Q10   1  -0.0441  0.8288  0.6853  11.00000  0.05    0.32
Q11   1   0.0703  0.9252  0.8150  11.00000  0.05    0.32
Q12   1   0.0517  1.1036  0.8279  11.00000  0.05    0.30
Q13   1   0.2011  0.9460  0.8417  11.00000  0.05    0.30
Q14   1   0.6030  0.5772  0.8718  11.00000  0.05    0.30
Q15   1  -0.0402  0.5900  0.3972  11.00000  0.05    0.29
Q16   1   0.5827  0.7026  1.0390  11.00000  0.05    0.29
Q17   1   0.5087  0.7189  0.8547  11.00000  0.05    0.28
Q18   1   0.2383  1.0828  0.8400  11.00000  0.05    0.28
Q19   1   0.6269  0.6046  0.2539  11.00000  0.05    0.28
Q20   1   0.6276  0.5379  1.0586  11.00000  0.05    0.27
;
_shelx_hkl_file
;
   0   0  -2   12.96    2.93
   0   0   2   12.84    2.93
   0   0   2   19.65    4.14
   0   0   2   12.54    2.86
   0   0   3  135.79   15.65
   0   0   3  193.09   22.09
   0   0   3  126.05    6.13
   0   0   4   41.32    6.30
   0   0   4   60.12    8.98
   0   0  -4   66.64    9.89
   0   0   4   41.33    6.45
   0   0   5   46.23    3.47
   0   0   5   60.96    4.37
   0   0   5   45.06    3.43
   0   0   5   43.03    3.04
   0   0  -6  144.56    9.07
   0   0   6  150.20    9.17
   0   0   6  181.77   11.08
   0   0   6  147.89    9.14
   0   0   6  140.94    8.41
   0   0  -7    4.30    1.61
   0   0   7    5.65    1.59
   0   0   7    5.93    1.23
   0   0   7    5.58    1.95
   0   0   7    4.31    1.47
   0   0   7    4.95    1.23
   0   0  -8   15.42    2.25
   0   0   8   17.40    2.65
   0   0   8   17.97    2.38
   0   0   8   17.34    2.90
   0   0   8   16.92    2.13
   0   0   8   16.53    1.77
   0   0  -9  118.24   11.22
   0   0   9  127.74   11.41
   0   0   9  133.21   12.51
   0   0   9  124.37   11.66
   0   0   9  115.87   10.57
   0   0 -10   28.88    4.40
   0   0  10   31.68    4.68
   0   0  10   24.78    3.44
   0   0 -11    5.41    1.86
   0   0  11    6.64    2.09
   0   0 -12    2.73    1.82
   0   0  12    4.32    1.76
   0   0  13    1.91    1.88
   0   0  13   -0.31    1.71
   0   0  14    7.40    2.08
   0   0  14    5.97    2.25
   0   0  15   32.45    4.57
   0   0  15   30.03    4.39
   0   1 -14    6.20    2.11
   0  -1  14    7.89    2.24
   0   1 -13   -0.15    1.57
   0  -1  13    0.82    1.66
   0   1 -12    1.42    1.58
   0  -1  12    2.76    1.95
   0   1 -11   20.60    2.46
   0  -1  11   26.51    4.43
   0   1 -10   12.38    2.09
   0  -1  10   16.09    2.89
   0   1  -9  116.05   10.96
   0  -1   9  137.71   12.86
   0  -1   9  113.22   10.63
   0  -1   9  112.42   10.21
   0   1  -8  120.62   12.42
   0  -1   8  107.65   11.18
   0  -1   8  133.54   13.16
   0  -1   8  135.97   13.91
   0  -1   8  106.55   11.05
   0  -1   8  118.26   11.81
   0   1  -7   34.72    3.21
   0  -1   7   33.72    2.94
   0  -1   7   41.80    2.87
   0  -1   7   40.13    3.61
   0  -1   7   32.05    2.93
   0  -1   7   32.32    2.53
   0   1  -6   36.57    3.39
   0  -1   6   32.93    3.08
   0  -1   6   46.78    3.45
   0  -1   6   46.68    4.17
   0  -1   6   36.55    2.95
   0   1  -6   31.22    2.80
   0  -1   5  111.82    5.88
   0  -1   5  107.30    4.74
   0   1  -5  104.57    5.01
   0  -1   4  229.67   25.80
   0  -1   4  321.76   35.92
   0  -1   4  202.95   22.56
   0   1  -4  206.51   23.08
   0  -1   3 1453.31  161.68
   0  -1   3 2370.25  257.78
   0  -1   3 1297.20  141.02
   0   1  -3 1277.84  139.03
   0   1  -2  348.19   38.50
   0  -1   2  316.51   35.27
   0  -1   2  526.29   58.09
   0   1  -2  575.95   63.51
   0  -1   2  290.02   31.95
   0   1   2  706.84   77.42
   0   1   2  911.42   99.85
   0   1   2  614.54   67.27
   0   1   3    0.40    1.91
   0   1   3   -0.65    1.47
   0   1   3   -0.50    1.96
   0  -1  -3   -0.33    2.12
   0  -1  -3    0.44    2.18
   0   1   3   -0.16    2.14
   0   1   4  444.61   49.15
   0   1   4  552.80   61.01
   0  -1  -4  611.58   67.33
   0  -1  -4  379.50   41.94
   0   1   4  386.30   42.66
   0   1   5   89.83    5.13
   0   1   5  111.04    6.09
   0  -1  -6 1199.45   35.60
   0   1   6 1162.49   34.51
   0   1   6 1428.06   72.95
   0   1   6 1119.55   32.79
   0   1   6 1063.74   31.30
   0  -1  -7   77.30    7.88
   0   1   7   82.43    8.22
   0   1   7   87.81    8.18
   0   1   7  104.25   10.27
   0   1   7   79.27    7.88
   0   1   7   79.53    7.85
   0  -1  -8   21.56    2.61
   0   1   8   23.52    2.59
   0   1   8   22.94    1.95
   0   1   8   26.36    3.06
   0   1   8   20.88    2.27
   0   1   8   21.29    2.34
   0  -1  -9    0.57    1.46
   0   1   9    0.06    0.84
   0   1   9    1.52    1.64
   0   1   9    0.35    0.95
   0   1   9    0.41    0.89
   0   1  10    2.46    1.57
   0   1  10    5.06    1.90
   0   1  10    2.94    1.07
   0   1  11    3.31    1.64
   0   1  11    2.73    1.79
   0   1  12   14.03    2.41
   0   1  12    9.67    2.07
   0   1  13   26.08    4.29
   0   1  13   24.42    4.22
   0   1  14  104.78    4.75
   0   1  14   99.10    6.39
   0   1  15   47.74    6.01
   0   2 -14   81.30    7.09
   0  -2  14   86.76    4.80
   0   2 -13   -0.76    1.65
   0  -2  13    0.20    1.74
   0   2 -12   11.80    2.53
   0  -2  12   11.03    2.30
   0   2 -11   48.08    5.02
   0  -2  11   45.65    4.85
   0   2 -10    4.68    1.62
   0  -2  10    8.30    2.26
   0   2  -9   -0.05    1.27
   0  -2   9    0.95    1.45
   0  -2   9   -0.18    0.77
   0   2  -8   24.64    3.43
   0  -2   8   25.43    3.57
   0  -2   8   19.48    2.52
   0   2  -8   20.51    2.75
   0   2  -7    6.60    1.48
   0  -2   7    7.77    1.53
   0  -2   7    8.20    1.40
   0  -2   7    7.76    1.97
   0  -2   7    6.38    1.26
   0   2  -7    5.79    1.29
   0  -2   6  193.52   18.01
   0  -2   6  260.12   23.27
   0  -2   6  261.92   23.71
   0  -2   6  192.76   17.32
   0   2  -6  194.56   17.58
   0  -2   5  223.66   10.54
   0  -2   5  296.68   11.31
   0  -2   5  233.19    8.48
   0   2  -5  229.62    8.31
   0  -2   4    0.20    1.21
   0  -2   4    0.39    1.29
   0  -2   4    1.50    1.82
   0  -2   4    0.10    0.72
   0   2  -4    0.58    0.81
   0  -2   3   58.46    8.48
   0  -2   3  100.78   14.28
   0  -2   3   62.62    8.74
   0   2  -3   57.30    8.01
   0   2  -2 4198.34  455.40
   0   2  -1  625.76   68.40
   0  -2   1  505.81   57.15
   0  -2   1  468.97   51.36
   0   2   0  300.15   33.16
   0  -2   0  233.54   26.14
   0  -2   0  217.03   24.07
   0   2   0  199.18   22.04
   0   2   1   87.50   12.17
   0  -2  -1   79.67   11.25
   0   2   1  106.37   17.53
   0  -2  -1  108.93   15.26
   0  -2  -1   64.37    8.97
   0   2   1   64.56    8.99
   0   2   2   10.86    2.40
   0   2   2   12.42    2.96
   0  -2  -2    8.19    2.11
   0   2   2    8.23    1.79
   0   2   3   63.52    9.18
   0   2   3   67.69   10.13
   0  -2  -3   86.22   12.53
   0  -2  -3   51.44    7.44
   0   2   3   51.29    7.33
   0   2   4  327.49   36.32
   0   2   4  375.77   41.83
   0  -2  -4  458.30   50.71
   0  -2  -4  288.33   32.07
   0   2   4  268.33   29.71
   0   2   5   45.19    3.65
   0   2   5   44.97    3.29
   0   2   5   51.24    4.06
   0  -2  -5   39.23    3.09
   0   2   5   36.27    2.66
   0   2   6  366.32   13.20
   0   2   6  329.90   11.80
   0   2   7    1.70    1.49
   0   2   7    1.43    1.24
   0   2   7    1.52    0.85
   0   2   7    1.48    1.59
   0  -2  -7    2.10    1.14
   0   2   7    1.39    0.92
   0   2   8    0.60    1.34
   0   2   8    0.29    1.21
   0   2   8    0.44    0.71
   0   2   8   -0.32    1.52
   0   2   8    0.19    0.75
   0   2   8    0.02    0.91
   0   2   9  159.32   15.82
   0   2   9  153.02   14.74
   0   2   9  162.39   16.32
   0   2   9  117.26   11.59
   0   2   9  134.98   13.44
   0   2  10   76.72    5.44
   0   2  10   79.94    4.80
   0   2  10   81.98    6.00
   0   2  10   73.66    5.03
   0   2  11   69.07    5.50
   0   2  11   65.97    5.55
   0   2  12   67.68    6.50
   0   2  12   71.30    6.97
   0   2  13    1.37    1.70
   0   2  13    1.78    1.93
   0   2  14   43.82    7.96
   0   2  15    1.57    1.95
   0   3 -14   -0.39    1.75
   0  -3  14    0.17    1.95
   0   3 -13    9.31    2.18
   0  -3  13   11.65    2.29
   0   3 -12   48.03    6.96
   0  -3  12   49.30    7.19
   0   3 -11   64.67    7.66
   0  -3  11   72.27    8.45
   0   3 -10   -0.19    1.60
   0  -3  10   -1.00    1.42
   0   3  -9  349.67    9.18
   0  -3   9  391.07    9.48
   0  -3   9  260.63   31.51
   0   3  -9  308.73   36.79
   0   3  -8   85.37    8.30
   0  -3   8   62.18    7.33
   0  -3   8   71.80    6.96
   0   3  -8   82.95    7.98
   0   3  -7    8.57    1.74
   0  -3   7   11.22    2.20
   0  -3   7    8.20    1.34
   0   3  -7    9.08    1.46
   0  -3   6  177.78    9.64
   0  -3   6  200.81   16.35
   0  -3   6  164.58    8.25
   0   3  -6  169.56    8.24
   0  -3   5   61.12    4.77
   0  -3   5   84.50    6.42
   0  -3   5   70.81    5.44
   0  -3   5   58.37    4.08
   0   3  -5   54.03    3.71
   0  -3   4  128.91    6.84
   0  -3   4  128.29    8.12
   0  -3   4  138.46    9.66
   0  -3   4  111.65    4.86
   0   3  -4  117.10    4.80
   0   3  -3   96.23   13.38
   0  -3   3   99.07   14.29
   0  -3   3  175.25   20.33
   0  -3   3  102.62   16.60
   0  -3   3   98.84   13.72
   0   3  -3   99.12   13.56
   0   3  -2   35.03    5.27
   0  -3   2   25.76    4.12
   0  -3   2   26.51    3.95
   0   3  -2   23.53    3.54
   0   3  -1  192.15   21.87
   0  -3   1  123.55    7.76
   0  -3   1  155.01   17.52
   0   3   0 1406.44  157.53
   0  -3   0 1157.02  144.23
   0  -3   0 1848.31  229.48
   0  -3   0 1172.65  151.61
   0  -3   0 1030.57  113.91
   0   3   0  996.51  109.96
   0   3   1  846.69   94.12
   0  -3  -1  682.12   76.67
   0   3   1  941.77  128.67
   0  -3  -1  884.47  100.15
   0  -3  -1  598.05   66.44
   0   3   1  565.60   62.61
   0   3   2  407.32   44.82
   0   3   2  427.25   52.84
   0  -3  -2  358.97   42.20
   0   3   2  299.75   33.22
   0   3   3    2.90    1.51
   0   3   3    2.22    1.85
   0  -3  -3    2.36    1.03
   0   3   3    1.46    1.01
   0   3   4  776.90   85.03
   0   3   4  825.44   90.63
   0  -3  -4 1111.65  122.23
   0  -3  -4  612.48   67.10
   0   3   4  602.02   65.84
   0   3   5   28.93    2.63
   0  -3  -5   30.16    2.86
   0   3   5   29.40    3.05
   0  -3  -5   25.45    2.45
   0   3   5   23.66    1.99
   0   3   6  142.90    9.12
   0   3   6  130.64    8.10
   0   3   6  149.53    9.62
   0  -3  -6  119.79    7.67
   0   3   7   69.95    7.30
   0   3   7   60.33    6.23
   0   3   7   55.62    5.43
   0   3   7   66.58    7.10
   0  -3  -7   52.26    5.57
   0   3   7   47.55    4.82
   0   3   8    0.46    1.39
   0   3   8   -0.06    1.18
   0   3   8    0.10    0.78
   0   3   8    0.39    1.47
   0  -3  -8   -0.25    0.93
   0   3   8    0.02    0.71
   0   3   9   43.22    4.76
   0   3   9   44.84    4.47
   0   3   9   47.90    5.46
   0  -3  -9   39.31    4.38
   0   3   9   31.34    3.36
   0   3  10    0.00    1.43
   0   3  10    0.44    0.78
   0   3  10   -0.06    1.64
   0   3  10    1.01    1.04
   0   3  11  100.00    7.12
   0   3  11  107.43    7.98
   0   3  12   31.81    3.69
   0   3  12   35.92    4.35
   0   3  13   -0.70    1.38
   0   3  14   14.67    3.25
   0   3  15    2.93    1.80
   0   4 -13    3.08    1.90
   0  -4  13    1.34    1.69
   0   4 -12   22.14    4.64
   0  -4  12   23.50    4.76
   0   4 -11   28.67    3.80
   0  -4  11   23.77    3.69
   0   4 -10   10.64    2.03
   0  -4  10   14.33    2.42
   0   4  -9    0.30    1.46
   0  -4   9   -0.29    1.42
   0  -4   9    0.19    0.96
   0   4  -9   -0.61    0.94
   0   4  -8   50.56    4.94
   0  -4   8   55.84    5.01
   0  -4   8   45.02    3.41
   0   4  -8   48.04    3.62
   0   4  -7   39.72    4.93
   0  -4   7   38.21    5.47
   0  -4   7   31.91    3.69
   0   4  -7   36.61    3.88
   0  -4   6   44.14    5.07
   0  -4   6   58.83    7.62
   0  -4   6   47.67    5.34
   0   4  -6   47.04    5.08
   0  -4   5   33.48    3.94
   0  -4   5   40.41    5.76
   0  -4   5   38.59    6.58
   0  -4   5   32.64    3.54
   0   4  -5   33.66    3.53
   0  -4   4   10.39    1.62
   0  -4   4   18.02    3.03
   0  -4   4    9.73    1.37
   0   4  -4    9.93    1.35
   0   4  -3  366.14   20.24
   0  -4   3  317.81   19.55
   0  -4   3  354.28   12.99
   0   4  -3  315.16   10.35
   0  -4   2  104.42    8.02
   0  -4   2  134.27   24.71
   0  -4   2  109.20    5.54
   0   4  -2  106.88    4.73
   0   4  -1  107.09   14.89
   0  -4   1   70.60   10.65
   0  -4   1   87.37   17.35
   0  -4   1   87.01   18.37
   0  -4   1   76.20   10.58
   0   4   0  210.23   23.70
   0  -4   0  154.15   19.03
   0  -4   0  173.27   29.31
   0  -4   0  170.33   33.76
   0  -4   0  141.28   16.31
   0   4   0  135.05   15.16
   0   4   1   26.60    4.19
   0  -4  -1   24.71    3.91
   0  -4  -1   27.67    5.43
   0  -4  -1   27.26    5.91
   0  -4  -1   24.49    3.78
   0   4   1   22.40    3.39
   0   4   2   16.65    2.88
   0  -4  -2   20.76    4.55
   0   4   2   15.53    2.54
   0   4   3  128.36    5.72
   0   4   3  106.27   15.32
   0  -4  -3  102.02   14.20
   0   4   3   97.41   13.43
   0   4   4    3.92    1.35
   0  -4  -4    3.40    1.22
   0   4   4    2.52    1.67
   0  -4  -4    2.98    1.01
   0   4   4    2.73    0.98
   0   4   5   16.88    2.05
   0  -4  -5   14.49    2.06
   0   4   5   17.71    3.11
   0  -4  -5   21.43    3.35
   0  -4  -5   13.39    1.70
   0   4   5   13.18    1.54
   0   4   6  345.67   18.73
   0  -4  -6  302.01   17.69
   0   4   6  342.92   19.95
   0  -4  -6  293.91   16.25
   0   4   6  268.07   14.87
   0   4   7  143.42    8.08
   0   4   7  129.39    7.09
   0   4   7  100.69    5.74
   0   4   7  125.54    7.66
   0  -4  -7  113.72    6.72
   0   4   7  107.55    5.62
   0   4   8   54.10    6.34
   0   4   8   45.64    5.24
   0   4   8   48.33    5.24
   0   4   8   48.84    5.94
   0  -4  -8   40.55    4.90
   0   4   8   36.12    4.03
   0   4   9   -0.15    1.20
   0   4   9    0.39    0.90
   0   4   9    0.16    1.50
   0  -4  -9    0.48    1.18
   0   4   9    0.45    0.72
   0   4  10   38.80    5.38
   0   4  10   37.98    5.58
   0  -4 -10   29.63    4.27
   0   4  11   64.47    9.05
   0   4  11   73.94   10.57
   0   4  12    6.35    1.78
   0   4  13   10.85    2.34
   0   4  14    5.52    1.67
   0   4  15    1.86    1.63
   0   5 -13   19.99    3.43
   0  -5  13   12.43    2.87
   0   5 -12    1.08    1.74
   0  -5  12    0.15    1.73
   0   5 -11   56.25    8.02
   0  -5  11   42.08    6.63
   0   5 -10    9.36    1.97
   0  -5  10   10.42    2.32
   0   5  -9    0.24    1.25
   0  -5   9   -0.96    1.74
   0  -5   9    0.20    0.98
   0   5  -9   -0.07    0.91
   0   5  -8    6.81    1.92
   0  -5   8    4.11    1.82
   0  -5   8    5.31    1.27
   0   5  -8    5.79    1.31
   0   5  -7   16.01    2.25
   0  -5   7   12.27    2.51
   0  -5   7   15.53    1.72
   0   5  -7   15.19    1.57
   0  -5   6   56.73    8.05
   0  -5   6   48.73    5.40
   0   5  -6   47.17    5.00
   0  -5   5  178.37   17.81
   0   5  -5  157.48   15.50
   0  -5   4    2.51    1.08
   0  -5   4    3.61    1.14
   0   5  -4    3.49    0.93
   0   5  -3   31.64    3.38
   0  -5   3   24.59    2.58
   0  -5   3   25.95    5.40
   0  -5   3   20.31    5.91
   0  -5   3   24.49    2.21
   0   5  -3   26.93    2.24
   0   5  -2   24.27    2.77
   0  -5   2   15.85    2.05
   0  -5   2   26.47    4.81
   0  -5   2   17.74    4.05
   0  -5   2   19.50    1.98
   0   5  -2   19.43    1.79
   0   5  -1    8.06    1.59
   0  -5   1    7.30    1.43
   0  -5   1    7.64    2.12
   0  -5   1   10.11    2.69
   0  -5   1    7.02    1.18
   0   5   0    0.60    1.00
   0  -5   0   -0.40    1.16
   0  -5   0    0.41    1.32
   0  -5   0   -0.26    1.64
   0  -5   0    0.04    0.64
   0   5   0   -0.05    0.63
   0   5   1   20.63    2.72
   0  -5  -1   19.91    3.31
   0  -5  -1   16.32    3.56
   0  -5  -1   15.49    1.64
   0   5   1   18.04    1.53
   0   5   2  290.43   22.90
   0  -5  -2  294.23   25.71
   0  -5  -2  257.96   34.78
   0   5   2  261.14    9.78
   0   5   3  163.95   10.01
   0  -5  -3  155.95    8.39
   0  -5  -3  127.05    5.95
   0   5   3  134.79    5.64
   0   5   5  157.44    9.55
   0  -5  -5  115.43    8.16
   0  -5  -5  120.69    7.72
   0   5   5  111.89    6.66
   0   5   6   10.30    1.90
   0  -5  -6    7.32    1.67
   0   5   6    9.15    2.57
   0  -5  -6    8.49    1.68
   0   5   6    6.16    1.20
   0   5   7  208.87   10.27
   0  -5  -7  172.01   10.07
   0   5   7  152.57   11.35
   0   5   7  203.55   10.94
   0  -5  -7  188.17    9.69
   0   5   7  168.93    8.33
   0   5   8    0.36    1.19
   0   5   8   -0.02    0.86
   0   5   8   -0.28    1.31
   0  -5  -8   -0.59    1.08
   0   5   8    0.42    0.81
   0   5   9   90.74    5.91
   0   5   9   87.91    6.58
   0  -5  -9   82.79    5.81
   0   5   9   67.97    4.22
   0   5  10    4.19    1.44
   0   5  10    4.11    1.78
   0  -5 -10    4.97    1.51
   0   5  11   22.04    2.30
   0  -5 -11   18.74    2.19
   0   5  12    1.40    1.38
   0  -5 -12    1.01    1.15
   0   5  13   22.21    3.72
   0   5  14    2.84    1.63
   0   5  15    5.04    1.72
   0   6 -12   -0.44    1.88
   0  -6  12    1.92    1.90
   0   6 -11    1.45    1.84
   0  -6  11    1.26    1.68
   0   6 -10   37.68    5.90
   0  -6  10   34.92    5.68
   0   6  -9   62.19    7.45
   0  -6   9   50.69    7.71
   0  -6   9   54.28    6.30
   0   6  -8   -0.39    1.41
   0  -6   8    0.00    1.85
   0  -6   8    0.77    1.07
   0   6  -7   57.41    7.84
   0  -6   7   44.13    8.20
   0  -6   7   49.94    6.53
   0   6  -7   50.66    6.42
   0  -6   6   62.85    4.34
   0   6  -6   54.19    3.65
   0  -6   5    9.42    1.47
   0   6  -5    9.05    1.25
   0  -6   4    8.66    2.40
   0  -6   4   13.74    1.63
   0   6  -4   13.81    1.40
   0   6  -3   22.51    2.51
   0  -6   3   17.94    2.03
   0  -6   3   17.45    3.83
   0  -6   3   20.10    4.80
   0  -6   3   21.64    2.04
   0   6  -3   20.22    1.79
   0   6  -2    0.81    0.97
   0  -6   2    0.42    1.06
   0  -6   2    0.67    1.32
   0  -6   2    2.65    2.22
   0  -6   2    0.40    0.85
   0   6  -2    0.51    0.71
   0   6  -1    8.64    1.58
   0  -6   1    6.38    1.38
   0  -6   1    4.87    1.89
   0  -6   1    8.48    2.83
   0  -6   1    7.26    1.23
   0   6   0   18.44    2.57
   0  -6   0   15.85    2.12
   0  -6   0   15.80    3.75
   0  -6   0   16.07    4.20
   0  -6   0   15.79    1.74
   0   6   0   15.96    1.61
   0   6   1   35.29    3.94
   0  -6  -1   25.39    4.82
   0  -6  -1   31.09    5.07
   0  -6  -1   31.61    2.68
   0   6   1   30.60    2.36
   0   6   2  106.92   10.29
   0  -6  -2   80.00   11.44
   0  -6  -2   71.86   11.04
   0   6   2   94.82    5.77
   0   6   3    5.91    1.36
   0  -6  -3    3.82    1.29
   0  -6  -3    4.51    1.65
   0  -6  -3    4.49    1.91
   0  -6  -3    4.14    1.05
   0   6   3    5.81    1.09
   0   6   4    0.28    0.93
   0  -6  -4    1.10    1.14
   0  -6  -4    1.12    1.66
   0  -6  -4    0.92    0.88
   0   6   4    0.12    0.74
   0   6   5    2.52    1.23
   0  -6  -5    1.77    1.11
   0  -6  -5    2.79    1.07
   0   6   5    1.69    0.93
   0   6   6   11.38    1.78
   0  -6  -6    8.31    1.65
   0  -6  -6   12.34    1.78
   0   6   6   10.44    1.37
   0   6   7    8.92    1.66
   0  -6  -7    8.73    1.51
   0   6   7    7.99    1.22
   0   6   8  166.54   15.16
   0   6   8  132.27   12.68
   0   6   8  169.20   15.86
   0  -6  -8  139.70   13.02
   0   6   8  118.24   10.64
   0   6   9  201.35   24.08
   0  -6  -9  194.86   23.54
   0   6   9  132.52   15.82
   0   6  10    4.03    1.50
   0  -6 -10    2.28    1.50
   0   6  11   70.91    6.56
   0  -6 -11   62.75    6.10
   0   6  12    0.90    1.45
   0  -6 -12    0.38    1.25
   0   6  13    3.40    1.62
   0   6  14   14.40    2.23
   0   6  15   13.63    2.53
   0   7 -11   11.56    2.61
   0  -7  11    6.56    2.30
   0   7 -10    0.73    1.56
   0  -7  10    1.91    1.93
   0   7  -9   13.86    2.50
   0  -7   9   10.30    2.33
   0   7  -8    2.07    1.66
   0  -7   8    1.67    1.31
   0   7  -7   22.91    2.62
   0  -7   7   23.58    2.10
   0  -7   6    0.43    1.11
   0  -7   5   31.94    5.52
   0  -7   5   33.78    2.99
   0  -7   4  101.54   18.68
   0  -7   4  112.20   10.75
   0   7  -3   29.46    4.14
   0  -7   3   15.93    4.15
   0  -7   3   22.51    5.23
   0  -7   3   28.99    3.44
   0   7  -3   25.12    2.94
   0   7  -2   -0.56    1.05
   0  -7   2   -0.55    1.35
   0  -7   2    0.10    2.04
   0  -7   2   -0.52    0.82
   0   7  -2    0.43    0.69
   0   7  -1    9.29    1.84
   0  -7   1    7.51    1.51
   0  -7   1    9.87    2.51
   0  -7   1    6.00    2.63
   0  -7   1    8.98    1.39
   0   7  -1    7.25    1.07
   0   7   0   47.89    4.54
   0  -7   0   31.56    2.59
   0  -7   0   30.67    5.93
   0  -7   0   32.45    6.40
   0  -7   0   40.64    2.85
   0   7   1  140.14   16.61
   0  -7  -1  108.91   19.08
   0  -7  -1  113.37   17.42
   0  -7  -1  131.56   12.89
   0   7   1  133.60   12.05
   0   7   2   11.03    2.11
   0  -7  -2    8.58    2.33
   0  -7  -2    9.26    2.63
   0   7   2   11.92    1.60
   0   7   3    9.87    1.85
   0  -7  -3    8.25    1.68
   0  -7  -3    8.33    2.07
   0   7   3    9.01    1.20
   0   7   4    6.87    1.58
   0  -7  -4    4.87    1.31
   0  -7  -4    5.97    1.72
   0  -7  -4    4.60    1.71
   0  -7  -4    7.01    1.31
   0   7   4    5.45    1.10
   0   7   5   26.45    4.47
   0  -7  -5   26.85    3.61
   0  -7  -5   28.66    3.56
   0   7   5   30.78    3.48
   0   7   6    2.15    1.24
   0  -7  -6    2.68    1.14
   0   7   6    1.90    0.88
   0   7   7   77.46    7.83
   0  -7  -7   65.73    6.60
   0   7   7   69.31    6.54
   0   7   8  134.70    9.06
   0  -7  -8  131.75    8.13
   0   7   8  120.96    6.77
   0   7   9   18.98    2.80
   0  -7  -9   17.64    2.69
   0   7  10    3.36    1.47
   0  -7 -10    4.02    1.64
   0   7  11    0.14    1.28
   0  -7 -11    0.05    1.36
   0   7  12   36.64    4.26
   0  -7 -12   32.62    4.03
   0   7  13   -1.08    1.27
   0   7  14    4.18    1.81
   0   8 -11    2.55    2.05
   0  -8  11    4.25    2.34
   0   8 -10   15.10    2.73
   0  -8  10   20.26    3.28
   0   8  -9    1.01    1.48
   0   8  -8    5.07    1.94
   0  -8   8    7.15    1.57
   0  -8   7    6.72    2.75
   0  -8   7    8.46    1.59
   0  -8   6   22.76    4.48
   0  -8   6   27.25    4.23
   0  -8   5   20.59    5.07
   0  -8   5   26.94    3.28
   0   8  -4    8.54    1.72
   0  -8   4    6.59    2.81
   0  -8   4    9.43    1.60
   0   8  -3    6.20    1.57
   0  -8   3    5.03    2.68
   0  -8   3    5.39    1.33
   0   8  -2   16.91    2.07
   0  -8   2   13.78    3.35
   0  -8   2   12.74    3.74
   0  -8   2   17.08    1.77
   0   8  -1    3.19    1.32
   0  -8   1    3.20    1.66
   0  -8   1    2.85    2.15
   0  -8   1    4.75    1.06
   0   8   0  189.58   23.80
   0  -8   0  138.12   28.60
   0  -8   0  201.60   33.63
   0  -8   0  213.96    6.76
   0   8   1   14.53    1.98
   0  -8  -1   13.00    2.58
   0  -8  -1   13.17    3.24
   0  -8  -1   15.34    1.65
   0   8   2    5.84    1.45
   0  -8  -2    4.58    1.74
   0  -8  -2    5.15    2.15
   0   8   3    4.11    1.46
   0  -8  -3    1.88    1.45
   0  -8  -3    2.83    1.80
   0   8   4    6.16    1.38
   0  -8  -4    5.45    1.79
   0  -8  -4    3.76    1.62
   0  -8  -4    6.22    1.27
   0   8   5   35.79    4.56
   0  -8  -5   30.78    3.70
   0   8   6   19.31    2.88
   0  -8  -6   18.49    2.01
   0   8   7   78.64    6.29
   0  -8  -7   73.12    5.43
   0   8   8   14.15    2.21
   0  -8  -8   14.22    2.59
   0   8   9    1.41    1.44
   0  -8  -9    0.53    1.21
   0   8  10   12.50    2.11
   0  -8 -10   11.79    2.02
   0   8  11   10.63    2.06
   0  -8 -11   11.14    2.33
   0   8  12   10.20    2.22
   0  -8 -12   14.10    2.81
   0   8  13    2.77    1.56
   0   8  14    4.12    1.69
   0   9 -10    0.27    1.81
   0   9  -9    0.50    1.74
   0  -9   9   -0.66    2.48
   0   9  -8   22.89    4.77
   0  -9   8   15.96    4.23
   0  -9   8   26.35    4.92
   0  -9   7   12.72    3.78
   0  -9   7   17.83    3.01
   0  -9   6   13.96    3.92
   0  -9   6   18.51    2.76
   0  -9   5    0.54    2.44
   0  -9   5    0.50    1.15
   0   9  -4   10.17    2.13
   0  -9   4    6.38    2.71
   0  -9   4   14.07    1.77
   0   9  -3    0.95    1.18
   0  -9   3    2.49    2.46
   0  -9   3    0.63    1.12
   0   9  -2   12.05    2.02
   0  -9   2   10.73    3.40
   0  -9   2   12.00    1.49
   0   9  -1   27.51    2.94
   0  -9   1   18.41    3.38
   0  -9   1   18.98    4.30
   0  -9   1   23.71    2.33
   0   9   0   44.16    5.01
   0  -9   0   32.81    5.91
   0  -9   0   34.27    7.45
   0  -9   0   52.74    3.89
   0   9   1   18.48    2.13
   0  -9  -1   14.31    2.61
   0  -9  -1   14.64    3.17
   0  -9  -1   17.37    1.76
   0   9   2  162.41   19.74
   0  -9  -2  132.36   20.12
   0  -9  -2  114.87   15.90
   0   9   3   75.14    9.74
   0  -9  -3   56.87    8.76
   0  -9  -3   49.05    6.56
   0   9   4   -0.47    1.09
   0  -9  -4   -0.14    1.23
   0  -9  -4   -0.07    1.21
   0  -9  -4    0.54    1.02
   0   9   5   36.02    3.67
   0  -9  -5   29.80    3.41
   0  -9  -5   38.76    3.87
   0  -9  -5   36.26    3.13
   0   9   6  105.16   14.55
   0  -9  -6  130.84   16.02
   0   9   7  222.85   18.64
   0  -9  -7  232.48   15.69
   0   9   8    9.69    1.85
   0  -9  -8    9.81    1.79
   0   9   9    0.06    1.35
   0  -9  -9    0.00    1.23
   0   9  10   -0.38    1.41
   0  -9 -10   -0.28    1.33
   0   9  11   -0.98    1.45
   0  -9 -11    1.49    1.52
   0   9  12    1.47    1.41
   0  -9 -12    2.65    1.58
   0   9  13    1.83    1.49
   0   9  14    3.72    1.58
   0  10  -9   -0.38    1.78
   0 -10   9    0.32    2.13
   0  10  -8    1.67    1.72
   0 -10   8   -1.15    1.94
   0 -10   7   32.22    7.29
   0 -10   7   34.44    6.34
   0 -10   6   10.04    3.32
   0 -10   6    9.04    1.74
   0 -10   5    0.46    2.25
   0 -10   5    1.32    1.28
   0  10  -4   22.32    3.42
   0 -10   4   24.98    5.11
   0 -10   4   27.79    3.69
   0  10  -3   -1.22    1.23
   0 -10   3   -0.37    2.03
   0 -10   3   -0.21    1.18
   0  10  -2   15.88    2.15
   0 -10   2   17.72    3.92
   0 -10   2   22.01    2.03
   0  10  -1   53.54    5.08
   0 -10   1   47.61    7.47
   0 -10   1   65.40    4.94
   0  10   0   44.40    5.02
   0 -10   0   39.48    5.45
   0 -10   0   30.04    5.67
   0 -10   0   43.91    3.67
   0  10   1   -0.16    1.10
   0 -10  -1    0.02    1.54
   0 -10  -1   -0.07    1.88
   0 -10  -1   -0.37    0.97
   0  10   2   41.69    6.17
   0 -10  -2   31.79    5.37
   0 -10  -2   29.12    5.21
   0 -10  -2   36.70    5.04
   0  10   3    3.53    1.55
   0 -10  -3    0.82    1.46
   0 -10  -3    2.26    1.51
   0  10   4    6.83    1.74
   0 -10  -4    4.02    1.65
   0 -10  -4    4.76    1.59
   0 -10  -4    7.57    1.61
   0  10   5    5.36    1.50
   0 -10  -5    6.96    2.68
   0 -10  -5    4.86    1.25
   0  10   6   20.38    2.78
   0 -10  -6   23.67    2.34
   0  10   7   25.20    3.40
   0 -10  -7   26.07    3.14
   0  10   8   10.72    2.02
   0 -10  -8    9.78    1.77
   0  10   9    3.38    1.73
   0 -10  -9    2.37    1.39
   0  10  10    2.52    1.57
   0 -10 -10    1.51    1.34
   0  10  11    4.29    1.80
   0 -10 -11    4.52    1.62
   0  10  12    0.67    1.41
   0 -10 -12   -0.37    1.37
   0  10  13   19.23    3.16
   0 -11   7   12.22    3.67
   0 -11   7   14.23    2.23
   0 -11   6   12.48    3.90
   0 -11   6   19.68    2.33
   0 -11   5    3.54    2.60
   0 -11   5    8.85    1.75
   0  11  -4   10.04    2.41
   0 -11   4    5.84    3.01
   0 -11   4   15.15    2.80
   0  11  -3    9.34    2.18
   0 -11   3    7.34    3.24
   0 -11   3   10.87    1.68
   0  11  -2   30.07    4.37
   0 -11   2   17.03    4.09
   0 -11   2   29.91    3.85
   0  11  -1   10.92    1.89
   0 -11   1    7.97    3.01
   0 -11   1   11.93    1.60
   0  11   0   74.69    7.89
   0 -11   0   53.93    9.31
   0 -11   0   76.08    6.91
   0  11   1    2.88    1.22
   0 -11  -1    1.95    1.55
   0 -11  -1    0.47    1.84
   0 -11  -1    2.08    1.22
   0  11   2    3.27    1.50
   0 -11  -2    1.59    1.67
   0 -11  -2    1.62    1.03
   0  11   3   -0.18    1.17
   0 -11  -3    0.62    1.34
   0  11   4   11.84    2.16
   0 -11  -4    7.48    1.86
   0 -11  -4   13.71    1.84
   0  11   5   33.29    3.81
   0 -11  -5   34.59    3.73
   0  11   6    2.80    1.62
   0 -11  -6    2.86    1.37
   0  11   7   44.24    5.88
   0 -11  -7   52.71    6.33
   0  11   8   20.67    3.35
   0 -11  -8   21.48    2.95
   0  11   9    1.60    1.49
   0 -11  -9    2.79    1.38
   0  11  10    5.47    1.70
   0 -11 -10    5.72    1.61
   0  11  11    1.81    1.45
   0 -11 -11    1.06    1.40
   0  11  12    2.08    1.72
   0 -11 -12    4.36    1.81
   0 -12   6    0.55    2.64
   0 -12   6   -0.73    1.38
   0 -12   5    1.65    2.97
   0 -12   5    4.10    1.68
   0  12  -4    1.48    1.64
   0 -12   4    0.54    2.74
   0 -12   4    3.29    1.56
   0 -12   3   25.30    6.42
   0 -12   3   41.61    7.43
   0  12  -2    1.37    1.43
   0 -12   2    0.48    2.41
   0 -12   2    0.07    1.27
   0  12  -1   26.98    4.36
   0 -12   1   27.79    5.59
   0 -12   1   27.99    4.22
   0  12   0   20.99    3.04
   0 -12   0   13.01    3.28
   0 -12   0   22.60    2.86
   0  12   1   19.93    2.99
   0 -12  -1   11.88    3.05
   0 -12  -1   20.54    2.60
   0  12   2    1.68    1.27
   0 -12  -2    2.63    1.66
   0 -12  -2    1.89    1.09
   0  12   3    2.16    1.62
   0 -12  -3    1.18    1.34
   0  12   4   16.67    2.61
   0 -12  -4   17.24    2.49
   0  12   5    2.19    1.77
   0 -12  -5    2.40    1.38
   0  12   6   43.35    5.20
   0 -12  -6   50.58    5.45
   0  12   7    1.00    1.79
   0 -12  -7    0.56    1.22
   0  12   8   25.22    5.00
   0 -12  -8   22.63    4.42
   0  12   9   12.49    2.29
   0 -12  -9   13.92    2.19
   0  12  10    4.62    1.74
   0 -12 -10    3.87    1.51
   0  12  11   35.75    4.90
   0 -12 -11   42.89    5.46
   0  13  -4    0.05    1.67
   0 -13   4   -0.24    2.78
   0 -13   4    1.08    1.43
   0  13  -3   -0.93    1.38
   0 -13   3    1.58    2.50
   0 -13   3    1.51    1.55
   0  13  -2    2.38    1.46
   0 -13   2    3.80    2.38
   0 -13   2    2.61    1.37
   0  13  -1    0.64    1.42
   0 -13   1    1.32    2.16
   0 -13   1    1.21    1.38
   0  13   0    2.61    1.61
   0 -13   0    1.32    1.99
   0 -13   0    2.19    1.22
   0  13   1   19.58    3.95
   0 -13  -1   17.52    4.17
   0 -13  -1   24.98    4.67
   0  13   2    0.21    1.25
   0 -13  -2   -0.08    1.27
   0  13   3    5.22    1.64
   0  13   4    0.15    1.46
   0 -13  -4    1.07    1.13
   0  13   5    5.67    1.91
   0 -13  -5    4.96    1.58
   0  13   6   -0.01    1.73
   0 -13  -6    2.02    1.31
   0  13   7   35.40    3.69
   0 -13  -7   36.68    3.10
   0  13   8   21.72    3.11
   0 -13  -8   25.30    3.09
   0  13   9    6.23    2.14
   0 -13  -9    7.37    1.89
   0  13  10    4.49    1.88
   0 -13 -10    2.87    1.51
   0  14  -2   28.13    4.30
   0 -14   2   24.55    4.93
   0  14  -1    1.53    1.49
   0 -14   1    1.65    2.19
   0 -14   1    3.24    1.51
   0  14   0    1.07    1.59
   0 -14   0    1.82    1.37
   0  14   1    0.17    1.47
   0 -14  -1    0.32    1.30
   0  14   2    0.04    1.41
   0 -14  -2   -0.75    1.10
   0  14   3    0.48    1.36
   0  14   4    1.75    1.47
   0 -14  -4    1.90    1.21
   0  14   5    0.72    1.47
   0 -14  -5    1.57    1.23
   0  14   6   18.12    2.77
   0 -14  -6   19.48    2.52
   0  14   7   -0.59    1.52
   0 -14  -7    0.04    1.52
   0  14   8    7.99    2.24
  -1  14   5    0.40    1.46
   1 -14  -5    0.15    1.60
  -1  14   4    2.75    1.76
   1 -14  -4    2.68    1.67
  -1  14   3   -0.24    1.34
  -1  14   2    3.40    1.41
   1 -14  -2    2.41    1.45
  -1  14   1    0.03    1.27
   1 -14  -1   -1.20    1.22
  -1  14   0   -0.48    1.39
   1 -14   0    0.97    1.47
  -1  13   8   -0.09    1.82
   1 -13  -8    1.47    1.69
  -1  13   7    0.67    1.78
   1 -13  -7    3.01    1.72
  -1  13   6    0.41    1.46
   1 -13  -6   -0.76    1.41
  -1  13   5   -0.12    1.53
   1 -13  -5    0.27    1.31
  -1  13   4    2.30    1.53
   1 -13  -4    3.14    1.55
  -1  13   3    0.24    1.40
  -1  13   2   39.82    3.48
   1 -13  -2   48.31    3.59
  -1  13   1   -0.89    1.35
   1 -13  -1    0.05    1.40
  -1  13   0    2.53    1.58
   1 -13   0    6.13    1.50
  -1  13  -1    1.43    1.40
   1 -13   1   -0.11    1.47
   1 -13   1    1.06    1.33
  -1  13  -2    2.67    1.54
   1 -13   2    2.43    2.16
   1 -13   2    4.68    1.75
  -1  13  -3   13.37    2.91
   1 -13   3   14.95    3.55
   1 -13   3   15.66    2.66
  -1  12  10    2.48    1.80
   1 -12 -10    1.41    1.67
  -1  12   9    8.80    2.27
   1 -12  -9   11.21    2.24
  -1  12   8   11.31    2.40
   1 -12  -8   13.57    2.34
  -1  12   7    4.31    1.90
   1 -12  -7    2.55    1.38
  -1  12   6   13.14    2.26
   1 -12  -6   12.34    1.99
  -1  12   5    5.08    1.55
   1 -12  -5    6.40    1.77
  -1  12   4   -1.94    1.37
   1 -12  -4    0.14    1.38
  -1  12   3    5.32    1.67
  -1  12   2    2.51    1.49
   1 -12  -2    3.40    1.36
  -1  12   1   -0.87    1.39
   1 -12  -1    0.37    1.38
   1 -12  -1    0.63    1.15
  -1  12   0    1.32    1.48
   1 -12   0    1.86    1.65
   1 -12   0    2.55    1.30
  -1  12  -1   -0.23    1.23
   1 -12   1   -1.30    1.51
   1 -12   1   -0.47    1.17
  -1  12  -2   -0.56    1.56
   1 -12   2    0.07    1.60
   1 -12   2    1.70    1.51
  -1  12  -3    2.16    1.72
   1 -12   3   -0.24    1.85
   1 -12   3    2.93    1.65
  -1  12  -4    3.58    1.97
   1 -12   4    3.00    2.24
   1 -12   4    2.27    1.51
  -1  12  -5    7.37    2.05
   1 -12   5    4.95    3.09
   1 -12   5   10.43    2.18
  -1  11  11    1.56    1.52
   1 -11 -11    1.96    1.62
  -1  11  10    2.94    1.61
   1 -11 -10    4.13    1.88
  -1  11   9   24.78    3.00
   1 -11  -9   30.68    3.15
  -1  11   8   27.34    5.44
   1 -11  -8   33.15    6.17
  -1  11   7   23.23    4.03
   1 -11  -7   23.19    3.89
  -1  11   6    2.16    1.75
   1 -11  -6    2.21    1.50
  -1  11   5    0.01    1.44
   1 -11  -5    0.08    1.28
  -1  11   4    5.88    1.54
   1 -11  -4    5.62    1.55
  -1  11   3    0.42    1.38
   1 -11  -3    0.72    1.49
  -1  11   2   15.74    2.72
   1 -11  -2   10.33    2.23
   1 -11  -2   22.87    2.82
  -1  11   1   30.28    4.33
   1 -11  -1   17.43    3.55
   1 -11  -1   30.21    4.01
  -1  11   0   11.95    2.21
   1 -11   0    7.77    2.15
   1 -11   0   11.91    2.06
  -1  11  -1   53.85    7.16
   1 -11   1   43.78    7.32
   1 -11   1   60.02    7.12
  -1  11  -2   37.68    4.78
   1 -11   2   28.04    5.20
   1 -11   2   47.88    5.16
  -1  11  -3    0.22    1.54
   1 -11   3   -0.05    1.84
   1 -11   3    2.69    1.53
  -1  11  -4   64.29    9.70
   1 -11   4   60.90   10.41
   1 -11   4   84.69   11.43
  -1  11  -5   11.82    2.49
   1 -11   5   14.50    4.10
   1 -11   5   12.98    2.07
  -1  11  -6    1.31    2.03
   1 -11   6    0.48    2.48
   1 -11   6    1.40    1.50
  -1  11  -7    0.45    1.85
   1 -11   7    2.71    2.78
   1 -11   7   -0.71    1.31
  -1  10  12    4.49    1.63
   1 -10 -12    5.66    1.84
  -1  10  11    2.11    1.63
   1 -10 -11    3.81    1.85
  -1  10  10    4.47    1.74
   1 -10 -10    3.58    1.75
  -1  10   9    0.00    1.43
   1 -10  -9   -0.64    1.50
  -1  10   8    0.41    1.48
   1 -10  -8    0.07    1.43
  -1  10   7    9.78    1.95
   1 -10  -7   12.47    2.40
  -1  10   6   55.96    6.56
   1 -10  -6   67.63    6.49
  -1  10   5   19.96    2.36
   1 -10  -5   24.51    3.05
  -1  10   4    5.06    1.66
   1 -10  -4    5.83    2.47
   1 -10  -4    5.89    1.49
  -1  10   3    6.74    1.75
   1 -10  -3    4.95    1.84
   1 -10  -3    6.57    1.85
  -1  10   2  111.56   15.84
   1 -10  -2   81.57   13.63
   1 -10  -2   66.30   10.98
   1 -10  -2  131.18   17.80
  -1  10   1   21.44    2.28
   1 -10  -1   13.87    3.03
   1 -10  -1   13.94    2.80
   1 -10  -1   21.04    2.21
  -1  10   0    1.15    1.29
   1 -10   0    0.67    1.57
   1 -10   0    1.30    1.60
   1 -10   0    1.56    1.14
  -1  10  -1    0.85    1.34
   1 -10   1    1.71    1.67
   1 -10   1    1.42    1.13
  -1  10  -2    1.13    1.20
   1 -10   2    0.33    1.75
   1 -10   2    1.16    1.05
  -1  10  -3    8.86    2.12
   1 -10   3    7.50    2.54
   1 -10   3   11.03    1.86
  -1  10  -4   62.60    8.66
   1 -10   4   59.65   10.49
   1 -10   4   78.89    9.03
  -1  10  -5    3.69    1.65
   1 -10   5    5.62    2.71
   1 -10   5    4.47    1.59
  -1  10  -6   17.82    4.08
   1 -10   6   14.26    4.29
   1 -10   6   15.26    3.17
  -1  10  -7    3.46    1.87
   1 -10   7    1.96    2.23
   1 -10   7    4.60    1.61
  -1  10  -8   -0.14    1.67
   1 -10   8    1.36    2.68
  -1   9  13    7.46    1.80
  -1   9  12    5.96    1.89
   1  -9 -12    5.59    1.83
  -1   9  11    5.01    1.57
   1  -9 -11    6.42    1.87
  -1   9  10    2.97    1.60
   1  -9 -10    4.56    1.85
  -1   9   9   12.70    2.23
   1  -9  -9   13.09    2.38
  -1   9   8    9.44    1.80
   1  -9  -8   11.38    2.00
  -1   9   7   37.18    5.91
   1  -9  -7   43.08    6.45
  -1   9   6    6.07    1.65
   1  -9  -6    8.63    1.89
  -1   9   5    3.95    1.55
   1  -9  -5    4.49    1.32
  -1   9   4   89.32   12.27
   1  -9  -4   87.58   11.40
   1  -9  -4  101.05   12.65
  -1   9   3   17.42    3.07
   1  -9  -3   13.43    2.38
   1  -9  -3   15.33    3.17
  -1   9   2   78.40    6.37
   1  -9  -2   63.03    6.90
   1  -9  -2   54.20    6.08
   1  -9  -2   73.70    5.76
  -1   9   1    1.34    1.37
   1  -9  -1    2.65    1.64
   1  -9  -1    0.90    1.35
   1  -9  -1    3.15    1.29
  -1   9   0   38.76    6.24
   1  -9   0   33.39    7.31
   1  -9   0   25.21    5.15
   1  -9   0   47.47    6.27
  -1   9  -1    4.71    1.43
   1  -9   1    3.35    1.75
   1  -9   1    3.69    1.87
   1  -9   1    4.68    1.35
  -1   9  -2    0.85    1.39
   1  -9   2    0.80    1.83
   1  -9   2    1.26    1.19
  -1   9  -3    0.20    1.37
   1  -9   3    0.58    1.82
   1  -9   3    0.39    1.01
  -1   9  -4   19.48    2.51
   1  -9   4   24.91    4.10
   1  -9   4   25.01    3.93
  -1   9  -5   15.20    2.52
   1  -9   5   10.00    2.88
   1  -9   5   16.18    2.08
  -1   9  -6    1.06    1.51
   1  -9   6    1.24    2.19
   1  -9   6    0.58    1.27
  -1   9  -7   10.48    2.72
   1  -9   7   13.09    3.78
   1  -9   7   12.56    2.35
  -1   9  -8    2.13    1.90
   1  -9   8    2.27    2.49
  -1   9  -9    2.54    1.73
   1  -9   9    4.22    2.57
   1  -9  10   12.33    3.28
  -1   8  13    0.45    1.29
  -1   8  12   -1.15    1.32
   1  -8 -12   -0.31    1.42
  -1   8  11    0.85    1.50
   1  -8 -11    1.10    1.65
  -1   8  10   13.35    2.43
   1  -8 -10   14.71    2.49
  -1   8   9    6.04    1.77
   1  -8  -9    6.66    1.83
  -1   8   8  254.80   36.32
   1  -8  -8  311.80   10.07
  -1   8   7  210.15   19.26
   1  -8  -7  220.44   14.70
  -1   8   6   33.46    4.88
   1  -8  -6   37.33    5.23
  -1   8   5   21.29    2.91
   1  -8  -5   24.78    2.71
  -1   8   4   60.45    7.18
   1  -8  -4   62.53    6.70
  -1   8   3    2.54    1.43
   1  -8  -3    1.62    1.41
   1  -8  -3    2.54    1.57
  -1   8   2   20.84    2.98
   1  -8  -2   14.03    2.83
   1  -8  -2   18.00    2.58
   1  -8  -2   21.80    2.77
  -1   8   1   36.50    4.91
   1  -8  -1   23.08    4.73
   1  -8  -1   25.65    4.28
   1  -8  -1   31.41    3.89
  -1   8   0   13.67    2.13
   1  -8   0   10.70    2.42
   1  -8   0    8.99    2.23
   1  -8   0   13.98    1.73
  -1   8  -1    0.06    1.12
   1  -8   1    0.41    1.44
   1  -8   1   -0.14    1.39
   1  -8   1    1.00    0.98
  -1   8  -2   96.20   10.79
   1  -8   2   70.60   10.18
   1  -8   2   66.71    9.01
   1  -8   2  103.31    6.65
  -1   8  -3    1.40    1.45
   1  -8   3    1.33    2.00
   1  -8   3    2.39    1.19
  -1   8  -4    1.85    1.63
   1  -8   4    1.46    2.21
   1  -8   4    1.75    1.16
  -1   8  -5   31.18    5.28
   1  -8   5   29.61    5.92
   1  -8   5   31.99    4.84
  -1   8  -6   25.02    3.71
   1  -8   6   15.06    3.34
   1  -8   6   24.08    2.90
  -1   8  -7    1.73    1.41
   1  -8   7   -0.37    2.20
   1  -8   7    1.11    1.13
  -1   8  -8    1.06    1.82
   1  -8   8    4.46    2.44
   1  -8   8    2.00    1.21
  -1   8  -9    5.27    1.87
   1  -8   9    5.45    2.68
  -1   7  14    0.38    1.39
  -1   7  13   -0.77    1.32
  -1   7  12    0.21    1.39
   1  -7 -12   -0.45    1.44
  -1   7  11   20.47    2.82
   1  -7 -11   20.41    3.10
  -1   7  10   17.96    2.91
   1  -7 -10   22.36    3.45
  -1   7   9   45.15    6.67
   1  -7  -9   49.64    7.25
  -1   7   8   57.52    5.28
   1  -7  -8   61.16    5.04
  -1   7   7    2.84    1.36
   1  -7  -7    1.29    1.41
  -1   7   6   12.29    1.86
   1  -7  -6   12.08    1.85
  -1   7   5   57.26    6.87
   1  -7  -5   45.91    5.69
   1  -7  -5   55.38    6.24
  -1   7   4  147.76   17.35
   1  -7  -4  125.34   13.87
   1  -7  -4  137.36   14.36
  -1   7   3    0.35    1.17
   1  -7  -3    0.65    1.02
   1  -7  -3    0.77    1.31
   1  -7  -3    0.53    1.34
  -1   7   2  278.77   23.75
   1  -7  -2  243.46   28.27
   1  -7  -2  201.90   38.03
   1  -7  -2  198.30   25.53
   1  -7  -2  284.79   10.06
  -1   7   1    7.20    1.61
   1  -7  -1    5.47    1.33
   1  -7  -1    4.33    1.73
   1  -7  -1    4.95    1.64
   1  -7  -1    6.81    1.35
  -1   7   0   21.87    3.36
   1  -7   0   15.72    2.08
   1  -7   0   15.97    2.73
   1  -7   0   12.67    2.48
   1  -7   0   20.47    2.77
  -1   7  -1    0.62    1.07
   1  -7   1    0.18    1.46
   1  -7   1   -0.26    1.59
   1  -7   1    0.85    0.81
  -1   7  -2    0.11    1.15
   1  -7   2   -0.04    1.30
   1  -7   2   -0.55    1.50
   1  -7   2   -0.81    0.87
  -1   7  -3    2.37    1.33
   1  -7   3    0.73    1.48
   1  -7   3    0.40    1.73
   1  -7   3    1.68    1.01
  -1   7  -4    1.83    1.36
   1  -7   4    1.19    1.84
   1  -7   4    2.04    0.96
  -1   7  -5    7.55    1.91
   1  -7   5    6.15    2.42
   1  -7   5    7.16    1.42
  -1   7  -6   23.34    3.59
   1  -7   6   25.30    4.81
   1  -7   6   21.88    2.86
  -1   7  -7   77.67   11.74
   1  -7   7   52.07   10.30
   1  -7   7   71.55    9.89
  -1   7  -8   81.08   10.02
   1  -7   8   78.07    8.87
  -1   7  -9   14.74    2.66
   1  -7  10    0.93    2.05
   1  -7  11    4.45    2.16
  -1   6  14   15.57    2.58
  -1   6  13    8.77    1.83
  -1   6  12   58.62    8.00
   1  -6 -12   66.62    9.19
  -1   6  11    6.02    1.51
   1  -6 -11    5.31    1.74
  -1   6  10  144.99   12.24
   1  -6 -10  135.84   11.85
  -1   6   9   38.09    3.55
   1  -6  -9   32.96    3.40
  -1   6   8   37.10    5.17
   1  -6  -8   36.63    5.21
  -1   6   8   30.66    4.15
  -1   6   7   90.71    8.88
   1  -6  -7   71.03    7.55
   1  -6  -7   80.84    8.09
  -1   6   7   72.54    6.93
  -1   6   6    0.26    1.05
   1  -6  -6    0.14    1.12
   1  -6  -6   -0.02    1.13
  -1   6   6    0.40    0.87
  -1   6   5    2.63    1.16
   1  -6  -5    1.50    1.23
   1  -6  -5    1.81    1.19
  -1   6   5    2.64    1.00
  -1   6   4    2.99    1.30
   1  -6  -4    2.79    1.30
   1  -6  -4    2.41    1.10
  -1   6   4    3.85    1.05
  -1   6   3   86.36    9.89
   1  -6  -3   77.66    8.66
   1  -6  -3   94.08   10.39
  -1   6   3   97.58    9.15
  -1   6   2   67.24    8.27
   1  -6  -2   60.85    6.98
   1  -6  -2   41.38    8.04
   1  -6  -2   51.38    6.90
   1  -6  -2   53.26    5.65
  -1   6   2   70.06    6.76
  -1   6   1   62.76    7.57
   1  -6  -1   51.57    5.84
   1  -6  -1   44.34    5.70
   1  -6  -1   45.28    6.40
   1  -6  -1   54.05    5.78
  -1   6   1   58.71    5.73
  -1   6   0    9.70    2.07
   1  -6   0    8.35    1.72
   1  -6   0    5.41    1.97
  -1   6   0    6.72    2.32
   1  -6   0    7.55    1.50
  -1   6  -1    0.32    0.97
   1  -6   1   -1.19    0.90
   1  -6   1   -0.03    1.27
  -1   6  -1   -0.38    1.71
   1  -6   1   -0.49    0.81
  -1   6  -1   -0.29    0.68
  -1   6  -2  198.37   18.14
   1  -6   2  139.05   11.50
   1  -6   2  142.63   22.01
  -1   6  -2  190.11   26.77
   1  -6   2  193.96   10.86
  -1   6  -2  176.63    8.67
  -1   6  -3    0.60    1.09
   1  -6   3   -0.55    1.53
  -1   6  -3   -0.87    1.58
   1  -6   3    0.14    0.87
  -1   6  -3    0.09    0.67
  -1   6  -4    7.65    1.74
   1  -6   4    6.63    2.21
   1  -6   4    9.84    1.50
  -1   6  -4    9.70    1.21
  -1   6  -5   92.78   11.17
   1  -6   5   89.86   15.27
   1  -6   5   84.12    8.19
  -1   6  -5   89.01    8.21
  -1   6  -6   33.56    3.68
   1  -6   6   31.71    5.43
   1  -6   6   31.36    2.81
  -1   6  -6   33.05    2.53
  -1   6  -7    0.22    1.49
   1  -6   7    0.28    0.91
  -1   6  -7    0.12    0.74
  -1   6  -8    3.99    1.47
   1  -6   8    2.55    1.06
  -1   6  -8    3.16    0.93
  -1   6  -9    2.99    1.77
   1  -6   9    2.03    2.14
   1  -6  10   -0.04    1.95
   1  -6  11    8.24    2.41
  -1   6 -12    0.23    1.69
   1  -6  12    1.99    2.07
  -1   5  14    0.14    1.51
  -1   5  13   44.78    7.95
  -1   5  12    5.60    1.53
   1  -5 -12    4.20    1.46
  -1   5  11   19.74    3.00
   1  -5 -11   20.15    3.12
  -1   5  10   18.11    2.06
   1  -5 -10   17.24    2.30
  -1   5   9    0.14    1.27
   1  -5  -9   -0.49    1.24
  -1   5   9    0.00    0.83
  -1   5   8    9.10    2.07
  -1   5   8    8.06    1.64
  -1   5   8    7.85    1.91
   1  -5  -8    8.04    1.79
  -1   5   8    6.42    1.26
  -1   5   7  194.54   18.92
   1  -5  -7  152.49   15.86
  -1   5   7  187.61   18.74
  -1   5   7  170.08   17.16
   1  -5  -7  166.69   16.48
  -1   5   7  149.71   14.77
  -1   5   6  249.47    7.67
   1  -5  -6  194.94   20.04
   1  -5  -6  208.81   20.92
  -1   5   6  205.22   20.34
  -1   5   5    6.04    1.44
   1  -5  -5    6.46    1.57
   1  -5  -5    6.54    1.45
  -1   5   5    4.84    1.18
  -1   5   4  135.01   13.05
   1  -5  -4  117.82   12.48
   1  -5  -4  119.57   11.51
  -1   5   4  129.65   12.13
  -1   5   3   26.13    2.97
   1  -5  -3   26.01    2.73
   1  -5  -3   28.85    3.59
  -1   5   3   27.16    2.46
  -1   5   2   61.72    6.41
   1  -5  -2   59.10    5.25
   1  -5  -2   69.32    6.08
  -1   5   2   37.99    5.38
  -1   5   2   64.26    4.45
  -1   5   1  152.38   11.15
   1  -5  -1  146.29    8.45
   1  -5  -1  123.55   10.00
  -1   5   1  102.33   12.33
   1  -5  -1  140.24    8.18
  -1   5   1  135.89    5.69
  -1   5   0   27.70    3.41
   1  -5   0   23.67    2.56
   1  -5   0   20.76    3.25
  -1   5   0   20.32    3.73
   1  -5   0   26.94    2.34
  -1   5  -1   70.83    7.65
   1  -5   1   67.97    5.87
   1  -5   1   50.94    7.46
  -1   5  -1   70.06   10.20
   1  -5   1   75.16    5.63
  -1   5  -1   68.49    4.51
  -1   5  -2   51.54    5.54
   1  -5   2   38.67    4.11
   1  -5   2   43.09    6.88
  -1   5  -2   53.71    8.76
   1  -5   2   46.05    3.89
  -1   5  -2   48.73    3.41
  -1   5  -3   29.77    4.27
   1  -5   3   25.68    4.53
  -1   5  -3   24.42    4.84
   1  -5   3   25.44    3.01
  -1   5  -3   28.82    3.08
  -1   5  -4  139.04    9.78
   1  -5   4  111.03   16.46
  -1   5  -4   99.37   16.83
   1  -5   4  110.17    7.25
  -1   5  -4  118.74    6.10
  -1   5  -5   48.19    5.94
   1  -5   5   35.36    4.22
  -1   5  -5   40.33    4.37
  -1   5  -6   43.31    5.12
   1  -5   6   32.27    3.59
  -1   5  -6   36.69    3.75
  -1   5  -7   30.59    3.27
   1  -5   7   23.72    2.35
  -1   5  -7   26.66    2.23
  -1   5  -8    3.58    1.61
   1  -5   8    2.11    1.94
   1  -5   8    3.66    1.11
  -1   5  -8    4.48    0.97
   1  -5   9   11.68    2.58
   1  -5  10    5.72    2.18
   1  -5  11    2.59    1.82
  -1   5 -12    9.98    2.36
   1  -5  12   10.64    2.50
  -1   5 -13   31.56    4.63
   1  -5  13   23.07    3.68
  -1   4  14    0.71    1.32
  -1   4  13    6.16    1.71
  -1   4  12    6.71    1.59
  -1   4  11  108.12    9.35
  -1   4  10   36.85    3.41
   1  -4 -10   35.73    3.47
  -1   4   9  338.91    7.71
  -1   4   9  340.01   10.15
   1  -4  -9  314.73   37.29
  -1   4   9  275.67   32.61
  -1   4   8  170.18   15.80
  -1   4   8  142.49   13.02
  -1   4   8  152.81   14.22
  -1   4   8  130.99   12.74
   1  -4  -8  131.76   12.27
  -1   4   8  119.89   11.02
  -1   4   7   22.85    3.47
  -1   4   7   16.46    2.01
  -1   4   7   21.92    3.32
  -1   4   7   18.69    3.11
   1  -4  -7   18.91    2.86
  -1   4   7   15.29    1.75
  -1   4   6   38.89    3.17
   1  -4  -6   33.42    3.14
  -1   4   6   44.77    4.04
  -1   4   6   36.26    3.62
   1  -4  -6   34.79    3.17
  -1   4   6   28.21    2.51
  -1   4   5   12.66    2.10
   1  -4  -5   10.34    2.03
  -1   4   5   13.34    2.82
  -1   4   5   12.36    2.86
   1  -4  -5   10.17    1.89
  -1   4   5    9.21    1.70
   1  -4  -4   70.47    5.44
  -1   4   4   64.55    4.68
  -1   4   3   69.34    4.01
   1  -4  -3   62.78    4.14
   1  -4  -3   79.63    5.61
  -1   4   3   61.94    4.59
  -1   4   3   63.87    3.66
  -1   4   2   18.59    2.09
   1  -4  -2   18.29    2.14
   1  -4  -2   19.21    3.70
  -1   4   2   18.46    3.52
  -1   4   2   18.28    1.88
  -1   4   1   55.79    4.06
   1  -4  -1   47.70    3.84
   1  -4  -1   48.17    4.45
  -1   4   1   39.43    5.19
   1  -4  -1   50.34    3.61
  -1   4   1   45.77    2.84
  -1   4   0  178.80   13.04
   1  -4   0  161.41   10.79
   1  -4   0  163.70   14.65
  -1   4   0  133.41   17.71
   1  -4   0  177.54    9.73
   1  -4   1  156.94   12.42
   1  -4   1  191.13   19.13
  -1   4  -1  205.94   26.41
   1  -4   1  182.52    8.22
  -1   4  -2  143.35   12.73
   1  -4   2  103.26   13.75
  -1   4  -2  102.84   15.05
   1  -4   2  122.81    7.60
  -1   4  -2  121.76    5.38
  -1   4  -3    5.04    1.40
   1  -4   3    5.42    2.02
  -1   4  -3    6.41    2.51
   1  -4   3    4.21    1.07
  -1   4  -3    4.67    0.94
  -1   4  -4   25.39    3.10
  -1   4  -4   24.24    3.99
   1  -4   4   22.74    2.30
  -1   4  -4   23.59    2.07
  -1   4  -5  359.72   22.53
   1  -4   5  263.79   17.83
  -1   4  -5  317.16   40.87
   1  -4   5  267.09   13.83
  -1   4  -5  319.00    7.33
  -1   4  -6   47.25    5.99
   1  -4   6   46.59    7.27
   1  -4   6   38.13    4.38
  -1   4  -6   46.31    4.92
  -1   4  -7    0.67    1.22
   1  -4   7    1.21    1.75
   1  -4   7    0.12    0.87
  -1   4  -7    0.31    0.67
  -1   4  -8    3.36    1.52
   1  -4   8    4.88    2.00
   1  -4   8    3.27    1.03
  -1   4  -8    4.26    1.03
   1  -4   9    2.28    1.79
   1  -4   9    2.00    0.86
  -1   4  -9    3.13    1.02
   1  -4  10    2.19    1.64
   1  -4  11    7.66    2.20
  -1   4 -12  106.04   18.56
   1  -4  12   79.76   14.38
  -1   4 -13    7.32    2.33
   1  -4  13    8.71    2.35
  -1   3  14    0.58    1.50
  -1   3  13   29.43    5.47
  -1   3  12   28.76    3.63
  -1   3  11   -0.09    1.28
  -1   3  11    0.80    1.51
  -1   3  10    1.66    1.33
  -1   3  10    0.93    1.43
  -1   3  10   -0.02    0.94
  -1   3   9    0.73    1.14
  -1   3   9   -0.78    1.11
  -1   3   9    0.52    1.48
   1  -3  -9   -0.55    1.08
  -1   3   9    0.19    0.89
  -1   3   8    0.18    1.42
  -1   3   8    0.12    1.06
  -1   3   8    0.10    1.32
  -1   3   8   -0.18    1.31
   1  -3  -8   -0.24    1.05
  -1   3   8    0.03    0.93
  -1   3   7   39.87    3.72
  -1   3   7   32.30    2.88
  -1   3   7   38.33    3.51
  -1   3   7   35.09    3.60
   1  -3  -7   29.17    2.86
  -1   3   7   27.78    2.59
  -1   3   6    2.27    1.55
  -1   3   6    2.23    1.18
  -1   3   6    4.00    1.61
  -1   3   6    3.23    1.66
   1  -3  -6    2.07    1.28
  -1   3   6    2.51    1.19
  -1   3   5    2.41    1.19
   1  -3  -5    1.30    1.28
  -1   3   5    1.73    1.55
  -1   3   5    1.43    1.46
   1  -3  -5    1.64    1.30
  -1   3   5    1.09    1.07
  -1   3   4   23.53    2.30
   1  -3  -4   21.22    2.40
  -1   3   4   22.18    3.44
   1  -3  -4   19.40    2.31
  -1   3   4   17.89    2.02
  -1   3   3  257.21    9.23
   1  -3  -3  217.04    9.19
  -1   3   3  270.97   11.36
  -1   3   2  224.13   24.98
   1  -3  -2  192.17   22.10
   1  -3  -2  211.12   25.11
  -1   3   2  226.78   26.49
  -1   3   2  172.96   19.61
  -1   3   1  339.24   37.59
   1  -3  -1  334.29   39.05
   1  -3  -1  417.81   46.78
  -1   3   1  302.39   34.17
   1  -3  -1  336.10   38.10
  -1   3   1  310.97   35.08
  -1   3   0  175.96   20.76
   1  -3   0  163.82   21.27
   1  -3   0  167.34   20.24
  -1   3   0  192.68   25.99
   1  -3   0  183.09   21.04
  -1   3   0  156.98   18.32
  -1   3  -1    8.88    2.03
   1  -3   1    6.94    1.65
   1  -3   1    7.59    2.12
  -1   3  -1    7.05    2.44
   1  -3   1    7.78    1.73
  -1   3  -2   33.78    5.22
  -1   3  -2   38.93    7.09
   1  -3   2   33.36    5.09
  -1   3  -2   31.16    4.60
  -1   3  -3   39.05    4.18
  -1   3  -3   52.46    5.33
   1  -3   3   38.76    2.88
  -1   3  -3   34.03    2.27
  -1   3  -4  184.69   13.40
  -1   3  -4  196.91   15.04
   1  -3   4  172.19    8.97
  -1   3  -4  181.19    6.69
  -1   3  -5  109.82   10.15
   1  -3   5  108.02    7.68
   1  -3   5  132.88   10.28
   1  -3   5   91.32    6.82
  -1   3  -5  107.97    6.30
  -1   3  -6   43.88    3.64
   1  -3   6   33.83    2.88
   1  -3   6   45.66    5.11
  -1   3  -6   46.84    5.62
   1  -3   6   33.93    2.87
  -1   3  -6   38.55    2.60
  -1   3  -7   34.78    4.36
   1  -3   7   34.09    4.90
   1  -3   7   22.79    2.89
  -1   3  -7   24.29    2.90
  -1   3  -8   14.19    2.10
   1  -3   8   19.91    3.35
   1  -3   8   12.46    1.49
  -1   3  -8   14.88    1.61
   1  -3   9    6.74    2.28
   1  -3   9    4.76    1.03
  -1   3  -9    7.63    1.42
   1  -3  10  124.01   17.26
   1  -3  11   46.51    6.41
  -1   3 -12   38.34    6.10
   1  -3  12   33.59    5.27
  -1   3 -13    3.25    1.82
   1  -3  13    2.16    1.91
  -1   3 -14    0.07    2.01
   1  -3  14   -0.17    1.62
  -1   2  14    1.33    1.50
  -1   2  13   98.72   16.84
  -1   2  12   22.88    3.22
  -1   2  12   25.33    3.73
  -1   2  11    0.62    1.38
  -1   2  11    0.23    1.59
  -1   2  10  116.18    7.97
  -1   2  10  146.69   10.03
  -1   2  10  109.97    7.50
  -1   2   9   32.97    3.14
  -1   2   9   41.43    3.41
  -1   2   9   39.65    3.81
  -1   2   9   30.60    2.90
  -1   2   9   26.71    2.62
  -1   2   8   11.50    2.06
  -1   2   8    9.12    1.70
  -1   2   8   11.49    1.74
  -1   2   8   12.28    2.44
  -1   2   8    8.84    1.64
  -1   2   7  139.01    7.81
  -1   2   7  121.95    6.81
  -1   2   7  156.43    8.63
   1  -2  -7  113.90    6.46
  -1   2   7  118.53    6.72
  -1   2   6  205.10   18.84
  -1   2   6  182.15   16.66
  -1   2   6  277.91   25.00
  -1   2   6  233.80   21.25
   1  -2  -6  171.57   15.76
  -1   2   6  187.94   17.16
  -1   2   5    2.50    1.41
  -1   2   5    1.07    0.98
  -1   2   5    1.17    1.49
  -1   2   5    1.76    1.37
   1  -2  -5    1.43    1.10
  -1   2   5    0.91    1.17
  -1   2   4    9.11    1.85
  -1   2   4    7.83    1.54
   1  -2  -4   14.37    2.05
  -1   2   4    9.43    2.07
   1  -2  -4    8.04    1.69
  -1   2   4    6.41    1.54
  -1   2   3   25.69    4.11
   1  -2  -3   25.25    4.16
   1  -2  -3   36.89    5.73
  -1   2   3   26.17    4.56
   1  -2  -3   21.39    3.64
  -1   2   3   21.32    3.64
  -1   2   2    5.24    1.47
   1  -2  -2    4.28    1.52
   1  -2  -2    7.00    3.24
  -1   2   2    5.48    3.40
  -1   2   2    3.98    1.69
  -1   2   1   30.23    4.71
   1  -2  -1   25.53    4.11
   1  -2  -1   30.97    5.49
  -1   2   1   32.88    5.69
   1  -2  -1   26.46    4.33
  -1   2   1   23.23    3.87
  -1   2   0   37.48    5.64
   1  -2   0   28.15    4.64
   1  -2   0   42.68    6.82
  -1   2   0   38.92    6.24
   1  -2   0   33.47    5.13
  -1   2   0   29.89    4.63
  -1   2  -1  125.01    7.30
  -1   2  -1  155.26   18.06
   1  -2   1  117.09    5.74
  -1   2  -2  104.81   14.93
  -1   2  -2  166.44   19.41
   1  -2   2  101.87   14.25
  -1   2  -2   89.36   12.36
  -1   2  -3  508.80   58.50
   1  -2   3  475.18   59.85
  -1   2  -3  411.69   45.62
   1  -2   3  400.14   45.47
  -1   2  -3  364.06   40.57
  -1   2  -4  115.58    7.80
   1  -2   4  128.14    9.93
  -1   2  -4  121.52    8.39
   1  -2   4  101.13    4.95
  -1   2  -4  102.00    4.42
  -1   2  -5  157.51    7.60
   1  -2   5  127.88    7.52
   1  -2   5  159.26   11.30
  -1   2  -5  125.55    4.89
  -1   2  -6    4.15    1.53
   1  -2   6    2.63    1.25
   1  -2   6    4.38    1.92
   1  -2   6    2.74    0.97
  -1   2  -6    3.24    0.89
  -1   2  -7    1.69    1.18
   1  -2   7    1.19    1.14
   1  -2   7    2.65    1.63
   1  -2   7    1.40    0.82
  -1   2  -7    1.47    0.79
  -1   2  -8   27.51    3.82
   1  -2   8   34.08    4.57
   1  -2   8   20.49    2.64
  -1   2  -8   26.79    3.36
   1  -2   9    8.48    2.28
   1  -2   9    4.05    0.98
  -1   2  -9    7.02    1.36
   1  -2  10   35.84    3.92
   1  -2  11  195.23    7.54
  -1   2 -12   -1.04    1.71
   1  -2  12   -0.92    1.79
  -1   2 -13    8.97    2.20
   1  -2  13   11.31    2.31
  -1   2 -14   11.93    2.58
   1  -2  14   13.29    2.50
  -1   1  14   31.09    3.58
  -1   1  13    0.77    1.66
  -1   1  13    1.16    2.03
  -1   1  12   49.89    5.51
  -1   1  12   51.45    5.86
  -1   1  11   35.47    4.03
  -1   1  11   39.22    4.46
  -1   1  10  117.29    8.12
  -1   1  10  126.12    8.82
  -1   1  10   99.62    6.90
  -1   1   9    5.57    1.61
  -1   1   9    7.52    1.47
  -1   1   9    7.91    1.97
  -1   1   9    5.93    1.56
  -1   1   9    4.38    1.33
  -1   1   8    0.41    1.27
  -1   1   8   -0.49    1.13
  -1   1   8    0.39    1.06
  -1   1   8    0.17    1.47
  -1   1   8    0.15    1.19
  -1   1   8    0.78    1.10
  -1   1   7  106.19    6.30
  -1   1   7   97.65    5.92
  -1   1   7  120.56    7.02
  -1   1   7   96.07    5.88
  -1   1   6    7.33    1.67
  -1   1   6    6.53    1.58
  -1   1   6    9.50    1.87
  -1   1   6    9.14    1.88
  -1   1   6    7.57    1.76
  -1   1   5   24.70    2.58
  -1   1   5   23.08    2.40
  -1   1   5   34.49    3.06
  -1   1   5   29.08    2.79
   1  -1  -5   20.71    2.23
  -1   1   5   24.98    2.63
  -1   1   4   64.93    9.44
  -1   1   4   59.12    3.81
  -1   1   4   85.24   12.12
   1  -1  -4   51.74    7.63
  -1   1   4   55.81    8.18
  -1   1   3  217.52   24.59
  -1   1   3  202.92   22.85
   1  -1  -3  316.91   35.23
  -1   1   3  244.16   27.47
   1  -1  -3  168.16   19.06
  -1   1   3  189.80   21.49
  -1   1   2  330.74   36.71
   1  -1  -2  301.53   33.87
   1  -1  -2  387.44   42.95
  -1   1   2  338.77   37.80
  -1   1   2  283.67   31.68
  -1   1   1    1.32    1.67
   1  -1  -1    1.69    1.55
   1  -1  -1    1.49    1.95
  -1   1   1    1.34    2.12
   1  -1  -1    1.00    1.44
  -1   1   1    2.05    1.68
  -1   1   0  275.96   31.42
   1  -1   0  245.73   30.48
  -1   1   0  397.77   44.46
   1  -1   0  308.50   34.30
  -1   1   0  272.49   30.46
  -1   1  -1   60.61    8.81
  -1   1  -1   76.66   11.24
   1  -1   1   60.70    8.80
  -1   1  -2  225.03   26.36
   1  -1   2  219.93   24.90
  -1   1  -2  267.03   29.99
   1  -1   2  196.20   22.24
  -1   1  -2  159.01   18.07
  -1   1  -3   14.73    3.02
   1  -1   3   18.25    3.53
  -1   1  -3   19.97    3.78
   1  -1   3   12.78    2.47
  -1   1  -3   11.79    2.09
  -1   1  -4   -0.23    1.41
   1  -1   4   -0.33    1.05
   1  -1   4    0.18    1.54
  -1   1  -4    0.98    1.79
   1  -1   4    0.00    0.92
  -1   1  -4    0.22    0.68
  -1   1  -5  138.57    6.88
   1  -1   5  168.47    8.03
   1  -1   5  147.50    6.18
  -1   1  -5  136.69    5.17
  -1   1  -6    0.42    1.31
   1  -1   6   -0.48    1.07
   1  -1   6   -0.23    1.50
   1  -1   6    0.28    0.79
  -1   1  -6    0.19    0.72
  -1   1  -7   -0.85    1.17
   1  -1   7   -0.24    1.19
   1  -1   7    0.83    1.56
  -1   1  -7    0.90    1.61
   1  -1   7   -0.11    0.72
  -1   1  -7   -0.01    0.85
  -1   1  -8  133.19   14.38
   1  -1   8  226.28   22.58
  -1   1  -8  232.66   23.61
   1  -1   8  140.25   13.97
   1  -1   9   83.94    8.45
   1  -1   9   85.37    8.48
   1  -1   9   76.06    7.27
   1  -1  10    9.14    2.02
  -1   1 -11    0.77    1.62
   1  -1  11    0.93    1.74
  -1   1 -12    3.58    1.88
   1  -1  12    4.65    1.94
  -1   1 -13    9.31    2.04
   1  -1  13   13.00    3.02
  -1   1 -14   11.03    2.33
   1  -1  14   12.92    2.42
  -1   1 -15    1.83    1.69
   1  -1  15   -0.48    1.95
  -1   0  14    5.13    1.91
  -1   0  13   -0.12    1.66
  -1   0  13   -0.69    1.87
  -1   0  12    9.18    2.02
  -1   0  12    8.77    2.34
  -1   0  11   -0.80    1.35
   1   0 -10   19.14    3.02
  -1   0  10   19.00    3.10
  -1   0  10   16.17    2.33
   1   0  -9    0.67    1.43
  -1   0   9    1.21    1.66
  -1   0   9    0.80    1.23
  -1   0   9    1.33    1.07
   1   0  -8  111.05   11.43
  -1   0   8  110.45   11.17
  -1   0   8  136.00   13.37
  -1   0   8  131.98   13.35
  -1   0   8  106.96   10.96
  -1   0   8  101.26   10.30
   1   0  -7   26.32    2.84
  -1   0   7   26.93    2.67
  -1   0   7   35.98    2.94
  -1   0   7   32.45    3.18
  -1   0   7   26.58    2.74
  -1   0   7   25.00    2.50
   1   0  -6   92.49    9.17
  -1   0   6   87.43    8.56
  -1   0   6  117.16   11.03
  -1   0   6   98.28    9.61
  -1   0   6   85.42    8.46
  -1   0   6   78.66    7.81
   1   0  -5    7.81    1.76
  -1   0   5    7.90    1.62
  -1   0   5   11.80    1.97
  -1   0   5    7.13    1.63
  -1   0   5    6.20    1.36
   1   0  -4    0.78    1.31
  -1   0   4    0.04    1.19
   1   0  -4    0.03    1.22
  -1   0   4   -1.02    1.24
  -1   0   4    0.63    1.18
  -1   0   4   -0.36    0.92
   1   0  -3  339.81   37.79
  -1   0   3  312.54   34.73
   1   0  -3  517.47   56.92
  -1   0   3  440.06   48.60
  -1   0   3  305.63   34.00
  -1   0   3  257.48   28.64
   1   0  -2  748.95   82.14
  -1   0   2  647.31   71.07
  -1   0   2  848.34   92.87
  -1   0   2  636.00   69.78
   1   0  -1 5664.81  169.86
  -1   0   1 4150.22  480.12
  -1   0   1 5865.28  158.77
   1   0  -1 5409.78  145.90
  -1   0   1 5366.37  145.08
  -1   0   0  495.71   55.96
   1   0   0  384.95   44.31
  -1   0   0  621.59   68.49
   1   0   0  614.27   67.41
  -1   0   0  581.37   63.84
  -1   0  -1   77.73   11.47
   1   0   1   89.87   13.24
  -1   0  -1   91.47   13.46
   1   0   1   77.87   11.12
  -1   0  -2   11.90    2.71
   1   0   2   14.56    3.50
  -1   0  -2   14.43    3.63
   1   0   2   13.17    3.77
  -1   0  -2   11.39    3.18
  -1   0  -3  168.56   19.27
   1   0   3  204.03   23.23
  -1   0  -3  194.01   22.10
   1   0   3  201.40   22.77
  -1   0  -3  144.80   16.58
  -1   0  -4    0.34    1.50
   1   0   4    0.18    1.35
   1   0   4   -0.59    1.44
   1   0   4   -0.26    1.34
  -1   0  -5  299.56   11.64
   1   0   5  292.36   11.51
  -1   0  -5  308.28   11.84
  -1   0  -6   21.83    2.56
   1   0   6   18.52    2.39
   1   0   6   25.97    3.28
  -1   0  -6   25.38    2.97
  -1   0  -7  174.59   16.51
   1   0   7  161.17   15.22
   1   0   7  194.53   18.24
  -1   0  -7  225.59   20.59
   1   0   8   68.10    4.62
   1   0   8   88.20    6.05
  -1   0  -8  103.60    6.37
   1   0   9   90.80    9.76
   1   0  10  153.68    9.46
  -1   0 -11   63.15    5.59
   1   0  11  100.89    7.57
  -1   0 -12   38.48    4.56
   1   0  12   50.15    5.39
  -1   0 -13   -1.96    1.44
   1   0  13    0.42    1.86
   1   0  14    1.52    1.90
   1   0  14   -0.21    1.95
   1   0  15    3.07    2.04
   1   0  15    3.03    2.14
  -1  -1  14    0.74    1.53
  -1  -1  14    0.36    1.84
   1   1 -13    1.10    1.56
  -1  -1  13   -0.08    1.90
   1   1 -12    2.92    1.67
  -1  -1  12    7.06    2.28
   1   1 -11   -1.27    1.51
  -1  -1  11   -1.81    1.66
   1   1 -10    0.99    1.52
  -1  -1  10    1.54    1.88
  -1  -1  10    0.79    0.96
   1   1  -9   35.19    3.35
  -1  -1   9   39.85    3.80
  -1  -1   9   34.41    2.94
   1   1  -8   96.45    9.36
  -1  -1   8   87.37    8.38
  -1  -1   8  108.45   10.38
  -1  -1   8   81.18    7.93
  -1  -1   8   87.35    8.31
   1   1  -7   12.54    1.99
  -1  -1   7   10.90    1.73
  -1  -1   7   14.95    1.83
  -1  -1   7   14.30    2.27
  -1  -1   7   10.64    1.80
  -1  -1   7   11.28    1.64
   1   1  -6  125.96   11.96
  -1  -1   6  118.42   11.16
  -1  -1   6  156.88   14.39
  -1  -1   6  149.98   14.03
  -1  -1   6  114.20   10.86
  -1  -1   6  114.06   10.76
   1   1  -5  525.79   27.78
  -1  -1   5  506.33   26.85
  -1  -1   5  703.84   61.32
  -1  -1   5  484.72   25.69
  -1  -1   5  450.37   23.96
   1   1  -4 1176.70   34.47
  -1  -1   4 1178.72   35.06
  -1  -1   4 1164.57   34.10
   1   1  -3   80.58   11.40
  -1  -1   3   82.15   11.57
  -1  -1   3   72.76   10.33
   1   1  -3   69.60    9.86
   1   1  -2 4063.67  440.87
  -1  -1   2 4025.80  437.17
  -1  -1   2 5567.80  150.32
  -1  -1   2 3764.88  409.02
   1   1  -1  996.11  108.53
  -1  -1   1 1023.46  111.61
   1   1  -1 1242.49  135.53
  -1  -1   1 1264.03  137.95
  -1  -1   1 1005.65  109.88
   1   1  -1  894.20   97.79
  -1  -1   0  685.42   74.93
   1   1   0  852.84   93.44
  -1  -1   0  778.17   85.35
  -1  -1   0  665.48   72.90
   1   1   0  686.34   75.24
  -1  -1  -1  316.74   35.23
   1   1   1  328.22   36.87
  -1  -1  -1  314.29   35.28
   1   1   1  269.91   30.03
   1   1   2   56.51    8.78
  -1  -1  -2   44.70    6.84
   1   1   2   39.02    6.18
   1   1   3   98.58   14.13
  -1  -1  -3   81.78   11.41
  -1  -1  -4   18.49    3.47
   1   1   4   19.13    3.61
   1   1   4   21.66    4.05
  -1  -1  -4   18.88    3.65
  -1  -1  -4   13.57    2.20
  -1  -1  -5  152.35    7.18
   1   1   5  171.31    7.79
   1   1   5  161.06    7.79
  -1  -1  -5  190.70    8.26
  -1  -1  -6   53.26    4.52
   1   1   6   72.31    4.49
   1   1   6   71.37    4.87
  -1  -1  -6   79.51    4.81
  -1  -1  -7    1.71    1.47
   1   1   7    2.57    1.48
   1   1   7    3.50    1.75
  -1  -1  -7    3.54    1.64
   1   1   8    0.67    1.32
   1   1   8    0.00    1.40
  -1  -1  -8    0.80    1.61
   1   1   9   42.39    5.36
  -1  -1  -9   50.54    5.89
   1   1  10    3.49    2.00
   1   1  11    8.15    2.31
   1   1  12   50.30    5.20
   1   1  12   50.31    5.46
   1   1  13   48.81    5.58
   1   1  13   44.98    5.31
   1   1  14   -1.04    1.78
   1   1  14   -0.83    1.95
   1   1  15   24.58    3.39
   1   1  15   18.94    3.03
   1   2 -14    3.17    1.79
  -1  -2  14    3.61    2.09
   1   2 -13    0.05    1.82
  -1  -2  13   -1.54    1.65
   1   2 -12    1.13    1.62
  -1  -2  12    1.55    1.92
   1   2 -11   11.85    2.28
  -1  -2  11    7.60    2.31
   1   2 -10    8.78    2.06
  -1  -2  10   11.04    2.31
  -1  -2  10    7.98    1.40
   1   2  -9   15.22    2.88
  -1  -2   9   13.86    2.46
  -1  -2   9   11.81    1.61
   1   2  -8  110.18   10.47
  -1  -2   8  124.76   11.90
  -1  -2   8   91.03    8.80
  -1  -2   8   88.49    8.33
   1   2  -7  122.75   12.57
  -1  -2   7  118.61   12.04
  -1  -2   7  155.45   15.39
  -1  -2   7  121.31   12.49
  -1  -2   7  114.85   11.78
  -1  -2   7  110.87   11.23
   1   2  -6   21.09    2.45
  -1  -2   6   18.84    2.18
  -1  -2   6   22.03    2.35
  -1  -2   6   21.55    2.61
  -1  -2   6   17.37    1.99
   1   2  -6   16.11    1.92
   1   2  -5   42.26    3.62
  -1  -2   5   40.37    3.40
  -1  -2   5   53.19    4.12
  -1  -2   5   54.53    4.56
  -1  -2   5   37.36    3.18
   1   2  -5   36.04    3.13
   1   2  -4    0.97    1.10
  -1  -2   4    1.43    1.00
  -1  -2   4    0.71    1.39
  -1  -2   4    0.95    0.93
   1   2  -4    0.72    1.01
   1   2  -3   85.05   11.90
  -1  -2   3   73.54   10.39
  -1  -2   3   72.20   10.17
   1   2  -3   72.90   10.28
   1   2  -2 2053.63  223.11
  -1  -2   2 1820.95  200.79
  -1  -2   2 2632.17  286.91
  -1  -2   2 1696.92  184.72
   1   2  -1 3232.91  350.74
  -1  -2   1 2740.31  302.41
   1   2  -1 4517.52  491.52
  -1  -2   1 4118.74  448.59
  -1  -2   1 2761.20  301.55
   1   2  -1 2345.39  255.69
  -1  -2   0   69.09    9.82
   1   2   0  101.40   14.31
  -1  -2   0   82.60   11.89
  -1  -2   0   67.04    9.46
   1   2   0   56.62    8.07
  -1  -2  -1  137.99   15.66
   1   2   1  170.68   19.64
   1   2   1  116.85    5.35
  -1  -2  -2  460.37   50.68
   1   2   2  509.85   56.52
   1   2   2  363.15   40.06
   1   2   3  287.72   32.00
  -1  -2  -3  335.19   37.25
   1   2   3  364.59   40.84
  -1  -2  -3  361.84   40.75
  -1  -2  -3  240.14   26.44
   1   2   3  251.72   27.90
   1   2   4  103.97   14.69
   1   2   4   92.08   12.92
   1   2   4   92.74   13.35
  -1  -2  -4   91.41   13.12
  -1  -2  -4   69.81    9.70
   1   2   4   66.77    9.47
   1   2   5 1347.24   68.76
  -1  -2  -5 1362.41   70.07
  -1  -2  -5 1042.59   30.15
   1   2   6   82.09    5.03
   1   2   6   77.14    4.51
   1   2   6   77.34    5.10
  -1  -2  -6   81.84    4.91
  -1  -2  -6   62.66    3.94
   1   2   6   57.47    3.48
   1   2   7   77.29    5.69
   1   2   7   75.57    5.48
   1   2   7   72.17    5.76
  -1  -2  -7   77.16    5.79
   1   2   8    1.92    1.47
   1   2   8    1.21    1.35
   1   2   8    2.06    1.60
  -1  -2  -8    2.05    1.51
   1   2   9   21.88    3.13
   1   2   9   22.88    3.62
  -1  -2  -9   25.59    3.63
   1   2  10  301.00   16.18
   1   2  10  316.60   17.38
  -1  -2 -10  340.32    9.00
   1   2  11   39.85    3.93
   1   2  11   40.02    4.21
   1   2  12   22.98    3.26
   1   2  12   19.89    2.86
   1   2  13   55.21    5.98
   1   2  13   49.37    5.80
   1   2  14   56.69   10.08
   1   2  14   46.43    8.52
   1   2  15   13.72    2.63
   1   3 -13    3.67    1.87
  -1  -3  13    3.52    2.20
   1   3 -12    4.85    1.83
  -1  -3  12    4.52    2.05
   1   3 -11    6.60    2.12
  -1  -3  11    6.56    2.02
   1   3 -10  168.93   14.46
  -1  -3  10  184.30    8.27
   1   3  -9    0.85    1.54
  -1  -3   9    0.39    1.85
  -1  -3   9   -0.54    0.86
   1   3  -8   12.96    2.11
  -1  -3   8   13.76    2.48
  -1  -3   8    9.41    1.46
   1   3  -8   10.66    1.59
   1   3  -7  195.19   19.07
  -1  -3   7  156.09   15.53
  -1  -3   7  198.01   20.28
  -1  -3   7  149.22   14.76
   1   3  -7  162.10   15.85
   1   3  -6    2.86    1.33
  -1  -3   6    1.54    1.05
  -1  -3   6    2.31    1.30
  -1  -3   6    1.91    1.61
  -1  -3   6    1.31    0.91
   1   3  -6    0.91    0.96
   1   3  -5  302.17   26.91
  -1  -3   5  257.43   23.33
  -1  -3   5  393.72   35.44
  -1  -3   5  285.86   29.67
  -1  -3   5  253.22   22.88
   1   3  -5  250.52   22.33
   1   3  -4  121.60    7.52
  -1  -3   4  108.35    7.21
   1   3  -4  108.92   13.68
  -1  -3   4  133.02    8.49
  -1  -3   4  104.58    6.63
   1   3  -4  104.72    6.52
  -1  -3   3  695.72   24.54
   1   3  -2   59.18    8.47
  -1  -3   2   49.58    7.30
   1   3  -2  103.48   14.52
  -1  -3   2   64.31    9.57
  -1  -3   2   43.86    6.32
   1   3  -1 2022.12  219.63
  -1  -3   1 1746.95  199.67
   1   3  -1 2872.81  384.22
  -1  -3   1 1549.55  169.64
  -1  -3   0  429.97   49.57
   1   3   0  720.50   82.77
  -1  -3   0  384.40   42.49
   1   3   0  348.21   38.38
  -1  -3  -1 2274.98  255.60
   1   3   1 2982.59  360.14
   1   3   1 1983.76  217.11
  -1  -3  -2    5.91    1.67
   1   3   2    7.27    2.47
  -1  -3  -2    5.91    2.21
   1   3   2    3.98    1.23
   1   3   3   29.78    4.71
  -1  -3  -3   24.12    4.05
   1   3   3   35.72    5.93
  -1  -3  -3   34.24    5.84
  -1  -3  -3   22.02    3.32
   1   3   3   24.39    3.73
   1   3   4  305.73   34.14
  -1  -3  -4  292.25   34.34
   1   3   4  327.37   36.74
  -1  -3  -4  343.19   38.60
  -1  -3  -4  235.08   26.01
   1   3   4  233.84   26.04
   1   3   5   -0.46    1.07
  -1  -3  -5   -0.85    1.12
   1   3   5   -0.46    1.48
  -1  -3  -5   -0.59    1.36
  -1  -3  -5    0.09    0.73
   1   3   5   -0.09    0.61
   1   3   6    1.90    1.53
   1   3   6    2.89    1.27
   1   3   6    3.52    1.73
  -1  -3  -6    2.31    1.59
  -1  -3  -6    1.78    0.98
   1   3   6    1.80    0.80
   1   3   7  254.89   23.12
   1   3   7  210.08   19.36
   1   3   7  217.27   20.16
  -1  -3  -7  231.97   21.62
  -1  -3  -7  200.06   18.29
   1   3   7  176.43   15.82
   1   3   8   88.08    5.82
   1   3   8   84.89    5.35
   1   3   8   90.09    6.12
  -1  -3  -8   95.61    6.22
  -1  -3  -8   77.69    5.07
   1   3   8   69.88    4.20
   1   3   9  134.87   13.56
   1   3   9  133.28   13.77
  -1  -3  -9  142.79   14.52
   1   3   9   93.18    9.44
   1   3   9  106.43   10.85
   1   3  10    0.33    1.32
   1   3  10   -0.32    1.75
  -1  -3 -10   -0.03    1.46
   1   3  11   27.80    2.78
   1   3  11   30.06    3.67
   1   3  12   91.92    8.36
   1   3  12   92.19    8.71
   1   3  13   48.79    5.48
   1   3  13   47.14    5.65
   1   3  14    0.24    1.82
   1   3  15    0.38    1.64
   1   4 -13    4.00    2.09
  -1  -4  13    7.86    2.63
   1   4 -12   11.88    2.33
  -1  -4  12   14.54    2.65
   1   4 -11   64.59    9.05
  -1  -4  11   50.90    7.64
   1   4 -10    1.83    1.69
  -1  -4  10   -0.05    1.67
   1   4  -9   29.25    4.64
  -1  -4   9   24.83    2.91
  -1  -4   9   25.35    3.84
   1   4  -9   21.84    2.20
   1   4  -8  221.50   26.51
  -1  -4   8  216.68   27.80
  -1  -4   8  180.34   21.76
   1   4  -8  192.63   22.99
   1   4  -7    6.29    1.60
  -1  -4   7    5.89    2.03
  -1  -4   7    5.30    1.19
   1   4  -7    4.68    1.28
   1   4  -6   17.35    2.62
  -1  -4   6   12.11    2.00
  -1  -4   6   14.07    2.83
  -1  -4   6   14.45    2.08
   1   4  -6   14.76    2.19
   1   4  -5    2.21    1.20
  -1  -4   5    1.98    1.03
  -1  -4   5    1.77    1.40
  -1  -4   5    2.17    1.75
  -1  -4   5    2.16    0.91
   1   4  -5    1.99    1.07
   1   4  -4  559.62   24.96
  -1  -4   4  454.49   41.79
  -1  -4   4  549.09   60.25
  -1  -4   4  430.44   38.86
   1   4  -4  412.11   36.27
   1   4  -3    9.28    1.62
  -1  -4   3    6.33    1.35
   1   4  -3    8.38    2.35
  -1  -4   3   10.41    2.16
  -1  -4   3    6.64    1.19
   1   4  -3    6.61    1.28
   1   4  -2    1.85    1.07
  -1  -4   2    1.02    1.15
   1   4  -2    2.23    1.56
  -1  -4   2    0.94    0.74
   1   4  -2    1.17    0.83
   1   4  -1  362.51   39.92
  -1  -4   1  303.47   36.47
   1   4  -1  303.86   70.23
  -1  -4   1  272.63   30.49
  -1  -4   0   87.17   12.76
   1   4   0   98.97   20.06
  -1  -4   0   81.76   12.13
  -1  -4   0   83.66   11.59
   1   4   0   74.60   10.35
  -1  -4  -1  944.91  108.90
   1   4   1 1012.37  178.28
  -1  -4  -1 1056.82  128.79
   1   4   1  860.71   95.08
  -1  -4  -2  298.03   36.04
   1   4   2  406.77   54.60
  -1  -4  -2  319.59   37.35
   1   4   2  301.77   33.39
   1   4   3  227.08   25.36
  -1  -4  -3  217.76   25.77
   1   4   3  272.11   31.65
  -1  -4  -3  222.85   27.93
  -1  -4  -3  207.04   23.11
   1   4   3  211.88   23.64
   1   4   4   22.42    2.62
  -1  -4  -4   23.03    2.42
   1   4   4   31.93    3.41
  -1  -4  -4   28.29    3.44
  -1  -4  -4   21.48    1.79
   1   4   4   21.98    1.79
   1   4   5  466.29   15.86
  -1  -4  -5  527.34   25.48
  -1  -4  -5  594.95   23.00
  -1  -4  -5  485.30   15.88
   1   4   5  456.44   14.50
   1   4   6   17.27    2.17
  -1  -4  -6   12.32    2.09
   1   4   6   14.60    2.48
  -1  -4  -6   14.08    2.37
  -1  -4  -6   13.09    1.63
   1   4   6   12.26    1.45
   1   4   7   20.09    3.06
   1   4   7   24.94    3.17
   1   4   7   21.60    3.35
  -1  -4  -7   22.73    3.27
  -1  -4  -7   20.16    2.64
   1   4   7   16.99    2.07
   1   4   8   37.48    4.46
   1   4   8   38.91    4.99
  -1  -4  -8   40.64    5.07
  -1  -4  -8   35.13    4.36
   1   4   8   29.01    3.32
   1   4   9   85.63    8.90
   1   4   9   94.41   10.17
  -1  -4  -9  102.46   10.97
  -1  -4  -9   85.42    8.96
   1   4   9   73.35    7.39
   1   4  10   33.86    3.19
   1   4  10   34.49    3.80
  -1  -4 -10   40.93    3.84
  -1  -4 -10   30.37    2.94
   1   4  11   -0.49    1.37
   1   4  11    1.47    1.76
  -1  -4 -11    0.67    1.39
   1   4  12    1.06    1.62
   1   4  12    1.23    1.79
   1   4  13    1.81    1.47
   1   4  14    8.34    1.95
   1   4  15   42.28    4.35
   1   5 -12   28.01    3.55
  -1  -5  12   20.98    3.29
   1   5 -11   18.50    4.08
  -1  -5  11   18.97    4.26
   1   5 -10   22.56    3.26
  -1  -5  10   17.49    3.37
   1   5  -9    1.60    1.60
  -1  -5   9    2.19    2.08
  -1  -5   9    1.86    1.14
   1   5  -8    1.61    1.34
  -1  -5   8    1.88    2.10
  -1  -5   8    2.10    1.04
   1   5  -7  111.47   13.92
  -1  -5   7   99.80   14.08
  -1  -5   7   93.02   11.54
   1   5  -7   98.21   12.02
   1   5  -6   12.83    2.03
  -1  -5   6    6.54    2.22
  -1  -5   6   11.37    1.49
   1   5  -6   10.93    1.49
   1   5  -5  119.11   12.88
  -1  -5   5   95.94   10.32
  -1  -5   5  115.15   15.99
  -1  -5   5  104.09   10.58
   1   5  -5   98.92   10.00
   1   5  -4   42.40    3.41
  -1  -5   4   31.09    2.80
  -1  -5   4   23.90    4.37
  -1  -5   4   36.03    2.76
   1   5  -4   29.98    2.35
   1   5  -3  115.92   11.46
  -1  -5   3   86.87    9.32
   1   5  -3  120.37   18.91
  -1  -5   3   94.53    8.90
   1   5  -3   88.85    8.31
   1   5  -2  412.87   28.32
  -1  -5   2  334.47   22.00
   1   5  -2  370.79   71.73
  -1  -5   2  392.61   46.85
  -1  -5   2  361.13   20.58
   1   5  -2  348.78   18.91
  -1  -5   1  446.79   23.92
   1   5  -1  446.00  106.06
  -1  -5   1  497.86   40.79
  -1  -5   1  457.27   17.06
  -1  -5   0   22.25    2.39
   1   5   0   18.49    4.32
  -1  -5   0   24.87    3.42
  -1  -5   0   20.16    1.66
   1   5   0   20.70    1.73
  -1  -5  -1   22.83    2.59
   1   5   1   32.12    5.37
  -1  -5  -1   23.33    3.32
  -1  -5  -1   21.49    1.68
   1   5   1   24.71    1.88
  -1  -5  -2  451.63   28.80
   1   5   2  423.38   69.85
  -1  -5  -2  489.38   38.15
   1   5   2  432.53   14.99
   1   5   3   14.62    2.09
  -1  -5  -3   12.19    2.09
   1   5   3   15.93    2.87
  -1  -5  -3   16.56    2.62
  -1  -5  -3   14.33    1.41
   1   5   3   14.08    1.39
   1   5   4  364.63   27.84
  -1  -5  -4  311.35   18.06
   1   5   4  366.71   19.80
  -1  -5  -4  394.98   17.89
  -1  -5  -4  345.39   12.60
   1   5   4  320.20   10.67
   1   5   5    0.30    1.11
  -1  -5  -5    0.60    1.07
   1   5   5   -0.70    1.50
  -1  -5  -5    0.38    1.49
  -1  -5  -5   -0.19    0.64
   1   5   5    0.18    0.70
   1   5   6  223.17   21.05
  -1  -5  -6  141.76   15.47
   1   5   6  243.33   22.34
  -1  -5  -6  208.87   20.34
  -1  -5  -6  181.39   16.63
   1   5   6  175.41   15.70
   1   5   7  366.25    9.08
   1   5   7  367.77    9.79
  -1  -5  -7  271.57   17.62
  -1  -5  -7  292.20   14.69
   1   5   8   54.00    6.06
   1   5   8   46.81    5.74
  -1  -5  -8   39.30    5.17
  -1  -5  -8   44.51    5.13
   1   5   8   37.61    4.10
   1   5   9    4.34    1.53
   1   5   9    4.18    1.73
  -1  -5  -9    4.02    1.81
  -1  -5  -9    4.40    1.43
   1   5   9    3.41    0.84
   1   5  10    3.24    1.53
   1   5  10    3.92    1.84
  -1  -5 -10    4.66    1.82
  -1  -5 -10    4.83    1.54
   1   5  11    3.25    1.59
   1   5  11    1.95    1.82
  -1  -5 -11    3.00    1.56
  -1  -5 -11    2.44    1.21
   1   5  12  101.98    9.01
   1   5  13    8.88    2.01
   1   5  14    6.28    1.78
   1   5  15    1.02    1.47
   1   6 -12    3.06    2.22
  -1  -6  12    1.33    2.15
   1   6 -11   55.98    4.60
  -1  -6  11   38.74    4.03
   1   6 -10   98.07   13.46
  -1  -6  10  107.16    6.36
   1   6  -9   46.42    5.94
  -1  -6   9   35.42    5.71
  -1  -6   9   46.07    5.49
   1   6  -8   22.31    3.01
  -1  -6   8   28.14    4.07
  -1  -6   8   19.84    1.99
   1   6  -7   27.11    3.73
  -1  -6   7   18.55    3.96
  -1  -6   7   26.32    3.21
   1   6  -6    2.21    1.38
  -1  -6   6    0.89    1.68
  -1  -6   6    1.31    1.07
   1   6  -5   25.70    3.32
  -1  -6   5   24.91    2.89
   1   6  -5   21.38    2.56
   1   6  -4    0.65    1.15
  -1  -6   4    0.68    0.91
   1   6  -4    0.58    0.84
   1   6  -3   25.76    2.71
  -1  -6   3   16.24    2.21
  -1  -6   3   21.50    3.25
  -1  -6   3   22.53    1.99
   1   6  -3   22.39    1.97
   1   6  -2   19.59    2.63
  -1  -6   2   14.02    2.19
   1   6  -2   12.76    4.19
  -1  -6   2   17.09    3.27
  -1  -6   2   14.84    1.94
   1   6  -2   12.71    1.74
  -1  -6   1  132.94    9.87
   1   6  -1  131.19   35.39
  -1  -6   1  135.18   15.09
  -1  -6   1  143.74    8.82
  -1  -6   0   60.49    5.39
   1   6   0   74.51   16.81
  -1  -6   0   56.07    8.35
  -1  -6   0   65.99    4.51
   1   6   0   64.28    4.17
  -1  -6  -1    7.94    1.51
   1   6   1    7.86    2.74
  -1  -6  -1    8.66    2.30
  -1  -6  -1    7.83    1.19
   1   6   1    8.42    1.21
   1   6   2    2.70    1.11
  -1  -6  -2    3.37    1.23
   1   6   2    1.43    1.48
  -1  -6  -2    1.84    1.66
   1   6   2    2.34    0.85
   1   6   3   51.47    6.13
  -1  -6  -3   47.51    4.90
   1   6   3   51.36    9.89
  -1  -6  -3   54.42    5.72
  -1  -6  -3   52.69    3.75
   1   6   3   52.84    3.52
   1   6   4   87.63    6.86
  -1  -6  -4   73.86    5.92
   1   6   4   57.23    7.89
  -1  -6  -4   71.96    6.64
  -1  -6  -4   71.20    4.72
   1   6   4   70.76    4.51
   1   6   5   23.90    3.30
  -1  -6  -5   21.76    2.99
   1   6   5   22.75    4.08
  -1  -6  -5   21.09    3.45
  -1  -6  -5   24.18    2.80
   1   6   5   23.16    2.59
   1   6   6   51.03    4.49
   1   6   6   51.71    5.08
  -1  -6  -6   47.06    4.54
  -1  -6  -6   47.01    3.29
   1   6   6   43.50    2.76
   1   6   7    1.62    1.32
   1   6   7    1.42    1.44
  -1  -6  -7    1.35    1.32
  -1  -6  -7    1.89    0.92
   1   6   7    1.23    0.69
   1   6   8  113.36   11.59
   1   6   8  118.89   12.36
  -1  -6  -8   75.96    9.53
  -1  -6  -8  103.80   10.62
   1   6   8   84.56    8.42
   1   6   9    1.52    1.43
   1   6   9   -0.01    1.32
  -1  -6  -9   -0.09    1.32
  -1  -6  -9   -0.06    1.08
   1   6   9    0.67    0.68
   1   6  10    6.83    1.60
   1   6  10    5.46    1.85
  -1  -6 -10    4.92    1.68
  -1  -6 -10    4.32    1.46
   1   6  11   50.77    7.30
  -1  -6 -11   48.87    7.14
   1   6  12   20.11    3.05
   1   6  13    3.19    1.60
   1   6  14    1.28    1.63
   1   6  15    2.51    1.78
   1   7 -11    0.83    1.74
  -1  -7  11   -0.50    2.19
   1   7 -10    0.99    1.69
  -1  -7  10    1.39    2.36
   1   7  -9   -0.30    1.60
  -1  -7   9    1.15    2.16
  -1  -7   9    1.29    1.25
   1   7  -8   78.79    9.55
  -1  -7   8   64.41   10.63
  -1  -7   8   83.56    9.41
   1   7  -7   47.10    5.03
  -1  -7   7   28.91    5.43
  -1  -7   7   56.50    5.30
   1   7  -6   28.51    3.44
  -1  -7   6   30.48    2.82
   1   7  -5    1.08    1.28
  -1  -7   5    1.69    1.09
   1   7  -4   45.53    5.58
  -1  -7   4   28.26    6.78
  -1  -7   4   40.77    4.30
   1   7  -3    0.14    1.10
  -1  -7   3    0.95    2.00
  -1  -7   3    0.42    0.82
   1   7  -2   33.41    4.16
  -1  -7   2   16.75    3.52
  -1  -7   2   16.17    5.03
  -1  -7   2   29.29    3.41
  -1  -7   1    1.30    1.12
   1   7  -1    3.26    1.74
  -1  -7   1    4.03    1.69
  -1  -7   1    2.98    0.93
  -1  -7   0   29.70    2.97
   1   7   0   34.37    7.64
  -1  -7   0   25.92    4.67
  -1  -7   0   31.51    2.46
   1   7   0   33.99    2.39
  -1  -7  -1   80.01    9.02
   1   7   1   87.61   18.65
  -1  -7  -1   91.52   13.78
  -1  -7  -1   90.46    8.48
   1   7   1  100.89    9.29
   1   7   2   90.95   11.98
  -1  -7  -2   73.90    8.81
   1   7   2   64.65   13.49
  -1  -7  -2   96.67   13.55
   1   7   2   95.74    8.90
   1   7   3   14.95    2.27
  -1  -7  -3   10.30    1.96
   1   7   3   11.38    3.02
  -1  -7  -3   13.40    2.69
  -1  -7  -3   13.11    1.80
   1   7   3   13.14    1.70
   1   7   4   36.07    4.22
  -1  -7  -4   29.63    3.09
   1   7   4   31.16    4.23
  -1  -7  -4   27.26    3.61
  -1  -7  -4   32.10    2.44
   1   7   4   33.34    2.32
   1   7   5  165.06   10.04
  -1  -7  -5  131.06   11.19
   1   7   5  115.00   16.02
  -1  -7  -5  137.51   10.60
  -1  -7  -5  159.00    8.30
   1   7   5  151.38    7.23
   1   7   6  201.08   26.27
   1   7   6  165.18   22.60
  -1  -7  -6  175.04   19.60
  -1  -7  -6  213.04   21.36
   1   7   6  199.32   19.34
   1   7   7   96.21   11.05
   1   7   7   73.11   10.23
  -1  -7  -7   70.37    8.64
  -1  -7  -7   91.94    9.47
   1   7   7   81.29    8.10
   1   7   8   12.57    1.96
   1   7   8   10.84    2.29
  -1  -7  -8    8.31    1.95
  -1  -7  -8   12.26    1.63
   1   7   8    8.69    1.12
   1   7   9    0.07    1.29
   1   7   9   -0.06    1.51
  -1  -7  -9   -0.01    1.43
  -1  -7  -9   -0.01    1.09
   1   7  10   15.58    2.56
  -1  -7 -10   11.49    2.48
  -1  -7 -10   14.88    2.46
   1   7  11    7.71    1.70
  -1  -7 -11    5.68    1.67
   1   7  12   11.88    1.96
   1   7  13    5.92    1.83
   1   7  14    3.82    1.81
   1   7  15    0.94    1.62
   1   8 -10   16.79    2.86
  -1  -8  10   19.33    3.47
   1   8  -9    4.87    1.90
  -1  -8   9    3.13    2.17
   1   8  -8    3.20    1.79
  -1  -8   8    2.82    2.13
  -1  -8   8    2.97    1.41
   1   8  -7    7.84    1.94
  -1  -8   7    9.41    1.67
   1   8  -6    1.66    1.38
  -1  -8   6    0.02    1.17
   1   8  -5   42.86    4.56
  -1  -8   5   24.19    6.01
  -1  -8   5   43.83    3.69
   1   8  -4    9.12    1.83
  -1  -8   4    4.77    2.46
  -1  -8   4   10.70    1.56
   1   8  -3    4.84    1.48
  -1  -8   3    3.34    2.47
  -1  -8   3    5.13    1.25
   1   8  -2   44.49    5.59
  -1  -8   2   41.25    9.67
  -1  -8   2   45.18    4.59
  -1  -8   1  100.92   15.01
  -1  -8   1   97.21   29.78
  -1  -8   1  114.71   11.34
   1   8   0   37.88    7.42
  -1  -8   0   33.46    5.70
  -1  -8   0   35.18    3.91
   1   8   1    3.85    1.93
  -1  -8  -1    5.64    2.07
  -1  -8  -1    6.89    1.13
   1   8   2    9.01    1.78
   1   8   2    8.28    2.29
  -1  -8  -2    8.05    2.06
   1   8   3   -0.70    1.05
   1   8   3   -0.45    1.13
  -1  -8  -3    0.49    1.31
  -1  -8  -3   -0.43    0.74
   1   8   4    0.24    1.20
   1   8   4    0.52    1.33
  -1  -8  -4   -0.36    1.19
  -1  -8  -4    0.35    0.82
   1   8   4   -0.12    0.67
   1   8   5    6.49    1.56
   1   8   5    5.46    1.85
  -1  -8  -5    6.81    1.95
  -1  -8  -5    7.11    1.29
   1   8   5    7.30    1.11
   1   8   6   13.02    1.83
   1   8   6    9.60    2.16
  -1  -8  -6   11.38    2.32
  -1  -8  -6   13.94    1.62
   1   8   6   14.72    1.40
   1   8   7   38.76    4.71
   1   8   7   25.93    3.59
  -1  -8  -7   30.69    3.68
  -1  -8  -7   40.00    3.27
   1   8   7   40.20    2.83
   1   8   8   13.02    2.17
  -1  -8  -8    7.65    1.91
  -1  -8  -8   13.50    1.76
   1   8   8   12.99    1.32
   1   8   9   13.68    2.51
  -1  -8  -9   10.11    2.27
  -1  -8  -9   15.19    2.33
   1   8  10   46.04    6.78
  -1  -8 -10   48.97    7.11
   1   8  11    0.51    1.51
  -1  -8 -11    0.03    1.20
   1   8  12    1.30    1.60
  -1  -8 -12    2.53    1.53
   1   8  13   14.04    3.18
   1   8  14   21.93    2.82
   1   8  15    5.25    1.91
   1   9  -9    9.34    2.37
   1   9  -8   40.64    7.59
  -1  -9   8   47.69    8.42
   1   9  -7    6.73    1.78
  -1  -9   7    4.26    2.78
  -1  -9   7    6.99    1.62
   1   9  -6   -0.74    1.51
  -1  -9   6    0.91    2.22
  -1  -9   6   -0.16    1.06
   1   9  -5    0.27    1.54
  -1  -9   5    0.80    2.44
  -1  -9   5   -0.43    1.00
   1   9  -4   -0.19    1.29
  -1  -9   4   -0.75    2.02
  -1  -9   4    0.36    1.18
   1   9  -3    1.36    1.37
  -1  -9   3    3.70    2.60
  -1  -9   3    1.59    0.97
   1   9  -2    0.81    1.19
  -1  -9   2   -0.46    2.35
  -1  -9   2   -0.13    0.95
  -1  -9   1    2.26    2.60
  -1  -9   1    5.03    1.10
  -1  -9   0    9.55    2.42
  -1  -9   0   10.32    3.63
  -1  -9   0   12.61    1.45
  -1  -9  -1   10.49    2.37
  -1  -9  -1   11.20    1.45
   1   9   2   50.59    6.08
   1   9   2   34.58    7.30
  -1  -9  -2   53.59    8.58
   1   9   3   17.43    2.25
   1   9   3   13.05    2.55
  -1  -9  -3   11.00    2.45
  -1  -9  -3   19.03    2.35
   1   9   4    1.23    1.29
   1   9   4    1.23    1.41
  -1  -9  -4    1.69    1.39
  -1  -9  -4    1.50    0.99
   1   9   5   51.02    4.73
   1   9   5   30.00    4.67
  -1  -9  -5   41.95    4.99
  -1  -9  -5   57.12    4.16
   1   9   6  102.80    9.11
  -1  -9  -6   88.63    7.88
  -1  -9  -6  114.26    7.19
   1   9   7   75.57   11.57
  -1  -9  -7   65.30    9.10
  -1  -9  -7   94.63   11.80
   1   9   8   -0.30    1.22
  -1  -9  -8    0.36    1.14
   1   9   9    3.22    1.35
  -1  -9  -9    3.33    1.28
   1   9  10   12.80    2.34
  -1  -9 -10   10.98    1.87
   1   9  11   22.97    3.29
  -1  -9 -11   20.64    2.87
   1   9  12   16.71    3.10
  -1  -9 -12   19.25    3.39
   1   9  13    5.93    1.78
   1   9  14   -0.59    1.36
   1  10  -8    0.13    1.72
  -1 -10   8    1.74    2.42
  -1 -10   8   -0.11    1.29
   1  10  -7    6.45    2.14
  -1 -10   7    6.66    3.19
  -1 -10   7    9.55    1.72
   1  10  -6    6.24    1.89
  -1 -10   6    4.45    3.05
  -1 -10   6    8.85    1.76
   1  10  -5    8.17    1.87
  -1 -10   5    5.25    2.91
  -1 -10   5   10.55    1.67
   1  10  -4   11.25    1.99
  -1 -10   4    8.30    2.85
  -1 -10   4   11.60    1.59
   1  10  -3   30.87    4.16
  -1 -10   3   21.38    6.04
  -1 -10   3   38.11    3.87
  -1 -10   2   64.28   15.54
  -1 -10   2   83.86   11.42
  -1 -10   1    5.76    2.87
  -1 -10   1    7.07    1.49
  -1 -10   0    8.33    3.05
  -1 -10   0    7.93    1.47
  -1 -10  -1    5.59    1.97
  -1 -10  -1    6.39    2.89
  -1 -10  -1    6.47    1.26
   1  10   2    5.49    1.58
  -1 -10  -2    2.33    1.63
  -1 -10  -2    3.63    2.44
   1  10   3   28.51    4.70
  -1 -10  -3   17.14    3.82
  -1 -10  -3   18.85    4.74
  -1 -10  -3   23.80    3.32
   1  10   4    2.53    1.57
  -1 -10  -4    1.22    1.46
  -1 -10  -4    1.65    1.00
   1  10   5   25.38    3.46
   1  10   5   14.01    2.38
  -1 -10  -5   20.29    3.48
  -1 -10  -5   24.99    3.01
   1  10   6   36.76    4.66
  -1 -10  -6   28.47    3.89
  -1 -10  -6   40.57    3.51
   1  10   7    2.59    1.42
  -1 -10  -7    1.56    1.21
   1  10   8   -0.09    1.28
  -1 -10  -8   -0.15    0.94
   1  10   9   15.83    2.91
  -1 -10  -9   17.08    2.67
   1  10  10    2.44    1.71
  -1 -10 -10    2.77    1.31
   1  10  11    0.83    1.52
  -1 -10 -11    0.00    1.24
   1  10  12   18.39    2.53
   1  10  13   -0.15    1.45
   1  11  -7   -0.75    1.63
  -1 -11   7   -0.66    2.78
  -1 -11   7   -0.37    1.43
   1  11  -6    6.26    2.13
  -1 -11   6    6.79    2.84
  -1 -11   6   11.58    1.81
   1  11  -5   -0.56    1.67
  -1 -11   5   -3.10    2.35
  -1 -11   5    0.82    1.21
   1  11  -4    1.70    1.48
  -1 -11   4    0.44    2.76
  -1 -11   4    1.52    1.30
   1  11  -3    6.62    1.89
  -1 -11   3    6.17    3.27
  -1 -11   3    8.99    1.62
  -1 -11   2   39.30    8.90
  -1 -11   2   53.26    6.23
  -1 -11   1    2.40    2.73
  -1 -11   1    0.00    1.01
  -1 -11   0    2.90    2.63
  -1 -11   0    1.48    0.93
   1  11   1   25.46    4.27
  -1 -11  -1   25.16    6.00
  -1 -11  -1   29.47    4.28
   1  11   2    0.94    1.33
  -1 -11  -2    0.36    1.43
  -1 -11  -2    1.11    2.04
   1  11   3    9.75    1.86
  -1 -11  -3    8.82    2.20
  -1 -11  -3    7.41    2.83
  -1 -11  -3   11.23    1.47
   1  11   4   14.83    2.22
  -1 -11  -4    7.98    2.14
  -1 -11  -4    8.91    2.66
  -1 -11  -4   15.30    1.69
   1  11   5   54.07    6.10
  -1 -11  -5   34.73    5.66
  -1 -11  -5   59.45    5.60
   1  11   6   88.57    9.23
  -1 -11  -6   48.92    6.27
  -1 -11  -6   84.11    7.54
   1  11   7   -0.93    1.55
  -1 -11  -7   -0.01    1.15
   1  11   8   12.27    2.40
  -1 -11  -8   14.94    2.42
   1  11   9   10.90    1.95
  -1 -11  -9   10.88    1.75
   1  11  10    3.34    1.55
  -1 -11 -10    3.91    1.40
   1  11  11    3.21    1.80
  -1 -11 -11    4.08    1.47
   1  11  12    0.07    1.69
   1  11  13   12.99    2.70
   1  12  -6   -1.02    1.56
  -1 -12   6    1.31    3.06
  -1 -12   6    3.01    1.57
   1  12  -5    1.66    1.64
  -1 -12   5    0.26    2.59
  -1 -12   5    0.23    1.51
   1  12  -4   22.18    2.99
  -1 -12   4   31.15    5.68
  -1 -12   4   31.96    2.67
   1  12  -3   21.54    4.44
  -1 -12   3   23.06    6.00
  -1 -12   3   26.33    4.86
  -1 -12   2    5.76    3.27
  -1 -12   2    5.17    1.43
  -1 -12   1    1.98    2.43
  -1 -12   1    1.47    1.01
  -1 -12   0   19.07    4.56
  -1 -12   0   20.81    2.63
   1  12   1    0.55    1.21
  -1 -12  -1    2.08    2.63
  -1 -12  -1   -0.53    0.92
   1  12   2    8.48    1.69
  -1 -12  -2    7.76    2.79
   1  12   3    6.63    1.65
  -1 -12  -3    5.05    2.59
  -1 -12  -3    5.50    1.24
   1  12   4   18.13    3.04
  -1 -12  -4    8.64    2.73
  -1 -12  -4   16.29    2.47
   1  12   5   16.92    2.94
  -1 -12  -5   11.33    2.62
  -1 -12  -5   17.88    2.62
   1  12   6    2.30    1.58
  -1 -12  -6    2.43    1.26
   1  12   7    2.44    1.53
  -1 -12  -7    1.60    1.06
   1  12   8   10.59    2.55
  -1 -12  -8   10.71    2.13
   1  12   9    2.58    1.61
  -1 -12  -9    2.00    1.35
   1  12  10    3.95    1.64
  -1 -12 -10    1.38    1.27
   1  12  11    1.13    1.47
  -1 -12 -11    0.57    1.22
   1  12  12   -0.50    1.59
   1  13  -4    0.03    1.68
  -1 -13   4    1.52    2.76
  -1 -13   4    1.65    1.35
   1  13  -3    4.47    1.84
  -1 -13   3    5.48    3.41
  -1 -13   3    5.56    1.51
  -1 -13   2    0.49    2.49
  -1 -13   2    2.21    1.38
  -1 -13   1   10.85    3.47
  -1 -13   1   12.66    1.81
  -1 -13   0    6.08    2.96
  -1 -13   0    9.78    1.49
   1  13   1    0.89    1.23
  -1 -13  -1    1.61    2.59
  -1 -13  -1    0.63    1.07
   1  13   2   13.85    2.75
  -1 -13  -2    8.81    2.95
   1  13   3   31.25    4.90
  -1 -13  -3   21.65    4.75
   1  13   4    0.42    1.62
  -1 -13  -4    2.87    1.31
   1  13   5    1.66    1.53
  -1 -13  -5    0.95    1.10
   1  13   6   59.04   10.81
  -1 -13  -6   62.17   10.82
   1  13   7   21.92    4.49
  -1 -13  -7   24.04    4.56
   1  13   8    0.12    1.57
  -1 -13  -8    0.57    1.12
   1  13   9    1.14    1.82
  -1 -13  -9   -1.02    1.24
   1  13  10   -0.68    1.84
  -1 -13 -10    0.59    1.23
  -1 -14   2   -0.72    2.73
  -1 -14   2    1.12    1.25
  -1 -14   1    0.18    2.74
  -1 -14   1   -1.03    1.03
  -1 -14   0   -0.04    2.54
  -1 -14   0    2.32    1.22
   1  14   1    0.41    1.44
  -1 -14  -1   -0.06    2.06
  -1 -14  -1   -0.16    1.14
   1  14   2    4.95    1.54
   1  14   3    3.11    1.54
   1  14   4    6.31    1.85
  -1 -14  -4    6.57    1.55
   1  14   5   17.28    2.38
  -1 -14  -5   20.37    2.14
   1  14   6    5.30    1.79
  -1 -14  -6    3.62    1.38
   1  14   7    1.85    2.00
  -1 -14  -7    2.35    1.20
   1  14   8    4.28    1.80
  -1 -14  -8    2.28    1.26
   1  14   9   60.99    7.60
  -1 -14  -9   67.62    7.87
   1  15   3   -0.60    1.38
   1  15   4    4.66    1.60
  -1 -15  -4    4.66    1.43
   1  15   5   -0.04    1.48
  -1 -15  -5    0.03    1.18
  -2  13   5    0.79    1.52
   2 -13  -5    1.61    1.51
  -2  13   4    0.93    1.22
  -2  13   3   13.35    2.27
   2 -13  -3   14.78    2.27
  -2  13   2    1.08    1.22
   2 -13  -2    1.41    1.46
  -2  13   1    0.54    1.24
   2 -13  -1    1.57    1.33
  -2  13   0    0.65    1.37
   2 -13   0   -0.01    1.62
  -2  13  -1   -1.10    1.36
   2 -13   1    2.24    1.63
  -2  13  -2    0.48    1.71
   2 -12  -8    0.53    1.70
  -2  12   7   -0.45    1.56
   2 -12  -7    1.27    1.75
  -2  12   6    4.30    1.49
   2 -12  -6    3.55    1.61
  -2  12   5    2.30    1.50
   2 -12  -5    2.80    1.53
  -2  12   4    2.72    1.53
  -2  12   3   16.31    2.10
  -2  12   2    1.45    1.44
   2 -12  -2    2.13    1.59
  -2  12   1    0.19    1.18
   2 -12  -1    0.29    1.45
  -2  12   0    0.04    1.42
   2 -12   0    0.69    1.28
  -2  12  -1    0.28    1.52
   2 -12   1   -0.82    1.62
   2 -12   1    0.71    1.33
  -2  12  -2   -0.09    1.44
   2 -12   2    0.13    1.57
   2 -12   2    1.01    1.64
  -2  12  -3   -0.51    1.57
   2 -12   3   -0.55    1.76
   2 -12   3   -0.66    1.60
  -2  12  -4   -0.05    1.56
   2 -12   4    2.79    1.92
   2 -12   4    0.51    1.47
   2 -11  -9    4.87    1.88
  -2  11   8    3.66    1.80
   2 -11  -8    7.62    2.02
  -2  11   7    1.57    1.37
   2 -11  -7    1.29    1.48
  -2  11   6    3.41    1.62
   2 -11  -6    5.21    1.66
  -2  11   5    2.45    1.51
   2 -11  -5    2.60    1.66
  -2  11   4   -0.70    1.14
  -2  11   3   -0.17    1.12
  -2  11   2    5.19    1.47
   2 -11  -2    5.98    1.70
  -2  11   1    1.39    1.44
   2 -11  -1    0.87    1.57
   2 -11  -1    0.02    1.17
  -2  11   0    6.13    1.76
   2 -11   0    5.53    1.99
   2 -11   0    7.11    1.65
  -2  11  -1    4.44    1.45
   2 -11   1    1.55    1.64
   2 -11   1    2.96    1.53
  -2  11  -2    6.55    1.77
   2 -11   2    5.84    2.15
   2 -11   2    5.94    1.64
  -2  11  -3  137.64    9.04
   2 -11   3  103.14   19.65
   2 -11   3  165.48    6.61
  -2  11  -4   10.97    2.58
   2 -11   4   10.84    2.83
   2 -11   4    9.88    1.93
  -2  11  -5    5.05    2.16
   2 -11   5    6.51    2.51
   2 -11   5    3.86    1.60
  -2  11  -6   16.38    3.01
   2 -11   6    7.50    2.94
   2 -11   6   13.32    2.53
   2 -10 -10    3.09    1.87
  -2  10   9    0.24    1.51
   2 -10  -9   -0.75    1.55
  -2  10   8    9.79    1.88
   2 -10  -8   11.95    2.21
  -2  10   7    0.05    1.30
   2 -10  -7   -0.21    1.48
  -2  10   6    4.55    1.66
   2 -10  -6    4.65    1.55
  -2  10   5   -0.19    1.36
   2 -10  -5    1.49    1.40
  -2  10   4    0.40    1.30
  -2  10   3   34.27    4.77
  -2  10   2    0.77    1.25
   2 -10  -2    0.44    1.54
   2 -10  -2   -0.36    1.23
  -2  10   1    0.48    1.13
   2 -10  -1    1.09    1.68
   2 -10  -1    0.73    1.09
  -2  10   0    5.99    1.52
   2 -10   0    4.90    1.88
   2 -10   0    7.40    1.75
  -2  10  -1   -0.35    1.30
   2 -10   1   -0.24    1.61
   2 -10   1   -0.59    1.11
  -2  10  -2    1.83    1.61
   2 -10   2    1.48    1.70
   2 -10   2    2.16    1.28
  -2  10  -3   29.74    4.21
   2 -10   3   28.51    4.62
   2 -10   3   31.72    3.88
  -2  10  -4    5.46    1.90
   2 -10   4    4.25    2.33
   2 -10   4    7.85    1.85
  -2  10  -5   11.22    2.33
   2 -10   5   12.58    2.88
   2 -10   5   13.05    2.06
  -2  10  -6    0.97    1.66
   2 -10   6    0.29    2.38
   2 -10   6   -0.37    1.43
  -2  10  -7    2.89    2.06
   2 -10   7    2.71    2.49
   2 -10   7    1.69    1.56
  -2  10  -8    5.86    2.31
   2 -10   8    6.40    2.66
   2  -9 -11   36.82    4.11
   2  -9 -10   -0.16    1.70
  -2   9   9    1.56    1.46
   2  -9  -9    3.31    1.52
  -2   9   8    9.55    2.39
   2  -9  -8   14.33    2.90
  -2   9   7    1.53    1.56
   2  -9  -7    0.40    1.29
  -2   9   6    3.71    1.65
   2  -9  -6    6.10    1.57
  -2   9   5   13.62    2.17
   2  -9  -5   18.42    2.27
  -2   9   4   16.49    2.13
   2  -9  -4   21.70    2.35
  -2   9   3    4.40    1.54
   2  -9  -3    3.36    1.59
  -2   9   2   19.63    2.54
   2  -9  -2   14.21    2.65
   2  -9  -2   20.18    3.01
   2  -9  -2   27.04    4.25
  -2   9   1    2.44    1.36
   2  -9  -1    1.65    1.39
   2  -9  -1    4.07    1.82
   2  -9  -1    3.26    1.42
  -2   9   0    1.76    1.21
   2  -9   0    0.99    1.45
   2  -9   0    2.10    1.70
   2  -9   0    0.75    1.03
  -2   9  -1   52.59    8.21
   2  -9   1   39.43    6.69
   2  -9   1   51.80    7.42
  -2   9  -2   -0.58    1.38
   2  -9   2    0.71    1.59
   2  -9   2    1.35    1.43
  -2   9  -3   14.26    2.51
   2  -9   3   12.31    2.73
   2  -9   3   16.44    2.17
  -2   9  -4   47.09    7.24
   2  -9   4   48.66    7.22
   2  -9   4   56.46    6.82
  -2   9  -5    7.18    2.14
   2  -9   5    8.07    2.60
   2  -9   5    6.87    1.69
  -2   9  -6    4.25    2.00
   2  -9   6    2.61    2.11
   2  -9   6    6.76    1.73
  -2   9  -7    0.12    1.81
   2  -9   7    0.09    2.36
   2  -9   7    0.00    1.22
  -2   9  -8    0.60    1.87
   2  -9   8   -1.16    2.05
  -2   9  -9   15.04    2.99
   2  -9   9   16.60    3.90
   2  -8 -12    1.08    1.74
   2  -8 -11   15.77    2.46
  -2   8  10    2.75    1.41
   2  -8 -10    4.51    1.84
  -2   8   9   50.72    5.92
   2  -8  -9   59.84    6.43
  -2   8   8   40.64    5.65
   2  -8  -8   48.29    6.04
  -2   8   7    0.62    1.25
   2  -8  -7   -0.52    1.50
  -2   8   6    0.77    1.29
   2  -8  -6    0.11    1.20
  -2   8   5    0.75    1.25
   2  -8  -5    0.14    1.26
  -2   8   4  100.39   13.76
   2  -8  -4   84.41   11.03
   2  -8  -4  115.79   14.39
  -2   8   3   17.08    3.11
   2  -8  -3   15.17    2.92
   2  -8  -3   17.38    3.28
  -2   8   2   14.57    2.70
   2  -8  -2   13.43    2.54
   2  -8  -2   20.03    3.18
  -2   8   1   26.83    4.36
   2  -8  -1   23.75    4.51
   2  -8  -1   26.16    3.88
  -2   8   0   -0.05    1.08
   2  -8   0    0.59    1.39
  -2   8   0    0.20    1.57
   2  -8   0    0.04    0.98
  -2   8  -1   31.54    5.03
   2  -8   1   24.52    4.49
  -2   8  -1   24.34    4.41
   2  -8   1   35.48    4.97
  -2   8  -2    0.93    1.29
   2  -8   2    0.30    1.42
   2  -8   2    0.38    1.16
  -2   8  -3  210.44   19.06
   2  -8   3  220.10   15.00
  -2   8  -4   21.77    2.82
   2  -8   4   22.81    3.56
   2  -8   4   25.07    4.07
  -2   8  -5    8.94    1.90
   2  -8   5    5.95    2.52
   2  -8   5    8.86    1.69
  -2   8  -6    1.56    1.74
   2  -8   6   -0.12    1.98
   2  -8   6    0.45    1.14
  -2   8  -7    1.95    1.65
   2  -8   7    1.53    2.33
   2  -8   7    2.23    1.15
  -2   8  -8    0.93    1.87
   2  -8   8    2.47    2.20
  -2   8  -9    1.42    1.88
   2  -8   9   -0.79    1.99
  -2   8 -10    1.27    2.16
   2  -8  10   -0.03    2.19
   2  -7 -12   19.08    2.83
   2  -7 -11   35.39    6.65
  -2   7  10   39.36    5.79
   2  -7 -10   42.68    6.30
  -2   7   9   28.70    4.09
   2  -7  -9   37.93    5.01
  -2   7   8   24.96    3.05
   2  -7  -8   28.52    3.51
  -2   7   7   65.45   10.11
   2  -7  -7   85.61   11.91
  -2   7   6  101.29    8.60
   2  -7  -6  119.88    8.65
  -2   7   5   16.91    3.07
   2  -7  -5   15.50    2.71
   2  -7  -5   19.20    3.19
  -2   7   4    7.57    1.82
   2  -7  -4    7.80    1.51
   2  -7  -4    8.72    2.59
   2  -7  -4   10.16    1.78
  -2   7   3    5.96    1.67
   2  -7  -3    5.50    1.38
   2  -7  -3    7.36    1.89
  -2   7   3    4.55    1.83
  -2   7   2   -0.49    1.01
   2  -7  -2    0.54    1.00
   2  -7  -2    0.00    1.43
  -2   7   2    0.39    1.44
   2  -7  -2   -0.67    0.88
  -2   7   1    1.84    1.14
   2  -7  -1    2.93    1.18
   2  -7  -1    2.17    1.58
  -2   7   1    1.49    1.82
   2  -7  -1    2.53    1.22
  -2   7   0    0.11    1.07
   2  -7   0   -0.92    0.92
   2  -7   0   -0.61    1.41
  -2   7   0    0.86    1.55
   2  -7   0   -0.10    1.03
  -2   7  -1   19.27    3.13
   2  -7   1   15.05    2.72
  -2   7  -1   14.17    2.79
   2  -7   1   23.29    3.03
  -2   7  -2   32.32    4.82
   2  -7   2   30.60    4.74
  -2   7  -2   24.87    5.27
   2  -7   2   33.65    4.10
  -2   7  -3   16.94    2.46
   2  -7   3   13.69    2.71
   2  -7   3   15.61    2.00
  -2   7  -4   78.49   11.58
   2  -7   4   75.67   12.32
   2  -7   4   80.72   10.23
  -2   7  -5   21.76    3.63
   2  -7   5   19.41    3.94
   2  -7   5   18.05    2.68
  -2   7  -6   31.51    5.24
   2  -7   6   30.40    5.78
   2  -7   6   27.72    4.38
  -2   7  -7   11.97    2.34
   2  -7   7    8.64    2.39
   2  -7   7    9.81    1.67
  -2   7  -8   10.11    2.26
   2  -7   8    9.34    2.82
   2  -7   8    8.01    1.54
  -2   7  -9    2.89    2.00
   2  -7   9    3.25    2.25
  -2   7 -10    3.23    2.08
  -2   7 -11    0.21    1.68
   2  -6 -12   31.78    3.15
   2  -6 -11   -0.65    1.53
  -2   6  10   53.86    5.81
   2  -6 -10   58.90    6.36
  -2   6   9    1.46    1.30
   2  -6  -9    0.35    1.42
  -2   6   8    6.71    1.72
   2  -6  -8    7.67    1.83
  -2   6   7   39.16    5.58
   2  -6  -7   34.98    5.19
   2  -6  -7   34.91    4.91
  -2   6   6   29.65    3.14
   2  -6  -6   28.63    3.18
   2  -6  -6   37.21    3.52
  -2   6   5   34.61    4.28
   2  -6  -5   30.14    3.85
   2  -6  -5   44.38    4.90
  -2   6   4   10.94    1.83
   2  -6  -4   10.99    1.83
   2  -6  -4   10.37    2.10
  -2   6   4    9.91    2.19
   2  -6  -4   11.68    1.86
  -2   6   3   27.56    3.97
   2  -6  -3   25.88    3.46
   2  -6  -3   23.44    3.84
  -2   6   3   18.76    3.51
  -2   6   2    7.13    1.65
   2  -6  -2    7.35    1.48
   2  -6  -2    6.49    1.91
  -2   6   2    5.26    2.02
   2  -6  -2    8.22    1.53
  -2   6   1    1.54    1.10
   2  -6  -1    1.88    1.05
   2  -6  -1    2.34    1.65
  -2   6   1    0.78    1.52
   2  -6  -1    1.16    0.94
  -2   6   0   60.12    8.22
   2  -6   0   48.50    6.33
   2  -6   0   55.43    7.81
  -2   6   0   46.51    7.45
   2  -6   0   57.17    6.36
  -2   6  -1    5.36    1.46
   2  -6   1    3.26    1.26
   2  -6   1    3.58    1.77
  -2   6  -1    4.79    2.09
   2  -6   1    5.60    1.33
  -2   6  -2    3.36    1.40
   2  -6   2    2.02    1.18
   2  -6   2    4.15    1.76
  -2   6  -2    1.01    1.78
   2  -6   2    2.76    1.22
  -2   6  -3  100.44   13.56
   2  -6   3   95.25   12.53
  -2   6  -3   86.68   13.25
   2  -6   3   81.77    8.86
  -2   6  -3  101.00   10.03
  -2   6  -4   24.44    3.53
   2  -6   4   18.93    3.55
   2  -6   4   19.02    2.63
  -2   6  -4   19.49    2.32
  -2   6  -5  146.26   14.19
   2  -6   5  116.39   14.21
   2  -6   5  124.21    8.32
  -2   6  -6    3.48    1.65
   2  -6   6    2.64    2.05
   2  -6   6    3.42    1.25
  -2   6  -7   38.42    6.32
   2  -6   7   30.36    5.82
   2  -6   7   28.43    4.43
  -2   6  -8    8.57    1.99
   2  -6   8    5.67    2.69
   2  -6   8    5.69    1.33
  -2   6  -9    3.03    1.71
  -2   6 -10   17.85    3.42
  -2   6 -11    4.65    2.30
   2  -6  11    4.63    2.22
  -2   6 -12   14.76    3.26
   2  -6  12   10.13    2.78
  -2   5  11    1.43    1.22
   2  -5 -11    1.30    1.56
  -2   5  10   10.86    1.80
   2  -5 -10    8.51    1.97
  -2   5   9   32.24    4.87
   2  -5  -9   31.44    4.97
  -2   5   8  108.74    7.60
   2  -5  -8  103.72    7.46
  -2   5   7  137.59    9.06
  -2   5   7  111.76    7.65
   2  -5  -7  117.08    7.59
  -2   5   6    7.97    1.46
   2  -5  -6    8.72    1.76
  -2   5   6    7.77    1.88
  -2   5   6    6.07    1.86
   2  -5  -6    8.43    1.84
  -2   5   5    1.39    1.11
   2  -5  -5    0.58    1.11
   2  -5  -5    0.51    1.26
  -2   5   5    0.60    1.27
   2  -5  -5    0.28    1.11
  -2   5   4   38.34    4.88
   2  -5  -4   35.99    4.59
   2  -5  -4   27.59    4.73
  -2   5   4   34.17    4.71
   2  -5  -4   40.70    4.98
  -2   5   4   42.85    4.86
  -2   5   3    1.14    1.06
   2  -5  -3    1.00    0.92
   2  -5  -3    0.75    1.41
  -2   5   3    1.10    1.36
  -2   5   3    1.21    1.07
  -2   5   2   69.57    6.98
   2  -5  -2   68.62    5.24
   2  -5  -2   77.55    7.13
  -2   5   2   51.82    5.77
   2  -5  -2   87.63    5.74
  -2   5   2   71.88    4.42
  -2   5   1    5.16    1.34
   2  -5  -1    4.94    1.29
   2  -5  -1    5.04    1.84
  -2   5   1    4.57    1.71
   2  -5  -1    6.31    1.55
  -2   5   1    5.57    1.31
  -2   5   0   35.91    4.73
   2  -5   0   30.43    3.89
   2  -5   0   37.55    5.26
  -2   5   0   26.87    4.89
   2  -5   0   38.49    4.60
  -2   5  -1    7.10    1.59
   2  -5   1    7.22    1.58
   2  -5   1    5.86    1.80
  -2   5  -1    4.99    1.85
   2  -5   1    7.29    1.49
  -2   5  -1    7.55    1.26
  -2   5  -2   12.30    2.00
   2  -5   2    7.50    1.50
   2  -5   2    9.90    2.22
  -2   5  -2   10.95    2.74
   2  -5   2   11.15    1.77
  -2   5  -2   11.33    1.47
  -2   5  -3    1.83    1.32
   2  -5   3    1.33    1.01
   2  -5   3    1.10    1.46
  -2   5  -3    1.49    1.67
   2  -5   3    1.57    1.16
  -2   5  -3    1.53    0.86
  -2   5  -4    4.90    1.49
   2  -5   4    3.59    1.15
   2  -5   4    4.70    1.80
  -2   5  -4    3.85    2.02
   2  -5   4    4.57    1.34
  -2   5  -4    4.09    1.00
  -2   5  -5    9.22    1.92
   2  -5   5    7.24    2.10
   2  -5   5    5.33    1.36
  -2   5  -5    5.93    1.05
  -2   5  -6   32.64    4.00
   2  -5   6   23.04    3.58
   2  -5   6   21.84    2.51
  -2   5  -6   30.49    2.40
  -2   5  -7   18.88    3.42
   2  -5   7   14.60    2.46
  -2   5  -7   15.90    2.31
  -2   5  -8    3.15    1.52
   2  -5   8    2.33    1.13
  -2   5  -8    3.67    0.91
  -2   5  -9    2.05    1.54
   2  -5   9    3.61    2.10
  -2   5 -10    2.19    1.92
   2  -5  10    1.36    1.76
  -2   5 -11   14.27    3.53
   2  -5  11   14.89    3.87
  -2   5 -12   14.67    2.54
   2  -5  12   14.07    2.85
  -2   5 -13   22.76    3.84
   2  -5  13   22.16    3.70
  -2   4  11    1.68    1.31
  -2   4  10   91.32    8.02
   2  -4 -10   88.69    8.06
  -2   4   9  186.32   24.63
   2  -4  -9  178.61   23.78
  -2   4   8    0.12    1.50
  -2   4   8   -0.32    1.06
  -2   4   8   -0.57    1.54
   2  -4  -8    0.19    1.33
  -2   4   7  153.48    9.61
  -2   4   7  138.90    8.15
  -2   4   7  117.15    9.68
   2  -4  -7  117.48    7.35
  -2   4   6   83.66    9.11
  -2   4   6   75.54    7.91
   2  -4  -6   63.38    8.45
  -2   4   6   73.53    8.18
   2  -4  -6   61.30    6.69
  -2   4   6   61.00    6.73
  -2   4   5   34.50    4.12
   2  -4  -5   33.39    4.36
   2  -4  -5   26.68    4.66
  -2   4   5   34.20    4.57
   2  -4  -5   33.46    4.15
  -2   4   5   32.69    4.00
  -2   4   4   25.34    2.36
   2  -4  -4   23.91    2.70
  -2   4   4   27.70    3.23
   2  -4  -4   27.89    2.83
  -2   4   4   24.31    2.43
  -2   4   3   63.93    7.11
   2  -4  -3   64.50    6.93
   2  -4  -3   59.50    6.87
  -2   4   3   65.95    7.66
  -2   4   3   68.16    6.97
  -2   4   2   89.79    8.70
   2  -4  -2  103.96    8.08
   2  -4  -2  123.50   10.01
  -2   4   2   75.50    7.36
   2  -4  -2  102.41    7.19
  -2   4   2  114.87    7.68
  -2   4   1   44.87    4.85
   2  -4  -1   53.36    4.71
   2  -4  -1   55.85    6.19
  -2   4   1   42.68    5.04
   2  -4  -1   52.62    4.34
  -2   4   1   54.84    4.13
  -2   4   0  233.68   18.06
   2  -4   0  251.12   18.44
   2  -4   0  235.44   16.48
  -2   4   0  190.45   19.15
   2  -4   0  260.47   17.09
  -2   4  -1    3.06    1.35
   2  -4   1    2.46    1.06
   2  -4   1    4.16    1.78
  -2   4  -1    1.71    1.42
   2  -4   1    4.58    1.46
  -2   4  -1    3.24    1.06
  -2   4  -2  111.56   10.57
   2  -4   2   77.88    6.89
   2  -4   2   98.22    9.13
  -2   4  -2   95.82   11.37
   2  -4   2  104.84    7.60
  -2   4  -2  111.02    7.12
  -2   4  -3   89.52   10.73
   2  -4   3   72.61    7.83
   2  -4   3   73.37    9.73
  -2   4  -3   67.28   10.67
   2  -4   3   89.67    8.92
  -2   4  -3   92.90    8.85
  -2   4  -4   20.18    2.63
   2  -4   4   13.65    1.82
   2  -4   4   14.42    2.84
  -2   4  -4   14.43    2.99
   2  -4   4   15.36    2.03
  -2   4  -4   14.68    1.58
  -2   4  -5    0.70    1.31
   2  -4   5    1.27    0.85
   2  -4   5    0.22    1.48
   2  -4   5    1.08    1.17
  -2   4  -5    1.38    0.77
  -2   4  -6   19.32    3.10
   2  -4   6   13.28    2.13
  -2   4  -6   14.91    2.00
  -2   4  -7    6.83    1.88
   2  -4   7    5.81    1.37
  -2   4  -7    5.10    0.95
  -2   4  -8   44.36    6.57
   2  -4   8   42.78    6.71
   2  -4   8   34.69    4.78
  -2   4  -8   39.72    5.06
  -2   4  -9   12.12    2.34
   2  -4   9    7.38    2.23
  -2   4  -9    9.37    1.21
  -2   4 -10    0.29    1.42
   2  -4  10    0.50    1.89
  -2   4 -11   83.92    5.40
   2  -4  11   73.84    8.48
  -2   4 -12   52.33    9.67
   2  -4  12   51.07    9.57
  -2   4 -13    6.06    2.31
   2  -4  13    6.62    2.41
  -2   3  11   18.90    2.67
  -2   3  10   18.45    2.06
  -2   3  10   16.92    2.12
  -2   3   9    1.06    1.12
  -2   3   9    2.48    1.84
   2  -3  -9    1.83    1.50
  -2   3   8    3.27    1.62
  -2   3   8    2.63    1.21
  -2   3   8    1.94    1.72
   2  -3  -8    2.19    1.41
  -2   3   7    8.15    1.87
  -2   3   7    7.23    1.53
  -2   3   7    8.33    1.95
  -2   3   7    8.93    2.13
   2  -3  -7    7.64    1.80
  -2   3   7    7.70    1.66
  -2   3   6   12.56    2.25
  -2   3   6    9.94    1.52
   2  -3  -6   13.36    2.12
  -2   3   6   12.56    2.23
   2  -3  -6    9.86    1.81
  -2   3   6    8.91    1.75
  -2   3   5   19.61    2.74
  -2   3   5   14.87    1.86
   2  -3  -5   15.44    2.61
  -2   3   5   13.68    2.33
   2  -3  -5   12.49    1.95
  -2   3   5   13.95    2.01
  -2   3   4   18.63    2.42
   2  -3  -4   17.20    2.66
   2  -3  -4   21.29    3.17
  -2   3   4   19.65    3.05
   2  -3  -4   15.82    2.46
  -2   3   4   17.20    2.56
  -2   3   3  298.90   19.85
   2  -3  -3  287.81   18.50
   2  -3  -3  302.92   19.61
  -2   3   3  315.40   18.45
  -2   3   3  276.14   16.12
  -2   3   2   66.97    5.76
   2  -3  -2   72.87    5.70
   2  -3  -2   74.99    7.36
  -2   3   2   81.49    6.92
   2  -3  -2   72.90    5.61
  -2   3   2   73.37    5.48
  -2   3   1  383.52   26.01
   2  -3  -1  404.45   25.71
   2  -3  -1  431.63   26.54
  -2   3   1  414.11   18.15
   2  -3  -1  428.11   18.97
  -2   3   1  406.10   15.20
  -2   3   0  330.54   24.08
   2  -3   0  330.48   21.83
   2  -3   0  394.78   32.93
  -2   3   0  351.19   21.01
   2  -3   0  351.56   14.54
  -2   3  -1    5.20    1.44
   2  -3   1    4.42    1.31
   2  -3   1    6.48    2.00
  -2   3  -1    5.61    1.92
   2  -3   1    6.17    1.62
  -2   3  -1    6.66    1.41
  -2   3  -2    4.74    1.52
   2  -3   2    3.78    1.07
   2  -3   2    5.47    1.87
  -2   3  -2    4.57    1.76
   2  -3   2    6.04    1.57
  -2   3  -2    5.91    1.29
  -2   3  -3  135.05   12.70
   2  -3   3  104.43    8.30
   2  -3   3  117.22   10.20
  -2   3  -3  106.10   10.50
   2  -3   3  122.22    8.22
  -2   3  -3  129.99    8.09
  -2   3  -4  549.71   40.34
   2  -3   4  326.62   35.62
  -2   3  -4  396.66   54.78
   2  -3   4  492.65   45.83
  -2   3  -4  402.39   37.27
  -2   3  -5   10.72    2.06
   2  -3   5   10.07    1.60
  -2   3  -5    9.23    2.47
   2  -3   5   11.69    1.88
  -2   3  -5   11.01    1.37
  -2   3  -6    7.32    1.81
   2  -3   6    6.32    1.41
   2  -3   6    6.08    2.09
   2  -3   6    7.60    1.49
  -2   3  -6    7.30    1.05
  -2   3  -7    2.02    1.41
   2  -3   7    2.31    1.62
   2  -3   7    1.21    1.05
  -2   3  -7    2.49    0.81
  -2   3  -8   15.39    2.62
   2  -3   8   13.69    2.75
   2  -3   8    9.36    1.60
  -2   3  -8   10.09    1.20
  -2   3  -9   10.71    2.39
   2  -3   9   10.57    2.86
  -2   3  -9    9.41    1.48
  -2   3 -10    7.80    2.22
   2  -3  10    6.86    2.18
  -2   3 -11   13.62    2.76
   2  -3  11   15.54    3.32
  -2   3 -12    1.89    2.04
   2  -3  12   -0.75    1.77
  -2   3 -13    0.45    1.81
   2  -3  13    0.31    1.69
   2  -3  14    0.85    2.02
  -2   2  11  143.77    5.03
  -2   2  10   35.81    3.83
  -2   2  10   44.08    5.16
  -2   2  10   32.92    3.57
  -2   2   9    0.21    1.01
  -2   2   9    0.10    1.48
  -2   2   9    0.42    1.06
  -2   2   8    0.30    1.12
  -2   2   8    0.17    0.92
  -2   2   8    0.32    1.37
  -2   2   8    0.69    1.71
  -2   2   8   -0.19    1.12
  -2   2   8   -0.08    0.96
  -2   2   7   27.68    3.51
  -2   2   7   28.01    3.39
  -2   2   7   39.16    4.69
   2  -2  -7   30.92    3.73
  -2   2   7   25.23    3.24
  -2   2   6   24.62    3.52
  -2   2   6   19.43    2.75
   2  -2  -6   29.37    3.90
  -2   2   6   23.22    3.49
   2  -2  -6   20.47    2.97
  -2   2   6   23.20    3.30
  -2   2   5   50.50    4.25
  -2   2   5   52.58    3.92
   2  -2  -5   64.65    5.64
  -2   2   5   59.64    4.72
   2  -2  -5   48.03    3.68
  -2   2   5   49.40    3.91
  -2   2   4  142.52    9.42
  -2   2   4  141.54    8.82
   2  -2  -4  148.34   10.14
  -2   2   4  150.94    9.76
   2  -2  -4  116.65    7.47
  -2   2   4  129.85    8.53
  -2   2   3   53.73    3.93
   2  -2  -3   46.31    4.09
   2  -2  -3   56.80    4.94
  -2   2   3   60.01    5.12
  -2   2   3   48.53    4.07
  -2   2   2  160.46   10.23
   2  -2  -2  154.30    7.28
   2  -2  -2  169.81   11.86
  -2   2   2  191.55    8.88
   2  -2  -2  141.26    7.16
  -2   2   2  156.44    7.16
  -2   2   1   10.78    1.68
   2  -2  -1   11.24    1.63
   2  -2  -1   11.75    2.52
  -2   2   1   12.02    2.47
   2  -2  -1   10.78    1.75
  -2   2   1   12.81    1.89
  -2   2   0    5.81    1.41
   2  -2   0    5.69    1.34
   2  -2   0    6.07    2.15
  -2   2   0    5.86    2.31
   2  -2   0    7.30    1.58
  -2   2  -1   71.03    5.15
   2  -2   1   54.82    4.30
   2  -2   1   68.29    5.98
  -2   2  -1   83.02    5.76
   2  -2   1   76.18    4.90
  -2   2  -1   64.25    3.92
  -2   2  -2   49.18    4.69
   2  -2   2   35.98    3.09
   2  -2   2   43.82    3.95
  -2   2  -2   60.98    4.65
   2  -2   2   49.34    3.67
  -2   2  -2   45.68    3.17
  -2   2  -3   85.00    6.91
   2  -2   3   75.42    6.94
  -2   2  -3  107.19    7.29
   2  -2   3   97.38    6.09
  -2   2  -3   83.80    4.46
  -2   2  -4  521.76   37.45
   2  -2   4  518.58   34.22
  -2   2  -4  519.83   49.33
   2  -2   4  521.94   30.80
  -2   2  -4  477.34   28.72
  -2   2  -5    2.02    1.34
   2  -2   5    1.15    1.19
   2  -2   5    2.62    1.58
  -2   2  -5    1.33    1.74
   2  -2   5    1.32    1.12
  -2   2  -5    1.38    0.83
  -2   2  -6   18.86    2.71
   2  -2   6   14.34    2.11
   2  -2   6   21.13    3.10
  -2   2  -6   21.87    3.21
   2  -2   6   20.62    2.41
  -2   2  -6   17.56    1.63
  -2   2  -7   10.91    2.00
   2  -2   7   12.94    2.66
   2  -2   7   11.67    1.78
  -2   2  -7   10.78    1.18
  -2   2  -8  124.07   13.75
   2  -2   8  102.47   10.87
   2  -2   8  100.14    9.73
  -2   2  -8  101.02    9.31
  -2   2  -9   18.92    3.60
   2  -2   9   23.62    4.19
  -2   2  -9   18.95    2.80
  -2   2 -10  301.54   21.96
   2  -2  10  330.81   13.67
  -2   2 -11  106.02   11.17
   2  -2  11  106.58   10.24
  -2   2 -12   13.70    2.68
   2  -2  12   16.23    3.11
  -2   2 -13   10.54    2.43
   2  -2  13   11.83    2.52
   2  -2  14    4.54    2.24
  -2   1  11   20.11    2.78
  -2   1  11   30.29    4.20
  -2   1  10   58.89    5.64
  -2   1  10   76.77    7.50
  -2   1  10   54.46    5.23
  -2   1   9    3.21    1.29
  -2   1   9    3.73    1.92
  -2   1   9    3.77    1.33
  -2   1   8   -0.51    1.01
  -2   1   8   -0.15    1.04
  -2   1   8    1.28    1.53
  -2   1   8    0.80    1.54
  -2   1   8   -0.02    1.18
  -2   1   8    0.20    1.07
  -2   1   7    6.21    1.52
  -2   1   7    7.58    1.57
   2  -1  -7   13.13    2.48
  -2   1   7    8.79    1.94
  -2   1   7    6.81    1.64
  -2   1   7    6.47    1.44
  -2   1   6    2.63    1.24
  -2   1   6    3.11    1.25
   2  -1  -6    4.93    1.72
  -2   1   6    3.54    1.75
  -2   1   6    3.02    1.41
  -2   1   5  141.95   13.52
  -2   1   5  163.83   15.43
   2  -1  -5  252.91   23.46
  -2   1   5  204.46   18.91
   2  -1  -5  147.28   13.67
  -2   1   5  158.88   15.02
  -2   1   4   77.93    5.82
  -2   1   4   84.94    5.97
   2  -1  -4  106.08    7.49
  -2   1   4  103.04    7.27
   2  -1  -4   81.44    5.63
  -2   1   4   86.96    6.25
  -2   1   3  111.37    5.97
  -2   1   3  136.14    6.12
   2  -1  -3  149.14    9.57
  -2   1   3  151.55    7.46
  -2   1   3  119.45    5.94
  -2   1   2   91.05    5.89
  -2   1   2  111.76    5.07
   2  -1  -2   94.55    8.69
  -2   1   2  119.94    6.48
  -2   1   2  103.29    5.84
  -2   1   1   43.34    6.53
   2  -1  -1   42.37    6.33
   2  -1  -1   58.22    9.21
  -2   1   1   63.42    9.45
   2  -1  -1   59.74    8.73
  -2   1   1   52.80    7.99
  -2   1   0   58.99    9.02
   2  -1   0   62.69   10.38
   2  -1   0   90.28   13.73
  -2   1   0   87.26   12.78
   2  -1   0   66.81    9.61
  -2   1  -1   -0.16    1.20
   2  -1   1    0.57    0.94
  -2   1  -1    0.55    2.18
   2  -1   1    0.00    1.25
  -2   1  -2  418.62   48.80
   2  -1   2  366.50   44.19
  -2   1  -2  547.84   62.29
   2  -1   2  421.39   46.92
  -2   1  -2  414.40   47.05
  -2   1  -3   99.25    7.57
   2  -1   3   88.17    6.28
  -2   1  -3  119.83    6.90
   2  -1   3   95.46    5.52
  -2   1  -3   87.64    4.87
  -2   1  -4    9.65    1.91
   2  -1   4    8.13    1.64
   2  -1   4   10.67    2.12
  -2   1  -4   10.43    2.30
   2  -1   4   12.59    1.99
  -2   1  -4    9.18    1.44
  -2   1  -5    7.96    1.85
   2  -1   5    9.59    1.72
   2  -1   5    9.29    2.18
  -2   1  -5    8.36    2.15
   2  -1   5    9.01    1.78
  -2   1  -5    6.92    1.24
  -2   1  -6   20.28    3.29
   2  -1   6   19.16    2.77
   2  -1   6   21.18    3.50
   2  -1   6   21.19    2.95
  -2   1  -6   16.52    2.08
  -2   1  -7   64.30    5.45
   2  -1   7   89.27    6.43
   2  -1   7   75.58    5.36
  -2   1  -7   68.25    3.82
  -2   1  -8   13.72    2.64
   2  -1   8   14.27    2.94
   2  -1   8   10.32    1.83
  -2   1  -9   46.53    4.95
   2  -1   9   57.18    5.08
  -2   1 -10    2.86    1.63
   2  -1  10    1.88    1.92
  -2   1 -11   -0.16    1.54
   2  -1  11    0.48    1.68
  -2   1 -12   16.01    3.18
   2  -1  12   12.86    2.84
  -2   1 -13    2.09    1.92
   2  -1  13    0.61    2.03
   2  -1  14   18.83    2.85
   2  -1  15    9.79    2.80
  -2   0  12    7.79    2.33
  -2   0  11   13.15    2.30
  -2   0  11   16.66    3.17
  -2   0  10    0.61    1.24
  -2   0  10    0.08    2.01
  -2   0  10   -0.56    0.97
  -2   0   9   43.77    3.99
  -2   0   9   58.49    5.35
  -2   0   9   40.61    3.64
  -2   0   8    0.24    1.03
  -2   0   8    0.65    1.18
  -2   0   8    0.15    1.80
  -2   0   8    0.55    1.23
  -2   0   8   -0.02    1.15
  -2   0   7    0.00    0.90
   2   0  -7    0.83    1.44
  -2   0   7   -0.34    1.07
  -2   0   7   -0.10    1.03
   2   0  -6    7.98    1.75
  -2   0   6    9.65    1.61
   2   0  -6   13.89    2.07
  -2   0   6   10.18    2.09
  -2   0   6    7.58    1.66
  -2   0   6    6.64    1.45
   2   0  -5    6.71    1.71
  -2   0   5    7.19    1.59
   2   0  -5   10.94    2.12
  -2   0   5    8.87    2.14
  -2   0   5    7.43    1.82
  -2   0   5    6.70    1.55
  -2   0   4  132.80    8.96
  -2   0   4  161.87    9.77
  -2   0   4  146.62    9.22
  -2   0   3  161.94    7.39
   2   0  -3  179.11   19.17
  -2   0   3  159.02    7.76
  -2   0   2    4.26    1.40
  -2   0   2    7.83    1.70
   2   0  -2    6.32    1.90
  -2   0   2    7.69    2.10
  -2   0   2    6.10    1.73
   2   0  -1    7.08    2.25
  -2   0   1    6.76    2.23
   2   0  -1    8.42    2.08
  -2   0   1    5.03    1.69
   2   0   0  378.43   42.79
  -2   0   0  465.39   51.75
   2   0   0  491.75   55.79
  -2   0  -1   54.39    8.25
   2   0   1   48.34    7.15
  -2   0  -1   69.63   10.51
   2   0   1   64.32    9.31
  -2   0  -2   77.03   11.52
   2   0   2   74.48   11.19
   2   0   2   79.79   12.06
  -2   0  -2  108.02   15.54
   2   0   2   86.52   12.28
  -2   0  -2   80.92   11.55
  -2   0  -3  140.70   17.67
   2   0   3  127.13    8.16
   2   0   3  141.30   17.69
  -2   0  -3  169.21   20.28
   2   0   3  152.16   17.46
  -2   0  -3  127.72    7.14
  -2   0  -4   28.17    3.09
   2   0   4   28.43    2.93
   2   0   4   24.35    3.45
  -2   0  -4   29.39    3.52
   2   0   4   30.57    2.90
  -2   0  -4   30.06    2.71
  -2   0  -5   29.06    3.58
   2   0   5   24.55    2.71
   2   0   5   32.36    3.41
   2   0   5   36.97    3.17
  -2   0  -5   27.54    2.39
  -2   0  -6  114.40   10.07
   2   0   6  116.27    8.19
   2   0   6  114.16    9.22
   2   0   6  110.14    7.39
  -2   0  -6   86.10    5.60
  -2   0  -7   19.46    2.65
   2   0   7   19.53    2.72
  -2   0  -7   18.50    2.54
  -2   0  -8  244.86   29.74
   2   0   8  251.44    9.00
  -2   0  -9    7.78    2.02
   2   0   9    7.21    2.33
  -2   0 -10  106.00   14.90
   2   0  10  137.23   17.25
  -2   0 -11   -0.13    1.47
  -2   0 -12    9.08    2.21
   2   0  12    8.51    2.43
  -2   0 -13   20.33    3.87
   2   0  13   22.16    4.09
   2   0  14   -0.92    1.78
   2   0  15   10.70    2.62
   2   0  15    6.93    2.49
  -2  -1  13   10.15    2.80
  -2  -1  12   48.45    8.65
  -2  -1  12   54.93    9.99
   2   1 -11   66.77    7.04
  -2  -1  11   72.28    7.88
   2   1 -10    2.75    1.70
  -2  -1  10    3.57    2.12
  -2  -1  10    3.19    1.26
   2   1  -9   -0.26    1.53
  -2  -1   9   -0.79    1.88
  -2  -1   9    0.22    1.05
   2   1  -8   40.23    5.69
  -2  -1   8   36.55    5.02
  -2  -1   8   53.59    7.38
  -2  -1   8   33.49    4.73
  -2  -1   8   33.67    4.69
   2   1  -7    0.39    1.40
  -2  -1   7   -0.63    0.92
   2   1  -7    0.61    1.50
  -2  -1   7    0.38    1.39
  -2  -1   7   -0.45    1.03
  -2  -1   7    0.73    1.13
   2   1  -6  109.38   11.42
  -2  -1   6  113.34   11.59
   2   1  -6  158.54   18.09
  -2  -1   6  148.39   15.17
  -2  -1   6  101.42   10.65
  -2  -1   6  103.88   10.82
  -2  -1   5  409.70   36.33
  -2  -1   5  497.67   44.23
  -2  -1   5  392.17   34.76
   2   1  -4  125.58    8.14
  -2  -1   4  128.37    7.93
  -2  -1   4  153.71    9.78
  -2  -1   4  113.78    7.64
  -2  -1   4  117.35    7.48
   2   1  -3  126.56    6.20
  -2  -1   3  116.13    5.56
  -2  -1   3  156.31    7.94
  -2  -1   3  137.51    6.44
  -2  -1   3  130.97    6.15
   2   1  -2  299.11   11.00
  -2  -1   2  327.19   11.23
   2   1  -2  365.11   18.46
  -2  -1   2  318.82   11.85
   2   1  -1   13.33    2.56
  -2  -1   1   12.81    2.39
  -2  -1   1   13.79    3.00
  -2  -1   1   10.67    2.39
  -2  -1   1   11.69    2.36
   2   1   0  326.53   37.49
  -2  -1   0  426.58   47.19
  -2  -1   0  342.53   38.26
  -2  -1   0  275.04   30.92
  -2  -1   0  295.28   32.95
   2   1   1   35.35    5.67
   2   1   1   32.82    5.14
   2   1   1   41.68    6.79
  -2  -1  -1   34.38    5.82
   2   1   2   84.23   12.63
   2   1   2   85.02   12.43
   2   1   2  108.55   16.17
  -2  -1  -2  111.25   15.96
  -2  -1  -2   94.05   13.31
  -2  -1  -2   81.94   11.58
   2   1   3  230.74   27.52
   2   1   3  216.43   25.67
   2   1   3  257.81   29.92
  -2  -1  -3  280.85   31.88
  -2  -1  -3  209.27   23.64
  -2  -1  -3  191.35   21.70
  -2  -1  -4  768.93   31.41
   2   1   4  968.79   48.71
   2   1   4  991.75   39.72
  -2  -1  -4  923.85   30.07
  -2  -1  -4  779.58   25.26
  -2  -1  -5  476.10   26.57
   2   1   5  498.28   23.52
   2   1   5  507.03   18.78
  -2  -1  -5  401.35   15.49
  -2  -1  -5  430.67   14.67
  -2  -1  -6    3.69    1.56
   2   1   6    4.12    1.56
   2   1   6    5.03    1.97
  -2  -1  -6    4.07    1.90
  -2  -1  -6    4.01    1.66
  -2  -1  -6    4.90    1.60
  -2  -1  -7    5.24    1.79
   2   1   7    4.63    1.92
  -2  -1  -7    5.18    1.89
  -2  -1  -8    1.69    1.53
   2   1   8    3.06    1.92
  -2  -1  -8    3.04    1.81
  -2  -1  -9   20.87    3.30
   2   1   9   23.31    3.49
  -2  -1 -10   36.89    4.03
   2   1  10   47.33    4.71
  -2  -1 -11   24.19    3.45
   2   1  11   30.50    3.67
   2   1  12   17.43    2.59
   2   1  12   15.79    2.98
   2   1  13    3.90    1.87
   2   1  13    1.31    2.25
   2   1  14   34.11    6.45
   2   1  14   28.68    5.77
   2   1  15    2.31    1.98
   2   1  15   -0.31    1.85
   2   2 -13    3.03    1.90
  -2  -2  13    2.60    2.16
   2   2 -12    9.74    2.14
  -2  -2  12    7.96    2.43
   2   2 -11   21.63    3.89
  -2  -2  11   20.20    4.06
   2   2 -10   20.97    3.39
  -2  -2  10   17.08    3.47
  -2  -2  10   16.45    2.57
   2   2  -9   21.85    2.66
  -2  -2   9   21.42    3.24
  -2  -2   9   17.05    1.87
   2   2  -8    0.93    1.39
  -2  -2   8    0.42    1.02
  -2  -2   8   -0.12    1.56
  -2  -2   8    0.67    1.13
   2   2  -7   15.54    2.21
  -2  -2   7   14.11    1.76
  -2  -2   7   13.99    1.92
  -2  -2   7   13.81    1.87
   2   2  -6    4.63    1.50
  -2  -2   6    3.34    1.22
   2   2  -6    3.05    1.73
  -2  -2   6    3.02    1.59
  -2  -2   6    2.65    1.32
  -2  -2   6    3.15    1.28
   2   2  -5    7.71    1.60
  -2  -2   5    6.73    1.42
   2   2  -5   12.89    2.18
  -2  -2   5    8.13    1.93
  -2  -2   5    6.23    1.56
  -2  -2   5    5.55    1.40
   2   2  -4  379.36   33.84
  -2  -2   4  371.09   33.02
  -2  -2   4  413.72   37.82
  -2  -2   4  336.03   30.73
  -2  -2   4  326.03   29.29
   2   2  -3    6.04    1.43
  -2  -2   3    6.73    1.40
  -2  -2   3    7.75    2.18
  -2  -2   3    5.47    1.43
   2   2  -2  174.27    7.10
  -2  -2   2  164.36    7.42
  -2  -2   2  173.16    8.86
  -2  -2   2  154.66    7.64
   2   2  -1  517.74   56.78
  -2  -2   1  426.13   47.93
   2   2  -1  420.00   90.40
  -2  -2   1  569.59   63.05
  -2  -2   1  451.09   50.30
   2   2  -1  422.52   46.64
   2   2   0   23.12    3.74
  -2  -2   0   14.98    2.63
   2   2   0   27.41    4.74
  -2  -2   0   23.88    4.33
  -2  -2   0   17.49    3.04
   2   2   0   18.83    3.23
   2   2   1  201.42   24.07
  -2  -2  -1  215.89   25.17
   2   2   1  213.43   26.83
  -2  -2  -1  188.21   21.54
   2   2   1  229.53   25.93
   2   2   2    1.57    1.26
  -2  -2  -2    1.59    1.41
   2   2   2    1.89    2.19
  -2  -2  -2    1.61    1.16
   2   2   2    1.00    1.29
   2   2   3  138.39   16.06
   2   2   3  121.96    7.33
   2   2   3  123.83    6.98
  -2  -2  -3  115.88    5.64
   2   2   3  120.86    5.96
   2   2   4  208.82   14.91
   2   2   4  177.57    8.54
  -2  -2  -4  228.30   12.94
  -2  -2  -4  185.33    7.89
  -2  -2  -4  183.68    7.58
   2   2   5   45.12    3.95
   2   2   5   32.07    3.44
   2   2   5   46.27    4.13
  -2  -2  -5   47.86    4.54
  -2  -2  -5   37.97    3.04
  -2  -2  -5   34.10    2.47
   2   2   6    1.39    1.47
   2   2   6    1.61    1.60
  -2  -2  -6    2.83    1.95
  -2  -2  -6    1.16    1.13
  -2  -2  -6    0.90    0.64
   2   2   7    0.77    1.58
  -2  -2  -7    0.66    1.63
  -2  -2  -7    0.27    0.69
  -2  -2  -7    0.28    0.67
   2   2   8    2.38    1.77
  -2  -2  -8    2.32    1.69
   2   2   9   86.81    9.18
   2   2   9   88.88    9.84
  -2  -2  -9   94.64   10.24
   2   2  10  244.43   14.21
   2   2  10  258.07   14.80
   2   2  11    2.69    1.76
   2   2  11    2.22    1.73
   2   2  12   -1.22    1.29
   2   2  12   -0.21    1.94
   2   2  13    3.84    1.92
   2   2  13    4.78    2.36
   2   2  14   -1.03    1.91
   2   2  14   -1.76    2.00
   2   2  15    0.75    1.75
   2   2  15    0.10    1.90
   2   3 -13   -0.85    1.75
  -2  -3  13    1.74    2.44
   2   3 -12    2.06    1.83
  -2  -3  12    3.91    2.51
   2   3 -11    7.69    2.15
  -2  -3  11    8.01    2.66
   2   3 -10   40.06    4.76
  -2  -3  10   49.95    6.02
  -2  -3  10   36.17    4.00
   2   3  -9    7.62    2.01
  -2  -3   9    9.93    2.58
  -2  -3   9    7.17    1.49
   2   3  -8    4.03    1.64
  -2  -3   8    3.48    2.23
  -2  -3   8    3.38    1.27
   2   3  -7   -0.41    1.26
  -2  -3   7    0.62    0.95
  -2  -3   7    0.89    1.89
  -2  -3   7   -0.18    1.12
  -2  -3   7   -0.76    0.94
   2   3  -6   35.25    4.34
  -2  -3   6   26.72    3.32
   2   3  -6   37.41    5.27
  -2  -3   6   27.83    3.60
  -2  -3   6   27.75    3.47
   2   3  -5   56.16    6.26
  -2  -3   5   44.65    5.15
   2   3  -5   67.91    8.55
  -2  -3   5   39.97    4.95
  -2  -3   5   41.81    4.87
   2   3  -5   46.31    5.20
   2   3  -4  161.79   14.90
  -2  -3   4  122.09   11.61
  -2  -3   4  141.95   14.09
  -2  -3   4  120.26   11.33
   2   3  -4  123.01   11.51
   2   3  -3  623.10   34.67
  -2  -3   3  572.37   33.42
  -2  -3   3  646.86   40.90
  -2  -3   3  536.61   29.81
   2   3  -3  510.12   27.93
   2   3  -2   78.76    4.49
  -2  -3   2   68.53    4.22
   2   3  -2   66.21   10.27
  -2  -3   2   87.11    5.76
  -2  -3   2   63.10    3.70
   2   3  -1  250.38   10.46
  -2  -3   1  212.68   10.17
   2   3  -1  235.80   13.54
  -2  -3   1  216.19   18.77
  -2  -3   1  225.48   10.14
   2   3  -1  217.16    8.45
   2   3   0  424.62   24.54
  -2  -3   0  367.15   17.40
   2   3   0  345.55   38.43
  -2  -3   0  346.94   28.36
  -2  -3   0  396.48   14.70
   2   3   0  383.66   14.24
   2   3   1  279.73   32.90
  -2  -3  -1  287.15   33.03
   2   3   1  312.92   35.97
   2   3   1  325.16   36.29
   2   3   2    0.97    1.07
  -2  -3  -2    0.60    1.02
   2   3   2    1.57    1.86
  -2  -3  -2    0.22    0.90
   2   3   2    0.74    1.16
   2   3   3   66.04    6.68
  -2  -3  -3   76.96    5.21
   2   3   3   95.33    7.24
  -2  -3  -3   69.84    5.56
  -2  -3  -3   68.07    3.81
   2   3   3   77.03    4.28
   2   3   4   11.07    1.74
  -2  -3  -4   11.37    1.98
   2   3   4   14.49    2.68
  -2  -3  -4   14.48    2.96
  -2  -3  -4   10.59    1.35
   2   3   4   12.71    1.86
   2   3   5    0.41    1.49
   2   3   5    1.04    1.67
  -2  -3  -5    0.94    1.76
  -2  -3  -5    0.46    0.62
   2   3   5    0.10    1.05
   2   3   6   73.78    5.94
  -2  -3  -6   71.19    6.18
  -2  -3  -6   49.75    3.34
   2   3   6   58.77    4.53
   2   3   7    0.89    1.52
  -2  -3  -7    0.21    1.54
  -2  -3  -7    0.38    0.68
   2   3   8    7.63    2.24
  -2  -3  -8    6.58    2.01
  -2  -3  -8    4.03    1.13
  -2  -3  -8    6.29    1.37
   2   3   9   72.03    7.49
   2   3   9   70.86    7.61
  -2  -3  -9   61.20    7.07
   2   3  10  203.00   11.72
   2   3  10  216.51   12.87
   2   3  11  163.17   10.77
   2   3  11  138.76   10.21
   2   3  12   31.71    3.81
   2   3  12   27.86    3.99
   2   3  13   82.87    4.51
   2   3  13   66.16    7.42
   2   3  14   26.58    5.21
   2   3  14   26.54    5.44
   2   3  15    2.64    1.94
   2   4 -12   13.43    2.76
  -2  -4  12   17.69    3.27
   2   4 -11    0.21    1.78
  -2  -4  11    0.08    2.31
   2   4 -10   10.97    2.18
  -2  -4  10   12.97    3.28
  -2  -4  10    9.29    1.55
   2   4  -9   39.10    5.13
  -2  -4   9   35.44    5.28
  -2  -4   9   32.10    4.03
   2   4  -8   62.33    8.91
  -2  -4   8   60.57    9.50
  -2  -4   8   51.14    7.21
   2   4  -7   39.39    5.57
  -2  -4   7   47.05    8.08
  -2  -4   7   39.36    5.32
   2   4  -6    4.52    1.48
  -2  -4   6    3.70    1.24
   2   4  -6    2.80    1.48
  -2  -4   6    5.43    1.37
   2   4  -5   23.24    3.18
  -2  -4   5   20.03    2.74
  -2  -4   5   18.52    2.61
   2   4  -5   18.78    2.60
   2   4  -4   35.00    3.08
  -2  -4   4   27.05    2.54
  -2  -4   4   33.58    3.29
  -2  -4   4   26.38    2.40
   2   4  -4   30.30    2.61
   2   4  -3  103.53   10.22
  -2  -4   3   84.72    8.45
   2   4  -3   83.83   14.78
  -2  -4   3   77.35    9.54
  -2  -4   3   78.99    7.80
   2   4  -3   74.86    7.27
   2   4  -2  108.62    7.26
  -2  -4   2   93.93    6.92
   2   4  -2  107.84   14.37
  -2  -4   2   86.04    8.70
  -2  -4   2   87.10    5.78
   2   4  -1   10.96    1.61
  -2  -4   1    8.96    1.58
   2   4  -1    8.25    2.21
  -2  -4   1    9.83    2.02
  -2  -4   1    9.01    1.42
   2   4  -1    8.43    1.37
   2   4   0  380.29   21.87
  -2  -4   0  300.48   17.81
   2   4   0  416.32   38.12
  -2  -4   0  306.44   13.26
   2   4   0  314.19   11.09
   2   4   1    5.87    1.38
  -2  -4  -1    4.39    1.25
   2   4   1    8.60    2.19
   2   4   1    5.92    1.29
   2   4   2    8.76    1.69
  -2  -4  -2    7.87    1.56
   2   4   2   10.80    2.41
  -2  -4  -2    7.94    2.13
  -2  -4  -2    8.50    1.32
   2   4   2    8.48    1.45
   2   4   3  214.36   19.54
  -2  -4  -3  206.37   11.29
   2   4   3  235.13   14.39
  -2  -4  -3  213.61   13.54
  -2  -4  -3  218.83    8.95
   2   4   3  237.12    9.52
   2   4   4   89.83    8.44
  -2  -4  -4   95.37    6.64
   2   4   4  103.00    6.16
  -2  -4  -4   98.31    7.35
  -2  -4  -4   84.57    4.00
   2   4   4  101.01    5.15
  -2  -4  -5  106.27    8.23
   2   4   5  148.72    9.89
  -2  -4  -5  125.51    9.74
  -2  -4  -5   98.10    5.92
   2   4   5  117.05    7.44
   2   4   6   41.70    5.12
  -2  -4  -6   40.13    5.29
  -2  -4  -6   32.04    3.32
   2   4   6   38.53    4.28
   2   4   7   30.08    3.39
  -2  -4  -7   24.03    3.38
  -2  -4  -7   24.62    2.03
   2   4   7   29.65    2.76
   2   4   8    0.10    1.14
   2   4   8    0.70    1.69
  -2  -4  -8    1.33    1.66
  -2  -4  -8    0.19    0.73
   2   4   8    1.12    1.08
   2   4   9   28.08    3.56
   2   4   9   28.90    4.03
  -2  -4  -9   25.20    3.64
  -2  -4  -9   26.35    3.54
   2   4   9   25.47    3.35
   2   4  10    3.72    1.61
   2   4  10    4.76    2.17
  -2  -4 -10    2.42    1.63
   2   4  11   82.31    6.34
   2   4  11   86.93    7.07
   2   4  12   16.56    2.45
   2   4  12   15.52    2.81
   2   4  13    1.18    1.73
   2   4  13    0.88    2.03
   2   4  14   41.36    7.54
   2   4  15   14.31    2.67
   2   5 -12    9.90    2.65
  -2  -5  12   10.30    2.99
   2   5 -11   16.77    2.88
  -2  -5  11   18.69    3.40
   2   5 -10    2.12    1.93
  -2  -5  10    2.41    2.12
   2   5  -9    4.87    1.73
  -2  -5   9    3.97    2.32
  -2  -5   9    5.33    1.42
   2   5  -8    4.86    1.84
  -2  -5   8    3.76    2.09
  -2  -5   8    3.19    1.24
   2   5  -7    0.25    1.43
  -2  -5   7    1.23    2.23
  -2  -5   7    2.36    1.24
   2   5  -6   12.19    2.01
  -2  -5   6   11.29    1.63
   2   5  -5  101.61    9.84
  -2  -5   5   73.72    7.50
   2   5  -5   89.47   14.45
  -2  -5   5   74.11    7.34
   2   5  -4    9.86    1.84
  -2  -5   4    6.53    1.59
   2   5  -4   10.19    2.38
  -2  -5   4    7.78    1.30
   2   5  -4    6.97    1.35
   2   5  -3  356.12   12.99
  -2  -5   3  290.41   16.47
   2   5  -3  299.92   66.91
  -2  -5   3  281.33   26.65
  -2  -5   3  304.19   14.37
   2   5  -3  302.62   13.81
   2   5  -2  595.73   30.69
  -2  -5   2  507.29   49.26
   2   5  -2  525.05   71.19
  -2  -5   2  511.95   45.33
   2   5  -1   67.37    5.91
  -2  -5   1   57.74    4.89
   2   5  -1   53.89   10.67
  -2  -5   1   62.72    4.57
   2   5   0  162.29   11.80
  -2  -5   0  140.16   11.15
   2   5   0  144.72   23.82
  -2  -5   0  130.29   13.62
  -2  -5   0  142.56    8.71
   2   5   0  144.91    8.50
   2   5   1   22.17    2.58
  -2  -5  -1   18.46    2.37
   2   5   1   22.77    3.68
  -2  -5  -1   20.99    3.47
   2   5   1   20.34    2.09
   2   5   2    3.55    1.14
  -2  -5  -2    2.55    1.10
   2   5   2    2.62    1.65
  -2  -5  -2    2.78    1.66
   2   5   2    3.54    1.07
   2   5   3   33.28    3.82
  -2  -5  -3   29.20    2.99
   2   5   3   33.98    4.26
  -2  -5  -3   34.09    4.13
  -2  -5  -3   30.17    2.41
   2   5   3   36.00    3.00
   2   5   4   30.97    3.48
  -2  -5  -4   25.68    2.86
   2   5   4   32.14    4.40
  -2  -5  -4   26.21    3.55
  -2  -5  -4   25.99    2.19
   2   5   4   31.65    2.77
  -2  -5  -5  103.83   10.90
   2   5   5  145.91   14.46
  -2  -5  -5  106.11   11.81
  -2  -5  -5  106.49    9.80
   2   5   5  119.81   11.17
  -2  -5  -6  137.92   14.41
   2   5   6  157.90   15.37
  -2  -5  -6  131.11   14.83
  -2  -5  -6  125.18   11.37
   2   5   6  156.19   14.40
  -2  -5  -7   73.74    6.59
   2   5   7   95.53    6.50
  -2  -5  -7   73.90    7.04
  -2  -5  -7   78.79    4.39
   2   5   7   92.58    5.48
   2   5   8    3.13    1.37
   2   5   8    3.28    1.65
  -2  -5  -8    2.46    1.71
  -2  -5  -8    2.33    0.87
   2   5   8    2.55    1.10
   2   5   9    1.30    1.25
   2   5   9    0.70    1.64
  -2  -5  -9    1.18    1.53
  -2  -5  -9    0.66    0.88
   2   5   9    0.90    1.00
   2   5  10   22.89    3.61
   2   5  10   20.23    3.62
  -2  -5 -10   17.88    3.48
  -2  -5 -10   23.83    3.69
   2   5  11  214.13   28.32
   2   5  11  182.75   24.59
   2   5  12    1.45    1.63
   2   5  12    3.77    1.95
   2   5  13    6.66    1.93
   2   5  13    9.24    2.34
   2   5  14    2.45    1.82
   2   5  15    2.68    1.89
   2   6 -11   16.83    2.97
  -2  -6  11   14.54    3.26
   2   6 -10   -0.43    1.56
  -2  -6  10   -1.24    2.22
   2   6  -9    0.39    1.65
  -2  -6   9    0.16    2.33
  -2  -6   9    0.62    1.14
   2   6  -8    4.73    1.72
  -2  -6   8    4.03    2.39
  -2  -6   8    2.80    1.10
   2   6  -7    8.39    1.88
  -2  -6   7    3.64    2.00
  -2  -6   7    7.52    1.52
   2   6  -6    0.94    1.31
  -2  -6   6   -0.74    2.19
  -2  -6   6    0.03    1.02
   2   6  -5   11.06    1.90
   2   6  -5   10.41    2.54
  -2  -6   5    9.98    1.52
   2   6  -4   22.18    3.04
  -2  -6   4   16.04    2.07
   2   6  -4   24.60    4.24
  -2  -6   4   18.96    2.44
   2   6  -3    9.73    1.65
  -2  -6   3    6.28    1.55
   2   6  -3    5.84    2.65
  -2  -6   3    7.01    1.27
   2   6  -2   64.12    7.56
  -2  -6   2   47.10    5.68
   2   6  -2   58.35   12.39
  -2  -6   2   39.31    7.24
  -2  -6   2   58.43    6.21
   2   6  -2   50.53    5.50
   2   6  -1    1.01    1.13
  -2  -6   1    0.50    0.98
   2   6  -1    0.10    1.44
  -2  -6   1    1.07    1.51
  -2  -6   1    0.54    0.76
   2   6   0   54.71    6.00
  -2  -6   0   39.92    4.72
   2   6   0   47.53    9.11
  -2  -6   0   45.82    6.51
  -2  -6   0   45.03    4.60
   2   6   0   39.74    4.23
   2   6   1  672.25   49.76
  -2  -6  -1  470.29   49.53
   2   6   1  587.42   94.84
  -2  -6  -1  485.65   58.32
   2   6   1  530.33   46.57
   2   6   2  417.06   45.10
  -2  -6  -2  357.28   37.21
   2   6   2  335.86   57.06
  -2  -6  -2  331.02   38.66
   2   6   2  384.99   33.98
   2   6   3  139.25   15.88
  -2  -6  -3  112.81   12.05
   2   6   3  104.54   17.02
  -2  -6  -3  119.80   15.16
  -2  -6  -3  117.00   10.79
   2   6   3  138.12   12.73
   2   6   4  158.82   17.64
  -2  -6  -4  120.02   13.75
   2   6   4  181.11   24.60
  -2  -6  -4  143.73   15.13
  -2  -6  -4  144.79   13.26
   2   6   4  160.07   14.54
  -2  -6  -5    1.54    1.13
   2   6   5    2.48    1.80
  -2  -6  -5    0.63    1.60
  -2  -6  -5    2.21    0.82
   2   6   5    2.33    1.01
  -2  -6  -6    0.66    1.09
   2   6   6    0.77    1.50
  -2  -6  -6    1.20    1.71
  -2  -6  -6    0.57    0.78
   2   6   6    0.67    0.84
   2   6   7    1.38    1.55
  -2  -6  -7    0.85    1.39
  -2  -6  -7    0.48    0.78
   2   6   7    0.68    0.83
   2   6   8   39.23    5.25
   2   6   8   37.98    4.72
  -2  -6  -8   32.17    4.52
  -2  -6  -8   36.24    3.86
   2   6   8   43.06    4.51
   2   6   9    2.07    1.39
   2   6   9    2.95    1.57
  -2  -6  -9    1.56    1.40
  -2  -6  -9    1.88    0.99
   2   6  10   39.60    3.99
   2   6  10   35.12    4.00
  -2  -6 -10   27.94    3.39
  -2  -6 -10   34.57    3.27
   2   6  11   62.32    8.88
   2   6  11   52.54    7.91
  -2  -6 -11   45.36    7.48
  -2  -6 -11   65.14    9.21
   2   6  12    1.99    1.69
   2   6  13    1.13    1.75
   2   6  14    0.70    1.53
   2   6  15    0.69    1.83
   2   7 -10    0.30    1.64
  -2  -7  10    0.98    2.45
   2   7  -9   69.91   12.50
  -2  -7   9   57.15   11.80
  -2  -7   9   67.39   11.59
   2   7  -8    5.32    1.68
  -2  -7   8    2.80    2.25
  -2  -7   8    5.70    1.45
   2   7  -7   17.16    2.93
  -2  -7   7   14.86    4.13
  -2  -7   7   17.64    2.60
   2   7  -6   15.08    2.28
  -2  -7   6    9.30    3.00
  -2  -7   6   14.61    1.73
   2   7  -5   92.11    8.10
  -2  -7   5   54.32   14.69
  -2  -7   5   85.42    5.95
   2   7  -4  121.44   15.75
   2   7  -4   67.28   20.17
  -2  -7   4  116.18   14.09
   2   7  -3   71.82    7.63
   2   7  -3   56.63   11.84
  -2  -7   3   64.39    6.27
   2   7  -2   15.62    2.48
  -2  -7   2    9.67    1.73
   2   7  -2    9.94    2.53
  -2  -7   2   13.92    1.96
   2   7  -1   13.86    2.10
  -2  -7   1    8.84    1.70
   2   7  -1   10.67    3.39
  -2  -7   1   13.13    1.44
   2   7   0   92.56   10.37
  -2  -7   0   67.66    7.97
   2   7   0   75.88   16.29
  -2  -7   0   64.31    9.42
  -2  -7   0   75.03    7.74
   2   7   1    2.81    1.31
  -2  -7  -1    1.81    1.13
   2   7   1    2.73    1.69
  -2  -7  -1    1.98    1.62
   2   7   1    2.40    0.99
   2   7   2   -0.06    1.06
  -2  -7  -2    0.30    0.96
   2   7   2    0.07    1.46
  -2  -7  -2    0.03    1.41
   2   7   2   -0.51    0.77
   2   7   3   43.41    4.95
  -2  -7  -3   36.93    3.91
   2   7   3   36.40    6.54
  -2  -7  -3   35.94    4.40
  -2  -7  -3   45.76    2.96
   2   7   3   45.92    3.19
  -2  -7  -4  159.65   13.58
   2   7   4  204.33   31.68
  -2  -7  -4  188.00   14.15
  -2  -7  -4  216.58   10.28
   2   7   4  213.96   10.15
   2   7   5    2.89    1.80
  -2  -7  -5    1.14    1.56
  -2  -7  -5    2.74    0.95
   2   7   5    2.21    1.02
   2   7   6    0.62    1.65
  -2  -7  -6    1.56    1.50
  -2  -7  -6    1.73    0.85
   2   7   6    0.80    0.86
   2   7   7    9.41    2.43
  -2  -7  -7    8.11    2.08
  -2  -7  -7   10.34    1.35
   2   7   7   11.50    1.46
   2   7   8    6.76    1.69
   2   7   8    4.75    1.88
  -2  -7  -8    5.18    1.86
  -2  -7  -8    7.21    1.28
   2   7   8    6.70    1.17
   2   7   9    3.32    1.52
   2   7   9    4.51    1.82
  -2  -7  -9    1.78    1.57
  -2  -7  -9    3.01    1.05
   2   7  10   27.80    2.96
   2   7  10   27.80    3.15
  -2  -7 -10   17.60    3.45
  -2  -7 -10   28.27    2.81
   2   7  11    1.84    1.48
  -2  -7 -11    1.10    1.17
   2   7  12    4.70    1.57
   2   7  13   -0.09    1.61
   2   7  14   15.91    2.38
   2   7  15    0.32    1.79
   2   8 -10   20.11    3.50
  -2  -8  10   14.27    3.89
   2   8  -9   17.61    3.01
  -2  -8   9   16.07    3.96
  -2  -8   9   22.18    2.26
   2   8  -8   12.64    2.21
  -2  -8   8    7.47    3.26
  -2  -8   8   12.94    1.66
   2   8  -7    0.82    1.60
  -2  -8   7   -0.84    2.35
  -2  -8   7   -0.85    0.94
   2   8  -6    0.41    1.56
  -2  -8   6   -0.24    1.10
   2   8  -5    3.73    1.64
  -2  -8   5    4.20    1.15
   2   8  -4    5.87    1.60
  -2  -8   4    6.04    1.29
   2   8  -3  155.57   20.38
   2   8  -3  126.42   32.02
  -2  -8   3  147.44   17.76
   2   8  -2    2.44    1.17
   2   8  -2    1.11    1.78
  -2  -8   2    1.04    1.00
   2   8  -1  130.99   13.61
   2   8  -1   70.08   20.95
  -2  -8   1  120.32   11.04
   2   8   0  139.26   16.56
   2   8   0   95.18   24.92
  -2  -8   0  124.78   12.29
   2   8   1   14.77    2.63
   2   8   1   13.27    3.87
  -2  -8  -1   13.29    2.91
  -2  -8  -1   11.38    1.21
   2   8   2   15.99    2.54
   2   8   2    9.22    2.77
  -2  -8  -2   10.18    2.53
   2   8   3    0.65    1.21
   2   8   3    0.42    1.58
  -2  -8  -3   -0.03    1.42
  -2  -8  -3    0.38    0.77
   2   8   4   27.69    5.35
  -2  -8  -4   25.05    4.11
  -2  -8  -4   27.70    3.11
   2   8   5   21.54    4.31
  -2  -8  -5   28.43    4.35
  -2  -8  -5   32.31    3.59
   2   8   5   34.31    3.85
   2   8   6   31.66    5.75
  -2  -8  -6   28.60    4.31
  -2  -8  -6   38.34    3.93
   2   8   6   40.57    4.15
   2   8   7   11.39    2.61
   2   8   7   10.31    2.61
  -2  -8  -7    9.36    2.21
  -2  -8  -7   14.85    1.56
   2   8   7   17.32    1.67
   2   8   8   83.39   12.97
   2   8   8   73.02   11.99
  -2  -8  -8   54.24    8.39
  -2  -8  -8   81.91   10.16
   2   8   8   79.83    9.80
   2   8   9    5.92    1.84
   2   8   9    4.67    2.02
  -2  -8  -9    5.75    1.85
  -2  -8  -9    7.31    1.45
   2   8  10    0.07    1.18
  -2  -8 -10    0.35    0.97
   2   8  11    2.81    1.57
  -2  -8 -11    1.97    1.11
   2   8  12    5.41    1.79
   2   8  13    9.21    2.04
   2   8  14    0.88    1.51
   2   8  15   -0.73    1.70
   2   9  -9   27.91    4.41
  -2  -9   9   25.43    5.13
   2   9  -8   16.52    2.74
  -2  -9   8   11.68    3.42
  -2  -9   8   19.12    2.16
   2   9  -7    3.09    1.85
  -2  -9   7    2.83    1.27
   2   9  -6   31.35    5.14
  -2  -9   6   42.24    5.90
   2   9  -5    1.75    1.51
  -2  -9   5   -0.06    2.16
  -2  -9   5    0.81    1.14
   2   9  -4    4.17    1.52
  -2  -9   4    4.11    2.69
  -2  -9   4    6.71    1.41
   2   9  -3   34.86    5.63
   2   9  -3   20.27    3.88
  -2  -9   3   34.65    5.02
   2   9  -2    3.33    1.39
   2   9  -2    1.33    1.67
  -2  -9   2    4.40    1.14
   2   9  -1    4.05    1.47
   2   9  -1    2.12    2.05
  -2  -9   1    4.01    0.98
   2   9   0    2.41    1.46
   2   9   0    2.69    2.00
  -2  -9   0    3.32    0.99
   2   9   1    9.92    1.70
   2   9   1    6.49    2.41
  -2  -9  -1    8.17    1.25
   2   9   2    0.24    1.39
   2   9   2    0.39    1.66
  -2  -9  -2   -1.12    1.28
   2   9   3  124.10    9.84
   2   9   3   80.01   16.28
  -2  -9  -3   79.11    9.72
  -2  -9  -3  100.61    6.17
   2   9   4    6.76    2.20
  -2  -9  -4    6.17    1.94
  -2  -9  -4    7.99    1.15
   2   9   5   48.11    6.42
  -2  -9  -5   47.14    5.32
  -2  -9  -5   65.00    4.22
   2   9   6    1.82    1.70
  -2  -9  -6    2.16    1.74
  -2  -9  -6    3.86    1.06
   2   9   7    0.55    1.20
   2   9   7   -0.37    1.45
  -2  -9  -7   -0.76    1.35
  -2  -9  -7    0.21    0.91
   2   9   8    5.99    1.61
   2   9   8    4.80    1.96
  -2  -9  -8    4.33    1.77
  -2  -9  -8    7.33    1.43
   2   9   9    7.64    1.75
  -2  -9  -9    6.26    1.28
   2   9  10    4.57    1.48
  -2  -9 -10    4.41    1.24
   2   9  11   -0.27    1.25
  -2  -9 -11    0.38    1.00
   2   9  12   15.94    3.10
   2   9  13   -0.08    1.47
   2   9  14   -0.87    1.63
   2  10  -8   10.15    2.63
  -2 -10   8   11.42    2.18
   2  10  -7   -0.34    1.48
  -2 -10   7   -0.63    2.33
  -2 -10   7    0.02    1.36
   2  10  -6    1.00    1.77
  -2 -10   6   -1.40    2.68
  -2 -10   6    1.59    1.34
   2  10  -5   38.63    6.02
  -2 -10   5   34.50    8.33
  -2 -10   5   51.10    7.04
   2  10  -4    8.43    1.87
  -2 -10   4    2.51    2.59
  -2 -10   4    7.87    1.49
   2  10  -3    4.81    1.59
  -2 -10   3    4.51    2.93
  -2 -10   3    5.37    1.35
   2  10  -2    5.29    1.44
  -2 -10   2    5.86    1.24
   2  10  -1   -0.92    1.25
   2  10  -1    0.41    1.69
  -2 -10   1   -0.27    1.01
   2  10   0   38.33    3.75
   2  10   0   33.30    6.50
  -2 -10   0   34.39    2.91
   2  10   1    2.28    1.45
   2  10   1    0.85    1.81
  -2 -10  -1    2.01    0.95
   2  10   2    5.13    1.48
   2  10   2    2.84    1.89
   2  10   3   -0.26    1.17
   2  10   3    0.36    1.69
  -2 -10  -3    1.51    1.66
  -2 -10  -3    0.72    0.98
   2  10   4   -0.55    1.70
  -2 -10  -4   -0.14    1.20
  -2 -10  -4    0.56    0.94
   2  10   5   59.67    8.78
  -2 -10  -5   57.63    6.71
  -2 -10  -5   92.17    6.25
   2  10   6    8.98    2.47
  -2 -10  -6   11.08    2.57
  -2 -10  -6   15.17    2.06
   2  10   7    4.95    1.49
  -2 -10  -7    2.84    1.69
  -2 -10  -7    5.77    1.22
   2  10   8    1.21    1.32
  -2 -10  -8    1.01    0.93
   2  10   9   36.37    4.75
  -2 -10  -9   32.61    4.09
   2  10  10    9.19    1.86
  -2 -10 -10    7.80    1.46
   2  10  11   15.67    3.00
  -2 -10 -11   16.14    2.84
   2  10  12   -0.16    1.58
   2  10  13    4.63    2.08
   2  10  14    0.62    1.69
   2  11  -7    5.71    2.22
  -2 -11   7    8.40    3.35
  -2 -11   7    5.72    1.57
   2  11  -6    3.26    1.71
  -2 -11   6    1.29    3.02
  -2 -11   6    2.94    1.39
   2  11  -5   -0.36    1.65
  -2 -11   5    0.76    2.88
  -2 -11   5    0.05    1.32
   2  11  -4   40.06    7.75
  -2 -11   4   41.11   10.49
  -2 -11   4   50.13    8.70
   2  11  -3   11.80    2.62
  -2 -11   3    6.08    2.98
  -2 -11   3   11.65    2.21
   2  11  -2    0.29    1.42
  -2 -11   2   -1.88    2.17
  -2 -11   2    0.29    1.03
   2  11  -1    3.24    1.59
  -2 -11   1    2.56    2.78
  -2 -11   1    5.36    1.26
   2  11   0    1.30    1.22
   2  11   0    0.40    1.72
  -2 -11   0    3.07    1.19
   2  11   1   11.70    2.11
   2  11   1    5.52    2.45
  -2 -11  -1   11.62    1.48
   2  11   2    5.99    1.54
   2  11   2    3.75    1.96
   2  11   3    1.55    1.38
   2  11   3    1.22    1.71
  -2 -11  -3    1.24    0.86
   2  11   4    1.15    1.53
  -2 -11  -4    0.66    1.44
  -2 -11  -4    0.88    1.04
   2  11   5   17.51    3.84
  -2 -11  -5   36.86    3.57
  -2 -11  -6   51.17    4.82
   2  11   7    3.54    1.69
  -2 -11  -7    3.55    1.23
   2  11   8   -1.01    1.44
  -2 -11  -8    0.07    0.98
   2  11   9    0.49    1.29
  -2 -11  -9    1.60    1.08
   2  11  10    6.02    1.91
  -2 -11 -10    3.58    1.25
   2  11  11   -0.10    1.53
  -2 -11 -11    0.06    1.05
   2  11  12   11.90    2.23
   2  11  13    3.23    1.61
   2  12  -5    0.67    1.67
  -2 -12   5    2.47    2.72
  -2 -12   5    1.14    1.33
   2  12  -4   16.42    2.41
  -2 -12   4   19.41    5.17
  -2 -12   4   20.72    2.18
   2  12  -3    7.15    1.89
  -2 -12   3    4.39    3.47
  -2 -12   3    5.93    1.44
   2  12  -2   -0.51    1.40
  -2 -12   2   -1.76    2.43
  -2 -12   2    0.53    1.22
   2  12  -1    1.97    1.35
  -2 -12   1    0.38    2.89
  -2 -12   1    1.25    1.08
   2  12   0    0.87    1.42
  -2 -12   0    1.55    2.80
  -2 -12   0    0.64    1.16
   2  12   1    7.86    1.81
  -2 -12  -1    7.46    3.16
  -2 -12  -1    6.29    1.36
   2  12   2    9.20    1.75
   2  12   2    7.14    2.20
   2  12   3   34.14    4.66
   2  12   3   25.83    4.78
  -2 -12  -3   37.66    4.46
  -2 -12  -4   43.81    5.13
  -2 -12  -5    6.41    1.22
  -2 -12  -6    1.06    0.90
   2  12   7   11.79    2.31
  -2 -12  -7   10.34    1.57
   2  12   8    1.37    1.62
  -2 -12  -8   -0.66    0.99
   2  12   9    4.25    1.70
  -2 -12  -9    2.63    1.13
   2  12  10    1.30    1.36
  -2 -12 -10    1.31    1.18
   2  12  11    0.71    1.65
  -2 -12 -11    0.69    1.14
   2  12  12    1.95    1.75
  -2 -13   4    2.99    3.25
   2  13  -3   10.21    2.47
  -2 -13   3   16.44    4.50
  -2 -13   3   13.43    2.24
   2  13  -2    4.97    1.78
  -2 -13   2    2.62    3.22
  -2 -13   2    5.49    1.48
   2  13  -1   24.13    2.84
  -2 -13   1   19.02    5.06
  -2 -13   1   29.39    2.46
   2  13   0    4.21    1.75
  -2 -13   0    3.27    3.16
  -2 -13   0    4.23    1.25
   2  13   1   16.19    3.45
  -2 -13  -1   10.96    3.63
  -2 -13  -1   17.84    3.44
   2  13   2    6.89    1.81
  -2 -13  -2    4.77    3.03
   2  13   3    0.08    1.50
  -2 -13  -3   -0.58    2.26
  -2 -13  -3   -0.59    0.91
  -2 -13  -4   10.37    3.80
  -2 -13  -4   19.84    3.11
  -2 -13  -5    8.39    1.38
  -2 -13  -6    2.17    1.20
   2  13   7    5.35    1.94
  -2 -13  -7    5.19    1.30
   2  13   8    3.23    1.66
  -2 -13  -8    1.94    1.14
   2  13   9    0.33    1.68
  -2 -13  -9    0.45    1.19
   2  13  10    5.74    1.94
  -2 -13 -10    4.41    1.44
   2  13  11    0.66    1.62
  -2 -13 -11   -0.09    1.11
   2  14  -1    1.93    1.54
  -2 -14   1    6.20    3.23
  -2 -14   1    1.87    1.44
   2  14   0    1.81    1.53
  -2 -14   0    0.17    3.00
  -2 -14   0    1.81    1.32
   2  14   1   18.66    2.64
  -2 -14  -1   17.85    4.71
  -2 -14  -1   24.16    2.59
   2  14   2    1.00    1.57
  -2 -14  -2    0.31    2.57
   2  14   3    1.43    1.66
  -2 -14  -3    3.57    2.62
  -2 -14  -3    3.17    1.25
  -2 -14  -4   31.82    2.50
  -2 -14  -5   25.71    2.22
   2  14   6    2.47    1.78
  -2 -14  -6    2.50    1.25
   2  14   7    4.46    1.88
  -2 -14  -7    3.38    1.21
   2  14   8    6.54    1.96
  -2 -14  -8    6.74    1.56
   2  14   9    1.57    1.85
  -2 -14  -9    1.11    1.15
   2  15   3   11.26    2.39
  -2 -15  -3    8.53    1.72
  -2 -15  -4    0.25    1.14
  -2 -15  -5    0.86    1.26
   3 -12  -3    1.73    1.73
  -3  12   2    2.28    1.38
   3 -12  -2    1.93    1.60
  -3  12   1   -1.36    1.35
   3 -12  -1    0.16    1.43
  -3  12   0    6.39    2.00
   3 -12   0    9.61    2.11
  -3  12  -1    5.07    1.87
   3 -12   1    5.60    1.84
  -3  12  -2    0.22    1.43
   3 -12   2    4.65    1.99
   3 -11  -7   16.17    2.87
   3 -11  -6    1.22    1.82
   3 -11  -5    0.28    1.53
  -3  11   3    5.57    1.59
   3 -11  -3    7.37    1.82
  -3  11   2   -0.31    1.24
   3 -11  -2    0.53    1.51
  -3  11   1    5.71    1.60
   3 -11  -1    8.54    1.95
  -3  11   0   -0.03    1.17
   3 -11   0    0.42    1.34
  -3  11  -1    0.44    1.54
   3 -11   1    0.44    1.77
   3 -11   1    1.01    1.65
  -3  11  -2    0.00    1.59
   3 -11   2   -1.72    1.70
   3 -11   2    0.29    1.40
  -3  11  -3    8.62    2.16
   3 -11   3    7.49    2.44
   3 -11   3   10.57    2.13
  -3  11  -4   -0.26    1.60
   3 -11   4    0.88    2.08
   3 -11   4    0.07    1.56
  -3  11  -5    1.52    2.02
   3 -11   5    0.05    1.98
   3 -11   5    1.21    1.74
   3 -10  -8   -0.16    1.80
   3 -10  -7   -1.15    1.59
   3 -10  -6    1.70    1.44
   3 -10  -5    2.38    1.63
  -3  10   4   19.47    3.92
  -3  10   3    4.69    1.38
   3 -10  -3    7.43    1.91
  -3  10   2    3.26    1.30
   3 -10  -2    4.16    1.66
  -3  10   1    0.99    1.20
   3 -10  -1    3.20    1.66
  -3  10   0   13.79    2.67
   3 -10   0   13.54    3.25
   3 -10   0   16.92    3.23
  -3  10  -1   12.24    2.67
   3 -10   1   13.60    3.36
   3 -10   1   14.62    2.88
  -3  10  -2   26.80    4.72
   3 -10   2   27.90    5.05
   3 -10   2   25.91    4.28
  -3  10  -3    2.61    1.83
   3 -10   3    1.63    1.93
   3 -10   3    3.41    1.56
  -3  10  -4   14.18    2.63
   3 -10   4    7.70    2.28
   3 -10   4    8.91    1.97
  -3  10  -5    6.89    2.30
   3 -10   5    6.31    2.35
   3 -10   5    5.48    1.64
  -3  10  -6    2.81    1.78
   3 -10   6    3.10    2.34
   3 -10   6    3.64    1.73
  -3  10  -7   -0.66    1.86
   3 -10   7    0.13    2.41
   3  -9 -10    1.93    1.79
   3  -9  -9    3.78    1.64
   3  -9  -8    5.57    1.87
   3  -9  -7    9.84    1.89
   3  -9  -6    9.36    1.89
   3  -9  -5    1.03    1.61
  -3   9   4    2.57    1.39
  -3   9   3    1.09    1.20
   3  -9  -3    2.34    1.32
  -3   9   2    1.02    1.17
   3  -9  -2    2.26    1.54
   3  -9  -2    2.46    1.55
  -3   9   1    5.53    1.54
   3  -9  -1    6.57    2.00
   3  -9  -1    5.39    1.58
  -3   9   0    2.80    1.46
   3  -9   0    5.07    1.99
   3  -9   0    4.73    1.43
  -3   9  -1   12.66    2.48
   3  -9   1    9.83    2.44
   3  -9   1   11.04    1.93
  -3   9  -2   30.51    4.36
   3  -9   2   22.84    3.76
   3  -9   2   25.76    3.50
  -3   9  -3    2.25    1.76
   3  -9   3    1.38    1.83
   3  -9   3    1.27    1.64
  -3   9  -4   25.43    4.70
   3  -9   4   23.48    4.55
   3  -9   4   29.36    4.65
  -3   9  -5   -0.71    1.71
   3  -9   5   -0.27    1.86
   3  -9   5    0.59    1.49
  -3   9  -6   12.42    2.63
   3  -9   6    9.88    2.70
   3  -9   6   10.04    1.93
  -3   9  -7    0.39    1.93
   3  -9   7    1.94    2.20
  -3   9  -8   10.90    2.72
   3  -9   8   12.48    3.31
   3  -8 -10    2.25    1.79
   3  -8  -9    4.40    1.88
   3  -8  -8   11.66    1.99
   3  -8  -7   12.81    2.72
   3  -8  -6    0.90    1.37
  -3   8   5    3.94    1.35
   3  -8  -5    6.31    1.78
  -3   8   4   29.25    3.77
  -3   8   3    5.79    1.50
   3  -8  -3    4.76    1.91
  -3   8   2   35.59    5.60
   3  -8  -2   29.31    5.41
   3  -8  -2   50.19    7.32
  -3   8   1    0.55    1.10
   3  -8  -1    0.53    1.30
   3  -8  -1    0.22    1.30
  -3   8   0   32.44    5.49
   3  -8   0   33.59    5.96
   3  -8   0   29.53    4.83
  -3   8  -1    2.38    1.49
   3  -8   1    3.47    1.96
   3  -8   1    1.17    1.39
  -3   8  -2  109.33   12.02
   3  -8   2  107.57   13.12
   3  -8   2  111.41   10.53
  -3   8  -3    6.05    1.98
   3  -8   3    4.48    2.10
   3  -8   3    4.22    1.49
  -3   8  -4   38.62    5.62
   3  -8   4   26.17    4.76
   3  -8   4   23.34    3.49
  -3   8  -5    1.99    1.84
   3  -8   5   -0.09    1.88
   3  -8   5    1.14    1.42
  -3   8  -6    6.87    2.25
   3  -8   6    5.46    2.35
   3  -8   6    4.93    1.51
  -3   8  -7   -1.26    1.63
   3  -8   7   -0.51    1.87
   3  -8   7   -0.65    1.14
  -3   8  -8   -0.85    1.72
   3  -8   8   -0.62    2.06
  -3   8  -9   -0.05    2.09
   3  -8   9    1.63    2.42
   3  -7 -11   17.65    3.22
   3  -7 -10    1.37    1.72
   3  -7  -9    1.21    1.62
   3  -7  -8    1.56    1.45
   3  -7  -7    2.60    1.47
   3  -7  -6   11.93    2.08
  -3   7   5   42.69    4.94
   3  -7  -5   46.65    5.12
   3  -7  -5   30.31    4.18
   3  -7  -5   62.36    6.14
  -3   7   4    0.44    1.11
   3  -7  -4    0.34    1.01
   3  -7  -4   -0.09    1.49
  -3   7   3   53.42    4.80
   3  -7  -3   54.59    4.97
   3  -7  -3   48.62    6.11
  -3   7   2    6.67    1.66
   3  -7  -2    6.48    1.52
   3  -7  -2    6.46    2.03
   3  -7  -2    9.17    2.09
  -3   7   1    8.28    1.55
   3  -7  -1    8.26    1.51
   3  -7  -1    7.66    2.08
   3  -7  -1   11.62    2.00
  -3   7   0    0.35    1.19
   3  -7   0    0.85    1.67
   3  -7   0    1.09    1.48
  -3   7  -1    6.69    1.78
   3  -7   1    4.11    1.98
  -3   7  -1    3.61    2.03
   3  -7   1    6.90    1.88
  -3   7  -2    7.87    2.06
   3  -7   2    7.67    2.37
   3  -7   2   10.23    2.16
  -3   7  -3   88.06   13.60
   3  -7   3   58.34    9.71
   3  -7   3   95.01   13.41
  -3   7  -4   65.80   10.29
   3  -7   4   54.24    9.54
   3  -7   4   79.96   11.31
  -3   7  -5    0.32    1.32
   3  -7   5   -1.52    1.55
   3  -7   5    0.02    1.19
  -3   7  -6    0.90    1.75
   3  -7   6    2.98    1.93
   3  -7   6    3.33    1.45
  -3   7  -7    1.15    1.78
   3  -7   7    1.39    1.79
   3  -7   7   -0.08    1.16
  -3   7  -8    7.04    2.12
   3  -7   8    1.85    2.35
  -3   7  -9    2.41    2.08
   3  -7   9    4.03    2.46
  -3   7 -10   -0.32    2.05
   3  -7  10    0.58    2.48
   3  -6 -11   18.57    2.85
   3  -6 -10    2.93    1.57
   3  -6  -9    5.10    1.68
   3  -6  -8   -0.27    1.45
   3  -6  -7    0.89    1.33
  -3   6   6   13.08    1.88
   3  -6  -6   13.02    2.05
   3  -6  -6    8.17    2.05
   3  -6  -6   14.19    2.06
  -3   6   5   35.78    3.55
   3  -6  -5   33.92    3.58
   3  -6  -5   19.95    3.94
   3  -6  -5   44.65    4.16
  -3   6   4   11.44    1.72
   3  -6  -4   10.73    1.84
   3  -6  -4    7.82    2.23
  -3   6   3    8.74    1.57
   3  -6  -3    8.54    1.62
   3  -6  -3    8.78    2.18
  -3   6   2    2.12    1.17
   3  -6  -2    2.25    0.99
   3  -6  -2    2.33    1.57
   3  -6  -2    3.14    1.40
  -3   6   1    0.70    1.08
   3  -6  -1    1.71    1.03
   3  -6  -1    2.12    1.72
  -3   6   1    1.76    1.57
   3  -6  -1    3.04    1.49
  -3   6   0   12.77    2.00
   3  -6   0   11.02    1.77
   3  -6   0   10.95    2.47
  -3   6   0   10.10    2.29
   3  -6   0   13.01    2.10
  -3   6  -1  110.17    9.84
   3  -6   1   87.43    7.37
   3  -6   1  100.43    9.79
  -3   6  -1   65.89    9.30
   3  -6   1  124.66    8.84
  -3   6  -2  267.94   23.65
   3  -6   2  280.99   23.77
   3  -6   2  261.78   18.96
  -3   6  -3    2.66    1.62
   3  -6   3    0.51    1.62
   3  -6   3    1.26    1.46
  -3   6  -4    4.09    1.84
   3  -6   4    2.66    1.74
   3  -6   4    6.01    1.68
  -3   6  -5    0.20    1.42
   3  -6   5   -0.01    1.77
   3  -6   5    0.18    1.30
  -3   6  -6   -0.01    1.71
   3  -6   6    1.38    1.78
   3  -6   6    1.56    1.38
  -3   6  -7    3.79    1.81
   3  -6   7    5.46    2.29
   3  -6   7    4.73    1.50
  -3   6  -8   -0.10    1.75
   3  -6   8    1.26    2.30
  -3   6  -9   14.95    3.24
   3  -6   9   16.05    3.93
  -3   6 -10   44.93    4.63
  -3   6 -11    8.40    2.37
   3  -5 -11   -1.13    1.34
   3  -5 -10   14.93    3.42
   3  -5  -9   10.29    2.08
   3  -5  -8   26.95    3.93
   3  -5  -7   63.72   11.90
   3  -5  -7   93.91   13.00
  -3   5   6    4.65    1.29
   3  -5  -6    2.25    1.52
   3  -5  -6    3.64    1.46
  -3   5   5    0.26    1.13
   3  -5  -5    1.28    1.15
   3  -5  -5    1.58    1.37
   3  -5  -5    0.64    1.41
  -3   5   4   -0.23    1.02
   3  -5  -4   -0.48    0.94
   3  -5  -4   -0.65    1.43
   3  -5  -4   -0.83    1.00
  -3   5   3    5.01    1.34
   3  -5  -3    6.78    1.48
   3  -5  -3    5.94    2.04
  -3   5   3    4.85    1.70
  -3   5   2    4.31    1.22
   3  -5  -2    4.72    1.22
   3  -5  -2    5.53    1.97
  -3   5   2    3.98    1.71
   3  -5  -2    6.09    1.75
  -3   5   1    0.81    1.08
   3  -5  -1    1.37    1.00
   3  -5  -1    0.39    1.59
  -3   5   1    0.81    1.30
   3  -5  -1    1.59    1.17
  -3   5   0    5.60    1.52
   3  -5   0    4.40    1.35
   3  -5   0    5.49    2.12
  -3   5   0    3.13    1.81
   3  -5   0    7.02    1.73
  -3   5  -1    6.25    1.69
   3  -5   1    4.39    1.35
   3  -5   1    5.57    2.17
  -3   5  -1    3.94    1.85
   3  -5   1    7.92    1.67
  -3   5  -2   53.39    6.53
   3  -5   2   36.18    4.78
   3  -5   2   40.71    5.91
  -3   5  -2   36.73    5.83
   3  -5   2   55.17    6.25
  -3   5  -3  132.44   16.25
   3  -5   3   96.98   10.49
   3  -5   3  100.85   12.03
   3  -5   3  150.04   15.02
  -3   5  -4   60.40    5.65
   3  -5   4   44.83    5.05
   3  -5   4   49.65    4.87
  -3   5  -5    0.68    1.51
   3  -5   5   -0.09    1.61
   3  -5   5    1.31    1.28
  -3   5  -6   12.64    2.67
   3  -5   6    8.97    2.40
   3  -5   6   10.90    2.12
  -3   5  -7   34.36    5.92
   3  -5   7   25.30    4.96
   3  -5   7   23.34    2.42
  -3   5  -8   14.06    2.64
   3  -5   8   10.82    2.79
   3  -5   8    9.91    1.78
  -3   5  -9   -0.84    1.91
  -3   5 -10   -0.68    2.09
  -3   5 -11    0.79    1.87
   3  -5  11   -0.88    1.77
  -3   5 -12    1.86    2.23
   3  -5  12    2.22    2.51
   3  -4 -10    1.27    1.68
   3  -4  -9    1.12    1.49
   3  -4  -8   19.22    2.43
   3  -4  -7    3.09    1.61
   3  -4  -7    6.41    1.83
  -3   4   6   17.03    2.71
   3  -4  -6   10.83    2.81
   3  -4  -6   21.36    3.49
  -3   4   5   51.77    4.00
   3  -4  -5   35.95    6.36
   3  -4  -5   67.90    5.07
  -3   4   4    5.28    1.39
   3  -4  -4    5.62    1.56
   3  -4  -4    4.79    1.89
  -3   4   4    7.05    1.98
   3  -4  -4    5.39    1.51
  -3   4   3    0.32    0.96
   3  -4  -3    0.71    1.04
   3  -4  -3    1.64    1.63
  -3   4   3    0.26    1.34
  -3   4   2    1.17    0.96
   3  -4  -2    1.60    1.02
   3  -4  -2    1.89    1.54
  -3   4   2    1.27    1.52
   3  -4  -2    1.25    1.33
  -3   4   1   59.44    7.01
   3  -4  -1   48.20    6.24
   3  -4  -1   57.89    8.31
  -3   4   1   46.77    6.75
   3  -4  -1   69.48    8.04
  -3   4   0    3.01    1.35
   3  -4   0    2.06    1.06
   3  -4   0    2.61    1.71
  -3   4   0    2.20    1.52
   3  -4   0    3.13    1.43
  -3   4  -1   61.50    7.36
   3  -4   1   49.09    6.10
   3  -4   1   59.41    8.44
  -3   4  -1   44.44    6.90
   3  -4   1   50.95    5.99
  -3   4  -1   57.15    6.36
  -3   4  -2   -0.93    1.24
   3  -4   2    0.39    1.04
   3  -4   2   -0.30    1.54
  -3   4  -2   -0.12    1.43
   3  -4   2   -0.48    1.20
  -3   4  -2    0.30    0.94
  -3   4  -3    0.81    1.32
   3  -4   3    0.03    0.87
   3  -4   3   -0.57    1.33
  -3   4  -3   -1.27    1.38
   3  -4   3   -0.32    1.15
  -3   4  -3   -0.04    0.86
  -3   4  -4   62.71    7.69
   3  -4   4   40.82    5.15
   3  -4   4   45.53    6.68
   3  -4   4   59.01    7.17
  -3   4  -4   54.49    5.98
  -3   4  -5   69.32    7.97
   3  -4   5   60.53    8.31
   3  -4   5   57.93    6.46
  -3   4  -5   75.18    7.18
  -3   4  -6   14.94    2.56
   3  -4   6    9.71    2.45
   3  -4   6   16.16    2.15
  -3   4  -6   14.30    1.52
  -3   4  -7   32.87    3.97
   3  -4   7   25.24    3.36
  -3   4  -7   25.75    2.96
  -3   4  -8   19.01    2.89
   3  -4   8   15.24    2.02
  -3   4  -8   17.35    1.51
  -3   4  -9    0.24    1.95
  -3   4 -10   22.79    3.75
   3  -4  10   18.45    3.72
  -3   4 -11   21.84    4.80
   3  -4  11   23.81    5.41
  -3   4 -12    0.73    1.85
   3  -4  12    0.94    2.07
  -3   4 -13   -0.05    1.97
   3  -4  13    1.28    2.16
  -3   3  10    1.27    1.42
  -3   3   9   35.89    4.61
   3  -3  -8    2.55    1.58
   3  -3  -8    2.76    1.43
  -3   3   7   14.20    2.15
   3  -3  -7   10.41    2.69
   3  -3  -7   16.26    2.71
  -3   3   6   -0.25    0.91
   3  -3  -6    0.44    1.35
   3  -3  -6    0.77    1.33
  -3   3   5    3.37    1.51
  -3   3   5    2.43    1.03
   3  -3  -5    2.89    1.65
  -3   3   5    2.38    1.68
   3  -3  -5    2.58    1.49
  -3   3   4   52.18    6.52
  -3   3   4   45.77    5.20
   3  -3  -4   44.39    6.95
  -3   3   4   43.60    5.75
   3  -3  -4   46.88    5.48
  -3   3   3   27.06    3.51
   3  -3  -3   31.04    4.06
   3  -3  -3   31.08    4.97
  -3   3   3   34.19    4.79
  -3   3   2  166.38    9.84
   3  -3  -2  187.09   11.65
   3  -3  -2  196.95   20.25
  -3   3   2  213.26   14.41
   3  -3  -2  207.12   11.02
  -3   3   1    4.32    1.31
   3  -3  -1    4.18    1.17
   3  -3  -1    5.56    2.13
  -3   3   1    2.57    1.66
   3  -3  -1    4.51    1.52
  -3   3   1    4.97    1.49
  -3   3   0   58.88    4.70
   3  -3   0   60.55    4.90
   3  -3   0   68.98    7.48
  -3   3   0   56.45    5.52
   3  -3   0   76.11    5.17
  -3   3  -1   35.21    3.77
   3  -3   1   29.50    3.29
   3  -3   1   34.09    4.76
  -3   3  -1   32.71    4.22
   3  -3   1   44.32    3.64
  -3   3  -1   37.96    3.15
  -3   3  -2    0.61    1.21
   3  -3   2    0.33    0.91
   3  -3   2    0.51    1.64
  -3   3  -2   -0.20    1.48
   3  -3   2    0.56    1.39
  -3   3  -2   -0.25    0.93
  -3   3  -3  114.74    8.87
   3  -3   3   78.59    6.53
   3  -3   3   86.73    9.36
  -3   3  -3   87.99    8.25
   3  -3   3  113.01    7.36
  -3   3  -3  108.31    6.59
  -3   3  -4    6.89    1.81
   3  -3   4    3.95    1.15
   3  -3   4    4.51    1.87
  -3   3  -4    4.97    2.02
   3  -3   4    4.71    1.49
  -3   3  -4    5.19    1.23
  -3   3  -5    2.33    1.56
   3  -3   5    2.64    1.12
   3  -3   5    3.02    1.78
   3  -3   5    1.86    1.29
  -3   3  -5    2.93    1.09
  -3   3  -6   80.68    9.33
   3  -3   6   87.58    8.91
  -3   3  -6   76.28    7.41
  -3   3  -7    0.14    1.51
   3  -3   7    0.10    1.15
  -3   3  -7    0.00    0.78
  -3   3  -8   45.58    5.11
   3  -3   8   45.06    5.46
   3  -3   8   42.17    4.21
  -3   3  -8   50.32    3.72
  -3   3  -9   16.14    2.59
   3  -3   9   12.48    2.93
  -3   3 -10   13.09    2.77
   3  -3  10   11.95    3.04
  -3   3 -11   10.27    2.33
   3  -3  11    8.95    2.65
  -3   3 -12    0.90    2.12
   3  -3  12   -0.97    2.08
  -3   3 -13    4.90    2.51
   3  -3  13    5.51    2.44
  -3   2  10    9.04    1.85
  -3   2   9    0.58    1.82
  -3   2   9    0.32    1.35
   3  -2  -8   42.48    7.21
  -3   2   8   41.89    6.23
  -3   2   7   35.04    3.28
   3  -2  -7   30.77    4.65
   3  -2  -7   35.22    3.53
  -3   2   6  108.52    6.88
   3  -2  -6   99.33   11.13
  -3   2   6  102.24    7.43
   3  -2  -6  114.31    7.36
  -3   2   5  188.86   18.13
  -3   2   5  258.57    6.33
   3  -2  -5  220.51   28.35
  -3   2   5  222.66   20.87
   3  -2  -5  238.70    8.23
  -3   2   4   11.86    2.24
  -3   2   4   14.68    2.15
   3  -2  -4   14.81    3.14
  -3   2   4   14.99    2.52
   3  -2  -4   14.95    2.54
  -3   2   3    8.82    1.83
  -3   2   3    6.24    1.35
   3  -2  -3    9.84    2.30
  -3   2   3   10.40    2.30
  -3   2   3   10.15    1.90
  -3   2   2    3.89    1.70
   3  -2  -2    4.67    1.98
  -3   2   2    5.78    2.03
   3  -2  -2    5.57    1.57
  -3   2   2    6.64    1.62
  -3   2   1    4.88    1.49
   3  -2  -1    4.64    1.27
   3  -2  -1    5.10    2.23
  -3   2   1    4.72    1.94
   3  -2  -1    5.62    1.67
  -3   2   1    5.83    1.56
  -3   2   0    1.64    1.13
   3  -2   0    1.53    1.01
   3  -2   0    2.37    1.97
  -3   2   0    1.85    1.94
   3  -2   0    0.86    1.20
  -3   2  -1    1.24    1.21
   3  -2   1    0.82    0.97
   3  -2   1    1.12    1.67
  -3   2  -1    0.96    1.62
   3  -2   1    0.79    1.21
  -3   2  -1    0.78    1.16
  -3   2  -2   88.24   10.73
   3  -2   2   89.08    9.33
   3  -2   2  116.76   13.29
  -3   2  -2   98.64   12.19
   3  -2   2  119.74   11.77
  -3   2  -2  109.36   10.78
  -3   2  -3    3.29    1.58
   3  -2   3    2.34    1.05
   3  -2   3    3.56    1.77
  -3   2  -3    2.84    1.91
   3  -2   3    2.45    1.30
  -3   2  -3    3.50    1.23
  -3   2  -4   59.24    6.12
   3  -2   4   50.54    4.57
  -3   2  -4   65.15    6.93
   3  -2   4   52.09    5.69
  -3   2  -4   65.17    4.66
  -3   2  -5    0.40    1.40
   3  -2   5    0.37    0.93
   3  -2   5    0.09    1.03
  -3   2  -5    0.18    0.82
  -3   2  -6   -0.90    1.35
   3  -2   6   -0.30    1.00
   3  -2   6    0.04    1.13
  -3   2  -6    0.04    0.83
  -3   2  -7   25.60    3.95
   3  -2   7   19.08    3.55
   3  -2   7   19.47    3.03
  -3   2  -7   21.00    2.55
  -3   2  -8    3.38    1.86
   3  -2   8    4.75    2.14
   3  -2   8    2.70    1.34
  -3   2  -8    3.36    0.94
  -3   2  -9   36.57    4.43
   3  -2   9   37.04    4.56
  -3   2  -9   41.55    3.11
  -3   2 -10   87.88    9.47
   3  -2  10   77.43    8.74
  -3   2 -11   10.16    2.48
   3  -2  11   11.82    2.86
  -3   2 -12   23.64    4.37
   3  -2  12   21.23    4.21
  -3   2 -13    0.86    1.81
   3  -2  13    1.85    2.38
  -3   2 -14    5.07    2.25
   3  -2  14    4.54    2.32
  -3   1  10    6.74    2.31
  -3   1  10    5.01    1.41
  -3   1   9   -1.36    1.74
  -3   1   9    1.03    1.40
   3  -1  -8    1.57    1.66
  -3   1   8    0.08    1.10
  -3   1   7   41.28    5.67
   3  -1  -7   46.69    7.05
  -3   1   7   48.06    6.83
  -3   1   7   39.84    5.44
  -3   1   6   23.41    2.49
   3  -1  -6   29.61    4.16
  -3   1   6   25.32    3.31
  -3   1   6   22.33    2.59
  -3   1   5    2.41    1.16
  -3   1   5    3.20    1.17
   3  -1  -5    3.81    1.89
  -3   1   5    3.25    1.91
   3  -1  -5    3.74    1.53
  -3   1   4   -0.34    0.88
  -3   1   4    0.09    0.83
   3  -1  -4   -0.05    1.45
  -3   1   4    0.30    1.47
   3  -1  -4   -0.06    1.17
   3  -1  -3    0.63    1.62
  -3   1   3    0.33    1.61
  -3   1   3   -0.85    1.23
   3  -1  -2    2.51    1.63
  -3   1   2    3.05    1.64
   3  -1  -2    2.45    1.33
  -3   1   2    2.85    1.49
   3  -1  -1    6.79    2.23
  -3   1   1    9.98    2.46
   3  -1  -1    6.02    1.63
  -3   1   1    8.63    1.95
  -3   1   0   10.35    2.43
   3  -1   0    9.75    1.98
   3  -1   0    9.56    2.52
  -3   1   0   11.85    2.54
   3  -1   0   10.15    1.85
  -3   1  -1    5.58    1.69
   3  -1   1    6.43    1.28
   3  -1   1    7.77    2.28
  -3   1  -1    4.35    2.00
   3  -1   1    8.73    1.73
  -3   1  -1    7.43    1.68
  -3   1  -2  231.05   16.91
   3  -1   2  214.37   15.31
   3  -1   2  281.26   22.56
  -3   1  -2  257.88   18.49
   3  -1   2  230.15   15.24
  -3   1  -2  280.59   16.73
  -3   1  -3   42.17    5.27
   3  -1   3   38.62    4.66
  -3   1  -3   47.88    6.21
   3  -1   3   56.84    6.25
  -3   1  -3   42.79    4.74
  -3   1  -4   95.40   11.08
   3  -1   4   75.14    8.50
  -3   1  -4   99.15   10.92
   3  -1   4   70.28    8.95
  -3   1  -4   81.32    8.07
  -3   1  -5    7.97    2.05
   3  -1   5    6.87    1.50
   3  -1   5    5.77    1.83
  -3   1  -5    7.65    2.42
   3  -1   5    8.50    1.91
  -3   1  -5    8.10    1.53
  -3   1  -6  153.53   18.27
   3  -1   6  167.49   17.84
   3  -1   6  154.46   17.04
   3  -1   6  149.83   19.22
  -3   1  -6  149.73   15.47
  -3   1  -7    4.69    1.91
   3  -1   7    7.08    2.10
   3  -1   7    4.21    1.50
  -3   1  -7    4.67    1.10
  -3   1  -8   38.10    4.35
   3  -1   8   35.50    4.18
   3  -1   8   32.19    3.32
  -3   1  -8   30.27    2.49
  -3   1  -9  156.22   20.94
   3  -1   9  120.92   15.90
  -3   1  -9  121.45   14.49
  -3   1 -10    1.28    1.65
   3  -1  10    3.07    2.42
  -3   1 -11   -0.08    1.86
   3  -1  11    0.99    2.29
  -3   1 -12    3.94    2.05
   3  -1  12    6.65    2.64
  -3   1 -13    6.78    2.29
   3  -1  13    7.46    2.54
  -3   1 -14    4.27    2.25
   3  -1  14    2.92    2.11
  -3   0  10    6.64    2.58
  -3   0  10    6.31    1.58
  -3   0   9    1.63    2.27
  -3   0   9    1.69    1.32
   3   0  -8   55.70    8.29
  -3   0   8   43.20    6.33
  -3   0   7   96.52   12.08
   3   0  -7  118.63   15.92
  -3   0   7   97.13   12.09
  -3   0   6   42.69    3.62
   3   0  -6   46.60    6.10
  -3   0   6   48.98    4.56
  -3   0   6   44.49    3.73
  -3   0   5    2.94    1.10
  -3   0   5    4.17    1.25
   3   0  -5    7.06    2.02
  -3   0   5    6.77    2.06
  -3   0   5    4.89    1.48
  -3   0   4   58.16    6.58
  -3   0   4   87.53    9.16
   3   0  -4   81.32   10.31
  -3   0   4   84.52    9.60
  -3   0   4   82.00    8.82
  -3   0   4   70.50    7.58
   3   0  -3    1.00    1.65
  -3   0   3    2.11    1.59
  -3   0   3    1.06    1.33
  -3   0   3    1.28    1.01
   3   0  -2   60.92    8.65
  -3   0   2   61.45    6.79
   3   0  -2   55.51    5.92
  -3   0   2   60.35    6.36
   3   0  -1  394.82   39.93
  -3   0   1  371.81   24.30
   3   0  -1  397.65   22.88
  -3   0   1  416.37   23.56
   3   0   0  183.00   18.69
  -3   0   0  185.14   12.65
   3   0   0  216.56   14.05
   3   0   1    0.08    0.82
   3   0   1    0.17    0.93
   3   0   1    0.14    1.54
  -3   0  -1    0.53    1.59
   3   0   1   -0.32    1.20
  -3   0  -1    0.30    1.19
  -3   0  -2   11.53    2.16
   3   0   2    9.75    1.72
  -3   0  -2   12.44    2.81
   3   0   2   15.84    2.31
  -3   0  -2   12.77    1.99
  -3   0  -3    1.18    1.37
   3   0   3    1.11    1.10
  -3   0  -3    2.05    1.96
   3   0   3    1.43    1.20
  -3   0  -3    1.92    1.39
  -3   0  -4    9.14    2.08
   3   0   4    9.48    1.85
   3   0   4   14.00    2.81
  -3   0  -4   14.44    3.10
   3   0   4   13.76    2.45
  -3   0  -4   11.06    1.98
  -3   0  -5    1.65    1.62
   3   0   5    1.30    1.21
   3   0   5    0.25    1.51
  -3   0  -5    0.61    1.81
   3   0   5    1.19    1.23
  -3   0  -5    0.30    1.09
  -3   0  -6   43.99    4.65
   3   0   6   48.53    4.17
   3   0   6   45.89    4.45
  -3   0  -6   41.85    5.16
   3   0   6   49.63    4.70
  -3   0  -6   37.81    3.15
  -3   0  -7   -0.33    1.41
   3   0   7    2.15    1.77
  -3   0  -7    0.00    0.79
  -3   0  -7   -0.22    0.72
  -3   0  -8  111.34   13.86
   3   0   8  104.68   11.34
  -3   0  -8   97.81    9.08
  -3   0  -8  103.89    9.66
  -3   0  -9   76.30   11.30
   3   0   9   86.19   11.79
  -3   0  -9  114.02   13.92
  -3   0 -10  126.23   10.71
   3   0  10  141.42   11.34
  -3   0 -11   25.60    3.66
   3   0  11   32.74    4.82
  -3   0 -12   10.10    2.34
   3   0  12    7.82    2.57
  -3   0 -13   38.49    7.50
   3   0  13   45.20    8.59
   3   0  14   15.98    2.98
   3   0  15    1.71    1.86
   3   0  15   -1.72    2.08
  -3  -1  11   45.28    5.07
  -3  -1  10    8.53    2.74
  -3  -1  10    7.85    1.62
  -3  -1   9    1.61    2.03
  -3  -1   9    0.60    1.26
  -3  -1   8    0.92    1.24
   3   1  -8    1.33    1.44
  -3  -1   8    1.55    1.23
  -3  -1   7   21.13    2.90
   3   1  -7   27.02    4.12
  -3  -1   7   20.80    2.87
   3   1  -6    0.42    1.23
   3   1  -6   -0.70    1.64
  -3  -1   6    0.48    0.97
   3   1  -5  139.66   14.62
  -3  -1   5  147.04   14.90
   3   1  -5  166.87   25.20
  -3  -1   5  169.84   17.55
  -3  -1   5  155.11   15.48
   3   1  -4   18.09    2.91
  -3  -1   4   20.42    2.74
   3   1  -4   19.78    3.75
  -3  -1   4   21.10    3.44
  -3  -1   4   18.79    2.82
  -3  -1   4   19.53    2.77
  -3  -1   3    0.64    1.48
   3   1  -3    0.75    1.61
  -3  -1   3    0.70    1.60
  -3  -1   3    0.15    1.04
  -3  -1   3    0.51    1.07
   3   1  -2   61.91    8.37
  -3  -1   2   55.89    6.55
  -3  -1   2   53.48    5.68
  -3  -1   2   54.44    5.67
   3   1  -1   16.78    2.91
  -3  -1   1   15.12    2.57
  -3  -1   1   16.86    2.31
  -3  -1   1   15.31    2.11
   3   1   0   28.88    2.79
  -3  -1   0   31.58    3.56
   3   1   1   15.39    2.19
   3   1   1   17.95    2.33
  -3  -1  -1   16.95    2.92
  -3  -1  -1   19.50    2.50
   3   1   2    2.38    1.20
   3   1   2    3.15    1.25
  -3  -1  -2    2.17    1.80
  -3  -1  -2    3.83    1.51
  -3  -1  -2    2.76    1.12
   3   1   3  533.41   39.85
   3   1   3  676.66   62.85
   3   1   3  593.52   71.91
  -3  -1  -3  708.72   71.26
  -3  -1  -3  740.04   66.51
  -3  -1  -3  668.59   59.03
   3   1   4   85.89    7.48
   3   1   4   94.86    7.36
   3   1   4   95.86    9.27
  -3  -1  -4  103.45    8.79
  -3  -1  -4   83.32    7.32
  -3  -1  -4   85.27    5.90
   3   1   5   28.09    3.78
   3   1   5   32.26    4.08
   3   1   5   36.66    4.75
  -3  -1  -5   33.25    3.99
  -3  -1  -5   31.58    3.61
   3   1   6   -0.06    1.24
   3   1   6    0.56    1.58
  -3  -1  -6    1.06    1.09
  -3  -1  -6    0.63    0.81
  -3  -1  -7  115.36   12.68
   3   1   7  111.59   12.92
   3   1   7  123.18   13.96
  -3  -1  -7  109.40   11.50
  -3  -1  -7  119.29   12.08
  -3  -1  -8   14.87    2.55
   3   1   8   17.22    2.84
  -3  -1  -8   14.08    1.67
  -3  -1  -8   15.35    1.71
  -3  -1  -9   71.11    5.40
   3   1   9   66.43    5.78
   3   1  10   30.86    4.03
   3   1  11    1.89    1.79
   3   1  11    2.13    2.25
   3   1  12   36.22    5.63
   3   1  13   -0.01    2.21
   3   1  14   -0.84    2.03
   3   1  15    2.15    1.84
   3   1  15    1.02    2.09
  -3  -2  12   -0.99    2.77
  -3  -2  11   -0.10    2.55
   3   2 -10   -0.18    1.43
  -3  -2  10    0.44    2.17
  -3  -2  10   -0.57    1.09
   3   2  -9    0.92    1.53
  -3  -2   9    0.42    2.09
  -3  -2   9    1.52    1.33
   3   2  -8   22.91    3.22
   3   2  -8   28.38    4.44
  -3  -2   8   20.84    2.71
   3   2  -7   10.92    2.32
   3   2  -7   15.06    2.79
  -3  -2   7   12.60    2.11
   3   2  -6   -0.02    1.29
   3   2  -6   -0.43    1.70
  -3  -2   6    0.45    1.26
   3   2  -5   46.15    5.41
  -3  -2   5   52.38    5.40
   3   2  -5   53.72    9.57
  -3  -2   5   46.67    4.94
   3   2  -4   64.43    7.51
  -3  -2   4   68.54    7.36
   3   2  -4   71.93   12.00
  -3  -2   4   73.46    8.71
  -3  -2   4   67.01    7.27
   3   2  -3  128.80    9.25
  -3  -2   3  151.16    8.11
   3   2  -3  137.61   18.34
  -3  -2   3  150.71   11.18
  -3  -2   3  148.58    9.17
  -3  -2   3  145.87    9.22
   3   2  -2  189.55   18.50
  -3  -2   2  180.01   16.83
   3   2  -2  213.58   27.24
  -3  -2   2  215.16   21.79
  -3  -2   2  210.70   19.86
  -3  -2   2  207.47   19.89
   3   2  -1   40.98    3.44
  -3  -2   1   39.11    3.28
  -3  -2   1   41.96    4.32
  -3  -2   1   42.48    3.75
  -3  -2   1   39.95    3.45
   3   2   0   63.37    4.56
  -3  -2   0   68.83    5.12
  -3  -2   0   64.53    5.64
   3   2   1   44.83    4.81
   3   2   1   51.96    7.33
  -3  -2  -1   38.13    4.06
  -3  -2  -1   49.42    4.05
   3   2   2  224.18   18.83
   3   2   2  245.56   17.88
   3   2   2  240.81   33.46
  -3  -2  -2  242.51   19.03
  -3  -2  -2  285.32   16.95
  -3  -2  -2  250.77   14.77
   3   2   3    0.81    1.46
   3   2   3    0.64    0.95
   3   2   3   -0.28    1.82
  -3  -2  -3    0.38    1.68
  -3  -2  -3    0.34    1.22
  -3  -2  -3   -0.46    0.78
   3   2   4    6.88    2.10
   3   2   4    7.01    1.53
   3   2   4    8.18    2.29
  -3  -2  -4    7.92    1.68
  -3  -2  -4    7.89    1.44
   3   2   5   46.58    6.09
   3   2   5   52.31    6.06
   3   2   5   59.97    7.16
  -3  -2  -5   55.93    5.94
  -3  -2  -5   52.71    5.41
   3   2   6  151.67   12.02
   3   2   6  148.10   11.59
   3   2   6  140.87    9.62
  -3  -2  -6  169.45   12.00
  -3  -2  -6  146.25    8.13
  -3  -2  -6  157.44    8.07
   3   2   7    4.59    1.70
   3   2   7    5.59    1.62
   3   2   7    2.29    1.81
  -3  -2  -7    4.21    2.10
  -3  -2  -7    3.95    1.36
  -3  -2  -7    3.63    1.05
   3   2   8    1.25    1.44
   3   2   8    0.47    1.71
  -3  -2  -8    0.74    1.03
  -3  -2  -8    1.46    0.82
   3   2   9  194.23   14.24
   3   2   9  158.21   10.45
   3   2  10   -0.53    1.35
   3   2  10    1.07    2.09
   3   2  11   33.46    5.57
   3   2  12   -0.89    2.06
   3   2  13    5.30    2.26
   3   2  14    0.61    2.01
   3   2  15   51.06    5.40
   3   2  15   41.98    5.07
   3   3 -11   10.56    2.33
  -3  -3  11   11.13    3.08
   3   3 -10    3.57    1.75
  -3  -3  10    2.37    2.30
  -3  -3  10    1.69    1.27
   3   3  -9   11.81    2.52
  -3  -3   9   13.31    3.59
  -3  -3   9   13.11    2.16
   3   3  -8   -0.13    1.44
   3   3  -8   -0.63    1.74
  -3  -3   8    0.32    1.23
   3   3  -7   32.39    5.19
   3   3  -7   37.41    6.22
  -3  -3   7   26.64    4.20
   3   3  -6   52.93    7.22
   3   3  -6   64.07    9.54
  -3  -3   6   48.67    6.43
   3   3  -5   50.58    4.37
  -3  -3   5   54.04    4.09
   3   3  -5   64.58   10.16
  -3  -3   5   58.02    4.33
   3   3  -4    5.55    1.46
  -3  -3   4    7.78    1.56
   3   3  -4    6.17    2.22
  -3  -3   4    7.67    1.58
   3   3  -3  124.20   13.88
  -3  -3   3  124.77   13.02
   3   3  -3  139.12   17.12
  -3  -3   3  118.05   13.53
  -3  -3   3  134.44   14.12
   3   3  -2   14.77    2.04
  -3  -3   2   13.57    1.73
  -3  -3   2   11.70    2.47
  -3  -3   2   12.54    1.88
  -3  -3   2   14.44    2.03
   3   3  -1  185.41   18.54
  -3  -3   1  157.26   15.14
  -3  -3   1  200.76   22.35
  -3  -3   1  190.45   18.86
  -3  -3   1  199.59   18.63
   3   3   0    4.21    1.31
  -3  -3   0    3.72    1.20
   3   3   0    5.05    1.86
  -3  -3   0    3.77    1.86
  -3  -3   0    3.57    1.23
   3   3   1  304.61   21.58
  -3  -3  -1  287.98   17.81
   3   3   1  246.80   26.98
  -3  -3  -1  271.95   20.93
   3   3   1  308.66   16.71
   3   3   2   17.74    2.51
  -3  -3  -2   18.65    2.46
   3   3   2   17.43    3.57
  -3  -3  -2   12.25    2.44
  -3  -3  -2   20.19    2.21
   3   3   3   50.59    4.75
  -3  -3  -3   52.45    4.41
   3   3   3   53.56    6.38
  -3  -3  -3   56.33    4.51
  -3  -3  -3   49.98    3.79
   3   3   4   45.44    5.86
   3   3   4   37.61    4.85
   3   3   4   41.02    5.51
  -3  -3  -4   31.23    5.01
  -3  -3  -4   42.93    4.89
  -3  -3  -4   37.37    4.12
   3   3   5  166.96   18.28
   3   3   5  151.54   15.40
   3   3   5  178.37   17.70
  -3  -3  -5  148.65   17.60
  -3  -3  -5  161.29   15.97
  -3  -3  -5  168.02   15.51
   3   3   6    4.46    1.81
   3   3   6    5.58    1.50
   3   3   6    4.80    1.94
  -3  -3  -6    4.72    2.16
  -3  -3  -6    4.67    1.36
  -3  -3  -6    4.78    1.09
   3   3   7   -0.03    1.45
   3   3   7    1.30    1.23
   3   3   7   -0.29    1.28
  -3  -3  -7    0.85    1.51
  -3  -3  -7   -0.05    0.94
  -3  -3  -7    0.89    0.80
   3   3   8  142.17   15.85
   3   3   8  121.92   14.04
  -3  -3  -8  134.87   13.60
  -3  -3  -8  142.56   13.78
   3   3   9  151.03   11.44
   3   3   9  138.45    9.26
  -3  -3  -9  121.04    6.80
   3   3  10    2.95    1.70
   3   3  10    1.37    1.66
   3   3  11   35.53    6.00
   3   3  12  112.14   13.24
   3   3  13   11.85    3.14
   3   3  14   15.84    3.73
   3   3  14   10.94    2.55
   3   3  15   35.35    4.24
   3   3  15   30.05    4.32
   3   4 -11    3.99    2.03
  -3  -4  11    5.72    2.88
   3   4 -10    1.12    1.73
  -3  -4  10    1.20    2.70
  -3  -4  10   -0.85    1.10
   3   4  -9   11.79    2.84
  -3  -4   9    5.73    3.02
  -3  -4   9   10.79    2.20
   3   4  -8    1.97    1.61
  -3  -4   8    0.74    1.32
   3   4  -7    3.36    1.79
   3   4  -7    2.35    1.93
  -3  -4   7    1.47    1.21
   3   4  -6    1.41    1.34
   3   4  -6    3.83    2.01
  -3  -4   6    2.41    1.31
   3   4  -5  277.22   16.96
  -3  -4   5  231.97   14.59
   3   4  -5  312.79   40.93
  -3  -4   5  261.54   14.63
   3   4  -4    0.90    1.28
  -3  -4   4    1.04    1.13
  -3  -4   4    1.45    1.08
   3   4  -3  219.53   10.23
  -3  -4   3  180.65   18.45
  -3  -4   3  209.91    7.13
   3   4  -2    4.85    1.29
  -3  -4   2    4.08    1.16
   3   4  -2    3.83    1.89
  -3  -4   2    4.79    1.33
   3   4  -1   16.37    1.96
  -3  -4   1   15.04    1.84
   3   4  -1   16.11    3.29
  -3  -4   1   11.72    2.43
  -3  -4   1   16.09    1.95
   3   4  -1   15.80    1.95
   3   4   0   18.70    2.71
  -3  -4   0   15.07    2.16
   3   4   0   18.40    3.56
  -3  -4   0   15.65    2.87
  -3  -4   0   16.49    2.31
   3   4   0   18.56    2.47
   3   4   1    0.49    0.96
  -3  -4  -1    0.06    0.86
   3   4   1   -0.31    1.41
   3   4   1   -0.36    1.01
   3   4   2    5.95    1.50
  -3  -4  -2    4.80    1.45
   3   4   2    6.66    2.31
  -3  -4  -2    7.02    1.46
   3   4   2    7.42    1.61
   3   4   3   86.58    9.55
  -3  -4  -3   93.24    9.38
   3   4   3   93.08   11.88
  -3  -4  -3   76.30    8.72
  -3  -4  -3   88.59    8.57
   3   4   3   94.38    9.11
   3   4   4    1.06    1.08
  -3  -4  -4    1.26    1.30
   3   4   4    2.00    1.84
  -3  -4  -4    1.65    1.71
  -3  -4  -4    1.77    1.03
   3   4   4    1.41    1.09
   3   4   5   33.57    3.57
   3   4   5   43.29    4.90
  -3  -4  -5   37.60    4.39
  -3  -4  -5   38.08    2.80
   3   4   5   41.51    3.34
   3   4   6   23.56    3.02
   3   4   6   18.32    2.39
   3   4   6   20.70    3.26
  -3  -4  -6   18.72    3.16
  -3  -4  -6   20.68    1.96
   3   4   6   21.05    2.38
   3   4   7   24.92    3.83
   3   4   7   18.11    2.69
   3   4   7   23.28    3.83
  -3  -4  -7   25.42    4.15
  -3  -4  -7   25.03    3.40
  -3  -4  -7   21.52    2.64
   3   4   8   -0.02    1.01
   3   4   8   -0.29    1.62
  -3  -4  -8    0.24    1.03
  -3  -4  -8    0.19    0.66
   3   4   9   35.26    3.76
   3   4   9   35.14    3.96
  -3  -4  -9   32.41    3.06
  -3  -4  -9   28.11    2.37
   3   4  10   55.64    5.11
   3   4  10   48.70    4.96
   3   4  11   10.72    2.40
   3   4  12   11.24    2.65
   3   4  13    1.16    2.23
   3   4  14    7.11    2.01
   3   4  14    4.95    2.57
   3   4  15    2.01    1.91
  -3  -5  11    2.81    2.53
   3   5 -10    9.30    2.40
  -3  -5  10    7.04    3.22
   3   5  -9    6.28    2.04
  -3  -5   9    6.26    2.55
  -3  -5   9    3.61    1.38
   3   5  -8    1.18    1.65
  -3  -5   8   -0.10    2.22
  -3  -5   8    1.06    1.23
   3   5  -7    6.57    1.81
   3   5  -7    6.24    1.95
  -3  -5   7    7.09    1.63
   3   5  -6   11.74    2.22
   3   5  -6   14.80    3.08
  -3  -5   6   12.69    1.67
   3   5  -5    4.17    1.56
  -3  -5   5    3.40    1.20
   3   5  -4  125.98    9.76
  -3  -5   4  107.27    7.59
  -3  -5   4  119.53    7.45
   3   5  -3    1.87    1.23
  -3  -5   3    0.97    1.11
   3   5  -3    0.18    1.63
  -3  -5   3    1.76    0.99
   3   5  -2    0.54    1.08
  -3  -5   2    1.11    1.08
   3   5  -2    1.00    1.43
  -3  -5   2    1.08    0.98
   3   5  -1   20.94    3.00
  -3  -5   1   17.75    2.65
   3   5  -1   18.31    3.84
  -3  -5   1   21.53    2.88
   3   5   0   47.47    4.02
  -3  -5   0   35.26    3.44
   3   5   0   41.73    7.17
  -3  -5   0   45.63    3.41
   3   5   0   45.91    3.36
   3   5   1  108.58    7.97
  -3  -5  -1   86.96    6.17
   3   5   1   84.46   13.77
   3   5   1  105.88    6.27
   3   5   2   16.54    2.63
  -3  -5  -2   14.33    2.19
   3   5   2   14.23    3.37
  -3  -5  -2   15.39    2.85
  -3  -5  -2   16.00    2.24
   3   5   2   17.83    2.45
   3   5   3    0.58    0.94
  -3  -5  -3    0.90    0.96
   3   5   3    1.21    1.64
  -3  -5  -3    0.00    1.43
  -3  -5  -3    0.66    0.88
   3   5   3    1.19    1.01
   3   5   4    3.95    1.31
  -3  -5  -4    3.68    1.26
   3   5   4    4.70    2.11
  -3  -5  -4    3.20    1.70
  -3  -5  -4    5.36    1.17
   3   5   4    4.78    1.44
   3   5   5   13.82    2.20
  -3  -5  -5   13.06    1.98
   3   5   5   14.25    2.86
  -3  -5  -5   14.30    2.69
  -3  -5  -5   14.95    1.69
   3   5   5   16.65    2.08
   3   5   6   92.02   11.28
  -3  -5  -6   97.56   11.04
   3   5   6  114.56   14.51
  -3  -5  -6   96.54   11.38
  -3  -5  -6  101.69   10.29
   3   5   6  125.58   12.84
   3   5   7    7.18    1.46
   3   5   7    7.83    2.18
  -3  -5  -7    4.56    2.07
  -3  -5  -7    6.36    1.07
   3   5   7    6.99    1.50
   3   5   8   14.86    1.97
   3   5   8   13.77    2.60
  -3  -5  -8   11.10    2.59
  -3  -5  -8   13.03    1.33
   3   5   8   16.55    2.06
   3   5   9  230.13   30.02
   3   5   9  226.89   27.79
  -3  -5  -9  177.13   21.40
   3   5  10  208.62   14.92
   3   5  10  185.79   15.40
  -3  -5 -10  178.31   11.59
  -3  -5 -10  174.76   11.05
   3   5  11    4.41    2.03
   3   5  12    8.86    2.49
   3   5  13    0.77    1.99
   3   5  14    2.71    1.69
   3   5  14    2.15    2.07
   3   5  15   42.37    4.52
   3   6 -10    1.08    1.92
  -3  -6  10   -0.60    2.34
   3   6  -9    2.11    1.90
  -3  -6   9    3.62    2.73
  -3  -6   9    3.48    1.24
   3   6  -8    4.54    1.84
  -3  -6   8    3.88    2.81
  -3  -6   8    3.30    1.40
   3   6  -7    4.82    1.85
   3   6  -7    4.89    1.84
  -3  -6   7    4.43    1.29
   3   6  -6    1.65    1.46
  -3  -6   6    2.02    1.15
   3   6  -5    0.83    1.33
  -3  -6   5    0.43    1.17
   3   6  -4   19.44    3.32
  -3  -6   4   16.55    2.79
   3   6  -4   14.95    3.87
  -3  -6   4   18.95    2.97
   3   6  -3    8.43    1.69
  -3  -6   3    5.82    1.43
   3   6  -3    8.20    2.57
  -3  -6   3    8.04    1.38
   3   6  -2    0.41    1.02
  -3  -6   2   -0.53    0.93
   3   6  -2   -0.89    1.32
  -3  -6   2   -0.50    0.98
   3   6  -1   17.38    2.56
  -3  -6   1   12.98    2.13
   3   6  -1    9.06    2.62
  -3  -6   1   17.79    2.44
   3   6   0   78.31    8.79
  -3  -6   0   57.42    6.73
   3   6   0   57.45   11.72
  -3  -6   0   69.14    7.45
   3   6   1   27.38    3.72
  -3  -6  -1   19.85    2.92
   3   6   1   21.66    4.99
  -3  -6  -1   19.24    3.57
   3   6   2   80.21    6.69
  -3  -6  -2   61.99    5.20
   3   6   2   65.15   10.54
  -3  -6  -2   68.38    7.04
  -3  -6  -2   83.07    4.93
   3   6   2   89.14    5.23
   3   6   3   22.14    2.69
  -3  -6  -3   17.57    2.25
   3   6   3   19.14    3.86
  -3  -6  -3   18.41    2.98
  -3  -6  -3   22.34    2.00
   3   6   3   22.82    2.33
   3   6   4   20.72    3.30
  -3  -6  -4   14.70    2.03
   3   6   4   18.64    4.06
  -3  -6  -4   16.73    2.76
  -3  -6  -4   19.12    2.44
   3   6   4   22.94    3.04
   3   6   5   11.52    1.99
  -3  -6  -5    8.75    1.71
   3   6   5   10.67    2.67
  -3  -6  -5    9.51    2.54
  -3  -6  -5   12.12    1.38
   3   6   5   12.74    1.78
   3   6   6  115.05   14.06
   3   6   6  129.19   17.57
  -3  -6  -6   93.38   12.10
  -3  -6  -6  120.92   11.83
   3   6   6  141.25   14.07
   3   6   7   87.44    9.77
   3   6   7   83.12    9.00
  -3  -6  -7   82.75    9.96
  -3  -6  -7   91.82    8.45
   3   6   7  116.44   10.96
   3   6   8   22.17    3.21
   3   6   8   23.94    3.53
  -3  -6  -8   19.51    3.26
  -3  -6  -8   22.98    1.98
   3   6   8   29.58    2.93
   3   6   9   45.98    6.73
   3   6   9   46.13    6.79
  -3  -6  -9   44.50    5.67
   3   6  10   89.57   13.05
  -3  -6 -10   80.93   11.13
   3   6  11   75.11    7.83
  -3  -6 -11   80.69    7.23
   3   6  12   62.81    8.08
   3   6  13    3.04    2.13
   3   6  14    0.08    1.61
   3   6  15    3.02    1.89
   3   7  -9    2.16    1.96
  -3  -7   9    4.02    2.46
  -3  -7   9    3.06    1.37
   3   7  -8    0.81    1.75
  -3  -7   8    2.35    2.22
  -3  -7   8    2.19    1.31
   3   7  -7    0.38    1.56
  -3  -7   7    1.00    2.57
  -3  -7   7   -0.24    1.25
   3   7  -6   21.62    3.54
  -3  -7   6   23.96    3.20
   3   7  -5   -0.46    1.41
   3   7  -5    0.72    1.58
  -3  -7   5   -0.52    1.06
   3   7  -4  103.83   14.82
   3   7  -4   68.40   16.35
  -3  -7   4   93.92   12.68
   3   7  -3    0.07    1.22
   3   7  -3   -0.23    1.76
  -3  -7   3    0.20    1.05
   3   7  -2   -0.28    1.07
  -3  -7   2   -0.01    1.04
   3   7  -2    0.04    1.57
  -3  -7   2    0.08    1.04
   3   7  -1   15.17    1.97
  -3  -7   1   14.59    1.94
   3   7  -1   15.43    3.56
  -3  -7   1   18.81    1.81
   3   7   0    2.54    1.22
  -3  -7   0    2.42    1.14
   3   7   0    1.98    1.84
  -3  -7   0    2.70    0.94
   3   7   1   70.34    7.97
  -3  -7  -1   51.09    6.08
   3   7   1   56.31   10.80
   3   7   2   83.75   10.01
  -3  -7  -2   65.85    7.79
   3   7   2   66.90   12.95
  -3  -7  -2   80.82    8.37
   3   7   3   85.44   10.57
  -3  -7  -3   66.22    7.81
   3   7   3   71.76   13.13
  -3  -7  -3   60.07    8.29
  -3  -7  -3   81.88    8.26
   3   7   4    1.02    1.13
  -3  -7  -4    0.89    1.01
   3   7   4    0.17    1.76
  -3  -7  -4    0.00    1.44
  -3  -7  -4    0.86    0.80
   3   7   4    1.35    1.10
   3   7   5    2.57    1.31
   3   7   5    0.99    1.74
  -3  -7  -5    0.63    1.49
  -3  -7  -5    2.05    0.88
   3   7   5    2.09    1.19
   3   7   6   42.78    5.10
   3   7   6   40.47    6.55
  -3  -7  -6   32.69    4.65
  -3  -7  -6   38.81    3.93
   3   7   6   49.94    5.24
   3   7   7    0.70    1.25
   3   7   7    0.48    1.81
  -3  -7  -7    0.51    1.59
  -3  -7  -7    0.28    0.77
   3   7   7    0.33    1.10
   3   7   8    3.38    1.29
   3   7   8    3.50    1.81
  -3  -7  -8    1.69    1.73
  -3  -7  -8    3.42    0.93
   3   7   9    0.94    1.35
   3   7   9    0.22    1.69
  -3  -7  -9    1.08    0.82
   3   7  10    1.01    1.73
  -3  -7 -10    0.97    0.83
   3   7  11   18.63    3.64
  -3  -7 -11   21.73    2.98
   3   7  13    2.92    1.70
   3   7  14    0.03    1.62
   3   7  15    0.57    1.74
   3   8  -9    3.23    1.88
  -3  -8   9    0.94    2.55
  -3  -8   9    3.23    1.36
   3   8  -8    6.35    1.95
  -3  -8   8    3.39    3.04
  -3  -8   8    5.92    1.44
   3   8  -7    0.22    1.42
  -3  -8   7   -0.36    2.29
  -3  -8   7   -0.01    1.05
   3   8  -6   18.90    3.61
  -3  -8   6   23.25    3.59
   3   8  -5   23.03    3.73
   3   8  -5   17.73    4.69
  -3  -8   5   22.02    3.00
   3   8  -4   44.92    5.34
   3   8  -4   31.08    8.21
  -3  -8   4   51.76    4.91
   3   8  -3    7.46    1.71
   3   8  -3    7.21    2.71
  -3  -8   3    7.53    1.36
   3   8  -2    6.05    1.63
   3   8  -2    5.70    2.63
  -3  -8   2    5.85    1.44
   3   8  -1   13.71    1.95
   3   8  -1    7.88    3.17
  -3  -8   1   10.37    1.36
   3   8   0   54.96    5.15
   3   8   0   43.92    8.67
  -3  -8   0   55.95    3.94
   3   8   1   37.72    3.98
   3   8   1   32.84    6.71
   3   8   2    1.11    1.41
   3   8   2    1.28    1.98
  -3  -8  -2    1.20    0.92
   3   8   3    2.02    1.49
   3   8   3    0.77    1.48
  -3  -8  -3    0.88    0.90
   3   8   4   -0.95    1.24
   3   8   4    1.06    1.83
  -3  -8  -4   -0.27    0.82
   3   8   5   -0.80    0.99
   3   8   5   -0.74    1.70
  -3  -8  -5    0.38    1.45
  -3  -8  -5    0.02    0.80
   3   8   6   41.26    4.82
   3   8   6   30.85    5.28
  -3  -8  -6   28.81    4.24
  -3  -8  -6   42.71    2.99
   3   8   7   72.27    9.85
   3   8   7   46.56    9.40
  -3  -8  -7   46.42    7.39
  -3  -8  -7   66.93    8.25
   3   8   8   24.30    3.83
   3   8   8   24.31    4.77
  -3  -8  -8   23.80    4.08
  -3  -8  -8   34.29    2.83
   3   8   9   -1.20    1.21
   3   8   9    0.33    1.70
  -3  -8  -9    0.07    0.80
   3   8  10   54.61    7.40
  -3  -8 -10   66.66    6.08
  -3  -8 -11    3.20    1.03
   3   8  13    1.73    1.47
   3   8  14    3.78    1.84
   3   8  15   -0.70    1.74
   3   9  -8    2.06    1.82
  -3  -9   8    3.77    2.90
  -3  -9   8    1.72    1.39
   3   9  -7   23.55    3.54
  -3  -9   7   18.45    5.51
  -3  -9   7   29.20    3.09
   3   9  -6   22.01    4.62
  -3  -9   6   23.83    4.46
   3   9  -5    3.75    1.71
   3   9  -5    3.68    2.17
  -3  -9   5    4.36    1.24
   3   9  -4    0.54    1.38
   3   9  -4    1.84    1.69
  -3  -9   4    2.73    1.27
   3   9  -3   15.04    2.46
   3   9  -3   10.19    3.31
  -3  -9   3   18.40    1.87
   3   9  -2    1.44    1.32
   3   9  -2    1.08    1.73
  -3  -9   2    2.52    1.13
   3   9  -1   43.49    6.69
   3   9  -1   36.94   10.00
  -3  -9   1   42.28    5.99
   3   9   0   40.74    4.19
   3   9   0   21.68    6.77
  -3  -9   0   42.92    3.40
   3   9   1    3.20    1.39
   3   9   1    2.43    1.83
   3   9   2  271.66   36.84
   3   9   2  159.12   42.41
  -3  -9  -2  246.23   29.44
   3   9   3    0.16    1.42
   3   9   3   -0.92    1.81
  -3  -9  -3   -0.06    0.79
   3   9   4    5.39    1.50
   3   9   4    4.01    2.23
  -3  -9  -4    5.26    1.11
   3   9   5    0.52    1.36
   3   9   5    0.91    1.79
  -3  -9  -5    0.59    0.89
   3   9   6    9.82    2.22
   3   9   6    4.62    2.28
  -3  -9  -6    8.49    1.45
   3   9   7    0.80    1.23
   3   9   7   -0.96    1.65
  -3  -9  -7   -0.02    0.84
   3   9   8   -0.29    1.33
   3   9   8   -1.08    1.73
  -3  -9  -8    0.31    0.87
   3   9   9   11.68    2.19
   3   9   9    7.90    2.50
  -3  -9  -9   12.09    1.51
  -3  -9 -10   -0.06    0.82
  -3  -9 -11    0.71    0.92
   3   9  13    0.41    1.70
   3   9  14   14.62    2.78
   3  10  -7    7.83    2.22
  -3 -10   7   11.04    2.03
   3  10  -6    0.72    1.80
  -3 -10   6    4.85    1.53
   3  10  -5   29.39    3.12
  -3 -10   5   19.21    5.42
  -3 -10   5   37.44    2.77
   3  10  -4   40.75    6.27
   3  10  -4   22.02    7.68
  -3 -10   4   56.54    7.67
   3  10  -3    0.17    1.47
   3  10  -3   -0.95    1.94
  -3 -10   3    1.46    1.02
   3  10  -2    0.29    1.12
   3  10  -2    0.22    1.68
  -3 -10   2    0.49    0.93
   3  10  -1    1.31    1.18
   3  10  -1    1.29    2.10
  -3 -10   1    3.26    1.19
   3  10   0    0.23    1.32
   3  10   0    0.96    1.90
  -3 -10   0    0.35    0.98
   3  10   1    1.20    1.35
   3  10   1    0.07    1.68
   3  10   2   19.63    2.36
   3  10   2   15.46    4.69
   3  10   3   17.72    2.30
   3  10   3   14.33    3.11
  -3 -10  -3   16.65    1.62
   3  10   4   17.98    2.47
   3  10   4   13.20    3.38
  -3 -10  -4   18.30    1.63
   3  10   5   36.54    6.08
   3  10   5   20.82    4.27
  -3 -10  -5   37.48    5.32
   3  10   6   16.02    2.33
   3  10   6   12.03    3.09
  -3 -10  -6   14.31    1.46
   3  10   7   26.77    3.34
   3  10   7   13.51    3.17
  -3 -10  -7   24.96    2.72
   3  10   8   -0.09    1.28
   3  10   8    0.46    1.60
  -3 -10  -8    0.91    0.82
   3  10   9    2.48    1.47
  -3 -10  -9    1.39    0.89
  -3 -10 -10    1.69    1.04
  -3 -10 -11    1.34    0.91
   3  10  13    2.07    1.74
   3  11  -6    6.47    2.06
  -3 -11   6    4.11    2.82
  -3 -11   6    7.74    1.71
   3  11  -5    3.90    2.01
  -3 -11   5    2.83    3.35
  -3 -11   5    9.13    1.81
   3  11  -4    1.03    1.54
  -3 -11   4   -1.84    2.33
  -3 -11   4   -0.37    1.14
   3  11  -3    0.99    1.44
   3  11  -3    0.58    1.89
  -3 -11   3    1.07    1.19
   3  11  -2   -0.10    1.14
   3  11  -2    0.62    2.01
  -3 -11   2   -0.43    1.11
   3  11  -1    1.26    1.47
   3  11  -1    0.01    2.04
  -3 -11   1    0.67    1.05
   3  11   0   32.00    4.44
   3  11   0   22.43    6.52
  -3 -11   0   34.77    4.20
   3  11   1    5.58    1.67
   3  11   1    5.80    2.52
   3  11   2   13.01    2.47
   3  11   2    8.10    2.72
   3  11   3   23.68    3.27
   3  11   3   15.02    4.25
  -3 -11  -3   22.67    2.54
   3  11   4    1.91    1.63
   3  11   4    1.26    1.90
  -3 -11  -4    1.19    1.02
   3  11   5   29.54    4.22
   3  11   5   21.68    4.89
  -3 -11  -5   33.75    4.08
   3  11   6    3.20    1.54
   3  11   6    2.41    1.86
  -3 -11  -6    1.73    1.08
   3  11   7    1.51    1.52
  -3 -11  -7    0.33    0.98
   3  11   8    7.83    1.95
  -3 -11  -8    7.94    1.23
   3  11   9   26.20    4.19
  -3 -11  -9   24.38    3.69
  -3 -11 -10    6.33    1.26
  -3 -11 -11    6.77    1.40
   3  11  13    6.49    2.02
   3  12  -4   -1.13    1.40
  -3 -12   4   -0.25    2.59
  -3 -12   4   -0.03    1.33
   3  12  -3    7.32    2.00
  -3 -12   3    4.41    3.46
  -3 -12   3   10.90    1.85
   3  12  -2   -0.94    1.27
  -3 -12   2    0.58    1.24
   3  12  -1    2.02    1.33
   3  12  -1    2.48    2.00
  -3 -12   1    3.23    1.16
   3  12   0    3.08    1.59
   3  12   0    4.06    2.29
  -3 -12   0    3.21    1.19
   3  12   1    0.87    1.48
   3  12   1   -1.38    1.83
   3  12   2   15.21    2.98
   3  12   2    7.84    2.67
   3  12   3   12.50    2.54
   3  12   3    9.21    2.67
  -3 -12  -3   16.69    2.19
   3  12   4   13.00    2.61
   3  12   4    9.06    2.41
  -3 -12  -4   10.60    1.41
   3  12   5    3.86    1.90
   3  12   5    1.62    2.02
  -3 -12  -5    3.48    1.22
   3  12   6   -1.07    1.52
  -3 -12  -6    0.74    1.06
   3  12   7   -0.02    1.38
  -3 -12  -7    0.18    1.05
   3  12   8    7.53    2.08
  -3 -12  -8    6.92    1.35
  -3 -12  -9    0.63    1.02
  -3 -12 -10    1.14    0.99
  -3 -12 -11    1.04    1.09
   3  12  12    2.29    1.79
   3  13  -2    0.31    1.59
  -3 -13   2   -0.38    3.15
  -3 -13   2    0.81    1.27
   3  13  -1    6.14    1.75
  -3 -13   1    5.74    2.94
  -3 -13   1    9.41    1.73
   3  13   0    1.05    1.49
   3  13   0    1.41    1.92
  -3 -13   0    3.38    1.41
   3  13   1    1.49    1.46
   3  13   1    0.45    2.08
  -3 -13  -1    1.91    1.12
   3  13   2    7.89    1.97
   3  13   2    8.73    2.53
   3  13   3    0.20    1.70
   3  13   3   -1.21    1.71
  -3 -13  -3    0.46    1.05
   3  13   4   13.38    2.12
  -3 -13  -4   17.18    3.34
   3  13   5    5.06    1.81
  -3 -13  -5    4.62    1.26
   3  13   6   14.65    3.34
  -3 -13  -6   13.67    2.83
   3  13   7    6.38    1.84
  -3 -13  -7    6.78    1.33
   3  13   8    1.08    1.72
  -3 -13  -8    0.50    1.17
  -3 -13  -9    2.62    1.15
  -3 -13 -10   -0.42    0.94
   3  14   0    1.86    1.60
  -3 -14   0   -1.86    2.98
  -3 -14   0    3.49    1.39
   3  14   1   -0.29    1.55
  -3 -14  -1   -1.39    2.73
  -3 -14  -1    0.65    1.16
   3  14   2    5.66    1.68
   3  14   3   14.03    2.42
  -3 -14  -3   16.31    2.17
   3  14   4    6.03    1.92
  -3 -14  -4    8.19    1.35
   3  14   5    1.51    1.61
  -3 -14  -5    1.13    1.20
   3  14   6    3.52    2.00
  -3 -14  -6    3.72    1.21
   3  14   7    1.00    1.69
  -3 -14  -7   -0.58    0.95
   3  14   8    4.66    1.88
  -3 -14  -8    2.93    1.19
   4 -11  -1   -0.20    1.66
   4 -11   0    1.05    1.54
   4 -10  -5    1.84    1.60
   4 -10  -3    1.38    1.56
   4 -10  -2    0.53    1.54
   4 -10  -1    9.31    2.09
   4 -10   0    1.51    1.72
   4 -10   1    2.41    1.81
   4 -10   2    1.25    2.03
   4 -10   2    1.22    1.50
  -4  10  -3    1.71    1.82
   4 -10   3    2.47    2.18
   4 -10   3    4.96    1.69
  -4  10  -4   14.31    3.09
   4 -10   4   18.06    3.74
   4 -10   4   21.86    3.66
   4  -9  -7   -0.50    1.42
   4  -9  -6    2.67    1.52
   4  -9  -5    1.54    1.47
   4  -9  -3    7.21    1.98
   4  -9  -2    6.08    1.83
   4  -9  -1   22.94    4.68
   4  -9   0    1.19    1.71
   4  -9   0    1.45    1.70
   4  -9   1   -0.39    1.67
   4  -9   1    0.58    1.56
  -4   9  -2    2.92    1.73
   4  -9   2    2.55    1.97
   4  -9   2    1.64    1.68
  -4   9  -3    0.81    1.62
   4  -9   3   -0.72    1.83
   4  -9   3    1.02    1.77
  -4   9  -4    1.01    1.52
   4  -9   4   -0.19    1.76
   4  -9   4    0.76    1.68
  -4   9  -5    3.55    1.97
   4  -9   5    0.44    2.21
   4  -9   5    3.81    1.79
  -4   9  -6   -0.72    1.86
   4  -9   6    1.32    2.12
   4  -9   6   -0.04    1.44
   4  -8  -8   40.23    5.30
   4  -8  -7    1.10    1.60
   4  -8  -6    0.39    1.41
   4  -8  -5   -0.50    1.33
   4  -8  -3    2.62    1.53
   4  -8  -2    7.35    2.11
   4  -8  -2    8.92    2.10
   4  -8  -1    0.41    1.60
   4  -8  -1    2.17    1.49
   4  -8   0    4.03    1.94
   4  -8   0    6.74    1.85
  -4   8  -1   -0.56    1.35
   4  -8   1    0.04    1.69
   4  -8   1    1.02    1.36
  -4   8  -2   17.87    3.47
   4  -8   2   14.10    3.36
   4  -8   2   15.81    3.03
  -4   8  -3    8.36    2.08
   4  -8   3    6.37    2.40
   4  -8   3   13.10    2.77
  -4   8  -4    5.74    1.80
   4  -8   4    6.20    2.30
   4  -8   4    6.55    1.85
  -4   8  -5    3.85    2.02
   4  -8   5    2.18    1.95
   4  -8   5    3.29    1.82
  -4   8  -6    0.71    1.78
   4  -8   6    2.57    2.10
   4  -8   6    2.49    1.58
  -4   8  -7    2.88    2.21
   4  -8   7    0.72    2.24
  -4   8  -8    2.54    2.11
   4  -8   8    1.05    2.30
   4  -7  -9    7.95    2.10
   4  -7  -8    6.17    1.92
   4  -7  -7    1.39    1.68
   4  -7  -6    9.84    1.91
   4  -7  -5   69.41    9.57
   4  -7  -3    0.12    1.59
   4  -7  -3    0.04    1.58
   4  -7  -2   -0.01    1.48
   4  -7  -2    2.99    1.66
   4  -7  -1   -0.10    1.40
   4  -7  -1    1.36    1.35
  -4   7   0    0.58    1.24
   4  -7   0    1.86    1.71
   4  -7   0    0.44    1.32
  -4   7  -1    1.99    1.48
   4  -7   1    0.93    1.65
   4  -7   1    1.78    1.71
  -4   7  -2    4.02    1.71
   4  -7   2    3.97    2.07
   4  -7   2    5.40    1.95
  -4   7  -3    0.16    1.67
   4  -7   3    2.38    1.96
   4  -7   3    1.71    1.44
  -4   7  -4    9.56    2.28
   4  -7   4    6.74    2.20
   4  -7   4    7.54    1.88
  -4   7  -5   -0.56    1.78
   4  -7   5   -0.74    1.93
   4  -7   5    0.11    1.24
  -4   7  -6    5.00    2.13
   4  -7   6    1.96    2.18
   4  -7   6    5.33    1.80
  -4   7  -7    1.07    2.01
   4  -7   7   -0.64    1.77
  -4   7  -8    5.12    2.14
   4  -7   8    2.97    2.46
  -4   7  -9   34.72    5.35
   4  -7   9   23.64    4.47
   4  -6  -9    2.54    1.83
   4  -6  -8    2.30    1.52
   4  -6  -7   25.78    5.02
   4  -6  -6   10.83    2.41
   4  -6  -5   22.37    3.16
   4  -6  -4    0.98    1.81
   4  -6  -3    5.57    2.18
   4  -6  -3    7.98    1.75
   4  -6  -2    8.73    2.34
   4  -6  -2   14.08    2.29
   4  -6  -1   15.32    1.97
   4  -6  -1   15.61    2.85
   4  -6  -1   17.97    2.43
  -4   6   0   32.36    5.27
   4  -6   0   29.34    4.64
   4  -6   0   28.26    5.65
   4  -6   0   36.61    5.66
  -4   6  -1  202.21   28.87
   4  -6   1  147.99   21.41
   4  -6   1  165.43   25.78
   4  -6   1  178.35   24.65
  -4   6  -2    2.14    1.49
   4  -6   2    1.27    1.81
   4  -6   2    1.83    1.49
  -4   6  -3    0.93    1.45
   4  -6   3    0.48    1.74
   4  -6   3    0.89    1.64
  -4   6  -4    5.81    1.87
   4  -6   4    3.78    1.87
   4  -6   4    8.80    2.12
  -4   6  -5    0.10    1.35
   4  -6   5   -0.17    1.74
   4  -6   5    0.65    1.51
  -4   6  -6   -0.14    1.75
   4  -6   6   -0.76    1.93
   4  -6   6   -0.07    1.30
  -4   6  -7    7.67    2.38
   4  -6   7    5.20    2.22
   4  -6   7    6.86    1.69
  -4   6  -8   16.00    3.92
   4  -6   8   14.38    3.93
  -4   6  -9    8.27    2.67
   4  -6   9    9.28    2.55
  -4   6 -10   26.87    4.57
   4  -6  10   32.09    5.46
   4  -5 -10    5.27    1.93
   4  -5  -9    1.67    1.69
   4  -5  -8    1.81    1.52
   4  -5  -7  129.07    5.44
   4  -5  -6   -0.62    1.25
   4  -5  -6   -0.22    1.48
   4  -5  -5   15.38    3.98
   4  -5  -5   36.63    4.98
   4  -5  -4    1.53    1.74
   4  -5  -3   -0.12    1.62
   4  -5  -3    1.45    1.45
   4  -5  -2    6.58    1.51
   4  -5  -2    5.61    2.25
   4  -5  -2    5.62    1.74
  -4   5   1   20.61    3.07
   4  -5  -1   18.42    2.69
   4  -5  -1   21.36    3.96
   4  -5  -1   19.39    3.06
  -4   5   0   42.09    4.35
   4  -5   0   34.29    3.58
   4  -5   0   38.68    5.30
   4  -5   0   50.51    5.39
  -4   5  -1    6.27    1.75
   4  -5   1    4.34    1.39
   4  -5   1    4.95    2.13
   4  -5   1    4.62    1.68
  -4   5  -2   14.19    2.77
   4  -5   2   14.46    2.48
   4  -5   2   13.81    3.02
   4  -5   2   16.30    2.78
  -4   5  -3   45.74    4.89
   4  -5   3   40.83    5.57
   4  -5   3   61.36    5.58
  -4   5  -4   33.11    5.64
   4  -5   4   29.43    5.42
   4  -5   4   41.25    6.42
  -4   5  -5   73.87    8.26
   4  -5   5   65.20    7.96
   4  -5   5   82.43    7.84
  -4   5  -6    6.81    2.22
   4  -5   6    4.88    1.94
   4  -5   6    5.71    1.91
  -4   5  -7   71.36    9.75
   4  -5   7   53.76    7.77
   4  -5   7   57.66    7.31
  -4   5  -8    8.04    2.27
   4  -5   8    8.39    2.56
  -4   5  -9    1.76    1.96
   4  -5   9    2.45    2.31
  -4   5 -10   18.09    3.01
   4  -5  10   16.56    3.11
  -4   5 -11    5.32    2.50
  -4   4  10   18.48    2.71
   4  -4  -9    1.35    1.84
   4  -4  -8    4.78    1.65
   4  -4  -7   12.55    3.25
   4  -4  -7   32.04    4.03
   4  -4  -6    3.21    1.67
   4  -4  -6    4.51    1.73
   4  -4  -5    3.81    2.00
   4  -4  -5    7.61    1.77
   4  -4  -4    0.27    1.59
   4  -4  -3    2.85    1.21
   4  -4  -3    2.35    1.75
   4  -4  -2   33.27    4.79
   4  -4  -2   26.78    5.05
   4  -4  -2   39.53    5.69
  -4   4   1   76.17   10.19
   4  -4  -1   71.85    9.52
   4  -4  -1   76.41   11.95
  -4   4   1   68.48   10.14
   4  -4  -1  106.54   14.31
  -4   4   0   72.56   10.17
   4  -4   0   74.46    9.78
   4  -4   0   92.00   13.88
  -4   4   0   63.59    9.59
   4  -4   0  109.57   13.95
  -4   4  -1    9.31    1.96
   4  -4   1   10.11    1.67
   4  -4   1    8.48    2.37
   4  -4   1   12.57    2.21
  -4   4  -2   27.74    4.44
   4  -4   2   22.62    3.60
   4  -4   2   26.52    4.99
   4  -4   2   17.39    3.13
  -4   4  -3   43.43    6.55
   4  -4   3   38.50    5.40
   4  -4   3   37.24    6.39
   4  -4   3   48.97    7.21
  -4   4  -4    0.81    1.47
   4  -4   4    0.41    0.96
   4  -4   4   -0.09    1.53
   4  -4   4   -0.30    1.42
  -4   4  -5    8.00    2.19
   4  -4   5    4.52    2.14
   4  -4   5    6.87    1.97
  -4   4  -6   12.49    2.53
   4  -4   6   11.76    2.56
   4  -4   6   11.49    2.14
  -4   4  -7   -1.11    1.65
   4  -4   7    0.82    1.96
   4  -4   7    0.70    1.24
  -4   4  -8   28.70    4.69
   4  -4   8   29.39    5.26
  -4   4  -9   12.26    3.18
  -4   4 -10    8.63    2.36
  -4   4 -11    7.07    2.54
   4  -4  11    2.61    2.26
  -4   4 -12    0.06    1.93
   4  -4  12   -1.83    2.39
  -4   3  10    2.06    1.69
  -4   3   9   26.67    5.23
   4  -3  -8    6.40    2.22
  -4   3   8   15.39    2.95
   4  -3  -7    7.75    2.42
   4  -3  -7   16.54    2.97
   4  -3  -6    2.48    1.71
   4  -3  -6    7.42    1.89
   4  -3  -5    6.12    2.18
   4  -3  -5   10.48    1.97
   4  -3  -4   -0.69    1.65
   4  -3  -3   -0.49    1.69
  -4   3   3   -0.28    1.58
   4  -3  -2   11.89    2.89
  -4   3   2   11.87    2.45
   4  -3  -2   16.70    2.29
  -4   3   1    1.02    1.22
   4  -3  -1    1.82    1.08
   4  -3  -1    0.15    1.69
  -4   3   1    0.45    1.76
   4  -3  -1    2.21    1.55
  -4   3   0   50.18    4.90
   4  -3   0   52.35    4.39
   4  -3   0   61.56    7.63
  -4   3   0   54.61    6.11
   4  -3   0   70.05    5.60
  -4   3  -1   45.33    5.49
   4  -3   1   40.65    5.31
   4  -3   1   56.17    7.39
   4  -3   1   59.46    6.62
  -4   3  -2   83.14    7.87
   4  -3   2   71.40    6.64
   4  -3   2   84.50    9.32
   4  -3   2  108.74    8.07
  -4   3  -3  147.82   12.20
   4  -3   3  106.78    9.66
   4  -3   3  123.67   11.50
   4  -3   3  142.87   15.07
  -4   3  -4   33.42    3.87
   4  -3   4   32.54    3.21
   4  -3   4   32.41    4.65
   4  -3   4   31.26    3.39
  -4   3  -5   88.43   12.93
   4  -3   5   70.00   10.63
   4  -3   5   85.40   11.45
  -4   3  -6    4.85    1.96
   4  -3   6    2.34    1.71
   4  -3   6    2.48    1.40
  -4   3  -7   38.98    6.41
   4  -3   7   26.47    5.08
   4  -3   7   23.13    2.55
  -4   3  -7   29.68    4.49
  -4   3  -8   32.43    4.54
  -4   3  -9    0.63    1.96
  -4   3 -10    0.33    1.97
   4  -3  10    0.49    2.58
  -4   3 -11    1.72    2.11
   4  -3  11    1.50    2.35
  -4   3 -12    4.78    2.53
   4  -3  12    3.98    2.68
  -4   3 -13    0.28    2.03
   4  -3  13   -0.73    2.62
  -4   2  10    6.10    1.73
   4  -2  -9    1.03    1.74
  -4   2   9    4.39    1.80
   4  -2  -8    6.85    2.47
  -4   2   8   16.58    2.76
   4  -2  -7   12.69    3.43
  -4   2   7   21.78    3.36
   4  -2  -6   27.32    5.83
   4  -2  -6   46.68    5.01
   4  -2  -5    0.42    1.67
   4  -2  -5    0.19    1.21
   4  -2  -4    3.68    1.88
  -4   2   4    2.63    1.79
   4  -2  -3   52.75    7.72
  -4   2   3   54.82    5.60
   4  -2  -2    6.95    2.24
  -4   2   2    7.80    2.23
   4  -2  -2    8.59    1.75
   4  -2  -1   34.70    5.70
  -4   2   1   29.21    4.47
   4  -2  -1   42.51    4.94
  -4   2   0   20.39    3.03
   4  -2   0   20.13    2.60
   4  -2   0   19.13    4.05
  -4   2   0   21.67    3.66
   4  -2   0   18.73    2.49
  -4   2  -1   54.27    6.26
   4  -2   1   52.11    6.01
   4  -2   1   62.29    8.98
  -4   2  -1   58.17    7.74
   4  -2   1   78.10    7.80
  -4   2  -2    0.01    1.33
   4  -2   2    0.73    0.89
   4  -2   2    0.07    1.78
   4  -2   2   -0.21    1.30
  -4   2  -3   71.81    8.91
   4  -2   3   66.68    7.24
   4  -2   3   68.18    9.49
   4  -2   3   72.74   10.08
  -4   2  -4  223.59   24.43
   4  -2   4  184.90   18.44
   4  -2   4  179.47   21.73
   4  -2   4  221.20   22.91
  -4   2  -4  210.77   19.37
  -4   2  -5   48.45    5.00
   4  -2   5   38.36    3.67
   4  -2   5   34.15    4.94
   4  -2   5   35.17    3.65
  -4   2  -5   47.19    3.95
  -4   2  -6   17.92    3.50
   4  -2   6   15.00    3.10
  -4   2  -6   18.46    2.89
  -4   2  -7   10.58    2.53
   4  -2   7   11.78    2.22
  -4   2  -7   12.38    2.00
  -4   2  -8    7.31    2.07
   4  -2   8    5.90    2.20
   4  -2   8    4.57    1.51
  -4   2  -8    8.57    1.37
  -4   2  -9    0.38    1.88
   4  -2   9   -0.85    1.70
  -4   2 -10    4.72    2.27
   4  -2  10    2.84    2.51
  -4   2 -11    1.97    1.95
   4  -2  11    1.36    2.53
  -4   2 -12    0.97    1.98
   4  -2  12   -2.02    2.44
  -4   2 -13   -0.29    1.92
   4  -2  13    1.49    2.54
  -4   1  10    7.94    1.81
   4  -1  -9   -0.18    1.56
  -4   1   9    0.32    1.62
   4  -1  -8    1.63    1.81
  -4   1   8    4.16    1.57
   4  -1  -7    2.34    1.92
  -4   1   7    5.75    1.67
   4  -1  -6   28.85    6.31
  -4   1   6   47.95    7.03
   4  -1  -5   28.30    5.08
  -4   1   5   38.44    3.72
   4  -1  -4   -0.32    1.60
   4  -1  -4    0.44    1.18
   4  -1  -3   -0.04    1.64
  -4   1   3    0.02    1.51
   4  -1  -2   20.57    3.89
  -4   1   2   20.99    3.47
   4  -1  -2   29.19    3.67
   4  -1  -1   59.23    8.95
  -4   1   1   59.83    7.75
   4  -1  -1   56.17    6.81
   4  -1   0   68.58    9.45
  -4   1   0   62.54    8.15
   4  -1   0   74.26    9.04
   4  -1   1    2.21    1.10
   4  -1   1    2.00    1.05
   4  -1   1    3.62    2.08
  -4   1  -1    1.25    1.83
   4  -1   1    2.20    1.46
  -4   1  -2    3.11    1.54
   4  -1   2    2.20    0.96
   4  -1   2    3.45    2.01
   4  -1   2    3.10    1.51
  -4   1  -3   99.83   11.46
   4  -1   3  101.53   11.35
   4  -1   3  106.68   14.45
   4  -1   3  115.36   12.36
  -4   1  -3  131.29   13.82
  -4   1  -4    1.96    1.57
   4  -1   4    0.92    1.06
   4  -1   4    0.85    1.92
   4  -1   4    1.42    1.31
  -4   1  -4    1.75    1.20
  -4   1  -5   16.30    2.65
   4  -1   5   14.23    1.93
   4  -1   5   17.96    2.48
  -4   1  -5   14.34    1.89
  -4   1  -6   36.05    4.28
   4  -1   6   32.14    3.13
   4  -1   6   30.15    3.88
  -4   1  -6   31.87    2.94
  -4   1  -7   -0.42    1.73
   4  -1   7    1.09    1.90
   4  -1   7   -0.63    1.09
  -4   1  -7    0.13    0.99
  -4   1  -8   22.87    3.80
   4  -1   8   26.60    4.23
   4  -1   8   30.56    3.66
  -4   1  -8   32.18    3.05
  -4   1  -9   -0.47    1.61
   4  -1   9   -0.66    2.05
  -4   1  -9    0.48    0.87
  -4   1 -10    3.91    2.10
   4  -1  10    2.88    2.27
  -4   1 -11   -0.28    1.94
   4  -1  11    0.11    2.32
  -4   1 -12    6.93    2.61
   4  -1  12    4.99    2.76
  -4   1 -13    7.62    2.32
   4  -1  13    5.11    2.89
  -4   1 -14   34.15    4.88
   4  -1  14   26.48    4.62
  -4   0  10    1.85    1.46
   4   0  -9   11.91    2.75
  -4   0   9   13.53    2.96
   4   0  -8    4.40    2.08
  -4   0   8    7.41    1.81
   4   0  -7    1.93    1.80
  -4   0   7   -0.56    1.20
   4   0  -6   26.32    5.39
  -4   0   6   29.94    4.68
   4   0  -5    2.77    1.93
  -4   0   5    1.27    1.40
   4   0  -4   12.26    2.68
  -4   0   4   12.97    1.99
   4   0  -3   -0.56    1.71
  -4   0   3   -0.39    1.08
   4   0  -2   22.68    4.35
  -4   0   2   31.40    3.79
   4   0  -1   99.35   14.49
  -4   0   1   82.34    9.64
   4   0   0    1.41    1.91
  -4   0   0    0.01    1.59
   4   0   0    0.84    1.34
   4   0   1   -0.01    0.96
   4   0   1   -0.39    1.88
  -4   0  -1   -0.16    1.58
   4   0   1   -0.56    1.18
   4   0   2   33.27    4.16
   4   0   2   34.00    4.29
   4   0   2   33.28    5.71
   4   0   2   37.21    4.73
  -4   0  -2   41.22    5.15
   4   0   3   19.17    2.79
   4   0   3   25.18    3.42
   4   0   3   27.92    4.12
  -4   0  -3   26.60    3.55
   4   0   4    0.24    1.01
   4   0   4    0.08    1.22
  -4   0  -4   -0.21    1.12
  -4   0  -5    3.59    1.76
   4   0   5    2.80    1.18
   4   0   5    2.62    1.56
  -4   0  -5    2.30    1.21
  -4   0  -6    2.41    1.61
   4   0   6    1.18    1.13
   4   0   6    2.94    1.84
  -4   0  -6    2.22    1.26
  -4   0  -7   14.37    2.49
   4   0   7   13.92    2.56
  -4   0  -7   14.21    1.88
  -4   0  -7   13.02    1.73
  -4   0  -8    1.54    1.72
   4   0   8    0.49    1.75
  -4   0  -8    1.16    1.01
  -4   0  -8    0.35    0.93
  -4   0  -9  140.54   20.56
   4   0   9  106.52   16.13
  -4   0  -9  108.63   14.68
  -4   0 -10    5.04    2.07
   4   0  10    1.73    2.06
  -4   0 -11   -0.51    1.87
   4   0  11   -0.84    1.99
   4   0  12   17.82    4.14
   4   0  13   12.32    2.50
   4   0  13    6.81    2.67
   4   0  14    2.17    2.26
   4   0  14    2.57    2.68
  -4  -1  10    3.64    2.60
  -4  -1  10    3.96    1.45
   4   1  -9    1.30    1.88
  -4  -1   9   -0.09    1.37
   4   1  -8   17.97    3.89
  -4  -1   8   19.78    2.72
   4   1  -7   22.65    4.97
  -4  -1   7   29.59    4.06
   4   1  -6   65.60   12.14
  -4  -1   6   80.01   11.11
   4   1  -5   53.81   10.29
  -4  -1   5   60.45    4.79
   4   1  -4   -0.09    1.81
  -4  -1   4    0.78    1.34
   4   1  -3    1.79    1.58
  -4  -1   3    4.54    1.34
   4   1  -2    5.78    2.02
  -4  -1   2    6.74    1.62
   4   1  -1    1.05    1.84
  -4  -1   1    0.29    0.99
   4   1   0    1.26    1.89
   4   1   1    4.43    1.23
   4   1   1    5.09    2.41
  -4  -1  -1    6.41    1.48
   4   1   2   68.88    7.92
   4   1   2   90.94   10.09
  -4  -1  -2   85.23   10.54
  -4  -1  -2  104.87   10.86
   4   1   3    0.32    1.00
   4   1   3    0.09    0.78
  -4  -1  -3    0.67    1.21
  -4  -1  -3    0.20    1.06
   4   1   4   73.99    8.53
   4   1   4  106.26   11.53
   4   1   4   80.68   12.44
  -4  -1  -4  115.75   12.15
  -4  -1  -4  124.99   12.67
   4   1   5    6.58    1.59
   4   1   5    6.49    1.58
   4   1   5    5.14    2.33
  -4  -1  -5    5.93    1.56
  -4  -1  -5    6.14    1.43
   4   1   6    6.97    1.63
   4   1   6   10.61    1.85
   4   1   6    7.95    2.51
  -4  -1  -6    9.72    1.77
  -4  -1  -6    8.11    1.41
   4   1   7   48.06    4.36
   4   1   7   33.09    4.59
  -4  -1  -7   40.25    3.47
  -4  -1  -7   39.42    3.23
   4   1   8  119.52   15.21
   4   1   8   81.51   11.58
  -4  -1  -8   93.18   11.79
  -4  -1  -8   88.95   10.94
   4   1   9   50.82    7.64
   4   1   9   49.35    8.06
  -4  -1  -9   54.56    7.74
  -4  -1  -9   55.71    7.76
   4   1  10    1.99    1.66
   4   1  10   -0.38    1.80
  -4  -1 -10   -0.10    0.82
   4   1  11    2.06    1.77
   4   1  11    2.56    2.42
   4   1  12   -0.80    1.63
   4   1  12   -1.02    2.02
   4   1  13    0.44    1.70
   4   1  13    0.88    2.11
   4   1  14    0.97    2.08
   4   1  14   -0.26    2.33
  -4  -2  10    1.98    2.79
  -4  -2  10    1.34    1.45
   4   2  -9   17.84    4.57
  -4  -2   9   18.80    3.76
   4   2  -8    4.59    2.04
  -4  -2   8    3.37    1.40
   4   2  -7   -0.39    1.71
  -4  -2   7    0.32    1.12
   4   2  -6    0.83    2.01
  -4  -2   6    2.25    1.48
   4   2  -5   31.36    4.58
  -4  -2   5   31.80    3.18
   4   2  -4   -0.17    1.74
  -4  -2   4    1.21    1.33
   4   2  -3    7.54    2.34
  -4  -2   3    7.23    1.55
   4   2  -2    1.20    1.77
  -4  -2   2   -0.02    1.15
   4   2  -1   -0.60    1.78
  -4  -2   1    0.48    1.05
   4   2   0    0.43    0.88
   4   2   0    1.39    1.05
   4   2   0    1.78    1.88
   4   2   1  144.10   15.36
   4   2   1  169.79   17.69
  -4  -2  -1  175.99   17.68
   4   2   2   18.50    2.96
   4   2   2   21.34    3.11
  -4  -2  -2   21.13    3.05
  -4  -2  -2   25.45    3.32
   4   2   3    0.65    1.17
   4   2   3    0.44    1.03
   4   2   3    2.07    2.14
  -4  -2  -3   -0.12    1.14
  -4  -2  -3    0.98    1.10
   4   2   4    0.43    1.04
   4   2   4    0.16    1.01
   4   2   4   -0.29    1.77
  -4  -2  -4    0.60    1.20
  -4  -2  -4   -0.02    0.97
   4   2   5   11.85    2.41
   4   2   5   12.03    2.17
   4   2   5   12.08    2.85
  -4  -2  -5   14.99    2.53
  -4  -2  -5   11.49    1.61
   4   2   6   -0.30    1.32
   4   2   6    0.32    1.06
   4   2   6    0.82    1.82
  -4  -2  -6    0.20    1.22
  -4  -2  -6    1.11    1.01
   4   2   7   29.26    3.05
   4   2   7   25.57    3.97
  -4  -2  -7   25.13    2.79
  -4  -2  -7   29.13    2.62
   4   2   8   21.70    3.55
   4   2   8   13.53    2.82
  -4  -2  -8   15.67    2.73
  -4  -2  -8   16.47    2.58
   4   2   9   48.43    4.82
   4   2   9   41.37    4.95
  -4  -2  -9   42.41    3.84
  -4  -2  -9   47.16    3.76
   4   2  10   61.96    6.42
   4   2  10   58.37    6.86
  -4  -2 -10   70.03    6.08
   4   2  11   22.02    3.59
   4   2  11   17.62    3.70
   4   2  12    0.29    1.60
   4   2  12   -1.78    2.08
   4   2  13   -0.16    1.69
   4   2  13    0.45    2.47
   4   2  14   20.42    3.09
   4   2  14   13.42    3.02
  -4  -3  10    1.82    2.55
  -4  -3  10    1.09    1.21
   4   3  -9    3.18    2.23
  -4  -3   9    4.96    1.49
   4   3  -8    1.27    1.73
  -4  -3   8    2.06    1.41
   4   3  -7   -0.54    1.19
   4   3  -7   -1.57    1.88
  -4  -3   7    0.23    1.24
   4   3  -6   53.65    5.86
   4   3  -6   65.73   11.13
  -4  -3   6   70.06    6.60
   4   3  -5   29.93    5.02
   4   3  -5   33.16    8.15
  -4  -3   5   41.19    6.07
   4   3  -4   17.98    3.19
   4   3  -4   18.12    4.54
  -4  -3   4   21.36    3.32
   4   3  -3    6.17    1.59
   4   3  -3    6.06    2.30
  -4  -3   3    7.44    1.54
   4   3  -2   37.51    4.53
   4   3  -2   49.16    8.21
  -4  -3   2   51.07    5.31
   4   3  -1   12.95    1.87
  -4  -3   1   14.95    1.93
  -4  -3   1   14.62    1.85
   4   3   0   36.69    4.50
  -4  -3   0   37.66    4.52
   4   3   1    0.05    1.18
   4   3   1   -0.26    0.89
  -4  -3  -1    0.00    1.03
   4   3   2    8.76    2.03
   4   3   2    7.35    1.62
   4   3   2   11.26    2.57
  -4  -3  -2   10.45    1.78
  -4  -3  -2   11.39    1.68
   4   3   3   33.03    4.71
   4   3   3   30.41    4.12
   4   3   3   35.43    6.08
  -4  -3  -3   32.65    4.04
  -4  -3  -3   32.97    4.02
   4   3   4   10.96    2.21
   4   3   4   13.26    2.24
   4   3   4   12.78    3.32
  -4  -3  -4   12.37    2.23
  -4  -3  -4   13.10    2.10
   4   3   5    1.76    1.43
   4   3   5    2.83    1.24
   4   3   5    0.66    1.94
  -4  -3  -5    4.12    1.46
  -4  -3  -5    2.39    1.13
   4   3   6    1.68    1.53
   4   3   6    0.46    1.09
   4   3   6    0.95    1.85
  -4  -3  -6    0.61    1.09
  -4  -3  -6    1.30    0.93
   4   3   7  183.56   12.04
   4   3   7  180.12   15.06
  -4  -3  -7  173.75   11.47
  -4  -3  -7  182.82   10.24
   4   3   8  146.69   19.45
   4   3   8  118.71   17.94
  -4  -3  -8  118.61   14.96
  -4  -3  -8  161.47   19.39
   4   3   9   10.96    2.16
   4   3   9    8.51    2.36
  -4  -3  -9   12.09    2.16
  -4  -3  -9   13.51    1.94
   4   3  10    5.83    1.76
   4   3  10    4.45    2.28
  -4  -3 -10    5.94    1.01
   4   3  11    2.93    1.74
   4   3  11    1.94    1.87
   4   3  12   -0.10    1.73
   4   3  12   -1.03    2.31
   4   3  13   22.80    4.62
   4   3  13   17.26    4.32
   4   3  14   25.68    3.46
   4   3  14   18.83    3.52
   4   3  15    1.37    1.93
   4   3  15    1.05    2.10
  -4  -4  10    3.13    3.22
  -4  -4  10    2.09    1.30
  -4  -4   9    1.51    1.19
   4   4  -8    0.32    1.93
  -4  -4   8    1.88    1.42
   4   4  -7    2.14    1.61
   4   4  -7    2.25    2.13
  -4  -4   7    3.32    1.30
   4   4  -6    6.81    1.80
   4   4  -6    7.53    2.62
  -4  -4   6    8.49    1.57
   4   4  -5   93.81    9.62
   4   4  -5   86.85   17.86
  -4  -4   5  112.87    9.93
   4   4  -4   17.20    2.88
   4   4  -4   18.37    4.18
  -4  -4   4   23.12    3.09
   4   4  -3   45.45    6.50
   4   4  -3   41.86    9.37
  -4  -4   3   56.34    7.24
   4   4  -2    0.13    1.11
  -4  -4   2   -0.14    0.99
   4   4  -1   42.19    4.91
  -4  -4   1   35.74    4.05
  -4  -4   1   49.72    5.19
   4   4   0  117.38   13.05
  -4  -4   0  124.26   13.03
   4   4   0  114.58   23.44
   4   4   1    8.96    1.62
  -4  -4  -1    9.34    1.69
   4   4   1    9.08    2.73
   4   4   2   -0.39    0.93
  -4  -4  -2   -0.09    0.94
   4   4   2   -0.38    1.90
  -4  -4  -2    0.26    0.97
   4   4   3   10.67    1.81
  -4  -4  -3    9.26    1.73
   4   4   3    8.76    2.78
  -4  -4  -3    6.12    1.36
  -4  -4  -3    8.84    1.47
   4   4   4    6.67    1.86
   4   4   4    6.85    1.63
   4   4   4    7.72    2.65
  -4  -4  -4    8.16    1.69
  -4  -4  -4    8.81    1.43
   4   4   5  101.53   11.55
   4   4   5   96.56   11.11
   4   4   5   83.67   12.20
  -4  -4  -5   74.05    9.12
  -4  -4  -5   98.93   10.00
   4   4   6   32.22    4.71
   4   4   6   28.63    3.80
   4   4   6   29.23    4.89
  -4  -4  -6   34.68    4.21
  -4  -4  -6   34.24    3.74
   4   4   7    1.27    1.23
   4   4   7    3.11    2.08
  -4  -4  -7    1.40    1.08
  -4  -4  -7    1.81    1.00
   4   4   8   43.01    6.04
   4   4   8   38.81    6.35
  -4  -4  -8   34.02    4.94
  -4  -4  -8   45.33    5.84
   4   4   9   19.19    2.94
   4   4   9   13.23    3.08
  -4  -4  -9   13.63    2.34
  -4  -4  -9   18.46    2.32
   4   4  10   17.65    2.64
   4   4  10   12.06    2.71
  -4  -4 -10   17.07    1.57
   4   4  11    6.41    1.94
   4   4  11    6.90    2.37
   4   4  12   10.66    2.15
   4   4  12    6.38    2.47
   4   4  13   21.08    4.43
   4   4  13   13.00    3.12
   4   4  14   30.09    3.68
   4   4  14   21.73    3.63
   4   4  15    6.16    2.13
   4   4  15    6.81    2.70
  -4  -5   9   -0.76    2.48
  -4  -5   9    1.49    1.27
   4   5  -8    2.44    1.90
  -4  -5   8    2.48    1.26
   4   5  -7   78.62   11.48
   4   5  -7   86.01   19.17
  -4  -5   7  112.59    4.50
   4   5  -6   16.54    2.86
   4   5  -6   14.86    4.17
  -4  -5   6   19.58    2.69
   4   5  -5   45.73    5.47
   4   5  -5   48.38   10.41
  -4  -5   5   50.59    5.01
   4   5  -4    4.78    1.58
   4   5  -4    5.94    2.04
  -4  -5   4    5.72    1.50
   4   5  -3    8.47    1.95
  -4  -5   3    8.82    1.83
   4   5  -2   28.96    4.53
  -4  -5   2   32.67    4.47
   4   5  -1    0.39    0.94
   4   5  -1    0.93    1.70
  -4  -5   1   -0.70    0.86
   4   5   0   15.53    2.03
  -4  -5   0   13.91    1.77
   4   5   0   17.12    3.36
   4   5   1   30.46    3.87
  -4  -5  -1   25.90    3.33
   4   5   1   24.58    5.06
   4   5   2   12.27    1.90
  -4  -5  -2   10.50    1.73
   4   5   2    8.87    2.89
  -4  -5  -2   11.51    1.63
   4   5   3    3.15    1.23
  -4  -5  -3    2.51    1.20
   4   5   3    2.78    2.32
  -4  -5  -3    3.73    1.11
   4   5   4   11.34    1.95
  -4  -5  -4    9.37    1.77
   4   5   4    9.50    2.77
  -4  -5  -4   11.79    1.53
   4   5   4   12.69    1.86
   4   5   5  119.61   15.33
   4   5   5  126.05   18.08
  -4  -5  -5  130.47   11.89
   4   5   5  146.07   13.32
   4   5   6   79.61    6.54
   4   5   6   75.32    9.29
  -4  -5  -6   84.01    6.09
  -4  -5  -6   81.58    5.14
   4   5   7    8.32    1.78
   4   5   7    9.86    2.46
  -4  -5  -7   10.30    1.82
  -4  -5  -7   12.25    1.47
   4   5   8   89.55   11.90
   4   5   8   78.78   12.31
  -4  -5  -8   96.51   12.61
  -4  -5  -8  112.13   13.54
   4   5   9   13.60    2.13
   4   5   9   14.15    2.85
  -4  -5  -9   15.59    2.08
  -4  -5  -9   14.99    1.49
   4   5  10   10.79    1.86
   4   5  10    7.73    2.11
  -4  -5 -10    9.18    1.21
   4   5  11    7.51    1.95
   4   5  11    4.00    2.29
   4   5  12    3.26    1.50
   4   5  12    2.02    2.11
   4   5  13    0.69    1.50
   4   5  13    1.34    2.03
   4   5  14   21.41    3.24
   4   5  14   14.21    3.20
   4   5  15    7.46    2.28
  -4  -6   9    3.81    2.86
  -4  -6   9    2.81    1.36
   4   6  -8    2.42    2.01
  -4  -6   8    2.69    1.35
   4   6  -7    2.91    1.67
   4   6  -7    2.04    2.16
  -4  -6   7    3.88    1.46
   4   6  -6    5.02    1.79
   4   6  -6    6.21    2.25
  -4  -6   6    5.07    1.33
   4   6  -5    3.63    1.58
  -4  -6   5    4.77    1.48
   4   6  -4    6.59    1.81
  -4  -6   4    5.35    1.36
   4   6  -3    9.78    1.92
  -4  -6   3   11.19    1.61
   4   6  -2   38.12    4.10
   4   6  -2   33.31    7.48
  -4  -6   2   43.69    3.77
   4   6  -1    2.25    1.13
   4   6  -1    1.13    1.72
  -4  -6   1    2.95    1.30
   4   6   0    1.25    1.05
  -4  -6   0    1.53    1.02
   4   6   0    0.35    1.57
   4   6   1   21.36    2.61
  -4  -6  -1   16.89    1.91
   4   6   1   14.34    4.05
   4   6   2   23.89    2.85
  -4  -6  -2   18.54    2.25
   4   6   2   20.68    4.76
  -4  -6  -2   27.08    2.53
   4   6   3    6.96    1.60
  -4  -6  -3    5.29    1.38
   4   6   3    5.51    2.49
  -4  -6  -3    6.69    1.35
   4   6   4   60.75    6.00
  -4  -6  -4   59.02    4.73
   4   6   4   52.50    9.75
  -4  -6  -4   69.64    4.76
   4   6   5   47.98    5.36
  -4  -6  -5   51.59    4.46
   4   6   5   47.81    7.28
  -4  -6  -5   62.79    4.20
   4   6   6    3.43    1.44
   4   6   6    2.82    2.27
  -4  -6  -6    3.61    1.13
   4   6   6    4.40    1.48
   4   6   7  189.34   25.31
   4   6   7  178.46   26.79
  -4  -6  -7  219.21   26.11
   4   6   7  235.21   28.39
   4   6   8    4.71    1.40
   4   6   8    6.35    2.59
  -4  -6  -8    6.45    1.26
   4   6   9   55.82    8.65
   4   6   9   47.85    7.72
  -4  -6  -9   57.68    8.40
  -4  -6  -9   61.10    8.30
   4   6  10   88.87    8.60
   4   6  10   78.89   10.43
  -4  -6 -10   85.78    7.49
   4   6  11   21.69    3.26
   4   6  11   14.20    3.24
   4   6  12    0.69    1.49
   4   6  12   -0.23    1.86
   4   6  13    0.50    1.63
   4   6  13   -1.34    1.86
   4   6  14    0.82    1.62
  -4  -7   8    5.31    3.70
  -4  -7   8   17.74    2.69
   4   7  -7    1.00    2.10
  -4  -7   7    3.19    1.44
   4   7  -6    3.24    1.73
  -4  -7   6    3.96    1.44
   4   7  -5    2.89    1.55
  -4  -7   5    4.55    1.36
   4   7  -4    2.62    1.52
   4   7  -4    4.17    2.07
  -4  -7   4    1.87    1.08
   4   7  -3    1.35    1.31
   4   7  -3    0.00    1.95
  -4  -7   3    0.78    1.18
   4   7  -2    0.27    1.13
   4   7  -2    0.72    1.95
  -4  -7   2    1.33    1.25
   4   7  -1    6.91    1.56
   4   7  -1    3.23    2.03
  -4  -7   1    6.69    1.51
   4   7   0    5.90    1.41
   4   7   0    6.83    2.38
  -4  -7   0    5.91    1.39
   4   7   1    2.11    1.31
  -4  -7  -1    1.30    0.95
   4   7   1   -1.01    2.09
   4   7   2   54.17    7.63
  -4  -7  -2   41.12    5.70
   4   7   2   37.57    7.73
  -4  -7  -2   58.94    7.48
   4   7   3    5.44    1.55
  -4  -7  -3    4.60    1.41
   4   7   3    6.34    2.64
  -4  -7  -3    8.16    1.37
   4   7   4  138.03   20.22
   4   7   4  122.18   24.46
  -4  -7  -4  166.75   20.03
   4   7   5    1.02    1.19
   4   7   5    0.08    2.03
  -4  -7  -5    0.92    0.95
   4   7   6   62.89    9.47
   4   7   6   58.58   11.47
  -4  -7  -6   80.66    9.94
   4   7   7   98.85   10.48
   4   7   7   80.54   12.06
  -4  -7  -7  112.63    7.36
   4   7   8    9.00    1.68
   4   7   8    6.51    2.46
  -4  -7  -8   10.59    1.37
   4   7   9   15.58    2.26
   4   7   9   14.29    3.20
  -4  -7  -9   18.34    1.61
   4   7  10    0.11    1.20
   4   7  10   -0.82    1.95
  -4  -7 -10   -0.07    0.74
   4   7  11   -0.74    1.47
   4   7  11    0.89    2.01
   4   7  12    0.32    1.47
   4   7  12    2.50    1.99
   4   7  13   26.64    3.15
   4   7  14    1.26    1.81
  -4  -8   7    1.28    1.40
   4   8  -6    3.90    1.66
  -4  -8   6    5.72    1.60
   4   8  -5   13.46    3.17
   4   8  -5    9.93    3.31
  -4  -8   5   16.92    3.35
   4   8  -4    6.06    1.74
   4   8  -4    5.85    2.71
  -4  -8   4    9.68    1.55
   4   8  -3    1.26    1.24
   4   8  -3    0.37    1.67
  -4  -8   3    1.78    1.12
   4   8  -2   -0.17    1.12
   4   8  -2   -0.51    1.55
  -4  -8   2   -0.27    0.98
   4   8  -1   48.55    5.45
   4   8  -1   38.51   10.03
  -4  -8   1   59.71    5.60
   4   8   0    0.27    1.11
   4   8   0    0.96    1.96
  -4  -8   0    1.26    1.16
   4   8   1   15.23    2.40
   4   8   1    9.63    2.79
   4   8   2    3.59    1.60
   4   8   2    3.08    2.24
  -4  -8  -2    3.92    1.04
   4   8   3    4.13    1.58
   4   8   3    2.83    2.27
  -4  -8  -3    4.87    1.17
   4   8   4   44.83    4.83
   4   8   4   28.85    5.44
  -4  -8  -4   48.90    3.78
   4   8   5   51.80    5.90
   4   8   5   38.56    7.22
  -4  -8  -5   60.22    4.40
   4   8   6    2.86    1.36
   4   8   6    1.67    2.07
  -4  -8  -6    3.71    1.06
   4   8   7    1.10    1.16
   4   8   7    0.85    2.01
  -4  -8  -7    1.50    0.94
   4   8   8   12.39    2.15
   4   8   8    7.19    2.31
  -4  -8  -8   12.92    1.54
   4   8   9   47.25    6.19
   4   8   9   35.74    6.71
  -4  -8  -9   51.61    5.89
   4   8  10    0.15    1.39
   4   8  10    0.25    1.88
  -4  -8 -10   -0.30    0.79
   4   8  11   19.08    3.52
   4   8  11   12.05    3.24
   4   8  12   16.59    3.58
   4   8  13    1.46    1.42
   4   8  14    0.30    1.57
   4   9  -6    0.58    1.68
   4   9  -6    1.13    2.25
  -4  -9   6    2.09    1.23
   4   9  -5    5.66    1.82
   4   9  -5    4.11    2.41
  -4  -9   5    7.49    1.62
   4   9  -4    1.52    1.41
   4   9  -4   -0.49    1.91
  -4  -9   4    1.08    1.14
   4   9  -3    0.04    1.32
   4   9  -3   -0.74    2.21
  -4  -9   3    0.00    1.14
   4   9  -2    1.37    1.27
   4   9  -2    2.43    1.93
  -4  -9   2    2.53    1.19
   4   9  -1    7.17    1.71
   4   9  -1    4.41    2.70
  -4  -9   1    7.79    1.40
   4   9   0    5.86    1.54
   4   9   0    1.86    2.03
  -4  -9   0    6.21    1.38
   4   9   1  134.35   13.18
   4   9   1   84.60   19.62
   4   9   2   20.11    2.68
   4   9   2   14.05    3.87
  -4  -9  -2   22.45    1.88
   4   9   3    6.92    1.74
   4   9   3    4.64    2.32
  -4  -9  -3    6.36    1.21
   4   9   4   42.72    6.88
   4   9   4   33.17    7.97
  -4  -9  -4   52.88    7.30
   4   9   5   27.91    4.75
   4   9   5   16.53    4.29
  -4  -9  -5   29.18    4.30
   4   9   6    7.23    1.81
   4   9   6    5.13    2.44
  -4  -9  -6    6.62    1.29
   4   9   7    0.33    1.44
   4   9   7   -0.47    1.90
  -4  -9  -7    0.97    0.90
   4   9   8    2.99    1.63
   4   9   8    0.43    2.02
  -4  -9  -8    3.83    1.12
   4   9   9   -0.27    1.37
   4   9   9   -0.84    1.83
  -4  -9  -9   -0.02    0.99
   4   9  10   17.64    3.28
   4   9  10   11.68    3.31
  -4  -9 -10   21.00    3.21
   4   9  11   59.54   11.04
   4   9  12   16.48    2.50
   4   9  13    0.00    1.34
   4  10  -5   19.94    3.43
   4  10  -5   17.72    4.56
  -4 -10   5   28.92    3.78
   4  10  -4    0.57    1.41
   4  10  -4    0.01    2.15
  -4 -10   4    0.38    1.11
   4  10  -3    0.86    1.44
   4  10  -3    0.05    1.70
  -4 -10   3    1.20    1.10
   4  10  -2   10.91    2.41
   4  10  -2    6.87    3.03
  -4 -10   2   13.53    2.42
   4  10  -1    2.91    1.39
   4  10  -1    1.10    1.89
  -4 -10   1    3.39    1.30
   4  10   0   15.00    2.54
   4  10   0   12.00    3.69
  -4 -10   0   19.80    2.55
   4  10   1    3.63    1.45
   4  10   1    4.78    2.05
   4  10   2    0.91    1.44
   4  10   2   -0.06    1.73
  -4 -10  -2    0.42    1.01
   4  10   3    2.74    1.45
   4  10   3    1.65    2.15
  -4 -10  -3    3.11    1.13
   4  10   4    6.73    1.89
   4  10   4    4.12    2.56
  -4 -10  -4    5.69    1.17
   4  10   5   10.00    1.95
   4  10   5    6.81    2.58
  -4 -10  -5   11.47    1.47
   4  10   6    8.83    2.11
   4  10   6    4.21    2.29
  -4 -10  -6    9.90    1.44
   4  10   7    1.43    1.31
   4  10   7   -0.25    1.92
  -4 -10  -7    1.26    0.99
   4  10   8   31.09    4.46
   4  10   8   24.19    4.62
  -4 -10  -8   31.44    3.42
   4  10   9    6.34    1.77
   4  10   9    4.47    2.34
  -4 -10  -9    8.59    1.43
   4  10  10    9.04    2.03
  -4 -10 -10   11.16    1.44
   4  10  11    0.36    1.40
   4  10  12    6.21    1.77
   4  10  13    3.80    1.69
   4  11  -4    3.68    1.73
   4  11  -4    2.84    2.51
  -4 -11   4    5.57    1.48
   4  11  -3    0.69    1.35
   4  11  -3    1.79    2.20
  -4 -11   3    2.83    1.24
   4  11  -2    1.08    1.45
   4  11  -2    1.45    1.91
  -4 -11   2    1.71    1.22
   4  11  -1   27.43    5.48
   4  11  -1   24.29    7.42
  -4 -11   1   39.46    6.96
   4  11   0   11.50    2.50
   4  11   0    6.57    3.55
  -4 -11   0   14.55    2.46
   4  11   1   24.20    3.89
   4  11   1   15.67    4.35
   4  11   2   25.66    4.26
   4  11   2   16.89    5.48
  -4 -11  -2   29.09    4.21
   4  11   3   -0.28    1.53
   4  11   3    0.53    1.88
  -4 -11  -3    0.52    0.93
   4  11   4   34.48    4.42
   4  11   4   24.87    5.42
  -4 -11  -4   37.27    3.94
   4  11   5    1.46    1.71
   4  11   5    1.55    2.07
  -4 -11  -5    0.42    1.07
   4  11   6    0.13    1.65
   4  11   6   -0.11    1.94
  -4 -11  -6    0.52    1.13
   4  11   7    4.58    1.69
   4  11   7    2.99    1.95
  -4 -11  -7    5.13    1.31
   4  11   8    0.43    1.55
  -4 -11  -8    1.41    1.09
   4  11   9   16.98    3.73
  -4 -11  -9   20.55    3.85
   4  11  10    0.62    1.34
  -4 -11 -10    1.09    1.04
   4  11  11    2.59    1.59
   4  11  12    9.33    2.16
   4  12  -2    0.17    1.32
   4  12  -2    0.61    2.01
  -4 -12   2    3.57    1.30
   4  12  -1   -0.34    1.32
   4  12  -1   -0.99    2.02
  -4 -12   1   -0.24    1.05
   4  12   0   -0.05    1.24
   4  12   0    1.10    2.33
  -4 -12   0   -0.07    1.23
   4  12   1   58.71    5.27
   4  12   1   48.28    9.86
   4  12   2   17.66    3.82
   4  12   2   11.66    3.49
  -4 -12  -2   21.32    4.00
   4  12   3    4.31    1.80
   4  12   3    3.37    2.22
  -4 -12  -3    5.80    1.29
   4  12   4    1.07    1.56
   4  12   4    0.79    1.88
  -4 -12  -4    0.05    1.13
   4  12   5    2.04    1.87
   4  12   5    1.91    2.22
  -4 -12  -5    4.61    1.22
   4  12   6   15.85    3.59
   4  12   6   11.92    3.43
  -4 -12  -6   18.47    3.52
   4  12   7    2.66    1.88
  -4 -12  -7    2.14    1.21
   4  12   8    2.07    1.80
  -4 -12  -8    3.62    1.27
   4  12   9    3.81    1.65
  -4 -12  -9    2.88    1.25
   4  12  10   12.80    2.36
  -4 -12 -10   12.52    1.84
   4  12  11   -0.01    1.33
   4  13   0    0.93    1.41
   4  13   0    1.44    2.20
  -4 -13   0    0.06    1.19
   4  13   1    4.98    1.68
   4  13   1    4.10    2.45
   4  13   2    7.30    1.69
   4  13   2    3.18    2.51
  -4 -13  -2    8.69    1.72
   4  13   3   10.50    2.22
   4  13   3    4.02    2.62
  -4 -13  -3   11.40    1.82
   4  13   4    4.09    1.99
   4  13   4    2.72    2.20
  -4 -13  -4    4.31    1.36
   4  13   5   -0.20    1.84
  -4 -13  -5    0.83    1.24
   4  13   6    9.06    2.39
  -4 -13  -6   13.16    1.97
   4  13   7    1.17    1.87
  -4 -13  -7   -0.10    1.18
   4  13   8   11.35    2.51
  -4 -13  -8   14.21    2.32
   4  13   9    0.23    1.73
  -4 -13  -9    1.20    1.15
   4  14   4    2.29    1.80
  -4 -14  -4    2.67    1.20
   4  14   5    4.39    2.06
  -4 -14  -5    4.44    1.34
   4  14   6    0.70    1.89
   5  -9  -1    6.86    2.03
   5  -9   0    1.14    1.79
   5  -9   1   -0.67    1.57
   5  -9   2    3.07    2.05
   5  -8  -3    6.26    1.87
   5  -8  -2    3.14    1.68
   5  -8  -1    4.04    1.89
   5  -8   0    2.03    1.81
   5  -8   1    3.33    2.23
   5  -8   1    8.55    2.21
   5  -8   2    3.86    2.05
   5  -8   2    5.22    1.90
   5  -8   3    3.68    2.22
   5  -8   3    3.07    1.68
   5  -8   4    7.64    2.56
   5  -8   4    8.42    2.44
   5  -8   5    1.26    2.04
   5  -8   5    2.01    1.56
   5  -7  -6    8.61    2.12
   5  -7  -5    4.78    1.86
   5  -7  -3    7.64    1.92
   5  -7  -2    1.31    1.49
   5  -7  -1    0.68    1.59
   5  -7  -1   -0.09    1.41
   5  -7   0   -0.65    1.74
   5  -7   0   -1.01    1.80
   5  -7   1    0.63    1.79
   5  -7   1    0.87    1.91
   5  -7   2    4.21    2.18
   5  -7   2    7.13    2.09
   5  -7   3    0.26    1.69
   5  -7   3   -0.08    1.72
   5  -7   4    5.95    2.15
   5  -7   4    7.51    2.20
   5  -7   5   -0.56    1.66
   5  -7   5   -1.97    1.61
   5  -7   6   -1.10    1.68
   5  -7   6    0.14    1.40
   5  -7   7    3.87    2.21
   5  -6  -7   11.33    2.44
   5  -6  -6    4.87    1.67
   5  -6  -5    1.33    1.74
   5  -6  -2    3.36    1.94
   5  -6  -2    5.41    1.65
   5  -6  -1    0.39    1.80
   5  -6  -1    2.25    1.73
   5  -6   0    1.03    1.81
   5  -6   0   -0.24    1.46
   5  -6   1    9.01    2.51
   5  -6   1   10.55    2.62
   5  -6   2   15.53    3.70
   5  -6   2   21.08    3.88
   5  -6   3    0.32    1.96
   5  -6   3    0.78    1.63
   5  -6   4    4.00    2.21
   5  -6   4    4.92    1.87
   5  -6   5    5.63    2.28
   5  -6   5    4.02    1.94
   5  -6   6    2.20    2.18
   5  -6   6    2.66    1.63
  -5   6  -7   -1.93    1.89
   5  -6   7    0.11    1.83
  -5   6  -8    4.79    2.22
   5  -6   8    1.79    2.26
   5  -5  -7    5.10    1.86
   5  -5  -6   -0.70    1.38
   5  -5  -5    4.55    1.92
   5  -5  -4    1.74    1.80
   5  -5  -3    6.93    2.23
   5  -5  -3    7.65    1.98
   5  -5  -2    3.58    1.84
   5  -5  -2    2.62    1.74
   5  -5  -1   37.68    5.78
   5  -5  -1   58.82    7.00
   5  -5   0    2.62    2.11
   5  -5   0    7.59    2.05
   5  -5   1    4.17    2.15
   5  -5   1    4.19    1.86
   5  -5   2    1.58    1.97
   5  -5   2    0.48    1.37
   5  -5   3   -0.59    1.81
   5  -5   3   -0.11    1.51
   5  -5   4    0.74    1.93
   5  -5   4    0.69    1.63
   5  -5   5    0.42    1.73
   5  -5   5    0.02    1.44
  -5   5  -6   37.62    7.61
   5  -5   6   27.06    5.88
   5  -5   6   31.81    6.21
  -5   5  -7    0.91    1.93
   5  -5   7   -1.03    1.67
  -5   5  -8    5.17    2.09
   5  -5   8    4.32    2.47
  -5   5  -9   -0.43    1.91
   5  -5   9    0.97    2.30
  -5   4   8    0.83    1.88
   5  -4  -7   33.99    3.80
   5  -4  -6    2.88    1.59
   5  -4  -5    2.38    1.86
   5  -4  -5    0.39    1.46
   5  -4  -4    3.81    1.97
   5  -4  -3   -0.03    1.78
   5  -4  -3    0.76    1.64
   5  -4  -2    5.67    2.57
   5  -4  -2    8.52    1.99
   5  -4  -1   45.13    7.94
   5  -4  -1   50.91    7.54
   5  -4   0    8.11    2.32
   5  -4   0   15.33    2.43
   5  -4   1    1.48    1.84
   5  -4   1    2.74    1.50
   5  -4   2    2.78    2.24
   5  -4   2    5.16    1.86
   5  -4   3   20.06    3.82
   5  -4   3   28.81    4.24
   5  -4   4    3.30    1.86
   5  -4   4    1.95    1.48
  -5   4  -5   33.41    4.77
   5  -4   5   24.82    4.13
   5  -4   5   33.68    4.63
  -5   4  -6   -0.04    1.74
   5  -4   6   -0.79    1.83
   5  -4   6   -0.49    1.43
  -5   4  -7    0.06    1.72
   5  -4   7   -0.04    2.00
  -5   4  -8   25.10    5.51
   5  -4   8   22.57    5.32
  -5   4  -9   -1.31    1.93
   5  -4   9   -1.36    2.23
  -5   4 -10    2.40    2.03
   5  -4  10   -0.23    2.50
  -5   3   8    3.92    1.87
  -5   3   7    6.22    1.77
   5  -3  -6    0.81    1.58
   5  -3  -6    1.79    1.77
   5  -3  -5   -0.26    1.69
   5  -3  -5    0.29    1.59
   5  -3  -4    3.84    2.19
   5  -3  -3   33.55    6.95
   5  -3  -3   53.83    6.94
   5  -3  -2   21.27    4.18
   5  -3  -2   30.32    3.80
   5  -3  -1   17.29    3.53
   5  -3  -1   25.82    3.46
   5  -3   0   12.37    3.12
   5  -3   0   16.14    2.50
   5  -3   1    3.40    1.90
   5  -3   1    2.11    1.43
   5  -3   2    1.08    1.79
   5  -3   2    1.39    1.57
   5  -3   3   15.36    3.66
   5  -3   3   25.78    3.45
   5  -3   4    2.07    2.04
   5  -3   4    1.47    1.38
  -5   3  -5   32.10    5.01
   5  -3   5   23.35    4.09
   5  -3   5   32.89    5.01
  -5   3  -6   10.49    2.42
   5  -3   6    7.29    2.33
   5  -3   6   10.14    2.22
  -5   3  -7    2.07    1.80
   5  -3   7    1.82    1.79
   5  -3   7    1.44    1.43
  -5   3  -8    3.33    2.07
   5  -3   8    2.74    2.25
  -5   3  -9    2.38    2.12
   5  -3   9    1.89    2.35
  -5   3 -10    4.25    2.07
  -5   3 -11    1.96    2.08
  -5   2   9    4.66    1.86
  -5   2   8    1.06    1.85
   5  -2  -7    6.45    2.39
  -5   2   7   14.23    2.29
   5  -2  -6    1.28    1.71
  -5   2   6    1.35    1.64
   5  -2  -5   -0.17    1.81
  -5   2   5   -0.81    1.63
   5  -2  -4   -0.04    1.90
   5  -2  -3   40.25    7.01
   5  -2  -3   62.93    6.44
   5  -2  -2    0.90    1.94
   5  -2  -2    0.67    1.60
   5  -2  -1    2.19    2.20
   5  -2  -1    4.56    1.86
   5  -2   0   57.76   11.38
   5  -2   0   88.28   12.82
   5  -2   1    7.25    1.43
   5  -2   1    7.77    2.62
   5  -2   1   11.54    2.25
   5  -2   2  184.92   25.37
   5  -2   2  152.29   27.58
   5  -2   2  245.89   33.54
   5  -2   3  118.69   16.60
   5  -2   3  129.87   19.57
   5  -2   3  170.61   24.03
  -5   2  -4    0.50    1.53
   5  -2   4    0.17    1.00
   5  -2   4    1.22    1.94
   5  -2   4    0.79    1.48
  -5   2  -5   11.86    2.36
   5  -2   5    9.35    1.57
   5  -2   5    6.74    2.51
   5  -2   5   13.02    2.22
  -5   2  -6    6.39    2.01
   5  -2   6    3.90    2.34
   5  -2   6    4.24    1.78
  -5   2  -7    6.45    2.17
   5  -2   7    5.35    2.10
   5  -2   7    6.36    1.77
  -5   2  -8    2.52    1.94
  -5   2  -9   -0.40    1.59
  -5   2 -10   -0.63    1.98
   5  -2  10   -0.99    1.98
  -5   2 -11    4.77    2.32
   5  -2  11    2.47    2.32
  -5   2 -12    3.39    2.26
   5  -2  12    3.58    2.66
  -5   1   9    0.27    1.82
   5  -1  -8   -1.62    1.51
  -5   1   8    0.27    1.46
   5  -1  -7   -0.60    1.65
  -5   1   7   -0.41    1.66
   5  -1  -6   -1.50    1.69
  -5   1   6    0.48    1.75
   5  -1  -5   10.17    2.76
  -5   1   5   16.01    2.77
   5  -1  -4   17.55    4.60
  -5   1   4   34.38    4.64
   5  -1  -3    1.90    2.09
  -5   1   3    5.21    1.83
   5  -1  -2   23.02    4.37
   5  -1  -1  203.37   37.12
   5  -1  -1  274.81   37.87
   5  -1   0   -0.48    1.99
   5  -1   0    1.67    1.58
   5  -1   1    5.91    2.35
   5  -1   1   10.05    2.30
   5  -1   2   14.69    2.35
   5  -1   2   17.10    2.53
   5  -1   2   17.49    3.59
   5  -1   2   26.43    3.70
   5  -1   3    7.93    1.63
   5  -1   3    9.30    1.85
   5  -1   3   10.14    2.65
   5  -1   3    9.99    2.31
   5  -1   4    8.40    1.70
   5  -1   4   10.05    1.97
   5  -1   4    9.75    2.65
   5  -1   4    6.22    1.84
  -5   1  -5   52.42    8.05
   5  -1   5   48.44    7.02
   5  -1   5   44.22    7.87
   5  -1   5   58.75    8.60
  -5   1  -6    7.80    2.06
   5  -1   6    8.58    2.55
   5  -1   6   10.71    2.14
  -5   1  -7   -0.06    1.56
   5  -1   7   -0.68    1.28
  -5   1  -8   24.22    4.23
  -5   1  -8   26.71    3.57
  -5   1  -9    0.69    1.61
   5  -1   9    0.36    2.00
  -5   1  -9    0.14    0.94
  -5   1 -10    2.74    1.91
   5  -1  10    2.93    2.27
  -5   1 -11    2.33    1.85
   5  -1  11    4.35    2.59
   5  -1  12    1.77    2.29
   5   0  -9    1.65    1.95
  -5   0   9    4.58    1.79
   5   0  -8    1.15    1.82
  -5   0   8    0.97    1.41
   5   0  -7    0.73    2.00
  -5   0   7    1.96    1.72
   5   0  -6    1.99    1.82
  -5   0   6    4.62    1.71
   5   0  -5   11.88    2.92
  -5   0   5   18.93    2.87
   5   0  -4    4.99    2.66
  -5   0   4   12.59    2.36
   5   0  -3   51.56    8.57
  -5   0   3   79.19    7.51
   5   0  -2   -0.87    1.67
  -5   0   2    0.87    1.50
   5   0  -1    1.07    2.25
   5   0   0   19.53    4.38
   5   0   1   21.97    4.98
  -5   0  -1   29.87    3.15
   5   0   2   -0.25    0.90
   5   0   2   -0.09    0.91
   5   0   2    0.07    2.10
  -5   0  -2   -0.22    1.11
   5   0   3    0.84    1.00
   5   0   3    0.96    0.96
   5   0   3    1.96    2.19
  -5   0  -3    1.76    1.14
   5   0   4   12.88    2.13
   5   0   4   11.69    2.06
   5   0   4    9.93    3.12
  -5   0  -4   16.32    2.51
   5   0   5    4.41    1.36
   5   0   5    5.40    1.48
  -5   0  -5    6.02    1.59
   5   0   6   12.61    1.90
   5   0   6   10.89    1.84
  -5   0  -6   14.49    1.82
   5   0   7   17.16    2.31
   5   0   7   10.76    3.02
  -5   0  -7   17.44    2.10
   5   0   8    3.23    1.57
   5   0   8    3.46    2.25
  -5   0  -8    3.77    1.26
   5   0   9    0.42    1.46
   5   0   9   -0.23    1.76
  -5   0  -9    0.46    0.96
   5   0  10   -0.05    1.47
   5   0  10   -0.84    2.07
   5   0  11    5.36    1.88
   5   0  11    0.07    2.12
   5   0  12   26.90    3.42
   5   0  12   18.29    3.71
   5   0  13   15.31    2.96
   5   0  13    8.90    3.03
   5   1  -9    1.37    1.72
  -5  -1   9    0.69    1.56
   5   1  -8    0.43    1.75
  -5  -1   8    0.63    1.34
   5   1  -7   22.54    5.59
  -5  -1   7   34.47    6.40
   5   1  -6   72.38   14.23
  -5  -1   6  118.70    5.10
   5   1  -5    3.21    2.19
  -5  -1   5    5.78    1.78
   5   1  -4    2.85    1.91
  -5  -1   4    2.82    1.49
   5   1  -3   89.15   12.96
  -5  -1   3  130.59   11.34
   5   1  -2   18.67    3.21
  -5  -1   2   20.68    2.17
   5   1  -1   12.10    3.04
   5   1   0   13.48    3.44
   5   1   1   41.26    7.03
  -5  -1  -1   48.35    6.49
   5   1   2   31.45    4.45
   5   1   2   32.74    4.81
   5   1   2   37.95    6.51
  -5  -1  -2   39.62    5.36
   5   1   3  104.85   13.40
   5   1   3  118.43   15.05
   5   1   3  110.44   17.42
  -5  -1  -3  139.61   17.35
   5   1   4   17.90    3.00
   5   1   4   21.85    3.43
  -5  -1  -4   27.02    4.01
   5   1   5   90.81    7.16
   5   1   5   94.43    7.74
  -5  -1  -5  117.84    8.33
   5   1   6    4.05    1.41
   5   1   6    2.26    1.24
   5   1   6    4.77    2.39
  -5  -1  -6    2.89    1.19
   5   1   7   18.99    2.31
   5   1   7   18.63    2.90
  -5  -1  -7   20.23    2.08
   5   1   8   24.48    3.29
   5   1   8   18.42    3.39
  -5  -1  -8   22.03    2.61
   5   1   9    4.31    1.65
   5   1   9    4.35    2.06
  -5  -1  -9    3.89    1.15
   5   1  10    1.69    1.41
   5   1  10    3.11    2.14
   5   1  11    3.25    1.84
   5   1  11    0.44    2.24
   5   1  12   18.37    2.68
   5   1  12   10.76    2.91
   5   1  13    2.53    1.95
   5   1  13    0.71    2.58
   5   2  -8    1.76    2.13
  -5  -2   8    2.40    1.57
   5   2  -7    0.11    2.01
  -5  -2   7    1.72    1.38
   5   2  -6    2.25    2.23
  -5  -2   6    2.45    1.63
   5   2  -5    0.26    1.92
  -5  -2   5    1.79    1.24
   5   2  -4    5.09    2.44
  -5  -2   4   11.06    1.99
   5   2  -3    3.75    2.50
  -5  -2   3    9.12    1.87
   5   2  -2   21.99    3.59
  -5  -2   2   23.93    2.26
   5   2  -1    9.12    3.19
  -5  -2   1   12.20    2.17
   5   2   0   53.06   10.17
   5   2   1    2.69    2.30
  -5  -2  -1    2.88    1.44
   5   2   2    8.31    1.58
   5   2   2    9.57    1.57
  -5  -2  -2   11.67    1.82
   5   2   3    1.52    1.09
   5   2   3    2.59    1.18
  -5  -2  -3    3.79    1.40
   5   2   4   13.67    1.97
   5   2   4   15.89    2.79
  -5  -2  -4   17.75    2.92
   5   2   5    1.23    1.20
   5   2   5    1.59    1.09
   5   2   5    1.39    2.11
  -5  -2  -5    0.64    1.07
   5   2   6   35.72    3.98
   5   2   6   40.26    3.86
   5   2   6   31.74    5.28
  -5  -2  -6   41.79    3.58
   5   2   7    3.39    1.39
   5   2   7    4.33    2.13
  -5  -2  -7    3.81    1.34
  -5  -2  -7    3.53    1.10
   5   2   8   51.26    5.51
   5   2   8   39.60    5.93
  -5  -2  -8   51.32    4.87
   5   2   9   19.29    3.09
   5   2   9   11.08    2.92
  -5  -2  -9   20.82    2.82
   5   2  10    4.54    1.65
   5   2  10    1.47    2.22
   5   2  11   -0.29    1.65
   5   2  11   -0.15    1.99
   5   2  12    2.65    1.78
   5   2  12    0.73    2.38
   5   2  13    1.01    1.56
   5   2  13    1.44    2.43
   5   3  -8   16.57    3.59
  -5  -3   8   16.97    2.81
   5   3  -7    9.81    2.81
  -5  -3   7   11.10    1.85
   5   3  -6   -0.73    2.00
  -5  -3   6    2.32    1.31
   5   3  -5   15.58    4.33
  -5  -3   5   22.23    3.01
   5   3  -4    2.79    2.31
  -5  -3   4    6.22    1.55
   5   3  -3    1.45    1.77
  -5  -3   3    2.43    1.48
   5   3  -2   10.68    3.36
  -5  -3   2   12.12    1.80
   5   3  -1    2.50    2.22
  -5  -3   1    0.24    1.23
   5   3   0    4.73    2.62
   5   3   1   -0.16    0.87
  -5  -3  -1    0.40    1.30
   5   3   2    1.05    1.15
   5   3   2    0.95    0.94
  -5  -3  -2    1.33    1.24
   5   3   3   17.08    3.12
   5   3   3   19.40    3.52
   5   3   3   17.96    5.12
  -5  -3  -3   27.88    3.98
   5   3   4    4.90    1.53
   5   3   4    5.15    1.45
   5   3   4    5.78    2.38
  -5  -3  -4    6.09    1.41
   5   3   5    0.41    1.22
   5   3   5    0.41    0.98
   5   3   5    1.39    2.23
  -5  -3  -5    0.02    0.96
   5   3   6   66.15    6.11
   5   3   6   67.78    6.15
   5   3   6   65.44    7.73
  -5  -3  -6   76.63    5.62
   5   3   7   54.87    8.35
   5   3   7   46.60    8.11
  -5  -3  -7   67.13    9.21
   5   3   8    1.02    1.20
   5   3   8   -0.61    1.78
  -5  -3  -8    1.43    0.99
   5   3   9   13.90    2.54
   5   3   9    8.69    2.40
  -5  -3  -9   14.00    2.16
   5   3  10   -0.14    1.33
   5   3  10    0.10    2.09
   5   3  11    2.04    1.50
   5   3  11    1.45    2.00
   5   3  12   18.39    2.73
   5   3  12   12.88    2.88
   5   3  13    4.67    1.98
   5   3  13    3.16    2.25
   5   3  14    7.35    2.35
   5   4  -8    4.45    2.41
  -5  -4   8    4.51    1.40
   5   4  -7   13.55    3.51
  -5  -4   7   25.35    2.94
   5   4  -6   68.75   17.19
  -5  -4   6   89.18   15.21
   5   4  -5    9.61    3.09
  -5  -4   5   12.40    2.43
   5   4  -4    4.79    2.42
  -5  -4   4    4.44    1.52
   5   4  -3    5.64    2.36
  -5  -4   3    4.22    1.35
   5   4  -2    5.18    2.44
  -5  -4   2    5.11    1.47
   5   4  -1    8.19    1.61
   5   4  -1    8.93    2.93
  -5  -4   1   10.66    1.75
   5   4   0    4.45    1.56
   5   4   0    4.94    1.29
   5   4   1    2.80    1.47
   5   4   1    2.88    1.10
  -5  -4  -1    3.94    1.38
   5   4   2    1.62    1.36
   5   4   2    0.89    1.02
   5   4   2    0.89    2.25
  -5  -4  -2   -0.72    1.09
   5   4   3    0.89    1.34
   5   4   3   -0.07    1.08
   5   4   3    0.20    2.04
  -5  -4  -3   -0.02    1.14
   5   4   4   -0.71    1.30
   5   4   4   -0.31    1.07
   5   4   4    0.45    2.06
  -5  -4  -4   -0.01    0.88
   5   4   5   -0.61    1.36
   5   4   5   -0.16    1.13
   5   4   5    0.50    2.34
  -5  -4  -5    0.26    1.05
   5   4   6    2.17    1.60
   5   4   6    4.12    1.37
   5   4   6    2.08    2.37
  -5  -4  -6    4.50    1.17
   5   4   7   19.05    2.21
   5   4   7   18.37    3.57
  -5  -4  -7   25.23    3.81
   5   4   8    1.57    1.24
   5   4   8    0.93    2.10
  -5  -4  -8    1.57    1.01
   5   4   9    1.06    1.35
   5   4   9    0.53    1.88
  -5  -4  -9    0.43    0.82
   5   4  10   25.87    3.49
   5   4  10   22.09    4.28
   5   4  11    0.75    1.35
   5   4  11    0.37    2.15
   5   4  12    8.92    1.95
   5   4  12    4.74    2.55
   5   4  13   30.25    3.80
   5   4  13   15.12    3.33
   5   4  14    1.10    1.75
   5   4  14    1.41    2.10
   5   5  -7   29.14    6.08
  -5  -5   7   37.13    3.66
   5   5  -6    1.24    2.19
  -5  -5   6    0.19    1.23
   5   5  -5   23.55    5.98
  -5  -5   5   39.44    7.07
   5   5  -4    1.39    2.15
  -5  -5   4    1.11    1.26
   5   5  -3   -1.23    2.07
  -5  -5   3   -0.04    1.16
   5   5  -2   10.31    1.93
   5   5  -2    9.48    2.52
  -5  -5   2   14.41    1.93
   5   5  -1    5.81    1.51
  -5  -5   1    7.98    1.52
   5   5   0   -0.11    0.90
   5   5   1    0.72    0.94
   5   5   1   -0.74    2.08
  -5  -5  -1    1.38    1.28
   5   5   2    5.72    1.59
   5   5   2    6.43    2.60
  -5  -5  -2    8.05    1.70
   5   5   3    0.70    1.44
   5   5   3    0.27    1.09
   5   5   3    0.44    2.13
  -5  -5  -3    0.31    0.92
   5   5   4    5.82    1.97
   5   5   4    6.75    1.78
   5   5   4    5.06    2.47
  -5  -5  -4    8.95    1.70
   5   5   5   45.18    5.11
   5   5   5   37.46    4.51
   5   5   5   36.51    7.16
  -5  -5  -5   50.14    3.98
   5   5   6    9.47    1.72
   5   5   6    8.68    2.62
  -5  -5  -6   10.43    1.49
   5   5   7   13.21    2.08
   5   5   7   10.42    2.64
  -5  -5  -7   14.07    1.68
   5   5   8   40.46    4.56
   5   5   8   41.12    6.58
  -5  -5  -8   54.41    5.03
   5   5   9    7.93    1.70
   5   5   9    6.69    2.66
  -5  -5  -9    8.86    1.41
   5   5  10   -0.93    1.00
   5   5  10    1.49    1.99
  -5  -5 -10   -0.01    0.78
   5   5  11    2.46    1.34
   5   5  11    2.46    2.28
   5   5  12    3.98    1.61
   5   5  12    3.66    2.50
   5   5  13    4.21    1.75
   5   5  13    3.96    2.28
   5   5  14    1.70    1.61
   5   5  14   -0.66    2.07
   5   6  -7    1.78    2.14
  -5  -6   7    3.74    1.42
   5   6  -6   11.75    3.62
  -5  -6   6   21.98    2.65
   5   6  -5    1.66    2.27
  -5  -6   5    6.78    1.70
   5   6  -4   17.56    4.58
  -5  -6   4   24.64    3.84
  -5  -6   3   12.73    2.15
   5   6  -2    5.67    1.57
  -5  -6   2    7.80    1.52
   5   6  -1    4.21    1.31
   5   6  -1    3.66    2.32
  -5  -6   1    4.89    1.37
   5   6   0    7.43    1.43
   5   6   0    7.53    2.92
   5   6   1   14.54    1.82
   5   6   1   15.85    3.86
  -5  -6  -1   18.43    1.86
   5   6   2   13.63    1.93
   5   6   2   15.48    3.96
  -5  -6  -2   17.25    1.84
   5   6   3   14.12    2.02
   5   6   3   10.42    2.80
  -5  -6  -3   13.17    1.60
   5   6   4    2.65    1.34
   5   6   4    0.66    2.39
  -5  -6  -4    3.14    1.18
   5   6   5   14.71    2.33
   5   6   5   13.40    3.25
  -5  -6  -5   15.25    1.74
   5   6   6   97.61   14.24
   5   6   6   75.32   14.77
  -5  -6  -6  106.36   14.30
   5   6   7   34.69    4.09
   5   6   7   25.21    5.11
  -5  -6  -7   32.91    3.34
   5   6   8    1.15    1.27
   5   6   8    0.38    1.94
  -5  -6  -8    1.37    0.99
   5   6   9    1.60    1.36
   5   6   9    0.91    2.14
  -5  -6  -9    2.00    0.93
   5   6  10    1.75    1.36
   5   6  10    0.18    1.84
  -5  -6 -10    1.31    0.87
   5   6  11    0.60    1.22
   5   6  11    2.19    2.29
   5   6  12    2.54    1.63
   5   6  12    0.68    1.94
   5   6  13   -1.57    1.55
   5   6  13   -0.30    1.94
   5   7  -6    1.21    2.12
  -5  -7   6    0.00    1.23
   5   7  -5    2.49    2.28
  -5  -7   5    4.71    1.45
  -5  -7   4   -0.11    1.31
  -5  -7   3    1.03    1.23
   5   7  -2    0.77    1.22
   5   7  -2    1.28    1.92
  -5  -7   2    1.47    1.33
   5   7  -1    6.41    1.46
   5   7  -1    8.38    2.90
  -5  -7   1    9.82    1.65
   5   7   0    3.84    1.19
   5   7   0    3.06    2.27
   5   7   1   17.28    2.17
   5   7   1   16.52    4.61
  -5  -7  -1   19.54    1.96
   5   7   2    1.68    1.13
   5   7   2    2.22    2.10
  -5  -7  -2    2.15    1.11
   5   7   3   56.67    6.09
   5   7   3   36.36    7.54
  -5  -7  -3   63.86    5.94
   5   7   4   64.78    6.99
   5   7   4   40.25    8.05
  -5  -7  -4   65.72    5.98
   5   7   5   38.15    4.64
   5   7   5   24.58    5.14
  -5  -7  -5   38.61    3.76
   5   7   6   52.57    6.25
   5   7   6   36.09    7.31
  -5  -7  -6   60.04    5.45
   5   7   7   20.36    3.27
   5   7   7   14.72    3.80
  -5  -7  -7   21.97    2.94
   5   7   8    1.15    1.34
   5   7   8    2.60    2.07
  -5  -7  -8    1.51    1.02
   5   7   9   20.01    3.21
   5   7   9   17.42    3.91
  -5  -7  -9   28.77    3.22
   5   7  10    0.49    1.18
   5   7  10    0.61    1.86
  -5  -7 -10    0.59    0.86
   5   7  11    8.06    1.71
   5   7  11    7.03    2.60
   5   7  12    4.42    1.71
   5   7  12    3.66    2.47
   5   7  13   12.65    2.67
   5   7  13    9.32    3.01
  -5  -8   5    4.66    1.37
  -5  -8   4    8.80    1.57
   5   8  -3    1.37    2.09
  -5  -8   3   -0.19    1.31
   5   8  -2   -0.02    1.08
   5   8  -2    0.35    2.16
  -5  -8   2   -0.04    1.09
   5   8  -1   26.88    4.29
   5   8  -1   20.51    6.40
  -5  -8   1   39.22    5.57
   5   8   0   13.16    2.26
   5   8   0   10.80    3.38
   5   8   1    0.04    1.10
   5   8   1    0.47    1.82
  -5  -8  -1   -0.17    1.17
   5   8   2   47.39    6.12
   5   8   2   36.31    8.12
  -5  -8  -2   61.77    7.06
   5   8   3    0.22    1.36
   5   8   3    0.34    2.04
  -5  -8  -3   -0.08    0.88
   5   8   4    0.23    1.40
   5   8   4   -0.89    2.20
  -5  -8  -4   -0.03    0.99
   5   8   5   46.37    6.04
   5   8   5   29.70    6.29
  -5  -8  -5   49.24    5.75
   5   8   6   82.44   10.69
   5   8   6   56.06   11.42
  -5  -8  -6   96.03   10.48
   5   8   7    3.06    1.36
   5   8   7    4.16    2.19
  -5  -8  -7    4.12    1.20
   5   8   8    0.06    1.37
   5   8   8    2.60    2.27
  -5  -8  -8    0.00    0.99
   5   8   9   -0.29    1.26
   5   8   9    2.57    2.20
  -5  -8  -9    0.91    0.97
   5   8  10    9.26    1.81
   5   8  10    5.34    2.56
  -5  -8 -10    9.03    1.33
   5   8  11   10.74    2.04
   5   8  11    8.52    2.84
   5   8  12    1.88    1.32
   5   8  12    2.43    2.24
   5   8  13    0.96    1.51
   5   9  -4   -2.17    2.18
  -5  -9   4   -1.00    1.21
   5   9  -3   11.67    4.06
  -5  -9   3   21.68    2.10
   5   9  -2    3.44    1.53
   5   9  -2    5.09    2.28
  -5  -9   2    5.86    1.35
   5   9  -1    2.20    1.18
   5   9  -1    1.45    1.95
   5   9   0    7.07    1.61
   5   9   0    4.73    3.06
   5   9   1    0.45    1.21
   5   9   1   -0.38    1.85
  -5  -9  -1    1.08    1.15
   5   9   2   35.38    4.32
   5   9   2   29.82    6.69
  -5  -9  -2   43.44    4.57
   5   9   3    6.85    1.85
   5   9   3    3.72    2.41
  -5  -9  -3    7.87    1.27
   5   9   4    0.08    1.49
   5   9   4   -1.79    1.72
  -5  -9  -4    0.19    0.95
   5   9   5    0.30    1.22
   5   9   5    0.74    2.26
  -5  -9  -5    0.17    1.01
   5   9   6    1.14    1.54
   5   9   6    0.57    2.01
  -5  -9  -6    0.25    0.88
   5   9   7    0.00    1.19
   5   9   7   -0.81    2.16
  -5  -9  -7    0.26    0.97
   5   9   8   -0.25    1.39
   5   9   8   -0.27    2.17
  -5  -9  -8    0.48    0.96
   5   9   9    0.53    1.44
   5   9   9   -0.21    2.02
  -5  -9  -9    0.21    0.93
   5   9  10    5.88    1.66
   5   9  10    5.43    2.49
  -5  -9 -10    7.37    1.30
   5   9  11    3.14    1.51
   5   9  11    1.57    2.15
   5   9  12   14.44    2.60
   5  10  -3   18.49    6.30
  -5 -10   3   37.55    4.55
   5  10  -2   -2.36    2.30
  -5 -10   2    1.97    1.24
   5  10  -1   19.47    2.42
   5  10  -1   15.69    4.69
  -5 -10   1   31.16    2.60
   5  10   0    1.24    1.20
   5  10   0    0.76    2.05
   5  10   1   -0.11    1.19
   5  10   1   -2.23    1.97
   5  10   2    1.56    1.29
   5  10   2    0.26    2.02
  -5 -10  -2    1.48    1.06
   5  10   3   11.24    2.42
   5  10   3    8.19    3.14
  -5 -10  -3   13.85    2.36
   5  10   4   29.75    5.00
   5  10   4   20.95    6.04
  -5 -10  -4   37.03    5.14
   5  10   5    3.49    1.75
   5  10   5    3.08    2.31
  -5 -10  -5    2.11    1.16
   5  10   6   22.97    3.90
   5  10   6   15.63    4.34
  -5 -10  -6   25.70    3.75
   5  10   7    8.60    1.80
   5  10   7    4.69    2.63
  -5 -10  -7   11.19    1.57
   5  10   8   18.24    3.87
   5  10   8   16.50    4.58
  -5 -10  -8   25.08    4.59
   5  10   9    3.86    1.62
   5  10   9    3.54    2.13
  -5 -10  -9    6.50    1.38
   5  10  10    2.90    1.56
   5  10  10    3.57    2.24
  -5 -10 -10    2.77    1.11
   5  10  11    2.51    1.61
   5  11  -2    3.05    2.49
  -5 -11   2    1.16    1.16
   5  11  -1    1.89    1.34
   5  11  -1   -1.09    2.03
  -5 -11   1    1.69    1.24
   5  11   0   -0.08    1.17
   5  11   0    1.51    2.24
   5  11   1    3.30    1.43
   5  11   1    2.10    2.23
   5  11   2   17.64    2.39
   5  11   2   13.43    3.98
  -5 -11  -2   18.65    1.86
   5  11   3   10.28    1.94
   5  11   3    6.44    3.22
  -5 -11  -3   12.03    1.55
   5  11   4    2.64    1.66
   5  11   4    2.18    2.13
  -5 -11  -4    1.57    1.18
   5  11   5    0.33    1.70
   5  11   5   -0.54    1.87
  -5 -11  -5   -0.97    0.94
   5  11   6    0.26    1.60
   5  11   6   -0.05    2.20
  -5 -11  -6    0.15    1.03
   5  11   7    7.02    2.04
   5  11   7    6.64    2.57
  -5 -11  -7    9.57    1.55
   5  11   8    2.25    1.45
   5  11   8    1.60    2.26
  -5 -11  -8    1.65    1.06
   5  11   9    1.77    1.52
  -5 -11  -9    1.77    1.10
   5  11  10   27.08    3.94
  -5 -11 -10   29.84    3.77
   5  12   0   25.80    3.84
   5  12   0   20.08    5.54
  -5 -12   0   39.46    4.68
   5  12   1    7.14    1.88
   5  12   1    3.86    2.55
   5  12   2    1.45    1.53
   5  12   2    1.28    2.49
  -5 -12  -2    2.25    1.30
   5  12   3    4.86    1.72
   5  12   3    3.61    2.77
  -5 -12  -3    7.06    1.48
   5  12   4    1.04    1.60
   5  12   4   -0.01    2.13
  -5 -12  -4   -0.58    0.98
   5  12   5    4.98    2.07
   5  12   5    2.06    2.28
  -5 -12  -5    5.02    1.24
   5  12   6    7.51    2.27
   5  12   6    2.83    2.52
  -5 -12  -6    7.05    1.38
   5  12   7    1.46    1.78
   5  12   7    1.04    1.98
  -5 -12  -7    0.70    1.06
   5  12   8   11.36    2.44
  -5 -12  -8   13.88    2.25
   5  12   9    1.41    1.71
  -5 -12  -9    2.27    1.23
   6  -6  -2    5.92    1.98
   6  -6  -1    1.46    1.77
   6  -6   0   -0.71    1.73
   6  -6   0    1.15    1.79
   6  -6   1    4.62    2.24
   6  -6   1    8.90    2.33
   6  -6   2    5.54    2.41
   6  -6   2    6.24    2.29
   6  -6   3    0.23    2.01
   6  -6   3   -0.17    1.80
   6  -6   4    6.00    2.22
   6  -6   4    5.79    2.13
   6  -5  -3    2.53    1.78
   6  -5  -2    0.58    1.65
   6  -5  -1   -0.58    1.70
   6  -5  -1    0.96    1.86
   6  -5   0    4.61    2.23
   6  -5   0    4.97    2.00
   6  -5   1    9.82    2.96
   6  -5   1   16.63    2.67
   6  -5   2   -1.47    1.90
   6  -5   2    0.33    1.90
   6  -5   3    4.93    2.46
   6  -5   3   10.03    2.39
   6  -5   4    1.76    2.02
   6  -5   4    1.47    1.85
   6  -5   5    7.16    2.61
   6  -5   5    9.43    2.25
   6  -5   6    0.78    1.95
   6  -4  -3    5.70    2.54
   6  -4  -3    8.56    2.19
   6  -4  -2    2.37    2.06
   6  -4  -2    5.22    1.82
   6  -4  -1    0.05    1.85
   6  -4  -1    1.22    1.75
   6  -4   0    2.36    2.20
   6  -4   0    4.10    1.93
   6  -4   1    0.29    1.90
   6  -4   1   -0.89    1.72
   6  -4   2    0.88    2.27
   6  -4   2    4.74    1.89
   6  -4   3    0.67    2.27
   6  -4   3    3.96    1.95
   6  -4   4    2.42    1.92
   6  -4   4    2.16    1.79
   6  -4   5    4.14    2.33
   6  -4   5    3.09    1.58
   6  -4   6    2.08    2.10
   6  -4   6    4.31    1.69
   6  -4   7    1.18    2.07
   6  -4   8    3.57    2.47
  -6   3   5   14.41    2.75
   6  -3  -4    0.79    2.01
   6  -3  -3    0.81    2.05
   6  -3  -3    5.83    2.01
   6  -3  -2    8.11    2.61
   6  -3  -2   12.50    2.41
   6  -3  -1   -0.39    1.87
   6  -3  -1    0.15    1.48
   6  -3   0    0.11    2.18
   6  -3   0    0.00    1.49
   6  -3   1   15.93    4.26
   6  -3   1   23.42    4.81
   6  -3   2   -0.15    1.86
   6  -3   2   -0.69    1.40
   6  -3   3    1.64    2.29
   6  -3   3    1.39    1.73
   6  -3   4    1.93    2.30
   6  -3   4    5.40    1.94
   6  -3   5    0.37    2.11
   6  -3   5   -0.21    1.33
   6  -3   6    1.28    2.03
   6  -3   6    1.08    1.55
   6  -3   7    4.87    2.30
   6  -3   8    6.06    2.15
   6  -3   9   -0.90    2.31
  -6   2   6    4.32    1.88
   6  -2  -5    6.80    2.52
  -6   2   5   11.36    2.29
   6  -2  -4    0.32    2.02
  -6   2   4    3.73    1.82
   6  -2  -3   -1.45    1.79
  -6   2   3    0.34    1.57
   6  -2  -2   -0.04    1.95
  -6   2   2    0.78    1.74
   6  -2  -1   14.86    4.15
   6  -2  -1   20.14    3.78
   6  -2   0   -0.26    2.20
   6  -2   0    0.60    1.52
   6  -2   1   16.60    3.96
   6  -2   1   31.06    5.01
   6  -2   2    0.78    2.27
   6  -2   2    1.60    1.75
   6  -2   3    9.55    3.15
   6  -2   3    8.89    2.05
   6  -2   4    1.44    2.25
   6  -2   4    3.69    1.63
   6  -2   5    0.04    2.14
   6  -2   5    0.22    1.43
   6  -2   6    0.23    1.17
   6  -2   6    1.33    2.12
   6  -2   6   -0.68    1.54
   6  -2   7   15.38    3.04
   6  -2   8   -0.03    2.03
  -6   2  -8    2.89    1.36
   6  -2   9    2.21    2.22
   6  -1  -6   -0.02    1.98
  -6   1   6    1.86    1.87
   6  -1  -5    1.96    2.42
  -6   1   5    9.54    2.35
   6  -1  -4    4.06    2.24
  -6   1   4    4.15    1.76
   6  -1  -3    1.56    2.26
  -6   1   3    2.33    1.63
   6  -1  -2   60.53   13.16
  -6   1   2  100.71   17.42
   6  -1  -1    0.35    2.16
   6  -1   0    9.09    2.77
  -6   1   0   21.66    2.94
   6  -1   1    1.93    2.45
  -6   1  -1    1.56    1.62
   6  -1   2    4.75    2.87
  -6   1  -2    8.99    2.03
   6  -1   3    0.65    2.29
  -6   1  -3   -0.05    1.44
   6  -1   4   -0.51    2.16
  -6   1  -4    0.27    1.34
   6  -1   5    0.16    1.80
  -6   1  -5    0.25    1.34
   6  -1   6    0.28    1.09
   6  -1   6    1.52    2.08
  -6   1  -6    0.29    1.30
   6  -1   7    0.53    1.29
   6  -1   7   -0.90    1.72
  -6   1  -7   -0.31    1.20
   6  -1   8    0.16    1.37
   6  -1   8    0.58    2.12
  -6   1  -8    0.06    1.21
   6  -1   9    2.09    1.62
   6  -1  10    2.33    1.74
   6   0  -6    2.76    2.17
  -6   0   6    6.15    2.10
   6   0  -5   19.63    4.20
  -6   0   5   41.41    4.34
   6   0  -4    2.64    2.26
  -6   0   4    4.69    1.96
   6   0  -3   10.64    3.65
  -6   0   3   21.80    4.38
   6   0  -2    0.95    2.23
  -6   0   2    0.56    1.67
   6   0  -1   -0.25    2.10
   6   0   0   18.46    3.89
  -6   0   0   30.47    3.90
   6   0   1    0.67    1.93
  -6   0  -1    0.50    1.57
   6   0   2   12.40    4.17
  -6   0  -2   31.93    3.96
   6   0   3    3.65    2.61
  -6   0  -3    6.41    1.76
   6   0   4    6.93    2.85
  -6   0  -4    7.78    1.65
   6   0   5    5.77    1.33
   6   0   5    7.07    2.52
  -6   0  -5    6.71    1.69
   6   0   6    0.18    1.02
   6   0   6    0.57    2.10
  -6   0  -6    1.08    1.34
   6   0   7    4.38    1.49
  -6   0  -7    5.34    1.41
   6   0   8    0.62    1.27
  -6   0  -8    0.63    1.18
   6   0   9    1.91    1.50
   6   0   9    0.70    2.10
   6   0  10    1.96    1.59
   6   0  10    0.95    2.01
   6   0  11    9.00    2.18
   6   0  11    6.44    2.48
   6   1  -6    7.52    2.83
  -6  -1   6   15.61    2.77
   6   1  -5    3.71    2.30
  -6  -1   5    9.95    2.11
   6   1  -4    6.77    3.12
  -6  -1   4   15.89    2.19
   6   1  -3   24.41    6.53
  -6  -1   3   40.75    7.36
   6   1  -2    7.11    2.55
  -6  -1   2    8.56    2.03
   6   1  -1    5.62    2.85
   6   1   0   -1.03    2.29
  -6  -1   0    1.48    1.64
   6   1   1    3.12    2.57
  -6  -1  -1    5.39    1.71
   6   1   2   -0.09    2.30
  -6  -1  -2   -0.11    1.25
   6   1   3   12.40    3.83
  -6  -1  -3   20.85    3.20
   6   1   4   58.71   10.05
  -6  -1  -4   81.13    9.31
   6   1   5    0.71    1.00
   6   1   5   -0.19    1.93
  -6  -1  -5    0.75    1.29
   6   1   6   18.54    2.74
  -6  -1  -6   25.94    3.26
   6   1   7    1.70    1.16
  -6  -1  -7    2.52    1.25
   6   1   8   -0.79    1.12
   6   1   8   -0.49    1.95
  -6  -1  -8    0.11    1.06
   6   1   9   15.97    2.32
   6   1   9   10.66    2.95
   6   1  10    0.46    1.40
   6   1  10    1.53    1.93
   6   1  11    0.40    1.48
   6   1  11    0.58    2.26
   6   2  -6    2.42    2.39
  -6  -2   6    4.91    1.84
   6   2  -5   16.82    4.82
  -6  -2   5   31.09    3.41
   6   2  -4    3.41    2.66
  -6  -2   4    6.04    1.92
   6   2  -3    8.91    2.86
  -6  -2   3   13.22    1.97
   6   2  -2   28.52    6.00
  -6  -2   2   46.47    6.67
   6   2  -1   12.61    3.34
   6   2   0    0.77    2.26
  -6  -2   0    1.57    1.45
   6   2   1    8.29    3.14
  -6  -2  -1    9.03    1.95
   6   2   2   -0.36    2.56
  -6  -2  -2    0.73    1.30
   6   2   3    1.43    2.11
  -6  -2  -3    0.08    1.35
  -6  -2  -4   16.53    2.65
   6   2   5   35.01    4.72
  -6  -2  -5   46.17    5.61
   6   2   6    1.53    1.12
   6   2   6    3.32    2.51
  -6  -2  -6    3.57    1.39
   6   2   7    6.79    1.50
   6   2   7    4.62    2.56
  -6  -2  -7    7.35    1.45
   6   2   8   -0.19    1.10
   6   2   8    1.90    2.00
  -6  -2  -8    0.39    1.02
   6   2   9    9.45    1.93
   6   2   9    6.90    2.42
  -6  -2  -9    9.50    1.46
   6   2  10   15.15    2.32
   6   2  10   17.12    3.39
   6   2  11    7.83    1.96
   6   2  11    3.67    2.41
   6   2  12    1.42    1.49
   6   2  12    0.18    2.16
   6   3  -6    1.85    2.12
  -6  -3   6    0.63    1.38
   6   3  -5   22.59    4.65
  -6  -3   5   42.51    4.26
   6   3  -4    3.72    2.17
  -6  -3   4   -0.71    1.42
   6   3  -3    0.87    2.03
  -6  -3   3    0.93    1.36
   6   3  -2    6.41    2.85
  -6  -3   2   10.60    2.31
   6   3  -1    0.72    2.33
   6   3   0   11.27    3.24
  -6  -3   0   15.93    2.45
   6   3   1    3.58    2.33
  -6  -3  -1    1.67    1.47
   6   3   2   23.43    4.71
  -6  -3  -2   28.82    3.91
  -6  -3  -3    1.39    1.16
   6   3   4  113.69   13.98
  -6  -3  -4  136.03    5.70
   6   3   5    4.38    1.39
   6   3   5    1.62    2.53
  -6  -3  -5    7.17    1.56
   6   3   6   31.25    4.03
   6   3   6   29.84    5.40
  -6  -3  -6   34.39    3.84
   6   3   7    3.83    1.30
   6   3   7    4.86    2.36
  -6  -3  -7    3.88    1.26
   6   3   8    3.39    1.48
   6   3   8    4.93    2.59
  -6  -3  -8    4.78    1.23
   6   3   9   -0.24    1.20
   6   3   9    0.26    2.24
  -6  -3  -9    1.32    0.93
   6   3  10   12.32    2.07
   6   3  10    9.65    2.86
   6   3  11    1.40    1.41
   6   3  11    1.69    2.50
   6   3  12    1.33    1.54
   6   3  12   -0.89    1.95
   6   4  -5    7.88    2.91
  -6  -4   5   10.65    2.24
   6   4  -4    5.69    2.55
  -6  -4   4   10.74    1.81
   6   4  -3    5.55    2.94
  -6  -4   3   12.04    2.08
   6   4  -2   -0.45    2.23
  -6  -4   2    1.31    1.45
   6   4  -1   -1.43    2.39
   6   4   0    0.79    2.36
  -6  -4   0    1.12    1.25
   6   4   1    1.09    2.55
  -6  -4  -1    1.69    1.39
  -6  -4  -2   17.19    2.54
  -6  -4  -3    4.35    1.45
   6   4   4    0.34    1.00
   6   4   4    0.09    2.43
  -6  -4  -4    0.01    1.15
   6   4   5   30.80    4.46
   6   4   5   30.28    6.27
  -6  -4  -5   44.49    4.71
   6   4   6   11.52    2.13
   6   4   6   11.53    3.54
  -6  -4  -6   12.53    2.04
   6   4   7    3.40    1.41
   6   4   7    1.76    2.25
  -6  -4  -7    3.97    1.18
   6   4   8   14.14    2.68
   6   4   8   11.09    3.61
  -6  -4  -8   15.83    2.59
   6   4   9    0.73    1.24
   6   4   9    0.22    2.36
  -6  -4  -9    0.18    0.85
   6   4  10    2.91    1.35
   6   4  10    2.74    2.14
   6   4  11    7.29    1.79
   6   4  11    5.07    2.44
   6   4  12    2.51    1.54
   6   4  12    3.25    2.35
   6   5  -5    3.69    2.47
  -6  -5   5    8.60    2.02
   6   5  -4    5.80    2.66
  -6  -5   4    6.83    1.61
   6   5  -3    0.04    1.90
  -6  -5   3    0.26    1.19
   6   5  -2    1.04    2.04
  -6  -5   2   -0.39    1.23
   6   5  -1    2.08    2.53
  -6  -5  -1    0.72    1.34
   6   5   2    9.20    3.28
  -6  -5  -2   15.50    2.25
   6   5   3    0.84    2.58
  -6  -5  -3    2.02    1.31
   6   5   4   17.49    2.69
   6   5   4   15.98    4.03
  -6  -5  -4   22.04    2.78
   6   5   5   12.62    2.32
   6   5   5    7.81    3.33
  -6  -5  -5   15.94    2.27
   6   5   6    8.71    1.73
   6   5   6    3.35    2.59
  -6  -5  -6   10.01    1.49
   6   5   7    8.15    1.74
   6   5   7    3.93    2.97
  -6  -5  -7    8.39    1.36
   6   5   8   24.01    3.96
   6   5   8   17.18    4.22
  -6  -5  -8   27.94    4.06
   6   5   9    1.58    1.30
   6   5   9    1.70    2.39
  -6  -5  -9    2.23    0.99
   6   5  10    0.58    1.26
   6   5  10    0.58    2.06
   6   5  11    7.09    1.82
   6   5  11    6.75    2.63
   6   5  12    9.24    2.08
   6   5  12    8.43    2.69
   6   6  -4   -0.40    2.31
  -6  -6   4    0.12    1.26
   6   6  -3    1.80    2.16
  -6  -6   3    0.84    1.21
   6   6  -2    0.52    1.99
  -6  -6   2    2.01    1.37
   6   6   1   18.37    4.62
  -6  -6  -1   27.33    4.12
   6   6   2   -0.96    2.11
  -6  -6  -2    0.33    1.23
   6   6   3    2.99    2.52
  -6  -6  -3    4.75    1.44
   6   6   4    3.81    1.36
   6   6   4    5.67    2.86
  -6  -6  -4    3.02    1.30
   6   6   5   30.68    4.05
   6   6   5   27.56    6.23
  -6  -6  -5   40.54    4.34
   6   6   6    6.81    1.70
   6   6   6    4.82    2.48
  -6  -6  -6    8.12    1.43
   6   6   7    0.62    1.24
   6   6   7    2.57    2.50
  -6  -6  -7    0.25    0.98
   6   6   8    3.32    1.36
   6   6   8    2.12    2.13
  -6  -6  -8    3.54    1.12
   6   6   9    0.71    1.32
   6   6   9    0.84    2.37
  -6  -6  -9    0.95    0.91
   6   6  10    8.23    1.72
   6   6  10   11.21    2.77
   6   6  11    2.12    1.50
   6   6  11    2.15    2.08
   6   6  12   11.56    2.35
   6   6  12    7.18    2.88
   6   7  -3    2.58    2.43
  -6  -7   3    0.52    1.36
  -6  -7   2   -0.21    1.16
  -6  -7   1    0.36    1.10
   6   7   0    3.55    2.32
   6   7   1    3.54    2.53
  -6  -7  -1    7.76    1.63
   6   7   2    4.38    2.88
  -6  -7  -2    4.22    1.46
   6   7   3    0.87    2.24
  -6  -7  -3    0.28    1.13
   6   7   4    2.41    1.32
   6   7   4    3.63    2.84
  -6  -7  -4    3.71    1.28
   6   7   5    1.82    1.30
   6   7   5    0.51    2.65
  -6  -7  -5    1.07    1.06
   6   7   6    2.91    1.51
   6   7   6    3.30    2.44
  -6  -7  -6    2.35    1.11
   6   7   7    1.20    1.48
   6   7   7    1.13    2.15
  -6  -7  -7    3.07    1.16
   6   7   8    6.95    1.70
   6   7   8    5.41    2.45
  -6  -7  -8    7.58    1.32
   6   7   9    6.51    1.66
   6   7   9    2.81    2.25
  -6  -7  -9    7.70    1.29
   6   7  10    5.30    1.46
   6   7  10    3.15    2.62
   6   7  11    1.42    1.42
   6   7  11    0.79    2.09
   6   8  -2    0.49    2.40
  -6  -8   2    2.62    1.25
   6   8  -1   15.63    3.84
  -6  -8   1   26.39    2.83
   6   8   0   -0.23    2.31
   6   8   1    4.55    2.53
  -6  -8  -1   10.37    1.66
   6   8   2    5.74    2.55
  -6  -8  -2   10.15    1.57
   6   8   3   -0.40    2.57
  -6  -8  -3    0.99    1.17
   6   8   4   12.57    2.12
   6   8   4    8.00    3.24
  -6  -8  -4   15.07    3.04
   6   8   5   38.06    7.31
   6   8   5   26.21    6.79
  -6  -8  -5   48.58    8.42
   6   8   6   29.91    5.83
   6   8   6   23.51    6.30
  -6  -8  -6   37.81    6.65
   6   8   7    2.25    1.47
   6   8   7    1.57    2.43
  -6  -8  -7    2.97    1.13
   6   8   8    9.64    2.09
   6   8   8    9.46    2.89
  -6  -8  -8   14.01    1.65
   6   8   9   10.08    2.01
   6   8   9    8.82    3.07
  -6  -8  -9   11.51    1.70
   6   8  10   -0.73    1.21
   6   8  10    2.38    2.11
   6   8  11    1.70    1.51
   6   8  11    0.74    2.25
   6   9  -1    0.32    2.42
  -6  -9   1    0.27    1.28
   6   9   0   12.10    3.89
   6   9   1    7.22    3.27
  -6  -9  -1   10.55    1.80
   6   9   2    1.01    2.51
  -6  -9  -2    1.14    1.15
   6   9   3    2.62    2.54
  -6  -9  -3    3.00    1.33
   6   9   4   16.35    2.33
   6   9   4   15.23    3.67
  -6  -9  -4   17.47    1.87
   6   9   5   -0.07    1.49
   6   9   5    0.75    2.63
  -6  -9  -5    1.51    1.01
   6   9   6    0.74    1.40
   6   9   6   -0.36    2.52
  -6  -9  -6   -0.37    0.98
   6   9   7    7.90    1.86
   6   9   7    3.64    2.66
  -6  -9  -7    7.96    1.32
   6   9   8    0.44    1.44
   6   9   8    2.04    2.07
  -6  -9  -8   -0.06    0.96
   6   9   9    0.34    1.42
   6   9   9    0.56    1.95
  -6  -9  -9    0.42    0.99
   6   9  10   -0.18    1.36
   6   9  10   -0.77    1.89
   6  10   0    1.62    2.42
   6  10   1    4.96    2.96
  -6 -10  -1    6.33    1.47
   6  10   2   -0.88    2.26
  -6 -10  -2   -0.19    1.13
   6  10   3    6.77    3.12
  -6 -10  -3   12.45    1.85
   6  10   4   24.94    3.09
   6  10   4   18.85    4.22
  -6 -10  -4   31.97    3.07
   6  10   5   32.01    4.03
   6  10   5   25.07    4.69
  -6 -10  -5   36.32    3.35
   6  10   6    1.69    1.75
   6  10   6    2.97    2.29
  -6 -10  -6    2.68    1.21
   6  10   7    1.16    1.58
   6  10   7   -0.50    2.15
  -6 -10  -7    1.16    0.97
   6  10   8    1.74    1.53
   6  10   8   -0.90    2.42
  -6 -10  -8   -0.06    0.95
   6  10   9   -0.67    1.35
   6  10   9   -0.39    2.24
  -6 -10  -9    0.03    1.03
   6  11   3    3.99    2.88
  -6 -11  -3   10.24    1.87
   6  11   4    6.02    2.80
  -6 -11  -4    7.91    1.66
   6  11   5    4.95    1.84
   6  11   5    1.28    2.70
  -6 -11  -5    4.64    1.29
   6  11   6    5.79    2.04
   6  11   6    2.70    2.37
  -6 -11  -6    6.83    1.46
   7  -2   0    0.71    2.10
  -7   2   0   -0.75    1.59
   7  -2   1    1.43    2.33
  -7   2  -1    3.00    1.94
   7  -2   2    7.06    2.62
  -7   2  -2   11.15    2.45
   7  -2   3   -1.04    2.00
  -7   2  -3    0.53    1.53
   7  -2   4    7.94    3.07
  -7   2  -4   10.14    2.25
   7  -2   5   12.09    3.46
  -7   2  -5   17.84    2.95
   7  -1  -1    2.67    2.21
  -7   1   1    6.91    2.11
   7  -1   0    5.97    2.92
  -7   1   0   18.43    3.19
   7  -1   1   -0.37    2.14
  -7   1  -1   -1.72    1.45
   7  -1   2    6.49    3.02
  -7   1  -2    8.86    2.16
   7  -1   3    3.28    2.69
  -7   1  -3    6.33    1.95
   7  -1   4   -0.19    2.11
  -7   1  -4    0.83    1.59
   7  -1   5    1.02    2.28
  -7   1  -5    3.74    1.54
   7  -1   6    1.06    2.42
  -7   1  -6    1.12    1.47
   7   0  -2    4.68    2.63
   7   0  -1   -0.29    2.28
  -7   0   1    1.04    1.68
   7   0   0    1.60    2.16
  -7   0   0    2.02    1.79
   7   0   1    4.05    2.47
  -7   0  -1    3.33    1.77
   7   0   2   15.21    4.05
  -7   0  -2   27.27    3.27
   7   0   3    0.62    2.18
  -7   0  -3    0.17    1.36
   7   0   4   -0.50    2.29
  -7   0  -4    0.17    1.50
   7   0   5    3.84    2.97
  -7   0  -5   13.04    2.15
   7   0   6   -0.25    2.36
  -7   0  -6    1.54    1.46
   7   0   7    0.00    2.08
  -7   0  -7   -0.30    1.27
   7   1  -2    0.23    2.11
   7   1  -1    0.61    2.60
   7   1   0    4.18    3.11
  -7  -1   0   10.61    2.21
   7   1   1   -0.44    2.33
  -7  -1  -1    1.79    1.58
   7   1   2    4.03    2.84
  -7  -1  -2    5.55    1.71
   7   1   3    4.68    2.88
  -7  -1  -3    7.98    1.77
   7   1   4    1.83    2.43
  -7  -1  -4    3.74    1.45
   7   1   5    0.07    2.37
  -7  -1  -5    2.31    1.58
   7   1   6    0.41    2.22
  -7  -1  -6    1.52    1.35
   7   1   7   -1.17    2.33
  -7  -1  -7   -0.04    1.29
   7   2  -2    2.67    2.30
  -7  -2   2    1.62    1.59
   7   2  -1    2.41    2.44
   7   2   0   11.26    3.20
  -7  -2   0   15.59    2.45
   7   2   1    2.63    2.64
  -7  -2  -1    4.50    1.78
   7   2   2    0.94    2.61
  -7  -2  -2    1.90    1.67
   7   2   3   -1.65    2.47
  -7  -2  -3    1.14    1.58
   7   2   4   -2.18    2.42
  -7  -2  -4    0.11    1.41
   7   2   5    2.32    2.66
  -7  -2  -5    1.40    1.46
  -7  -2  -6    1.26    1.26
  -7  -2  -7   -0.03    1.11
   7   2   8    0.77    2.48
  -7  -2  -8    4.77    1.34
   7   3  -2    7.08    3.10
  -7  -3   2   11.98    2.49
   7   3  -1    0.85    2.62
   7   3   0    4.89    2.67
  -7  -3   0    5.70    1.66
   7   3   1    0.53    2.64
  -7  -3  -1   -0.35    1.42
   7   3   2   -2.79    2.52
  -7  -3  -2   -0.37    1.32
   7   3   3   24.24    4.98
  -7  -3  -3   41.01    3.33
   7   3   4    3.05    2.65
  -7  -3  -4    4.28    1.59
  -7  -3  -5    0.38    1.33
  -7  -3  -6    0.98    1.18
   7   3   7    2.06    2.21
  -7  -3  -7   -0.43    1.06
   7   3   8    4.38    2.38
  -7  -3  -8    3.04    1.21
   7   3   9    1.92    2.14
   7   4  -1   -1.69    2.64
   7   4   0    0.69    2.39
  -7  -4   0    1.13    1.42
   7   4   1   -1.48    2.41
  -7  -4  -1    0.24    1.29
   7   4   2    5.45    3.58
  -7  -4  -2   13.40    2.07
   7   4   3    6.37    2.88
  -7  -4  -3    8.82    1.82
  -7  -4  -4   67.89    4.18
   7   4   5    5.90    2.80
  -7  -4  -5   12.58    1.89
   7   4   6    0.18    2.36
  -7  -4  -6    0.85    1.19
   7   4   7   10.55    3.40
  -7  -4  -7   15.65    2.10
   7   4   8    4.69    2.52
  -7  -4  -8    6.67    1.28
   7   4   9    1.85    2.49
   7   5  -1    2.57    2.86
   7   5   0    4.80    2.64
  -7  -5   0    0.87    1.35
   7   5   1    3.66    2.98
  -7  -5  -1    1.65    1.47
  -7  -5  -2   13.99    2.08
  -7  -5  -3    7.17    1.68
   7   5   4   -0.29    2.45
  -7  -5  -4    2.43    1.29
   7   5   5   12.81    4.17
  -7  -5  -5   15.06    2.06
   7   5   6    3.15    2.50
  -7  -5  -6    1.24    1.07
   7   5   7   -0.14    2.40
  -7  -5  -7    0.52    1.13
   7   5   8    0.32    2.64
  -7  -5  -8   -0.22    1.05
   7   6   0    9.51    3.42
  -7  -6   0   13.99    2.30
  -7  -6  -1    5.27    1.51
  -7  -6  -2    7.35    1.66
   7   6   3   17.63    4.21
  -7  -6  -3   26.22    2.88
   7   6   4    0.98    3.00
  -7  -6  -4    6.11    1.44
   7   6   5    2.72    2.54
  -7  -6  -5    4.50    1.40
   7   6   6    6.61    2.72
  -7  -6  -6   10.32    1.71
   7   6   7    1.43    2.51
  -7  -6  -7    1.63    1.07
   7   6   8    0.69    2.31
  -7  -6  -8    1.82    1.09
   7   7   2   -0.18    2.84
  -7  -7  -2    0.04    1.28
   7   7   3   -1.16    2.99
  -7  -7  -3    1.66    1.31
   7   7   4    7.59    3.17
  -7  -7  -4    7.16    1.73
   7   7   5   13.09    3.86
  -7  -7  -5   18.73    2.67
   7   7   6    1.06    2.56
  -7  -7  -6    4.91    1.32
   7   7   7    0.42    2.72
  -7  -7  -7    2.40    1.09
   7   8   4   -0.27    2.54
  -7  -8  -4    0.33    1.07
   7   8   5   10.97    3.92
  -7  -8  -5   23.32    3.08
   0   0   0    0.00    0.00
;
loop_
_space_group_symop_operation_xyz
'x, y, z'
'-x, -y, -z'
loop_
_atom_site_label
_atom_site_type_symbol
_atom_site_fract_x
_atom_site_fract_y
_atom_site_fract_z
_atom_site_U_iso_or_equiv
_atom_site_adp_type
_atom_site_occupancy
_atom_site_site_symmetry_order
_atom_site_calc_flag
_atom_site_refinement_flags_posn
_atom_site_refinement_flags_adp
_atom_site_refinement_flags_occupancy
_atom_site_disorder_assembly
_atom_site_disorder_group
O1 O -0.0866(2) 1.07768(12) 0.82708(12) 0.0366(4) Uani 1 1 d . . . . .
O2 O 0.2923(2) 0.99654(11) 0.83887(11) 0.0315(3) Uani 1 1 d . . . . .
N1 N 0.1894(3) 0.72267(14) 0.70521(12) 0.0264(4) Uani 1 1 d . . . . .
H1 H 0.231(3) 0.6438(19) 0.7116(17) 0.030(5) Uiso 1 1 d . . . . .
N2 N -0.1148(3) 0.66086(15) 0.36759(14) 0.0364(4) Uani 1 1 d . . . . .
N3 N 0.6373(3) 0.62073(14) 1.03685(13) 0.0327(4) Uani 1 1 d . . . . .
C1 C 0.0237(3) 0.78930(16) 0.64202(14) 0.0268(4) Uani 1 1 d . . . . .
C2 C -0.0505(3) 0.89829(16) 0.67558(14) 0.0271(4) Uani 1 1 d . . . . .
C3 C 0.0779(3) 0.89540(16) 0.76268(14) 0.0272(4) Uani 1 1 d . . . . .
C4 C 0.2208(3) 0.78458(16) 0.78058(14) 0.0264(4) Uani 1 1 d . . . . .
C5 C -0.0293(3) 0.74416(16) 0.55028(14) 0.0280(4) Uani 1 1 d . . . . .
C6 C -0.2405(4) 0.78407(18) 0.50829(16) 0.0330(4) Uani 1 1 d . . . . .
H6 H -0.3608 0.8402 0.5413 0.040 Uiso 1 1 calc R . . . .
C7 C -0.2732(4) 0.74104(18) 0.41794(17) 0.0360(5) Uani 1 1 d . . . . .
H7 H -0.4174 0.7704 0.3900 0.043 Uiso 1 1 calc R . . . .
C8 C 0.0867(4) 0.62217(17) 0.40831(16) 0.0335(5) Uani 1 1 d . . . . .
H8 H 0.2027 0.5655 0.3737 0.040 Uiso 1 1 calc R . . . .
C9 C 0.1366(4) 0.65969(16) 0.49784(15) 0.0295(4) Uani 1 1 d . . . . .
H9 H 0.2825 0.6284 0.5237 0.035 Uiso 1 1 calc R . . . .
C10 C -0.2220(3) 1.00125(16) 0.62887(15) 0.0313(4) Uani 1 1 d . . . . .
H10A H -0.2037 1.0071 0.5467 0.047 Uiso 1 1 calc GR . . . .
H10B H -0.1884 1.0755 0.6427 0.047 Uiso 1 1 calc GR . . . .
H10C H -0.3863 0.9886 0.6666 0.047 Uiso 1 1 calc GR . . . .
C11 C 0.0796(3) 0.99849(16) 0.81314(14) 0.0275(4) Uani 1 1 d . . . . .
C12 C 0.3167(4) 1.09294(18) 0.88923(17) 0.0341(5) Uani 1 1 d . . . . .
H12A H 0.2404 1.1688 0.8495 0.051 Uiso 1 1 calc GR . . . .
H12B H 0.4869 1.0970 0.8824 0.051 Uiso 1 1 calc GR . . . .
H12C H 0.2393 1.0784 0.9699 0.051 Uiso 1 1 calc GR . . . .
C13 C 0.3679(3) 0.72844(15) 0.86668(14) 0.0258(4) Uani 1 1 d . . . . .
C14 C 0.2891(4) 0.74566(16) 0.97874(15) 0.0318(4) Uani 1 1 d . . . . .
H14 H 0.1421 0.7948 0.9993 0.038 Uiso 1 1 calc R . . . .
C15 C 0.4272(4) 0.69055(17) 1.05874(16) 0.0333(5) Uani 1 1 d . . . . .
H15 H 0.3699 0.7028 1.1345 0.040 Uiso 1 1 calc R . . . .
C16 C 0.7119(4) 0.60386(17) 0.92938(16) 0.0310(4) Uani 1 1 d . . . . .
H16 H 0.8602 0.5547 0.9114 0.037 Uiso 1 1 calc R . . . .
C17 C 0.5840(3) 0.65444(16) 0.84344(15) 0.0286(4) Uani 1 1 d . . . . .
H17 H 0.6433 0.6387 0.7690 0.034 Uiso 1 1 calc R . . . .
O3 O 0.7014(3) 0.52105(13) 0.25996(13) 0.0389(4) Uani 1 1 d . . . . .
H3A H 0.765(5) 0.572(2) 0.286(2) 0.058 Uiso 1 1 d R . . . .
H3B H 0.703(5) 0.553(2) 0.187(3) 0.058 Uiso 1 1 d R . . . .
loop_
_atom_site_aniso_label
_atom_site_aniso_U_11
_atom_site_aniso_U_22
_atom_site_aniso_U_33
_atom_site_aniso_U_23
_atom_site_aniso_U_13
_atom_site_aniso_U_12
O1 0.0352(8) 0.0413(8) 0.0340(8) -0.0147(6) -0.0026(6) -0.0034(6)
O2 0.0322(8) 0.0395(7) 0.0237(7) -0.0124(5) -0.0014(6) -0.0045(6)
N1 0.0340(9) 0.0303(8) 0.0138(7) -0.0044(6) -0.0024(6) -0.0045(7)
N2 0.0501(11) 0.0422(9) 0.0193(8) -0.0032(7) -0.0088(8) -0.0142(8)
N3 0.0422(10) 0.0368(9) 0.0211(8) -0.0054(6) -0.0085(7) -0.0084(7)
C1 0.0306(10) 0.0350(10) 0.0132(8) -0.0016(7) -0.0012(7) -0.0084(8)
C2 0.0288(10) 0.0361(10) 0.0135(8) -0.0018(7) 0.0020(7) -0.0088(7)
C3 0.0309(10) 0.0364(10) 0.0117(8) -0.0036(7) 0.0021(7) -0.0077(8)
C4 0.0315(10) 0.0349(10) 0.0128(8) -0.0072(7) 0.0006(7) -0.0076(8)
C5 0.0376(11) 0.0341(10) 0.0111(8) 0.0003(7) -0.0020(7) -0.0123(8)
C6 0.0357(11) 0.0413(11) 0.0208(9) -0.0045(8) -0.0026(8) -0.0086(8)
C7 0.0403(12) 0.0454(11) 0.0238(10) -0.0017(8) -0.0102(9) -0.0120(9)
C8 0.0461(12) 0.0363(10) 0.0189(9) -0.0067(7) -0.0041(8) -0.0089(9)
C9 0.0356(11) 0.0364(10) 0.0162(9) -0.0024(7) -0.0049(8) -0.0085(8)
C10 0.0355(11) 0.0383(10) 0.0163(9) -0.0019(7) -0.0006(8) -0.0058(8)
C11 0.0315(11) 0.0338(10) 0.0132(9) -0.0022(7) 0.0026(7) -0.0065(8)
C12 0.0345(11) 0.0461(11) 0.0247(10) -0.0155(8) -0.0004(8) -0.0095(9)
C13 0.0345(10) 0.0286(9) 0.0139(8) -0.0039(6) -0.0033(7) -0.0062(7)
C14 0.0399(11) 0.0367(10) 0.0166(9) -0.0091(7) -0.0014(8) -0.0005(8)
C15 0.0473(13) 0.0382(10) 0.0153(9) -0.0086(7) -0.0042(8) -0.0065(9)
C16 0.0325(11) 0.0369(10) 0.0233(10) -0.0068(7) -0.0041(8) -0.0049(8)
C17 0.0352(11) 0.0356(10) 0.0158(9) -0.0066(7) -0.0018(7) -0.0088(8)
O3 0.0613(10) 0.0365(8) 0.0240(8) -0.0055(6) -0.0180(7) -0.0079(7)
loop_
_atom_type_symbol
_atom_type_description
_atom_type_scat_dispersion_real
_atom_type_scat_dispersion_imag
_atom_type_scat_source
C C 0.0033 0.0016 'International Tables Vol C Tables 4.2.6.8 and 6.1.1.4'
H H 0.0000 0.0000 'International Tables Vol C Tables 4.2.6.8 and 6.1.1.4'
N N 0.0061 0.0033 'International Tables Vol C Tables 4.2.6.8 and 6.1.1.4'
O O 0.0106 0.0060 'International Tables Vol C Tables 4.2.6.8 and 6.1.1.4'
loop_
_geom_angle_atom_site_label_1
_geom_angle_atom_site_label_2
_geom_angle_atom_site_label_3
_geom_angle
_geom_angle_site_symmetry_1
_geom_angle_site_symmetry_3
C11 O2 C12 116.82(14) . .
C1 N1 H1 123.4(13) . .
C4 N1 H1 123.8(13) . .
C4 N1 C1 109.99(16) . .
C8 N2 C7 116.36(17) . .
C15 N3 C16 116.45(16) . .
N1 C1 C2 108.52(15) . .
N1 C1 C5 120.00(16) . .
C2 C1 C5 131.24(17) . .
C1 C2 C3 105.97(16) . .
C1 C2 C10 128.04(17) . .
C3 C2 C10 125.95(17) . .
C2 C3 C11 124.95(16) . .
C4 C3 C2 108.19(15) . .
C4 C3 C11 126.44(17) . .
N1 C4 C3 107.29(15) . .
N1 C4 C13 120.88(16) . .
C3 C4 C13 131.62(15) . .
C6 C5 C1 122.75(17) . .
C6 C5 C9 116.47(17) . .
C9 C5 C1 120.76(17) . .
C5 C6 H6 120.3 . .
C7 C6 C5 119.41(19) . .
C7 C6 H6 120.3 . .
N2 C7 C6 124.18(19) . .
N2 C7 H7 117.9 . .
C6 C7 H7 117.9 . .
N2 C8 H8 118.1 . .
N2 C8 C9 123.90(19) . .
C9 C8 H8 118.1 . .
C5 C9 H9 120.2 . .
C8 C9 C5 119.68(18) . .
C8 C9 H9 120.2 . .
C2 C10 H10A 109.5 . .
C2 C10 H10B 109.5 . .
C2 C10 H10C 109.5 . .
H10A C10 H10B 109.5 . .
H10A C10 H10C 109.5 . .
H10B C10 H10C 109.5 . .
O1 C11 O2 123.27(17) . .
O1 C11 C3 125.21(18) . .
O2 C11 C3 111.48(15) . .
O2 C12 H12A 109.5 . .
O2 C12 H12B 109.5 . .
O2 C12 H12C 109.5 . .
H12A C12 H12B 109.5 . .
H12A C12 H12C 109.5 . .
H12B C12 H12C 109.5 . .
C14 C13 C4 120.00(17) . .
C17 C13 C4 122.93(16) . .
C17 C13 C14 117.04(16) . .
C13 C14 H14 120.4 . .
C15 C14 C13 119.17(18) . .
C15 C14 H14 120.4 . .
N3 C15 C14 124.26(17) . .
N3 C15 H15 117.9 . .
C14 C15 H15 117.9 . .
N3 C16 H16 118.3 . .
N3 C16 C17 123.42(18) . .
C17 C16 H16 118.3 . .
C13 C17 H17 120.2 . .
C16 C17 C13 119.64(17) . .
C16 C17 H17 120.2 . .
H3A O3 H3B 106(2) . .
loop_
_geom_bond_atom_site_label_1
_geom_bond_atom_site_label_2
_geom_bond_distance
_geom_bond_site_symmetry_2
O1 C11 1.212(2) .
O2 C11 1.337(2) .
O2 C12 1.446(2) .
N1 H1 0.89(2) .
N1 C1 1.381(2) .
N1 C4 1.363(2) .
N2 C7 1.337(3) .
N2 C8 1.335(3) .
N3 C15 1.340(3) .
N3 C16 1.343(2) .
C1 C2 1.387(3) .
C1 C5 1.466(2) .
C2 C3 1.431(3) .
C2 C10 1.497(3) .
C3 C4 1.393(3) .
C3 C11 1.478(2) .
C4 C13 1.468(3) .
C5 C6 1.394(3) .
C5 C9 1.402(3) .
C6 H6 0.9500 .
C6 C7 1.386(3) .
C7 H7 0.9500 .
C8 H8 0.9500 .
C8 C9 1.383(3) .
C9 H9 0.9500 .
C10 H10A 0.9800 .
C10 H10B 0.9800 .
C10 H10C 0.9800 .
C12 H12A 0.9800 .
C12 H12B 0.9800 .
C12 H12C 0.9800 .
C13 C14 1.400(2) .
C13 C17 1.392(3) .
C14 H14 0.9500 .
C14 C15 1.375(3) .
C15 H15 0.9500 .
C16 H16 0.9500 .
C16 C17 1.385(3) .
C17 H17 0.9500 .
O3 H3A 0.90(3) .
O3 H3B 0.89(3) .
loop_
_geom_torsion_atom_site_label_1
_geom_torsion_atom_site_label_2
_geom_torsion_atom_site_label_3
_geom_torsion_atom_site_label_4
_geom_torsion
_geom_torsion_site_symmetry_1
_geom_torsion_site_symmetry_2
_geom_torsion_site_symmetry_3
_geom_torsion_site_symmetry_4
N1 C1 C2 C3 -0.03(19) . . . .
N1 C1 C2 C10 177.85(17) . . . .
N1 C1 C5 C6 158.81(17) . . . .
N1 C1 C5 C9 -23.0(2) . . . .
N1 C4 C13 C14 -137.06(18) . . . .
N1 C4 C13 C17 41.1(2) . . . .
N2 C8 C9 C5 -0.6(3) . . . .
N3 C16 C17 C13 1.0(3) . . . .
C1 N1 C4 C3 -2.06(19) . . . .
C1 N1 C4 C13 173.18(16) . . . .
C1 C2 C3 C4 -1.22(19) . . . .
C1 C2 C3 C11 171.69(16) . . . .
C1 C5 C6 C7 177.16(16) . . . .
C1 C5 C9 C8 -177.33(16) . . . .
C2 C1 C5 C6 -27.5(3) . . . .
C2 C1 C5 C9 150.70(19) . . . .
C2 C3 C4 N1 2.01(19) . . . .
C2 C3 C4 C13 -172.53(18) . . . .
C2 C3 C11 O1 32.8(3) . . . .
C2 C3 C11 O2 -145.12(17) . . . .
C3 C4 C13 C14 36.9(3) . . . .
C3 C4 C13 C17 -144.96(19) . . . .
C4 N1 C1 C2 1.3(2) . . . .
C4 N1 C1 C5 176.32(15) . . . .
C4 C3 C11 O1 -155.56(18) . . . .
C4 C3 C11 O2 26.5(2) . . . .
C4 C13 C14 C15 178.82(17) . . . .
C4 C13 C17 C16 -179.48(17) . . . .
C5 C1 C2 C3 -174.28(17) . . . .
C5 C1 C2 C10 3.6(3) . . . .
C5 C6 C7 N2 0.9(3) . . . .
C6 C5 C9 C8 1.0(3) . . . .
C7 N2 C8 C9 0.4(3) . . . .
C8 N2 C7 C6 -0.5(3) . . . .
C9 C5 C6 C7 -1.1(3) . . . .
C10 C2 C3 C4 -179.15(17) . . . .
C10 C2 C3 C11 -6.3(3) . . . .
C11 C3 C4 N1 -170.76(16) . . . .
C11 C3 C4 C13 14.7(3) . . . .
C12 O2 C11 O1 2.1(2) . . . .
C12 O2 C11 C3 -179.87(14) . . . .
C13 C14 C15 N3 0.6(3) . . . .
C14 C13 C17 C16 -1.2(3) . . . .
C15 N3 C16 C17 0.1(3) . . . .
C16 N3 C15 C14 -0.9(3) . . . .
C17 C13 C14 C15 0.5(3) . . . .
