#------------------------------------------------------------------------------
#$Date: 2022-06-27 12:13:07 +0300 (Mon, 27 Jun 2022) $
#$Revision: 276285 $
#$URL: file:///home/coder/svn-repositories/cod/cif/8/10/55/8105533.cif $
#------------------------------------------------------------------------------
#
# This file is available in the Crystallography Open Database (COD),
# http://www.crystallography.net/
#
# All data on this site have been placed in the public domain by the
# contributors.
#
data_8105533
loop_
_publ_author_name
'Lan, Hong-Hong'
_publ_section_title
;
 Crystal structure of
 catena-poly[bis(\m2-1,3-di(4H-1,2,4-triazol-4-yl)benzene-\k2
 N:N&#x2032;)-bis(thiocyanato-\k1 N)cobalt(II), C22H16CoN14S2
;
_journal_issue                   1
_journal_name_full
'Zeitschrift f\"ur Kristallographie - New Crystal Structures'
_journal_page_first              37
_journal_page_last               38
_journal_paper_doi               10.1515/ncrs-2018-0117
_journal_volume                  234
_journal_year                    2018
_chemical_formula_moiety         'C11 H8 Co0.5 N7 S'
_chemical_formula_sum            'C11 H8 Co0.5 N7 S'
_chemical_formula_weight         299.77
_space_group_crystal_system      triclinic
_space_group_IT_number           2
_space_group_name_Hall           '-P 1'
_space_group_name_H-M_alt        'P -1'
_atom_sites_solution_hydrogens   geom
_atom_sites_solution_primary     dual
_cell_angle_alpha                89.971(3)
_cell_angle_beta                 76.844(4)
_cell_angle_gamma                67.575(4)
_cell_formula_units_Z            2
_cell_length_a                   7.2634(4)
_cell_length_b                   9.5067(4)
_cell_length_c                   9.7384(4)
_cell_measurement_reflns_used    6227
_cell_measurement_temperature    289.04(10)
_cell_measurement_theta_max      26.2770
_cell_measurement_theta_min      4.0720
_cell_volume                     602.49(5)
_computing_cell_refinement       'CrysAlisPro 1.171.38.41r (Rigaku OD, 2015)'
_computing_data_collection       'CrysAlisPro 1.171.38.41r (Rigaku OD, 2015)'
_computing_data_reduction        'CrysAlisPro 1.171.38.41r (Rigaku OD, 2015)'
_computing_molecular_graphics    'Olex2 (Dolomanov et al., 2009)'
_computing_publication_material  'Olex2 (Dolomanov et al., 2009)'
_computing_structure_refinement  'ShelXL (Sheldrick, 2015)'
_computing_structure_solution    'ShelXT (Sheldrick, 2015)'
_diffrn_ambient_environment      air
_diffrn_ambient_temperature      289.04(10)
_diffrn_detector                 'CCD plate'
_diffrn_detector_area_resol_mean 8.0584
_diffrn_detector_type            EosS2
_diffrn_measured_fraction_theta_full 0.974
_diffrn_measured_fraction_theta_max 0.974
_diffrn_measurement_details
;
List of Runs (angles in degrees, time in seconds):

  # Type    Start    End  Width  t~exp~   \w     \q     \k     \f   Frames
--------------------------------------------------------------------------
  1  \w    -79.00   9.00   1.00    3.30    --   -9.62 -38.00  90.00   88
  2  \w     -6.00  78.00   1.00    3.30    --   10.64  57.00  90.00   84
  3  \w     -6.00  78.00   1.00    3.30    --   10.64  57.00   0.00   84
  4  \w    -20.00  50.00   1.00    3.30    --   10.64 -99.00-180.00   70
  5  \w    -20.00  50.00   1.00    3.30    --   10.64 -99.00  60.00   70
  6  \w    -20.00  50.00   1.00    3.30    --   10.64 -99.00 -30.00   70
  7  \w     -6.00  78.00   1.00    3.30    --   10.64  57.00 -30.00   84
  8  \w     -8.00  80.00   1.00    3.30    --   10.64  38.00 -90.00   88
  9  \w    -20.00  50.00   1.00    3.30    --   10.64 -99.00 -90.00   70
 10  \w    -77.00   7.00   1.00    3.30    --   -9.62 -57.00   0.00   84
 11  \w    -20.00  41.00   1.00    3.30    --   10.64 -99.00-150.00   61
 12  \w    -20.00  50.00   1.00    3.30    --   10.64 -99.00  90.00   70
;
_diffrn_measurement_device       'four-circle diffractometer'
_diffrn_measurement_device_type  'SuperNova, Single source at offset, EosS2'
_diffrn_measurement_method       '\w scans'
_diffrn_orient_matrix_type
'CrysAlisPro convention (1999,Acta A55,543-557)'
_diffrn_orient_matrix_UB_11      0.0367431000
_diffrn_orient_matrix_UB_12      -0.0782453000
_diffrn_orient_matrix_UB_13      0.0126491000
_diffrn_orient_matrix_UB_21      -0.0792716000
_diffrn_orient_matrix_UB_22      -0.0086053000
_diffrn_orient_matrix_UB_23      -0.0257962000
_diffrn_orient_matrix_UB_31      0.0651626000
_diffrn_orient_matrix_UB_32      -0.0194734000
_diffrn_orient_matrix_UB_33      -0.0694375000
_diffrn_radiation_monochromator  mirror
_diffrn_radiation_probe          x-ray
_diffrn_radiation_type           MoK\a
_diffrn_radiation_wavelength     0.71073
_diffrn_reflns_av_R_equivalents  0.0385
_diffrn_reflns_av_unetI/netI     0.0281
_diffrn_reflns_Laue_measured_fraction_full 0.974
_diffrn_reflns_Laue_measured_fraction_max 0.974
_diffrn_reflns_limit_h_max       8
_diffrn_reflns_limit_h_min       -8
_diffrn_reflns_limit_k_max       11
_diffrn_reflns_limit_k_min       -11
_diffrn_reflns_limit_l_max       11
_diffrn_reflns_limit_l_min       -11
_diffrn_reflns_number            11227
_diffrn_reflns_point_group_measured_fraction_full 0.974
_diffrn_reflns_point_group_measured_fraction_max 0.974
_diffrn_reflns_theta_full        24.999
_diffrn_reflns_theta_max         24.999
_diffrn_reflns_theta_min         3.324
_diffrn_source                   'micro-focus sealed X-ray tube'
_diffrn_source_type              'SuperNova (Mo) X-ray Source'
_exptl_absorpt_coefficient_mu    0.931
_exptl_absorpt_correction_T_max  1.00000
_exptl_absorpt_correction_T_min  0.71238
_exptl_absorpt_correction_type   multi-scan
_exptl_absorpt_process_details
;
CrysAlisPro 1.171.38.41r (Rigaku Oxford Diffraction, 2015)
Empirical absorption correction using spherical harmonics,
 implemented in SCALE3 ABSPACK scaling algorithm.
;
_exptl_crystal_colour            'clear light pink'
_exptl_crystal_colour_lustre     clear
_exptl_crystal_colour_modifier   light
_exptl_crystal_colour_primary    pink
_exptl_crystal_density_diffrn    1.652
_exptl_crystal_description       block
_exptl_crystal_F_000             305
_exptl_crystal_size_max          0.29
_exptl_crystal_size_mid          0.21
_exptl_crystal_size_min          0.19
_refine_diff_density_max         0.216
_refine_diff_density_min         -0.279
_refine_diff_density_rms         0.057
_refine_ls_extinction_coef       .
_refine_ls_extinction_method     none
_refine_ls_goodness_of_fit_ref   1.068
_refine_ls_hydrogen_treatment    constr
_refine_ls_matrix_type           full
_refine_ls_number_parameters     178
_refine_ls_number_reflns         2076
_refine_ls_number_restraints     0
_refine_ls_restrained_S_all      1.068
_refine_ls_R_factor_all          0.0323
_refine_ls_R_factor_gt           0.0295
_refine_ls_shift/su_max          0.000
_refine_ls_shift/su_mean         0.000
_refine_ls_structure_factor_coef Fsqd
_refine_ls_weighting_details
'w=1/[\s^2^(Fo^2^)+(0.0260P)^2^+0.3540P] where P=(Fo^2^+2Fc^2^)/3'
_refine_ls_weighting_scheme      calc
_refine_ls_wR_factor_gt          0.0671
_refine_ls_wR_factor_ref         0.0685
_reflns_Friedel_coverage         0.000
_reflns_Friedel_fraction_full    .
_reflns_Friedel_fraction_max     .
_reflns_number_gt                1924
_reflns_number_total             2076
_reflns_threshold_expression     'I > 2\s(I)'
_iucr_refine_instructions_details
;

    171108-1.res created by SHELXL-2014/7

TITL 171108-1_a.res in P-1
REM Old TITL 171108-1 in P-1
REM SHELXT solution in P-1
REM R1 0.283, Rweak 0.035, Alpha 0.063, Orientation as input
REM Formula found by SHELXT: C28 N8 O2 Br
CELL 0.71073 7.263386 9.506689 9.738393 89.9706 76.8439 67.5749
ZERR 2 0.000351 0.000405 0.000369 0.0033 0.0037 0.0043
LATT 1
SFAC C H Co N S
UNIT 22 16 1 14 2
 
L.S. 10
PLAN  20
SIZE 0.29 0.21 0.19
BOND $H
list 4
fmap 2
acta
OMIT 0 50
REM <olex2.extras>
REM <HklSrc "%.\\171108-1.hkl">
REM </olex2.extras>
 
WGHT    0.026000    0.354000
FVAR       8.99188
CO01  3    1.000000    1.000000    0.000000    10.50000    0.02771    0.02184 =
         0.01444    0.00281   -0.00251   -0.00928
S1    5    0.668866    1.032035   -0.387174    11.00000    0.05141    0.04135 =
         0.04612    0.01190   -0.02991   -0.01931
N1    4    0.839029    0.660469    0.234228    11.00000    0.03503    0.02824 =
         0.01721    0.00392   -0.00195   -0.01655
N2    4    0.898220    0.828259    0.097090    11.00000    0.03327    0.02972 =
         0.01994    0.00279   -0.00213   -0.01429
N3    4    0.843514    0.735071    0.020141    11.00000    0.08571    0.05494 =
         0.02363    0.01201   -0.01516   -0.04878
N4    4    0.536838    0.651557    0.731184    11.00000    0.02590    0.02382 =
         0.01698    0.00439   -0.00308   -0.00726
N5    4    0.285531    0.815979    0.893317    11.00000    0.03099    0.02456 =
         0.01985    0.00576   -0.00242   -0.00859
N6    4    0.380213    0.686978    0.957340    11.00000    0.04501    0.03150 =
         0.02061    0.00889   -0.00272   -0.00112
N7    4    0.885204    0.994099   -0.177284    11.00000    0.03975    0.03490 =
         0.02426    0.00344   -0.00888   -0.01555
C1    1    0.808700    0.575408    0.353268    11.00000    0.02493    0.02704 =
         0.01911    0.00668   -0.00548   -0.01331
C2    1    0.701900    0.654265    0.484997    11.00000    0.02472    0.02064 =
         0.02303    0.00365   -0.00563   -0.00875
AFIX  43
H2    2    0.659613    0.759806    0.498453    11.00000   -1.20000
AFIX   0
C3    1    0.659975    0.571978    0.595680    11.00000    0.01973    0.02466 =
         0.01720    0.00318   -0.00405   -0.00756
C4    1    0.725307    0.414560    0.577744    11.00000    0.02791    0.02410 =
         0.02352    0.00840   -0.00618   -0.01025
AFIX  43
H4    2    0.693212    0.360829    0.652988    11.00000   -1.20000
AFIX   0
C5    1    0.839006    0.338568    0.446182    11.00000    0.02986    0.01989 =
         0.03104    0.00254   -0.00642   -0.00876
AFIX  43
H5    2    0.887810    0.232494    0.433984    11.00000   -1.20000
AFIX   0
C6    1    0.881232    0.417810    0.332555    11.00000    0.02772    0.02912 =
         0.02335   -0.00199    0.00002   -0.01173
AFIX  43
H6    2    0.956831    0.366296    0.243990    11.00000   -1.20000
AFIX   0
C7    1    0.892600    0.782189    0.223790    11.00000    0.03159    0.02669 =
         0.01993    0.00336   -0.00372   -0.01351
AFIX  43
H7    2    0.921456    0.826935    0.296687    11.00000   -1.20000
AFIX   0
C8    1    0.808733    0.638079    0.105137    11.00000    0.08555    0.05453 =
         0.02631    0.00979   -0.01676   -0.05128
AFIX  43
H8    2    0.767808    0.562082    0.080415    11.00000   -1.20000
AFIX   0
C9    1    0.381392    0.792175    0.759767    11.00000    0.03146    0.02089 =
         0.02081    0.00726   -0.00477   -0.00825
AFIX  43
H9    2    0.348077    0.861753    0.693219    11.00000   -1.20000
AFIX   0
C10   1    0.527755    0.592515    0.857999    11.00000    0.03865    0.03002 =
         0.02284    0.00947   -0.00445   -0.00088
AFIX  43
H10   2    0.616439    0.496031    0.872179    11.00000   -1.20000
AFIX   0
C11   1    0.793696    1.009612   -0.262888    11.00000    0.02908    0.01921 =
         0.02751    0.00110   -0.00381   -0.00965
HKLF 4
 
REM  171108-1_a.res in P-1
REM R1 =  0.0295 for    1924 Fo > 4sig(Fo)  and  0.0323 for all    2076 data
REM    178 parameters refined using      0 restraints
 
END  
     
WGHT      0.0260      0.3491 

REM Highest difference peak  0.216,  deepest hole -0.279,  1-sigma level  0.057
Q1    1   0.6245  0.5118  0.5840  11.00000  0.05    0.22
Q2    1   0.6201  0.6084  0.6582  11.00000  0.05    0.21
Q3    1   0.7468  0.5035  0.5978  11.00000  0.05    0.19
Q4    1   0.3115  0.7701  0.9356  11.00000  0.05    0.18
Q5    1   0.2664  0.9010  0.9140  11.00000  0.05    0.18
Q6    1   0.7374  0.6019  0.5653  11.00000  0.05    0.17
Q7    1   0.6420  0.3263  0.6559  11.00000  0.05    0.17
Q8    1   0.3556  0.6732  1.0449  11.00000  0.05    0.17
Q9    1   0.6476  0.6066  0.5189  11.00000  0.05    0.17
Q10   1   0.8269  0.6198  0.2958  11.00000  0.05    0.16
Q11   1   0.2359  0.6845  0.9551  11.00000  0.05    0.16
Q12   1   0.6225  0.7299  0.4764  11.00000  0.05    0.16
Q13   1   0.2134  0.8155  0.8668  11.00000  0.05    0.16
Q14   1   0.7982  0.6090  0.4289  11.00000  0.05    0.16
Q15   1   0.7406  0.8986 -0.4037  11.00000  0.05    0.15
Q16   1   0.7483  0.6917  0.5061  11.00000  0.05    0.15
Q17   1   1.0387  0.0659  0.5083  11.00000  0.05    0.15
Q18   1   1.0310  0.3777  0.2204  11.00000  0.05    0.15
Q19   1   0.8897  0.9154  0.0889  11.00000  0.05    0.15
Q20   1   0.7748  0.8058  0.4605  11.00000  0.05    0.15

  REM The information below was added by Olex2.
  REM
  REM R1 = 0.0295 for 1924 Fo > 4sig(Fo) and 0.0323 for all 11448 data
  REM n/a parameters refined using n/a restraints
  REM Highest difference peak 0.22, deepest hole -0.28
  REM Mean Shift 0, Max Shift 0.000.

  REM +++ Tabular Listing of Refinement Information +++
  REM R1_all = 0.0323
  REM R1_gt = 0.0295
  REM wR_ref = 0.0685
  REM GOOF = 1.068
  REM Shift_max = 0.000
  REM Shift_mean = 0
  REM Reflections_all = 11448
  REM Reflections_gt = 1924
  REM Parameters = n/a
  REM Hole = -0.28
  REM Peak = 0.22
  REM Flack = n/a

  
;
_cod_data_source_file            suppl_ncrs-2018-0117_suppl.cif
_cod_data_source_block           1
_cod_original_formula_sum        'C11 H8 Co0.50 N7 S'
_cod_database_code               8105533
_shelx_space_group_comment
;
The symmetry employed for this shelxl refinement is uniquely defined
by the following loop, which should always be used as a source of
symmetry information in preference to the above space-group names.
They are only intended as comments.
;
_shelx_estimated_absorpt_t_max   0.843
_shelx_estimated_absorpt_t_min   0.774
_reflns_odcompleteness_completeness 99.71
_reflns_odcompleteness_iscentric 1
_reflns_odcompleteness_theta     23.21
_olex2_refinement_description
;
1. Fixed Uiso
 At 1.2 times of:
  All C(H) groups
2.a Aromatic/amide H refined with riding coordinates:
 C2(H2), C4(H4), C5(H5), C6(H6), C7(H7), C8(H8), C9(H9), C10(H10)
;
loop_
_space_group_symop_operation_xyz
'x, y, z'
'-x, -y, -z'
loop_
_atom_site_label
_atom_site_type_symbol
_atom_site_fract_x
_atom_site_fract_y
_atom_site_fract_z
_atom_site_U_iso_or_equiv
_atom_site_adp_type
_atom_site_occupancy
_atom_site_site_symmetry_order
_atom_site_calc_flag
_atom_site_refinement_flags_posn
_atom_site_refinement_flags_adp
_atom_site_refinement_flags_occupancy
_atom_site_disorder_assembly
_atom_site_disorder_group
Co01 Co 1.0000 1.0000 0.0000 0.02193(13) Uani 1 2 d S T P . .
S1 S 0.66887(10) 1.03203(7) -0.38717(7) 0.04282(19) Uani 1 1 d . . . . .
N1 N 0.8390(3) 0.66047(19) 0.23423(17) 0.0263(4) Uani 1 1 d . . . . .
N2 N 0.8982(3) 0.82826(19) 0.09709(17) 0.0278(4) Uani 1 1 d . . . . .
N3 N 0.8435(4) 0.7351(2) 0.02014(19) 0.0479(6) Uani 1 1 d . . . . .
N4 N 0.5368(3) 0.65156(18) 0.73118(16) 0.0234(4) Uani 1 1 d . . . . .
N5 N 0.2855(3) 0.81598(19) 0.89332(17) 0.0265(4) Uani 1 1 d . . . . .
N6 N 0.3802(3) 0.6870(2) 0.95734(18) 0.0376(5) Uani 1 1 d . . . . .
N7 N 0.8852(3) 0.9941(2) -0.17728(18) 0.0325(4) Uani 1 1 d . . . . .
C1 C 0.8087(3) 0.5754(2) 0.3533(2) 0.0227(4) Uani 1 1 d . . . . .
C2 C 0.7019(3) 0.6543(2) 0.4850(2) 0.0229(4) Uani 1 1 d . . . . .
H2 H 0.6596 0.7598 0.4985 0.027 Uiso 1 1 calc R . . . .
C3 C 0.6600(3) 0.5720(2) 0.59568(19) 0.0210(4) Uani 1 1 d . . . . .
C4 C 0.7253(3) 0.4146(2) 0.5777(2) 0.0252(5) Uani 1 1 d . . . . .
H4 H 0.6932 0.3608 0.6530 0.030 Uiso 1 1 calc R . . . .
C5 C 0.8390(3) 0.3386(2) 0.4462(2) 0.0274(5) Uani 1 1 d . . . . .
H5 H 0.8878 0.2325 0.4340 0.033 Uiso 1 1 calc R . . . .
C6 C 0.8812(3) 0.4178(2) 0.3326(2) 0.0276(5) Uani 1 1 d . . . . .
H6 H 0.9568 0.3663 0.2440 0.033 Uiso 1 1 calc R . . . .
C7 C 0.8926(3) 0.7822(2) 0.2238(2) 0.0259(5) Uani 1 1 d . . . . .
H7 H 0.9215 0.8269 0.2967 0.031 Uiso 1 1 calc R . . . .
C8 C 0.8087(5) 0.6381(3) 0.1051(2) 0.0476(7) Uani 1 1 d . . . . .
H8 H 0.7678 0.5621 0.0804 0.057 Uiso 1 1 calc R . . . .
C9 C 0.3814(3) 0.7922(2) 0.7598(2) 0.0253(5) Uani 1 1 d . . . . .
H9 H 0.3481 0.8618 0.6932 0.030 Uiso 1 1 calc R . . . .
C10 C 0.5278(4) 0.5925(3) 0.8580(2) 0.0349(5) Uani 1 1 d . . . . .
H10 H 0.6164 0.4960 0.8722 0.042 Uiso 1 1 calc R . . . .
C11 C 0.7937(3) 1.0096(2) -0.2629(2) 0.0258(5) Uani 1 1 d . . . . .
loop_
_atom_site_aniso_label
_atom_site_aniso_U_11
_atom_site_aniso_U_22
_atom_site_aniso_U_33
_atom_site_aniso_U_23
_atom_site_aniso_U_13
_atom_site_aniso_U_12
Co01 0.0277(2) 0.0218(2) 0.0144(2) 0.00281(15) -0.00251(16) -0.00928(17)
S1 0.0514(4) 0.0414(4) 0.0461(4) 0.0119(3) -0.0299(3) -0.0193(3)
N1 0.0350(10) 0.0282(9) 0.0172(9) 0.0039(7) -0.0020(7) -0.0166(8)
N2 0.0333(10) 0.0297(10) 0.0199(9) 0.0028(7) -0.0021(8) -0.0143(8)
N3 0.0857(17) 0.0549(14) 0.0236(10) 0.0120(9) -0.0152(11) -0.0488(13)
N4 0.0259(9) 0.0238(9) 0.0170(8) 0.0044(7) -0.0031(7) -0.0073(7)
N5 0.0310(10) 0.0246(9) 0.0198(9) 0.0058(7) -0.0024(7) -0.0086(8)
N6 0.0450(12) 0.0315(10) 0.0206(9) 0.0089(8) -0.0027(9) -0.0011(9)
N7 0.0398(11) 0.0349(11) 0.0243(10) 0.0034(8) -0.0089(9) -0.0156(9)
C1 0.0249(11) 0.0270(11) 0.0191(10) 0.0067(8) -0.0055(8) -0.0133(9)
C2 0.0247(11) 0.0206(10) 0.0230(10) 0.0037(8) -0.0056(9) -0.0088(9)
C3 0.0197(10) 0.0247(10) 0.0172(10) 0.0032(8) -0.0041(8) -0.0076(8)
C4 0.0279(12) 0.0241(11) 0.0235(11) 0.0084(8) -0.0062(9) -0.0103(9)
C5 0.0299(12) 0.0199(10) 0.0310(12) 0.0025(9) -0.0064(9) -0.0088(9)
C6 0.0277(12) 0.0291(11) 0.0234(11) -0.0020(9) 0.0000(9) -0.0117(9)
C7 0.0316(12) 0.0267(11) 0.0199(10) 0.0034(8) -0.0037(9) -0.0135(9)
C8 0.086(2) 0.0545(16) 0.0263(12) 0.0098(11) -0.0168(13) -0.0513(16)
C9 0.0315(12) 0.0209(10) 0.0208(11) 0.0073(8) -0.0048(9) -0.0083(9)
C10 0.0387(14) 0.0300(12) 0.0228(11) 0.0095(9) -0.0045(10) -0.0009(10)
C11 0.0291(12) 0.0192(10) 0.0275(11) 0.0011(9) -0.0038(10) -0.0097(9)
loop_
_atom_type_symbol
_atom_type_description
_atom_type_scat_dispersion_real
_atom_type_scat_dispersion_imag
_atom_type_scat_source
C C 0.0033 0.0016 'International Tables Vol C Tables 4.2.6.8 and 6.1.1.4'
H H 0.0000 0.0000 'International Tables Vol C Tables 4.2.6.8 and 6.1.1.4'
Co Co 0.3494 0.9721 'International Tables Vol C Tables 4.2.6.8 and 6.1.1.4'
N N 0.0061 0.0033 'International Tables Vol C Tables 4.2.6.8 and 6.1.1.4'
S S 0.1246 0.1234 'International Tables Vol C Tables 4.2.6.8 and 6.1.1.4'
loop_
_geom_angle_atom_site_label_1
_geom_angle_atom_site_label_2
_geom_angle_atom_site_label_3
_geom_angle
_geom_angle_site_symmetry_1
_geom_angle_site_symmetry_3
N2 Co01 N2 180.0 2_775 .
N5 Co01 N2 88.01(6) 2_676 2_775
N5 Co01 N2 91.99(6) 2_676 .
N5 Co01 N2 88.01(6) 1_654 .
N5 Co01 N2 91.99(6) 1_654 2_775
N5 Co01 N5 180.0 2_676 1_654
N7 Co01 N2 86.50(7) . 2_775
N7 Co01 N2 86.50(7) 2_775 .
N7 Co01 N2 93.50(7) . .
N7 Co01 N2 93.50(7) 2_775 2_775
N7 Co01 N5 89.26(7) . 1_654
N7 Co01 N5 90.74(7) . 2_676
N7 Co01 N5 90.74(7) 2_775 1_654
N7 Co01 N5 89.26(7) 2_775 2_676
N7 Co01 N7 180.0 2_775 .
C7 N1 C1 129.99(17) . .
C7 N1 C8 103.90(17) . .
C8 N1 C1 126.04(17) . .
N3 N2 Co01 121.58(13) . .
C7 N2 Co01 130.57(14) . .
C7 N2 N3 107.58(17) . .
C8 N3 N2 105.89(18) . .
C9 N4 C3 128.42(16) . .
C10 N4 C3 126.81(17) . .
C10 N4 C9 103.99(16) . .
N6 N5 Co01 122.84(12) . 1_456
C9 N5 Co01 128.86(14) . 1_456
C9 N5 N6 107.55(16) . .
C10 N6 N5 106.12(17) . .
C11 N7 Co01 169.01(17) . .
C2 C1 N1 118.84(17) . .
C6 C1 N1 119.33(17) . .
C6 C1 C2 121.80(18) . .
C1 C2 H2 121.0 . .
C3 C2 C1 118.10(18) . .
C3 C2 H2 121.0 . .
C2 C3 N4 119.40(17) . .
C2 C3 C4 121.55(18) . .
C4 C3 N4 118.97(17) . .
C3 C4 H4 120.5 . .
C5 C4 C3 118.90(18) . .
C5 C4 H4 120.5 . .
C4 C5 H5 119.5 . .
C6 C5 C4 120.97(19) . .
C6 C5 H5 119.5 . .
C1 C6 H6 120.7 . .
C5 C6 C1 118.58(18) . .
C5 C6 H6 120.7 . .
N1 C7 H7 124.7 . .
N2 C7 N1 110.57(18) . .
N2 C7 H7 124.7 . .
N1 C8 H8 124.0 . .
N3 C8 N1 112.0(2) . .
N3 C8 H8 124.0 . .
N4 C9 H9 124.7 . .
N5 C9 N4 110.55(17) . .
N5 C9 H9 124.7 . .
N4 C10 H10 124.1 . .
N6 C10 N4 111.79(19) . .
N6 C10 H10 124.1 . .
N7 C11 S1 178.5(2) . .
loop_
_geom_bond_atom_site_label_1
_geom_bond_atom_site_label_2
_geom_bond_distance
_geom_bond_site_symmetry_2
Co01 N2 2.1696(17) .
Co01 N2 2.1696(17) 2_775
Co01 N5 2.1666(16) 2_676
Co01 N5 2.1666(16) 1_654
Co01 N7 2.0905(18) .
Co01 N7 2.0904(18) 2_775
S1 C11 1.638(2) .
N1 C1 1.437(2) .
N1 C7 1.351(3) .
N1 C8 1.355(3) .
N2 N3 1.382(3) .
N2 C7 1.306(3) .
N3 C8 1.297(3) .
N4 C3 1.436(2) .
N4 C9 1.358(3) .
N4 C10 1.355(3) .
N5 Co01 2.1666(16) 1_456
N5 N6 1.384(2) .
N5 C9 1.302(3) .
N6 C10 1.298(3) .
N7 C11 1.156(3) .
C1 C2 1.383(3) .
C1 C6 1.383(3) .
C2 H2 0.9300 .
C2 C3 1.378(3) .
C3 C4 1.384(3) .
C4 H4 0.9300 .
C4 C5 1.382(3) .
C5 H5 0.9300 .
C5 C6 1.381(3) .
C6 H6 0.9300 .
C7 H7 0.9300 .
C8 H8 0.9300 .
C9 H9 0.9300 .
C10 H10 0.9300 .
loop_
_refln_index_h
_refln_index_k
_refln_index_l
_refln_F_squared_meas
_refln_F_squared_sigma
_refln_scale_group_code
0 0 2 21118 834.217 1
0 0 -2 20141.7 872.185 4
0 0 -2 21501.9 861.179 12
0 0 2 22672.5 835.214 2
0 0 2 20720.2 960.943 9
0 0 -2 20276 924.386 11
0 0 -2 20745.2 837.78 5
0 0 2 21578.3 881.766 4
0 0 -2 19338.1 818.614 2
0 0 2 20631.4 828.689 5
0 0 2 20023.6 830.579 12
0 0 2 22277 927.691 11
0 0 -2 19621.9 813.077 1
0 0 -3 49947.9 1841.7 2
0 0 -3 51720.2 2029.64 11
0 0 -3 55518.9 1877.66 5
0 0 3 56987.6 1942.12 4
0 0 3 51650.1 1852.4 12
0 0 3 55080.2 1983.5 11
0 0 3 55000.2 2115.91 9
0 0 -3 53781.7 1948.63 4
0 0 -3 50608.9 1828.09 1
0 0 3 55917.8 1822.84 2
0 0 3 52617.5 1843.27 5
0 0 3 55402.4 1872.7 1
0 0 -3 55900.7 1921.23 12
0 0 4 7605.16 576.616 3
0 0 -4 7532.81 652.737 4
0 0 -4 8373.16 746.022 11
0 0 -4 7161.79 615.537 12
0 0 4 7221.91 585.351 5
0 0 4 7676.99 743.19 9
0 0 4 8406.12 624.614 1
0 0 -4 7732.04 599.57 1
0 0 -4 7510.95 613.622 2
0 0 4 7717.21 606.122 12
0 0 -4 8334.33 628.685 5
0 0 4 7691.74 562.826 2
0 0 4 8125.23 652.074 4
0 0 4 8577.03 702.281 11
0 0 5 56352.6 2087.56 2
0 0 -5 57488.8 2314.18 12
0 0 5 59474.9 2252 1
0 0 5 53862.5 2469.77 6
0 0 5 57908.4 2096.22 3
0 0 -5 50235.4 2181.1 2
0 0 5 55526.1 2337.33 11
0 0 5 54739.5 2567.69 9
0 0 5 55528.1 2197.26 5
0 0 -5 55959 2222.81 5
0 0 5 59686.6 2318.45 4
0 0 -5 52036.3 2152.3 1
0 0 5 53725.9 2176.23 12
0 0 -5 53854.9 2488.55 11
0 0 -5 55265.6 2356.76 4
0 0 6 4718.24 677.599 6
0 0 6 4415.65 575.636 4
0 0 6 4605 561.77 1
0 0 6 4796.25 628.971 11
0 0 -6 5045.97 630.246 12
0 0 -6 2668.43 528.455 11
0 0 6 4452.07 466.15 3
0 0 6 3589.72 495.352 5
0 0 -6 4230.12 597.326 4
0 0 6 4510.52 501.609 2
0 0 -6 4680.51 561.801 1
0 0 6 4675.47 561.154 12
0 0 6 3961.6 666.151 9
0 0 7 9784.9 928.195 1
0 0 7 10592.5 1007.36 11
0 0 7 9959.33 1174.9 9
0 0 -7 9447.43 963.182 12
0 0 -7 8442.33 947.832 4
0 0 7 10331.3 707.114 3
0 0 7 11153.4 850.66 2
0 0 8 69766.8 2733.48 2
0 0 8 68507.2 3047.63 1
0 0 -8 65838.5 3246.02 4
0 0 -8 66643.9 3188.49 12
0 0 8 66404.3 2267.95 3
0 0 -9 11780.1 1307.61 4
0 0 9 11183.3 961.52 2
0 0 -9 10269.3 1186.9 12
0 0 9 11768.6 1173.81 1
0 0 10 8393.09 846.427 2
0 0 10 7900.93 1036.31 1
0 0 -10 7030.43 1048.48 12
0 0 -10 7782.49 1144.07 4
0 0 -11 2296.19 656.162 4
0 1 -11 6945.81 1162.67 4
0 -1 11 5608.16 936.773 1
0 1 -10 12404.9 1487.28 4
0 -1 10 19667.6 1682.57 1
0 1 -9 25.4895 107.628 4
0 -1 9 247.561 203.526 1
0 1 -9 204.571 138.707 11
0 -1 9 343.883 149.687 2
0 1 -8 47755.1 2735.87 4
0 -1 8 54195.5 2704.6 1
0 -1 8 52856.5 2993.14 9
0 -1 8 55647.9 2158.54 2
0 -1 8 54720 1729.98 3
0 -1 8 53326.5 2075.37 3
0 1 -8 49538.9 2950.58 11
0 1 -7 12181.6 1252.79 11
0 -1 7 15183.7 1356.94 9
0 -1 7 15308.5 1211.97 1
0 -1 7 13486.1 850.282 2
0 -1 7 14332.4 964.842 3
0 -1 7 13956.8 1149.3 11
0 1 -7 12264.3 986.346 2
0 1 -7 14490.4 1201.47 12
0 1 -7 13843 1235.83 4
0 -1 6 -182.735 112.283 5
0 1 -6 78.1275 74.1097 2
0 -1 6 456.206 188.961 11
0 -1 6 116.065 112.448 1
0 1 -6 220.354 157.597 12
0 1 -6 46.5804 67.4005 11
0 -1 6 133.823 135.106 9
0 -1 6 41.309 40.4891 12
0 1 -6 195.899 123.292 4
0 -1 6 190.862 102.929 2
0 -1 6 205.903 150.488 4
0 -1 5 85834.1 3023.36 4
0 -1 5 84155.6 3027.03 11
0 1 -5 78517.7 3051.78 4
0 -1 5 82224.1 2892.42 5
0 1 -5 79855.9 2991.47 12
0 -1 5 82394.8 3019.64 1
0 -1 5 80078.6 3186.14 9
0 -1 5 80985.8 2919.25 12
0 1 -5 77738.6 2727.47 2
0 1 -5 76662.3 3157.88 11
0 -1 5 85592.9 2583.32 2
0 -1 4 21602.8 1127.67 4
0 -1 4 19093.7 1019.87 5
0 1 -4 19950.2 934.394 2
0 1 -4 17403 1081.26 4
0 1 -4 19137 1107.53 1
0 -1 4 22553.6 1238.72 9
0 -1 4 18898.4 1046.26 12
0 -1 4 21258.6 862.356 2
0 -1 4 20998.8 1130.89 11
0 1 -4 20129.7 1102.71 12
0 1 -4 20784.4 1221.73 11
0 -1 4 21134.6 1150.78 1
0 -1 3 21134.7 1018.27 4
0 1 -3 20307.1 1003.39 12
0 1 -3 21109.2 1037.52 9
0 1 -3 20175.1 829.677 2
0 1 -3 19342.5 1026.58 1
0 -1 3 22284.5 1078.1 9
0 -1 3 23187.3 1093.26 1
0 -1 3 22553.2 795.951 2
0 -1 3 22454.5 1053.41 11
0 -1 3 20952.6 990.933 12
0 1 -3 20486.5 1081.85 11
0 1 -3 20638.1 1042.94 4
0 -1 2 2363.42 245.778 12
0 1 -2 2025.42 241.779 4
0 1 -2 2237.34 236.532 9
0 -1 2 2009.89 232.922 4
0 -1 2 2110.13 231.764 9
0 -1 2 2140.79 259.732 1
0 -1 2 2191.55 159.627 2
0 1 -2 2755.41 289.166 11
0 1 -2 2211.88 164.574 2
0 1 1 99837.5 2716.52 12
0 1 1 101198 2835.52 10
0 1 1 97541.6 2914.96 6
0 1 1 100587 2748.36 5
0 -1 -2 8564.43 500.122 7
0 -1 -2 9463.91 622.194 3
0 -1 -2 8425.55 504.875 5
0 1 2 10088.9 522.442 7
0 1 2 8104.72 582.055 2
0 1 2 8778.29 536.354 3
0 1 2 8641.64 503.965 5
0 1 2 8941.63 493.03 12
0 1 2 8724.45 514.09 4
0 1 2 9437.64 468.611 1
0 -1 -2 7642.71 494.627 4
0 1 2 8304.6 520.958 10
0 -1 -2 9063.42 450.286 1
0 1 2 8509.64 618.384 6
0 -1 -2 9070.23 512.198 12
0 1 3 36003 1662.45 6
0 1 3 39172.2 1410.73 7
0 1 3 34776.6 1411.91 3
0 1 3 35282.5 1379.71 12
0 1 3 37474.9 1580.9 2
0 -1 -3 34433.9 1287.29 1
0 -1 -3 36878.8 1452.34 5
0 1 3 37321.7 1623.22 11
0 1 3 36165.8 1445.08 4
0 -1 -3 34944.4 1608.64 3
0 1 3 38780.9 1451.14 5
0 1 3 36428.8 1347.8 1
0 -1 -3 34094.9 1447.45 4
0 -1 -3 33880.4 1416.41 12
0 1 4 6347.73 683.748 6
0 1 4 6000.12 510.432 1
0 1 4 7313.89 684.458 11
0 -1 -4 4807.34 429.146 1
0 1 4 5418.57 498.431 12
0 1 4 6214.74 543.606 5
0 1 4 5005.35 539.207 2
0 1 4 5199.15 478.034 3
0 -1 -4 6054.84 559.873 12
0 1 4 5811.56 707.549 9
0 -1 -4 5722.01 563.211 4
0 1 4 6696.24 580.765 4
0 1 4 6006.66 496.852 7
0 -1 -4 6187.41 559.284 5
0 1 5 52975.4 2112.32 12
0 1 5 53953.8 2228.77 2
0 1 5 54021.3 2377.68 11
0 1 5 53578.7 2522.75 6
0 -1 -5 48799.8 1960.32 1
0 1 5 51527.1 2060.94 1
0 1 5 53996 2670.08 9
0 1 5 54247.7 2007.48 3
0 -1 -5 55571.3 2217.32 5
0 1 5 53632.6 2201.6 4
0 -1 -5 48626.3 2200.1 4
0 -1 -5 47150.9 2150.38 12
0 1 5 54477.3 2053.5 7
0 1 5 52657.1 2139.37 5
0 -1 -6 32169.9 1592.65 1
0 -1 -6 31451.5 1802.3 4
0 1 6 33787.6 1512.9 3
0 1 6 34916.9 1619.01 7
0 1 6 33573.8 1895.81 11
0 -1 -6 38081.7 1852.33 5
0 1 6 36614.5 1822.87 4
0 -1 -6 31579.4 1772.6 12
0 1 6 36643.9 1793.46 2
0 1 6 32996.8 2186.36 9
0 1 6 35153.1 1707 1
0 1 7 2825.55 425.103 7
0 -1 -7 2806.1 523.668 4
0 1 7 2898.38 471.601 1
0 -1 -7 2905.15 444.899 1
0 1 7 3882.68 432.145 3
0 -1 -7 2823.98 521.005 12
0 1 7 3788.99 615.125 11
0 1 7 2618.39 454.471 2
0 -1 -7 3685.23 562.678 5
0 1 8 3854.9 602.531 1
0 -1 -8 3562.26 645.762 4
0 -1 -8 3092.09 600.389 12
0 -1 -8 3307.36 579.84 5
0 1 8 3602.33 499.097 7
0 1 8 3273.01 380.504 3
0 1 8 4401.59 615.202 2
0 1 9 129.296 135.064 2
0 -1 -9 22.1433 106.087 4
0 1 9 3.31266 83.8986 1
0 -1 -9 379.802 231.439 12
0 -1 -10 23719.8 2007.99 12
0 1 10 23576.4 1863.99 10
0 -1 -10 22317.9 1963.31 4
0 1 10 25395.1 1695.28 2
0 -1 -11 26094.6 2269.7 4
0 1 11 32652.1 2337.66 10
0 -2 11 7333.15 1122.51 1
0 2 -11 7525.96 1307.1 11
0 2 -10 17745.9 1912.85 11
0 2 -10 16609.2 1735.29 4
0 -2 10 19976.7 1773.49 1
0 2 -9 1381.9 492.624 11
0 2 -9 1743.99 510.293 4
0 -2 9 1899.48 489.194 1
0 -2 9 1597.85 287.939 2
0 2 -8 763.849 320.335 11
0 -2 8 542.831 291.103 1
0 -2 8 625.939 148.675 3
0 2 -8 882.57 375.95 4
0 -2 8 495.207 282.823 9
0 -2 8 528.49 159.544 2
0 2 -8 543.331 186.13 2
0 2 -7 18038.6 1471.56 4
0 -2 7 21646.6 1044.38 2
0 2 -7 18327.1 1173.56 2
0 -2 7 21972.6 1546.94 9
0 -2 7 22938.2 1012.99 3
0 -2 7 23436.4 1610.8 1
0 2 -7 20539 1669.05 11
0 -2 6 32756 1706.66 12
0 2 -6 30846.8 1426.12 2
0 -2 6 32037.2 1745.88 4
0 2 -6 31311.9 1830.34 4
0 -2 6 34901.5 1324.89 3
0 -2 6 32929.8 1849.33 1
0 -2 6 32383.6 1299.64 2
0 2 -6 31846.2 1961.56 11
0 -2 6 32810.6 1769.52 11
0 -2 6 35178.3 1839.54 9
0 -2 6 29535.4 1610.24 5
0 2 -5 95893.1 3398.63 9
0 -2 5 103745 3540.79 11
0 -2 5 101931 2987.32 3
0 -2 5 95868.1 3410.15 9
0 -2 5 94670 3381.59 12
0 2 -5 95851.6 3688.13 11
0 -2 5 101239 2911.43 2
0 -2 5 102914 3514 4
0 2 -5 91466.6 3001.28 2
0 -2 5 102887 3634.57 1
0 2 -5 93032.9 3532.78 4
0 2 -4 62439.1 2575.39 11
0 -2 4 63228.6 1996.43 2
0 -2 4 67248.7 2602.39 1
0 -2 4 70196.1 2146.47 3
0 2 -4 61288.1 2467.19 4
0 -2 4 65610.8 2438.05 4
0 2 -4 65441.5 2381.51 9
0 -2 4 68419.6 2369.15 9
0 2 -4 68044.7 2064.73 2
0 -2 4 64529.8 2399.05 12
0 2 -3 42246.1 1615.85 9
0 -2 3 44214.5 1530.52 3
0 2 -3 44665.8 1819.43 11
0 2 -3 45073.2 1746.58 4
0 2 -3 42464.1 1356.25 2
0 -2 3 44752.4 1565.38 9
0 -2 3 42028.1 1651.26 12
0 -2 3 42056.3 1821.29 1
0 -2 3 42478.3 1686.82 4
0 2 -2 26668 1130.37 4
0 2 -2 27658.2 1022.85 9
0 -2 2 27896 1266.69 1
0 -2 2 25005.3 1053.88 3
0 2 -1 99265.1 2934.39 10
0 -2 1 101430 3008.16 3
0 -2 1 102812 2958.78 10
0 2 -1 97048.2 2946.23 3
0 -2 0 43312.1 1489.16 10
0 2 0 44053.8 1558.63 3
0 -2 0 43732.6 1604.77 3
0 -2 0 42483.8 1402 6
0 2 0 41862.7 1488.1 10
0 -2 0 42963.7 1526.66 7
0 2 0 43049.7 1400.26 6
0 -2 -1 7804.62 424.801 12
0 -2 -1 7860.02 595.948 3
0 2 1 7272.56 517.12 10
0 2 1 8360.23 563.768 6
0 -2 -1 8821.58 581.287 6
0 -2 -1 7913.51 399.32 8
0 -2 -1 8702.84 482.823 5
0 2 1 8743.51 506.86 7
0 -2 -1 8162.55 536.412 7
0 -2 -1 6522.93 490.458 10
0 2 1 8417.53 569.58 3
0 2 2 1935.09 227.236 12
0 -2 -2 2374.69 229.89 1
0 2 2 1990.61 282.324 10
0 -2 -2 1991.97 290.912 7
0 2 2 2144.98 246.124 7
0 -2 -2 2263.21 345.01 3
0 -2 -2 1969.88 247.295 5
0 2 2 2149.91 300.479 3
0 2 2 2129.28 252.323 5
0 -2 -2 1721.18 263.404 10
0 2 2 1758.95 299.131 6
0 -2 -2 1903.39 315.177 6
0 -2 -2 1691.24 220.256 12
0 2 3 104861 3024.49 7
0 2 3 99417 3539.93 6
0 2 3 102228 3167.6 4
0 2 3 96295.3 2668.63 8
0 2 3 100612 3272.53 3
0 -2 -3 100391 3256.53 7
0 -2 -3 103150 3213.11 5
0 2 3 96791.1 3257.17 10
0 2 3 100151 3505.18 2
0 -2 -3 98752.2 2944.37 1
0 -2 -3 98739 3552.39 3
0 2 3 105361 3180.62 5
0 2 3 101287 3086.96 12
0 -2 -3 95572.8 3119.21 12
0 2 4 20229.7 998.986 1
0 2 4 20715.7 1143.43 3
0 -2 -4 21566.5 1176.66 5
0 -2 -4 20530.3 954.277 1
0 2 4 21091.4 1132.98 5
0 2 4 20447.6 789.642 8
0 2 4 21162.5 1320.46 2
0 2 4 20506.1 981.661 7
0 2 4 22081.8 1103.49 12
0 -2 -4 20162 1407.47 3
0 -2 -4 21391.5 1160.91 12
0 2 4 20015.9 1115.85 4
0 2 4 17926.5 1311.76 6
0 2 4 20415.9 1187.28 10
0 2 5 87639.5 3504.85 11
0 2 5 83861.4 3360.5 2
0 -2 -5 83745.7 3153.43 12
0 2 5 85828.6 3114.27 4
0 2 5 93125.3 3151.79 5
0 -2 -5 88919.9 3206.78 5
0 2 5 83012.7 3557.24 6
0 2 5 87605.5 2817.02 7
0 2 5 86380.2 3028.27 12
0 2 5 90449 3074.04 3
0 2 5 84648.8 2912.75 1
0 -2 -5 80028.1 2783.32 1
0 2 5 89486.9 2628.74 8
0 2 5 84727.5 3197.36 10
0 2 6 35633 1492.05 7
0 2 6 31349.9 1958.98 11
0 2 6 32236.3 1872.13 2
0 -2 -6 36289.4 1883.62 5
0 -2 -6 31616.7 1511.09 1
0 2 6 35973.4 1676.53 1
0 2 6 36459.8 1896.5 10
0 2 6 34761.5 1394.72 8
0 2 6 36308.3 1650.43 3
0 2 6 34959.4 1798.72 4
0 -2 -6 33891.3 1848.08 12
0 2 7 28305.4 1431.34 3
0 -2 -7 25421.4 1395.1 1
0 2 7 27519.3 1671.31 4
0 2 7 26738.8 1282.84 8
0 -2 -7 25141.9 1696.14 12
0 -2 -7 27734.5 1723.09 5
0 2 7 29300.5 1297.1 7
0 2 7 28234.8 1761.33 2
0 2 7 28077.9 1891.85 11
0 2 7 29709.4 1793.69 10
0 2 7 28553.5 1565.64 1
0 -2 -8 34792.7 2105.92 5
0 2 8 38150.6 1658.63 3
0 2 8 35255 2128.17 10
0 -2 -8 32372.2 1726.26 1
0 2 8 36191.9 2113.41 2
0 2 8 34253.5 1885.95 1
0 -2 -8 34392.5 2157.41 12
0 2 9 2646.98 540.397 2
0 -2 -9 3803.63 688.226 5
0 2 9 2532.85 569.029 10
0 -2 -9 2259.6 572.52 12
0 2 9 2015.78 455.896 1
0 2 10 6110.03 858.735 2
0 2 10 4332.76 779.18 10
0 -2 -10 5556.42 944.651 12
0 2 11 6117.49 898.369 2
0 -3 11 5764.05 1019.24 1
0 3 -11 5672.19 1162.09 11
0 3 -10 8892.97 1339.42 11
0 3 -10 5907.26 1040.36 4
0 -3 10 8694.01 1186.1 1
0 3 -9 1648.34 541.533 11
0 3 -9 1749.33 500.02 4
0 -3 9 2609.59 615.696 1
0 3 -8 32331.7 2161.79 4
0 3 -8 27079.8 1476.76 2
0 3 -8 29622.5 2224.23 11
0 -3 8 30489.5 1830.19 9
0 -3 8 31294.1 2091.3 1
0 -3 7 56168.2 2836.23 1
0 3 -7 51785.5 2741.55 4
0 3 -7 51886 2104.64 2
0 3 -7 55305.3 2994.95 11
0 -3 7 58853.3 2183.98 3
0 -3 7 59597.8 2539.96 9
0 3 -6 6984.21 823.828 4
0 3 -6 7588.26 568.989 2
0 -3 6 7221.99 749.588 12
0 3 -6 6944.46 707.529 9
0 -3 6 7695.69 705.999 9
0 -3 6 7970.35 889.211 1
0 3 -6 6890.15 880.193 11
0 -3 6 7973.36 641.698 3
0 3 -5 77067.1 2814.96 9
0 -3 5 81461 3236.42 1
0 -3 5 77069.1 2668.9 3
0 -3 5 77365.1 2910.43 12
0 -3 5 80667.4 2732.07 9
0 3 -5 73982.9 3187.9 11
0 3 -5 77088.6 2432.13 2
0 3 -5 74189.8 3058.76 4
0 3 -4 99592.6 3250 9
0 3 -4 100594 3640.08 11
0 3 -4 100856 3503.84 4
0 -3 4 100990 3673.81 1
0 -3 4 97477.3 3332.77 12
0 -3 4 96089.5 3212.83 3
0 3 -4 101661 2899.58 2
0 -3 3 5162.64 590.164 1
0 -3 3 5753.26 517.121 3
0 -3 3 6210.29 539.506 10
0 3 -3 5172.93 521.178 4
0 3 -3 5095.17 442.084 9
0 3 -3 5627.67 599.652 11
0 -3 2 97089 3055.63 10
0 -3 2 93595.7 3106.11 3
0 3 -2 96586.8 3047.84 4
0 3 -2 91321.3 2993.96 3
0 -3 1 1551.96 265.641 7
0 -3 1 1798.28 294.529 3
0 3 -1 1690.52 257.413 10
0 3 -1 1523.8 257.056 3
0 -3 1 1366.88 232.939 10
0 -3 1 1932.41 212.816 6
0 -3 0 416750 11514.1 7
0 -3 0 428150 11691.7 3
0 3 0 431517 11270.4 6
0 -3 0 446487 11322.4 6
0 3 0 448117 11596.1 3
0 -3 0 418791 11461.1 10
0 3 0 440062 11497.6 10
0 3 1 393.433 139.36 10
0 3 1 298.666 132.846 3
0 -3 -1 78.122 73.8288 5
0 3 1 342.287 119.686 6
0 -3 -1 245.695 80.8563 8
0 -3 -1 154.025 90.5066 7
0 -3 -1 187.639 105.862 6
0 -3 -1 228.097 153.601 3
0 3 1 213.458 100.568 7
0 -3 -2 3080.3 319.023 12
0 3 2 2067.14 357.46 6
0 -3 -2 2499.02 431.061 3
0 -3 -2 2833.19 393.68 7
0 -3 -2 2816.73 242.042 8
0 3 2 2302.58 350.403 10
0 -3 -2 2677.13 411.669 6
0 3 2 2009.75 337.72 3
0 3 2 2675.71 321.987 7
0 -3 -2 2433.61 357.4 10
0 -3 -2 2136.71 288.401 5
0 3 3 98267 3153.95 4
0 -3 -3 97072.1 3481.15 7
0 3 3 94066.4 3603.81 2
0 3 3 97847.4 3045.15 7
0 3 3 103492 3183.68 5
0 3 3 97604.1 3355.01 10
0 3 3 103975 3101.93 12
0 -3 -3 92260.6 3091.74 12
0 -3 -3 91417.1 2927.95 1
0 3 3 94965.8 3575.91 6
0 -3 -3 93505.6 3659.2 3
0 3 3 94922.3 3364.82 3
0 -3 -3 98273.4 3380.83 10
0 -3 -3 88215.9 3138.1 5
0 -3 -4 72595.1 2755.85 5
0 -3 -4 74650.5 3309.64 3
0 3 4 71145.1 2782.38 3
0 3 4 76207.1 2489.71 7
0 -3 -4 72023.5 2698.33 12
0 3 4 77357.8 2719.12 5
0 -3 -4 74386 2868.12 7
0 3 4 76076.9 2626.51 12
0 3 4 70993.3 2858.37 10
0 3 4 74546.4 3140.52 2
0 -3 -4 74722.9 2424.01 1
0 3 4 67364.4 3078.79 6
0 3 4 72147.1 2673.09 4
0 3 5 76617.2 2888.69 3
0 3 5 76406.1 2762.45 12
0 3 5 71672.8 3196.95 2
0 -3 -5 74250.9 3525.41 3
0 -3 -5 68043.5 2825.02 12
0 3 5 74118.2 2825.85 4
0 3 5 72444.5 2466.75 7
0 3 5 71325.6 2975.42 10
0 -3 -5 76968.1 2493.16 1
0 -3 -5 76271.1 2953.03 5
0 3 6 21554.4 1619.24 2
0 3 6 23105.1 1545.26 10
0 -3 -6 23818.4 1886.31 3
0 -3 -6 22175.6 1468.88 5
0 3 6 23592.4 1423.94 4
0 3 6 23390.5 1743.97 11
0 3 6 23080.3 1073.69 7
0 -3 -6 21276.4 1126.47 1
0 -3 -6 22237.2 1466.48 12
0 3 6 22474.3 1362.3 3
0 3 7 3250.31 263.287 8
0 -3 -7 4201.73 642.119 5
0 3 7 3218.29 590.158 10
0 3 7 3016.92 248.027 8
0 3 7 2908.65 456.454 3
0 3 7 3851.21 577.232 4
0 -3 -7 2739.2 526.215 12
0 3 7 3061.07 609.636 2
0 -3 -7 3255.05 420.057 1
0 3 7 3631.38 356.541 7
0 3 8 8565.88 791.494 3
0 3 8 10565.8 1156.32 2
0 3 8 10654.9 880.013 1
0 3 8 8509.25 1026.36 10
0 -3 -8 8935.19 1025.97 5
0 -3 -8 7873.27 989.868 12
0 3 9 2218.61 536.637 2
0 -3 -9 1249.08 429.888 12
0 -3 -9 979.854 359.307 5
0 3 9 908.155 355.141 10
0 3 10 251.57 157.355 10
0 3 10 92.8788 155.256 2
0 3 11 4209.71 814.879 2
0 4 -10 7806.63 1206.18 4
0 -4 10 6238.29 1034.01 1
0 4 -10 5434.02 1078.13 11
0 -4 9 232.967 182.084 1
0 4 -9 822.627 359.32 4
0 4 -9 342.139 330.004 11
0 4 -8 8180.26 1092.95 4
0 -4 8 11185 1255.29 1
0 4 -8 10710.4 1321.22 11
0 -4 7 47246.6 2118.76 3
0 -4 7 49026.1 2675 1
0 4 -7 45245.2 2720.78 11
0 4 -7 43199.4 1764.82 2
0 4 -7 43849.6 2520.06 4
0 -4 6 17695.5 1427.57 1
0 4 -6 13992.5 1320.94 11
0 4 -6 15046.7 825.145 2
0 4 -6 14005.3 1007.74 9
0 -4 6 15722.9 1088.34 3
0 4 -6 14977.5 1273.47 4
0 4 -5 199239 5461.22 2
0 -4 5 194661 6068.75 12
0 -4 5 204958 6621.51 1
0 -4 5 201469 6070.07 3
0 4 -5 199451 6576.12 11
0 4 -5 196251 5892.26 9
0 4 -5 189953 6308.87 4
0 4 -4 56208.6 2543.38 11
0 4 -4 54817.5 1841.33 2
0 4 -4 53250.7 2061.05 9
0 -4 4 54321.8 2287.81 3
0 -4 4 54597.7 2248.25 10
0 4 -4 53673 2347.73 4
0 -4 4 52774.5 2512.8 1
0 -4 3 40781.2 2045.59 1
0 -4 3 44948.1 2023.37 7
0 -4 3 42053 1861.21 10
0 4 -3 43427.6 1886.37 4
0 -4 3 40591.6 1900.59 3
0 -4 2 36812.4 1685.08 10
0 4 -2 39252.6 1662.59 4
0 -4 2 38900.3 1394.76 6
0 -4 2 37705.9 1798.39 7
0 -4 2 36229.7 1789.72 3
0 4 -2 36723.7 1667.89 3
0 4 -2 38784.3 1679.45 10
0 -4 1 9127.57 779.25 7
0 4 -1 10339.8 762.502 10
0 -4 1 9862.02 616.639 6
0 4 -1 10491.6 795.449 3
0 -4 1 9256.45 822.545 3
0 -4 1 9352.38 742.524 10
0 -4 0 16726.1 1189.69 3
0 4 0 19443.3 1151.41 3
0 4 0 17323.9 1055.87 10
0 -4 0 18790.2 1094.43 10
0 -4 0 17389.6 1105.24 7
0 4 0 16739.4 908.217 6
0 -4 0 18415 982.094 6
0 -4 -1 111248 3587.79 6
0 -4 -1 104814 3265.43 8
0 -4 -1 105145 3626.64 7
0 4 1 105944 3644.36 3
0 -4 -1 108591 3583.85 10
0 -4 -1 97045.1 3783.79 3
0 4 1 100742 3512.81 10
0 4 1 99460.8 3422.56 6
0 -4 -2 2639.45 418.599 10
0 -4 -2 2962.06 309.191 8
0 -4 -2 2417.42 418.717 6
0 4 2 2492.07 408.18 10
0 4 2 2735.96 430.291 6
0 -4 -2 2741.92 328.79 12
0 4 2 2945.42 393.788 7
0 -4 -2 2890.72 522.176 3
0 4 2 2820.91 440.915 3
0 -4 -2 3345.08 481.578 7
0 -4 -2 2675.59 358.189 5
0 -4 -3 44522.3 1473.59 8
0 4 3 43997.3 2210.93 6
0 -4 -3 47972.3 1862.2 12
0 -4 -3 46494.3 2255.63 7
0 4 3 43994.3 2081.79 10
0 -4 -3 45148.9 1721.06 1
0 4 3 44173.7 2087.89 3
0 -4 -3 43800.1 1907.8 5
0 -4 -3 43746.9 2410.68 3
0 4 3 48625.8 1894.03 7
0 -4 -3 45038 2123.77 10
0 -4 -4 9920.09 815.496 12
0 -4 -4 11042.4 1033.77 7
0 4 4 10064.6 934.203 10
0 -4 -4 11098.3 723.823 1
0 -4 -4 11305.9 989.678 10
0 -4 -4 9958.96 859.125 5
0 4 4 11533.6 1115.56 6
0 4 4 10491.5 835.71 5
0 4 4 11803.2 1158.26 2
0 4 4 11430.4 788.124 7
0 4 4 12328.7 887.409 4
0 4 4 11087.1 959.279 3
0 -4 -4 9408.78 1104.54 3
0 4 5 41753.5 2089.57 3
0 4 5 43669.6 2238.53 10
0 4 5 42670.4 1748.87 7
0 -4 -5 42037.3 2026.1 12
0 4 5 44132.9 2491.79 2
0 -4 -5 41299.8 2654.7 3
0 4 5 40862.1 1959.97 4
0 -4 -5 44161.8 2202.16 7
0 -4 -5 41024.8 1652.95 1
0 -4 -5 41963.5 2080.76 5
0 4 6 19650.7 1655.25 2
0 4 6 21652.5 1428.46 3
0 4 6 19929.2 1509.97 10
0 -4 -6 20882.4 1470.94 5
0 4 6 21857.6 1393.09 4
0 -4 -6 20478.8 1437.9 12
0 -4 -6 21963 1987.12 3
0 -4 -6 21240.8 1069.61 1
0 4 6 22366.6 1116.65 7
0 4 7 68.4425 53.9708 7
0 4 7 -35.2428 102.986 3
0 4 7 148.644 110.576 10
0 -4 -7 8.70892 101.157 12
0 4 7 278.369 152.332 2
0 -4 -7 342.343 204.733 5
0 4 7 177.084 183.212 4
0 4 8 11208.3 997.436 3
0 4 8 9849.14 1156.65 10
0 -4 -8 11801.8 1240.83 12
0 -4 -8 10533.7 1155.69 5
0 4 8 12099.4 1338.45 2
0 -4 -9 1098.16 398.028 12
0 4 9 2209.6 599.287 10
0 4 9 1388.31 480.59 2
0 -4 -9 1082.62 392.919 5
0 4 10 6415.12 1020.69 2
0 5 -10 14093.6 1823.49 11
0 -5 9 4224.76 837.417 1
0 5 -9 3006.39 777.976 11
0 5 -9 4015.53 826.686 4
0 5 -8 4105.7 783.433 4
0 5 -8 4024.82 855.156 11
0 -5 8 5966.31 948.426 1
0 -5 7 12515.7 1334.08 1
0 5 -7 11535.3 1236.02 4
0 5 -7 10864.3 895.817 9
0 -5 7 11350.2 1057.84 3
0 5 -7 11882.5 1350.97 11
0 -5 6 2570.21 490.623 3
0 5 -6 3187.46 352.068 2
0 5 -6 3812.03 644.645 4
0 -5 6 3183.32 630.304 1
0 5 -6 3447.36 669.817 11
0 5 -6 3232.33 450.558 9
0 -5 5 11861.4 1064.11 3
0 -5 5 11557.1 1166.55 1
0 5 -5 12271.5 901.432 9
0 5 -5 10871.2 1134.43 11
0 -5 5 12616.9 995.458 12
0 5 -5 11974 1089.92 4
0 5 -5 13203.2 759.591 2
0 -5 4 4837.3 641.804 3
0 5 -4 5440.08 743.271 11
0 -5 4 3324.37 509.724 10
0 5 -4 4212.06 586.678 4
0 -5 4 4211.07 655.331 1
0 5 -4 4218.43 491.597 9
0 -5 3 233.647 135.597 10
0 -5 3 169.439 172.957 3
0 5 -3 601.937 222.792 4
0 -5 3 388.04 167.481 7
0 -5 3 550.65 222.003 1
0 -5 3 234.131 107.667 6
0 5 -2 19838.7 1260.39 3
0 -5 2 19905.2 1354.61 7
0 -5 2 20289.3 1289.19 10
0 -5 2 20602 999.534 6
0 5 -2 20973.8 1261.24 10
0 -5 2 21343.3 1440.08 3
0 -5 1 500.402 258.008 3
0 5 -1 1310.71 315.112 3
0 -5 1 443.793 248.401 7
0 -5 1 764.293 250.754 10
0 -5 1 303.149 122.35 6
0 5 -1 822.335 269.265 10
0 5 0 289476 8392.45 3
0 -5 0 285982 8334.35 10
0 -5 0 276512 8408.54 7
0 -5 0 280366 8169.5 8
0 5 0 284844 8292.17 10
0 -5 0 295971 8088.25 6
0 -5 0 266674 8615.16 3
0 5 0 287264 7928.67 6
0 -5 -1 17928.8 1178.93 6
0 -5 -1 16352.3 1005.3 8
0 -5 -1 17926.1 1229.52 10
0 5 1 16157.6 1078.49 6
0 -5 -1 16878.4 1246.55 7
0 -5 -1 17741.3 1420.43 3
0 5 1 18226.4 1216.81 10
0 5 1 17366.8 1246.62 3
0 -5 -2 22049 1250.2 5
0 -5 -2 25815.3 1629.51 7
0 -5 -2 22770.5 1464.18 10
0 -5 -2 23442.8 1171.19 12
0 5 2 23434.6 1507.36 3
0 5 2 22285 1423.01 10
0 -5 -2 26145.1 1817.39 3
0 5 2 22472.3 1432.19 6
0 -5 -2 26689.8 1587.06 6
0 -5 -2 22464.6 1121.79 8
0 -5 -3 16594 1009.5 12
0 -5 -3 13858 756.552 8
0 -5 -3 15269.2 1312.93 7
0 -5 -3 13570 1376.41 3
0 5 3 14684.4 1221.34 6
0 5 3 15862.5 1214.27 10
0 5 3 16856.6 1254.03 3
0 -5 -3 14851.8 1053.31 5
0 5 4 1273.13 290.744 4
0 -5 -4 902.633 237.271 12
0 -5 -4 1411.07 333.135 5
0 5 4 1024.63 299.153 3
0 -5 -4 1221.09 248.122 1
0 -5 -4 451.561 281.825 3
0 5 4 1491.37 382.609 10
0 5 4 1370.23 415.056 2
0 -5 -4 837.342 325.547 7
0 -5 -5 22181.6 1498.48 5
0 5 5 22500.9 1388.91 4
0 5 5 20218.7 1550.7 10
0 -5 -5 21476.3 1410.75 12
0 -5 -5 22010.3 1139.04 1
0 5 5 22736.2 1552.59 3
0 -5 -5 24572.7 1761.38 7
0 5 5 21859.7 1800.6 2
0 5 6 5611.35 812.271 10
0 -5 -6 6161.82 806.954 7
0 -5 -6 5970.17 754.532 12
0 -5 -6 6368.74 806.459 5
0 5 6 6039.4 772.581 3
0 5 6 5532.64 919.273 2
0 5 6 5716.29 700.152 4
0 5 7 3680.6 705.985 10
0 -5 -7 4254.08 708.209 5
0 5 7 5381.42 732.255 3
0 5 7 2510.23 662.527 2
0 -5 -7 4466.59 710.756 12
0 -5 -8 33776.1 2232.05 12
0 5 8 31123.3 2411.65 2
0 5 8 33670.8 2325.14 10
0 -5 -8 35603.5 2304.42 5
0 5 9 12419.4 1489.23 2
0 5 9 10249 1287.75 10
0 -5 -9 12117.5 1365.14 12
0 6 -9 3051.25 810.18 11
0 -6 9 2657.09 704.641 1
0 -6 8 9200.52 1229.06 1
0 6 -8 6390.63 1104.14 11
0 6 -8 7816.56 1127.05 4
0 6 -7 11112.1 1260.45 4
0 -6 7 11081.1 1325.52 1
0 6 -7 12550.8 1448.72 11
0 -6 6 8828 1135.07 1
0 6 -6 8734.32 1149.48 11
0 6 -6 10710.6 710.726 2
0 6 -6 8539.81 786.268 9
0 6 -5 546.721 180.3 9
0 6 -5 839.328 354.409 11
0 6 -5 481.22 247.953 4
0 -6 5 414.201 287.197 1
0 6 -5 403.536 150.608 2
0 6 -4 48220.5 2377.47 4
0 6 -4 48152.1 2146.3 9
0 -6 4 49675.6 1864.71 6
0 -6 4 44497 2546.26 1
0 -6 3 9175.15 660.122 6
0 -6 3 9210.7 1020.21 1
0 6 -3 10415.2 925.591 4
0 -6 2 32209.6 1470.79 6
0 6 -2 33845.9 1829.19 10
0 6 -2 33535.9 1864.07 3
0 6 -2 34242 1742.46 4
0 6 -1 18575.8 1336.5 3
0 -6 1 18630.3 1112.07 6
0 -6 1 18106.6 1333.17 8
0 6 -1 18648.9 1309.8 10
0 6 0 85609.9 3431.16 3
0 -6 0 78272 3442.03 7
0 6 0 80804.2 3296.86 10
0 -6 0 85667.3 3147.46 6
0 -6 0 81931.1 3215.39 8
0 6 0 83417.1 2958.82 6
0 6 1 48651.9 2429.93 10
0 6 1 53912.2 2569.19 3
0 6 1 51972.3 2282.16 6
0 -6 -1 55489.9 2458.19 6
0 -6 -1 49188.1 2174.37 8
0 -6 -1 49464.3 2589.57 7
0 -6 -2 138.903 90.5736 12
0 6 2 102.999 122.647 3
0 -6 -2 186.181 184.545 6
0 -6 -2 142.625 97.2969 8
0 -6 -2 29.4749 75.6712 7
0 -6 -2 359.647 162.169 5
0 6 2 196.55 160.563 6
0 6 2 225.948 191.013 10
0 -6 -3 10965 852.18 12
0 6 3 10901.9 1076.84 3
0 -6 -3 11697.8 981.969 5
0 6 3 10043.2 1038.02 10
0 6 3 11140.1 1260.33 2
0 -6 -3 11069.9 742.128 8
0 -6 -3 11758.3 1250.22 7
0 6 4 20399.3 1815.38 2
0 -6 -4 23883.8 1947.3 7
0 -6 -4 23069.3 959.034 8
0 -6 -4 23597.4 1303.39 1
0 6 4 24926.9 1713.26 3
0 -6 -4 22380.4 1499.18 5
0 -6 -4 23120.9 1403.26 12
0 6 4 22951.4 1661.47 10
0 6 5 443.126 298.842 2
0 -6 -5 162.863 108.754 12
0 -6 -5 210.258 139.219 5
0 6 5 382.101 214 4
0 -6 -5 -41.0114 162.036 7
0 6 5 442.353 246.627 10
0 6 5 421.324 215.736 3
0 6 6 3769.83 706.351 10
0 6 6 5217.43 775.551 3
0 -6 -6 3183.04 601.121 5
0 6 6 6033.25 1005.24 2
0 -6 -6 4023.37 634.261 12
0 6 7 452.788 307.524 2
0 6 7 1084.95 405.749 10
0 6 7 438.158 266.86 3
0 -6 -7 537.67 261.886 12
0 -6 -7 552.398 240.151 5
0 6 8 10283.5 1292.34 10
0 -6 -8 9794.32 1167.45 12
0 7 -8 737.659 372.47 4
0 -7 8 277.301 243.011 1
0 7 -8 608.652 387.981 11
0 7 -7 46354.7 2860.66 4
0 -7 7 43492.6 2909.03 1
0 7 -7 47857.2 3139.45 11
0 7 -6 12093.7 1422.91 11
0 7 -6 14085.6 1396.64 4
0 -7 6 13671.5 1476.58 1
0 7 -5 57667.6 2956.44 4
0 -7 5 62876.8 2287.86 6
0 7 -5 56238.7 3203.59 11
0 -7 5 63758.4 3341.85 1
0 7 -5 57574 2540.76 9
0 -7 4 -65.9028 188.128 1
0 -7 4 416.014 142.3 6
0 -7 3 32131.1 2142.21 1
0 7 -3 35032.2 1957.87 4
0 -7 3 34719.7 1563.71 6
0 7 -2 50442.5 2597.84 3
0 -7 2 51798 2117.94 6
0 7 -2 51292.5 2389.64 4
0 -7 2 48564.3 2664.61 8
0 7 -2 53918.1 2578.72 10
0 -7 1 1242.4 296.472 6
0 7 -1 1629.95 416.648 3
0 -7 1 1782.35 427.119 8
0 7 -1 1487.28 379.904 10
0 7 0 17970 1390.11 10
0 -7 0 15514.4 1258.35 8
0 7 0 17974.7 1443.71 3
0 -7 0 17412.4 1240.56 6
0 -7 -1 20843 1178.49 12
0 7 1 20335.3 1578.97 3
0 -7 -1 20020.7 1346.07 8
0 7 1 21392.5 1571.65 10
0 -7 -1 23400.6 1560.97 6
0 7 1 20725.9 1381.87 6
0 -7 -1 22065.2 1397.6 5
0 -7 -2 3092.63 438.505 12
0 -7 -2 4331.3 545.638 8
0 -7 -2 5407.84 770.551 6
0 -7 -2 3618.06 553.13 5
0 7 2 5158.58 777.033 3
0 7 2 4107.25 679.932 10
0 7 2 4034.39 647.119 6
0 -7 -3 30868.6 1511.87 8
0 7 3 34471.4 2157.5 3
0 -7 -3 33182.8 1698.68 12
0 7 3 31523.3 2369.68 2
0 7 3 31605.6 2067.59 10
0 -7 -3 33007 1892.05 5
0 7 4 1618.3 435.632 10
0 7 4 2177.76 605.098 2
0 -7 -4 2437.87 435.678 12
0 7 4 2706.71 567.226 3
0 -7 -4 2356.1 487.13 5
0 7 5 5777.53 856.315 3
0 7 5 4735.86 804.856 10
0 -7 -5 6092.74 758.039 12
0 7 5 5401.49 986.128 2
0 -7 -5 4777.75 743.396 5
0 7 6 23044.3 1788.77 3
0 7 6 21667.6 1854.73 10
0 -7 -6 22748.9 1766.55 5
0 -7 -6 19216.1 1523.46 12
0 7 6 22022 2106.67 2
0 7 7 1970.54 516.91 3
0 -7 -7 1606.13 442.819 12
0 8 -7 32007.5 2423.33 4
0 8 -6 8559.12 1255.28 11
0 8 -6 6404.17 979 4
0 -8 6 7428.05 1131.13 1
0 8 -5 1546.13 456.143 4
0 -8 5 1302.64 440.549 1
0 8 -5 1908.41 579.111 11
0 -8 4 19517.7 1812.31 8
0 -8 4 22446.9 1892.23 1
0 8 -4 24418.5 1739.43 4
0 8 -3 415.382 224.239 4
0 -8 3 741.642 283.02 1
0 -8 3 540.881 302.409 8
0 -8 2 25708 1948.75 8
0 -8 2 28880 1538.13 6
0 8 -2 26850.1 1933.81 3
0 -8 2 26705.6 1978.62 1
0 8 -2 31041 1969.54 10
0 8 -2 29838.2 1810.85 4
0 -8 1 2723.26 571.279 8
0 8 -1 2681.93 563.898 10
0 8 -1 2977.57 607.308 3
0 -8 1 3337.45 508.267 6
0 -8 0 398.604 225.623 8
0 8 0 1436.76 417.5 10
0 -8 0 1053 329.911 6
0 8 0 870.88 350.603 3
0 8 1 18608.1 1580.77 3
0 -8 -1 15607.6 1263.98 8
0 8 1 13667.6 1355.39 10
0 -8 -1 16226.7 1078.16 12
0 -8 -1 16780.9 1388.99 6
0 -8 -1 18210.7 1346.93 5
0 8 1 17036.6 1291.5 6
0 -8 -2 3947.5 577.219 8
0 8 2 3421.85 671.515 3
0 -8 -2 3840.62 619.058 5
0 8 2 2526.81 595.208 10
0 -8 -2 3401.92 482.852 12
0 -8 -3 10792.8 947.789 12
0 8 3 11708.1 1493.89 2
0 -8 -3 11477.6 1134.58 5
0 8 3 12718 1330.69 3
0 8 3 12972.5 1358.36 10
0 -8 -4 15482.6 1219.96 12
0 -8 -4 14598.5 1345.95 5
0 8 4 16098.2 1563.13 10
0 8 4 14218.4 1452.39 3
0 8 4 14935.8 1749.58 2
0 -8 -5 9834.92 1025.25 12
0 8 5 11926.5 1377.75 10
0 -8 -5 10249 1164.43 5
0 8 5 11337.9 1530.83 2
0 8 5 11086.8 1284.01 3
0 -8 -6 7268.31 946.741 12
0 8 6 12243.6 1336.82 3
0 8 7 750.303 354.669 3
0 -8 -7 1032.44 373.172 12
0 9 -6 291.965 203.573 4
0 -9 5 10720.9 1434.52 8
0 9 -5 12094.1 1523.2 11
0 9 -5 12181.6 1355.32 4
0 -9 5 12170.6 1492.47 1
0 -9 4 24724.7 2158.68 8
0 9 -4 27394.2 1977.85 4
0 -9 4 25868.3 2166.82 1
0 9 -3 1008.81 360.234 4
0 -9 3 711.979 339.203 8
0 -9 3 1126.73 434.107 1
0 -9 2 397.86 240.466 1
0 -9 2 403.125 320.587 8
0 9 -2 -9.43212 102.842 10
0 9 -2 432.086 252.589 4
0 -9 1 3153.22 660.335 8
0 9 -1 3626.14 742.527 3
0 9 -1 3341.61 584.837 4
0 9 -1 2641.94 604.333 10
0 -9 1 2768.06 612.966 1
0 9 0 30358.3 2189.93 3
0 9 0 27802 2036.76 10
0 -9 0 23417.8 1795.64 8
0 -9 0 24869.1 1851.2 1
0 -9 -1 5945.06 815.39 5
0 9 1 7732.32 1070.72 3
0 -9 -1 6496.79 689.525 12
0 9 1 7312.63 1025.58 10
0 -9 -1 6483.59 855.103 8
0 9 2 90.5335 227.24 10
0 9 2 139.517 184.765 2
0 9 2 104.264 221.191 3
0 -9 -2 176.359 141.893 12
0 -9 -2 324.194 222.866 5
0 9 3 9149.09 1388.3 2
0 9 3 9613.59 1231.41 3
0 9 3 7584.29 1103.2 10
0 -9 -3 8156.75 1017.76 5
0 -9 -3 7001.31 791.883 12
0 -9 -4 22969.1 1590.4 12
0 9 4 25778.6 2087.09 3
0 -9 -5 4853.36 737.757 12
0 9 5 5021.61 935.926 3
0 10 -5 6583.03 1056.97 4
0 10 -4 5319.57 891.247 4
0 -10 3 2208.66 627.234 1
0 -10 3 4198.64 862.349 8
0 10 -3 4824.72 800.98 4
0 10 -2 5681.51 840.003 4
0 -10 2 6937.69 1064.75 1
0 -10 2 5280.46 950.976 8
0 -10 1 6035.33 951.511 1
0 10 -1 7260.65 905.561 4
0 -10 1 5812.67 953.197 8
0 -10 0 6380.19 947.766 8
0 -10 0 4528.93 743.939 5
0 -10 0 4596.69 807.063 1
0 10 1 16053.5 1872.81 2
0 -11 2 9083.59 1310.21 8
1 -10 2 163.092 216.36 1
-1 10 -2 406.891 338.957 4
1 -10 2 -30.1072 100.842 8
1 -10 3 5507.76 1026.03 8
-1 10 -3 7728.61 1083.17 4
1 -10 3 7301.41 1132.62 1
1 -9 -2 6432.13 888.083 5
1 -9 -2 5154.65 931.731 6
1 -9 -1 4802.39 750.553 5
-1 9 1 3908.29 833.416 3
1 -9 -1 4641.11 844.254 6
-1 9 1 5525.13 926.977 10
-1 9 0 5941.98 942.877 10
1 -9 0 5968.11 855.903 8
1 -9 0 6448.1 852.481 5
1 -9 0 5686.74 820.215 1
-1 9 0 7144.94 1100.56 3
1 -9 1 20914.6 1682.36 1
-1 9 -1 18656.1 1802.34 3
-1 9 -1 20622.7 1768.23 10
1 -9 1 16800.2 1589 8
-1 9 -2 996.771 421.862 3
1 -9 2 581.776 298.928 1
1 -9 2 767.148 350.609 8
1 -9 3 1843.98 578.978 8
-1 9 -3 1247.03 402.613 4
-1 9 -3 2134.83 574.916 3
1 -9 3 2333.09 607.107 1
-1 9 -4 2414.38 588.379 4
1 -9 4 2642.41 687.028 1
1 -9 5 2509.58 678.036 1
-1 9 -5 3592.6 764.86 4
-1 8 5 2882.72 700.501 3
-1 8 4 8592.71 1176.31 10
-1 8 4 9636.52 1287.46 3
1 -8 -4 9852.22 1124.48 5
1 -8 -3 8227.25 980.959 5
-1 8 3 9821.07 1216.23 10
1 -8 -3 9300.63 1278.48 6
-1 8 3 8337.98 1184.89 3
1 -8 -3 8644.07 811.239 12
1 -8 -2 26543.9 2083.64 6
-1 8 2 29081 2092.87 10
1 -8 -2 23838.4 1686.48 5
1 -8 -2 23113.5 1332.52 12
-1 8 2 27559.1 2145.7 3
-1 8 1 25455.3 2038.41 3
1 -8 -1 24962.5 1644.89 5
1 -8 -1 22994 1844.24 6
1 -8 -1 21017.7 1186.09 12
1 -8 -1 20727.9 1473.98 8
-1 8 1 27320.9 1968.36 10
1 -8 -1 23451.8 1529.65 1
1 -8 0 857.612 326.327 8
1 -8 0 564.451 308.642 6
-1 8 0 651.193 342.249 3
1 -8 0 952.75 297.539 5
-1 8 0 863.683 351.99 10
1 -8 0 907.475 215.388 12
1 -8 0 334.647 206.403 1
-1 8 -1 24732.6 1968.09 3
1 -8 1 23269.5 1700.7 1
1 -8 1 22432.4 1665.78 6
-1 8 -1 25545.1 1870.6 10
1 -8 1 24321.7 1813.16 8
-1 8 -2 308.853 245.955 10
1 -8 2 301.976 208.574 6
1 -8 2 471.941 273.794 1
-1 8 -2 386.491 252.441 3
1 -8 3 532.221 285.494 1
-1 8 -3 249.569 224.534 3
1 -8 3 506.784 213.338 6
-1 8 -4 3931.68 714.898 4
1 -8 4 3266.03 704.942 1
-1 8 -4 3690.03 723.742 3
-1 8 -5 10198.9 1221.1 4
1 -8 5 9188.69 1241.04 1
1 -8 6 20966.4 2034.28 1
-1 8 -6 24613.4 2208.77 11
1 -7 -7 -38.7374 132.404 12
-1 7 7 533.889 326.712 3
1 -7 -6 7933.03 1038.42 5
1 -7 -6 6136.89 824.911 12
-1 7 6 6512.58 1010.12 3
-1 7 6 6737.78 1043.81 10
1 -7 -5 9132.78 941.952 12
-1 7 5 11871 1584.34 2
1 -7 -5 12952.2 1272.71 5
-1 7 5 10046.2 1263.6 3
-1 7 5 11023.3 1277.42 10
1 -7 -4 10701.6 1099.2 5
1 -7 -4 8274.36 826.637 12
1 -7 -4 11372.5 1404.01 6
-1 7 4 8231.23 1085.48 10
-1 7 4 11199.3 1307.91 3
1 -7 -3 1263.42 457.242 6
1 -7 -3 1963.03 441.175 5
-1 7 3 1395.67 421.977 10
-1 7 3 2170.86 573.437 3
1 -7 -3 1473.27 314.179 12
-1 7 2 3213.07 671.093 3
-1 7 2 2951.74 596.029 10
1 -7 -2 2859.49 429.569 1
1 -7 -2 3109.81 415.61 12
1 -7 -2 3031.15 517.256 5
1 -7 -2 2872.83 428.345 8
1 -7 -2 3004.7 639.018 6
1 -7 -1 30201 1707.32 8
1 -7 -1 32558.6 2120.47 6
1 -7 -1 30585.7 1417.4 12
-1 7 1 34974.7 2298.35 3
1 -7 -1 30798.5 1685.99 1
1 -7 -1 33154.6 1811.09 5
-1 7 1 34551.5 2127.04 10
1 -7 0 723.598 264.725 6
1 -7 0 786.694 270.575 1
-1 7 0 497.861 226.658 3
1 -7 0 704.407 274.154 8
-1 7 0 492.666 238.326 10
1 -7 0 547.984 144.503 12
-1 7 -1 311.671 183.895 10
1 -7 1 391.038 216.217 1
-1 7 -1 433.5 239.859 3
1 -7 1 342.968 182.193 6
-1 7 -2 1919.05 490.868 3
-1 7 -2 853.546 312.202 10
1 -7 2 1283.16 409.246 1
1 -7 2 2189.29 432.981 6
1 -7 3 9466.39 886.181 6
1 -7 3 9198.39 1081.48 1
-1 7 -3 8969.98 1048.99 3
-1 7 -4 53874.7 2806.54 3
1 -7 4 53927.5 2964.07 1
1 -7 4 50082.8 2326.33 6
-1 7 -4 51266.1 2730.14 4
1 -7 5 19070.4 1725.76 1
1 -7 5 20714.5 1333.31 6
-1 7 -5 21438.9 1704.4 4
-1 7 -6 27676.3 2227.16 11
1 -7 6 27725.1 2200.09 1
-1 7 -6 30546.6 2170.7 4
-1 7 -7 17519.8 1810.55 11
1 -7 7 15231 1668.59 1
-1 7 -7 17993.2 1731.19 4
-1 7 -8 2510.04 692.47 11
1 -6 -8 -2.14596 173.979 12
-1 6 7 5207.04 1024.65 2
-1 6 7 5238.99 862.526 3
-1 6 7 4949.98 866.065 10
1 -6 -7 6409.49 878.049 12
1 -6 -7 5834.42 904.211 5
-1 6 6 7283.73 1030.17 3
1 -6 -6 7160.53 951.013 5
-1 6 6 7502.4 1205.4 2
1 -6 -6 7328.24 873.607 12
-1 6 6 8107.41 1065.89 10
-1 6 5 226.16 194.256 10
1 -6 -5 95.098 110.739 5
-1 6 5 -53.425 99.5373 2
-1 6 5 43.3808 120.908 3
-1 6 5 191.268 145.536 7
1 -6 -5 123.74 134.285 12
1 -6 -4 23729 1618.17 5
-1 6 4 24748.9 1915.52 3
1 -6 -4 25823.1 2070.59 6
-1 6 4 23424.8 1740.77 10
1 -6 -4 22392 1393.26 12
-1 6 4 29239 1784.39 7
-1 6 3 46525.6 2532.48 10
1 -6 -3 46459.2 2019.01 12
1 -6 -3 45600.2 1747.75 1
-1 6 3 48106.6 2756.69 3
1 -6 -3 48580.3 1708.47 8
-1 6 3 52255.6 2551.82 7
1 -6 -3 49142.7 2826.14 6
1 -6 -3 47322.1 2309.99 5
1 -6 -2 10278.5 767.437 8
-1 6 2 12065.4 1150.69 10
1 -6 -2 11541.6 1197.14 6
1 -6 -2 11462.3 805.038 1
-1 6 2 12654.7 1288.36 3
1 -6 -2 11644.2 793.5 12
-1 6 2 11381.1 1098.55 7
1 -6 -2 12580.5 1010.81 5
1 -6 -1 56526.1 2065.25 12
1 -6 -1 58580.3 2858.63 6
1 -6 -1 56883.5 2423.49 5
-1 6 1 59606.1 3020.88 3
-1 6 1 60783.2 2806.74 10
1 -6 -1 59466.6 2414.73 8
-1 6 1 57370.9 2658.82 6
1 -6 -1 56868.9 2354.32 1
-1 6 1 57923.1 2810.64 7
1 -6 0 1557.81 371.437 6
-1 6 0 2194.87 451.619 10
-1 6 0 1338.49 404.542 3
1 -6 0 1346.91 219.67 12
1 -6 0 1768.21 367.371 1
1 -6 1 23709.2 1506.31 6
-1 6 -1 25875.3 1639.5 10
-1 6 -1 26169.5 1789.66 3
1 -6 1 25345.7 1576.66 1
1 -6 2 8593.29 815.661 6
1 -6 2 8224.28 912.564 1
-1 6 -2 7422.06 902.251 3
-1 6 -2 8379.77 890.658 10
1 -6 3 18163.7 1189.31 6
1 -6 3 19446.4 1492.13 1
-1 6 -3 16966.1 1373.06 3
1 -6 4 8685.79 779.264 6
-1 6 -4 8616.24 957.555 4
-1 6 -4 8121 903.922 3
1 -6 4 8174.34 997.713 1
-1 6 -5 5940.61 486.257 9
1 -6 5 6730.85 936.388 1
1 -6 5 6139.57 652.073 12
-1 6 -6 8050.52 1092 11
-1 6 -6 10724.6 1179.55 4
-1 6 -6 10396.9 834.395 2
1 -6 6 11658.4 1326.4 1
1 -6 7 10033.6 1272.74 1
-1 6 -7 10189.8 1224.15 4
-1 6 -7 8835.13 1220.43 11
1 -6 8 375.433 292.001 1
-1 6 -8 181.656 148.808 11
-1 6 -8 549.228 268.406 4
-1 6 -9 4479.96 964.707 11
1 -5 -8 5215.14 835.567 12
-1 5 8 5478.62 912.698 10
-1 5 8 6704.35 1111.54 2
1 -5 -7 12262.8 1269.54 5
1 -5 -7 12809.9 1232.21 12
-1 5 7 13467.6 1371.22 3
-1 5 7 11473 1449.71 2
-1 5 7 12468.9 1333.35 10
1 -5 -6 34206.7 2078.91 5
-1 5 6 29827.8 2113.07 3
1 -5 -6 29257.4 1842.73 12
-1 5 6 30937.7 2088.11 10
-1 5 6 36267 1900.59 7
-1 5 6 33152.2 2469.65 2
1 -5 -5 16871.4 1329.8 5
1 -5 -5 14236.8 1135.79 12
-1 5 5 16600.2 1657.23 2
-1 5 5 17651.3 1287.62 7
-1 5 5 16320.9 1392.91 10
-1 5 5 16942.6 1519.54 3
1 -5 -5 18459.5 1738.32 7
1 -5 -4 481.206 212.713 5
1 -5 -4 205.055 184.571 7
-1 5 4 285.951 232.907 3
1 -5 -4 302.456 151.325 12
1 -5 -4 262.046 245.423 6
-1 5 4 648.407 255.48 10
-1 5 4 146.197 145.247 7
-1 5 3 36939.2 1938.18 7
1 -5 -3 35019.5 2188.13 6
-1 5 3 35938.5 1976.22 10
-1 5 3 31792.5 2081.46 3
1 -5 -3 32145 1722.74 5
1 -5 -3 33049.1 1556.14 12
1 -5 -3 35622.6 2484.86 7
1 -5 -3 29591 1202.97 1
1 -5 -3 33718.8 1155.23 8
1 -5 -2 2489.12 517.542 6
1 -5 -2 3448.71 387.885 12
1 -5 -2 4202.87 415.596 1
-1 5 2 4177.73 601.83 7
-1 5 2 2570.4 491.654 6
-1 5 2 4361.47 699.739 3
1 -5 -2 2857.81 342.762 8
-1 5 2 3019.29 518.204 10
1 -5 -2 3865.79 498.769 5
1 -5 -2 4853.33 840.423 7
-1 5 1 31785 1770.19 6
1 -5 -1 29622.1 2082.32 7
-1 5 1 35912.1 2113.34 3
1 -5 -1 34548.9 1533.73 1
-1 5 1 31321 1787.04 10
1 -5 -1 34814.9 1951.95 6
1 -5 -1 32989.8 1328.79 12
-1 5 1 33200.2 1885.78 7
1 -5 -1 33136.3 1578.02 5
1 -5 0 4671.25 375.391 12
-1 5 0 4072.5 605.568 7
1 -5 0 3868.7 489.451 1
1 -5 0 4597.03 713.501 7
-1 5 0 3738.87 609.793 3
1 -5 0 3439.04 528.19 6
-1 5 0 3749.66 546.746 10
-1 5 0 4742.96 566.294 6
1 -5 1 100085 4339 3
1 -5 1 108967 3772.13 1
1 -5 1 101965 4135.9 7
-1 5 -1 100150 3990.79 3
1 -5 1 104795 3702.51 6
1 -5 1 100681 3810.39 10
-1 5 -1 109398 3840.78 10
1 -5 2 63941.5 3179.21 3
-1 5 -2 63216.7 2841.2 3
1 -5 2 68321.8 2585.63 6
1 -5 2 61689.4 2745.62 1
-1 5 -2 65465.4 2710.09 10
1 -5 3 14649.9 974.186 6
-1 5 -3 13769.7 1116.65 3
1 -5 3 15074.2 1221.64 1
1 -5 3 12265.1 1245.46 3
1 -5 4 112601 4309.99 1
1 -5 4 109728 4419.25 3
-1 5 -4 101932 3888.07 3
-1 5 -4 117241 4163.17 4
1 -5 4 104738 3522.04 12
-1 5 -5 467.014 200.43 3
1 -5 5 897.591 330.673 1
-1 5 -5 746.143 203.122 2
-1 5 -5 407.09 96.8857 9
-1 5 -5 897.522 303.233 4
1 -5 5 573.17 258.302 3
1 -5 5 449.641 158.381 12
-1 5 -6 22468.5 1755.27 11
1 -5 6 19721.7 1298.48 12
1 -5 6 21052.1 1639.29 3
1 -5 6 21625.7 1752.92 1
-1 5 -6 24244.5 1725.3 4
-1 5 -6 22241.9 1213.98 2
1 -5 7 68.6802 77.9323 1
-1 5 -7 -121.152 185.022 11
-1 5 -7 207.322 132.346 2
-1 5 -7 174.032 156.95 4
1 -5 7 206.758 176.766 3
-1 5 -8 28238.5 2253.65 11
1 -5 8 30925.4 2324.57 1
-1 5 -8 31055.1 2282.1 4
1 -5 9 16024.9 1715.12 1
-1 5 -9 13530.7 1621.85 11
-1 5 -9 16082.4 1690.58 4
-1 5 -10 436.711 281.178 11
-1 4 9 9263.15 1185.19 10
1 -4 -9 9202.61 1189.36 12
-1 4 9 10849.2 1380.78 2
-1 4 8 7541.62 999.764 10
1 -4 -8 5785.9 872.496 12
-1 4 8 7741.62 968.814 3
1 -4 -8 6152 912.029 5
-1 4 8 6675.3 1065.35 2
1 -4 -7 22112.5 1669.08 12
-1 4 7 24455.2 1793.85 10
-1 4 7 28914.6 1955.43 3
-1 4 7 27509.2 2152.28 2
1 -4 -7 27029.8 1862.08 5
-1 4 6 19087.9 1295.85 7
1 -4 -6 18891.6 1434.92 5
-1 4 6 16747.6 1467.88 3
1 -4 -6 19311.3 1393.13 12
-1 4 6 18338.4 1463.09 10
-1 4 6 17067.5 1630.64 2
-1 4 5 1533.19 351.196 7
1 -4 -5 1214.31 306.499 12
-1 4 5 2170.28 453.856 4
-1 4 5 1726.2 412.891 10
1 -4 -5 1679.71 384.804 5
-1 4 5 2042.06 494.798 3
1 -4 -5 1395.83 419.171 7
-1 4 5 1553.08 443.991 2
-1 4 4 107161 4050.82 10
-1 4 4 107388 4058.16 4
1 -4 -4 106117 3701.05 12
-1 4 4 111137 3636.47 12
1 -4 -4 107917 4640.89 7
1 -4 -4 107226 5147.09 3
-1 4 4 113300 4016.21 7
1 -4 -4 114388 4595.09 6
1 -4 -4 108515 3907.62 5
-1 4 4 109252 4356.93 3
1 -4 -3 2614.32 516.181 6
1 -4 -3 2159.9 418.842 10
-1 4 3 2291.14 430.332 7
1 -4 -3 2184.57 324.982 12
-1 4 3 2543.47 439.746 10
1 -4 -3 2206.45 215.948 1
-1 4 3 2432.74 490.784 6
-1 4 3 2804.8 544.105 3
1 -4 -3 1670.36 511.141 3
1 -4 -3 2017.42 189.697 1
1 -4 -3 2074.19 373.671 5
1 -4 -3 2098.69 525.486 7
1 -4 -2 114.075 71.2947 12
1 -4 -2 -19.6481 36.5314 8
-1 4 2 193.963 112.283 6
1 -4 -2 49.0514 27.4263 1
-1 4 2 47.5301 62.4445 3
-1 4 2 378.13 189.06 7
1 -4 -2 303.187 228.827 7
1 -4 -2 134.249 193.832 3
-1 4 2 143.539 154.442 10
1 -4 -2 33.3417 79.4113 10
1 -4 -2 268.798 183.191 6
1 -4 -2 178.181 101.954 5
1 -4 -1 120866 4166.54 6
1 -4 -1 112197 3623.17 5
1 -4 -1 113035 3354.94 12
-1 4 1 124279 4156.34 7
-1 4 1 113536 3981.26 6
1 -4 -1 111985 4641.44 3
-1 4 1 115602 3956.96 10
1 -4 -1 113116 3986.06 10
-1 4 1 117547 4387.65 3
1 -4 -1 117162 4475.78 7
1 -4 -1 117389 3531.04 1
1 -4 0 22164.8 1492.83 7
1 -4 0 21086.8 1116.83 1
1 -4 0 19088 1209.09 6
-1 4 0 21036.4 1334.53 7
1 -4 0 18400.8 1189.25 10
-1 4 0 20089.7 1399.71 3
-1 4 0 20225.3 1177.04 6
1 -4 0 19163.5 1522.26 3
-1 4 0 20746 1226.39 10
1 -4 0 20847.1 839.42 12
-1 4 -1 47862.5 2310.88 3
1 -4 1 49562.6 2092.75 1
-1 4 -1 48484.5 2104.99 10
1 -4 1 45780.2 2103.1 10
1 -4 1 52440 2434.12 7
1 -4 1 51441.6 2089.65 6
1 -4 1 47581.8 2498.61 3
1 -4 2 5106.55 662.499 7
1 -4 2 5531.97 622.233 1
1 -4 2 5548.6 545.546 6
1 -4 2 5739.83 746.775 3
-1 4 -2 4800.01 606.248 3
1 -4 2 5474.97 611.643 10
1 -4 3 244.912 143.016 1
1 -4 3 141.715 121.134 7
1 -4 3 107.49 78.2344 10
1 -4 3 188.846 131.501 3
-1 4 -3 175.114 111.216 3
1 -4 4 61341.8 2812.27 7
-1 4 -4 69222.2 2813.76 4
1 -4 4 65199.3 2687.06 10
-1 4 -4 66986.8 2596.7 3
1 -4 4 68428.3 2947.22 1
1 -4 4 66676.3 2916.19 3
-1 4 -4 63961.7 1986.16 9
1 -4 4 65694.4 2367.01 12
-1 4 -5 121.645 118.326 2
-1 4 -5 531.384 234.591 4
1 -4 5 119.551 92.1296 12
1 -4 5 415.833 237.242 7
1 -4 5 73.2627 95.4837 1
1 -4 5 50.3133 139.621 3
-1 4 -6 35511.9 2118.46 11
-1 4 -6 34729 2032.55 4
1 -4 6 31893.5 2085.07 1
-1 4 -6 35318 1547 2
1 -4 6 30216.1 1638.73 12
1 -4 6 31878.8 1870.41 3
-1 4 -7 24431.1 1859.3 11
1 -4 7 24746.2 1889.69 1
-1 4 -7 26070.3 1865.5 4
-1 4 -7 24341.3 1342.98 2
1 -4 7 27402.9 1684.92 3
-1 4 -8 5368.3 896.164 11
-1 4 -8 6032.77 923.328 4
1 -4 8 7616.73 1060.5 1
-1 4 -9 13062.6 1511.99 11
-1 4 -9 11545.1 1387.89 4
1 -4 9 14481 1564.03 1
1 -4 10 15553.7 1712.02 1
-1 4 -10 13757.6 1680.68 11
-1 4 -10 16206.6 1757.73 4
-1 4 -11 2046.44 653.485 11
-1 3 10 662.546 337.45 2
-1 3 10 749.22 312.041 10
1 -3 -9 8195.08 1080.27 5
-1 3 9 9360.06 1215.73 2
-1 3 9 4066.09 756.615 10
1 -3 -9 5337.13 886.332 12
1 -3 -8 15789.9 1441.37 12
1 -3 -8 14946.3 1412.42 5
-1 3 8 14096.9 1457.96 2
-1 3 8 14489.2 1367.82 10
-1 3 8 16321.4 1389.97 3
-1 3 7 542.96 206.756 7
-1 3 7 1453.32 462.636 2
-1 3 7 1161.93 374.016 3
-1 3 7 1045.94 334.67 10
1 -3 -7 803.388 293.616 5
1 -3 -7 766.888 268.24 12
-1 3 6 6375.88 731.029 7
-1 3 6 5940.17 766.525 10
-1 3 6 7245.44 894.049 3
1 -3 -6 6546.78 796.891 5
-1 3 6 6269.16 902.263 2
1 -3 -6 7930.92 844.907 12
-1 3 5 741.744 254.111 10
-1 3 5 1274.44 278.857 12
1 -3 -5 843.386 243.257 12
-1 3 5 1581.9 377.265 4
-1 3 5 1245.44 371.127 2
1 -3 -5 989.673 445.307 3
-1 3 5 942.855 327.468 3
1 -3 -5 896.342 262.784 5
-1 3 5 1341.78 323.289 7
-1 3 4 20252.5 1351.41 4
1 -3 -4 18306.9 1764.85 3
-1 3 4 22662.9 1173.79 12
1 -3 -4 20407.1 1561.78 6
-1 3 4 17136 1379.29 3
-1 3 4 19964 1314.1 7
1 -3 -4 21913.4 1294.04 5
-1 3 4 18558.5 1252.22 10
1 -3 -4 19663.1 1301.41 10
1 -3 -4 21113.6 1599.92 7
-1 3 4 22374.3 1234.86 5
-1 3 4 17978.4 1448.27 6
1 -3 -4 19658 1170.57 12
1 -3 -3 63.4494 80.3591 12
-1 3 3 244.561 191.857 9
1 -3 -3 246.518 154.393 6
-1 3 3 409.908 183.785 7
-1 3 3 143.947 110.402 10
1 -3 -3 169.722 129.668 5
1 -3 -3 796.802 303.44 7
-1 3 3 276.27 125.36 12
-1 3 3 87.9982 47.9656 6
-1 3 3 382.567 140.067 5
1 -3 -3 448.532 173.664 10
1 -3 -3 -137.957 150.272 3
-1 3 3 639.332 275.945 3
1 -3 -2 7816.42 615.627 5
1 -3 -2 7633.36 960.054 3
-1 3 2 7306.76 662.498 10
1 -3 -2 8805.17 849.073 6
-1 3 2 8386.12 870.009 3
-1 3 2 8141.63 783.39 6
-1 3 2 7988.47 532.57 12
1 -3 -2 7620.62 700.07 10
1 -3 -2 9224.27 989.714 7
-1 3 2 7855.98 757.28 7
1 -3 -2 7706.71 536.06 12
1 -3 -2 7973.62 397.754 1
1 -3 -2 8197.49 411.06 8
1 -3 -1 137473 3873.11 1
1 -3 -1 136661 4996.95 3
-1 3 1 131025 4378.31 6
1 -3 -1 136401 4334.09 10
1 -3 -1 143393 4874.59 7
1 -3 -1 132731 4001.23 5
-1 3 1 143870 4549.53 7
1 -3 -1 134525 3801.41 12
-1 3 1 139311 4293.03 10
-1 3 1 141409 4753.63 3
1 -3 -1 141244 4510.79 6
1 -3 0 1630.83 381.124 3
-1 3 0 2007.12 313.715 6
1 -3 0 2299.39 342.199 10
1 -3 0 1901.55 382.856 7
1 -3 0 2538.94 305.125 1
1 -3 0 1901.97 333.651 6
-1 3 0 1544.86 278.009 10
-1 3 0 2040.37 397.852 3
1 -3 0 2079.94 181.821 12
-1 3 0 2430.9 389.654 7
-1 3 -1 10214.3 809.543 7
-1 3 -1 9365.95 817.017 3
1 -3 1 10353.1 715.541 6
1 -3 1 8857.81 704.975 10
1 -3 1 8585.83 853.914 3
-1 3 -1 10410 733.67 10
1 -3 1 10686.9 734.695 1
1 -3 1 8706.17 804.98 7
1 -3 2 2637.46 448.44 3
-1 3 -2 3006.31 426.376 7
1 -3 2 3070.6 425.743 1
1 -3 2 2801.64 378.73 10
-1 3 -2 2143.69 369.702 3
1 -3 2 2589.18 411.72 7
-1 3 -3 6102.34 581.495 3
1 -3 3 6756.19 497.719 12
1 -3 3 8540.8 698.364 10
1 -3 3 8191.85 752.309 7
1 -3 3 7619.34 732.612 1
1 -3 3 6619.33 697.815 3
1 -3 4 31188.6 1630.97 7
-1 3 -4 29909.2 1579.06 4
-1 3 -4 29415.6 1373.66 3
1 -3 4 31491.3 1623.23 3
-1 3 -4 31807.9 1323.89 2
1 -3 4 28884.6 1665.28 1
1 -3 4 28440.1 1318.53 12
1 -3 5 67809.5 2824.45 7
1 -3 5 73478.4 2774.16 3
-1 3 -5 67259.1 2901.86 11
1 -3 5 66625.5 2544.04 12
1 -3 5 75824.6 3117.87 1
-1 3 -5 70362.6 2405.88 2
-1 3 -5 67050.2 2829.18 4
-1 3 -6 43222.4 1813.18 2
1 -3 6 44013.2 2005.49 12
1 -3 6 45850.2 2432.22 1
1 -3 6 45850 2208.13 7
-1 3 -6 42464.4 2244.34 4
1 -3 6 45107 2034.28 3
-1 3 -6 47009.7 2385.43 11
-1 3 -7 63750.7 3062.29 4
1 -3 7 68984.4 3242.22 1
1 -3 7 68301.6 2600.25 3
-1 3 -7 58171.8 3010.64 11
-1 3 -7 58871 2442.26 2
1 -3 7 65089.5 2835.59 7
-1 3 -8 -145.248 163.251 4
-1 3 -8 227.847 232.045 11
-1 3 -8 137.091 103.497 2
1 -3 9 35765.8 2463.82 1
-1 3 -9 33185.7 2431.97 11
-1 3 -9 36777.8 2492.35 4
-1 3 -10 12043.2 1497.93 11
-1 3 -10 11530.4 1438.9 4
1 -3 10 13099.4 1515.7 1
1 -3 11 8859.15 1305.07 1
-1 3 -11 7221.61 1245.15 11
-1 3 -12 3443.41 1002.9 11
-1 2 10 731.445 319.818 10
-1 2 10 569.435 295.66 2
-1 2 9 1857.18 462.8 10
1 -2 -9 2163.35 548.404 12
1 -2 -9 2062.02 533.454 5
-1 2 9 2399.14 557.101 2
-1 2 8 8850.53 1055.72 2
1 -2 -8 10046.2 1090.27 5
-1 2 8 8283.63 971.44 10
1 -2 -8 9864.73 1109.48 12
-1 2 8 10097.1 1033.84 3
-1 2 7 5467.79 715.279 7
1 -2 -7 5089.49 732.529 12
-1 2 7 5016.95 315.825 8
-1 2 7 6228.5 800.441 3
-1 2 7 5610.71 741.796 10
-1 2 7 5258.3 509.844 1
1 -2 -7 6460.42 813.059 5
-1 2 7 5487.02 319.034 8
-1 2 7 5120.83 771.272 2
-1 2 6 51798.9 2473.33 7
-1 2 6 49271.9 1810.73 1
-1 2 6 50914.2 2624.88 2
-1 2 6 51861.4 2400.69 10
1 -2 -6 47330.4 2346.58 12
1 -2 -6 53204.6 2448.38 5
-1 2 6 50292.2 2551.07 3
1 -2 -5 37272.3 1861.97 12
-1 2 5 44044 2482.39 11
-1 2 5 40279 1940.53 10
-1 2 5 41985 2104.06 7
-1 2 5 39908.6 1807.24 12
-1 2 5 40270.1 2075.01 4
1 -2 -5 37729.9 1895.93 5
-1 2 5 39180.1 1843.54 5
-1 2 5 34245.3 2044.76 2
-1 2 5 38006.8 2120.96 3
-1 2 5 38966.4 1373.06 1
-1 2 4 27016 1598.34 7
-1 2 4 26834.9 1541.99 4
-1 2 4 29420.2 1984.39 9
1 -2 -4 25503.5 1355.67 12
-1 2 4 25441.5 1699.24 6
-1 2 4 26084.7 1304.02 12
-1 2 4 29503.8 1405.78 5
1 -2 -4 30397.9 1489.31 5
-1 2 4 27076 1703.8 3
1 -2 -4 27564 1750.63 6
-1 2 4 26901.4 1441.22 10
-1 2 3 114799 4002.13 7
1 -2 -3 115002 4126.1 6
1 -2 -3 115190 4216.7 7
-1 2 3 108259 4030.59 6
-1 2 3 112811 3672.46 10
-1 2 3 100431 4218.87 9
-1 2 3 122291 3520.7 12
1 -2 -3 108365 3679.8 10
1 -2 -3 108243 3518.47 12
-1 2 3 116035 4214.92 3
-1 2 3 115816 3870.32 4
1 -2 -3 118567 3666.14 5
1 -2 -3 113580 4606.22 3
-1 2 3 115889 3581.87 5
-1 2 2 27728.3 1463.5 7
1 -2 -2 26054.2 1715.79 3
-1 2 2 24645 1191.1 10
-1 2 2 27546.6 1568.17 3
1 -2 -2 24966.3 1570.46 7
1 -2 -2 23278.4 1192.4 10
1 -2 -2 25038.5 1141.11 5
-1 2 2 23154.5 1338.98 6
-1 2 2 25845.3 1097.49 5
1 -2 -2 26162.3 1444.58 6
1 -2 -2 23383.6 1032.07 12
-1 2 2 22743.2 1476.9 9
-1 2 2 24842.6 1025.34 12
1 -2 -1 282127 7829.8 5
-1 2 1 313385 8445.94 7
1 -2 -1 296171 8723.92 7
1 -2 -1 293073 8061.93 10
-1 2 1 289368 8224.68 6
-1 2 1 304701 7677.25 12
1 -2 -1 298988 8864.31 3
-1 2 1 305367 8530.2 9
1 -2 -1 297070 8302.91 6
-1 2 1 299008 8046.88 10
1 -2 -1 288868 7689.24 12
1 -2 -1 298291 7595.24 1
-1 2 1 305825 8654.5 3
1 -2 0 10966.2 412.237 12
-1 2 0 10714.9 690.991 6
1 -2 0 11245.9 864.764 7
-1 2 0 10898.4 798.327 7
1 -2 0 11142.1 924.834 3
1 -2 0 9951.28 651.062 10
1 -2 0 10638.4 715.33 6
-1 2 0 11424.7 678.462 10
-1 2 0 10585.7 852.758 3
1 -2 0 10259.1 563.332 1
-1 2 -1 5237.23 434.452 10
1 -2 1 4886.85 428.191 1
-1 2 -1 5882.37 546.653 7
-1 2 -1 4752.27 519.061 3
-1 2 -1 4975.56 437.501 1
1 -2 1 4496.59 418.772 10
1 -2 1 5169.89 438.793 6
1 -2 1 5499.24 586.992 3
1 -2 1 5394.12 548.577 7
-1 2 -2 31908.9 1433.16 7
1 -2 2 30994.1 1071.66 12
1 -2 2 30715.4 1395.19 1
-1 2 -2 31207.1 1415.71 1
-1 2 -2 31811.6 1409.64 3
-1 2 -2 30725.7 1016.09 9
1 -2 2 29723.5 1302.36 10
1 -2 2 30148.5 1440.41 7
1 -2 2 32455.4 1519.75 3
-1 2 -3 64.638 31.0787 1
1 -2 3 174.548 126.763 1
-1 2 -3 120.794 75.8623 2
1 -2 3 272.206 118.849 3
1 -2 3 224.126 114.436 7
1 -2 3 219.889 89.2866 12
-1 2 -3 113.651 82.8698 3
1 -2 4 185701 5446.06 7
-1 2 -4 184420 5103.82 2
-1 2 -4 175773 5641.55 1
1 -2 4 180748 5323.11 3
-1 2 -4 177281 5481.24 11
-1 2 -4 183190 5494.35 4
-1 2 -4 172318 5025.42 3
1 -2 4 192386 5732.35 1
1 -2 4 181079 5190.99 12
-1 2 -5 2299.09 408.029 11
-1 2 -5 2100.88 384.003 4
-1 2 -5 2493.25 323.573 2
1 -2 5 2526.43 358.337 12
-1 2 -5 2600.43 464.129 1
1 -2 5 2213.92 253.794 9
1 -2 5 2123.52 307.93 3
1 -2 5 2656.15 389.673 7
1 -2 5 3252.16 509.47 1
1 -2 6 30583.9 1582.28 12
1 -2 6 33516.7 1445.05 2
-1 2 -6 31754.8 1826.81 11
1 -2 6 33972 1665.52 5
1 -2 6 34989.7 1451.58 3
1 -2 6 34690.9 1687.15 7
-1 2 -6 32230.1 1822.7 4
1 -2 6 29450.5 1857.66 1
-1 2 -6 32542.3 1530.62 2
1 -2 6 35878.2 1505.06 9
-1 2 -6 28024.3 1816.39 1
1 -2 7 64116.1 2565.57 9
-1 2 -7 62253.8 2997.82 11
1 -2 7 61940.8 2350.37 2
-1 2 -7 62683.6 2545.04 2
1 -2 7 69339 2694.36 7
1 -2 7 64636.8 2233.94 3
-1 2 -7 61758 2939.89 4
1 -2 7 65488.2 3085.87 1
1 -2 8 3946.97 580.181 9
-1 2 -8 4166.11 714.904 4
-1 2 -8 4232.49 584.387 2
1 -2 8 3770.5 340.935 3
1 -2 8 3316.47 440.303 2
1 -2 8 3649.73 530.929 7
-1 2 -8 2792.27 600.447 11
1 -2 8 4190.96 741.92 1
-1 2 -9 16006.1 1288.38 2
1 -2 9 14824.5 1488.39 1
-1 2 -9 15098.9 1533.03 11
-1 2 -9 15280.6 1509.19 4
1 -2 9 16047.7 1070.06 2
-1 2 -10 1111.59 442.943 4
-1 2 -10 1276.66 484.174 11
1 -2 10 1858.97 571.634 1
1 -2 10 1716.78 356.358 2
1 -2 11 1733.34 579.365 1
-1 2 -11 2150.98 666.237 4
-1 2 -11 2321.81 665.767 11
-1 1 11 2791.32 664.945 10
-1 1 10 7954.76 949.421 2
-1 1 10 6339.27 936.773 10
-1 1 9 22637.2 1683.66 10
-1 1 9 23127.8 1625.76 2
-1 1 8 13756.6 897.268 8
1 -1 -8 13947.8 1332.2 12
-1 1 8 13609.3 1214.94 10
-1 1 8 14404.9 1230.92 3
-1 1 8 15872 1346.84 7
-1 1 8 16069.3 1149.82 1
-1 1 8 16178.2 1305.06 2
-1 1 7 3641.64 608.737 3
-1 1 7 4748.69 639.755 10
1 -1 -7 3191.45 569.407 12
-1 1 7 3798.75 634.278 7
-1 1 7 3721.2 594.307 2
1 -1 -7 4572.32 652.277 5
-1 1 7 3974 422.783 8
-1 1 7 5050.51 568.127 1
-1 1 6 78565.7 3248.2 4
-1 1 6 78087.1 2703.07 1
1 -1 -6 67498.9 3001.04 12
1 -1 -6 80152.6 3108.85 5
-1 1 6 77296.5 3519.46 11
-1 1 6 72512.8 2948.98 10
-1 1 6 79051.7 3321.49 3
-1 1 6 70506.2 2437.47 8
-1 1 6 80819.5 3334.85 7
-1 1 6 78274.3 3170.22 2
-1 1 5 28672.2 1128.49 8
-1 1 5 29430.4 1880.69 11
1 -1 -5 25980.9 1497.55 12
-1 1 5 28581.7 1730.17 7
-1 1 5 30224 1526.28 5
-1 1 5 27299 1977.88 9
-1 1 5 26135.3 1431.63 10
-1 1 5 25479 1755.03 6
-1 1 5 27522.6 1455.13 12
-1 1 5 29924.2 1671.7 2
1 -1 -5 27562.8 1514.96 5
-1 1 5 30310.2 1798.47 3
-1 1 5 29586.6 1254.61 1
-1 1 5 31186.8 1714.45 4
-1 1 4 164999 4966.53 5
-1 1 4 156701 5211.73 2
-1 1 4 161561 5777.6 9
-1 1 4 169938 5558.9 3
-1 1 4 165293 4443.81 8
1 -1 -4 165735 5516.72 6
-1 1 4 163478 5419.32 7
-1 1 4 167517 4979.78 10
-1 1 4 167949 4553.66 1
-1 1 4 161791 5498.25 6
-1 1 4 165393 4947.64 12
1 -1 -4 157491 4985.55 5
1 -1 -4 155034 4979.23 12
-1 1 4 172081 5300.37 4
-1 1 4 168724 5664.05 11
-1 1 3 8694.72 623.5 10
-1 1 3 7879.57 698.708 4
1 -1 -3 9141.48 813.481 6
1 -1 -3 8820.41 638.553 5
-1 1 3 7862.74 377.411 8
-1 1 3 8352.21 839.288 3
-1 1 3 9457.7 638.916 5
-1 1 3 8871.95 413.519 1
-1 1 3 8712.9 882.442 9
-1 1 3 8014.23 585.842 12
-1 1 3 8902.89 804.185 6
1 -1 -3 8153.33 610.4 12
-1 1 3 8878.74 819.276 7
1 -1 -2 40852 2132.77 3
1 -1 -2 42380 1540.54 12
1 -1 -2 45332.3 2017.29 7
-1 1 2 46557.1 2024.53 7
-1 1 2 45184.5 1541.61 12
1 -1 -2 42924.8 1589.28 10
-1 1 2 41821.4 1565.66 10
1 -1 -2 46861.7 1611.17 5
-1 1 2 42712.6 2004.87 9
-1 1 2 45591.5 2092.39 3
-1 1 2 46930.4 1572.46 5
-1 1 2 40835.5 1817.51 6
1 -1 -2 41407.8 1843.32 6
-1 1 1 924271 23984.8 3
1 -1 -1 933245 23117.9 12
1 -1 -1 994186 23636.5 6
-1 1 1 810317 23767.7 7
1 -1 -1 865501 23158.3 5
1 -1 -1 865364 24091.7 3
1 -1 -1 973085 23295.5 10
1 -1 -1 834187 23875.5 7
-1 1 1 888723 23137.5 5
-1 1 1 918325 23086.9 12
-1 1 1 944124 23808.8 9
1 -1 -1 925173 23047.2 8
-1 1 1 969893 23570.2 6
-1 1 0 149653 4501.68 3
1 -1 0 142833 3873.71 1
-1 1 0 148480 3868.69 1
1 -1 0 148464 4596.49 3
1 -1 0 145933 4139.23 6
-1 1 0 149213 4413.91 7
1 -1 0 152099 4542.51 7
-1 1 0 139997 4190.4 9
1 -1 0 138313 3975.77 10
1 -1 0 146321 4199.5 9
-1 1 0 147306 4101.94 6
-1 1 0 145284 3966.95 10
1 -1 0 138501 3770.32 5
-1 1 -1 23566.5 952.282 1
-1 1 -1 22001.9 840.651 9
1 -1 1 24083 1181.43 3
-1 1 -1 23111.9 1130.83 3
1 -1 1 22415.5 838.158 9
1 -1 1 20679.9 880.992 10
1 -1 1 20674.1 916.141 1
1 -1 1 22889.5 1117 7
-1 1 -1 23241.6 1087.74 7
1 -1 2 2693.68 327.375 1
-1 1 -2 3002.25 271.766 2
-1 1 -2 3371.77 252.72 12
1 -1 2 3654.59 372.502 7
-1 1 -2 3084.25 320.215 3
-1 1 -2 3033.53 324.1 7
-1 1 -2 3040.79 346.411 1
1 -1 2 3284.57 353.983 3
1 -1 2 3133.69 233.634 12
-1 1 -3 224.723 117.589 4
1 -1 3 231.409 84.6133 2
-1 1 -3 66.0023 57.6191 1
1 -1 3 231.265 90.8512 3
-1 1 -3 166.714 67.2415 2
1 -1 3 244.088 88.483 12
-1 1 -3 165.848 60.2847 3
1 -1 3 95.8599 74.4145 7
-1 1 -3 91.0435 62.3123 12
1 -1 3 66.9688 87.1115 1
1 -1 4 55231.4 1809.57 2
-1 1 -4 50747.5 1821.67 2
1 -1 4 55000.7 2191.17 1
1 -1 4 50054.8 1856.7 7
-1 1 -4 47438 1962 4
-1 1 -4 50865.2 1972.99 11
1 -1 4 50620 1700.94 3
-1 1 -4 49211 1903.02 12
1 -1 4 50116.1 1849.92 12
1 -1 4 49834.6 1857.82 5
1 -1 4 51839.5 1777.9 9
-1 1 -4 49691.7 2117.38 1
1 -1 5 1012.03 278.453 1
-1 1 -5 624.121 168.938 2
-1 1 -5 810.949 214.803 12
1 -1 5 547.822 150.662 7
1 -1 5 593.214 175.872 5
-1 1 -5 383.515 159.91 4
-1 1 -5 441.886 190.189 1
1 -1 5 603.067 148.864 2
1 -1 5 459.7 155.936 9
1 -1 5 479.418 110.141 3
-1 1 -5 735.821 221.324 11
1 -1 5 337.926 141.038 12
1 -1 6 1692.2 349.52 9
1 -1 6 1740.68 326.021 12
-1 1 -6 2022.42 407.25 4
1 -1 6 2701.08 342.275 2
-1 1 -6 2190.08 399.234 12
-1 1 -6 1330.51 341.786 11
-1 1 -6 1430.84 293.41 2
-1 1 -6 1306.86 343.31 1
1 -1 6 2184.87 364.198 5
1 -1 6 1835.73 398.109 1
1 -1 6 2114.31 319.872 7
1 -1 7 56877.2 2178.4 2
-1 1 -7 51817.8 2641.7 11
1 -1 7 59677.5 2244.73 7
1 -1 7 60179 2788.01 1
-1 1 -7 53666.8 2407.36 2
-1 1 -7 53060.7 2614.84 4
-1 1 -7 53996.2 2572.43 12
1 -1 7 58523 2643.59 9
1 -1 8 23908 1745.12 1
1 -1 8 24421.3 1312.35 2
1 -1 8 24690.1 1338.36 7
-1 1 -8 20957.8 1645.91 4
-1 1 -8 23481 1544.33 2
-1 1 -8 24267.7 1693.66 12
-1 1 -8 21233.4 1680.09 11
1 -1 8 26149.3 1778.94 9
-1 1 -9 4016.73 723.015 12
1 -1 9 4200.35 758.026 1
1 -1 9 4177.21 751.476 9
1 -1 9 3430.2 479.204 2
-1 1 -9 2592.01 607.219 11
-1 1 -9 3434.15 684.724 4
-1 1 -10 16677.1 1689.28 4
-1 1 -10 17534.3 1752.05 11
1 -1 10 21424.3 1857.11 1
1 -1 10 22624.6 1375.75 2
-1 1 -11 1666.4 562.537 4
1 -1 11 2861.19 688.237 1
1 -1 12 6376.96 1125.88 1
-1 0 11 9797.74 1196.81 10
1 0 -10 386.608 299.411 4
-1 0 10 153.742 201.375 10
1 0 -9 14244.9 1531.68 4
-1 0 9 18322.8 1300.31 2
-1 0 9 16644.6 1394.22 10
-1 0 9 16519.9 1335.06 1
-1 0 8 58570 2566.36 2
-1 0 8 59463.2 2457.48 8
-1 0 8 60877.5 2667.41 1
-1 0 8 58379.8 2982.42 7
-1 0 8 61806 2835.5 3
1 0 -7 747.505 323.89 4
-1 0 7 531.244 186.58 8
-1 0 7 924.703 304.789 3
-1 0 7 544.037 258.6 7
-1 0 7 675.147 232.378 2
-1 0 7 992.329 268.866 1
1 0 -7 213.081 161.32 12
1 0 -6 54549.5 2721.49 4
-1 0 6 57995.5 2416.15 2
-1 0 6 58291.2 2762.02 7
-1 0 6 63708.9 2771.26 4
-1 0 6 64357.8 2976 11
-1 0 6 59034.5 2250.96 8
1 0 -6 54436.8 2567.89 12
-1 0 6 59216.8 2835.45 3
-1 0 6 59175.8 3169.92 9
-1 0 6 59015.1 2337.39 1
-1 0 5 304.262 166.663 11
-1 0 5 269.667 151.811 2
1 0 -5 307.424 162.759 12
-1 0 5 126.754 127.455 4
-1 0 5 176.221 94.303 8
1 0 -5 82.1885 123.855 4
-1 0 5 119.615 75.6424 12
-1 0 5 216.728 115.406 1
-1 0 5 467.211 221.806 6
-1 0 5 210.875 152.56 3
-1 0 5 162.743 111.123 5
-1 0 5 91.6629 100.972 9
1 0 -4 830.943 244.407 4
-1 0 4 759.253 166.837 8
-1 0 4 797.801 250.784 11
-1 0 4 669.634 160.728 1
-1 0 4 1027.61 256.283 4
-1 0 4 1149.76 299.697 6
1 0 -4 1045.86 230.696 5
-1 0 4 998.253 285.63 3
-1 0 4 1061.73 238.162 2
1 0 -4 595.853 182.518 12
-1 0 4 628.194 182.433 12
-1 0 4 1034.12 227.905 5
-1 0 4 725.891 252.041 9
-1 0 3 15151.9 716.834 1
1 0 -3 15043.5 830.197 5
1 0 -3 14201.6 1079.12 9
-1 0 3 14509.4 832.522 12
-1 0 3 14151.6 1029.66 11
1 0 -3 14158.5 844.512 12
-1 0 3 14388.3 988.329 6
1 0 -3 14565.4 993.065 6
-1 0 3 14402 806.24 5
1 0 -3 13661 929.309 4
-1 0 3 14780.7 1110.93 9
-1 0 3 14880.2 717.309 8
-1 0 3 16314.9 992.836 4
-1 0 2 63658.8 2248.5 6
1 0 -2 60440.6 2037.91 12
-1 0 2 63714.5 1899.65 8
-1 0 2 64878.7 1926.86 10
-1 0 2 63950.7 1995.2 5
1 0 -2 59484.7 1981.16 5
-1 0 2 63954.5 2239.19 4
-1 0 2 63543 2465.13 9
1 0 -2 61617.8 2438.24 9
-1 0 2 61600.6 2038.62 12
-1 0 2 63241.3 2388.83 11
1 0 -2 58115.4 2225.63 6
-1 0 1 42306 1532.7 6
1 0 -1 41338.3 1534.76 6
1 0 -1 43096 1297.59 10
-1 0 1 45045.7 1346.49 5
-1 0 1 44252 1395.87 12
1 0 -1 42849 1357.02 8
-1 0 1 43870.8 1360.53 8
1 0 -1 48421.6 1784.86 9
-1 0 1 42493.7 1715.51 9
1 0 -1 42157.1 1339.23 5
-1 0 1 43609.5 1751.26 7
-1 0 1 42897.2 1284.22 10
-1 0 -1 263203 7029.79 7
1 0 1 263874 7064.18 7
1 0 1 253699 6908.17 1
1 0 2 315566 8434.65 2
-1 0 -2 331722 8374.16 5
1 0 2 315066 8362.21 12
-1 0 -2 321533 8456.35 2
1 0 2 323204 8363.68 5
-1 0 -2 321595 8686.95 1
1 0 2 338450 8729.06 1
-1 0 -2 334168 8425.18 12
-1 0 -2 323333 8454.74 7
-1 0 -2 335853 8456.62 3
1 0 2 328499 8548.6 7
-1 0 -3 19857.6 908.973 12
-1 0 -3 18732.6 892.473 2
1 0 3 20519.1 822.057 7
1 0 3 17832.6 837.437 12
1 0 3 19187.7 860.614 5
1 0 3 19438 1035.9 1
-1 0 -3 21379.9 896.327 5
-1 0 -3 19699.3 864.784 11
1 0 3 19338.8 861.62 2
-1 0 -3 20708.2 919.283 4
-1 0 -3 18593.6 1012.49 1
-1 0 -4 247581 6907.49 2
1 0 4 246589 6582.78 7
1 0 4 257346 7161.15 1
1 0 4 249099 6821.44 12
-1 0 -4 252142 6856.55 5
1 0 4 254709 6769.74 11
-1 0 -4 235824 6908.6 4
1 0 4 242757 6828.28 5
-1 0 -4 252554 6945.49 12
-1 0 -4 235741 7080.87 1
1 0 4 259956 6790.82 2
-1 0 -4 240864 6903.77 11
1 0 5 89575.7 2983.52 4
-1 0 -5 84336 3083.33 11
-1 0 -5 80224.2 3038.97 4
-1 0 -5 84573.8 3037.42 2
-1 0 -5 86110 3200.57 1
1 0 5 85625 2949.56 12
-1 0 -5 87408.7 3094.25 12
1 0 5 92145.5 2672.17 7
1 0 5 91565.7 2890.95 2
1 0 5 91409.7 3264.03 9
1 0 5 89885.7 2931.54 11
1 0 5 84598.1 2969.36 5
1 0 5 90782.5 3273.93 1
-1 0 -6 16165.9 1189.61 11
1 0 6 18767.4 874.502 7
1 0 6 18231.3 1124.02 5
-1 0 -6 15788.9 1145.4 4
1 0 6 17623.4 1101.87 12
1 0 6 17536 1250.26 1
1 0 6 19689.7 1165.52 4
1 0 6 19431.5 1124.48 11
1 0 6 18691.1 1331.44 9
1 0 6 17042.5 1002.72 2
-1 0 -6 16175.7 1133.73 2
-1 0 -6 16508.3 1203.18 1
-1 0 -6 17028.1 1177.56 12
1 0 7 21491.4 1207.86 2
1 0 7 20413.2 1314.98 4
1 0 7 21997.6 1518.3 1
1 0 7 21371.5 1006.9 7
1 0 7 22929.6 1347.05 11
-1 0 -7 20926.6 1418.38 2
-1 0 -7 20118.5 1417.81 12
1 0 7 18720.5 1493.88 9
-1 0 -7 18771.3 1385.81 4
-1 0 -7 20025.6 1429.9 1
-1 0 -7 20144.2 1474.45 11
1 0 8 48640.2 2759.16 9
1 0 8 48813.4 2108.64 2
1 0 8 48366.7 2276.35 11
-1 0 -8 47748.9 2539.58 4
-1 0 -8 46214.7 2492.8 12
-1 0 -8 42096.4 2355.42 2
-1 0 -8 39193.6 2430.55 11
1 0 8 49886.2 1820.61 7
1 0 8 49903.1 2590.44 1
1 0 9 101441 4289.92 1
-1 0 -9 89890.1 4150.92 4
1 0 9 100029 3603.01 2
-1 0 -9 97161.5 4233.22 12
-1 0 -10 35363.4 2494.4 4
-1 0 -10 41352.7 2636.41 12
1 0 10 39072.3 2559.54 1
1 0 10 37944.7 1993.69 2
1 0 11 14212 1571.56 1
-1 0 -11 14020.7 1602.24 4
1 1 -10 2125.47 638.547 4
-1 -1 10 2688.17 582.222 1
-1 -1 9 3297.89 556.109 8
-1 -1 9 3679.73 498.129 2
1 1 -9 2530.58 633.594 4
-1 -1 9 4285.8 691.956 1
-1 -1 8 400.178 167.115 2
-1 -1 8 134.497 187.225 3
-1 -1 8 216.839 156.952 8
1 1 -8 362.467 244.745 4
-1 -1 8 126.828 100.596 1
-1 -1 7 98417 3675.21 8
1 1 -7 97532.7 4471.14 11
-1 -1 7 109087 3425.93 2
-1 -1 7 103873 3829.5 1
1 1 -7 89126.8 4059.41 4
-1 -1 6 27941.2 1532.58 1
-1 -1 6 28446.8 1788.17 11
1 1 -6 24857.9 1696.56 4
-1 -1 6 25776.2 1723.47 6
-1 -1 6 30540.4 2049.95 9
1 1 -6 25764.2 1887.93 11
-1 -1 6 27859.3 1296.86 2
1 1 -5 2892.72 501.972 4
-1 -1 5 2967.35 447.707 12
-1 -1 5 2570.7 321.391 2
-1 -1 5 3558.65 614.109 9
-1 -1 5 3283.82 438.565 1
-1 -1 5 3678.51 560.083 6
-1 -1 5 3679.26 568.784 11
1 1 -5 2849.89 550.5 11
1 1 -5 3777.26 613.08 9
-1 -1 5 2460.02 438.152 4
-1 -1 5 3124.37 434.251 5
-1 -1 4 403.929 194.854 9
1 1 -4 790.023 268.455 11
-1 -1 4 1035.29 224.765 5
-1 -1 4 812.321 196.918 8
-1 -1 4 492.945 175.591 4
-1 -1 4 536.144 158.403 1
-1 -1 4 779.375 201.884 12
-1 -1 4 678.367 211.217 6
-1 -1 4 595.487 139.23 2
1 1 -4 700.836 223.769 4
-1 -1 4 733.8 231.89 11
1 1 -4 786.057 253.624 9
-1 -1 3 16067.7 919.26 12
-1 -1 3 16149.7 1107.52 9
-1 -1 3 17474.9 755.206 2
-1 -1 3 17122.4 1057.69 11
-1 -1 3 15395.8 847.508 5
1 1 -3 16054.5 1110.88 9
-1 -1 3 15266.3 958.122 4
1 1 -3 14782.9 969.119 4
-1 -1 3 17789.4 923.67 8
1 1 -3 17040.3 1123.56 11
-1 -1 3 15615.8 964.648 6
1 1 -2 48199.7 1816.73 4
-1 -1 2 46595.2 1758.82 4
-1 -1 2 46225.4 1655.01 8
1 1 -2 46467.1 1897.23 11
1 1 -2 47314.5 1707.26 6
-1 -1 2 44900.7 1687.48 6
1 1 -2 46806.5 1946.12 9
-1 -1 2 47274.5 1918.53 9
-1 -1 2 46198.8 1827.73 11
1 1 -1 85782.7 2582.89 4
-1 -1 1 80196.3 2405.77 6
1 1 -1 83606 2518.09 8
-1 -1 1 82979.4 2615.71 11
-1 -1 1 85027.3 2531.67 8
-1 -1 1 87793.4 2709.18 9
1 1 -1 84169.4 2653.4 11
1 1 -1 82026.5 2429.65 6
1 1 -1 84121.5 2714.91 9
-1 -1 1 87614.3 2575.05 4
1 1 1 138369 3760.07 2
-1 -1 -1 134415 3864.46 8
-1 -1 -1 139112 3781.94 2
1 1 1 140546 3942.2 1
1 1 1 143000 3891.96 8
1 1 2 385033 10022.1 12
-1 -1 -2 368674 9864.81 4
1 1 2 410233 10222.6 8
1 1 2 396232 10007 5
-1 -1 -2 388459 10048.2 12
1 1 2 405174 10327.7 1
-1 -1 -2 403020 10032.4 5
-1 -1 -2 374016 10146.2 2
1 1 2 392257 10123.3 2
-1 -1 -2 391124 10296.5 1
-1 -1 -3 1168.07 226.977 1
1 1 3 1209.13 230.612 1
1 1 3 764.61 163.765 2
1 1 3 1197.15 169.93 4
-1 -1 -3 1172.65 177.885 4
-1 -1 -3 1007.05 110.188 3
1 1 3 979.659 150.05 11
-1 -1 -3 1075.11 213.145 2
-1 -1 -3 743.225 158.964 12
1 1 3 1210.85 191.266 12
-1 -1 -3 722.725 146.621 5
1 1 3 878.167 162.065 5
1 1 4 43203.9 1681.31 2
1 1 4 42287.2 1534.1 4
1 1 4 40638.5 1543.17 11
-1 -1 -4 39389.4 1734.84 1
-1 -1 -4 38401.4 1747.88 2
-1 -1 -4 41163.5 1644.95 5
1 1 4 39859 1600.96 5
1 1 4 36114.4 1538.3 12
-1 -1 -4 42202.9 1695.89 12
1 1 4 42046.1 1811.29 1
-1 -1 -4 39458.7 1590.27 4
1 1 5 103758 3557.7 1
-1 -1 -5 97362.8 3306.42 4
-1 -1 -5 91319.7 3461.18 2
1 1 5 101267 3237.93 11
-1 -1 -5 103544 3444.85 12
-1 -1 -5 98864.7 3327.84 5
-1 -1 -5 93676 3414.75 1
1 1 5 100931 3195.17 4
1 1 5 93163.9 3209.46 12
1 1 5 94116.3 3247.7 5
1 1 5 98968.8 3311.71 2
1 1 6 486.961 185.671 2
-1 -1 -6 372.776 170.476 12
1 1 6 547.443 167.738 11
-1 -1 -6 588.68 213.224 4
1 1 6 933.239 232.332 4
1 1 6 591.648 94.4037 7
-1 -1 -6 824.228 271.375 2
-1 -1 -6 874.575 243.135 5
1 1 6 540.781 119.056 7
1 1 6 454.043 187.38 1
1 1 6 435.471 171.639 12
1 1 6 536.271 182.48 5
-1 -1 -6 628.026 223.399 1
1 1 7 27616.3 970.989 7
1 1 7 29565.3 2040.94 9
1 1 7 30203.8 1802.48 1
-1 -1 -7 30053 1731.91 1
1 1 7 27073.5 1103.03 7
1 1 7 31145.9 1619.44 2
-1 -1 -7 27408.3 1770.2 2
-1 -1 -7 31727.6 1820.3 12
1 1 7 30953.1 1633.71 11
-1 -1 -7 27584.8 1634.29 5
1 1 7 30617.6 1613.01 4
-1 -1 -7 28308.4 1711.11 4
-1 -1 -8 1191.57 342.372 5
1 1 8 2233.7 449.159 11
-1 -1 -8 1756.87 443.644 4
1 1 8 1378.49 183.568 7
1 1 8 1091.75 299.498 2
1 1 8 1257.43 143.322 7
1 1 8 1169.34 360.125 1
-1 -1 -8 1458.93 396.276 12
-1 -1 -9 9.94569 122.749 12
-1 -1 -9 415.849 263.898 4
1 1 9 129.153 168.113 1
-1 -1 -10 17452.8 1644.69 4
-1 -1 -10 17226.4 1656.17 12
1 1 10 18353.1 1663.06 1
1 1 10 18802.7 1397.45 2
-1 -1 -11 3800.08 806.185 4
1 1 11 4197.19 667.722 2
1 1 11 5231.97 901.552 1
-1 -1 -12 1693.44 589.273 4
1 2 -10 3956.27 849.078 4
-1 -2 10 3027.27 608.436 8
-1 -2 10 5093.91 840.905 1
1 2 -9 10457.8 1310.46 4
-1 -2 9 14454.7 1349.4 1
1 2 -9 10930.3 1478.41 11
-1 -2 9 11165 1140.97 8
-1 -2 8 135214 3922.22 2
-1 -2 8 120514 4666.87 8
1 2 -8 116154 5441.56 11
-1 -2 8 133501 4890.67 1
1 2 -8 117604 5088 4
-1 -2 7 9042.8 938.283 1
-1 -2 7 9252.42 603.771 2
1 2 -7 7918.89 1083.3 11
-1 -2 7 9469.6 1136 9
1 2 -7 9455.09 1066.31 4
-1 -2 6 73365.9 3019.36 1
1 2 -6 66074.2 3342.66 11
1 2 -6 67808.2 3150.98 4
-1 -2 6 78327.4 2318.33 2
-1 -2 6 69877.9 3088.05 6
1 2 -6 73769.8 3337.74 9
-1 -2 6 72125.8 3329.56 9
1 2 -5 33718.6 1893.81 4
-1 -2 5 34563.6 1770.95 12
1 2 -5 32697 1999.6 11
-1 -2 5 38041.6 1949.35 11
-1 -2 5 36438.7 1234.08 2
-1 -2 5 34389 1811.55 6
-1 -2 5 38510 1914.85 4
1 2 -5 36211.7 2025.28 9
-1 -2 5 37110.2 1834.27 1
-1 -2 5 34494.5 1977.65 9
-1 -2 5 36779.9 1721.67 5
1 2 -4 10109.4 868.911 4
1 2 -4 9869.85 935.46 11
-1 -2 4 10950.4 463.602 2
-1 -2 4 11711.3 922.346 11
-1 -2 4 11218.2 872.502 4
-1 -2 4 11383.7 869.671 1
-1 -2 4 11672.8 856.249 12
1 2 -4 10784.2 949.905 9
-1 -2 4 10605.1 918.981 9
-1 -2 4 10719.4 819.829 6
1 2 -3 76901 2930.35 9
1 2 -3 74976.2 2771.68 4
-1 -2 3 82413 2827.02 8
-1 -2 3 81323.4 2894.93 9
-1 -2 3 81110.6 2850.76 11
-1 -2 3 78080.5 2623.2 6
-1 -2 3 78991.6 2772.29 4
1 2 -3 72903.1 2894.81 11
1 2 -2 609.622 170.881 9
-1 -2 2 540.325 154.767 11
1 2 -2 226.377 120.727 11
-1 -2 2 267.109 129.862 8
1 2 -2 565.692 154.528 4
-1 -2 2 815.32 190.49 9
-1 -2 2 756.979 136.091 6
-1 -2 2 686.848 163.778 4
1 2 -1 649661 16788.1 8
-1 -2 1 646547 16428.1 10
1 2 -1 657185 16637.4 4
1 2 -1 647355 16408.5 10
-1 -2 1 634961 16697.1 11
1 2 -1 657266 16757.4 11
-1 -2 1 647932 16606.1 4
-1 -2 1 681769 16820.3 8
1 2 0 171276 4436.4 4
-1 -2 0 170443 4411.11 4
1 2 0 159885 4477.54 10
-1 -2 0 168269 4541.89 2
1 2 0 171124 4714.98 8
-1 -2 0 164844 4483.07 10
-1 -2 0 161873 4682.22 8
1 2 0 176843 4568.9 11
1 2 0 160492 4479.59 2
1 2 1 106698 3233.28 10
-1 -2 -1 117657 3215.28 3
1 2 1 109120 3280.8 2
-1 -2 -1 108943 3333.98 2
-1 -2 -1 114625 3248.63 10
1 2 1 112714 3271.5 8
-1 -2 -1 112125 3277.4 8
1 2 2 1878.69 233.988 8
-1 -2 -2 2076.27 226.703 3
-1 -2 -2 1928.9 238.104 8
-1 -2 -2 1603.13 213.796 12
-1 -2 -2 1502.2 259.547 2
1 2 2 1414.59 242.289 2
1 2 2 1874.77 225.514 5
1 2 2 1547.79 239.727 10
1 2 3 2626.12 345.625 1
1 2 3 1851.89 251.266 8
-1 -2 -3 3128.47 386.063 1
1 2 3 2587.9 297.118 12
-1 -2 -3 2330.48 294.561 12
-1 -2 -3 1985.75 221.678 4
-1 -2 -3 2061.15 341.041 2
-1 -2 -3 2222.89 291.026 5
1 2 3 2424.53 221.919 4
1 2 3 2502.76 297.197 5
1 2 3 2146.89 327.86 2
1 2 3 2062.21 217.208 3
-1 -2 -3 1767.61 237.725 3
1 2 4 123130 3823.32 8
-1 -2 -4 127092 3836.74 3
-1 -2 -4 129632 3979.52 5
-1 -2 -4 124208 4270 2
1 2 4 133486 4110.52 1
1 2 4 131169 4152.47 2
1 2 4 127537 3538.79 3
-1 -2 -4 125897 4049.84 1
1 2 4 131135 3897.91 12
-1 -2 -4 119774 3946.38 12
1 2 4 122741 3919.58 11
1 2 4 133231 3939.79 5
1 2 4 129089 3706.12 4
-1 -2 -4 117201 3753.19 4
-1 -2 -5 10548.8 829.816 5
-1 -2 -5 10190.3 769.959 4
1 2 5 10574.8 797.681 5
1 2 5 10724.3 877.475 2
1 2 5 11172.2 568.511 3
-1 -2 -5 10246.4 951.297 2
-1 -2 -5 11258.1 871.576 12
-1 -2 -5 11741.8 828.777 3
1 2 5 12045 760.333 4
1 2 5 11012.1 885.994 1
1 2 5 12316.9 806.476 8
1 2 5 11100.8 831.118 11
-1 -2 -5 9946.13 822.436 1
1 2 5 11467.1 802.506 12
1 2 6 813.222 247.28 2
1 2 6 1101.57 270.98 11
-1 -2 -6 1073.95 331.678 2
1 2 6 1104.3 250.86 8
-1 -2 -6 729.507 231.66 4
-1 -2 -6 892.206 265.583 12
1 2 6 993.275 285.832 1
1 2 6 1440.53 178.766 3
-1 -2 -6 1151.72 281.59 5
1 2 6 1104.13 252.051 4
-1 -2 -6 1138.32 280.571 1
1 2 7 44513.5 2190.71 2
1 2 7 45237.5 2013.38 4
-1 -2 -7 39832.2 2064.82 1
1 2 7 43827.1 2125.25 11
1 2 7 42075.5 2189.19 1
-1 -2 -7 41299.4 2212.05 12
-1 -2 -7 38056.4 2061.65 4
1 2 7 43059.7 1969.07 8
-1 -2 -7 44308.5 2182.97 5
1 2 8 768.601 277.26 1
1 2 8 1395.03 322.531 8
-1 -2 -8 621.969 234.31 4
-1 -2 -8 1453.26 380.006 1
-1 -2 -8 963.028 345.509 12
1 2 8 850.58 277.371 2
1 2 8 947.895 312.47 11
-1 -2 -8 1203.94 353.943 5
-1 -2 -9 285.972 226.739 4
1 2 9 764.263 295.324 2
1 2 9 243.37 189.376 1
-1 -2 -9 575.444 295.939 12
-1 -2 -9 510.087 257.341 5
1 2 10 8228.36 1058.25 1
-1 -2 -10 8235.49 1058.71 5
1 2 10 9766.95 1055.75 2
-1 -2 -10 8246.1 1143.57 12
1 2 10 7547.67 1075.24 10
-1 -2 -10 8432.67 1102.37 4
1 2 11 1323.03 392.371 2
-1 -2 -11 599.49 314.332 4
-1 -3 11 5105.68 935.726 1
1 3 -10 3177.72 810.701 4
1 3 -10 3092.45 834.267 11
-1 -3 10 4061.01 797.3 1
-1 -3 10 2514.12 586.649 8
1 3 -9 10949.9 1355.44 4
-1 -3 9 12594.9 1331.99 1
-1 -3 9 12332.6 1278.28 8
1 3 -9 9412.11 1394.39 11
1 3 -8 3252.81 692.262 4
-1 -3 8 1833.53 466.931 8
1 3 -8 2568.1 680.488 11
-1 -3 8 3301.54 645.444 1
-1 -3 8 2964.31 311.916 2
-1 -3 7 3136.45 585.214 9
1 3 -7 3503.68 648.136 4
-1 -3 7 3757.18 626.976 1
1 3 -7 3756.06 746.442 11
1 3 -7 2916.29 585.89 9
-1 -3 7 3145.82 560.811 6
-1 -3 7 3212.71 292.894 2
-1 -3 6 88184.5 3508.86 1
-1 -3 6 86781.6 3499.43 9
1 3 -6 82478.9 3551.43 9
1 3 -6 79758.9 3766.42 11
-1 -3 6 83127.9 3314.16 6
1 3 -6 78486.3 3481.07 4
1 3 -5 52645.1 2515.86 4
1 3 -5 54377.6 2743.81 11
-1 -3 5 57447.9 2460.31 12
-1 -3 5 56853.8 2518.87 9
-1 -3 5 54667.6 2327.85 6
-1 -3 5 58243.5 2502.64 4
-1 -3 5 62405.8 2642.33 11
-1 -3 5 57255.6 2564.81 1
1 3 -5 53025.9 2567.89 9
-1 -3 4 93357.2 3263.06 4
-1 -3 4 87769.5 3015.46 6
-1 -3 4 92057.1 3353.73 11
1 3 -4 85001.9 3265.43 4
1 3 -4 87583.8 3484.93 11
1 3 -4 87853.8 3387.64 9
-1 -3 4 92650.9 3290.23 9
1 3 -3 10337.6 794.687 4
-1 -3 3 10500.2 867.482 8
-1 -3 3 11130 846.019 11
-1 -3 3 11024.6 644.883 6
1 3 -3 11632.4 918.864 11
1 3 -3 10472.9 835.618 9
-1 -3 3 10520.3 776.07 4
-1 -3 3 10208.6 645.864 10
-1 -3 2 4404.81 511.834 8
-1 -3 2 4900.79 451.915 4
-1 -3 2 4902.99 407.478 10
1 3 -2 5482.19 539.36 9
-1 -3 2 4928.1 304.118 6
1 3 -2 5773.37 508.729 4
1 3 -2 5397.12 542.366 11
-1 -3 1 182787 5009.83 4
1 3 -1 186028 5058.31 4
1 3 -1 193267 5279.44 11
1 3 -1 173321 4940.69 2
-1 -3 1 179395 5033.92 10
1 3 -1 179746 5028.9 10
-1 -3 1 181016 5357.95 8
1 3 0 30843.4 1332.34 8
1 3 0 30882.3 1045.59 4
1 3 0 28883.8 1239.55 2
-1 -3 0 30158 1271.74 3
1 3 0 29482.5 976.294 6
-1 -3 0 30256.6 1217.9 10
1 3 0 27952 1192.87 10
-1 -3 0 27701.4 1288.82 8
1 3 1 29259.1 1383.07 2
1 3 1 32169.8 1306.04 8
-1 -3 -1 30277.8 1305.38 3
1 3 1 32196.5 1258.46 6
-1 -3 -1 30263.9 1284.6 8
1 3 1 29453 1304.29 10
-1 -3 -1 31914 1335.26 10
1 3 2 60011.8 1684.2 4
1 3 2 60182.2 2016.7 8
1 3 2 59541.2 2321.54 2
-1 -3 -2 58368.8 2006.91 12
1 3 2 61750.2 2049.7 3
-1 -3 -2 58439.4 2025.76 8
1 3 2 57725.1 2178.17 10
-1 -3 -2 58016.7 1912.26 7
-1 -3 -2 58928.8 2178.23 10
-1 -3 -2 53291.3 2077.1 3
-1 -3 -2 59633.1 2017.21 5
1 3 2 57431.2 2198.77 6
-1 -3 -3 23925.2 1132.55 5
1 3 3 22854.2 863.973 4
-1 -3 -3 21405.4 932.159 7
1 3 3 21851.2 999.05 8
1 3 3 23468.5 1324.13 2
1 3 3 24192.4 1347.44 6
1 3 3 21382.6 1071.87 5
-1 -3 -3 21746.1 1009.5 8
-1 -3 -3 23518.5 1193.03 1
-1 -3 -3 20145.1 1052.77 12
-1 -3 -3 19237.4 1104.18 3
1 3 3 21067.4 1200.48 10
1 3 3 21203.1 1020.89 3
1 3 4 33048.2 1279.85 4
1 3 4 32980 1477.47 12
-1 -3 -4 31330.2 1258.8 7
1 3 4 31042.8 1306.28 8
-1 -3 -4 30621 1493.77 12
-1 -3 -4 33453.1 1617.6 3
1 3 4 31017.9 1765.06 6
1 3 4 31403.4 1622.57 10
-1 -3 -4 30222.6 1537.52 1
1 3 4 33650.2 1371.62 3
1 3 4 32098.2 1477.57 5
1 3 4 31914.5 1722.3 2
-1 -3 -4 34653.5 1570.3 5
-1 -3 -5 111577 3911.95 1
1 3 5 122345 3665.82 4
1 3 5 118959 3927.64 5
1 3 5 109906 3917.7 1
1 3 5 119614 3590.73 3
1 3 5 115866 4071.63 11
-1 -3 -5 115232 3980.04 12
1 3 5 110582 4372.25 6
1 3 5 124306 3903.13 12
-1 -3 -5 117472 3974.42 5
-1 -3 -5 118312 4138.43 3
1 3 5 117214 4136.8 10
1 3 5 116838 4236.01 2
1 3 5 117603 3601.76 8
-1 -3 -6 3218.16 478.029 1
1 3 6 2861.67 467.499 1
1 3 6 2512.11 342.28 8
-1 -3 -6 2305.42 435.437 12
1 3 6 2632.3 378.365 4
1 3 6 2778.03 332.831 3
-1 -3 -6 3556.81 570.301 3
1 3 6 3751.11 584.583 2
1 3 6 2649.21 476.579 11
-1 -3 -6 3044.37 487.779 5
1 3 6 2504.82 477.28 10
1 3 7 75157.1 2803.37 4
-1 -3 -7 64704.4 2820.63 1
-1 -3 -7 70541.3 3128.18 12
1 3 7 68003.3 2962.01 1
1 3 7 70169.9 3157.24 2
-1 -3 -7 67639.8 3028.6 5
1 3 7 76166.8 2426.68 3
1 3 7 70361.9 2589.11 8
1 3 7 70072.8 3167.97 10
1 3 7 69794.2 3061.72 11
1 3 8 2647.89 550.15 10
1 3 8 2372.49 513.53 2
1 3 8 2067.97 399.868 4
1 3 8 2552.67 492.897 1
1 3 8 2817.74 542.107 11
-1 -3 -8 2477.38 523.875 5
-1 -3 -8 2864.03 571.046 12
-1 -3 -8 1553.49 370.02 1
1 3 9 25999 1844.72 2
1 3 9 27137.4 1993.42 10
-1 -3 -9 23991.9 1888.19 12
-1 -3 -9 24911 1843.74 5
1 3 9 23335.6 1674.3 1
1 3 10 7586.33 1080.95 10
-1 -3 -10 7709.9 1114.93 12
1 3 10 10052 1146.15 2
-1 -3 -10 10333.6 1219.78 5
1 3 11 1134.01 434.86 2
-1 -4 11 10096.3 1331.53 8
1 4 -10 365.735 228.189 11
-1 -4 10 303.852 209.886 8
-1 -4 10 580.345 263.974 1
-1 -4 9 901.291 385.677 1
1 4 -9 528.753 352.564 11
-1 -4 9 1214.98 393.003 8
1 4 -9 1149.16 431.298 4
-1 -4 8 124.647 217.15 9
1 4 -8 183.855 217.784 11
-1 -4 8 81.9915 203.175 8
1 4 -8 16.6522 189.951 4
1 4 -8 237.796 250.488 9
-1 -4 8 374.48 295.186 1
-1 -4 7 110.633 208.676 9
1 4 -7 55.7776 125.083 9
-1 -4 7 -56.9554 139.915 1
1 4 -7 326.446 242.92 4
1 4 -7 44.1829 109.68 11
-1 -4 7 -56.7228 104.981 6
-1 -4 7 187.331 128.157 3
1 4 -6 18199.5 1441.07 4
-1 -4 6 16911.8 1410.76 1
-1 -4 6 20268.4 1202.81 3
-1 -4 6 16401.7 1192.76 6
1 4 -6 19033.9 1634.07 11
1 4 -6 18661.7 1434.44 9
-1 -4 5 20315.4 1466.6 1
1 4 -5 16316.8 1284.44 4
1 4 -5 17486.2 656.793 2
1 4 -5 21777.9 1592.86 11
-1 -4 5 20881.5 1182.13 6
-1 -4 5 18350.5 1280.42 12
-1 -4 5 23378.9 1266.51 3
1 4 -5 21592.8 1453.69 9
-1 -4 4 304.783 113.84 6
1 4 -4 166.805 123.098 11
-1 -4 4 640.572 216.759 4
-1 -4 4 449.538 151.673 10
1 4 -4 189.92 108.941 4
-1 -4 4 581.232 191.588 3
1 4 -4 354.624 61.2869 2
1 4 -4 623.85 230.502 9
1 4 -3 177682 5511.69 4
-1 -4 3 191256 5489.56 3
1 4 -3 184763 5783.23 11
-1 -4 3 177939 5441.06 4
1 4 -3 176268 5584.82 9
-1 -4 3 183938 5863.08 8
-1 -4 3 176945 5300.65 10
1 4 -2 24407.2 1236.49 4
1 4 -2 26085.1 1407.2 11
-1 -4 2 25986.5 1322.35 3
-1 -4 2 25280.1 1466.86 8
-1 -4 2 25585.3 1223.26 10
1 4 -2 25418.3 1201.52 10
-1 -4 1 207923 6009.81 10
-1 -4 1 213776 6336.46 8
1 4 -1 213674 5887.05 4
-1 -4 1 207782 6169.15 3
1 4 -1 214521 6038.27 10
-1 -4 0 85794 2873.6 10
1 4 0 86839.4 2544.14 4
-1 -4 0 85012.4 2963.34 3
1 4 0 81753.9 2929.16 2
-1 -4 0 84703.5 2945.48 8
1 4 0 86392.6 2876.97 10
1 4 0 81958.8 2468.05 6
1 4 1 20849.9 1097.3 8
1 4 1 19089.2 1200 2
-1 -4 -1 20420.7 1174.08 3
1 4 1 19967.2 1011.84 6
1 4 1 22461.1 1144.11 3
1 4 1 20919.6 1129.98 10
-1 -4 -1 18693.8 1046.99 8
-1 -4 -1 19380.6 1105.9 10
1 4 2 42132.6 1856.9 6
-1 -4 -2 41711.1 1687.25 8
-1 -4 -2 42146.1 1696.53 7
1 4 2 44709.9 1798.31 3
1 4 2 40217.7 1654.76 8
-1 -4 -2 44668.7 1717.8 5
-1 -4 -2 45191.9 1919.12 10
1 4 2 40747.9 1846.56 10
-1 -4 -2 41813.1 1903.45 3
1 4 2 40909.4 1998.7 2
1 4 3 2312.6 246.988 4
-1 -4 -3 1968.51 286.22 8
-1 -4 -3 2183.3 393.184 3
1 4 3 2368.38 349.632 3
1 4 3 2134.74 290.813 8
-1 -4 -3 2275.96 328.223 7
1 4 3 1762.26 389.439 2
-1 -4 -3 1833.29 295.296 12
-1 -4 -3 2171.45 387.75 10
1 4 3 2164.42 379.303 10
1 4 3 2011.93 395.813 6
-1 -4 -3 2311.42 368.218 1
-1 -4 -3 2968.6 390.926 5
1 4 4 45326.5 1682.77 8
1 4 4 42267.9 2242.98 6
-1 -4 -4 45797.1 1891.67 7
1 4 4 44739 2304.39 2
-1 -4 -4 44822.9 2216.31 3
1 4 4 45848.8 1656.33 4
1 4 4 47971.9 1936.23 3
1 4 4 43145.1 2128.36 10
-1 -4 -4 43757 1965.85 1
-1 -4 -4 45672.7 1985.47 5
-1 -4 -4 44997.3 1718.07 8
-1 -4 -4 42621.5 1921.76 12
1 4 4 46410.6 1961.04 5
1 4 5 113862 4349.32 2
1 4 5 117015 3534.91 4
-1 -4 -5 107623 3842.33 1
-1 -4 -5 108374 3590.75 7
1 4 5 117591 3729.21 3
-1 -4 -5 109027 3911.08 12
1 4 5 104705 4105.11 10
-1 -4 -5 112831 3963.48 5
1 4 5 113341 3405.65 8
-1 -4 -5 108819 4277.77 3
1 4 6 23386.2 1121.6 8
1 4 6 24414.5 1728.21 2
1 4 6 26497.6 1349.99 3
-1 -4 -6 25714 1594.85 12
-1 -4 -6 24748.9 1796.69 3
1 4 6 27399.5 1353.74 4
1 4 6 24846.1 1679.8 10
-1 -4 -6 22764.7 1406.82 1
-1 -4 -6 26120.7 1592.03 5
1 4 7 65986.2 2312.13 8
1 4 7 65044 3132.04 11
1 4 7 69521 3281.45 2
-1 -4 -7 68515.1 2800.49 1
1 4 7 70504.3 2567.38 3
-1 -4 -7 63585.2 3352.92 3
-1 -4 -7 64766.9 2999.08 5
-1 -4 -7 66256.4 3074.52 12
1 4 7 69948.1 3244.1 10
1 4 7 67325.5 2654.43 4
-1 -4 -8 16962.8 1444.75 5
1 4 8 15840.5 1474.63 2
-1 -4 -8 17941.1 1516.13 12
1 4 8 18293.7 1067.68 3
1 4 8 16725.5 1522.71 10
1 4 9 163.757 161.64 10
-1 -4 -9 435.103 278.117 12
1 4 9 529.878 291.848 2
-1 -4 -9 545.101 289.697 5
1 4 10 11506.8 1319.24 2
1 4 10 12249.2 1446 10
-1 -5 10 2357.3 670.399 8
-1 -5 10 2678.02 718.626 1
-1 -5 9 209.537 218.847 8
1 5 -9 897.115 415.468 4
-1 -5 9 489.703 323.248 1
1 5 -9 814.872 445.341 11
-1 -5 8 54456.2 3157.79 8
1 5 -8 52477 3417.77 11
1 5 -8 57624.7 2951.01 9
1 5 -8 57312 3241.11 4
-1 -5 8 58263.7 3204.07 1
-1 -5 7 969.977 374.378 8
1 5 -7 1330.88 423.19 4
-1 -5 7 1431.52 346.185 3
1 5 -7 1047.03 430.049 11
-1 -5 7 2207.23 534.359 1
-1 -5 7 721.223 249.387 6
1 5 -7 1642.41 436.878 9
1 5 -6 15754 1360.1 4
-1 -5 6 14652.7 1055.92 6
-1 -5 6 15457 1411.72 1
1 5 -6 13921.9 1425.47 11
-1 -5 6 16187.9 1173.59 3
1 5 -6 13691 1227.77 9
1 5 -5 14790.5 1222.9 9
1 5 -5 17109.5 1323.68 4
1 5 -5 15982.1 637.898 2
1 5 -5 16306.1 1438.86 11
-1 -5 5 18153.3 1228.39 3
-1 -5 5 17293.2 1164.62 10
-1 -5 5 16021.8 973.622 6
-1 -5 5 16711.4 1404.68 1
1 5 -4 10455.9 940.784 4
1 5 -4 10050.6 507.592 2
-1 -5 4 10635.3 905.763 3
1 5 -4 10768 1065.13 11
-1 -5 4 10608.7 1074.19 8
-1 -5 4 9734.64 827.33 10
1 5 -4 10033.4 925.471 9
1 5 -3 32094.5 1662.34 4
1 5 -3 36743.5 1848.34 9
-1 -5 3 36188.2 1784.17 3
-1 -5 3 30686.9 1599.01 10
-1 -5 3 32642.3 1923.07 8
1 5 -3 35349.5 1918.64 11
1 5 -2 3866.95 466.497 4
-1 -5 2 4893.47 588.395 3
-1 -5 2 4883.17 541.941 10
-1 -5 2 4881.51 644.75 8
1 5 -2 4143.69 487.567 10
-1 -5 1 66914.1 2563.11 10
1 5 -1 68304.5 2372.3 4
-1 -5 1 70510 2762.14 3
1 5 -1 68128.5 2580.87 10
-1 -5 1 66549.4 2766.47 8
1 5 0 87175.4 3131.77 10
1 5 0 89261.6 2752.34 4
-1 -5 0 84789.7 3271.83 3
-1 -5 0 85828.5 3128.31 10
1 5 0 88168 2672.36 6
-1 -5 0 83582.6 3165.84 8
1 5 1 757.493 254.512 2
-1 -5 -1 311.816 146.656 7
1 5 1 437.888 171.584 3
-1 -5 -1 572.709 209.897 3
1 5 1 1123.73 288.145 10
-1 -5 -1 630.301 210.873 10
1 5 1 444.172 149.094 6
-1 -5 -1 612.445 191.679 8
1 5 2 26072.1 1399.95 3
1 5 2 23606 1562.33 2
1 5 2 22763.1 1347.29 6
1 5 2 23022.1 1410.22 10
-1 -5 -2 21838.5 1459.7 3
-1 -5 -2 22791.2 1235.37 8
-1 -5 -2 26172.6 1496.95 10
-1 -5 -2 23945.4 1330.08 7
-1 -5 -2 23311.8 1243.48 5
1 5 3 5492.56 670.417 10
1 5 3 4544.19 559.827 3
-1 -5 -3 4965.09 531.487 12
-1 -5 -3 5544.91 739.812 3
1 5 3 4742.02 690.554 2
-1 -5 -3 4297.83 535.266 7
-1 -5 -3 4817.81 635.258 10
1 5 3 4106.95 596.26 6
-1 -5 -3 4853.8 547.782 5
1 5 3 4869.59 484.478 8
-1 -5 -3 4771.61 486.079 8
1 5 4 24062.1 1414.7 3
-1 -5 -4 22543.9 1655.36 3
-1 -5 -4 25295.9 1438.58 5
1 5 4 24081.2 1717.33 2
1 5 4 25664.2 1142.3 4
1 5 4 23349.5 1639.4 6
-1 -5 -4 23151.2 1358.77 12
-1 -5 -4 24997.8 1460.26 7
-1 -5 -4 23255.6 1145.36 8
1 5 4 24476.4 1150.65 8
-1 -5 -4 23539.3 1392.12 1
1 5 4 22731.6 1529.98 10
1 5 5 17.8645 107.36 2
1 5 5 124.289 112.476 4
-1 -5 -5 -76.0409 126.884 5
-1 -5 -5 261.335 185.352 7
-1 -5 -5 130.832 101.313 12
-1 -5 -5 20.77 98.1367 3
-1 -5 -5 115.598 140.587 1
1 5 5 142.159 110.802 10
1 5 5 93.8742 52.1357 8
1 5 5 100.301 131.349 3
1 5 6 885.053 171.762 8
-1 -5 -6 850.118 257.313 1
1 5 6 1790.52 315.119 4
1 5 6 1116.02 286.15 3
-1 -5 -6 1143.76 271.147 7
1 5 6 817.711 345.013 10
1 5 6 1058.66 375.104 2
-1 -5 -6 1085.41 411.984 3
-1 -5 -6 797.384 279.354 5
-1 -5 -6 1058.22 330.375 12
-1 -5 -7 2308.72 501.458 12
-1 -5 -7 2296.29 630.214 3
1 5 7 2841.17 627.136 2
1 5 7 2393.43 418.001 3
1 5 7 3129.55 620.458 10
-1 -5 -7 2135.71 474.709 5
-1 -5 -8 1528.58 428.899 5
1 5 8 1634.13 495.973 10
-1 -5 -8 785.77 327.835 12
1 5 8 1827.92 511.785 2
1 5 9 3597.31 737.189 2
-1 -5 -9 2752.75 639.035 12
1 5 9 4055.76 792.894 10
-1 -5 -9 3020.27 649.355 5
-1 -6 9 6811.39 1102.49 1
-1 -6 9 8155.67 1218.92 8
1 6 -9 7234.78 1294.71 11
-1 -6 8 43723.1 2816.55 1
1 6 -8 41708.7 2743.76 4
-1 -6 8 39831.8 2754.1 8
1 6 -8 37651.9 2921.23 11
-1 -6 7 46116.7 2870.2 8
1 6 -7 44683.3 2706.19 4
-1 -6 7 46020.2 2801.22 1
1 6 -7 41720.3 2895.83 11
1 6 -7 43384.7 2419.09 9
-1 -6 6 25835.2 1999.91 8
1 6 -6 24135.5 1997.99 11
-1 -6 6 25128.2 1344.83 6
1 6 -6 23652.7 1786.33 4
1 6 -6 26453.8 1762.81 9
-1 -6 6 25515.2 1956.35 1
1 6 -5 5278.39 366.876 2
-1 -6 5 3808.32 706.945 8
1 6 -5 4212.55 660.368 4
-1 -6 5 4162.44 428.77 6
1 6 -5 4856.02 683.166 9
-1 -6 5 3787.53 695.214 1
1 6 -5 5283.32 823.494 11
1 6 -4 763.571 265.27 9
1 6 -4 342.083 173.892 4
-1 -6 4 524.319 269.98 8
1 6 -4 842.652 296.337 11
-1 -6 4 885.566 281.133 10
1 6 -3 4833.1 713.456 11
-1 -6 3 4326.26 694.187 8
-1 -6 3 3652.39 237.621 6
1 6 -3 4246.56 569.337 4
-1 -6 3 3992.96 553.937 10
-1 -6 2 1467.45 146.249 6
1 6 -2 1542.63 316.984 4
1 6 -2 1046.34 278.103 10
-1 -6 2 1784.05 362.346 10
-1 -6 2 1348.32 365.284 8
-1 -6 1 963.131 284.07 8
1 6 -1 1315.24 260.03 4
-1 -6 1 1178.26 310.558 7
1 6 -1 571.581 201.975 10
-1 -6 1 987.593 271.059 10
-1 -6 0 56916.1 2532.64 7
-1 -6 0 52043.4 2445.14 8
1 6 0 59300.5 2094.03 4
-1 -6 0 54100.2 2452.47 10
-1 -6 0 51913.2 2615.58 3
1 6 0 58099.7 1997.34 6
1 6 0 55161.4 2456.49 10
-1 -6 -1 10237.3 885.095 8
-1 -6 -1 11405 976.405 7
1 6 1 11630.7 983.195 3
1 6 1 11124.5 1073.75 2
-1 -6 -1 8865.72 977.571 3
-1 -6 -1 10230.4 943.657 10
1 6 1 10144.4 930.195 10
1 6 1 10100.7 785.39 6
1 6 2 65341.2 2780.2 6
1 6 2 75427.9 2990.44 3
-1 -6 -2 70402.5 2723.11 8
1 6 2 67528.8 3223.61 2
-1 -6 -2 72397 2968.74 7
1 6 2 68099.6 2959.9 10
-1 -6 -2 73877.3 2783.06 5
-1 -6 -3 4711.04 531.822 8
-1 -6 -3 6693.08 768.364 7
1 6 3 6321.08 739.37 3
1 6 3 4751.86 774.764 2
1 6 3 5402.41 729.536 6
-1 -6 -3 4792.06 563.155 12
1 6 3 4780.52 683.708 10
-1 -6 -3 6558.43 686.267 5
1 6 4 4914.71 806.569 2
-1 -6 -4 5664.98 737.28 7
1 6 4 4467.35 456.549 4
-1 -6 -4 4703.61 608.803 1
1 6 4 4876.58 644.73 3
-1 -6 -4 4765.73 499.721 8
1 6 4 3870.22 652.269 10
-1 -6 -4 5938.22 661.84 12
-1 -6 -4 4497.01 609.19 5
1 6 5 91197.7 4126.77 2
1 6 5 94064.7 3577.59 3
1 6 5 91420.1 3015.09 4
-1 -6 -5 84829.3 3432.86 12
-1 -6 -5 83291.4 3374.38 1
1 6 5 84077.7 3761.7 10
-1 -6 -5 90809.1 3764.57 7
-1 -6 -5 83491.1 3488.48 5
1 6 6 7850.96 1088.98 2
1 6 6 9044 912.118 3
1 6 6 7542.61 983.866 10
-1 -6 -6 8602.24 952.244 5
-1 -6 -6 8224.31 839.353 1
-1 -6 -6 9366.75 985.106 12
1 6 7 3019.97 531.243 3
-1 -6 -7 2248.08 510.495 12
1 6 7 3176.65 663.878 10
-1 -6 -7 2256.08 516.29 5
1 6 7 2479.2 614.201 2
-1 -6 -8 738.209 334.06 5
1 6 8 1249.96 431.707 10
1 6 8 1303.99 474.703 2
-1 -6 -8 912.353 337.356 12
-1 -7 8 26091 2217.92 1
1 7 -8 21367.6 1977.98 4
-1 -7 8 24734.9 2207.47 8
1 7 -8 22348.9 2275.77 11
-1 -7 7 678.926 369.798 8
-1 -7 7 170.664 176.992 1
1 7 -7 -0.77519 156.821 4
1 7 -7 200.772 204.944 11
-1 -7 6 7456.33 1077.97 1
-1 -7 6 5959.78 993.971 8
1 7 -6 6877.43 955.729 4
1 7 -6 6256.81 1043.58 11
1 7 -6 7530.78 919.849 9
1 7 -5 20121.3 1578.38 4
-1 -7 5 22396.9 1862.16 8
1 7 -5 19819.2 1761.56 11
-1 -7 5 19953.8 1742.1 1
1 7 -5 19459.8 1497.27 9
-1 -7 4 13876 1401.48 8
-1 -7 4 13705.9 562.374 6
1 7 -4 17114.3 1519.99 11
1 7 -4 14005.6 1208.74 4
1 7 -4 14872.4 1264.74 9
1 7 -3 66087.9 3186.66 11
1 7 -3 62582.6 2776.6 4
-1 -7 3 63891.4 3216.44 8
1 7 -2 4352.64 621.47 10
1 7 -2 6051.32 657.493 4
-1 -7 2 4455.75 727.904 8
-1 -7 1 43054.4 2388.19 8
1 7 -1 48891.4 2056.33 4
1 7 -1 47825.5 2335.63 10
-1 -7 0 65285.7 2968.39 8
1 7 0 63418.6 3079.55 2
1 7 0 70470.2 2401.87 6
1 7 0 62535.2 2899.82 10
1 7 0 70174.7 2514.47 4
-1 -7 -1 213.889 186.943 8
1 7 1 225.788 142.587 6
1 7 1 341.925 179.13 10
1 7 1 466.59 243.692 2
1 7 1 538.913 243.526 3
-1 -7 -2 20053.1 1508.82 7
-1 -7 -2 18404.3 1255.97 8
1 7 2 16103.8 1360.33 10
1 7 2 18977.3 1629.53 2
1 7 2 16701.5 1247.59 6
1 7 2 19752.6 1443.84 3
-1 -7 -2 19214.6 1196.87 12
-1 -7 -2 18828.5 1286.39 5
1 7 3 17942.2 1417.59 6
-1 -7 -3 18425.7 1509.2 7
1 7 3 20571.9 1556.32 10
1 7 3 21854.9 1539.86 3
1 7 3 20062.2 1734.8 2
-1 -7 -3 18863.4 1226.51 8
-1 -7 -3 18708.3 1324.94 5
-1 -7 -3 18771 1241.89 12
-1 -7 -4 56795.2 2972.6 7
-1 -7 -4 55512 2243.14 8
-1 -7 -4 53591.5 2553.93 1
1 7 4 53516.8 3120.77 2
1 7 4 48619.9 2743.15 10
1 7 4 58083.9 2772.9 3
-1 -7 -4 55715.4 2506.65 12
-1 -7 -4 54045.6 2605.69 5
1 7 5 2544.4 522.905 3
1 7 5 2873.88 611.837 10
1 7 5 2488.07 642.25 2
-1 -7 -5 2744.36 504.538 12
-1 -7 -5 2033.34 464.049 5
-1 -7 -6 6602.12 857.998 12
1 7 6 9030.74 1000.12 3
1 7 6 5289.7 962.359 2
-1 -7 -6 7252.82 935.39 5
1 7 6 7265.56 1025.97 10
1 7 7 19446.8 1899.99 2
-1 -7 -7 17679.6 1563.07 5
1 7 7 18637.7 1745.89 10
-1 -7 -7 16702.2 1499 12
1 7 7 17950.2 1455.58 3
-1 -7 -8 3535.37 709.526 12
1 8 -7 197.229 243.054 11
-1 -8 7 445.566 371.873 8
-1 -8 7 211.627 253.454 1
1 8 -7 255.072 212.407 4
1 8 -6 5473.15 882.968 4
-1 -8 6 4264.26 883.08 8
-1 -8 6 6321.94 1050.02 1
1 8 -6 4912.84 966.982 11
1 8 -5 35957.9 2262.35 4
-1 -8 5 30065.1 2363.86 8
1 8 -5 33198.3 2104.82 9
-1 -8 5 31590.6 2384.18 1
1 8 -4 15863.7 1398.69 9
1 8 -4 14051.8 1481.2 11
1 8 -4 16106.4 1377.43 4
-1 -8 4 13953.9 1499.53 8
-1 -8 3 97.2643 146.47 8
1 8 -3 658.429 263.052 4
-1 -8 2 4921.38 806.861 8
1 8 -2 5052.01 647.346 4
1 8 -2 5379.59 752.369 10
-1 -8 1 36460.3 2276.85 8
1 8 -1 37287.6 1864.08 4
1 8 -1 41149.4 2258.01 10
1 8 0 54120.7 2251.72 4
1 8 0 54330.1 2733.08 10
1 8 0 52995.7 2919.14 2
-1 -8 0 51432.1 2692.17 8
-1 -8 -1 8012.4 904.624 8
1 8 1 11904.7 1170.39 3
1 8 1 9004.55 1132.14 2
1 8 1 9334.04 829.972 6
1 8 1 10082.4 1088.69 10
1 8 2 7796.99 845.266 6
-1 -8 -2 7149.6 812.289 8
1 8 2 7594.26 1070.83 2
1 8 2 7568.84 941.967 3
-1 -8 -2 6659.24 718.414 12
-1 -8 -2 7406.37 836.795 5
1 8 2 7767.71 973.351 10
-1 -8 -3 26912.2 1612.97 12
-1 -8 -3 25848.5 1568.42 8
1 8 3 24987.6 2094.7 2
1 8 3 28228.1 1918.6 3
1 8 3 26581 1940.43 10
-1 -8 -3 26426.1 1726.28 5
1 8 4 2638.61 596.623 10
1 8 4 3978.63 700.342 3
-1 -8 -4 2579.66 490.926 12
1 8 4 2825.52 667.42 2
-1 -8 -4 3113.62 586.247 5
-1 -8 -5 9146.21 996.745 12
1 8 5 8606.18 1266.85 2
-1 -8 -5 9468.81 1075.51 5
1 8 5 7912.44 1074.75 10
1 8 6 237.421 179.223 3
-1 -8 -6 243.066 229.67 5
1 8 6 160.898 151.368 10
1 8 6 287.695 317.031 2
-1 -8 -6 151.222 169.798 12
-1 -8 -7 5839.54 906.855 12
1 8 7 7895.33 1016.16 3
1 9 -6 5856.79 967.725 4
-1 -9 5 12744.8 1575.46 8
-1 -9 5 15604.5 1722.86 1
1 9 -5 15168.8 1487.97 4
1 9 -5 17047.6 1813.33 11
-1 -9 4 -3.46891 108.804 1
-1 -9 4 -14.3622 174.886 8
1 9 -4 81.2531 113.175 4
1 9 -4 47.9043 186.952 11
-1 -9 3 24118.9 2054.97 8
1 9 -3 26130.3 1793.74 4
-1 -9 2 4582.81 828.968 8
1 9 -2 4858.25 777.273 2
1 9 -2 5194.73 704.409 4
1 9 -2 5164.2 778.518 10
1 9 -1 226.874 187.077 2
1 9 -1 101.261 120.384 4
1 9 -1 -34.8174 78.8355 10
-1 -9 0 4874.45 786.251 8
1 9 0 7103.41 723.647 4
1 9 0 4394.01 802.966 2
1 9 0 6941.5 946.424 10
-1 -9 -1 882.469 338.102 8
1 9 1 671.298 223.022 4
1 9 1 729.198 331.229 2
1 9 1 921.447 364.949 10
1 9 2 502.077 276.82 10
-1 -9 -2 527.16 242.849 5
-1 -9 -2 227.276 147.707 12
-1 -9 -2 158.815 190.677 8
1 9 2 153.474 206.522 2
-1 -9 -3 433.825 204.901 5
1 9 3 410.802 341.131 2
1 9 3 309.25 223.585 3
-1 -9 -3 304.183 195.738 12
1 9 3 349.581 255.107 10
1 9 4 -68.9196 180.987 3
-1 -9 -4 -79.7065 95.6441 12
1 9 4 -69.4738 133.322 10
1 9 4 32.2237 187.196 2
-1 -9 -4 23.9877 158.73 5
1 9 5 34080 2323.87 3
-1 -9 -5 27245.2 1897.83 12
-1 -9 -6 1837.89 494.284 12
1 10 -5 7284.33 1064.04 4
-1 -10 4 1156.1 507.096 1
-1 -10 4 1717.41 589.005 8
1 10 -4 942.402 376.727 4
1 10 -3 28258.1 1966.7 4
-1 -10 3 23670.3 2176.15 8
1 10 -3 30983.5 2443.12 11
-1 -10 3 26299.5 2243.62 1
1 10 -2 4992.58 734.133 4
1 10 -2 4639.9 800.88 10
-1 -10 2 3714.03 799.427 8
1 10 -2 3427.62 701.137 2
-1 -10 1 577.446 321.982 8
1 10 -1 553.198 300.113 2
1 10 -1 564.002 305.527 10
-1 -10 0 12181.9 1339.85 8
1 10 0 14582.6 1608.25 2
1 10 0 12943 1408.01 10
-1 -10 -1 -15.8067 93.6881 12
-1 -10 -1 164.269 185.646 8
-1 -10 -1 667.463 323.151 5
1 10 1 536.645 291.105 2
1 10 1 693.395 378.408 10
-1 -10 -2 4431.92 649.775 12
1 10 2 2847.11 768.415 2
-1 -10 -3 3661.5 615.819 12
-1 -10 -4 5818.76 822.304 12
-1 -10 -5 1892.12 484.544 12
-1 -11 2 1892.82 622.344 1
-1 -11 2 3724.9 828.394 8
1 11 -1 4592.63 896.245 2
-1 -11 1 6292.05 1055.08 8
1 11 0 29499 2460.53 2
-1 -11 0 27196.6 2175.85 8
2 -9 -2 5048.83 1015.27 6
2 -9 -1 352.37 179.418 5
2 -9 0 1611.22 412.605 5
2 -9 1 4108.7 677.948 5
2 -9 2 522.405 312.229 1
2 -9 3 6547.9 1006.79 1
2 -9 4 1054.22 484.61 1
2 -8 -4 219.434 123.798 6
2 -8 -3 615.433 286.522 5
2 -8 -3 1016.51 431.048 6
-2 8 2 18567.6 1926.91 3
2 -8 -2 16481.3 1775.49 6
2 -8 -2 15979.2 1388.85 5
-2 8 2 18431.8 1688.69 10
-2 8 1 148.005 190.251 10
2 -8 -1 332.249 211.104 5
2 -8 -1 116.648 199.971 6
-2 8 0 15414.7 1486.12 10
2 -8 0 13351.2 1251.57 8
2 -8 0 15263.4 1547.63 6
2 -8 0 12388.4 1138.78 5
-2 8 0 15287.6 1659.31 3
2 -8 1 157.027 178.779 6
-2 8 -1 478.053 311.133 3
2 -8 1 -37.4713 130.596 1
-2 8 -1 266.789 242.229 10
2 -8 1 106.675 137.955 5
2 -8 2 25765.9 1865.41 1
2 -8 2 22688.3 1799.84 6
-2 8 -2 27397.2 2216.29 3
2 -8 3 17369.6 1609.1 1
-2 8 -3 14701.9 1593.99 3
2 -8 3 18020.5 1536.96 6
-2 8 -4 1377.77 469.354 3
2 -8 4 1441.42 469.618 1
2 -8 5 6474.41 1056.43 1
-2 8 -5 8491.45 1157.88 4
-2 8 -5 8223.51 1137.5 3
2 -8 6 8432.6 1264.38 1
2 -7 -5 3470.08 674.547 5
2 -7 -5 4803.13 1026.38 6
-2 7 5 5610.92 1031.35 3
-2 7 4 82.1172 145.327 7
2 -7 -4 459.844 268.34 5
-2 7 4 215.829 184.888 3
-2 7 4 217.891 201.352 10
2 -7 -4 505.476 396.08 6
-2 7 3 835.858 354.495 3
-2 7 3 1400.57 454.905 7
2 -7 -3 690.174 341.708 6
2 -7 -3 934.777 318.004 5
-2 7 3 1089.77 354.091 10
-2 7 2 44647.4 2706.92 7
-2 7 2 43512.4 2915.73 3
-2 7 2 42737.1 2560.49 10
2 -7 -2 40719.7 2222.73 5
2 -7 -2 39608.9 2751.37 6
2 -7 -1 16267 1212.18 8
-2 7 1 17312.4 1612.69 7
-2 7 1 15975 1454.44 10
2 -7 -1 18355.7 1688.98 6
-2 7 1 16311 1693.35 3
2 -7 -1 16209.8 1100.99 1
2 -7 -1 13888.1 1165.91 5
2 -7 0 21127 1387.8 1
2 -7 0 18187.7 1645.52 6
-2 7 0 19989.4 1852.07 3
2 -7 0 18424 1301.11 5
-2 7 0 19827.3 1758.78 7
-2 7 0 19686.5 1596.98 10
2 -7 1 12816.1 1164.66 1
-2 7 -1 16033 1609.41 3
2 -7 1 15830.1 1454.58 6
-2 7 -1 16991.4 1452 10
2 -7 2 -18.5719 103.45 6
2 -7 2 315.504 205.075 1
-2 7 -2 -34.1349 145.744 3
-2 7 -3 5629.53 913.881 3
2 -7 3 3916.59 693.628 1
2 -7 3 3874.25 656.684 6
2 -7 4 -48.287 128.456 6
-2 7 -4 129.644 234.406 3
2 -7 4 378.149 289.484 1
-2 7 -5 1347.84 421.532 3
2 -7 5 2245.43 583.977 1
2 -7 5 1250.02 366.565 6
-2 7 -5 2112.12 551.047 4
-2 7 -6 22147.6 1907.44 4
2 -7 6 21445.9 1981.32 1
2 -7 6 21737.3 1577.15 6
-2 7 -6 21112.2 1744.04 3
2 -7 7 1863.26 570.441 1
-2 7 -7 1461.95 500.413 4
-2 7 -7 2549.73 676.492 11
-2 6 7 8801.91 1299.44 3
2 -6 -7 9068.22 1067.85 12
2 -6 -6 783.657 264.505 12
-2 6 6 1005.81 421.664 3
-2 6 6 220.473 117.924 10
2 -6 -6 643.361 292.065 5
-2 6 5 9930.78 1347.77 3
-2 6 5 9978.65 1143.41 7
2 -6 -5 9173.75 1054.38 5
-2 6 5 11658.2 1278.67 10
2 -6 -5 8462.3 885.853 12
2 -6 -5 10803.8 1480.19 6
2 -6 -4 3135.21 577.336 5
-2 6 4 3345.67 657.22 7
2 -6 -4 2917.26 464.429 12
-2 6 4 2391.1 557.565 10
2 -6 -4 2727 691.923 6
-2 6 4 3135.4 724.759 3
2 -6 -3 15283.2 1009.71 12
2 -6 -3 15463 1620.78 6
-2 6 3 15486.9 1450.32 7
-2 6 3 15002 1623.99 3
-2 6 3 15475 1395.33 10
2 -6 -3 15118.5 1237.55 5
2 -6 -2 4409.09 488.448 8
2 -6 -2 4222.7 425.329 1
-2 6 2 3657.88 695.74 7
2 -6 -2 3750.22 740.113 6
2 -6 -2 4757.89 485.218 12
-2 6 2 3776.01 653.341 10
2 -6 -2 5144.81 659.632 5
-2 6 2 5239.74 928.486 3
-2 6 1 536.687 317.667 3
-2 6 1 804.215 298.563 10
-2 6 1 887.825 339.619 7
2 -6 -1 897.916 369.933 6
2 -6 -1 775.459 213.893 1
2 -6 -1 673.425 154.144 12
2 -6 -1 295.257 151.675 5
2 -6 0 20024.8 1258.74 1
-2 6 0 23803 1787.13 7
-2 6 0 19465.4 1753.27 3
2 -6 0 17375 814.946 12
2 -6 0 19871.3 1603.37 6
-2 6 0 18646.4 1461.51 10
2 -6 0 20877.2 1270.87 5
-2 6 -1 3053.05 631.369 7
2 -6 1 2475.7 519.244 6
2 -6 1 2271.59 218.786 12
2 -6 1 3521.77 542.87 1
-2 6 -1 2845.18 630.007 3
-2 6 -1 2056.66 454.732 10
-2 6 -1 1658.9 456.567 9
-2 6 -2 24.6881 93.7058 9
2 -6 2 216.256 153.056 6
-2 6 -2 238.267 188.223 3
2 -6 2 315.251 204.633 1
2 -6 3 25610.7 1757.82 1
2 -6 3 23498.4 1029.85 12
-2 6 -3 23301.5 1797.11 3
2 -6 3 22999.6 1576.05 6
-2 6 -3 22232.8 1444.16 9
-2 6 -4 445.015 273.425 3
2 -6 4 261.163 152.752 6
2 -6 4 23.7307 124.306 1
2 -6 5 59407.9 3183.93 1
2 -6 5 57866.2 2698.73 6
-2 6 -5 57572.4 2923.6 3
-2 6 -6 501.391 272.867 4
-2 6 -6 1183.1 360.072 3
2 -6 6 1097.57 450.286 1
-2 6 -7 5546.41 928.955 4
-2 6 -7 5667.76 970.65 11
2 -6 7 4377.57 889.753 1
-2 6 -8 7229.8 1122.29 4
-2 6 -8 7127.66 1125.09 11
2 -6 8 5677.6 1046.47 1
-2 6 -9 2347.15 659.383 11
2 -5 -8 3454.15 679.709 12
-2 5 8 3433.27 732.639 10
2 -5 -7 4261.76 716.518 12
2 -5 -7 5817.24 878.502 5
-2 5 7 4491.98 972.543 2
-2 5 7 3488.3 765.865 3
-2 5 7 3689.02 712.055 10
-2 5 6 6598.75 902.015 7
2 -5 -6 6478.75 817.986 12
-2 5 6 5452.24 971.713 3
-2 5 6 7859.43 1009.6 10
2 -5 -6 6437.34 899.648 5
-2 5 6 7513.18 1199.43 2
2 -5 -5 31552 1811.75 12
-2 5 5 32658.6 2444.94 3
2 -5 -5 33417.7 2571.42 6
-2 5 5 38088.4 2277.42 7
-2 5 5 33798.1 2141.64 10
2 -5 -5 35517.9 2090.17 5
-2 5 4 9340.21 1030.06 10
-2 5 4 9779.68 1089.6 7
-2 5 4 9464.58 1239.66 3
2 -5 -4 8531.91 910.523 5
2 -5 -4 9233.99 1233.19 6
2 -5 -4 7405.77 737.585 12
2 -5 -3 12558.4 533.433 8
2 -5 -3 11899.9 517.156 8
-2 5 3 12566.3 1247.68 7
-2 5 3 13554.3 1459.46 3
2 -5 -3 12859.7 1392.37 6
-2 5 3 12236.6 1161 10
2 -5 -3 13125.5 1071.94 5
2 -5 -3 11711.6 847.062 12
2 -5 -2 45242.3 2080.91 5
2 -5 -2 40091.5 1688.68 12
-2 5 2 47641.2 2857.43 3
2 -5 -2 45616.8 1610.39 1
-2 5 2 48661.4 2604.89 7
2 -5 -2 43764.8 2616.35 6
-2 5 2 45489.1 2324.36 10
-2 5 1 546.423 218.148 10
2 -5 -1 597.98 201.362 5
-2 5 1 808.38 283.59 7
2 -5 -1 492.905 125.751 12
2 -5 -1 617.814 259.89 6
-2 5 1 754.69 295.961 3
2 -5 -1 370.111 128.974 1
2 -5 0 7120.62 874.441 6
2 -5 0 7458.58 684.442 1
-2 5 0 7250.48 804.829 10
-2 5 0 8808.32 1013.47 7
2 -5 0 6779.39 416.555 12
-2 5 0 8203.31 983.639 9
-2 5 0 7548.44 1029.36 3
2 -5 0 7232.02 651.227 5
2 -5 1 10625.6 473.106 12
2 -5 1 11916.8 953.503 1
-2 5 -1 12114.7 1197.91 7
-2 5 -1 9627.46 925.864 10
-2 5 -1 10584.8 1176.55 3
-2 5 -1 10394.7 1059.44 9
2 -5 1 10927.8 1039.47 6
-2 5 -2 67.3549 58.752 7
2 -5 2 10.8097 85.6788 1
-2 5 -2 -36.6009 139.98 3
2 -5 2 -24.3741 57.5317 6
-2 5 -2 173.049 152.242 9
2 -5 3 93225.6 3780.95 1
2 -5 3 96454.1 3630.82 6
-2 5 -3 94423.2 3339.68 9
-2 5 -3 89241 3914.87 3
2 -5 3 95287 2823.64 12
2 -5 4 36804.8 2193.42 1
-2 5 -4 36745.1 1426.43 9
-2 5 -4 37382 2154.17 3
2 -5 4 37644.5 1473.15 12
2 -5 5 7483.65 977.906 1
-2 5 -5 6958.42 825.881 3
2 -5 5 6840.5 590.336 12
2 -5 6 78791 3831.56 1
-2 5 -6 76039.6 3247.8 3
2 -5 6 75885.1 2864.91 12
2 -5 7 2908.76 667.167 1
-2 5 -7 3711.58 713.678 4
-2 5 -7 2876.43 645.008 11
2 -5 8 13402.4 1543.83 1
-2 5 -8 12728.5 1455.09 11
-2 5 -8 14392.5 1521.09 4
-2 5 -9 406.438 348.28 4
-2 5 -9 -33.0744 192.16 11
2 -5 9 368.46 331.288 1
-2 5 -10 4077.34 915.294 11
-2 4 9 1501.63 498.278 10
2 -4 -8 160.158 176.774 12
-2 4 8 772.682 327.908 10
2 -4 -8 203.64 201.685 5
-2 4 8 907.603 428.598 2
2 -4 -7 9982.69 1130.36 5
-2 4 7 11868.6 1228.03 10
2 -4 -7 9278.82 1054.7 12
-2 4 7 11542.2 1388.16 3
-2 4 7 9230.18 1314.19 2
-2 4 6 6967.92 1100.6 2
-2 4 6 9101.42 1040.51 7
2 -4 -6 6792.73 888.835 5
2 -4 -6 7599.69 869.013 12
-2 4 6 7917.96 1142.92 3
-2 4 6 7135.66 908.102 10
-2 4 5 24065 1760.96 7
2 -4 -5 22529.6 1546.03 5
-2 4 5 23850.9 1980.88 3
2 -4 -5 22193.6 1962.37 6
-2 4 5 22189.5 1565.1 10
2 -4 -5 20762.7 1398.37 12
2 -4 -4 208.665 144.464 5
-2 4 4 303.453 136.733 12
-2 4 4 254.959 203.318 3
2 -4 -4 179.959 177.692 6
2 -4 -4 248.752 153.708 12
-2 4 4 205.523 173.008 10
-2 4 4 291.318 217.699 7
-2 4 3 10524.8 975.714 10
2 -4 -3 11956.1 951.358 5
-2 4 3 10948.5 1135.94 7
2 -4 -3 11568.7 1462.14 7
-2 4 3 12363.4 1346.63 3
2 -4 -3 11773.4 1258.26 6
2 -4 -3 10913 796.233 12
2 -4 -2 63890.3 2203.26 8
-2 4 2 67732.5 3110.51 7
2 -4 -2 68792.8 3203.96 6
-2 4 2 67571.5 2775.78 10
2 -4 -2 57953.5 2164.02 12
-2 4 2 62177.6 3289.43 3
2 -4 -2 63261.7 1961.4 1
2 -4 -2 65724.2 2514.6 5
2 -4 -2 66720.2 3723.34 7
2 -4 -1 10632.7 963.706 10
2 -4 -1 10243.4 653.553 1
-2 4 1 10263.6 1070.5 7
-2 4 1 11708.1 1039.3 6
2 -4 -1 10656 1339.09 7
-2 4 1 9474.05 1148.34 3
2 -4 -1 10328.4 1051.66 6
-2 4 1 13207.9 1005.63 10
2 -4 -1 10819 779.091 5
-2 4 1 9899.72 1096.57 9
2 -4 -1 10266.3 581.941 12
2 -4 0 14856.8 872.859 5
2 -4 0 15621.3 1602.3 3
2 -4 0 13978.8 894.068 1
-2 4 0 16347.9 1347.97 7
2 -4 0 15570.8 1526.68 7
-2 4 0 13358.5 1323.02 3
2 -4 0 13449.1 583.663 12
-2 4 0 15815.6 1102.87 10
2 -4 0 13605.1 1065.12 10
2 -4 0 13151.2 1140.19 6
-2 4 0 16260 1317.09 9
2 -4 1 2949.02 177.728 12
2 -4 1 3277.33 708.611 3
-2 4 -1 3527.57 603.177 7
2 -4 1 3001.91 627.05 7
-2 4 -1 2630.73 466.263 9
2 -4 1 2881.33 420.926 1
2 -4 1 3411.6 523.464 6
-2 4 -1 3605.86 635.174 3
2 -4 1 3260.16 497.673 10
-2 4 -1 3449.59 502.182 10
2 -4 2 39103.4 1931.99 1
-2 4 -2 40782.2 2218.94 7
2 -4 2 38436.9 2358.94 7
-2 4 -2 39284.6 2249.12 3
2 -4 2 38577 1219.37 12
2 -4 2 43365.9 2623.39 3
2 -4 2 41488.8 2001.07 6
2 -4 2 40411.6 2007.75 10
-2 4 -2 40629.8 1884.96 9
2 -4 3 65206.5 2897.44 1
-2 4 -3 68971.1 3103.53 7
-2 4 -3 68928.4 3096.66 3
2 -4 3 69289.7 2110.49 12
-2 4 -3 71075.2 2442.35 9
2 -4 3 70140.6 3485.15 3
2 -4 4 7638.11 893.961 1
-2 4 -4 8236.88 859.971 3
2 -4 4 7626.29 532.793 12
2 -4 4 8702.66 1070.94 3
2 -4 5 64053.5 3185.55 3
-2 4 -5 61514.8 2457.67 2
2 -4 5 59744.4 2958.04 1
-2 4 -5 61940.2 2639.66 3
2 -4 5 56990 2162.25 12
-2 4 -6 65794.4 2572.73 2
-2 4 -6 62871.9 3046.36 4
2 -4 6 68205.9 3310.4 1
-2 4 -6 63820.6 2626.75 3
2 -4 6 63808.5 3208.87 3
2 -4 6 58594.4 2378.79 12
-2 4 -7 2405.91 543.678 4
-2 4 -7 2330.5 546.506 11
2 -4 7 2699.77 591.699 3
2 -4 7 1433.96 447.802 1
-2 4 -8 4073.47 761.907 4
-2 4 -8 6733.47 969.592 11
2 -4 8 5886.41 959.767 1
-2 4 -9 3294.68 733.138 4
2 -4 9 2964.58 712.186 1
-2 4 -9 2650.57 636.061 11
-2 4 -10 5655.45 1023.73 11
-2 4 -11 14957.4 1790.52 11
-2 3 9 370.391 252.939 10
-2 3 9 -145.399 209.513 2
-2 3 8 3643.7 764.94 3
-2 3 8 4002.17 705.178 10
2 -3 -8 4298.65 746.46 12
-2 3 8 3605.01 749.994 2
2 -3 -8 3645.77 696.872 5
-2 3 7 42545.4 2736.54 3
-2 3 7 42068.9 2482.5 7
2 -3 -7 38313.2 2322.98 5
-2 3 7 43818.7 2770.99 2
2 -3 -7 37202.1 2247.24 12
-2 3 7 41171.6 2328.44 10
-2 3 6 15469.4 1423.95 7
-2 3 6 14673.3 1507.26 2
-2 3 6 15932.8 1302.77 10
2 -3 -6 14747.8 1230.83 12
-2 3 6 15229.6 1569.68 3
2 -3 -6 15963.1 1303.41 5
2 -3 -5 6541.36 764.679 5
-2 3 5 8229.62 1002.93 7
2 -3 -5 8156.51 1113.73 6
-2 3 5 8744.13 882.106 10
2 -3 -5 6633.64 736.043 12
-2 3 5 6398.55 966.818 3
-2 3 4 4673.84 732.092 7
-2 3 4 4338.17 495.662 12
2 -3 -4 4324.74 818.994 7
2 -3 -4 4584.66 788.642 6
2 -3 -4 5046.46 570.048 12
-2 3 4 4978.69 627.521 10
2 -3 -4 4544.67 581.82 5
2 -3 -4 3725.9 561.986 10
-2 3 4 5023.84 851.463 3
2 -3 -3 6854.22 1164.07 3
2 -3 -3 5347.63 798.728 6
-2 3 3 6443.03 860.121 7
2 -3 -3 6926.15 1037.48 7
2 -3 -3 6586.98 587.092 12
2 -3 -3 6570.35 714.692 10
-2 3 3 6090.56 661.086 10
2 -3 -3 6311.67 635.229 5
-2 3 3 5953.79 520.585 12
-2 3 3 6480.62 941.265 3
-2 3 3 6843.11 611.249 5
-2 3 2 85058.3 3798.92 3
-2 3 2 84948.8 3561.73 7
-2 3 2 77896.3 3293.48 6
2 -3 -2 79852.8 3975.74 7
-2 3 2 78467.9 3651.6 9
2 -3 -2 80526.5 2497.73 8
2 -3 -2 75724.7 2589.63 12
2 -3 -2 76704.4 3026.33 10
2 -3 -2 76439.6 3401.37 6
-2 3 2 86322.8 2573.93 12
-2 3 2 80566.5 2993.71 10
2 -3 -2 80788.5 2840.04 5
2 -3 -2 85246.3 4301.09 3
-2 3 1 1394.54 392.405 3
-2 3 1 1250.89 309.66 6
-2 3 1 1548.88 383.278 9
-2 3 1 1440.8 354.637 7
2 -3 -1 1635.47 375.208 6
2 -3 -1 1237.87 426.816 7
2 -3 -1 1589.37 198.443 12
2 -3 -1 1250.58 192.714 1
2 -3 -1 1634.9 590.959 3
2 -3 -1 834.384 238.251 10
-2 3 1 1172.58 267.287 10
2 -3 -1 1065.2 219.767 5
-2 3 0 4159.22 535.914 6
2 -3 0 3863.96 742.116 3
-2 3 0 4023.74 674.833 3
2 -3 0 3232.74 369.196 1
-2 3 0 3251.99 551.403 7
2 -3 0 3254.11 653.687 7
2 -3 0 3345.12 220.531 12
2 -3 0 2944.88 489.693 6
-2 3 0 3837.13 472.926 10
2 -3 0 4208.59 378.017 5
2 -3 0 3682.01 477.551 10
-2 3 0 2938.57 507.935 9
2 -3 1 135514 5403.46 3
-2 3 -1 155150 5101.16 7
2 -3 1 144186 5302.42 7
2 -3 1 142969 4671.03 6
-2 3 -1 141140 5139.45 3
2 -3 1 136959 4539.79 10
2 -3 1 139308 4392.98 1
-2 3 -1 145561 4497.67 10
-2 3 -1 137143 4631.93 9
2 -3 2 6526.58 888.888 3
-2 3 -2 7103.04 793.277 7
2 -3 2 5953.79 623.682 10
2 -3 2 7897.86 912.387 7
2 -3 2 5813.17 264.409 12
2 -3 2 7770.92 712.609 6
2 -3 2 7311.38 686.132 1
-2 3 -2 5188.28 708.085 3
-2 3 -2 6397.27 577.702 9
-2 3 -2 7460.48 708.75 1
2 -3 3 49044.1 2613.22 3
2 -3 3 45894.1 2210.66 1
-2 3 -3 52645.9 2429.14 7
2 -3 3 50469.5 1572.73 12
-2 3 -3 48849.6 2354.4 3
2 -3 3 51458.7 2537.57 7
2 -3 3 49074.8 2156.83 10
-2 3 -3 50837.7 2311.77 1
-2 3 -3 49560.8 1673.58 9
2 -3 4 7918.6 527.951 12
-2 3 -4 7827.51 825.368 7
2 -3 4 7675.25 881.41 7
-2 3 -4 8209.77 789.067 3
2 -3 4 8146.06 943.673 3
-2 3 -4 7180.8 647.49 2
-2 3 -4 6912.84 802.754 1
2 -3 4 8720.34 802.667 10
2 -3 4 9020.01 895.103 1
2 -3 5 2369.79 499.836 7
2 -3 5 2483.34 500.066 1
-2 3 -5 2265.25 358.086 2
-2 3 -5 2285.52 377.367 3
2 -3 5 2047.56 461.285 3
2 -3 5 1867.34 283.881 12
-2 3 -6 16505.2 1312.5 4
2 -3 6 15176.3 1362.56 1
2 -3 6 14863.8 1292.2 7
-2 3 -6 16360.4 1016.27 3
2 -3 6 15417.7 983.637 12
-2 3 -6 14906.4 1017.56 2
2 -3 6 16661.4 1333.55 3
-2 3 -6 15842.4 1270.8 11
-2 3 -7 3905.1 657.36 4
-2 3 -7 3173.93 478.39 2
2 -3 7 3408.39 486.85 12
-2 3 -7 2881.44 560.588 11
2 -3 7 3540.81 696.377 1
2 -3 7 4303.37 638.767 3
2 -3 8 3546.74 728.671 1
-2 3 -8 3984.84 734.757 4
-2 3 -8 4189.39 722.265 11
-2 3 -9 9403.59 1171.76 11
2 -3 9 11809.5 1408.2 1
-2 3 -9 9067.79 1189 4
-2 3 -10 9999.81 1329.13 4
-2 3 -10 7334.1 1123.68 11
2 -3 10 9852.84 1362.6 1
-2 3 -11 16256.9 1794.15 11
-2 2 9 12549.6 1396.26 2
-2 2 9 14135.4 1350.57 10
-2 2 8 698.726 352.918 3
-2 2 8 897.965 327.322 10
-2 2 8 613.218 315.219 2
2 -2 -8 1165.01 378.348 5
-2 2 7 12987 1359.46 7
-2 2 7 11741.4 1281.89 2
2 -2 -7 11227.7 1134.61 12
-2 2 7 12108.2 1371.85 3
2 -2 -7 11091.3 1122.96 5
-2 2 7 12530.6 1132.72 10
-2 2 6 829.193 304.416 2
-2 2 6 976.297 362.951 7
2 -2 -6 800.81 265.596 12
2 -2 -6 1392.01 360.348 5
-2 2 6 740.209 348.325 3
-2 2 6 1183.3 321.799 10
-2 2 5 8371.24 1048.18 7
-2 2 5 8014.89 1075.18 3
2 -2 -5 7191.12 997.261 6
2 -2 -5 6488.12 725.568 12
-2 2 5 7773.95 773.103 10
2 -2 -5 8339.29 820.102 5
-2 2 4 5945.72 771.651 4
-2 2 4 6101.3 607.452 5
-2 2 4 5766.23 624.848 10
-2 2 4 4568.58 789.194 3
-2 2 4 6749.75 909.749 7
2 -2 -4 4910.9 563.605 12
-2 2 4 5406.2 555.854 12
2 -2 -4 5281.82 796.695 6
2 -2 -4 6700.73 667.278 5
-2 2 3 13224.2 803.665 12
2 -2 -3 13302 941.28 10
-2 2 3 14062.2 859.444 5
2 -2 -3 11731.7 493.176 8
-2 2 3 15322.6 1336.71 7
2 -2 -3 15022.8 1413.23 7
2 -2 -3 11941.1 1120.56 6
2 -2 -3 11473.7 800.253 12
-2 2 3 13763.5 1162.99 6
-2 2 3 11395.5 845.413 10
2 -2 -3 11134 830.239 5
-2 2 3 12513.9 1292.02 3
-2 2 3 13606.1 1336.18 9
2 -2 -2 227660 6129.21 8
-2 2 2 224391 7482.91 9
-2 2 2 216374 6999.78 6
-2 2 2 225089 6550.08 10
2 -2 -2 233594 7847.51 7
-2 2 2 232991 7714.58 3
2 -2 -2 228528 6324.9 12
2 -2 -2 222352 6428.07 5
2 -2 -2 227137 7175.29 6
2 -2 -2 224841 6612.45 10
-2 2 2 237185 6260.47 12
-2 2 2 237757 7548.24 7
2 -2 -2 227764 8117.66 3
-2 2 2 236092 6364.46 5
-2 2 1 120310 4455.22 7
2 -2 -1 119321 4786.1 7
-2 2 1 123314 4677.26 3
2 -2 -1 111735 3716.41 10
2 -2 -1 116024 3327.29 12
-2 2 1 113833 3975.38 6
2 -2 -1 122277 4991.29 3
2 -2 -1 116606 3348.27 1
-2 2 1 114133 3676.63 10
2 -2 -1 119137 3486.33 5
2 -2 -1 111525 4073.87 6
2 -2 -1 117149 3562.77 8
-2 2 1 114363 4297.24 9
-2 2 1 121188 3270.07 12
-2 2 0 76509.5 2413.67 1
-2 2 0 72073.7 2939.4 9
-2 2 0 73104.5 3274.07 3
2 -2 0 75286.6 2870.79 6
-2 2 0 79135.3 3215.91 7
2 -2 0 80341.5 3507.49 7
2 -2 0 72538.8 3491.73 3
2 -2 0 70606.7 2583.36 10
2 -2 0 74614.7 2454.59 1
-2 2 0 75842.3 2570.88 10
2 -2 0 73894 2270.26 5
-2 2 0 77878.3 2799.48 6
2 -2 1 936.922 208.593 1
-2 2 -1 1129.87 296.616 7
-2 2 -1 1158.63 223.953 1
2 -2 1 1438.95 393.539 7
-2 2 -1 1082.56 312.95 3
2 -2 1 1217.75 266.572 6
-2 2 -1 1218.54 266.391 9
2 -2 1 1298.53 374.37 3
2 -2 1 881.099 206.425 10
-2 2 -2 13931.5 921.116 1
2 -2 2 14003.3 1162.62 7
-2 2 -2 15501.6 1116.48 7
2 -2 2 13401.9 912.246 1
2 -2 2 12982 442.5 12
-2 2 -2 12985.7 1069.21 3
2 -2 2 15010.3 1259.23 3
2 -2 2 12296.6 836.317 10
-2 2 -2 13434 765.802 9
2 -2 3 24451.8 904.487 12
-2 2 -3 24670 1406.76 1
2 -2 3 25240.2 1573.44 7
-2 2 -3 26916.9 1520.03 7
2 -2 3 23913.2 1395.32 1
-2 2 -3 26802.5 1494.58 3
2 -2 3 26144.4 1653.39 3
-2 2 -4 9987.77 859.124 7
2 -2 4 10116.6 913.03 1
2 -2 4 9908.44 921.317 7
-2 2 -4 9098.3 758.093 3
2 -2 4 9700 584.413 12
2 -2 4 9739.1 934.2 3
-2 2 -4 8875.42 860.568 1
-2 2 -4 10712.8 744.636 2
-2 2 -5 8596.78 906.305 1
2 -2 5 7792.71 589.999 12
-2 2 -5 7308.33 632.977 2
-2 2 -5 7982.03 800.839 4
2 -2 5 7053.43 781.856 7
2 -2 5 7838.36 864.918 1
-2 2 -5 6797.63 583.1 3
-2 2 -5 7824.88 655.213 12
2 -2 5 8291.67 828.651 3
2 -2 6 130820 4382.3 3
-2 2 -6 126692 4138.96 2
-2 2 -6 121634 4500.28 4
2 -2 6 125791 4497.59 7
2 -2 6 131288 4820.67 1
-2 2 -6 124560 3756.93 3
2 -2 6 126855 4118.95 5
-2 2 -6 128438 4232.61 12
2 -2 6 127826 4033.29 12
-2 2 -6 116938 4338.99 11
-2 2 -7 7155.41 731.992 2
-2 2 -7 6809.49 841.148 4
2 -2 7 5994.34 754.375 7
2 -2 7 7738.06 974.472 1
-2 2 -7 8143.99 825.001 12
2 -2 7 6615.91 676.794 3
-2 2 -7 6771.18 820.205 11
-2 2 -8 30531.5 2060.01 4
2 -2 8 32383.3 1913.39 7
2 -2 8 33808.4 2260.62 1
-2 2 -8 26967.2 1883.98 11
-2 2 -9 15950.4 1537.93 4
2 -2 9 15764.3 1596.31 1
-2 2 -9 16479.7 1516.78 11
2 -2 10 8193.13 1206.71 1
-2 2 -10 6211.35 1011.17 4
-2 2 -10 5975.56 968.55 11
-2 2 -11 7581.64 1159.34 11
-2 2 -11 8766.06 1291.61 4
2 -2 11 8736.53 1314.23 1
-2 1 9 14988.3 1346.15 10
-2 1 9 14566.7 1373.75 2
-2 1 8 2743.1 652.718 7
-2 1 8 2036.8 491.348 2
-2 1 8 2393.61 578.031 3
-2 1 8 2071.16 456.848 10
-2 1 7 208.18 188.423 7
-2 1 7 319.633 111.146 1
-2 1 7 483.521 127.399 8
-2 1 7 462.471 270.82 3
-2 1 7 338.875 178.254 2
-2 1 7 112.276 136.267 10
-2 1 6 188.469 74.1005 8
-2 1 6 256.823 110.075 1
-2 1 6 510.119 272.833 7
-2 1 6 600.354 360.791 3
-2 1 6 133.739 115.981 10
-2 1 6 338.212 219.148 2
2 -1 -6 300.153 170.978 5
-2 1 5 22150 1337.73 12
-2 1 5 24772.7 1870.38 7
-2 1 5 23117.4 909.561 1
2 -1 -5 23119.3 1746.7 6
2 -1 -5 22498.5 1414.68 12
-2 1 5 21929.4 939.629 8
-2 1 5 22742.4 1872.09 3
-2 1 5 21019.7 1275.23 10
2 -1 -5 22666.5 1381.71 5
-2 1 4 23807.9 1572.54 4
-2 1 4 21785.8 906.826 8
2 -1 -4 22173.2 1270.9 5
-2 1 4 23218.8 1739.17 7
-2 1 4 25086.5 1839.73 11
-2 1 4 22186.3 776.092 1
2 -1 -4 21133.2 1575.65 6
2 -1 -4 20474.9 1244.94 12
-2 1 4 21250.3 1544.78 6
-2 1 4 22487.2 1814.15 3
-2 1 4 21413.1 1772.23 9
-2 1 4 22422.7 1213.05 10
-2 1 4 26093.8 1315.41 5
-2 1 4 23730.6 1273.47 12
-2 1 3 19342.6 1314.38 4
-2 1 3 19198.4 813.237 8
2 -1 -3 17988.4 785.379 8
2 -1 -3 18513.1 1345.29 6
-2 1 3 20074.4 1554.34 7
-2 1 3 20026.9 1357.25 6
-2 1 3 16510 1452.94 9
-2 1 3 19553.4 1619.64 3
2 -1 -3 17382.3 994.445 10
2 -1 -3 18456.6 1033.31 5
-2 1 3 18948.4 1010.93 5
-2 1 3 17479.6 982.122 10
-2 1 3 19946.3 1039.07 12
-2 1 2 106406 3855.69 6
2 -1 -2 112488 3454.13 10
2 -1 -2 111052 3247.26 8
-2 1 2 113121 3365.87 12
-2 1 2 112318 4553.73 3
-2 1 2 114164 4282.43 9
-2 1 2 119365 4442.11 7
2 -1 -2 113338 4417.55 7
2 -1 -2 107860 3952.28 6
2 -1 -2 111579 3392.19 5
-2 1 2 107462 3368.61 10
-2 1 2 115648 3370.43 5
2 -1 -2 111976 4243.07 9
2 -1 -1 256823 7080.7 8
-2 1 1 267089 8211.73 7
-2 1 1 266000 6835.07 1
2 -1 -1 270889 8310.13 7
-2 1 1 262831 6889.85 12
2 -1 -1 254654 7100.17 10
-2 1 1 269428 6908.94 5
-2 1 1 265102 8335.54 3
-2 1 1 251473 7465.45 6
2 -1 -1 258689 6940.59 5
-2 1 1 261760 7063.04 10
2 -1 -1 257971 7621.85 6
2 -1 -1 269269 7911.2 9
-2 1 1 250553 7831.91 9
2 -1 0 224692 6237.43 10
-2 1 0 230882 6175.91 1
-2 1 0 225391 7147.54 7
2 -1 0 241673 7413.87 7
-2 1 0 224784 5838.87 12
2 -1 0 232674 6610.27 6
-2 1 0 215465 7231.96 3
2 -1 0 223220 6261.87 1
2 -1 0 229800 6416.23 8
-2 1 0 232276 6202.74 10
2 -1 0 233682 5928.23 5
2 -1 0 221319 6720.62 9
-2 1 0 214984 6709.08 9
-2 1 -1 131510 3963.02 1
-2 1 -1 135722 4562.58 7
2 -1 1 141811 4785.94 7
2 -1 1 134261 4081.79 9
2 -1 1 134883 4031.95 1
-2 1 -1 129906 4615.09 3
2 -1 1 123463 3831.67 10
-2 1 -1 130109 4057.69 9
2 -1 1 133966 4788.64 3
-2 1 -2 13839.1 900.099 1
-2 1 -2 14457.7 1041.52 7
2 -1 2 14609.8 1121.1 7
-2 1 -2 14125.1 1081.81 3
2 -1 2 14417.2 924.356 1
-2 1 -2 15446.6 572.783 12
2 -1 2 14752.3 1162.52 3
2 -1 2 14643.4 759.833 9
-2 1 -2 14472.5 711.311 9
-2 1 -3 85954.6 3097.77 1
-2 1 -3 87744.2 3071.09 7
2 -1 3 86019.7 3234.88 7
2 -1 3 84464.3 3073.53 1
2 -1 3 84326.9 2470.11 12
-2 1 -3 87002.8 2785.47 2
-2 1 -3 84094.8 3069.71 3
-2 1 -3 84867.1 2551.5 12
2 -1 3 82524.1 3242.22 3
2 -1 3 85740.7 2455.11 9
-2 1 -4 70006.2 2394.64 2
-2 1 -4 69198.8 2771.7 1
-2 1 -4 70110 2539.6 7
2 -1 4 73686.1 2770.88 7
2 -1 4 67135.1 2737.74 1
-2 1 -4 66497.6 2292.89 12
-2 1 -4 66075.3 2372.17 3
2 -1 4 64469.2 2165.86 12
2 -1 4 65531.8 2223.54 5
2 -1 4 68416.7 2683.84 3
-2 1 -5 67225.8 2454.43 2
-2 1 -5 67674.7 2662.55 4
2 -1 5 66798.3 2666.02 7
2 -1 5 71082.6 2934.33 1
2 -1 5 65545.6 2304.12 12
-2 1 -5 65726.6 2124.49 3
-2 1 -5 62830.9 2457.55 11
-2 1 -5 68161.8 2903.68 1
-2 1 -5 69630.9 2486.12 12
2 -1 5 64604 2345.75 5
2 -1 5 65869.4 2126.01 9
2 -1 5 64827.4 2410.14 2
-2 1 -6 29032.2 1515.69 2
-2 1 -6 29981.3 1670.45 4
-2 1 -6 29894.4 1559.24 12
2 -1 6 29480 1575.13 7
2 -1 6 30546.9 1854.46 1
2 -1 6 27692.1 1384.07 12
2 -1 6 26353.2 1274.11 9
2 -1 6 27736.5 1417.4 5
-2 1 -6 27224.7 1520.51 11
2 -1 6 28969.8 1436.23 2
2 -1 7 7561.27 702.181 2
-2 1 -7 8246.55 895.368 4
-2 1 -7 7246.55 766.268 2
2 -1 7 8360.44 793.13 7
2 -1 7 8259.89 972.676 1
-2 1 -7 7124.49 779.701 12
-2 1 -7 6698.16 765.124 11
2 -1 7 8039.04 719.308 9
-2 1 -8 27145.5 1864.61 4
-2 1 -8 26844.2 1781.68 11
2 -1 8 27449.4 1625.55 9
2 -1 8 29533 1647.39 7
2 -1 8 29626.3 2082.68 1
-2 1 -8 28245.2 1810.47 12
2 -1 8 28426.5 1538.94 2
-2 1 -9 75780.1 3665.35 4
2 -1 9 78482.8 3884.51 1
-2 1 -9 81420.6 3643.47 12
-2 1 -9 70615.1 3459.82 11
2 -1 9 79482.5 3091.28 2
-2 1 -10 905.253 356.662 4
2 -1 10 1200.29 317.734 2
-2 1 -10 998.916 364.577 12
-2 1 -10 432.328 206.595 11
-2 1 -11 9301.32 1313.61 4
2 -1 11 9487.99 1372.59 1
-2 1 -11 11237.9 1363.21 12
2 -1 11 13681.1 1152.63 2
-2 0 9 5100.37 747.287 10
-2 0 8 8361.61 904.069 2
-2 0 8 8170.42 781.694 1
-2 0 8 8227.23 1148.71 7
-2 0 8 7135.95 831.825 10
-2 0 8 8452.36 1152.47 3
-2 0 7 59047.1 2372.17 8
-2 0 7 64846 2479.94 1
-2 0 7 62580.5 2784.81 2
-2 0 7 59876.5 3309.08 7
-2 0 7 60977.2 2634.98 10
-2 0 7 59039.8 3338.04 3
-2 0 6 19371.4 1084.42 8
-2 0 6 17187.8 1024.26 1
-2 0 6 18949.7 1327.8 2
-2 0 6 17383.7 1595.05 7
-2 0 6 19870.1 1787.87 3
-2 0 6 18291.8 1173.72 10
-2 0 5 14243.1 859.711 8
-2 0 5 14399.5 821.05 1
-2 0 5 12631.7 1386.79 3
-2 0 5 15749.6 1422.81 7
-2 0 5 14120.1 1084.74 2
2 0 -5 13584.5 1252.95 6
-2 0 5 11544.3 1153 6
-2 0 5 13176.9 977.445 5
-2 0 5 13836.8 1039.29 12
-2 0 5 14369.5 929.318 10
2 0 -5 13065.6 1386.92 9
-2 0 4 70080.9 2932.08 4
-2 0 4 64914.8 2440.24 5
-2 0 4 60490 3039.08 7
-2 0 4 64546.6 3101.38 11
2 0 -4 63215.5 2886.51 6
-2 0 4 67353 2552.59 12
-2 0 4 63154.2 2859.77 6
-2 0 4 61586.3 3177.9 9
-2 0 4 62653.7 3286.66 3
-2 0 4 67823 2282.46 8
-2 0 4 64273.5 2306.37 10
2 0 -4 66302.3 3220.9 9
-2 0 4 66849.5 2162.79 1
-2 0 3 8936.99 830.514 4
-2 0 3 8731.09 934.628 11
-2 0 3 8860.23 976.658 9
-2 0 3 7754.02 547.566 8
2 0 -3 7680.57 545.935 8
-2 0 3 6393.3 815.815 7
-2 0 3 9036.9 678.099 12
-2 0 3 8333.23 794.323 6
2 0 -3 7886.74 794.485 6
2 0 -3 6842.65 572.606 5
-2 0 3 7659.14 589.892 5
2 0 -3 7180.24 885.494 9
-2 0 3 8269.27 544.219 10
-2 0 2 81059.1 2975.77 4
2 0 -2 84153.7 3331.69 9
2 0 -2 76939 2511.29 8
-2 0 2 87248 3409.1 7
2 0 -2 70858.3 2857.47 6
-2 0 2 80248.3 2600.3 12
2 0 -2 80915.9 2397.25 10
-2 0 2 75880.1 2863.44 6
-2 0 2 76580.7 2363.77 10
-2 0 2 80966.2 2530.3 8
-2 0 2 82720.8 2495.12 5
-2 0 2 75721.6 3227.93 9
2 0 -2 77853.6 2486.9 5
-2 0 1 2862.31 448.561 9
2 0 -1 3134.13 338.244 8
-2 0 1 3286.45 532.752 7
2 0 -1 3509.06 274.371 5
-2 0 1 3575.59 415.702 6
2 0 -1 3750.24 280.628 10
-2 0 1 3954.78 329.673 1
-2 0 1 3580.58 356.986 8
-2 0 1 3120.69 258.461 5
2 0 -1 3760.46 443.997 6
-2 0 1 3360.17 260.392 10
2 0 -1 3852.69 535.79 9
-2 0 0 45706.5 1759.87 8
2 0 0 45485.1 1753.05 8
2 0 0 46438.9 1992.85 9
2 0 0 43769.9 1682.62 1
-2 0 0 46377.4 2224.69 7
2 0 0 46789 2248.17 7
-2 0 0 50172.9 1337.06 5
2 0 0 45691.5 1494.03 10
-2 0 0 46977.7 1963.81 9
2 0 0 44922.4 1801.85 6
-2 0 0 48082 1709.46 1
-2 0 -1 604488 15602.9 1
2 0 1 604441 15681.9 8
-2 0 -1 587111 16168.5 7
-2 0 -1 581845 15505 9
2 0 1 610479 15662.1 1
2 0 1 579834 15591.8 9
2 0 1 640565 16308.3 7
2 0 2 149227 3962.24 5
-2 0 -2 151414 4825.92 7
2 0 2 160312 4993.11 7
-2 0 -2 154382 4645.77 1
-2 0 -2 158386 4102.15 12
-2 0 -2 142443 4872.45 3
2 0 2 154582 4706.56 1
2 0 2 147131 4309.8 9
-2 0 -2 150192 4334.72 2
-2 0 -3 167333 4797.42 2
2 0 3 164343 4577.78 12
-2 0 -3 162937 5146.51 1
-2 0 -3 163927 4988.71 7
2 0 3 171687 5253.93 7
2 0 3 163163 4534.08 5
-2 0 -3 171443 4662.75 12
2 0 3 170893 5221.34 1
-2 0 -3 167152 5080.84 3
2 0 3 171562 4825.08 2
-2 0 -4 75522.6 2399.34 3
-2 0 -4 75826.5 2504.52 12
-2 0 -4 72106.1 2548.47 2
-2 0 -4 72934.3 2469.17 7
-2 0 -4 70110.8 2845.35 1
2 0 4 74800.4 2731.63 7
2 0 4 75010.6 2908.18 1
-2 0 -4 72318.1 2355.37 11
2 0 4 71844.4 2357.99 5
2 0 4 69287.7 2347.78 12
2 0 4 76907.1 2535.47 2
-2 0 -5 2588.7 383.321 4
2 0 5 3570.27 537.707 1
-2 0 -5 2756.77 185.947 3
2 0 5 2718.37 387.551 7
2 0 5 2536.65 354.117 2
2 0 5 2797.51 346.333 12
-2 0 -5 2691.25 388.607 12
-2 0 -5 2355.36 372.478 2
-2 0 -5 2351.91 322.436 11
-2 0 -5 1990.93 405.736 1
2 0 5 2050.9 307.986 5
2 0 6 91634.6 3053.88 2
-2 0 -6 88065.4 3253.75 2
-2 0 -6 84507.2 3487.22 1
-2 0 -6 85875.7 3221.14 4
2 0 6 88781.3 3014.89 7
2 0 6 81774.4 2953.83 12
2 0 6 88420.6 3578.06 1
-2 0 -6 87428.8 3216.99 12
2 0 6 83868.8 2997.17 5
-2 0 -6 79183.4 3017.88 11
-2 0 -7 174.39 142.7 4
2 0 7 142.087 179.195 1
2 0 7 193.177 143.005 7
-2 0 -7 159.869 149.902 12
-2 0 -7 184.159 154.39 11
-2 0 -7 -65.2704 119.676 2
2 0 7 238.79 146.491 2
2 0 7 -48.9524 62.1565 9
-2 0 -8 421.448 212.623 4
2 0 8 345.837 152.181 7
2 0 8 301.757 259.133 1
2 0 8 333.274 179.514 2
-2 0 -8 133.336 161.204 12
-2 0 -8 233.098 139.231 11
2 0 8 506.454 265.699 9
-2 0 -9 5143.81 810.435 12
-2 0 -9 4051.79 701.236 4
2 0 9 4112.31 775.373 1
2 0 9 4573.14 601.56 2
-2 0 -9 3754.98 666.846 11
2 0 9 3421.44 671.216 9
2 0 10 4721.54 885.184 1
-2 0 -10 4912.31 845.662 4
2 0 10 4495.84 622.716 2
-2 0 -10 3931.57 745.869 12
-2 0 -10 3767.97 714.207 11
2 0 11 14336.2 1215.55 2
-2 0 -11 11808.8 1443.33 4
-2 0 -11 13955.6 1545.2 12
2 0 11 9914.49 1387.76 1
2 0 12 753.446 495.561 1
2 1 -9 12110.9 1495.66 4
-2 -1 9 15237.7 1269.5 10
2 1 -8 154.763 249.68 4
-2 -1 8 342.216 190.054 8
-2 -1 8 25.9568 119.521 1
-2 -1 8 164.398 200.776 7
-2 -1 8 68.6671 84.712 2
-2 -1 8 86.5113 88.2817 10
-2 -1 8 13.5931 142.429 3
2 1 -7 27417.5 2067.38 4
-2 -1 7 31751.2 1717.94 8
-2 -1 7 32870.9 1755.97 1
-2 -1 7 35539.8 1708.23 2
-2 -1 7 30208.8 2322.58 3
-2 -1 7 34802.4 1753.87 10
2 1 -6 30955.8 2064.39 4
-2 -1 6 34230.2 1676.68 1
-2 -1 6 34443.8 1664.85 2
-2 -1 6 33157 1690.45 8
2 1 -6 34204.4 2390.11 9
2 1 -5 16094 1313.96 4
-2 -1 5 16297.9 1046.06 8
-2 -1 5 16251.1 1019.83 2
-2 -1 5 14886.4 1252.92 6
-2 -1 5 15830 1480.71 9
-2 -1 5 17165 1424.45 11
-2 -1 5 15086.4 1050.75 5
-2 -1 5 14635.1 1099.77 12
2 1 -5 15821.1 1487.7 9
-2 -1 5 15925.7 1009.79 1
-2 -1 4 3629.05 629.99 9
2 1 -4 3456.03 551.186 4
-2 -1 4 3536.75 439.032 8
-2 -1 4 3209.25 413.991 5
-2 -1 4 2900.92 497.874 4
-2 -1 4 3933.39 498.687 12
-2 -1 4 3541.66 355.867 10
2 1 -4 2514.03 460.322 6
-2 -1 4 3984.85 566.08 6
-2 -1 4 3697.12 600.684 11
2 1 -4 3689.49 654.136 9
-2 -1 3 14072.3 1031.87 4
2 1 -3 13928.8 847.257 8
-2 -1 3 12763 621.952 10
-2 -1 3 13895.7 1104.18 11
-2 -1 3 12047.6 843.814 12
2 1 -3 12342.6 954.257 6
2 1 -3 10400.4 1058.62 9
-2 -1 3 12900.2 823.277 8
-2 -1 3 13559.6 807.662 5
-2 -1 3 11470.4 899.061 6
-2 -1 3 11516.7 1089.48 9
-2 -1 2 124271 4102.49 4
-2 -1 2 125083 3840.13 8
2 1 -2 124732 3817.49 8
2 1 -2 116739 3957.36 6
-2 -1 2 122951 3641.88 5
-2 -1 2 123718 3934.5 6
-2 -1 2 122847 4219.81 11
-2 -1 2 128342 3342.64 10
2 1 -2 129016 4482.06 9
-2 -1 2 130781 4436.3 9
-2 -1 1 16166.5 948.993 4
-2 -1 1 14776 848.255 8
2 1 -1 16428.3 1111.72 9
2 1 -1 16357.7 885.529 8
2 1 -1 14697 863.173 6
-2 -1 1 16169.1 1015.41 11
-2 -1 1 15887.6 848.976 6
-2 -1 1 15740.2 1046.06 9
-2 -1 0 51284.2 1930.66 8
2 1 0 53141.6 1944.64 8
-2 -1 0 52180.9 1691.38 2
-2 -1 0 49939.4 1952.37 11
2 1 0 56706.1 1890 6
2 1 0 52928.2 2100.48 9
-2 -1 0 55902 2085.3 9
-2 -1 -1 463783 12161.8 8
2 1 1 464953 12153.7 8
2 1 1 460811 12172.4 1
-2 -1 -1 455118 12453.6 7
-2 -1 -1 454322 11799.1 2
2 1 1 437687 11808.1 2
-2 -1 -1 458233 12164.5 1
2 1 1 486522 12208.5 9
2 1 2 181972 5205.16 2
2 1 2 188399 5546 8
2 1 2 188093 5601.05 1
-2 -1 -2 192284 5629.29 7
2 1 2 189025 5573.13 7
-2 -1 -2 187400 5220.95 2
-2 -1 -2 190288 4951.74 5
2 1 2 188717 4927.97 5
-2 -1 -2 181827 5570.61 1
2 1 3 66309.4 2499.24 8
2 1 3 63736 2212.55 2
-2 -1 -3 66150.1 2287.57 2
-2 -1 -3 68893.6 2334.19 7
2 1 3 66503.2 2363.89 7
-2 -1 -3 64934.1 2541.54 1
-2 -1 -3 66182.7 2159.48 12
-2 -1 -3 62786.2 1811.13 11
2 1 3 67584.8 2610.86 1
-2 -1 -3 66674.2 2074.63 5
2 1 3 65985.7 2053.12 5
2 1 4 31581.7 1715.6 1
-2 -1 -4 34778.6 1390.97 4
-2 -1 -4 33713.6 1556.05 2
-2 -1 -4 32160.9 1224.78 7
2 1 4 33805.4 1413.54 7
-2 -1 -4 33385.9 1712.17 1
-2 -1 -4 31615.1 1173.39 11
-2 -1 -4 35406.9 1465.87 12
2 1 4 30941.5 1339.1 12
2 1 4 34032.3 1449 2
-2 -1 -4 34384.8 1374.79 5
2 1 4 33519.9 1357.24 5
-2 -1 -5 2114.34 319.247 5
-2 -1 -5 1874.06 300.069 4
2 1 5 2158.96 311.657 12
2 1 5 1881.17 265.902 7
2 1 5 2477.84 465.711 1
2 1 5 1681.45 294.58 2
-2 -1 -5 1986.91 338.815 12
-2 -1 -5 1654.22 255.324 11
-2 -1 -5 2041.68 362.438 2
-2 -1 -5 1732.27 375.412 1
2 1 5 1715.85 279.938 5
-2 -1 -6 128319 4253.67 12
-2 -1 -6 122603 4088.07 4
-2 -1 -6 124986 4498.85 1
-2 -1 -6 114834 4267.62 2
-2 -1 -6 125074 4053.1 5
-2 -1 -6 118461 3933.96 11
2 1 6 121031 3599.16 7
2 1 6 120894 3945.6 12
2 1 6 120662 4526.6 1
2 1 6 118465 3971.16 5
2 1 6 129340 4067.12 2
-2 -1 -7 8301.74 795.525 5
2 1 7 9158.68 802.406 2
-2 -1 -7 8782.64 854.189 4
-2 -1 -7 8199 862.429 12
-2 -1 -7 8019.71 786.041 11
2 1 7 8442.08 976.855 1
-2 -1 -8 2301.45 472.463 4
2 1 8 3313.81 497.639 2
-2 -1 -8 2480.74 511.273 12
2 1 8 3111.35 439.793 11
2 1 8 2631.7 582.994 1
2 1 8 2342.94 546.283 9
-2 -1 -9 2802.3 565.99 4
2 1 9 3051.32 521.52 2
-2 -1 -9 2619.86 579.646 12
2 1 9 3350.19 688.825 1
2 1 10 1942.67 422.6 2
-2 -1 -10 1210.04 420.574 4
-2 -1 -10 2492.01 592.77 12
2 1 10 1488.3 485.126 1
2 1 11 28058.1 1811.7 2
-2 -1 -11 24928.4 2098.94 4
2 1 11 25404.6 2204.73 1
-2 -1 -12 1627.14 558.56 4
2 1 12 1980.02 639.386 1
2 2 -9 7080.2 1113.25 4
-2 -2 9 5775.82 811.424 8
-2 -2 9 6367.33 864.326 1
-2 -2 8 5702.05 514.172 2
2 2 -8 3310.88 735.745 4
-2 -2 8 4043.17 634.698 8
-2 -2 8 4670.01 684.479 1
2 2 -7 35738.7 2341.38 4
-2 -2 7 33726.7 1942.11 8
2 2 -7 35166.2 2523.85 9
-2 -2 7 39086.3 1539.47 2
-2 -2 7 37345.6 2017.5 1
2 2 -7 37266.7 2665.92 11
2 2 -6 54808.8 2932.79 4
-2 -2 6 61198.2 2671.04 8
-2 -2 6 65581.9 2145.52 2
-2 -2 6 58156.3 2885.49 6
2 2 -6 56887.5 3290.61 11
2 2 -6 63738 3353.26 9
-2 -2 6 64143.6 2698.45 1
2 2 -5 27521.1 1800.67 4
-2 -2 5 27382.3 1693.26 6
-2 -2 5 30336.8 1195.76 2
2 2 -5 28409.4 2023.04 11
-2 -2 5 27216.4 1509.16 5
-2 -2 5 28335.8 1585.02 8
2 2 -5 27275.9 1970.21 9
-2 -2 5 30188.8 1610.32 1
-2 -2 5 29667.4 2006.08 9
2 2 -4 21829.8 1454.5 4
-2 -2 4 21144.8 1306.2 6
-2 -2 4 22211.6 1420.48 4
-2 -2 4 22422.6 1325.74 12
-2 -2 4 22830.4 1229.64 5
2 2 -4 20309.5 1553.01 11
-2 -2 4 20477.4 1437.93 11
-2 -2 4 22304.3 942.437 2
-2 -2 4 20050 1248.1 8
2 2 -4 20788 1584.54 9
-2 -2 4 22551.9 1602.9 9
2 2 -3 16340.2 1151 4
2 2 -3 16466.3 1308.21 9
-2 -2 3 17574.9 1081.95 8
-2 -2 3 17895.4 1042.17 6
-2 -2 3 16323.3 1118.99 4
2 2 -3 16385.5 1038.07 6
-2 -2 3 19614.4 1267.59 11
-2 -2 3 16321.7 1247.38 9
2 2 -3 16874.5 1276.71 11
2 2 -2 186086 5586.09 4
-2 -2 2 184013 5528.37 4
-2 -2 2 185206 5469.79 8
2 2 -2 178374 5447.07 8
2 2 -2 174063 5837.63 9
-2 -2 2 178433 5748.69 9
2 2 -2 183735 5764.76 11
2 2 -2 174487 5271.17 6
-2 -2 2 178397 5219.91 6
-2 -2 2 191167 4746.39 10
-2 -2 2 180899 5607.05 11
2 2 -1 75856.6 2613.69 4
-2 -2 1 77646.6 2137.54 2
-2 -2 1 72919.4 2556.02 4
-2 -2 1 71767.6 2614.72 8
2 2 -1 76726.7 2651.72 8
2 2 -1 71938 2696.22 11
-2 -2 1 80942.8 2365.49 6
2 2 -1 69890.1 2809.71 9
2 2 -1 73740.1 2382.15 6
-2 -2 1 71876.1 2604.31 11
-2 -2 1 78134.9 2828.43 9
2 2 0 38678.9 1295.68 2
-2 -2 0 37953.7 1445.44 4
-2 -2 0 37434.7 1601.44 8
2 2 0 38741.2 1623.74 8
-2 -2 0 39238.2 1299.7 2
2 2 0 37846.9 1520.25 11
-2 -2 0 37046.4 1460.99 11
2 2 0 38429.1 1195.59 10
2 2 0 44241.5 1836.7 9
-2 -2 -1 717732 18670.1 8
2 2 1 699734 18304.9 2
2 2 1 747803 18712.9 8
-2 -2 -1 711826 18371 2
-2 -2 -1 715646 18177.9 11
2 2 1 739644 18275.9 11
-2 -2 -2 21008.3 1134.65 8
2 2 2 22852 1167.32 8
-2 -2 -2 23134.3 1087.3 2
-2 -2 -2 19880.1 1170.36 1
2 2 2 22411.6 1015.23 2
-2 -2 -2 22032.2 878.3 5
2 2 3 135226 4218.54 8
2 2 3 138113 4396.01 1
-2 -2 -3 131741 4355.34 1
-2 -2 -3 131345 3639.18 4
-2 -2 -3 129872 4141.07 2
-2 -2 -3 130815 3917.86 7
-2 -2 -3 136011 3937.28 12
-2 -2 -3 137612 3880.4 5
2 2 3 126290 3998.54 2
2 2 3 132217 3824.31 5
-2 -2 -4 177996 5183.37 12
2 2 4 182005 5421.72 8
-2 -2 -4 171213 4873.82 4
2 2 4 179182 5243.73 2
-2 -2 -4 174797 5434.2 2
-2 -2 -4 167263 4650.45 7
-2 -2 -4 171126 4726.48 3
-2 -2 -4 175018 5565.82 1
-2 -2 -4 182487 5114.19 5
2 2 4 175101 4562.71 11
2 2 4 183810 5087.7 5
2 2 4 177259 5621.29 1
2 2 5 452.505 160.036 12
-2 -2 -5 661.06 127.921 3
-2 -2 -5 667.298 241.473 1
2 2 5 487.734 201.964 8
-2 -2 -5 426.5 131.798 4
-2 -2 -5 657.981 203.756 12
2 2 5 618.861 196.498 2
-2 -2 -5 701.996 187.548 5
2 2 5 764.491 265.76 1
-2 -2 -5 487.612 194.338 2
2 2 5 415.028 103.88 11
2 2 5 553.428 162.121 5
-2 -2 -6 57284.7 2509.8 12
-2 -2 -6 54896.2 2276.93 4
2 2 6 57658.5 2530.32 8
2 2 6 59973.3 2474.29 2
-2 -2 -6 57598 2683.86 1
2 2 6 55674.4 2299.57 12
-2 -2 -6 63739.7 2485.26 5
2 2 6 60669.9 2782.55 1
-2 -2 -6 55280.1 2680.89 2
2 2 6 60801.6 2374.75 5
2 2 6 60257.3 2063.73 11
-2 -2 -7 1742.75 363.918 4
2 2 7 2118.89 505.729 1
2 2 7 1907.81 308.061 11
2 2 7 1999.86 409.415 8
-2 -2 -7 2164.12 444.671 12
-2 -2 -7 2254.59 477.195 1
-2 -2 -7 2238.59 423.092 5
2 2 7 2141.87 419.057 2
-2 -2 -8 2624.48 493.354 4
2 2 8 2301.89 543.484 1
-2 -2 -8 1711.98 396.573 5
2 2 8 3924.45 584.839 2
-2 -2 -8 2466.28 522.261 12
2 2 8 3012.05 425.203 11
2 2 8 2557.68 503.647 8
-2 -2 -9 37849.7 2282.83 4
2 2 9 45548.8 2311.09 2
-2 -2 -9 41969.8 2524.04 12
-2 -2 -9 45142.5 2420.29 5
2 2 9 43263.5 2629.34 1
-2 -2 -10 1271.31 389.67 5
2 2 10 1457.54 423.081 1
-2 -2 -10 1265.98 407.776 4
2 2 10 1050.69 362.103 2
-2 -2 -10 1111.74 432.977 12
-2 -2 -11 4358.16 823.692 4
2 2 11 4912.57 750.218 2
2 2 11 3664.14 789.947 1
2 2 12 114.115 192.798 2
-2 -3 10 865.962 344.268 1
-2 -3 9 11422.6 1206.58 8
-2 -3 9 10642.5 1198.28 1
2 3 -9 8755.02 1266.15 4
2 3 -9 11523.6 1649.19 11
-2 -3 8 3553.09 638.945 8
2 3 -8 3980.47 791.976 4
-2 -3 8 2988.25 595.43 1
2 3 -8 4931.91 991.368 11
2 3 -8 5168.21 945.52 9
2 3 -7 47633.9 3104.19 11
-2 -3 7 51887.8 1584.35 2
-2 -3 7 47842 2534.09 1
2 3 -7 49539.3 2853.57 4
-2 -3 7 49336.5 2571.59 8
2 3 -7 47406 2935.63 9
-2 -3 6 11056 1218.79 9
-2 -3 6 11593.6 475.793 2
2 3 -6 11494.8 1186.94 4
-2 -3 6 10851.2 1042.37 8
2 3 -6 10305.7 1264.84 11
-2 -3 6 13468.1 1151.37 6
2 3 -6 10783.6 1239.73 9
-2 -3 6 11328.6 1054.05 1
-2 -3 5 1346.97 383.408 9
-2 -3 5 1145.77 290.289 6
-2 -3 5 906.009 278.632 8
2 3 -5 1079.36 333.19 4
2 3 -5 1412.99 413.704 11
2 3 -5 888.784 339.193 9
2 3 -4 86360.9 3387.43 4
-2 -3 4 83122 3262.85 8
2 3 -4 82819.5 3581.92 11
-2 -3 4 81434.7 3001.16 6
-2 -3 4 87206.6 3394.97 11
2 3 -4 83040.2 3621.46 9
-2 -3 4 84952.7 3487.43 9
-2 -3 4 84678.5 3284.21 4
-2 -3 3 94160.6 3377.14 4
-2 -3 3 95089.6 3463.82 8
2 3 -3 96474.4 3483.96 4
-2 -3 3 89783.9 3006.39 6
-2 -3 3 98657.8 2811.57 10
2 3 -3 88224.9 3600.52 11
-2 -3 3 96129.5 3491.23 11
2 3 -3 86857.4 3629.67 9
-2 -3 3 99740.6 3641.95 9
2 3 -2 67440.1 2831.38 9
-2 -3 2 67622.1 2527.39 4
-2 -3 2 67659.7 2654.47 8
2 3 -2 68004.9 2653.8 8
-2 -3 2 68330.2 2158.16 6
2 3 -2 68499.9 2604.58 4
2 3 -2 69277 2752.56 11
-2 -3 2 70106 2078.06 10
-2 -3 2 66969.5 2594.75 11
2 3 -2 69982.3 2219.23 6
2 3 -1 334535 8569.44 2
2 3 -1 343701 9148.51 4
-2 -3 1 340473 9047.31 4
-2 -3 1 348342 9366.02 8
2 3 -1 331223 9327.22 8
-2 -3 1 339114 8685.84 2
2 3 -1 325968 8660.53 6
-2 -3 1 333408 8666.88 10
2 3 -1 346997 9306.05 11
-2 -3 1 340605 9168.3 11
2 3 -1 335148 8663.88 10
2 3 -1 307478 9464.13 9
2 3 0 39365.7 1446.73 4
-2 -3 0 38099 1395.29 4
-2 -3 0 38155.1 1704.71 8
2 3 0 37910 1345.35 2
-2 -3 0 39085.9 1439.13 2
-2 -3 0 38331.4 1368.4 10
2 3 0 42201.9 1582.89 11
-2 -3 0 43438 1555.8 11
2 3 0 34749.7 1332.66 10
2 3 0 39625.4 1721.26 8
-2 -3 -1 116916 3810.54 8
-2 -3 -1 117915 3226.74 4
2 3 1 121752 3837.4 8
2 3 1 116749 3521.7 2
-2 -3 -1 122558 3675.93 2
2 3 1 121105 3426.65 11
2 3 1 117367 3545.5 10
-2 -3 -2 14296.4 914.974 8
-2 -3 -2 13333.1 951.859 1
2 3 2 12689.5 803.75 2
-2 -3 -2 12474.2 869.621 2
2 3 2 12383.9 856.801 8
2 3 2 13543.5 824.993 10
-2 -3 -2 14628.1 734.235 5
-2 -3 -3 12947.4 891.935 8
2 3 3 14085.9 921.999 8
2 3 3 14169.4 918.69 2
-2 -3 -3 12427.7 957.812 2
-2 -3 -3 14302 793.349 3
-2 -3 -3 14949.5 853.48 12
2 3 3 13944.1 913.658 10
-2 -3 -3 13886.7 797.707 5
-2 -3 -3 14091.8 1020.63 1
-2 -3 -4 69591.5 2818.51 1
2 3 4 70154 2672.64 2
2 3 4 66298.1 2565.49 8
-2 -3 -4 65753 2827.41 2
-2 -3 -4 65394.3 2313.56 3
-2 -3 -4 67578 2095.08 4
-2 -3 -4 67555.5 2511.42 12
-2 -3 -4 72455.9 2508.94 5
2 3 4 72937.4 2481.01 5
2 3 5 32827.9 1336.11 11
-2 -3 -5 30215.6 1314.03 4
2 3 5 32286.2 1614.71 8
2 3 5 32732.8 1812.1 1
-2 -3 -5 30002.9 1529.19 5
2 3 5 35131.7 1759.28 2
-2 -3 -5 31796.6 1880.09 2
-2 -3 -5 32755.4 1635.06 12
-2 -3 -5 30849 1394.41 3
-2 -3 -5 29732.4 1729.12 1
2 3 5 32786 1533.29 5
-2 -3 -6 33565.9 1599.24 4
2 3 6 36085.9 2040.08 1
2 3 6 39384.5 1992.2 2
-2 -3 -6 39116.6 2075.21 1
-2 -3 -6 39577.3 1893.89 5
-2 -3 -6 38289.7 1672.97 3
2 3 6 35811.1 1815.12 8
2 3 6 35739.1 1575.03 11
-2 -3 -6 37452.4 1915.72 12
2 3 7 9147.33 995.746 1
-2 -3 -7 8346.12 778.475 4
2 3 7 8892.26 849.801 8
2 3 7 11740.3 1045.63 2
-2 -3 -7 8800.94 958.404 1
-2 -3 -7 10105.4 988.972 12
-2 -3 -7 10001.6 940.511 5
-2 -3 -7 8262.8 710.469 3
2 3 7 8480.43 720.339 11
2 3 8 3137.52 513.319 8
-2 -3 -8 2847.41 499.506 4
2 3 8 4055.81 699.093 1
-2 -3 -8 4045.09 678.729 12
2 3 8 3182.56 569.044 2
2 3 8 3739.91 498.946 11
-2 -3 -8 3136.8 562.493 5
-2 -3 -9 22187.5 1619.08 4
-2 -3 -9 30759.5 2078.94 12
2 3 9 25773.6 1789.95 2
2 3 9 24130.8 1857.9 1
-2 -3 -9 25591.8 1798.53 5
2 3 9 25731.9 1950.96 10
-2 -3 -10 5258.8 797.901 4
2 3 10 4319.3 795.52 1
2 3 10 4754.63 749.492 2
2 3 10 4180.51 799.928 10
-2 -3 -10 4612.73 774.625 5
-2 -3 -10 4023.4 781.911 12
2 3 11 2271.64 543.214 2
-2 -4 10 2394.22 620.558 8
-2 -4 10 3099.05 733.078 1
2 4 -9 28862 2399.58 4
-2 -4 9 30730.5 2236.12 1
-2 -4 9 30667.7 2185.15 8
2 4 -9 33851.2 2906.56 11
2 4 -8 449.276 284.42 9
-2 -4 8 202.295 258.327 8
2 4 -8 -18.1563 115.28 4
-2 -4 8 384.938 232.428 1
2 4 -8 384.849 251.101 11
-2 -4 7 1992.81 481.437 8
2 4 -7 2862.92 635.039 4
-2 -4 7 2869.76 582.05 1
-2 -4 7 1898.57 454.678 6
2 4 -7 3075.81 729.099 11
2 4 -7 3871.4 760.712 9
-2 -4 6 175.2 173.772 9
-2 -4 6 268.477 190.77 1
-2 -4 6 228.766 166.382 8
2 4 -6 26.5357 130.488 4
-2 -4 6 33.92 75.7206 6
2 4 -6 121.749 202.548 11
2 4 -6 485.079 300.377 9
-2 -4 5 1667.46 423.93 9
-2 -4 5 1131.76 357.541 8
2 4 -5 1773.1 431.885 4
2 4 -5 1254.63 400.625 11
-2 -4 5 1291.67 282.498 6
2 4 -5 893.874 332.319 9
2 4 -4 43466.5 2246.98 4
-2 -4 4 48403.6 2384.66 8
-2 -4 4 52570.7 2313.25 4
-2 -4 4 46117.1 2295.93 11
-2 -4 4 46935.3 1861.5 6
2 4 -4 46573 2492.73 11
-2 -4 4 48305.6 1818.21 10
2 4 -4 44003.9 2448.97 9
2 4 -3 28853.4 1600.01 4
-2 -4 3 32081 1765.31 8
-2 -4 3 30513.2 1577.34 4
-2 -4 3 29915.1 1263.87 10
2 4 -3 28076.4 1720.36 11
-2 -4 3 28772.2 1155.99 6
2 4 -3 29988.7 1808.58 9
-2 -4 3 31243.7 1680.75 11
-2 -4 2 111615 4043.7 8
2 4 -2 114989 3839.38 4
2 4 -2 116904 3070.49 2
-2 -4 2 117514 3762.1 4
2 4 -2 114504 4028.95 11
-2 -4 2 111581 3436.17 10
2 4 -2 116575 4198.05 9
2 4 -1 176137 5044.97 4
-2 -4 1 159976 5323.58 8
2 4 -1 175494 5405.68 8
-2 -4 1 174683 4930.42 4
2 4 -1 163077 4620.09 2
-2 -4 1 169014 4822.42 10
2 4 -1 174687 5230.59 11
2 4 -1 170826 4825.74 10
2 4 0 5649.93 449.467 4
-2 -4 0 5694.03 484.933 10
-2 -4 0 5705.55 608.159 8
2 4 0 6451.27 649.131 8
-2 -4 0 6778.13 440.894 4
2 4 0 5938.81 472.142 2
-2 -4 0 5064.84 500.769 2
2 4 0 5867.21 492.393 10
2 4 0 5794.28 526.041 11
2 4 1 16065.6 662.702 4
-2 -4 -1 16853.2 1063.88 8
2 4 1 16069.5 930.455 2
-2 -4 -1 15772.7 1021.97 2
-2 -4 -1 15617.7 917.874 10
2 4 1 15851.3 932.296 10
2 4 1 16137.7 1042.61 8
-2 -4 -2 1276.46 228.994 5
-2 -4 -2 1491.92 303.609 8
2 4 2 1333.78 277.981 8
2 4 2 1457.34 291.894 2
-2 -4 -2 952.62 260.241 2
-2 -4 -2 1258.55 248.369 3
2 4 2 1155.28 251.955 10
-2 -4 -3 457.118 156.919 3
-2 -4 -3 328.298 147.428 8
2 4 3 198.614 116.32 8
-2 -4 -3 -6.76608 49.3923 1
2 4 3 594.977 194.41 10
-2 -4 -3 208.378 100.164 12
2 4 3 112.704 93.2756 2
-2 -4 -3 164.794 86.7243 2
-2 -4 -3 386.086 142.851 5
-2 -4 -4 27065.9 1438.89 8
2 4 4 29881.8 1477.67 8
2 4 4 27925 1605.37 2
-2 -4 -4 29164.7 1131.51 7
-2 -4 -4 27335.5 1748.28 2
-2 -4 -4 28309.7 1446.79 3
-2 -4 -4 28319.2 1445.64 12
2 4 4 25937.7 1536.39 10
-2 -4 -4 28557.4 1425.2 5
-2 -4 -4 28940.3 1649.48 1
2 4 5 11321.7 1020.93 2
-2 -4 -5 10063.2 535.215 7
-2 -4 -5 10325.9 870.483 3
-2 -4 -5 10279.1 873.366 12
-2 -4 -5 12564.6 1076.61 1
2 4 5 11307.9 1010.98 10
-2 -4 -5 12739.7 954.291 5
2 4 5 11398.7 885.675 5
2 4 5 12105.6 888.712 8
2 4 6 33337.3 1929.69 2
2 4 6 32638.1 1943.03 10
-2 -4 -6 31609.4 1776.68 12
2 4 6 31992.9 1624.1 8
-2 -4 -6 30882.5 1726.9 5
-2 -4 -6 29279.5 1815.29 1
2 4 6 32011.1 1617.19 11
-2 -4 -6 31312.5 1754.29 3
2 4 7 17262.5 1161.64 8
2 4 7 15419.7 1366.69 10
2 4 7 18595.1 996.323 4
2 4 7 18691.5 1453.31 2
-2 -4 -7 15587.4 1305.4 12
-2 -4 -7 15684.3 1307.99 1
2 4 7 16739.7 1154.92 11
-2 -4 -7 15261.6 1235.84 3
-2 -4 -7 19766.3 1395.37 5
2 4 8 6646.37 891.72 2
-2 -4 -8 8190.05 943.642 5
-2 -4 -8 5792.75 828.371 12
2 4 8 6354.97 907.096 10
2 4 9 56444 2949.01 2
-2 -4 -9 52772.3 2954.91 12
2 4 9 52637.8 3029.04 10
-2 -4 -9 50283.7 2778 5
2 4 10 10475.3 1210.71 2
2 4 10 10223 1292.25 10
-2 -4 -10 10916.7 1245.59 5
-2 -5 10 2622.63 692.156 8
-2 -5 10 1167.13 433.844 1
2 5 -9 18990.1 1907.08 4
-2 -5 9 16331 1654.45 1
-2 -5 9 18412.4 1748.1 8
2 5 -9 14350.8 1902.69 11
2 5 -9 15439.7 1677.89 9
-2 -5 8 3202.55 683.644 8
2 5 -8 2636.9 670.947 4
-2 -5 8 3797.02 746.287 1
2 5 -8 3092.24 717.844 9
2 5 -8 3456.12 848.378 11
2 5 -7 9096.52 1148.18 4
-2 -5 7 7439.05 1017.73 8
-2 -5 7 7747.54 1027.15 1
2 5 -7 8013.52 1219.03 11
-2 -5 7 8936.34 839.538 10
2 5 -7 8305.95 1116.63 9
2 5 -6 13265.5 1325.46 4
-2 -5 6 13379.2 1327.6 8
-2 -5 6 14386.8 1065.95 6
2 5 -6 13380.5 1483.93 11
-2 -5 6 15253.4 1047.63 10
-2 -5 6 15405.4 1400 1
2 5 -6 14657.7 1449.44 9
2 5 -5 322.217 258.003 9
-2 -5 5 190.336 89.2234 10
-2 -5 5 343.608 212.477 8
2 5 -5 129.584 177.249 4
-2 -5 5 399.923 150.789 6
2 5 -5 46.6658 180.875 11
2 5 -4 6293.26 836.694 9
2 5 -4 6777.33 789.102 4
-2 -5 4 6137.59 822.302 8
-2 -5 4 6718.88 493.901 6
2 5 -4 7338.6 900.822 11
-2 -5 4 7129.55 630.077 10
2 5 -3 195.688 148.628 9
-2 -5 3 180.357 168.851 8
2 5 -3 148.554 124.133 4
-2 -5 3 5.40473 97.6106 4
-2 -5 3 126.51 103.258 10
2 5 -3 439.645 240.013 11
2 5 -2 15952 1075.89 4
-2 -5 2 18799 1352.03 8
-2 -5 2 19579 1096.71 4
2 5 -2 17500 771.573 2
2 5 -2 19477.3 1303.05 11
-2 -5 2 15608.7 956.535 10
2 5 -2 19430.4 1031.77 10
2 5 -1 100834 3298.29 4
-2 -5 1 101468 3204.69 4
2 5 -1 95216.8 3093.27 2
2 5 -1 103862 3562.12 11
-2 -5 1 95692.4 3687.93 8
-2 -5 1 94362.9 3270.18 10
2 5 -1 102280 3314.14 10
-2 -5 0 1396.52 316.422 8
2 5 0 985.027 270.48 8
2 5 0 1491.6 232.254 4
2 5 0 1336.65 163.56 6
-2 -5 0 1280.27 295.152 3
2 5 0 1152.16 244.289 2
-2 -5 0 1303.54 268.134 10
2 5 0 1074.51 239.798 10
2 5 0 1542.95 301.757 11
2 5 1 174071 4556.89 4
-2 -5 -1 161991 5278.31 8
2 5 1 163906 5288.37 8
2 5 1 157392 5136.21 2
-2 -5 -1 166519 5271.77 3
2 5 1 166055 4840.65 6
2 5 1 160107 5103.61 10
-2 -5 -1 171232 5166 10
-2 -5 -2 161.938 100.53 8
2 5 2 95.748 79.0942 8
2 5 2 51.6931 58.9622 2
2 5 2 37.1439 91.0999 6
-2 -5 -2 78.1298 102.066 3
-2 -5 -2 89.6164 80.5947 10
2 5 2 244.827 149.062 10
-2 -5 -3 4676.53 555.974 8
2 5 3 4778.48 548.784 8
2 5 3 5166.34 661.218 2
-2 -5 -3 4584.47 584.441 3
2 5 3 4381.95 576.522 6
-2 -5 -3 3876.99 480.947 12
2 5 3 4584.92 594.747 10
-2 -5 -3 4343.27 492.41 5
-2 -5 -4 52852.2 2227.87 5
-2 -5 -4 49928.6 2183.63 8
-2 -5 -4 51523.2 1991.89 7
2 5 4 54247.1 2560.67 2
-2 -5 -4 54214.7 2439.81 3
2 5 4 51921.9 2538.08 6
-2 -5 -4 55019.5 2260.19 12
2 5 4 49435.8 2420.24 10
2 5 4 53222.4 2210.37 8
-2 -5 -4 49041.9 2406.17 1
-2 -5 -5 154.517 146.993 12
-2 -5 -5 51.9325 69.995 1
2 5 5 63.2168 67.713 8
-2 -5 -5 22.891 36.9278 7
-2 -5 -5 74.5977 118.114 3
2 5 5 87.851 152.806 2
-2 -5 -5 263.572 175.462 5
2 5 5 421.652 213.585 10
2 5 6 22485.5 1293.3 8
-2 -5 -6 21817.2 1592.38 3
2 5 6 24956.1 976.871 4
2 5 6 24253.4 1712.28 2
-2 -5 -6 18770.3 838.069 7
-2 -5 -6 22009.3 1546.31 1
-2 -5 -6 18872 1387.21 12
2 5 6 23512.1 1681.3 10
-2 -5 -6 21372.3 1453.71 5
-2 -5 -7 2885.13 560.182 1
2 5 7 4007.25 602.343 11
2 5 7 4207.87 715.895 2
-2 -5 -7 3331.44 636.651 3
2 5 7 4112.91 721.496 10
-2 -5 -7 3132.18 552.356 5
-2 -5 -7 2952.9 554.657 12
-2 -5 -8 52.2991 162.351 12
2 5 8 40.1515 141.765 2
2 5 8 623.804 338.176 10
-2 -5 -8 214.646 185.184 5
2 5 9 12968.5 1390.68 2
2 5 9 13268.3 1451.5 10
-2 -5 -9 13316.1 1393.35 12
-2 -5 -9 12072.6 1279.47 5
-2 -6 9 4815.69 921.951 8
-2 -6 9 4691.33 908.398 1
-2 -6 8 4999.36 907.154 8
2 6 -8 4577.72 874.785 4
-2 -6 8 3609.71 761.223 1
2 6 -8 3822.94 921.111 11
2 6 -8 2569.93 634.835 9
2 6 -7 33282.4 2374.99 4
-2 -6 7 36946.4 2533.11 8
2 6 -7 33715.1 2677.85 11
2 6 -7 34960.9 2439.39 9
-2 -6 7 39457 2567.42 1
2 6 -6 47804.1 2779.71 4
-2 -6 6 53499.4 3036.62 8
2 6 -6 49888.1 3122.66 11
-2 -6 6 54982 2408.35 10
-2 -6 6 49858 2894.68 1
2 6 -6 54185.1 3020.28 9
2 6 -5 2973.68 615.255 9
2 6 -5 3494.93 697.171 11
-2 -6 5 2926.44 459.516 10
-2 -6 5 4180.65 748.908 8
2 6 -5 2908.58 565.144 4
-2 -6 5 2534.14 301.764 6
2 6 -4 36673.1 2074.18 4
-2 -6 4 40210.9 2396.17 8
2 6 -4 43127 2446.94 11
-2 -6 4 39171.6 1876.92 10
2 6 -4 37435.7 2285.9 9
2 6 -3 71688.9 2944.69 4
-2 -6 3 68915.9 3262.48 8
2 6 -3 69811.4 2174.47 2
2 6 -3 71231.7 3197.16 11
-2 -6 3 68876.3 2712.87 10
2 6 -3 76351.3 3355.36 9
2 6 -2 20916.4 1266.84 4
-2 -6 2 20807.1 1535.63 8
2 6 -2 19877.4 1199.54 10
2 6 -2 19724.7 1017.38 2
-2 -6 2 20955 1230.29 10
2 6 -2 22989.2 1497.56 11
2 6 -1 78846.5 2808.39 4
-2 -6 1 73913.9 3238.15 8
-2 -6 1 77656.6 2941.89 10
2 6 -1 77321.4 2799.36 2
-2 -6 1 80426.3 3200.09 3
2 6 -1 84875.7 3190.26 11
2 6 -1 75550.5 2895 10
-2 -6 0 2070.45 425.176 8
2 6 0 2256.6 309.824 4
2 6 0 1982.14 212.347 6
-2 -6 0 1933.78 393.999 3
2 6 0 2436.28 408.103 10
2 6 0 2257.4 397.306 2
-2 -6 0 2860.24 437.878 10
2 6 1 2094.37 247.538 4
-2 -6 -1 1702.34 375.127 8
2 6 1 1716.99 377.016 8
-2 -6 -1 2681.63 441.956 10
-2 -6 -1 1832.68 393.068 3
2 6 1 2585.6 449.709 2
2 6 1 2162.12 316.922 6
2 6 1 2569.07 431.269 10
-2 -6 -2 86337.8 3344.93 8
2 6 2 90746.8 2502.83 4
2 6 2 85384.6 3340.92 8
2 6 2 86588.5 3511.53 2
-2 -6 -2 85586.8 3383.89 10
-2 -6 -2 88750 3530.42 3
2 6 2 89237.4 3214.91 6
2 6 2 84685.3 3378.76 10
-2 -6 -3 38514.8 1913.35 8
2 6 3 40405.6 1929.94 8
-2 -6 -3 39648.9 1850.72 7
2 6 3 36850.7 2126.01 2
-2 -6 -3 39763.7 1865.03 5
-2 -6 -3 35885.5 2078.33 3
2 6 3 38975.7 2029.26 6
-2 -6 -3 37491.8 1816.96 12
2 6 3 37159.4 2035.84 10
-2 -6 -4 40961.2 1947.01 8
-2 -6 -4 37546.5 2138.67 1
2 6 4 38224.3 1870.61 8
-2 -6 -4 41767.2 1929.72 7
2 6 4 41570.4 2344.32 2
-2 -6 -4 40270 2269.41 3
2 6 4 38407.1 2200.39 6
2 6 4 37840 2154.61 10
-2 -6 -4 46010.4 2078.71 5
-2 -6 -4 38919.8 1941.53 12
-2 -6 -5 14166.9 1035.12 8
-2 -6 -5 14799.6 1055.3 7
2 6 5 14357.7 1019.25 8
-2 -6 -5 14269.4 1343.99 3
-2 -6 -5 14113.4 1137.86 12
-2 -6 -5 15493 1193.7 5
-2 -6 -5 14543.6 1248.6 1
2 6 5 16219.2 1429.43 2
2 6 5 14432.1 1285.39 10
2 6 6 13242.9 969.685 8
2 6 6 14410.3 1412 2
2 6 6 12720.8 1289.27 10
-2 -6 -6 15494.1 1474.11 3
-2 -6 -6 14039.4 1211.64 12
-2 -6 -6 15445.9 1317 1
-2 -6 -6 14314 1223.71 5
2 6 7 10723.2 1219.92 10
2 6 7 9512.11 1178.19 2
-2 -6 -7 9067.14 1055.86 12
-2 -6 -7 11033 1120.09 5
2 6 8 7828.32 1094.42 2
-2 -6 -8 6567.3 934.275 12
-2 -6 -8 7571.15 976.434 5
2 6 8 7564.75 1083.46 10
-2 -7 8 1560.29 534.218 8
2 7 -8 2955.77 753.731 4
-2 -7 8 2840.45 709.929 1
2 7 -7 9936.42 1254.41 4
-2 -7 7 10978.4 1385.52 8
-2 -7 7 9740.51 1272.32 1
2 7 -7 7576.56 1258.57 11
2 7 -7 7495.6 1105.46 9
2 7 -6 48870.9 2839.15 4
2 7 -6 46476.6 2862.69 9
-2 -7 6 50903.6 3083.46 8
2 7 -6 51289.9 3230.26 11
-2 -7 6 53896.8 3135.55 1
-2 -7 5 6999.97 1033.24 8
2 7 -5 8212.86 1148.26 11
2 7 -5 8313.03 997.269 4
2 7 -5 8212.87 1064.6 9
2 7 -4 16607.6 1351.14 4
-2 -7 4 16314.2 1542.37 8
2 7 -4 16083 728.688 2
2 7 -4 18650 1619.28 11
2 7 -4 15179.8 1441.42 9
2 7 -3 23944.6 1734.47 11
2 7 -3 18570.5 1358.72 4
-2 -7 3 23115.6 1789.99 8
2 7 -3 21506.4 1074.7 2
-2 -7 3 19388.2 1331.34 10
2 7 -3 24237.2 1793.78 9
2 7 -2 40707.7 1980.98 4
-2 -7 2 37697.5 2311.03 8
2 7 -2 38935.6 1789.45 2
2 7 -2 43904.2 2318.8 11
-2 -7 2 39468.9 2009.89 10
2 7 -2 41737.4 2023.36 10
-2 -7 1 36314.6 2136.33 8
2 7 -1 39215.5 1753.33 4
2 7 -1 35442.7 1802.2 2
-2 -7 1 32474.5 1817.14 10
2 7 -1 33628.3 1814.61 10
2 7 -1 33955.8 1949.18 11
-2 -7 0 6627.94 823.447 8
2 7 0 6001.55 549.82 4
2 7 0 5981.31 713.08 2
2 7 0 5479.08 387.31 6
2 7 0 5915.6 706.89 10
-2 -7 -1 10062.7 1007.3 8
2 7 1 12425.8 724.307 4
-2 -7 -1 11681.3 1051.52 7
2 7 1 12755.4 1131.19 2
2 7 1 10944.7 1015.56 10
2 7 1 10849.3 773.863 6
-2 -7 -2 29959.6 1771.83 8
2 7 2 33207 1177.46 4
-2 -7 -2 29868.5 1754.22 7
2 7 2 28891.2 1901.53 2
2 7 2 26462.6 1551.27 6
2 7 2 28838.8 1784.44 10
2 7 3 14093 603.567 4
2 7 3 11766.5 1088.47 6
-2 -7 -3 15400.7 1171.43 8
2 7 3 14763.1 574.342 4
2 7 3 13400.8 1100.75 8
-2 -7 -3 16471.6 1228.96 7
2 7 3 14227.4 1339.68 2
2 7 3 14689.9 1280.87 10
-2 -7 -3 14299.6 1113.99 5
-2 -7 -3 14742.2 1103 12
-2 -7 -4 48975.9 2283.06 8
2 7 4 48602.7 2252.25 8
-2 -7 -4 45145.3 2528.01 1
-2 -7 -4 52443.2 2450.22 7
2 7 4 49301.1 2767.05 2
-2 -7 -4 47402.2 2306.33 12
-2 -7 -4 50718.9 2410.9 5
2 7 4 47063.6 2590.59 10
-2 -7 -5 2752.86 455.067 8
2 7 5 3196.21 646.058 10
2 7 5 1791.69 504.818 2
-2 -7 -5 3171.1 542.084 12
-2 -7 -5 2720.85 512.671 5
2 7 6 16108.4 1586.94 2
-2 -7 -6 16547.8 1378.64 12
2 7 6 15284.3 1484.72 10
-2 -7 -6 16838.6 1390.62 5
-2 -7 -7 10421.6 1144.97 5
2 7 7 10215.2 1297.35 2
-2 -7 -7 10023.9 1121.97 12
2 7 7 8845.69 1163.43 10
-2 -7 -8 99.5025 179.28 12
-2 -8 7 488.568 352.071 8
2 8 -7 575.722 388.564 4
-2 -8 7 989.49 422.88 1
2 8 -6 5254.97 907.721 9
-2 -8 6 6679.62 1112.78 1
-2 -8 6 7152.96 1136.8 8
2 8 -6 7717.03 1058.59 4
2 8 -6 8712.59 1294.55 11
2 8 -5 248.592 198.07 9
-2 -8 5 46.8924 130.374 8
2 8 -5 46.5838 100.076 4
2 8 -5 26.0266 146.683 11
2 8 -4 1230.9 419.726 9
-2 -8 4 897.044 389.874 8
2 8 -4 895.207 330.275 4
2 8 -4 927.379 387.611 11
2 8 -3 15322.6 1252.54 4
-2 -8 3 14675.7 1488.72 8
2 8 -3 13051.3 953.97 2
2 8 -3 17916 1559.66 11
2 8 -2 16421.6 1227.66 4
-2 -8 2 18506.8 1625.37 8
2 8 -2 17110.5 1214.47 2
2 8 -2 18945.6 1376.35 10
2 8 -2 20124.7 1601.94 11
2 8 -1 48319.5 2125.03 4
2 8 -1 41333.5 2206.24 2
2 8 -1 44721.3 2323.42 10
-2 -8 1 46678.7 2630.71 8
2 8 0 3524.08 605.64 10
-2 -8 0 3096.18 617.033 8
2 8 0 3056.14 422.756 4
2 8 0 4020.6 650.101 2
2 8 1 4554.09 457.994 4
-2 -8 -1 4504.54 697.962 8
2 8 1 5318.18 783.195 2
2 8 1 3946.96 472.654 6
2 8 1 3496.6 616.47 10
-2 -8 -2 6251.35 806.05 8
2 8 2 6889.47 503.698 4
2 8 2 6052.72 698.133 6
2 8 2 6716.62 874.295 10
2 8 2 7225.54 978.293 2
-2 -8 -2 8052.07 840.69 5
-2 -8 -3 -23.8073 127.524 5
-2 -8 -3 72.3549 114.557 12
-2 -8 -3 252.498 184.322 8
2 8 3 39.2237 172.411 6
2 8 3 542.901 305.206 2
2 8 3 121.464 177.98 10
-2 -8 -4 33925.4 1906.65 8
-2 -8 -4 33543.5 1944.75 12
-2 -8 -4 32851.4 2135.33 7
2 8 4 35328.7 2414.65 2
2 8 4 34510.8 2259.21 10
-2 -8 -4 35745.6 2061.02 5
2 8 5 19215 1804.82 2
2 8 5 19570.8 1721.24 10
-2 -8 -5 22312.8 1629.24 5
-2 -8 -5 18531.5 1466.86 12
2 8 6 911.911 378.803 2
2 8 6 840.841 370.035 10
-2 -8 -6 521.547 261.357 12
-2 -8 -6 970.199 351.443 5
-2 -8 -7 1068.26 385.564 12
2 9 -6 1596.75 500.843 4
2 9 -5 407.527 226.342 9
2 9 -5 1313.05 514.341 11
-2 -9 5 313.482 345.884 8
2 9 -5 1258.66 419.347 4
2 9 -4 42902.6 2472.54 4
-2 -9 4 40659.8 2828.43 8
2 9 -4 38119.8 2677.49 11
2 9 -4 36286.5 2533.58 9
-2 -9 3 7380.82 1116.14 8
2 9 -3 7618.08 786.951 2
2 9 -3 8390.98 957.023 4
2 9 -3 9987.12 1220.96 11
2 9 -2 11397 1064.27 4
-2 -9 2 11430.8 1369.77 8
2 9 -2 11969.2 1095.36 2
2 9 -2 14824 1447.97 11
2 9 -2 13868.3 1243.66 10
2 9 -1 37989.5 1957.65 4
-2 -9 1 37219.2 2452.88 8
2 9 -1 36786.8 2179.13 2
2 9 -1 37935.8 2239.75 10
2 9 0 1133.31 360.046 2
-2 -9 0 150.889 267.33 8
2 9 0 994.579 260.629 4
2 9 0 1078.81 363.35 10
-2 -9 -1 7346.99 956.478 8
2 9 1 8089.56 1014.27 10
2 9 1 6565.94 941.81 2
-2 -9 -2 461.863 235.319 5
-2 -9 -2 317.471 229.204 8
2 9 2 754.166 345.158 2
2 9 2 932.427 366.447 10
-2 -9 -3 1212.5 380.836 5
2 9 3 454.932 274.139 10
-2 -9 -3 598.716 254.749 8
-2 -9 -3 627.692 253.246 12
2 9 3 552.094 283.829 2
2 9 4 7129.24 1023.19 10
-2 -9 -4 7695.84 907.681 12
2 9 4 7518.5 1129.98 2
-2 -9 -4 5960.04 840.251 5
2 9 5 609.931 324.226 2
-2 -9 -5 732.137 332.333 5
-2 -9 -5 1379.51 396.226 12
-2 -9 -6 2134.32 520.759 12
2 10 -5 1022.49 425.055 4
2 10 -4 1248.83 470.462 9
-2 -10 4 459.433 350.021 8
2 10 -4 1171.15 399.274 4
-2 -10 3 3614.44 823.71 8
2 10 -3 2286.1 524.907 4
2 10 -3 3227.75 750.975 11
2 10 -2 15670.7 1334.65 4
-2 -10 2 17038.9 1752.13 8
2 10 -2 17337.3 1438.54 2
2 10 -2 20248.7 1827.19 11
2 10 -2 17959.5 1565.95 10
-2 -10 1 41852.4 2783.78 8
2 10 -1 43075.8 2549.44 2
2 10 -1 45677.7 2642.96 10
-2 -10 0 4458.09 834.209 8
2 10 0 4132.97 765.199 2
2 10 0 4369.88 768.545 10
-2 -10 -1 1063.45 377.55 8
2 10 1 1169.59 411.722 10
2 10 1 1323.61 461.731 2
-2 -10 -2 21988.4 1771.24 8
2 10 2 22573.3 1996.14 2
-2 -10 -2 22429.5 1596.14 12
2 10 2 23262.4 1951.66 10
-2 -10 -2 22615.3 1717.34 5
-2 -10 -3 8.93094 138.165 12
2 10 3 245.167 255.696 2
2 10 3 374.533 296.411 10
-2 -10 -4 2535.26 549.178 12
-2 -10 -5 599.214 294.131 12
2 11 -5 223.766 307.588 4
-2 -11 2 -139.142 292.24 8
2 11 -2 235.027 128.997 10
-2 -11 1 11388.6 1445.79 8
2 11 -1 10602.8 1277.37 10
-2 -11 0 503.799 276.119 8
2 11 0 142.91 160.604 2
-2 -11 -1 373.206 128.487 8
2 11 1 651.732 294.162 2
2 11 2 12365.9 1540.24 2
-2 -11 -2 11068.9 1141.36 12
-2 -11 -3 3059.1 610.616 12
3 -8 -3 517.862 366.627 5
3 -8 -2 7517.51 956.564 5
3 -8 -1 4649.03 984.455 6
3 -8 -1 6528.04 848.264 5
3 -8 0 992.287 449.728 6
3 -8 0 1595.38 400.61 5
3 -8 1 340.906 211.954 5
3 -8 1 512.243 304.711 6
3 -8 2 6042.54 1005.91 6
3 -8 2 6828.03 793.991 5
3 -8 3 -53.9481 110.955 1
3 -8 4 4477.41 874.32 1
3 -8 5 3651.69 811.168 1
3 -7 -4 803.78 353.17 5
-3 7 4 756.668 361.077 7
-3 7 3 5037.53 938.372 7
3 -7 -3 3549.05 880.389 6
-3 7 3 4048.78 770.92 10
3 -7 -3 4053.14 680.721 5
-3 7 2 -145.561 125.584 7
3 -7 -2 -99.1726 145.12 6
-3 7 2 6.54324 96.4999 10
3 -7 -2 108.544 161.717 5
-3 7 1 3160.74 740.731 7
3 -7 -1 3606.84 826.198 6
-3 7 1 2641.68 742.774 3
-3 7 1 2694.1 612.073 10
3 -7 -1 3827.9 597.045 5
-3 7 0 6741.51 1088.69 7
3 -7 0 5164.51 928.657 6
-3 7 0 5612.23 1056.18 3
3 -7 0 6071.44 731.528 5
-3 7 0 5945.91 895.301 10
3 -7 1 2889.62 484.299 5
-3 7 -1 2990.89 730.278 7
3 -7 1 2433.36 611.048 6
-3 7 -1 2018.11 617.414 3
3 -7 1 2506.45 506.017 1
-3 7 -2 17226.4 1767.9 7
3 -7 2 14563.6 1330.91 1
-3 7 -2 13834.1 1636.94 3
3 -7 2 13330.1 1063.33 5
3 -7 2 12709.5 1412.64 6
-3 7 -3 3655.17 817.521 3
3 -7 3 3169.12 673.923 6
3 -7 3 3978.99 735.2 1
3 -7 4 10340.9 1259.75 1
-3 7 -4 10870.2 1369.22 3
3 -7 4 10139 1190.52 6
-3 7 -5 10709.3 1323.78 3
3 -7 5 10791.9 1228.98 6
3 -7 5 8606.26 1203.01 1
3 -7 6 15275.3 1672.29 1
-3 7 -6 12664.7 1425.12 3
-3 7 -7 9384.8 1177.64 3
-3 6 5 251.746 171.829 3
-3 6 5 -151.271 263.736 7
-3 6 5 673.128 328.364 10
3 -6 -5 550.731 298.955 5
-3 6 4 555.399 337.779 7
3 -6 -4 746.719 411.724 6
-3 6 4 400.102 309.36 3
-3 6 4 975.692 394.075 10
3 -6 -4 740.682 293.858 5
-3 6 3 20016.4 1858.73 7
-3 6 3 23143.3 2237.84 3
3 -6 -3 22337.1 2147.75 6
-3 6 3 21475.4 1725.31 10
3 -6 -3 21222.9 1533.8 5
-3 6 2 292.967 221.613 10
-3 6 2 -24.2097 104.851 7
3 -6 -2 -36.3061 114.677 6
-3 6 2 78.4069 140.502 3
3 -6 -2 289.085 186.847 5
3 -6 -1 25553.7 2139.16 6
-3 6 1 25674.7 2106.65 7
-3 6 1 30044.5 2477.04 3
-3 6 1 25798.5 1830.84 10
3 -6 -1 23978.9 1497.98 5
-3 6 0 14533.9 1537.19 7
3 -6 0 11784.9 974.835 1
-3 6 0 12876.8 1558.77 3
3 -6 0 11343.9 1336.54 6
-3 6 0 12775.7 1228.01 10
3 -6 0 13622.3 1024.12 5
3 -6 1 6731.29 772.426 1
-3 6 -1 6829.44 1038.33 7
3 -6 1 6810.57 983.953 6
-3 6 -1 6523.24 1083.67 3
3 -6 1 7123.81 696.362 5
-3 6 -2 49997.2 3062.35 7
3 -6 2 49029.9 2517.68 1
-3 6 -2 49035 3093.32 3
3 -6 2 46063.3 2706.03 6
-3 6 -3 1947.75 581.643 7
3 -6 3 1234.4 378.544 6
3 -6 3 1954.29 481.436 1
-3 6 -3 1646.67 506.243 3
-3 6 -4 3678.69 742.743 3
3 -6 4 3709.21 718.87 1
3 -6 4 4424.35 732.441 6
3 -6 5 7877.69 975.317 6
3 -6 5 6343.83 986.126 1
-3 6 -5 6811.61 991.332 3
3 -6 6 10404.4 1336.75 1
-3 6 -6 12715.5 1325.91 3
3 -6 6 12634.1 1280.84 6
-3 6 -7 1449.66 527.879 4
-3 6 -7 571.356 280.025 3
3 -6 7 921.682 441.967 1
-3 6 -8 1163.8 473.57 11
-3 5 7 4896 1014.23 3
-3 5 7 4668.48 843.704 10
-3 5 6 3339.17 850.375 3
-3 5 6 2458.62 588.104 10
3 -5 -6 2474.71 563.164 5
-3 5 5 4163.36 816.45 7
3 -5 -5 2296.01 722.252 6
-3 5 5 2990.12 816.872 3
-3 5 5 3251.23 651.586 10
3 -5 -5 4416.43 709.047 5
-3 5 4 10526.3 1303.13 7
3 -5 -4 9408.49 858.242 12
3 -5 -4 10956.2 1492.42 6
-3 5 4 10922.8 1490.32 3
-3 5 4 9385.11 1090.04 10
3 -5 -4 10972 1056.4 5
-3 5 3 16266 1602.31 7
-3 5 3 14707.3 1729.14 3
3 -5 -3 13119.2 941.141 12
3 -5 -3 17661.5 1792.45 6
3 -5 -3 14688.5 1174.63 5
-3 5 3 15314.4 1329.85 10
3 -5 -2 46183.2 2968.27 6
-3 5 2 51055.8 3009.67 7
-3 5 2 47406.4 3199.85 3
3 -5 -2 45694.4 1829.63 12
-3 5 2 51168.8 2567.5 10
3 -5 -2 49234.1 2270.3 5
-3 5 1 -27.8896 106.612 7
3 -5 -1 70.7202 104.058 1
3 -5 -1 54.975 160.583 6
-3 5 1 187.871 153.079 10
-3 5 1 17.7211 130.81 3
3 -5 -1 62.9695 46.3119 5
-3 5 0 9250.45 1172.21 7
3 -5 0 6755.14 691.31 1
-3 5 0 6362.34 1078.19 3
3 -5 0 8075.11 1050.34 6
-3 5 0 9338.59 965.382 10
3 -5 0 8646.83 735.714 5
3 -5 1 7.4421 78.844 5
3 -5 1 86.3841 98.9463 1
-3 5 -1 318.325 251.23 3
-3 5 -1 175.937 213.695 7
3 -5 1 287.057 205.223 6
-3 5 -1 -37.0169 112.018 9
-3 5 -2 9678.85 1186.08 7
3 -5 2 9189.28 950.521 1
-3 5 -2 12266.1 1402.2 3
3 -5 2 10994.7 1144.39 6
-3 5 -2 9415.2 1020.7 9
-3 5 -3 1057.98 402.811 7
3 -5 3 568.527 264.912 6
-3 5 -3 819.12 361.02 3
3 -5 3 619.366 242.744 1
-3 5 -3 593.185 195.74 9
-3 5 -4 6107.53 935.92 7
-3 5 -4 5069.19 841.284 3
3 -5 4 5934.67 801.658 6
3 -5 4 5712.98 825.248 1
3 -5 5 94903.3 4244.42 1
-3 5 -5 94313.7 4118.19 3
-3 5 -6 3651.17 650.36 3
3 -5 6 3462.78 729.131 1
-3 5 -7 14087.8 1471.51 4
3 -5 7 11215.1 1400.99 1
-3 5 -7 11945.2 1144.43 3
3 -5 8 3043.78 762.268 1
-3 5 -8 3594.49 758.726 4
-3 5 -8 3079.96 696.205 11
-3 5 -9 1647.64 531.961 11
-3 5 -10 16555.7 1827.68 11
-3 4 7 2590.48 592.407 10
-3 4 7 1190.9 538.994 3
-3 4 7 892.193 407.377 2
3 -4 -7 1487.27 448.478 5
-3 4 6 5093.56 787.757 10
-3 4 6 7057.97 1063.2 7
3 -4 -6 6244.97 1171.63 6
-3 4 6 6975.98 1201.12 3
3 -4 -6 6150.76 851.918 5
3 -4 -5 4000.91 882.627 6
-3 4 5 1952.58 560.483 7
-3 4 5 3824.52 884.857 3
-3 4 5 3132.17 580.691 10
3 -4 -5 3459.13 595.165 5
-3 4 4 621.57 296.396 7
3 -4 -4 625.773 374.894 6
-3 4 4 129.315 182.544 3
-3 4 4 553.891 269.063 10
3 -4 -4 263.66 143.152 5
3 -4 -3 72642.6 3861.16 6
-3 4 3 79697.6 3905.06 7
-3 4 3 75134.3 4159.92 3
-3 4 3 79537.2 2648.97 12
-3 4 3 75392.4 3240.22 10
3 -4 -3 70852.1 2962.13 5
3 -4 -2 9580.55 713.045 8
3 -4 -2 9212.9 1168.92 6
-3 4 2 9745.69 1207.12 7
-3 4 2 6829.02 1122.77 3
-3 4 2 9917.37 950.473 10
3 -4 -2 9057.68 797.463 5
3 -4 -1 3480.87 490.024 8
-3 4 1 3023.87 665.393 7
3 -4 -1 3394.67 445.458 1
3 -4 -1 2629.19 594.557 6
-3 4 1 2882.64 697.757 3
-3 4 1 2839.96 507.421 10
3 -4 -1 3362.27 432.073 5
-3 4 0 16001.4 1502.07 7
3 -4 0 13489 958.021 1
-3 4 0 12062.2 1442.46 3
3 -4 0 12463.6 1257.4 6
-3 4 0 13973.2 1095.15 10
3 -4 0 13865.7 871.345 5
-3 4 0 13260.9 1353.42 9
3 -4 1 1853.6 276.791 5
3 -4 1 1539.39 412.762 6
3 -4 1 1699.4 350.774 1
-3 4 -1 2719.33 617.305 7
-3 4 -1 1739.42 552.436 3
-3 4 -1 2207.34 496.624 9
-3 4 -2 9586.59 1124.19 7
3 -4 2 8799.2 871.692 1
-3 4 -2 9195.68 1159.18 3
3 -4 2 8621.18 950.463 6
-3 4 -2 8952.42 905.416 9
-3 4 -3 2346.41 383.865 9
3 -4 3 2179.81 469.669 1
-3 4 -3 2551.94 575.426 7
3 -4 3 2034.21 444.055 6
-3 4 -3 1515.44 453.078 3
-3 4 -4 13949 1349.48 7
3 -4 4 12623.1 1191.26 1
-3 4 -4 10878.3 1194.28 3
3 -4 4 12019.3 504.303 12
-3 4 -4 12797 647.442 9
-3 4 -5 44579.9 2561.67 7
3 -4 5 39645.4 2424.64 1
-3 4 -5 41331.5 2342.66 3
3 -4 5 41041.8 1461.69 12
3 -4 6 1074.65 379.171 1
3 -4 6 655.16 184.05 12
-3 4 -6 945.653 310.266 3
-3 4 -7 14956.1 1453.4 4
3 -4 7 14671.5 1535.62 1
-3 4 -7 14132.6 1141.41 3
-3 4 -7 13468.9 1345.11 11
-3 4 -8 22084.6 1870.75 4
3 -4 8 19009 1868.43 1
-3 4 -8 18763.3 1670.45 11
3 -4 9 9778.62 1385.73 1
-3 4 -9 11949.5 1435.13 4
-3 4 -9 9771.1 1245.28 11
-3 4 -10 5775.2 1004.52 11
-3 3 8 1504.56 522.615 2
-3 3 7 4143.65 924.418 3
-3 3 7 4756.93 723.359 10
-3 3 7 4269.68 894.594 2
3 -3 -7 3310.54 643.787 5
3 -3 -6 6609.17 852.196 5
-3 3 6 6175.37 1026.06 7
3 -3 -6 7854.59 1262.31 6
-3 3 6 7252.45 863.967 10
-3 3 6 8843.36 1317.72 3
-3 3 5 18683.5 1806.43 7
3 -3 -5 21179.8 1984.14 6
-3 3 5 24841.6 2238.08 3
3 -3 -5 20820.2 1467.57 5
-3 3 5 21706.1 1496.96 10
-3 3 4 111.208 240.606 7
-3 3 4 370.25 158.99 12
-3 3 4 -44.0195 218.119 3
3 -3 -4 -9.0674 72.714 6
-3 3 4 -23.5128 67.9896 10
3 -3 -4 436.183 203.576 5
3 -3 -3 15174.8 748.392 8
-3 3 3 16154.1 1602.26 7
3 -3 -3 18293.3 1655.56 6
-3 3 3 14895.5 1686.25 3
-3 3 3 13862.1 869.47 12
3 -3 -3 14525.1 1039.67 5
-3 3 3 17775.6 1220.44 10
-3 3 3 14027.3 946.744 5
3 -3 -2 73108.2 2616.24 8
3 -3 -2 74923.3 3087.36 10
-3 3 2 81321.2 4138.11 3
-3 3 2 78816.3 3831.99 7
3 -3 -2 76414.8 3633.43 6
-3 3 2 79383.9 2496.28 12
-3 3 2 75367.3 2984.15 10
3 -3 -2 79998.7 2818.88 5
3 -3 -1 28737.5 1498.3 8
-3 3 1 27804 2077.42 7
3 -3 -1 29151 1302.24 1
-3 3 1 28827.8 2239.87 3
3 -3 -1 28560.8 1928.84 6
3 -3 -1 30965.6 1378.75 5
3 -3 -1 28038 1624.1 10
-3 3 1 27445.6 1524.45 10
-3 3 1 27843.6 2040.14 9
-3 3 0 5779.14 878.055 7
3 -3 0 5144.21 550.042 1
3 -3 0 6384.59 811.763 6
3 -3 0 4678.35 597.333 10
-3 3 0 5652.94 922.615 3
-3 3 0 5362.05 608.749 10
3 -3 0 5163.08 452.862 5
-3 3 0 4980 512.107 1
-3 3 0 4664.04 744.001 9
-3 3 -1 10831.5 1179.78 7
3 -3 1 9346.45 809.624 1
3 -3 1 8730.87 833.93 10
3 -3 1 9211.02 960.115 6
3 -3 1 8697.29 557.679 5
-3 3 -1 10468.5 1020.48 9
-3 3 -1 8984.71 781.826 1
-3 3 -1 9421.44 1168.1 3
3 -3 2 59737 2678.51 6
-3 3 -2 63359.1 3054.68 7
3 -3 2 54722.7 2434.61 1
-3 3 -2 53262 2972.82 3
3 -3 2 58221.6 3445.07 3
3 -3 2 55370.2 2450.34 10
-3 3 -2 52096 2392.21 9
-3 3 -2 54951.2 2440.49 1
-3 3 -3 39623.4 2313.16 7
3 -3 3 38470.3 2039.79 1
-3 3 -3 33893.3 2233.05 3
3 -3 3 39110.8 2686.19 3
-3 3 -3 38329.1 1628.8 9
-3 3 -3 38386.4 2049 1
3 -3 4 5008.75 714.564 1
3 -3 4 5185.21 327.444 12
-3 3 -4 6108.79 827.191 7
3 -3 4 5530.93 941.442 3
-3 3 -4 5746.33 792.839 3
-3 3 -5 50215.9 2561.25 7
3 -3 5 47443.7 2559.75 1
-3 3 -5 45455 2356.67 3
3 -3 5 48220.1 2920.64 3
3 -3 5 44924.9 1614.68 12
3 -3 6 7927.43 1041.04 1
-3 3 -6 9429.48 886.054 3
3 -3 6 8623.33 628.549 12
3 -3 6 9446.03 1199.03 3
3 -3 7 7747.71 1082.22 1
-3 3 -7 11034.3 1169.3 4
-3 3 -7 8647.95 784.569 3
3 -3 7 9805.21 1184.19 3
3 -3 7 8412.05 700.522 12
-3 3 -7 8452.22 970.406 11
3 -3 8 8280.95 1183.61 1
-3 3 -8 7922.87 1052.08 4
-3 3 -8 6958.14 936.804 11
3 -3 9 5847.93 1034.51 1
-3 3 -9 5776.56 947.567 4
-3 3 -9 5048.26 831.371 11
-3 3 -10 15350.6 1676.63 4
-3 3 -10 11590.6 1371.6 11
-3 2 8 4802 986.464 3
-3 2 8 7278.91 1109.62 2
-3 2 7 144.093 253.633 7
-3 2 7 960.098 464.291 3
-3 2 7 670.308 283.849 10
-3 2 7 23.7904 135.375 2
3 -2 -7 562.608 269.557 5
-3 2 6 44914 2993.93 7
3 -2 -6 41537.3 2920.05 6
-3 2 6 50423.8 3291.88 3
3 -2 -6 41214.8 2263.42 5
-3 2 6 42438.7 2187.28 10
-3 2 5 13931.4 1580.52 7
3 -2 -5 15351.4 1594.77 6
-3 2 5 15814.9 1757.22 3
-3 2 5 12784.1 1036.79 10
3 -2 -5 14020.1 1130.32 5
-3 2 4 76.7137 101.792 12
3 -2 -4 125.555 155.012 6
3 -2 -4 76.0859 74.6792 10
-3 2 4 60.8665 158.748 3
-3 2 4 374.324 171.629 10
3 -2 -4 138.819 115.562 5
3 -2 -3 34553.3 1345.62 8
-3 2 3 28579.1 2230.3 7
3 -2 -3 38980.2 2744.67 7
-3 2 3 35478.8 2583.56 3
3 -2 -3 35076.1 2259.64 6
3 -2 -3 32514.7 1589.88 5
-3 2 3 33466.4 1653.19 10
-3 2 3 32885.6 1514.95 5
3 -2 -3 30866.3 1661.8 10
-3 2 3 34547.1 1516.29 12
3 -2 -2 73435.6 2509.64 8
-3 2 2 72181 2388.71 12
-3 2 2 71611.4 3679.76 7
3 -2 -2 78813.8 4070.15 7
3 -2 -2 72053.7 3342.85 6
3 -2 -2 68589.4 2738.04 10
3 -2 -2 74276 2570.47 5
-3 2 2 71116.6 2681.88 10
-3 2 2 74185.8 2471.29 5
-3 2 2 73718.2 3652.03 9
-3 2 2 71603.5 3851.79 3
-3 2 1 18770.1 865.992 1
3 -2 -1 18238.9 1092.53 8
3 -2 -1 17003.9 898.299 1
-3 2 1 18212.6 785.95 12
-3 2 1 18026.7 1626.23 7
3 -2 -1 19810.5 1866.37 7
3 -2 -1 17030.5 1374.24 6
-3 2 1 18802.8 1738.48 3
-3 2 1 17392.6 1284.64 6
3 -2 -1 16889.3 1098.7 10
3 -2 -1 18980 933.834 5
-3 2 1 19485.4 1097.36 10
-3 2 1 15980.4 1443.83 9
3 -2 0 91953.2 3338.35 8
-3 2 0 92701.3 2999.84 1
3 -2 0 90608.6 3623.85 6
-3 2 0 92361.6 4063.7 7
3 -2 0 93022.1 3169.55 1
3 -2 0 95279.1 4516.32 7
-3 2 0 91462.8 2453.27 12
-3 2 0 87347.5 4197.45 3
3 -2 0 88373.2 3192.74 10
-3 2 0 91492 3118.65 10
3 -2 0 93371.8 2768.52 5
-3 2 0 88116.4 3747.04 9
-3 2 -1 1984.3 405.123 9
-3 2 -1 1860.23 477.93 7
3 -2 1 3724.97 734.297 7
-3 2 -1 1940.3 332.284 1
3 -2 1 2252.68 398.305 1
3 -2 1 2474.6 443.564 6
3 -2 1 2297.47 368.573 10
-3 2 -1 1824.92 498.698 3
3 -2 1 2509.84 231.13 5
3 -2 1 1769.26 527.041 3
3 -2 1 2453.58 448.563 9
3 -2 2 70146 2815.73 6
-3 2 -2 62625.1 2585.63 1
-3 2 -2 65392.8 3090.45 7
3 -2 2 61746.7 3346.9 7
3 -2 2 68841.4 2597.24 9
3 -2 2 64632.8 2672.07 1
-3 2 -2 62052.8 3175.77 3
3 -2 2 60203.2 3393.51 3
3 -2 2 61069 2485.14 10
-3 2 -2 64299.7 2527.94 9
-3 2 -3 40552.7 2077.97 1
-3 2 -3 42476.9 2334.1 7
3 -2 3 47804.7 2742.59 7
-3 2 -3 39204.1 2327.46 3
3 -2 3 42638 2132.48 1
3 -2 3 46073.7 2745.06 3
3 -2 3 39819 1908.97 10
-3 2 -3 46873.6 1699.26 9
3 -2 4 660.55 278.738 1
-3 2 -4 616.469 261.916 7
3 -2 4 386.603 231.747 7
-3 2 -4 663.735 204.074 2
-3 2 -4 277.964 169.271 1
3 -2 4 532.392 112.378 12
-3 2 -4 511.676 222.243 3
3 -2 4 451.879 308.669 3
-3 2 -5 50500.3 2160.42 2
-3 2 -5 50199 2446.51 7
3 -2 5 49843.1 2743.2 7
3 -2 5 49157.5 2562.27 1
-3 2 -5 49046 2314.11 3
-3 2 -5 48592.1 1879.41 12
3 -2 5 46030.1 1693.36 12
3 -2 5 47703.6 2700.99 3
3 -2 5 47942 1852.91 5
3 -2 6 39257.3 2403.45 7
3 -2 6 42507.7 2434.26 1
-3 2 -6 35784 1796.56 3
-3 2 -6 40095.1 1814.04 12
3 -2 6 39854.2 1738.57 5
3 -2 6 39185.1 1614.06 12
3 -2 7 3279.42 673.478 1
-3 2 -7 3256.33 603.834 4
3 -2 7 2962.7 628.486 7
3 -2 7 2998.22 410.159 12
-3 2 -7 2864.2 378.818 3
-3 2 -7 2033.65 446.701 11
-3 2 -7 3365.96 502.7 12
3 -2 7 3215.99 457.479 5
-3 2 -8 21046.8 1681.45 4
-3 2 -8 20682.9 1535.19 11
3 -2 8 21197.4 1849.92 1
-3 2 -8 19224.5 1410.38 12
3 -2 9 5542.8 967.541 1
-3 2 -9 3829.73 741.322 4
-3 2 -9 4499.08 759.213 11
-3 2 -10 20595.5 1938.13 4
-3 2 -10 21753.8 1809.06 11
3 -2 10 25135.5 2255.19 1
-3 1 8 29493.1 2127.5 2
-3 1 8 25727.6 1697.16 10
-3 1 8 26978.2 2404.8 3
-3 1 7 36407.7 2755.51 7
-3 1 7 32804.3 2239.1 2
-3 1 7 30056 2567.22 3
-3 1 7 32263.9 1838.89 10
-3 1 6 -58.2307 215.771 7
3 -1 -6 220.664 255.94 6
-3 1 6 103.618 105.246 3
-3 1 6 31.6415 58.1965 10
-3 1 5 1110.36 197.752 8
-3 1 5 876.316 404.711 7
3 -1 -5 1529.32 471.501 6
-3 1 5 1288.87 288.706 10
-3 1 5 1365.92 553.246 3
3 -1 -5 1020.34 288.814 5
-3 1 4 12798.8 755.646 8
-3 1 4 13232.5 1482.04 7
3 -1 -4 11517.1 1250.28 6
-3 1 4 13930.3 984 12
3 -1 -4 13592.4 971.659 5
-3 1 4 11421.3 835.06 10
-3 1 4 13245 931.599 5
-3 1 4 10074.5 1378.86 3
3 -1 -3 43810.2 1686.95 8
-3 1 3 42238.1 2726.68 7
-3 1 3 40434.9 1276.56 1
-3 1 3 42869.2 1810.16 12
3 -1 -3 43756.2 2448.69 6
-3 1 3 44813.8 2975.59 3
3 -1 -3 43652.7 1817.05 10
3 -1 -3 43521.7 1817.26 5
-3 1 3 43595.3 1772.81 10
-3 1 3 45846.9 1794.43 5
3 -1 -3 42427.9 2655.16 9
-3 1 2 6297.74 901.15 9
3 -1 -2 4875.7 698.184 6
3 -1 -2 6362.89 554.765 8
-3 1 2 6872.21 424.595 1
-3 1 2 6135.14 934.138 7
3 -1 -2 5508.88 921.381 7
-3 1 2 6258.24 520.815 12
-3 1 2 5337.7 690.22 6
3 -1 -2 6152.7 557.865 10
3 -1 -2 6000.24 502.35 5
-3 1 2 6023.31 522.901 10
-3 1 2 6643.93 506.639 5
-3 1 2 6450.06 1033.7 3
3 -1 -2 7099.26 953.455 9
-3 1 1 2404.91 523.575 9
3 -1 -1 2055.8 334.496 8
-3 1 1 2264.75 275.927 1
-3 1 1 2382.51 558.076 7
3 -1 -1 1948.54 526.707 7
-3 1 1 1935.75 240.469 12
-3 1 1 1924.93 276.759 10
3 -1 -1 2239.05 442.578 6
3 -1 -1 2160.31 253.173 5
3 -1 -1 1878.6 293.062 10
-3 1 1 2246.95 242.299 5
-3 1 1 2493.16 596.762 3
-3 1 1 2273.18 410.673 6
3 -1 -1 2093.72 491.077 9
3 -1 0 158992 4925.93 8
-3 1 0 166988 5973.67 7
-3 1 0 153931 4622.18 1
3 -1 0 160412 6073.24 7
-3 1 0 157962 4204.43 12
3 -1 0 157276 5182.2 6
-3 1 0 148685 5964.29 3
3 -1 0 151161 4613.7 10
3 -1 0 153530 5359.95 9
-3 1 0 153427 5337.38 9
3 -1 0 151928 4724.33 1
3 -1 0 154591 4185.5 5
3 -1 1 62125.6 2598.55 8
3 -1 1 68285.6 2687.81 6
-3 1 -1 64637.6 2427.01 1
-3 1 -1 65281.9 3140.38 7
3 -1 1 63084 3290.68 7
-3 1 -1 57550.5 3139.52 3
3 -1 1 64677.6 2530.86 1
3 -1 1 57435.4 2238.04 10
3 -1 1 65906.7 2716.49 9
-3 1 -1 61715.3 2605.33 9
3 -1 1 64082.9 1756.76 5
-3 1 -2 49052.4 1391.14 12
-3 1 -2 44166.6 2038.17 1
-3 1 -2 45803.5 2443.01 7
3 -1 2 50023.3 2754.13 7
-3 1 -2 44761.3 2555.58 3
3 -1 2 48796 2179.33 1
3 -1 2 43462.8 1852.97 10
3 -1 2 47593 2050.35 9
-3 1 -2 46347.9 1932.05 9
-3 1 -3 21925.7 1376.79 1
-3 1 -3 20949.8 1483.92 7
3 -1 3 23952.5 1767.45 7
-3 1 -3 22350.8 874.365 12
3 -1 3 22278.7 1426.45 1
3 -1 3 20687.9 806.089 5
-3 1 -3 23511.6 1643.11 3
3 -1 3 21937.3 1139.93 9
-3 1 -3 21626.8 1203.26 2
3 -1 4 2683.6 279.681 5
3 -1 4 1989.8 416.225 1
-3 1 -4 3134.4 522.624 7
3 -1 4 2382.83 527.309 7
-3 1 -4 2828.42 404.2 2
-3 1 -4 2455.37 293.443 12
-3 1 -4 2977.81 507.909 1
-3 1 -4 2008.33 427.911 3
3 -1 4 2736.18 309.309 9
-3 1 -5 49745.6 2270.5 3
-3 1 -5 54693.1 2241.16 2
-3 1 -5 53030.6 2635.96 1
-3 1 -5 56399.8 2457.42 7
3 -1 5 59349.9 2879.18 7
3 -1 5 56608.8 2711.3 1
-3 1 -5 56709.4 2086.59 12
3 -1 5 51877.1 1878.96 12
3 -1 5 50353.6 1920.58 5
3 -1 5 53276.2 1757.95 9
-3 1 -6 5343.46 699.374 4
-3 1 -6 6106.39 698.658 7
3 -1 6 6678.15 886.544 1
3 -1 6 4811.22 481.67 12
3 -1 6 6198.08 830.003 7
-3 1 -6 5723.5 551.396 3
-3 1 -6 6397.9 634.851 12
-3 1 -6 5514.4 605.886 11
3 -1 6 5036.77 514.563 5
3 -1 6 5427.7 385.867 9
-3 1 -7 774.747 284.556 4
3 -1 7 1016.26 369.2 1
3 -1 7 978.969 337.383 7
-3 1 -7 893.672 263.28 12
3 -1 7 743.96 213.205 12
-3 1 -7 857.25 161.727 3
-3 1 -7 889.374 287.796 11
3 -1 7 662.823 207.62 5
3 -1 7 1141.96 212.419 9
-3 1 -8 23898.5 1732.28 4
3 -1 8 23161.7 1719.93 7
-3 1 -8 23576.9 1604.58 12
3 -1 8 24922 1986.31 1
-3 1 -8 24397.6 1583.04 11
-3 1 -9 27032.3 2013.82 4
-3 1 -9 31870 1998.75 12
3 -1 9 29727.3 2321.21 1
-3 1 -9 24828.1 1765.05 11
3 -1 9 27764.7 1695.96 2
-3 1 -10 24081.1 2017.58 4
-3 1 -10 25275.6 1915.65 12
3 -1 10 26657.5 2282.27 1
-3 1 -10 21464.6 1724.29 11
3 -1 10 25458.6 1664.03 2
-3 1 -11 15722.9 1707.15 4
-3 1 -11 17590 1706.15 12
3 -1 11 18896 2014.84 1
-3 0 8 7926.64 967.918 2
-3 0 8 10719 1489.17 7
-3 0 8 9968.29 945.697 10
-3 0 8 8213.56 1306.25 3
-3 0 7 5955.87 1067.77 7
-3 0 7 6366.75 707.739 10
-3 0 7 5625.17 796.315 2
-3 0 7 5423.56 1048.05 3
-3 0 6 244.22 118.112 8
-3 0 6 295.627 250.031 7
3 0 -6 24.0358 175.108 6
-3 0 6 307.713 141.281 10
-3 0 6 348.113 333.203 3
-3 0 6 121.281 91.9701 2
-3 0 6 283.238 116.78 1
-3 0 5 4351.52 407.834 1
-3 0 5 4847.85 506.01 8
3 0 -5 4706.32 791.459 6
-3 0 5 4731.19 891.242 7
-3 0 5 4382.54 495.087 10
-3 0 5 5016.41 984.526 3
3 0 -5 4219.57 859.805 9
-3 0 4 307.625 123.513 8
3 0 -4 467.174 151.336 8
-3 0 4 871.666 345.444 7
-3 0 4 458.677 163.056 12
3 0 -4 387.834 196.831 6
-3 0 4 491.601 153.552 10
-3 0 4 840.553 412.646 3
-3 0 4 560.621 181.006 5
3 0 -4 944.973 415.199 9
-3 0 3 38494.8 2118.01 4
-3 0 3 34949.9 1563.95 8
3 0 -3 33653.6 1546.79 8
-3 0 3 35866.8 1986.15 6
-3 0 3 36404.1 2422.48 7
-3 0 3 35800.8 1649.72 12
3 0 -3 35002.7 2059.92 6
-3 0 3 34009.9 2252.7 11
-3 0 3 32960.7 2514.85 3
-3 0 3 35693.8 1403.36 10
-3 0 3 34984.6 1527.63 5
3 0 -3 36859.3 2389.55 9
-3 0 3 35338.9 2319.4 9
-3 0 2 165412 4987.6 8
3 0 -2 167329 5004.13 8
-3 0 2 163810 5395.33 6
-3 0 2 162253 6187.6 7
-3 0 2 166261 5976.66 9
-3 0 2 166950 4928.82 12
3 0 -2 157388 5486.36 6
-3 0 2 151576 6363.88 3
3 0 -2 164058 4675.77 10
-3 0 2 171937 4638.78 10
-3 0 2 169640 4752.77 5
3 0 -2 165225 5998.75 9
-3 0 2 165616 4783.1 1
-3 0 1 7900.95 681.615 8
3 0 -1 8566.4 701.929 8
-3 0 1 10235 1142.37 7
3 0 -1 8698.37 831.685 6
-3 0 1 10288.5 839.952 6
-3 0 1 8549.39 1139.44 3
3 0 -1 8584.63 542.126 10
-3 0 1 8851.91 645.04 1
-3 0 1 9053.82 520.696 10
-3 0 1 9267.6 513.705 5
3 0 -1 7423.81 899.839 9
-3 0 1 8359.6 930.039 9
3 0 0 6432.82 634.89 8
-3 0 0 6108.45 860.933 7
3 0 0 6047.63 871.8 7
-3 0 0 6046.52 564.836 1
3 0 0 6163.87 659.443 6
3 0 0 6392.71 464.359 10
-3 0 0 7040.02 325.876 5
3 0 0 6018.25 737.121 9
-3 0 0 5121.98 837.202 3
-3 0 0 5701.52 691.658 9
3 0 1 377.535 194.5 9
-3 0 -1 551.109 191.036 9
3 0 1 449.305 180.115 1
3 0 1 555.817 199.632 8
-3 0 -1 639.696 193.68 1
-3 0 -1 630.294 268.015 7
3 0 1 453.607 238.115 7
3 0 1 442.371 123.163 10
-3 0 -1 149.441 155.788 3
3 0 2 84094.9 3221.26 8
-3 0 -2 89708.7 3655.25 7
3 0 2 86048.7 3697.1 7
-3 0 -2 83346.5 3117.97 1
-3 0 -2 80529.4 3643.92 3
3 0 2 91141 3280.84 1
3 0 2 82424.3 3025.25 9
-3 0 -2 81039.8 2841.37 2
-3 0 -3 40035.6 1707.81 2
-3 0 -3 39327.8 2214.46 3
3 0 3 39833 2059.45 1
-3 0 -3 37914.4 2070.99 7
3 0 3 43499.7 2347.43 7
-3 0 -3 41878.6 2019.24 1
-3 0 -3 41231.7 1445.63 12
3 0 3 40505 1271 5
3 0 3 38094.6 1666.56 9
-3 0 -4 90.5428 66.7602 2
-3 0 -4 46.1998 130.342 7
3 0 4 -88.7346 105.86 7
-3 0 -4 102.376 64.8595 12
3 0 4 282.089 158.598 1
-3 0 -4 9.07829 79.086 3
3 0 4 45.2792 36.0437 5
-3 0 -4 -17.9967 108.643 1
-3 0 -5 171696 5283.28 2
-3 0 -5 162955 5740.61 1
-3 0 -5 163257 5269.78 7
3 0 5 166245 5746.21 7
-3 0 -5 174551 5110.48 12
-3 0 -5 166685 5259.47 3
3 0 5 169793 4901.59 12
3 0 5 176582 5905.62 1
3 0 5 170746 4867.06 5
3 0 5 164832 5224.14 2
-3 0 -6 18318.2 1233.01 2
-3 0 -6 15709.5 1158.34 4
-3 0 -6 18045.7 1087.03 7
3 0 6 18158 1354.74 7
-3 0 -6 16890.5 881.082 3
-3 0 -6 19334.1 1192.07 12
3 0 6 16235.3 973.923 12
-3 0 -6 15101.5 961.393 11
3 0 6 18179.4 1493.56 1
3 0 6 16886.2 999.527 5
3 0 6 18922.4 1189.15 2
-3 0 -7 1759.12 401.135 4
3 0 7 1244.33 338.614 7
3 0 7 1981.54 385.849 2
3 0 7 1953.83 512.367 1
-3 0 -7 2077.6 409.293 12
-3 0 -7 1532.16 320.318 11
3 0 7 1416.51 290.815 5
-3 0 -8 14483 1282.07 4
3 0 8 17230.8 1612.61 1
3 0 8 17383 1294.08 7
-3 0 -8 15581.6 1284.44 12
-3 0 -8 15091 1145.96 11
3 0 8 17326.3 1270.95 9
3 0 8 14992.1 1162.47 2
-3 0 -9 3794.49 681.773 4
3 0 9 4803.94 662.147 2
-3 0 -9 5056.52 765.914 12
3 0 9 4678.5 878.5 1
-3 0 -9 4679.11 669.962 11
-3 0 -10 61874.6 3425.09 4
-3 0 -10 71606.2 3547.38 12
3 0 10 71905.9 3973.91 1
3 0 10 74293.9 3165.32 2
-3 0 -11 1737.64 528.689 4
3 0 11 2054.72 469.119 2
-3 0 -11 2075.41 566.418 12
3 0 11 1988 637.848 1
-3 0 -12 130.31 259.354 4
-3 -1 8 6685.13 1180.52 7
-3 -1 8 7732.41 1301.95 3
-3 -1 7 2243.49 433.732 8
-3 -1 7 2958.82 759.478 7
-3 -1 7 2849.59 495.37 2
-3 -1 7 2857.45 443.847 10
-3 -1 7 2989.91 462.33 1
-3 -1 7 1692.04 567.725 3
-3 -1 6 77604.2 2888.35 1
-3 -1 6 77502.6 3040.97 8
-3 -1 6 75393.1 4095.42 7
-3 -1 6 80252.8 3179.62 2
-3 -1 6 67806.1 4140.76 3
-3 -1 6 78044.8 2804.92 10
3 1 -6 79227.3 4242.56 9
-3 -1 5 27711 1515.45 8
-3 -1 5 25006.4 2099.48 7
3 1 -5 24405.9 1832.14 6
-3 -1 5 27784.9 1280.11 10
-3 -1 5 29524.3 1440.61 1
3 1 -5 26864.3 2194.9 9
-3 -1 4 9090.96 777.743 8
-3 -1 4 9796.76 1214 7
3 1 -4 9565.3 1018.49 6
-3 -1 4 8407.74 917.848 6
-3 -1 4 9114.81 576.108 10
-3 -1 4 9764.54 779.595 5
3 1 -4 10124.6 1242.54 9
-3 -1 4 10217.3 881.382 12
-3 -1 3 106465 3950.68 4
-3 -1 3 99220.4 3412.97 8
3 1 -3 97474.9 3393.59 8
-3 -1 3 106369 4459.5 7
-3 -1 3 98897.4 3455.79 12
3 1 -3 97550.1 3813.94 6
-3 -1 3 103726 3743.53 6
-3 -1 3 99709.9 4118.71 11
-3 -1 3 95826.2 3217.35 5
-3 -1 3 96637.1 2827.21 10
3 1 -3 97475.5 4273.22 9
-3 -1 3 104426 4336.01 9
-3 -1 2 82403.2 3290.86 4
-3 -1 2 84078.3 2970.14 8
3 1 -2 75243.7 3120.94 6
3 1 -2 83680 2975.33 8
-3 -1 2 80556.9 3743.1 7
-3 -1 2 81778.4 3081.5 6
-3 -1 2 84333.9 3502.78 11
-3 -1 2 83555.6 2661.76 5
-3 -1 2 85004.2 2307.94 10
3 1 -2 80984 3654.33 9
-3 -1 2 79721.8 3544.48 9
-3 -1 1 6568.86 622.728 8
3 1 -1 6615.47 634.887 8
-3 -1 1 7913.05 682.284 6
-3 -1 1 6925.23 895.04 7
3 1 -1 7368.6 714.194 6
-3 -1 1 6378.11 749.679 11
-3 -1 1 7338.7 450.63 5
3 1 -1 6542.16 339.411 10
3 1 -1 6703.63 819.443 9
-3 -1 1 8000.62 850.856 9
-3 -1 0 85580.1 3008.37 1
-3 -1 0 87017.1 3085.51 8
3 1 0 88058.9 3102.16 8
-3 -1 0 84238.4 3651.93 7
3 1 0 87300.9 3063.79 6
3 1 0 85993.7 2462.63 10
3 1 0 83275.4 3358.86 9
-3 -1 0 87838.1 3315.64 9
3 1 1 3749.01 514.021 9
-3 -1 -1 3696.92 485.24 8
3 1 1 3288.6 473.109 8
-3 -1 -1 4357.84 671.595 7
-3 -1 -1 4729.13 539.774 1
-3 -1 -1 4147.51 411.423 2
3 1 2 293.623 127.706 9
3 1 2 218.797 148.914 8
-3 -1 -2 215.466 158.559 7
3 1 2 137.784 151.692 7
-3 -1 -2 205.889 107.785 2
-3 -1 -2 300.607 151.762 1
-3 -1 -2 319.752 58.8129 5
3 1 3 104273 3769.14 8
-3 -1 -3 98926.3 3299.56 2
-3 -1 -3 101656 3077.68 12
-3 -1 -3 103426 3852.31 7
3 1 3 99049.7 3846.47 7
-3 -1 -3 99577.9 3731.32 1
-3 -1 -3 99321.8 2875.97 5
3 1 3 109358 3866.02 1
3 1 3 104924 2865.73 5
3 1 3 97446.9 3309.35 2
3 1 4 82.6974 110.23 8
-3 -1 -4 293.227 168.829 1
3 1 4 196.882 161.181 1
-3 -1 -4 137.765 105.033 7
3 1 4 259.371 165.849 7
3 1 4 198.048 122.766 2
-3 -1 -4 157.041 121.129 2
-3 -1 -4 239.043 117.642 12
-3 -1 -4 24.5902 28.9238 5
3 1 4 85.7453 63.3393 5
3 1 5 33834.9 1599.21 2
-3 -1 -5 32009.3 1387.33 5
3 1 5 32234.7 1873.26 8
-3 -1 -5 35053.6 1719.54 2
-3 -1 -5 28424.6 1433.93 7
3 1 5 30724 1686.86 7
-3 -1 -5 31606.2 1896.19 1
-3 -1 -5 31625 1196.13 11
-3 -1 -5 34101.6 1561.11 12
-3 -1 -5 29400.1 1565.78 3
3 1 5 33552.5 1990.36 1
3 1 5 31370.7 1356.09 5
3 1 6 1424.64 410.354 1
3 1 6 1060.5 230.721 12
-3 -1 -6 805.361 228.496 4
-3 -1 -6 994.833 198.009 7
3 1 6 1211.97 284.889 7
3 1 6 1286.45 299.595 2
-3 -1 -6 680.808 226.742 12
-3 -1 -6 1114.83 298.003 2
-3 -1 -6 786.766 174.741 11
-3 -1 -6 778.235 161.843 3
-3 -1 -6 1033.56 233.228 5
3 1 6 1096.41 241.598 5
-3 -1 -7 118.746 69.9078 11
-3 -1 -7 -165.718 118.306 4
3 1 7 136.203 84.1898 7
3 1 7 154.929 134.242 2
-3 -1 -7 143.003 146.694 12
-3 -1 -7 -26.111 65.5543 5
3 1 7 243.319 131.041 5
3 1 7 301.103 199.323 1
3 1 8 51381.4 2294.65 2
-3 -1 -8 47225.8 2374 4
3 1 8 43492.9 1837.07 7
-3 -1 -8 50583.7 2480.6 12
-3 -1 -8 37718.5 1946.84 11
3 1 8 44335.8 2713.01 1
3 1 9 8470.15 890.783 2
-3 -1 -9 7081.31 911.214 4
-3 -1 -9 10055.6 1104.51 12
3 1 9 9212.43 1219.03 1
3 1 10 6394.7 820.825 2
3 1 10 6750.72 1091.47 1
-3 -1 -10 4478.17 779.994 4
-3 -1 -10 7280.42 1011.28 12
3 1 11 1865.86 614.87 1
-3 -1 -11 2170.1 593.573 4
3 1 11 2560.55 550.552 2
-3 -1 -11 1944.97 572.066 12
-3 -1 -12 169.984 171.073 4
3 1 12 100.332 122.075 2
-3 -2 9 3142.51 838.301 7
-3 -2 8 6479.97 822 8
-3 -2 8 6635.54 803.436 1
-3 -2 8 6303.22 1150.95 7
-3 -2 7 67140.1 2886.44 1
-3 -2 7 63335.2 2918.73 8
-3 -2 7 67990.6 2521.51 2
-3 -2 7 63630.4 2531.99 10
3 2 -7 62717.1 3828.08 9
-3 -2 6 3448.19 418.932 10
-3 -2 6 3601.18 564.985 8
-3 -2 6 3827.32 556.329 1
-3 -2 6 3114.1 427.026 2
3 2 -6 2719.14 705.181 9
-3 -2 5 135869 4686.75 8
-3 -2 5 133989 4278.25 2
3 2 -5 143379 5114.04 6
-3 -2 5 132671 4931.38 6
-3 -2 5 137621 4014 10
3 2 -5 124567 5544.27 9
-3 -2 4 8572.27 817.172 8
-3 -2 4 8295.08 826.967 12
3 2 -4 9171.81 932.324 6
-3 -2 4 8827.29 874.617 6
-3 -2 4 8511.52 501.861 10
-3 -2 4 9137.57 765.787 5
3 2 -4 8849.62 1134.84 9
-3 -2 4 8943.81 1099.8 9
-3 -2 3 30928.7 1782.75 4
-3 -2 3 27654.5 1539.08 8
3 2 -3 28284.7 1547.1 8
3 2 -3 31640 2007.82 11
3 2 -3 26970 1587.02 6
-3 -2 3 28437.2 1553.37 6
-3 -2 3 26302.8 1754.93 11
-3 -2 3 28228.5 1357.83 5
-3 -2 3 28031.6 900.65 10
3 2 -3 29085.8 2020.76 9
-3 -2 3 32019.7 2021.44 9
-3 -2 2 105137 3830.8 4
-3 -2 2 109720 3714.67 8
3 2 -2 105408 3680.93 8
3 2 -2 99755.2 3608.23 6
-3 -2 2 104944 3956 11
-3 -2 2 106583 3531.52 6
3 2 -2 102775 4231.91 9
-3 -2 2 112457 4213.47 9
3 2 -1 3243.69 559.955 9
-3 -2 1 2659.41 480.809 9
-3 -2 1 3033.08 438.631 8
3 2 -1 3183.25 448.714 8
-3 -2 1 3036.91 449.798 4
-3 -2 1 2378.24 421.669 11
3 2 -1 2355.56 360.399 6
-3 -2 1 2783.98 294.105 2
-3 -2 0 22064.9 991.505 2
-3 -2 0 23054.9 1313 8
3 2 0 22500.2 1303.93 8
-3 -2 0 22105.9 1230.64 11
3 2 0 23593.7 1186.3 6
3 2 0 21100.7 1417.94 9
-3 -2 -1 22449.9 1324.77 8
-3 -2 -1 25005.1 1094.01 2
3 2 1 23300.4 1345.43 8
-3 -2 -1 23625.1 1360.09 1
-3 -2 -1 21474.3 1101.74 11
3 2 1 22536.7 1082.33 2
-3 -2 -2 516.694 202.735 8
3 2 2 469.49 185.853 8
-3 -2 -2 181.455 142.646 7
3 2 2 414.632 136.695 2
-3 -2 -2 323.338 126.871 2
-3 -2 -2 150.716 76.4868 11
-3 -2 -2 382.27 177.109 1
-3 -2 -2 334.111 84.0263 5
3 2 3 125111 3913.75 2
3 2 3 124281 4341.19 8
3 2 3 124474 4443.72 1
-3 -2 -3 128051 4045.35 2
-3 -2 -3 119113 4305.54 7
-3 -2 -3 118701 4361.72 1
-3 -2 -3 131485 3641.24 5
3 2 4 39317 1736.12 2
3 2 4 42494.2 2088.46 8
-3 -2 -4 41193.6 1895.27 2
-3 -2 -4 38989.8 1857.84 7
-3 -2 -4 40685.8 2150.3 1
-3 -2 -4 40365.3 1564.93 5
-3 -2 -4 40403.7 1671.13 12
3 2 4 39640 1526.7 5
3 2 4 42095.8 2190.66 1
3 2 5 160530 5430.01 8
3 2 5 161860 5034.49 2
-3 -2 -5 149848 4714.17 4
-3 -2 -5 161358 5295.44 2
-3 -2 -5 160568 4703.27 7
-3 -2 -5 160120 5547.4 1
-3 -2 -5 161563 4970.32 12
-3 -2 -5 156298 4800.88 5
3 2 5 169288 4810.53 5
3 2 5 168563 5704.54 1
3 2 6 6297.43 667.516 2
-3 -2 -6 6890.14 633.352 4
3 2 6 5634.56 748.69 8
-3 -2 -6 5682.2 384.527 7
-3 -2 -6 6068.46 385.605 3
-3 -2 -6 6500.78 685.85 12
3 2 6 6196.38 847.019 1
-3 -2 -6 5282.45 574.013 5
3 2 6 6430.78 604.913 5
3 2 7 12992.8 1050.68 2
-3 -2 -7 14520.5 1061.02 4
-3 -2 -7 12594.7 1095.7 12
-3 -2 -7 14505.9 1066.16 5
3 2 7 16842.5 1479.82 1
3 2 8 40504.7 2050.65 2
-3 -2 -8 32824.3 1886.89 4
-3 -2 -8 34682.7 2072.35 12
-3 -2 -8 35423.2 1943.02 5
3 2 8 37517.4 2436.74 1
-3 -2 -9 251.897 145.792 4
3 2 9 29.4996 158.268 1
3 2 9 377.768 227.138 2
-3 -2 -9 226.669 229.481 12
-3 -2 -9 119.213 117.739 5
3 2 10 10946.6 1106.74 2
-3 -2 -10 11657.3 1222.64 4
3 2 10 8845.03 1265.51 1
-3 -2 -10 11571.4 1294.39 12
-3 -2 -11 3716.98 733.783 4
3 2 11 3139 602.731 2
3 2 11 5254.66 986.957 1
3 2 12 613.225 334.616 1
3 3 -8 831.032 426.778 4
-3 -3 8 1042.61 375.641 8
-3 -3 8 395.308 196.414 1
3 3 -8 344.081 221.981 9
3 3 -7 3363.44 728.77 4
-3 -3 7 3809.36 643.937 8
-3 -3 7 3973.43 645.306 1
3 3 -7 3485.57 857.021 11
3 3 -7 4228.02 910.987 9
3 3 -6 36748.1 2391.35 4
-3 -3 6 34999.1 2061.21 8
-3 -3 6 36197.9 1267.57 2
3 3 -6 32791.2 2546.6 11
3 3 -6 32836.1 2515.03 9
3 3 -5 10329.8 1127.73 4
-3 -3 5 9372.57 969.982 8
-3 -3 5 10199.3 557.528 2
-3 -3 5 9778.88 953.885 6
3 3 -5 11628.3 1348.52 11
3 3 -5 11239.1 1340.49 9
-3 -3 4 1985.64 516.945 9
3 3 -4 1663.08 420.556 4
-3 -3 4 1576.1 377.016 8
3 3 -4 1331.4 334.747 6
3 3 -4 2173.66 541.119 11
-3 -3 4 1945.8 369.517 6
-3 -3 4 2015.71 185.934 2
3 3 -4 2472.33 592.465 9
3 3 -3 39761.7 2097.29 4
-3 -3 3 40309.8 2064.08 4
-3 -3 3 40381.3 2025.86 8
3 3 -3 41235.1 2033.2 8
3 3 -3 40365.5 1873.62 6
-3 -3 3 38891.4 1765.88 6
3 3 -3 38271.7 2266.09 11
-3 -3 3 39983.4 2147.96 11
-3 -3 3 38078.9 1185.73 10
3 3 -3 35855 2304.96 9
-3 -3 3 39315.8 2271.61 9
-3 -3 3 40970.6 1273.35 2
-3 -3 2 114455 3020.61 2
-3 -3 2 101078 3743.53 4
-3 -3 2 107210 3859.17 8
3 3 -2 102496 3797.23 8
3 3 -2 100004 4007.8 11
3 3 -2 98237.8 3466.66 6
-3 -3 2 108963 3414.38 6
-3 -3 2 106140 3876.9 11
3 3 -2 97008.6 4148.71 9
-3 -3 2 114679 4192.66 9
3 3 -1 4219.02 645.626 9
-3 -3 1 3568.32 471.484 4
-3 -3 1 5022.86 604.8 8
-3 -3 1 4405.22 345.342 2
3 3 -1 3856.65 531.33 8
3 3 -1 3974.75 422.879 6
-3 -3 1 4361.4 533.636 11
3 3 -1 4209.23 564.963 11
3 3 0 2235.22 367.657 11
3 3 0 1845.35 415.948 9
-3 -3 0 2400.2 284.936 2
-3 -3 0 2267.23 390.757 8
3 3 0 3303.54 485.214 8
-3 -3 0 2160.35 331.839 4
-3 -3 0 2111.17 322.113 11
3 3 0 1986.38 209.162 10
3 3 0 1998.27 259.037 2
-3 -3 -1 3520.54 375.396 4
3 3 1 3902.62 384.251 2
-3 -3 -1 4133.73 418.018 2
-3 -3 -1 3599.68 508.286 8
3 3 1 3507.47 499.926 8
-3 -3 -1 3900.84 374.167 11
3 3 1 4577.41 448.264 11
3 3 1 3298.08 335.058 10
-3 -3 -2 76543.2 2979.13 8
3 3 2 76192.9 2610.05 2
-3 -3 -2 70973.6 3012.08 1
3 3 2 81326 3035.63 8
-3 -3 -2 77775.7 2753.12 2
3 3 2 76293.9 2397.7 11
-3 -3 -2 80015.6 2412.63 5
-3 -3 -3 162624 5526.74 8
3 3 3 181797 5671.61 8
3 3 3 174145 5224.64 2
-3 -3 -3 176119 5425.21 2
-3 -3 -3 185700 5013.08 5
-3 -3 -3 162884 5697.22 1
-3 -3 -4 756.307 278.112 1
3 3 4 365.216 175.277 8
-3 -3 -4 320.83 97.3633 4
-3 -3 -4 277.769 132.398 7
3 3 4 349.988 136.806 2
-3 -3 -4 456.293 161.651 12
-3 -3 -4 450.023 209.075 2
-3 -3 -4 477.946 152.067 5
3 3 5 35555.6 1954.06 8
3 3 5 40073.7 1853.92 2
3 3 5 38022.4 2170.25 1
-3 -3 -5 36381 1449.43 4
-3 -3 -5 32823.5 2028.96 1
-3 -3 -5 39056 2064.69 2
-3 -3 -5 36921.4 1512.5 7
-3 -3 -5 37515.5 1488.5 3
-3 -3 -5 36056 1735.22 12
-3 -3 -5 37592.7 1683.17 5
3 3 5 38459.8 1647.15 5
3 3 6 99229.8 3860.8 8
3 3 6 98796.2 4124.35 1
-3 -3 -6 92582 3182.4 4
3 3 6 103925 3690.86 2
-3 -3 -6 96837.2 3050.76 3
-3 -3 -6 99921.5 3640.09 12
-3 -3 -6 101096 3516.52 5
3 3 6 96668.9 3393.43 5
3 3 7 2195.33 460.993 8
-3 -3 -7 1710.91 328.118 4
3 3 7 2031.55 507.211 1
3 3 7 1427.05 346.015 2
-3 -3 -7 1771.87 254.7 3
-3 -3 -7 2043.74 394.735 5
-3 -3 -7 1367.8 356.576 12
3 3 8 41083 2572.17 1
-3 -3 -8 37211.8 1954.64 4
3 3 8 41680.8 2218.16 2
-3 -3 -8 43768.2 2367.4 12
-3 -3 -8 40283 2144.31 5
-3 -3 -9 9032.6 939.258 4
3 3 9 10532.5 1069.56 2
3 3 9 8516.39 1150.23 1
-3 -3 -9 10110.2 1138.79 12
-3 -3 -9 8798.76 988.962 5
3 3 10 34214 2506.24 1
-3 -3 -10 31838.2 2049.09 4
3 3 10 34381 2148.06 2
-3 -3 -10 32224.2 2301.56 12
-3 -3 -10 33704.4 2175.56 5
3 3 11 3930.78 714.171 2
3 3 11 2870.73 752.148 1
-3 -4 9 3252.91 681.365 8
-3 -4 9 3117.45 671.008 1
3 4 -9 3118.12 834.696 9
-3 -4 8 18762.2 1608.94 1
3 4 -8 16134.7 1726.55 4
-3 -4 8 17582.8 1572.03 8
3 4 -8 14730.2 1906.46 11
3 4 -8 16489.8 1866.75 9
3 4 -7 41674.8 2725.94 4
-3 -4 7 41332.8 2478.51 8
3 4 -7 34720.9 2845.57 11
3 4 -7 42428.6 2979.69 9
-3 -4 7 45886.3 2538.63 1
-3 -4 6 196.446 137.94 8
3 4 -6 657.318 307.209 4
-3 -4 6 435.327 210.306 6
3 4 -6 480.806 321.883 11
3 4 -6 242.57 209.78 9
-3 -4 5 988.546 332.598 8
3 4 -5 720.856 307.662 4
3 4 -5 866.293 407.491 11
-3 -4 5 972.214 273.027 6
-3 -4 5 913.793 182.279 10
3 4 -5 783.679 361.349 9
3 4 -4 82.4466 210.44 9
-3 -4 4 455.934 256.289 9
-3 -4 4 146.563 117.714 8
3 4 -4 289.313 171.809 4
3 4 -4 585.926 297.794 11
-3 -4 4 360.56 159.427 6
-3 -4 4 260.676 87.5942 10
3 4 -3 120.096 165.569 9
-3 -4 3 93.7639 114.722 8
3 4 -3 148.569 124.595 4
3 4 -3 127.227 136.394 8
-3 -4 3 179.488 101.857 4
3 4 -3 29.6486 43.4782 6
3 4 -3 18.5951 133.578 11
-3 -4 3 -6.88101 75.7792 11
-3 -4 3 135.549 73.5821 6
-3 -4 3 74.8067 36.4871 10
3 4 -2 152894 4918.79 4
-3 -4 2 150506 4774.33 4
-3 -4 2 146134 5014.49 8
3 4 -2 153916 5076.19 8
3 4 -2 139039 4300.08 6
-3 -4 2 148064 4011.2 2
-3 -4 2 149059 4899.69 11
-3 -4 2 140469 3980.81 10
3 4 -2 147425 5113.61 11
3 4 -2 142480 5338.4 9
3 4 -1 -20.5175 60.4998 9
-3 -4 1 84.8866 76.7794 2
-3 -4 1 172.036 109.542 8
3 4 -1 63.1816 100.399 4
3 4 -1 154.222 117.591 8
-3 -4 1 -44.8447 58.9159 4
3 4 -1 28.1251 21.1261 2
3 4 -1 117.115 79.2538 6
3 4 -1 163.963 120.429 11
-3 -4 1 53.3021 48.9483 11
-3 -4 1 133.913 67.6764 10
3 4 -1 6.43717 34.8366 10
3 4 0 148865 4263.64 2
-3 -4 0 147552 4435.24 4
-3 -4 0 146563 4944.58 8
3 4 0 156370 5051.44 8
-3 -4 0 150578 4446.05 2
3 4 0 152019 4729.27 11
-3 -4 0 154047 4596.69 11
3 4 0 142803 4235.67 10
-3 -4 -1 113116 3323.15 4
-3 -4 -1 107554 3954.62 8
3 4 1 114194 4011.79 8
3 4 1 109088 3457.49 2
-3 -4 -1 112859 3681.05 2
3 4 1 117910 3589.4 11
3 4 1 111674 3500.64 10
-3 -4 -2 2043.58 198.519 4
-3 -4 -2 1327.8 325.589 8
3 4 2 2485.55 433.091 8
3 4 2 2318.85 339.44 2
3 4 2 2081.64 262.214 11
-3 -4 -2 2504.74 403.945 2
3 4 2 1572.74 290.056 10
-3 -4 -3 18033.3 1354.87 1
-3 -4 -3 18776.8 1277.22 8
3 4 3 16926.3 1220 8
3 4 3 16040.9 1068.58 2
-3 -4 -3 21384.9 1360.83 2
3 4 3 19886.9 781.94 11
3 4 3 19325.6 1182.17 10
-3 -4 -3 19632.7 1015.77 5
-3 -4 -4 12264.1 1031.46 8
3 4 4 12689.2 1037.61 8
3 4 4 11755.3 936.499 2
-3 -4 -4 12045.6 1086.68 2
-3 -4 -4 11790.7 835.229 3
-3 -4 -4 12583.8 899.596 12
3 4 4 12451.3 478.603 11
3 4 4 11358.4 951.544 10
-3 -4 -4 12566.9 1139.33 1
-3 -4 -4 13182.1 867.989 5
-3 -4 -5 14039.7 667.838 4
3 4 5 15734.3 1191.35 8
3 4 5 14204.6 1100.58 2
-3 -4 -5 14754.4 876.529 7
-3 -4 -5 14167.4 929.02 3
-3 -4 -5 14510.1 1042.27 12
-3 -4 -5 14353.6 1266.36 1
3 4 5 15005.9 1169.76 10
-3 -4 -5 14980.2 1020.71 5
-3 -4 -6 706.619 194.533 3
3 4 6 804.885 283.912 8
-3 -4 -6 486.829 138.982 4
-3 -4 -6 635.18 245.387 12
3 4 6 890.37 278.222 2
3 4 6 672.224 106.122 11
3 4 6 355.174 221.385 10
-3 -4 -6 560.844 217.711 5
-3 -4 -7 6132.79 584.353 4
3 4 7 6191.24 779.045 8
3 4 7 7287.69 857.923 2
-3 -4 -7 5996.55 627.705 3
-3 -4 -7 8557.1 909.411 12
3 4 7 7797.71 465.758 11
-3 -4 -7 7609.33 811.136 5
3 4 7 6644.21 859.214 10
-3 -4 -8 13357.2 1015.68 4
3 4 8 16102.6 1370.24 2
3 4 8 17772.7 1589.79 1
-3 -4 -8 16875 1425.96 12
3 4 8 15386.5 1446 10
-3 -4 -8 17762.8 1373.18 5
3 4 9 19341.3 1576.39 2
3 4 9 19843 1789.01 1
-3 -4 -9 20878.3 1708.15 12
3 4 9 20778.1 1789.32 10
-3 -4 -9 21442.4 1617.52 5
3 4 10 2306.42 552.461 2
3 4 10 3070.04 688.326 1
-3 -4 -10 1954.99 550.18 12
3 4 10 3181.02 726.719 10
-3 -4 -10 2173.41 527.691 5
-3 -5 10 2924.71 726.574 8
-3 -5 10 3266.95 769.32 1
-3 -5 9 17603.1 1726.5 1
-3 -5 9 18264.1 1755.06 8
3 5 -9 17158.7 1965.85 9
3 5 -8 23994.5 2155.4 4
-3 -5 8 24799.9 2026.45 8
3 5 -8 30046.9 2724.57 11
3 5 -8 29057.1 2489.78 9
-3 -5 8 24495.9 1999.07 1
3 5 -7 49213.1 3012.31 4
-3 -5 7 50331.1 2922.85 8
3 5 -7 46422.1 3310.69 11
3 5 -7 51560.9 3327.87 9
-3 -5 7 51142.7 2891.93 1
-3 -5 6 1694.06 462.64 8
3 5 -6 1771.67 502.422 4
-3 -5 6 1522.21 348.69 6
3 5 -6 842.925 393.493 11
3 5 -6 1971.4 602.325 9
3 5 -5 14941.5 1402.72 4
-3 -5 5 15215.1 1405.78 8
-3 -5 5 14684.4 1005.31 6
3 5 -5 14500.5 1526.63 11
-3 -5 5 16521.7 937.779 10
3 5 -5 16402.8 1634.77 9
3 5 -4 5916.93 919.532 9
-3 -5 4 7209.88 912.393 8
3 5 -4 4952.22 738.412 4
-3 -5 4 6286.75 536.155 6
3 5 -4 6158.45 897.572 11
-3 -5 4 6131.04 513.34 10
3 5 -3 45527.9 2306.73 4
-3 -5 3 46276.3 2434.08 8
-3 -5 3 45768.7 2194.85 4
3 5 -3 47218.4 2530.77 11
-3 -5 3 43583 1663.31 10
3 5 -3 41818.4 2542.06 9
3 5 -2 33523 1810.57 4
-3 -5 2 36921.9 2065.48 8
-3 -5 2 33977.9 1718.36 4
3 5 -2 34294.2 2012.21 8
3 5 -2 36854.1 1271.7 6
-3 -5 2 37933.6 1927.56 11
3 5 -2 32223.6 1932.32 11
-3 -5 2 35813.6 1420.75 10
3 5 -2 31935.9 2120.69 9
3 5 -2 34762.8 1185.02 2
3 5 -1 1751.65 227.121 2
-3 -5 1 1503.62 366.151 8
3 5 -1 1934.41 346.951 4
3 5 -1 1811.83 403.64 8
-3 -5 1 2115.69 331.624 4
3 5 -1 1622.63 185.408 6
3 5 -1 2005.49 397.171 11
-3 -5 1 1261.86 222.85 10
-3 -5 1 1584.56 274.486 2
3 5 -1 1418.98 236.753 10
3 5 0 29145.5 1340.36 4
-3 -5 0 26815.7 1657.36 8
3 5 0 30193.3 1746.73 8
3 5 0 27179.5 1219.3 2
-3 -5 0 28827.3 1264.44 4
-3 -5 0 27060.6 1410.74 2
3 5 0 27161.1 1460.67 11
-3 -5 0 28311 1305.58 10
3 5 0 25435.1 1256.48 10
-3 -5 -1 38052.1 2032.79 8
3 5 1 44051.5 2163.06 8
-3 -5 -1 42991.6 1441.27 4
3 5 1 39781.9 1712.3 2
-3 -5 -1 42168.3 1968.84 2
3 5 1 40978.3 1749.36 11
-3 -5 -1 42386.3 1800.24 10
3 5 1 40990.8 1788.87 10
-3 -5 -2 8043.84 837.022 8
3 5 2 8900.99 863.028 8
3 5 2 6655.05 642.548 2
-3 -5 -2 7488.27 798.693 2
3 5 2 7017.43 550.792 11
3 5 2 6116.25 642.033 10
-3 -5 -3 41483.9 2118.13 8
3 5 3 45404.2 2180.07 8
-3 -5 -3 40213.1 2243.76 1
3 5 3 42613 2009 2
-3 -5 -3 42405.3 1976.95 3
-3 -5 -3 41422.8 2233 2
3 5 3 43560.5 1562.32 11
3 5 3 43881.8 2072.26 10
-3 -5 -3 42687.5 1818.78 5
-3 -5 -4 2740.51 482.958 8
-3 -5 -4 2608.35 506.856 1
3 5 4 2573.17 459.032 8
-3 -5 -4 2187.28 378.268 12
3 5 4 2683.4 472.935 2
-3 -5 -4 2548.67 419.886 3
3 5 4 2746.39 483.38 10
-3 -5 -4 2202.16 373.413 5
-3 -5 -5 19487.3 1354.41 8
3 5 5 17604.9 1285.89 8
3 5 5 17595 1315.14 2
-3 -5 -5 16905.4 1183.42 3
-3 -5 -5 16897.7 1195.08 12
3 5 5 15999.9 1295.96 10
-3 -5 -5 17841 1182.2 5
3 5 6 1801.46 399.118 8
-3 -5 -6 1785.79 394.504 12
3 5 6 1953.23 455.942 2
3 5 6 1476.91 252.868 11
-3 -5 -6 1105.95 296.83 3
3 5 6 1276.23 364.291 10
-3 -5 -6 1801.82 385.172 5
3 5 7 3064.42 524.802 8
-3 -5 -7 2849.6 544.337 12
3 5 7 2631.39 548.673 2
-3 -5 -7 2707.01 503.044 3
3 5 7 3323.7 635.198 10
-3 -5 -7 3152.19 536.853 5
-3 -5 -8 4771.14 761.334 12
3 5 8 6611.67 914.323 2
3 5 8 6945.22 974.082 10
-3 -5 -8 5289.07 759.422 5
-3 -5 -9 1820.77 485.358 12
3 5 9 2160.36 541.257 2
3 5 9 1671.46 504.047 10
-3 -5 -9 1862.69 481.061 5
-3 -6 9 858.844 398.12 8
-3 -6 9 1297.86 438.37 1
-3 -6 8 1357.55 471.177 8
3 6 -8 1684.08 623.514 4
-3 -6 8 891.85 401.815 1
3 6 -8 1053.51 496.779 11
3 6 -8 679.165 394.906 9
-3 -6 7 3268 704.99 1
-3 -6 7 2455.04 614.443 8
3 6 -7 1436.64 478.694 4
3 6 -7 2379.86 713.448 11
3 6 -7 3519.9 811.726 9
3 6 -6 19891.6 1738.49 4
-3 -6 6 24522.1 1945.06 8
3 6 -6 20330.8 2004.31 11
3 6 -6 17811.6 1838.64 9
3 6 -5 11522.2 1218.37 4
-3 -6 5 11915.7 1309.46 8
3 6 -5 12161.8 1406.92 11
-3 -6 5 12400.3 900.693 10
3 6 -5 12718.9 1456.73 9
3 6 -4 330.106 237.817 9
-3 -6 4 247.476 182.031 8
3 6 -4 152.217 168.961 4
3 6 -4 483.124 261.519 11
-3 -6 4 187.261 99.7861 10
3 6 -3 5270.66 894.099 9
3 6 -3 6648.9 817.384 4
-3 -6 3 7491.38 963.992 8
-3 -6 3 7520.67 781.975 4
3 6 -3 7427.65 946.035 11
-3 -6 3 6999.09 622.729 10
3 6 -2 123704 4436.98 4
3 6 -2 132605 3631.64 2
-3 -6 2 116164 4767.23 8
-3 -6 2 133927 4300.28 4
3 6 -2 127572 4737.28 11
-3 -6 2 121645 4019.9 10
3 6 -2 128041 4031.08 10
3 6 -2 132324 5190.36 9
3 6 -1 16107.4 1075.04 4
-3 -6 1 14354.1 1256.07 8
3 6 -1 14200.5 798.291 2
-3 -6 1 14687.1 939.561 4
3 6 -1 14570.7 1155.41 11
-3 -6 1 13898.5 932.658 10
3 6 -1 14314.7 934.985 10
3 6 0 2972.51 386.612 2
-3 -6 0 3023.4 351.15 4
-3 -6 0 3286.2 567.748 8
3 6 0 2504.11 360.879 4
3 6 0 3256.64 578.784 8
3 6 0 3415.34 289.272 6
3 6 0 2053.12 395.67 11
-3 -6 0 2889.05 425.39 10
3 6 0 2520.2 391.311 10
3 6 1 17279 847.809 4
-3 -6 -1 15811.9 1274.05 8
3 6 1 15917.6 1288.47 8
3 6 1 16886.6 1076.85 2
-3 -6 -1 17806.8 1273.8 3
3 6 1 19081.7 1138.45 11
-3 -6 -1 19274.1 1200.54 10
3 6 1 16031.3 1104.22 10
-3 -6 -2 9922.39 978.504 8
3 6 2 10758 1012.99 8
-3 -6 -2 12143 970.896 10
3 6 2 9887.91 875.066 2
-3 -6 -2 10427.8 963.246 3
-3 -6 -2 8776.54 969.112 2
3 6 2 10693.1 779.202 11
3 6 2 9603.27 884.166 10
-3 -6 -3 107766 4092.85 8
3 6 3 110695 4089.29 8
3 6 3 109791 4010.63 2
-3 -6 -3 109527 4037.44 3
3 6 3 100646 3952.38 10
-3 -6 -3 112749 3757.78 5
-3 -6 -4 6954.38 734.199 12
-3 -6 -4 6227.66 762.872 8
3 6 4 6366.06 752.389 8
3 6 4 7145.75 819.853 2
-3 -6 -4 6594.14 782.334 3
3 6 4 5632.32 741.252 10
-3 -6 -4 6055.56 668.942 5
-3 -6 -5 3734.23 588.356 8
3 6 5 4138.94 603.711 8
-3 -6 -5 4334.48 475.157 7
-3 -6 -5 3787.82 565.164 12
3 6 5 4551.82 687.913 2
-3 -6 -5 3722.25 610.016 3
3 6 5 3583.76 624.515 10
-3 -6 -5 3654.43 549.461 5
3 6 6 91826.6 3677.23 8
3 6 6 93900.8 4042.85 2
-3 -6 -6 96450.2 3979.67 3
-3 -6 -6 96992.2 3820.84 12
3 6 6 92641.8 4065.96 10
-3 -6 -6 99601.3 3803.25 5
-3 -6 -7 219.654 185.844 12
3 6 7 1.96456 75.287 2
3 6 7 63.882 223.091 10
-3 -6 -7 -58.1548 146.607 5
3 6 8 35066.9 2359.89 2
-3 -6 -8 35730 2290.59 12
3 6 8 35310.6 2453.83 10
-3 -6 -8 38602.3 2290.5 5
3 6 9 9808.75 1231.35 2
-3 -6 -9 11351.7 1235 5
-3 -7 8 400.384 306.512 8
-3 -7 8 624.627 337.164 1
3 7 -8 926.92 464.347 9
3 7 -7 12917.6 1483 4
-3 -7 7 12474.1 1504.96 8
3 7 -7 10075.7 1526.28 11
-3 -7 7 12543.6 1488.73 1
3 7 -7 12842.8 1598.81 9
3 7 -6 554.6 371.159 9
-3 -7 6 263.885 239.93 8
3 7 -6 419.841 241.062 4
3 7 -6 514.84 305.458 11
3 7 -5 31116.8 2124.96 4
-3 -7 5 27958.7 2185.25 8
3 7 -5 28557.7 2297.15 11
3 7 -5 27609.8 2260.3 9
3 7 -4 12309.6 1209.63 4
-3 -7 4 12084.3 1351.72 8
3 7 -4 12570 1383.43 11
-3 -7 4 11302.2 915.616 10
3 7 -4 13176.8 1465.3 9
3 7 -3 1136.12 399.046 9
-3 -7 3 913.031 331.863 8
3 7 -3 1263.85 363.851 4
3 7 -3 1136.39 147.385 2
-3 -7 3 885.821 248.952 10
3 7 -3 867.987 358.985 11
3 7 -2 99667.8 3738.07 4
-3 -7 2 94720 4176.57 8
3 7 -2 95217.7 2972.64 2
-3 -7 2 99823.5 3532.85 4
3 7 -2 95428.9 3962.77 11
3 7 -2 99147.2 3443.35 10
-3 -7 2 91021.3 3429.06 10
-3 -7 1 2007.71 487.807 8
3 7 -1 1971.62 374.501 4
3 7 -1 1953.16 306.925 2
3 7 -1 2531.58 486.264 11
-3 -7 1 1548.79 338.113 10
3 7 -1 2171.9 391.317 10
3 7 0 6556.17 612.582 4
-3 -7 0 7713.44 922.102 8
3 7 0 6497.54 647.315 2
3 7 0 5938.32 323.742 6
3 7 0 7237.88 778.517 11
-3 -7 0 6767.81 724.875 10
3 7 0 5474.18 652.126 10
-3 -7 -1 2371.78 497.7 8
3 7 1 2467.5 302.885 4
3 7 1 2406.42 326.461 6
3 7 1 3057.49 479.368 2
3 7 1 3032.39 466.713 11
-3 -7 -1 2526.16 456.076 10
3 7 1 2644.48 459.398 10
-3 -7 -2 626.781 260.134 8
3 7 2 474.423 164.71 6
3 7 2 549.756 242.919 2
3 7 2 477.425 214.107 10
-3 -7 -3 44343.9 2368.02 8
3 7 3 47243.8 2410.8 8
3 7 3 48832.5 2455.08 2
3 7 3 46709 2280.75 6
3 7 3 44543 2368.74 10
-3 -7 -3 43069.3 2113.08 5
-3 -7 -4 21806.9 1540.47 8
3 7 4 19626.4 1450.03 8
3 7 4 19572.3 1538.21 2
-3 -7 -4 21540.3 1353.05 7
3 7 4 20876.2 1559.14 6
-3 -7 -4 20432.6 1408.32 12
3 7 4 20902 1575.12 10
-3 -7 -4 23117.3 1456.73 5
-3 -7 -5 30291.3 1885.94 8
3 7 5 34966 1962.64 8
3 7 5 32205.7 2133.07 2
-3 -7 -5 34861.4 1761.95 7
-3 -7 -5 35891.3 1996.9 12
3 7 5 30890.5 2086.72 10
-3 -7 -5 36255.5 1995.33 5
3 7 6 -163.495 185.788 2
-3 -7 -6 18.0038 96.9129 12
3 7 6 579.535 309.576 10
-3 -7 -6 787.191 307.563 5
3 7 7 9333.61 1169.62 2
-3 -7 -7 8613.37 1027.34 12
-3 -7 -7 6530.06 891.136 5
3 7 7 8460.49 1126.52 10
3 7 8 10292.7 1278.14 2
-3 -7 -8 8402.79 1085.59 12
3 7 8 7574.55 1122.1 10
-3 -7 -8 7726.15 1001.63 5
3 8 -7 8458.96 1320.8 9
3 8 -7 7880.54 1203.37 4
3 8 -6 9095.64 1314.71 9
-3 -8 6 8742 1282.56 8
3 8 -6 5034.71 898.965 4
3 8 -6 7882.65 1274.84 11
3 8 -5 14007.2 1431.88 4
-3 -8 5 13495.4 1571.86 8
3 8 -5 15829.9 1696.2 11
3 8 -5 16862.6 1762.26 9
3 8 -4 14715 1382.74 4
-3 -8 4 17833.2 1744.4 8
3 8 -4 16288 1626.31 11
3 8 -4 14080 1577.26 9
3 8 -3 18888.1 1476.34 4
-3 -8 3 18622 1747.06 8
3 8 -3 18968.1 890.733 2
3 8 -3 19446.3 1684.18 11
3 8 -3 20992.3 1891.53 9
-3 -8 2 2664.63 627.803 8
3 8 -2 3134.82 533.817 4
3 8 -2 2360.82 339.134 2
3 8 -2 3243.97 622.247 11
3 8 -2 4065.49 578.268 10
-3 -8 1 139.6 202.16 8
3 8 -1 96.2824 119.775 4
3 8 -1 77.7254 92.5894 2
3 8 -1 302.513 216.221 11
3 8 -1 253.943 164.563 10
-3 -8 0 1340.65 405.066 8
3 8 0 1872.65 331.525 4
3 8 0 1536.6 341.263 2
3 8 0 2265.18 479.883 11
3 8 0 1555.09 370.576 10
3 8 1 7533.23 588.426 4
-3 -8 -1 7218.17 928.134 8
3 8 1 6803.83 793.601 2
3 8 1 7130.29 572.357 6
3 8 1 6997.35 790.304 11
3 8 1 7007.96 844.06 10
-3 -8 -2 615.062 258.498 8
3 8 2 487.411 90.0927 4
3 8 2 731.271 218.582 6
3 8 2 559.366 254.577 2
3 8 2 506.956 262.119 10
-3 -8 -3 19471.7 1523.36 8
3 8 3 17375.4 1480.17 2
3 8 3 20028.2 1422.87 6
3 8 3 20227.1 1579.39 10
-3 -8 -3 19462.5 1382.6 5
-3 -8 -4 3190.73 579.955 8
-3 -8 -4 4186.86 640.252 7
-3 -8 -4 2965.18 541.034 12
3 8 4 2258.06 528.283 2
3 8 4 3828.86 705.089 10
-3 -8 -4 4350.88 645.692 5
-3 -8 -5 48.8735 96.2111 8
-3 -8 -5 573.66 259.887 12
3 8 5 -38.2517 99.7982 2
3 8 5 476.802 298.745 10
-3 -8 -5 333.23 190.375 5
-3 -8 -6 35753.7 2090.47 8
3 8 6 40059.4 2590.55 2
-3 -8 -6 35413.6 2216.2 12
3 8 6 33882 2390.47 10
-3 -8 -6 40308.9 2323.92 5
-3 -8 -7 7596.47 998.022 12
3 8 7 9243.58 1232.94 2
3 8 7 6729.5 1040.87 10
-3 -8 -7 7286.79 995.355 5
3 9 -6 -522.643 334.663 9
3 9 -6 107.82 123.928 4
3 9 -5 27.5004 131.556 9
-3 -9 5 327.619 235.919 8
3 9 -5 -96.1051 180.308 4
3 9 -4 2761.82 702.08 9
-3 -9 4 1952.42 596.417 8
3 9 -4 2200.53 531.362 4
3 9 -4 2297.43 622.891 11
3 9 -3 -64.4224 178.474 9
-3 -9 3 456.185 298.686 8
3 9 -3 960.998 351.888 4
3 9 -3 370.274 253.985 11
3 9 -2 81072.9 3388.71 4
-3 -9 2 72897.4 3893.2 8
3 9 -2 76272.4 2873.97 2
3 9 -2 81386.7 3812.17 11
3 9 -2 78071.3 3335.85 10
-3 -9 1 1512.09 502.122 8
3 9 -1 2858.83 484.016 4
3 9 -1 2404.29 430.642 2
3 9 -1 3435.19 646.029 11
3 9 -1 2322.3 487.559 10
-3 -9 0 417.51 261.32 8
3 9 0 931.83 255.376 4
3 9 0 509.618 267.31 11
3 9 0 406.953 200.548 2
3 9 0 429.456 245.055 10
-3 -9 -1 27972.6 2051.31 8
3 9 1 31108.4 1948.7 2
3 9 1 32814.9 1977.12 11
3 9 1 29509.5 1981.57 10
-3 -9 -2 8984.36 1075.4 8
3 9 2 8518.28 1035.62 2
3 9 2 9882.04 1113.55 10
-3 -9 -3 3013.89 564.993 5
-3 -9 -3 2890.1 595.38 8
3 9 3 2827.67 614.319 2
3 9 3 1971.25 522.576 10
-3 -9 -4 185.922 195.986 8
-3 -9 -4 148.319 169.025 12
3 9 4 -148.488 169.083 2
3 9 4 451.984 312.995 10
-3 -9 -4 -41.5729 97.5273 5
-3 -9 -5 3398.23 635.69 12
3 9 5 2844.48 670.569 2
3 9 5 2232.45 594.871 10
-3 -9 -5 4490.24 722.921 5
-3 -9 -6 15847.5 1474.81 12
3 10 -5 1597.33 485.027 4
3 10 -4 5389.87 1031.06 9
3 10 -4 5128.71 858.148 4
3 10 -4 6688.83 1116.36 11
3 10 -3 2226.05 666.948 9
-3 -10 3 1180.01 467.236 8
3 10 -3 2310.88 526.737 4
3 10 -3 1044.65 446.533 11
3 10 -2 14811.3 1298.41 4
-3 -10 2 12272.6 1540.67 8
3 10 -2 17518.2 1673.62 11
3 10 -2 16147.2 1398.13 10
3 10 -1 8133.14 1068.99 11
-3 -10 1 6846.56 1073.16 8
3 10 -1 6718.78 795.525 2
3 10 -1 6419.06 887.647 10
-3 -10 0 8581.23 1174.98 8
3 10 0 9300.52 1021.17 2
3 10 0 10699.8 1200.42 11
3 10 0 9087.58 1076.71 10
-3 -10 -1 25884.2 2091.64 8
3 10 1 31140.1 2082.64 2
3 10 1 31530.5 2085.46 11
3 10 1 31486 2159.43 10
-3 -10 -2 2278.31 521.267 5
-3 -10 -2 2293.97 565.591 8
3 10 2 1912.29 523.628 2
3 10 2 2352.93 582.556 10
-3 -10 -3 17790.2 1613.82 8
3 10 3 16539.5 1659.02 2
-3 -10 -3 20963.3 1598.74 12
3 10 3 19752.8 1756.7 10
-3 -10 -3 21478.8 1656.27 5
-3 -10 -4 4168.84 735.967 12
3 10 4 4481.04 845.456 10
3 10 4 4817.84 890.27 2
3 11 -3 323.13 374.622 9
3 11 -2 4951.11 799.489 10
3 11 -2 4992.39 936.13 11
-3 -11 1 8652.58 1287.31 8
3 11 -1 7926.54 1134.6 11
3 11 -1 7283.52 1007.27 10
-3 -11 0 294.245 232.529 8
3 11 0 159.572 225.31 11
3 11 0 115.431 185.623 2
3 11 0 -128.855 181.129 10
-3 -11 -1 2991.13 721.784 8
3 11 1 3671.84 756.475 11
3 11 1 4271.19 780.699 2
3 11 1 3707.22 766.99 10
-3 -11 -2 456.627 290.841 8
3 11 2 -1.62242 131.872 2
-3 -12 -1 38.5113 303.821 8
4 -8 2 281.092 334.99 6
4 -7 0 2344.96 691.086 6
4 -7 1 3006.99 750.229 6
4 -7 2 2873.77 741.953 6
4 -7 3 114.308 194.633 1
4 -7 3 -155.267 151.845 6
4 -7 4 16779.4 1652.72 1
4 -7 4 15937.8 1680.53 6
4 -7 5 291.314 215.742 1
4 -7 5 569.096 373.283 6
-4 7 -6 271.438 193.792 3
-4 7 -7 699.772 414.274 3
-4 6 3 1211.28 498.607 7
-4 6 3 923.332 322.413 10
-4 6 2 2815.94 763.353 7
4 -6 -2 2346.45 729.348 6
-4 6 2 1175 403.359 10
-4 6 1 19.2759 196.757 7
4 -6 -1 121.565 250.277 6
-4 6 1 140.252 123.625 3
-4 6 1 135.953 153.944 10
-4 6 0 73.0352 187.559 7
4 -6 0 282.044 300.721 6
-4 6 0 519.081 366.818 3
-4 6 -1 9939 1396.53 7
4 -6 1 10346.2 1350.28 6
-4 6 -1 10311.6 1514.49 3
4 -6 2 400.341 241.966 1
-4 6 -2 534.731 344.413 7
4 -6 2 561.009 326.516 6
-4 6 -2 436.998 293.85 3
-4 6 -3 15850.7 1753.45 7
4 -6 3 12863.4 1318.51 1
-4 6 -3 14267 1697.7 3
4 -6 3 12234.1 1420.21 6
-4 6 -4 41450 2918.67 7
4 -6 4 34084.1 2407.94 1
-4 6 -4 40885 2881.25 3
4 -6 4 35821.5 2506.5 6
4 -6 5 101.134 138.703 1
-4 6 -5 41.9648 114.317 3
4 -6 5 -1.56677 132.115 6
4 -6 6 13524.1 1575.02 1
-4 6 -6 11531.3 1391.13 3
4 -6 6 12842.9 1416.87 6
-4 6 -7 306.091 244.767 3
4 -6 7 31.3763 103.17 6
-4 5 5 245.922 187.209 7
-4 5 5 385.418 277.014 10
4 -5 -5 604.848 264.417 5
-4 5 4 7375.29 1211.51 7
-4 5 4 7912.48 995.608 10
4 -5 -4 6044.06 801.179 5
-4 5 3 4703.04 953.578 7
4 -5 -3 6663.77 1204.42 6
-4 5 3 5392.05 1147.82 3
-4 5 3 4761.11 749.407 10
4 -5 -3 4544.8 646.813 5
-4 5 2 211.642 296.922 7
4 -5 -2 301.315 305.624 6
-4 5 2 295.162 334.985 3
-4 5 2 239.697 160.073 10
4 -5 -2 145.093 137.209 5
-4 5 1 28117.3 2376.16 7
-4 5 1 30443.3 2681.01 3
4 -5 -1 31881.9 2487.99 6
4 -5 -1 28329.4 1562.04 5
-4 5 1 29506.5 1918.86 10
-4 5 0 278.225 233.152 7
4 -5 0 430.974 310.902 6
-4 5 0 411.344 323.633 3
4 -5 0 206.459 107.858 5
-4 5 -1 23691.3 2095.08 7
-4 5 -1 17355.9 1966.79 3
4 -5 1 18808.8 1757.4 6
4 -5 1 19645.5 1429.97 1
4 -5 1 18505.4 1096.2 5
-4 5 -2 15753.1 1694.62 7
-4 5 -2 14015.5 1684.96 3
4 -5 2 15308 1315.52 1
4 -5 2 16891.1 1610.94 6
4 -5 2 15572.6 948.705 5
4 -5 3 1354.17 399.164 1
-4 5 -3 1282.01 503.898 7
-4 5 -3 2181.99 623.053 3
4 -5 3 1752.8 502.411 6
-4 5 -4 20351.5 1908.62 7
4 -5 4 18813.8 1635.93 1
-4 5 -4 19009.6 1865.81 3
4 -5 4 19393.6 1693.72 6
4 -5 5 918.558 372.184 1
-4 5 -5 569.393 326.499 7
-4 5 -5 814.32 326.86 3
4 -5 5 659.369 284.129 6
4 -5 6 163.316 163.936 1
-4 5 -6 39.928 129.174 3
-4 5 -7 30442.6 2127.72 3
4 -5 7 32156.1 2551.46 1
-4 5 -8 909.505 427.752 11
-4 5 -9 15561.7 1681.92 11
-4 4 6 4040.84 873.073 7
-4 4 6 4033.24 1002.42 3
4 -4 -6 5171.02 788.843 5
-4 4 5 247.206 229.458 7
-4 4 5 1180.57 541.939 3
-4 4 5 908.826 336.705 10
4 -4 -5 970.901 316.883 5
-4 4 4 5616.69 1065.28 7
-4 4 4 6210.15 1213.53 3
-4 4 4 7220.17 887.233 10
4 -4 -4 9165.21 1393.11 6
4 -4 -4 5307.9 710.312 5
-4 4 3 17006.5 1818.12 7
-4 4 3 15801.6 1951.55 3
4 -4 -3 15450.5 1775.87 6
4 -4 -3 16502.3 1202.79 5
-4 4 3 15543.6 1313.2 10
-4 4 2 50836.9 3245.58 7
-4 4 2 46073.3 3411.28 3
4 -4 -2 48214.1 3136.5 6
4 -4 -2 47868.5 2143.85 5
-4 4 2 47884.2 2433.91 10
4 -4 -1 3857.4 456.076 1
4 -4 -1 3407.81 745.594 6
-4 4 1 4732.41 922.92 7
-4 4 1 2856.68 785.953 3
-4 4 1 3799.87 595.608 10
4 -4 -1 3523.96 454.665 5
4 -4 0 124.807 116.924 1
4 -4 0 -39.9185 109.393 8
-4 4 0 -254.483 213.911 7
-4 4 0 323.313 298.607 3
4 -4 0 196.969 109.422 5
-4 4 -1 12774.3 1486.82 7
-4 4 -1 11543.4 1523.2 3
4 -4 1 13288.3 1395.07 6
4 -4 1 13009.3 1110.99 1
4 -4 1 12310.7 777.651 5
-4 4 -1 10740.5 1255.84 9
4 -4 2 1437.52 236.629 5
-4 4 -2 935.222 340.538 9
-4 4 -2 1025.43 399.325 7
4 -4 2 1358.5 382.334 1
4 -4 2 2468.24 582.088 6
-4 4 -2 1028.82 477.002 3
-4 4 -3 131.458 107.105 9
4 -4 3 100.766 154.24 1
-4 4 -3 77.3018 170.325 7
4 -4 3 221.095 168.688 6
-4 4 -3 -40.3548 155.573 3
4 -4 4 5688.34 843.119 1
-4 4 -4 5193.44 919.355 7
4 -4 4 5949.07 865.769 6
-4 4 -4 5217.88 927.993 3
4 -4 5 -21.4865 173.454 1
-4 4 -5 224.364 195.782 3
-4 4 -6 20924.3 1851.56 7
-4 4 -6 23029 1811 3
4 -4 6 24579.1 2033.73 1
4 -4 7 1034.9 451.643 1
-4 4 -7 1349.67 391.901 3
4 -4 8 792.402 431.465 1
-4 4 -8 521.017 291.158 4
-4 4 -8 602.886 340.208 11
-4 4 -9 14670.9 1526.49 11
-4 3 7 4394.42 1054.35 3
-4 3 7 1432.56 573.641 2
-4 3 6 2701.74 772.939 7
-4 3 6 2841.94 823.37 3
4 -3 -6 3151.39 594.967 5
-4 3 5 368.148 355.133 7
4 -3 -5 2.19554 140.15 6
-4 3 5 39.9307 131.091 3
-4 3 5 -71.2806 111.984 10
4 -3 -5 -3.49123 112.087 5
-4 3 4 15410.8 1770.42 7
4 -3 -4 14455.6 1710.17 6
-4 3 4 14726 1871.73 3
4 -3 -4 15501.9 1180.73 5
-4 3 4 14482.2 1195.08 10
-4 3 3 26593 2335.91 7
4 -3 -3 24698.3 2183.51 6
-4 3 3 23650.1 2367.89 3
4 -3 -3 29132.7 1558.83 5
-4 3 3 26580.7 1628.58 10
4 -3 -2 2067.81 362.735 8
-4 3 2 1862.05 595.334 7
4 -3 -2 1309.42 445.259 6
-4 3 2 839.007 416.792 3
-4 3 2 1288.06 331.279 10
4 -3 -2 1604.1 311.659 5
4 -3 -1 31747 1729.35 8
-4 3 1 29295.8 2361.66 7
4 -3 -1 30109 2204.81 6
-4 3 1 25994 2400.29 3
4 -3 -1 28568.8 1367.27 5
-4 3 1 32397.1 1721.69 10
4 -3 0 23.854 90.6921 8
-4 3 0 206.183 130.12 1
-4 3 0 155.778 232.536 7
4 -3 0 200.774 131.95 1
4 -3 0 -13.1638 141.131 6
4 -3 0 68.0061 70.7248 5
-4 3 -1 4033.37 707.036 9
4 -3 1 3346.65 592.92 8
-4 3 -1 3217.39 501.296 1
-4 3 -1 3790.82 781.117 7
4 -3 1 3287.81 644.297 6
-4 3 -1 3376.75 809.73 3
4 -3 1 3744.45 350.787 5
4 -3 1 4092.99 595.918 1
-4 3 -2 15433.5 1211.47 1
-4 3 -2 18311.9 1699.2 7
4 -3 2 18296.3 1373.51 1
-4 3 -2 14328.3 1614.67 3
4 -3 2 14099 1330.32 6
4 -3 2 15045.4 734.892 5
-4 3 -2 13857.7 1211.82 9
-4 3 -3 8710.76 1131.52 7
4 -3 3 8670.54 974.425 1
4 -3 3 9498.32 1059.7 6
-4 3 -3 6125.22 1010.66 3
-4 3 -3 7649.87 765.927 9
-4 3 -4 62074.1 3334.32 7
-4 3 -4 65573.4 3472.51 3
4 -3 4 63036.7 3142.5 1
4 -3 5 482.277 298.732 1
-4 3 -5 128.472 180.739 7
-4 3 -5 320.435 209.164 3
4 -3 6 350.82 280.665 1
-4 3 -6 44.484 143.632 7
-4 3 -6 186.874 165.391 3
4 -3 6 151.755 106.803 5
-4 3 -7 20729.9 1507.54 3
4 -3 7 23243.3 2000.89 1
-4 3 -8 13471.7 1428.96 4
4 -3 8 12175.1 1503.64 1
-4 3 -8 11433.9 1212.2 11
-4 3 -9 29761.2 2311.82 4
4 -3 9 29435.4 2534.79 1
-4 3 -9 30208.8 2121.46 11
-4 2 7 28.964 150.33 7
-4 2 7 222.539 301.495 3
-4 2 7 506.093 365.336 2
-4 2 6 1222.95 527.684 7
4 -2 -6 1097.31 490.666 6
-4 2 6 662.497 408.452 3
-4 2 5 1147.02 492.551 7
4 -2 -5 1239.58 482.765 6
-4 2 5 900.893 448.628 3
-4 2 5 780.333 263.252 10
4 -2 -5 951.579 299.874 5
-4 2 4 23338.5 2218.09 7
4 -2 -4 24232.5 2100.61 6
-4 2 4 21857.6 2305.56 3
4 -2 -4 20642.2 1395.64 10
4 -2 -4 21478.4 1363.22 5
-4 2 4 22587.9 1398.77 10
4 -2 -3 6367.5 593.811 8
-4 2 3 6123.93 1087.73 7
-4 2 3 5279.25 544.22 12
4 -2 -3 4966.07 895.608 6
4 -2 -3 6323.07 708.334 10
4 -2 -3 5137.07 573.779 5
-4 2 3 6121.01 657.921 10
-4 2 3 6863.7 1234.97 3
-4 2 3 6007.32 578.371 5
4 -2 -2 182.228 125.937 8
-4 2 2 594.702 126.77 1
-4 2 2 1062.88 480.169 7
-4 2 2 486.967 140.277 12
4 -2 -2 682.959 316.087 6
-4 2 2 889.239 486.886 3
4 -2 -2 214.054 124.837 10
-4 2 2 742.642 213.494 10
4 -2 -2 701.905 180.987 5
-4 2 1 64170.9 2297.37 1
4 -2 -1 65455 2723.15 8
-4 2 1 64644.8 3732.05 7
-4 2 1 67248.9 2090.65 12
4 -2 -1 65863.9 3336.27 6
-4 2 1 65446.9 3956.28 3
4 -2 -1 63443 2237.86 5
4 -2 -1 63989 2681.06 10
-4 2 1 67527.5 2586.95 10
4 -2 0 28991.3 1752.25 8
-4 2 0 31872.9 1534.64 1
-4 2 0 38348.7 2588.26 7
-4 2 0 31339.6 988.874 12
-4 2 0 32506.5 2563.32 3
4 -2 0 31154 2064.16 6
4 -2 0 30804 1653.2 10
4 -2 0 30818.7 1201.31 5
4 -2 0 33716.5 2227.42 9
-4 2 0 34725.9 2259.52 9
4 -2 0 29167.9 1607.55 1
4 -2 1 41246.7 2201.8 8
-4 2 -1 37699.1 1873.73 1
-4 2 -1 38895.4 2625.79 7
-4 2 -1 33636.7 2636.28 3
4 -2 1 40934.5 2339.57 6
4 -2 1 39434.4 2041.82 1
4 -2 1 39599 1946.71 10
4 -2 1 40577.6 1317.75 5
4 -2 1 39854.8 2307.4 9
-4 2 -1 36533.8 2212.36 9
-4 2 -2 1032.12 303.524 9
4 -2 2 1002.81 339.087 8
-4 2 -2 1661.18 505.168 7
-4 2 -2 830.07 256.205 1
4 -2 2 1247.77 367.647 6
-4 2 -2 1459.36 499.104 3
4 -2 2 557.165 263.667 1
4 -2 2 897.186 263.586 10
4 -2 2 505.227 213.283 9
4 -2 2 810.169 112.897 5
-4 2 -3 25230.8 1668.59 1
-4 2 -3 28014.5 2043.27 7
-4 2 -3 24781.1 2045.62 3
4 -2 3 28650.3 1825.77 1
4 -2 3 26857.8 1562.99 9
-4 2 -3 27695.4 1479.19 9
-4 2 -4 90923.1 4109.58 7
-4 2 -4 87866.8 4174.86 3
4 -2 4 93952.7 3967.66 1
4 -2 4 93385 2754.29 5
-4 2 -5 16506.7 1457.05 7
-4 2 -5 14625.4 816.515 12
-4 2 -5 14387.7 1375.77 3
4 -2 5 15386.7 1432.07 1
4 -2 5 15436 826.747 5
-4 2 -6 1530.59 408.691 7
4 -2 6 470.082 285.919 1
-4 2 -6 705.313 194.243 12
-4 2 -6 974.029 333.78 3
4 -2 6 796.257 197.939 5
-4 2 -7 35000.8 2128.29 7
-4 2 -7 32133 1830.22 3
-4 2 -7 34465.1 1734.11 12
4 -2 7 36853.3 2516.54 1
4 -2 7 32204.5 1462.46 12
4 -2 7 32496.8 1591.06 5
-4 2 -8 3126.45 644.047 4
4 -2 8 4013.5 822.826 1
-4 2 -8 2547.82 471.246 12
-4 2 -8 3749.62 619.692 11
-4 2 -9 24151.1 1984.78 4
4 -2 9 26082.1 2308.77 1
-4 2 -9 23679.5 1735.34 11
-4 2 -10 206.843 130.544 4
-4 1 8 5876.96 1233.47 3
-4 1 7 11484.6 1651.97 7
-4 1 7 10101.6 1289.27 2
4 -1 -7 10569.5 1514.23 6
-4 1 7 10871.5 1642.69 3
-4 1 6 14259.8 1822.74 7
4 -1 -6 13055.6 1624.45 6
-4 1 6 14360.8 1911.69 3
-4 1 5 1666.17 572.579 7
4 -1 -5 1730.42 539.881 6
-4 1 5 694.148 404.73 3
-4 1 5 1262.2 296.883 10
-4 1 4 16846 1982.16 3
4 -1 -4 15844.4 989.138 8
-4 1 4 17231 1911.63 7
4 -1 -4 16344.3 1669.45 6
-4 1 4 15966.7 1043.51 10
4 -1 -3 18584.5 1140.26 8
-4 1 3 19214.3 795.874 1
-4 1 3 19641.6 1993.01 7
-4 1 3 17660.9 1115.49 12
4 -1 -3 20866.7 1778.99 6
-4 1 3 18739.6 2070.47 3
4 -1 -3 18575.5 1138 10
-4 1 3 20286.9 1128.59 10
-4 1 3 19568.4 1096.13 5
4 -1 -3 18964.7 1889.18 9
4 -1 -2 7108.88 699.376 8
-4 1 2 7019.96 526.513 1
-4 1 2 7187.25 1147.45 7
-4 1 2 7122.68 596.705 12
4 -1 -2 5498.92 847.133 6
4 -1 -2 7482.99 584.088 5
4 -1 -2 6667.66 633.232 10
-4 1 2 7824.73 642.887 10
-4 1 2 7753.25 571.648 5
-4 1 2 8357.22 1339.99 3
4 -1 -2 7991.02 1133.08 9
-4 1 1 376.903 100.527 5
-4 1 1 -60.8007 85.0637 9
-4 1 1 298.128 128.321 1
4 -1 -1 575.203 211.665 8
-4 1 1 277.557 311.491 7
-4 1 1 345.131 114.797 12
4 -1 -1 487.373 257.048 6
4 -1 -1 389.381 151.591 10
4 -1 -1 138.297 66.7291 5
4 -1 -1 174.527 176.333 9
-4 1 0 434.512 167.073 1
-4 1 0 657.091 292.779 9
-4 1 0 369.625 96.1933 12
4 -1 0 755.949 251.99 8
4 -1 0 321.513 153.467 1
-4 1 0 421.458 321.726 7
4 -1 0 447.542 252.67 6
4 -1 0 459.461 163.869 10
-4 1 0 274.307 225.693 3
4 -1 0 322.962 82.7505 5
4 -1 0 545.41 264.149 9
4 -1 1 15977.5 1262.16 8
-4 1 -1 15644.7 1103.43 1
-4 1 -1 17186.5 1664.52 7
-4 1 -1 14278.3 1628.55 3
4 -1 1 14297.8 1242.81 6
4 -1 1 16121 1033.51 10
4 -1 1 14977.1 1319.08 9
4 -1 1 15574.4 1182.78 1
-4 1 -1 17262.4 1345.57 9
4 -1 2 120316 4567.66 8
-4 1 -2 119773 4291.32 1
-4 1 -2 121754 5113.83 7
4 -1 2 124661 5502.61 7
-4 1 -2 126407 3271.04 12
-4 1 -2 107622 5165.66 3
4 -1 2 132937 4641.73 6
4 -1 2 125818 4528.79 1
4 -1 2 110462 3974.41 10
4 -1 2 118802 4444.87 9
-4 1 -2 115720 4248.44 9
4 -1 3 5266.66 751.913 8
-4 1 -3 5819.19 870.911 7
4 -1 3 4728.32 882.69 7
-4 1 -3 4810.08 327.368 12
-4 1 -3 3739 588.093 1
-4 1 -3 2923.99 656.41 3
4 -1 3 3737.36 621.462 1
4 -1 3 3846.8 552.971 9
-4 1 -4 78746.7 3605.16 7
4 -1 4 76476.6 3977.98 7
-4 1 -4 77446.2 2449.03 12
-4 1 -4 71427.8 3610.75 3
4 -1 4 71290.4 3402.71 1
4 -1 4 77474.2 2265.27 5
4 -1 4 82006.5 2926.04 9
-4 1 -5 6714.83 870.668 7
4 -1 5 7447.13 1085.64 7
-4 1 -5 6676.93 559.79 12
-4 1 -5 7054.59 905.966 3
4 -1 5 6906.03 938.673 1
4 -1 5 5814.05 451.452 5
4 -1 5 6808.07 592.633 9
4 -1 6 2258 290.238 9
-4 1 -6 2650.27 517.14 7
4 -1 6 3401.63 718.654 7
-4 1 -6 3496.61 455.336 12
4 -1 6 2923.13 656.381 1
-4 1 -6 2708.61 513.025 3
4 -1 6 2743.11 344.745 5
4 -1 7 206.678 82.2128 9
-4 1 -7 329.103 182.675 7
4 -1 7 22.3991 157.883 7
-4 1 -7 176.44 110.011 12
4 -1 7 287.244 239.005 1
-4 1 -7 631.49 240.217 11
-4 1 -7 122.901 119.007 3
4 -1 7 182.767 136.926 12
4 -1 7 42.6973 59.8078 5
-4 1 -8 5590.67 837.955 4
4 -1 8 5763.43 975.13 7
-4 1 -8 7371.21 819.83 12
4 -1 8 6246.43 1033.43 1
-4 1 -8 6209.25 734.43 11
-4 1 -9 9225.29 1139.28 4
-4 1 -9 7534.49 920.359 12
-4 1 -9 9018.74 949.248 11
4 -1 9 10465.6 1399.21 1
-4 1 -10 10026.8 1282.05 4
-4 1 -10 12137 1253.84 12
4 -1 10 9081.8 1383.29 1
-4 1 -11 355.833 233.259 4
-4 1 -11 168.495 172.694 12
-4 0 8 8507.73 1462.44 7
-4 0 8 11414.3 1726.18 3
-4 0 7 17920.2 2095.24 7
-4 0 7 18847.4 1658.62 2
4 0 -7 17449.1 1888.71 6
-4 0 7 16661.7 2105.62 3
-4 0 6 32819.5 2854.45 7
4 0 -6 36435 2661.69 6
-4 0 6 33858.5 3025.43 3
-4 0 5 722.829 205.299 8
-4 0 5 932.615 466 7
4 0 -5 429.349 258.138 6
-4 0 5 564.89 172.98 10
-4 0 5 492.412 424.168 3
4 0 -5 224.216 317.366 9
-4 0 4 514.636 191.797 8
4 0 -4 558.497 201.756 8
-4 0 4 576.669 347.382 7
4 0 -4 871.028 373.209 6
-4 0 4 509.44 156.803 10
-4 0 4 76.0674 151.702 3
-4 0 4 208.967 104.076 1
-4 0 4 554.138 201.991 5
4 0 -4 984.065 491.693 9
-4 0 3 35642.7 1742.24 8
4 0 -3 33469.7 1702 8
-4 0 3 32840.2 2617.13 7
-4 0 3 34473 1712.2 12
4 0 -3 32765.3 2213.4 6
-4 0 3 35991.5 2942.28 3
-4 0 3 35340.8 1428.02 10
-4 0 3 32556.6 1460.78 1
-4 0 3 35757.8 1580.14 5
4 0 -3 35044.5 2560.04 9
-4 0 2 1176.43 247.238 1
-4 0 2 1456.83 315.504 8
4 0 -2 1268.12 293.54 8
-4 0 2 2137.94 596.626 7
-4 0 2 1578.93 290.888 12
4 0 -2 1787.07 457.789 6
4 0 -2 1611.66 257.545 10
-4 0 2 1563.9 232.061 10
-4 0 2 1399.89 548.525 3
-4 0 2 1640.8 249.926 5
4 0 -2 1974.47 553.695 9
-4 0 1 20118.2 1314.08 8
4 0 -1 20156.7 1313.38 8
-4 0 1 21895.3 1983.74 7
-4 0 1 21096.1 1096.24 12
4 0 -1 23009.1 1605.02 6
-4 0 1 23896 2207.4 3
-4 0 1 22081.2 1232.6 1
4 0 -1 20512.1 1022.36 10
-4 0 1 21501.4 908.849 5
4 0 -1 22596.4 1820.96 9
-4 0 1 22930.2 1767.26 9
4 0 0 10773.6 961.096 8
-4 0 0 9651.14 1250.94 7
4 0 0 10488.7 1339.26 7
-4 0 0 11038.1 877.068 1
4 0 0 9034.39 955.573 6
-4 0 0 12119.7 1506.48 3
4 0 0 11130.6 719.417 10
-4 0 0 10673.2 448.105 5
4 0 0 10369.4 1135.88 9
-4 0 0 9461.73 1031.28 9
-4 0 -1 3497.24 564.135 9
4 0 1 3963.18 601.631 8
-4 0 -1 3351.62 705.904 7
4 0 1 3335.23 518.944 1
4 0 1 5647.6 948.877 7
-4 0 -1 4254.85 563.166 1
4 0 1 3436.69 559.575 6
4 0 1 3845.07 425.202 10
-4 0 -1 4130.83 846.935 3
4 0 1 3477.21 610.525 9
4 0 2 136937 4909.83 8
-4 0 -2 132265 5492.25 7
4 0 2 146155 5779.21 7
-4 0 -2 139340 4736.54 1
-4 0 -2 128470 5620.68 3
4 0 2 129801 4793.38 9
4 0 2 139424 4887.15 1
-4 0 -2 136831 4437.92 2
4 0 3 13866.7 1231.51 8
-4 0 -3 14215.5 1374.78 7
4 0 3 14919 1519.63 7
-4 0 -3 14840.9 1206.4 1
-4 0 -3 15287.3 740.748 12
-4 0 -3 14706.2 1506.73 3
4 0 3 17103.9 1361.64 1
4 0 3 16222.8 1179.62 9
-4 0 -3 14538.3 1022.7 2
-4 0 -4 45086.7 2516.86 7
-4 0 -4 49956.8 2515.01 1
4 0 4 45013.9 2767.23 7
-4 0 -4 49629.2 1781.85 12
-4 0 -4 47471.5 2731.94 3
4 0 4 44810.2 2509 1
4 0 4 48013.3 1497.27 5
4 0 4 45625.2 2089.45 9
4 0 5 403.086 223.311 1
4 0 5 936.949 239.287 9
-4 0 -5 414.761 211.505 7
4 0 5 464.829 247.582 7
-4 0 -5 313.144 131.978 12
-4 0 -5 286.148 206.05 3
4 0 5 221.236 91.4335 5
-4 0 -6 5527.04 700.172 7
4 0 6 5303.49 846.69 7
-4 0 -6 6452.21 641.346 12
-4 0 -6 5464.24 705.198 3
4 0 6 5678.19 503.422 5
4 0 6 5265.65 845.334 1
4 0 6 5435.38 558.458 9
-4 0 -7 48444.6 2540.72 4
-4 0 -7 53004.4 2421.48 7
4 0 7 57441.7 3028.61 7
-4 0 -7 51862.6 2166.52 3
-4 0 -7 56740.2 2465.65 12
-4 0 -7 53528.3 2184.95 11
4 0 7 55731.8 3147.79 1
4 0 7 56094.5 2180.71 5
-4 0 -8 1678.58 433.338 4
4 0 8 2840.88 537.885 2
-4 0 -8 2731.77 503.568 12
-4 0 -8 924.182 267.221 11
4 0 8 2850.1 679.333 1
-4 0 -9 7243.3 950.977 4
-4 0 -9 4909.65 744.088 12
4 0 9 5069.16 962.673 1
4 0 9 6283.29 805.827 2
-4 0 -10 1970.71 541.869 4
4 0 10 1668.65 432.668 2
-4 0 -10 2509.81 568.963 12
4 0 10 2814.31 786.562 1
-4 0 -11 2937.79 719.431 4
4 0 11 3448.9 650.413 2
-4 0 -11 4374.66 833.42 12
-4 -1 8 6505.54 1316.04 7
-4 -1 8 9721.3 1609.77 3
-4 -1 7 2358.56 783.982 7
-4 -1 7 411.301 351.658 3
4 1 -7 2915.71 867.132 9
-4 -1 6 5036.2 642.45 8
-4 -1 6 3747.68 914.027 7
4 1 -6 3954.43 802.492 6
-4 -1 6 5626.73 1219.92 3
4 1 -6 4830.08 1059.62 9
-4 -1 5 141.862 116.422 8
-4 -1 5 269.663 263.607 7
4 1 -5 567.787 333.33 6
-4 -1 5 82.889 80.368 10
-4 -1 5 237.571 266.521 3
4 1 -5 140.411 252.577 9
-4 -1 4 9727.24 884.318 8
4 1 -4 11101.4 940.376 8
-4 -1 4 9811.67 1372.92 7
4 1 -4 10065.1 1162.83 6
-4 -1 4 10461.9 598.951 10
-4 -1 4 9619.2 813.537 5
4 1 -4 7838.58 1210.65 9
-4 -1 3 42618.6 2047.24 8
4 1 -3 42027.5 2045.48 8
-4 -1 3 42968.7 2935.73 7
-4 -1 3 44565.7 2051.95 12
4 1 -3 40198.4 2389.28 6
-4 -1 3 41261.3 1773.95 5
-4 -1 3 43065.5 1407.31 10
4 1 -3 38763.1 2716.31 9
-4 -1 2 21207.4 1341.67 8
-4 -1 2 20756.2 1231.97 1
4 1 -2 19887.3 1319.69 8
-4 -1 2 19640.2 1880.51 7
4 1 -2 20024.7 1504.41 6
-4 -1 2 21388.3 1435.99 6
-4 -1 2 20903.8 1733.33 11
-4 -1 2 21710.8 1048.34 5
4 1 -2 21464.1 1839.01 9
-4 -1 1 50393.6 2293.19 8
4 1 -1 47571.2 2275.92 8
-4 -1 1 48450.9 2994.45 7
4 1 -1 49268.4 2455.55 6
-4 -1 1 52382.3 2762.82 11
4 1 -1 49811.2 1633.03 10
-4 -1 1 52708.5 1730.41 5
4 1 -1 53304.6 2912.79 9
-4 -1 1 52237.3 2768.36 9
-4 -1 1 51939.4 2224.44 1
-4 -1 0 22038.1 1403.44 8
4 1 0 22756.8 1441.31 8
-4 -1 0 20412.2 1307.82 1
-4 -1 0 22377.1 1875.14 7
4 1 0 20686.6 1405.02 6
-4 -1 0 22005.9 795.085 5
4 1 0 21010.1 929.083 10
4 1 0 20682.6 1636.88 9
-4 -1 0 21476.4 1555.03 9
-4 -1 -1 39027.2 2052.35 8
4 1 1 37287.2 2041.25 8
-4 -1 -1 40165.9 2568.18 7
4 1 1 41627.6 2056.02 6
-4 -1 -1 39253.2 2012.89 1
4 1 1 40930.6 2243.78 9
-4 -1 -1 43156.6 1813.44 2
-4 -1 -1 40873.3 2120.71 9
4 1 2 385.431 189.281 9
-4 -1 -2 572.711 292.912 7
-4 -1 -2 378.133 143.287 2
4 1 2 687.324 261.022 1
-4 -1 -2 557.805 212.128 1
-4 -1 -3 97514.3 3399.54 2
4 1 3 99926.7 3943.19 8
-4 -1 -3 91251.8 4145.4 7
4 1 3 102529 4326.98 7
-4 -1 -3 97565 3851.04 1
-4 -1 -3 98462.7 3020.04 12
4 1 3 96786.4 3656.26 9
4 1 3 98955.3 3947.36 1
4 1 4 28587.3 1860.71 8
-4 -1 -4 30962.4 1578.81 2
-4 -1 -4 27980 1870.48 7
4 1 4 29234 2000.62 7
-4 -1 -4 28285.5 1836.81 1
-4 -1 -4 28309.6 1294.14 12
4 1 4 29193.1 1061.03 5
4 1 4 25274.5 1819.01 1
4 1 4 30027.9 1641.17 9
-4 -1 -5 27391.4 1704.43 7
4 1 5 28677.4 1928.64 7
-4 -1 -5 28213.9 1394.45 12
-4 -1 -5 26916.8 1857.73 3
4 1 5 27266.9 1937.33 1
4 1 5 28604.9 1193.59 5
4 1 5 28088.8 1570.26 2
4 1 6 1141.99 391.76 1
-4 -1 -6 1008.24 273.19 7
4 1 6 692.197 243.606 2
4 1 6 1300.55 378.536 7
-4 -1 -6 883.554 251.464 12
-4 -1 -6 1008.33 180.605 11
-4 -1 -6 748.72 252.565 3
4 1 6 1052.38 217.268 5
-4 -1 -7 39884.5 2089.6 4
-4 -1 -7 41901 1891.65 7
4 1 7 44370.4 2343.57 7
-4 -1 -7 38677.5 1735.51 3
-4 -1 -7 42587.4 2093.3 12
-4 -1 -7 37857.1 1607.08 11
4 1 7 40111.7 2607.99 1
4 1 7 44943 1868.52 5
4 1 7 47855.9 2247.11 2
-4 -1 -8 5360.59 741.184 4
4 1 8 5644.82 935.201 1
-4 -1 -8 3945.13 465.048 11
4 1 8 4190.58 628.696 2
-4 -1 -8 5717.39 742.492 12
-4 -1 -9 14832.6 1356.97 4
-4 -1 -9 15102.6 1356.59 12
4 1 9 16860.4 1756.48 1
4 1 9 15055.5 1285.65 2
-4 -1 -10 9803.01 1166.67 4
-4 -1 -10 11693.1 1277.75 12
4 1 10 13350.8 1623.94 1
4 1 10 11649.9 1158.92 2
-4 -1 -11 1256.11 481.253 4
4 1 11 1674.59 465.79 2
-4 -1 -11 1495.72 463.009 12
-4 -2 8 947.035 522.192 7
-4 -2 8 1524.92 618.617 3
4 2 -8 845.988 401.329 9
-4 -2 7 1913.61 462.209 8
-4 -2 7 828.154 466.462 7
4 2 -7 1331.58 583.069 9
-4 -2 6 10252.4 1023.27 8
-4 -2 6 10119.5 934.059 2
-4 -2 6 9508 1485.66 7
4 2 -6 9830.6 1223.7 6
-4 -2 6 12088.3 1012.03 1
4 2 -6 9784.01 1458.23 9
-4 -2 5 3512.07 571.331 8
-4 -2 5 3908.23 888.992 7
4 2 -5 4245.31 756.247 6
-4 -2 5 4272.67 340.434 10
4 2 -5 4341.18 922.935 9
-4 -2 4 39411.5 2068.93 8
4 2 -4 44106.6 2171.81 8
-4 -2 4 40626.4 2902.85 7
4 2 -4 37150.2 2276.05 6
-4 -2 4 39270.7 1861.38 5
-4 -2 4 38694.8 1179.17 10
4 2 -4 34833.9 2663.53 9
-4 -2 3 142513 4892.65 8
4 2 -3 141488 4879.1 8
-4 -2 3 144304 6018.14 7
4 2 -3 132784 5050.05 6
-4 -2 3 147102 4945.8 6
-4 -2 3 140020 4420.22 5
4 2 -3 137922 5806.12 9
-4 -2 2 17968.6 1390.59 4
-4 -2 2 16697.3 1223.42 8
4 2 -2 16441.6 1225.39 8
-4 -2 2 15837.8 1643.65 7
4 2 -2 15472 1241.59 6
-4 -2 2 17953.8 1218.22 6
-4 -2 2 16188.7 1395.38 11
-4 -2 2 16865.3 934.265 5
4 2 -2 18253.2 1654.45 9
-4 -2 1 51099.5 2474.71 4
-4 -2 1 48867.9 2351.05 8
4 2 -1 50826.9 2401.2 8
-4 -2 1 54614.7 3081.08 7
4 2 -1 48636.5 2339.3 6
-4 -2 1 47988.3 2527.19 11
4 2 -1 54908.7 2920.34 9
-4 -2 1 52590.8 1982.83 2
-4 -2 0 11941.6 1022.8 8
-4 -2 0 13993 1090.34 1
4 2 0 11519.2 1018.91 8
-4 -2 0 12287.2 1328.96 7
4 2 0 12016.1 974.142 6
-4 -2 0 11263 1014.12 11
4 2 0 12471 557.32 10
4 2 0 13024.6 1250.73 9
-4 -2 0 14508.7 862.965 2
4 2 1 208.281 175.695 9
-4 -2 -1 507.09 239.15 8
4 2 1 444.971 222.564 8
-4 -2 -1 -58.1757 119.634 7
-4 -2 -1 466.234 156.294 2
-4 -2 -1 238.171 148.975 11
-4 -2 -1 340.001 193.185 1
-4 -2 -2 262118 8013.1 8
-4 -2 -2 266625 7434.09 2
4 2 2 251986 8002.09 8
-4 -2 -2 238676 8383.56 7
-4 -2 -2 247782 7395.82 11
-4 -2 -2 250027 7987.17 1
-4 -2 -2 267106 6751.7 5
4 2 2 270063 8112.18 9
4 2 3 76561.4 3286.59 8
-4 -2 -3 75678.3 2821.17 2
4 2 3 75549 3344.51 1
-4 -2 -3 74624.2 3496.78 7
-4 -2 -3 72380.9 2524.09 11
-4 -2 -3 75491 3281.2 1
-4 -2 -3 78747.8 2291.66 5
4 2 3 75794.2 2832.52 2
4 2 4 87190.3 3780.6 1
4 2 4 95355.9 3777.43 8
-4 -2 -4 92434.3 3306.35 2
-4 -2 -4 90613.1 3753.44 7
-4 -2 -4 88138.6 2955.25 12
-4 -2 -4 84431.1 3692.49 1
-4 -2 -4 82158.3 2561.33 11
-4 -2 -4 93032.1 2737.39 5
4 2 4 83190.8 3172.96 2
4 2 5 67092.9 2700.45 2
-4 -2 -5 64116 2831.49 7
-4 -2 -5 67329.8 2529.88 12
-4 -2 -5 63606.2 2291.63 5
4 2 5 67395.7 2271.85 5
4 2 5 63989.4 3206.81 1
4 2 6 101.296 121.52 1
-4 -2 -6 549.429 204.562 4
-4 -2 -6 392.908 173.307 7
4 2 6 565.045 208.545 2
-4 -2 -6 326.623 162.519 12
-4 -2 -6 709.285 194.993 5
4 2 6 470.395 149.731 5
4 2 7 31170 1795.81 2
-4 -2 -7 31274.2 1694.43 4
-4 -2 -7 30086.7 1404.71 7
-4 -2 -7 31654.7 1588.2 3
-4 -2 -7 34821.4 1871.65 12
-4 -2 -7 32443.2 1644.64 5
4 2 7 33977 1615.46 5
4 2 7 34924 2374.13 1
4 2 8 12107.7 1085.21 2
-4 -2 -8 9364.54 943.001 4
-4 -2 -8 10842 1067.2 12
-4 -2 -8 11571.8 979.422 5
4 2 8 9600.66 1258.71 1
4 2 9 34346.8 2038.75 2
-4 -2 -9 31603.3 1976.01 4
-4 -2 -9 34517 2158.98 12
4 2 9 31777.1 2459.2 1
4 2 10 8526.3 1000.84 2
-4 -2 -10 7872.6 991.001 4
-4 -2 -10 9298.89 1142.45 12
4 2 10 9368.57 1365.56 1
4 2 11 2987.76 623.743 2
4 2 11 4615.25 998.407 1
-4 -3 9 6895.15 1399.82 7
-4 -3 8 10558.9 1666.61 7
4 3 -8 8823.9 1484.54 9
-4 -3 7 106.884 166.789 8
-4 -3 7 116.592 152.208 1
4 3 -7 28.5006 220.756 9
-4 -3 6 5293.4 791.655 8
4 3 -6 3477.31 851.865 9
-4 -3 5 275.94 150.824 8
4 3 -5 249.833 205.816 6
-4 -3 5 117.313 47.6458 10
4 3 -5 268.808 246.841 9
-4 -3 4 3784.71 612.599 8
4 3 -4 3337.8 579.75 8
4 3 -4 5078.19 732.138 6
-4 -3 4 5210.8 679.422 6
4 3 -4 4525.67 892.526 9
-4 -3 3 59544.2 2757.72 8
4 3 -3 56241.2 2718.78 8
4 3 -3 57442.2 2688.15 6
-4 -3 3 61407.9 2575.61 6
4 3 -3 57222 3347.09 9
-4 -3 3 60677.2 2036.66 2
4 3 -2 5589.93 904.683 9
-4 -3 2 6168.39 766.72 4
-4 -3 2 7160.82 805.589 8
4 3 -2 5546.78 717.401 8
4 3 -2 5621.85 673.213 6
-4 -3 2 6073.16 797.165 11
-4 -3 2 6270.74 487.642 2
-4 -3 1 13248.1 1085.53 4
-4 -3 1 12413.7 746.848 2
-4 -3 1 11184.2 1029.28 8
4 3 -1 13887.4 1145.85 8
4 3 -1 12363 966.815 6
-4 -3 1 13669.2 1118.47 11
4 3 -1 13966.5 1366.47 9
-4 -3 0 48475.8 2204.07 4
-4 -3 0 51893.9 1879.48 2
-4 -3 0 48572.4 2353.57 8
4 3 0 48618.2 2376.48 8
4 3 0 49610.4 2110.52 6
-4 -3 0 44734.3 2132.99 11
4 3 0 46734.5 1491.14 10
4 3 0 50612.2 2692.08 9
4 3 1 409.921 213.891 9
-4 -3 -1 187.304 110.97 8
4 3 1 580.341 244.987 8
4 3 1 300.223 117.975 2
-4 -3 -1 551.457 165.66 2
-4 -3 -1 377.799 142.966 11
-4 -3 -1 332.827 195.664 1
-4 -3 -2 7359.1 817.578 8
4 3 2 8649.9 902.254 8
-4 -3 -2 7119.41 654.793 2
-4 -3 -2 7091.48 928.347 7
-4 -3 -2 7200.83 564.472 11
-4 -3 -2 8018.13 488.828 5
-4 -3 -2 7400.91 868.316 1
4 3 2 7405.1 653.513 2
-4 -3 -3 383.988 209.761 8
4 3 3 80.5255 126.034 8
-4 -3 -3 419.533 270.006 1
-4 -3 -3 163.726 218.434 7
4 3 3 -9.87113 61.6504 2
-4 -3 -3 123.181 123.951 2
-4 -3 -3 207.543 71.5783 11
-4 -3 -3 82.9695 65.9094 5
4 3 4 17053.9 1106.42 2
4 3 4 16283.8 1349.13 8
-4 -3 -4 18277.1 1243.16 2
-4 -3 -4 17082.1 1363.99 7
-4 -3 -4 15166.3 980.868 12
-4 -3 -4 15158.4 1368.71 1
-4 -3 -4 16925.7 914.943 5
4 3 5 6083.35 673.483 2
4 3 5 5883.52 868.467 1
-4 -3 -5 6425.33 757.273 7
-4 -3 -5 7217.75 685.742 12
-4 -3 -5 6948.14 601.256 5
4 3 6 878.075 218.398 5
4 3 6 1239.52 405.85 1
-4 -3 -6 1029.83 234.697 4
-4 -3 -6 1083.74 239.516 7
4 3 6 658.636 221.877 2
-4 -3 -6 807.636 247.432 12
-4 -3 -6 1198.3 265.86 5
4 3 7 31846.2 2276.98 1
4 3 7 35624.6 1932.32 2
-4 -3 -7 32528.9 1626.25 4
-4 -3 -7 30595.9 1202.64 7
-4 -3 -7 32110.1 1331.92 3
-4 -3 -7 32681.2 1859.29 12
-4 -3 -7 32083.7 1711.26 5
4 3 8 25511.4 2104.71 1
4 3 8 28957.2 1795.83 2
-4 -3 -8 25996.8 1545.65 4
-4 -3 -8 26282.7 1775.77 12
-4 -3 -8 26637 1626.57 5
4 3 9 8184.62 939.127 2
-4 -3 -9 6622.78 795.008 4
4 3 9 9406.83 1289.77 1
-4 -3 -9 8864.01 1049.59 12
-4 -3 -9 8090.85 921.97 5
4 3 10 5933.13 845.032 2
4 3 10 4541.65 924.683 1
-4 -3 -10 5498.17 891.34 12
-4 -3 -10 4737.41 735.205 5
4 3 11 -102.27 136.032 1
-4 -4 8 19170.2 1704.93 8
4 4 -8 20635 2296.2 9
-4 -4 8 20678 1726.47 1
-4 -4 7 2279.88 519.937 1
-4 -4 7 2637.84 592.594 8
4 4 -7 1815.45 648.619 11
4 4 -7 3347.06 877.522 9
-4 -4 6 3438.5 663.215 8
4 4 -6 3843.74 877.552 11
4 4 -6 2057.85 653.985 9
-4 -4 5 6018.61 851.367 8
-4 -4 5 5695.76 320.764 2
4 4 -5 5288.45 749.464 6
4 4 -5 4974.43 956.413 11
-4 -4 5 5318.72 703.76 6
-4 -4 5 5363.83 324.391 10
4 4 -5 6196.18 1112.76 9
4 4 -4 7188.51 1130.67 9
-4 -4 4 7455.81 404.112 2
-4 -4 4 7138.16 903.828 8
4 4 -4 7420.46 829.651 6
-4 -4 4 8504.46 812.749 6
4 4 -4 6784.98 1048.24 11
-4 -4 3 32229.7 2007.39 8
-4 -4 3 36082.6 1229.84 2
4 4 -3 29186.2 1703.08 6
4 4 -3 33220.4 2278.8 11
4 4 -3 29062.9 2284.2 9
-4 -4 2 18377.5 1351.79 4
-4 -4 2 17421.2 1385.16 8
-4 -4 2 19977.1 900.882 2
4 4 -2 18153.5 1416.84 8
4 4 -2 16031 1107.33 6
4 4 -2 19639 1572.72 11
-4 -4 2 19703 1432.07 11
4 4 -2 19393.7 1735.91 9
-4 -4 1 28083.9 1609.22 4
-4 -4 1 31457 1847.64 8
4 4 -1 29183.2 1804.02 8
-4 -4 1 29327.6 1250.86 2
4 4 -1 27842.1 1438.91 6
4 4 -1 29882.4 1845.65 11
-4 -4 1 28664.4 1646.51 11
4 4 -1 26764.4 864.932 10
4 4 -1 28338.6 2030.63 9
4 4 0 2784.62 595.461 9
-4 -4 0 3226.16 556.084 8
4 4 0 2701.95 506.171 8
-4 -4 0 2909.29 437.643 4
4 4 0 1615.67 275.205 2
-4 -4 0 1981.84 304.436 2
4 4 0 1924 402.882 11
-4 -4 0 2461.4 399.719 11
4 4 0 1918.47 324.479 6
4 4 0 2200.98 241.656 10
4 4 1 3119.85 388.54 2
-4 -4 -1 3181.57 553.63 8
4 4 1 3391.68 555.413 8
-4 -4 -1 3028.2 411.286 4
-4 -4 -1 2927.52 405.357 2
4 4 1 3025.41 448.728 11
-4 -4 -1 2598.92 361.928 11
4 4 1 3146.1 351.17 10
-4 -4 -2 93926.1 3138.6 4
4 4 2 100728 3307.02 2
-4 -4 -2 92948.5 3784.01 8
4 4 2 103378 3943.07 8
-4 -4 -2 97433.3 3943.48 1
-4 -4 -2 97525.4 3454.19 2
4 4 2 96712.6 3215.43 11
-4 -4 -2 96301.4 3009.43 11
4 4 2 96997.7 3241.41 10
-4 -4 -3 48094.8 2493.52 8
4 4 3 53629.3 2179.43 2
4 4 3 55535.2 2656.74 8
-4 -4 -3 52974.4 2375.59 2
4 4 3 50519.8 2167.96 10
-4 -4 -3 52988.5 1927.85 5
-4 -4 -3 48235 2614.22 1
-4 -4 -4 18335.3 1426.72 8
4 4 4 18828 1212.55 2
4 4 4 20734.9 1523.36 8
-4 -4 -4 19342.7 1447.16 7
-4 -4 -4 20268.2 1090.34 5
4 4 5 29827.3 1678.67 2
-4 -4 -5 29171.3 1200.37 4
-4 -4 -5 30285.9 1758.11 7
-4 -4 -5 33491.6 1674.04 12
-4 -4 -5 33381.4 1577.25 5
4 4 6 15987.4 1217.32 2
-4 -4 -6 15011.9 853.65 4
-4 -4 -6 15420.5 998.021 7
-4 -4 -6 17328.8 1040.76 3
-4 -4 -6 17648.9 1233.23 12
-4 -4 -6 15892.2 1104.54 5
4 4 7 11764.6 1091.96 2
-4 -4 -7 13412.8 866.876 4
-4 -4 -7 11715.1 837.953 3
-4 -4 -7 12406.4 1101.01 12
-4 -4 -7 12143.8 1027.45 5
-4 -4 -8 341.202 170.379 4
4 4 8 355.327 256.355 1
4 4 8 321.821 204.829 2
-4 -4 -8 292.727 225.728 12
-4 -4 -8 297.98 204.58 5
4 4 9 1682.23 439.226 2
-4 -4 -9 958.01 356.86 12
4 4 9 1637.44 562.799 1
-4 -4 -9 1977.83 455.387 5
4 4 10 19976 1652.51 2
4 4 10 17561.1 1874.8 1
-4 -4 -10 18858 1709.61 12
-4 -4 -10 19544.9 1599.75 5
4 4 11 -75.3727 194.837 1
-4 -5 9 1890.97 566.038 8
-4 -5 8 7044.31 1059.26 8
-4 -5 8 7297.62 1058.9 1
4 5 -8 9459.48 1533.59 9
4 5 -7 26826.4 2265.77 4
-4 -5 7 26765.2 2089.51 8
4 5 -7 24684.1 2498.8 11
4 5 -7 27175.4 2555.55 9
4 5 -6 46131.3 2972.49 4
-4 -5 6 52821.9 2970.99 8
4 5 -6 48953.7 3407.47 11
4 5 -6 49757.4 3432.53 9
4 5 -5 2798.22 735.436 9
-4 -5 5 3646.57 689.632 8
4 5 -5 3354.46 702.459 4
4 5 -5 3938.61 823.332 11
-4 -5 5 3288.13 493.043 6
4 5 -4 -76.102 230.736 9
-4 -5 4 301.461 248.69 8
4 5 -4 92.3857 148.173 4
4 5 -4 82.2791 52.5147 6
4 5 -4 185.931 250.379 11
-4 -5 4 102.013 103.218 6
-4 -5 4 104.251 52.2683 10
4 5 -3 76895.2 3356.48 4
-4 -5 3 69430 3321.07 8
-4 -5 3 68915.4 2113.57 2
4 5 -3 68354.8 2670.84 6
4 5 -3 68790 3496.95 11
-4 -5 3 71188 2054.55 10
4 5 -3 66077.2 3686.03 9
-4 -5 2 39955.1 2318.39 8
-4 -5 2 42612.6 2134.69 4
-4 -5 2 43508.4 1598.15 2
4 5 -2 40510 1781.18 6
4 5 -2 42530.5 2436.09 11
-4 -5 2 42331.6 1392.59 10
4 5 -2 41863.1 2699.74 9
4 5 -1 33.1133 136.707 9
-4 -5 1 283.2 193.741 8
-4 -5 1 310.019 134.367 4
4 5 -1 194.208 94.8032 2
4 5 -1 54.0629 157.914 11
4 5 -1 279.188 121.253 6
-4 -5 1 221.85 166.792 11
-4 -5 1 158.569 89.885 2
4 5 -1 235.737 79.5043 10
4 5 0 20290.4 1058.87 2
-4 -5 0 20631.5 1516.57 8
-4 -5 0 18855.4 1143.6 4
-4 -5 0 21159 1180.75 2
4 5 0 20831.6 1088.88 6
4 5 0 20488.9 1384 11
-4 -5 0 21795.5 1283.49 11
4 5 0 20329 989.358 10
4 5 0 21228.3 1742.05 9
4 5 1 18878 1038.66 2
-4 -5 -1 16912.4 1360.03 8
-4 -5 -1 17104.1 964.577 4
4 5 1 19101.9 1448.86 8
-4 -5 -1 16584.2 1126.17 2
4 5 1 16573.7 1133.11 11
4 5 1 15898.2 959.642 10
-4 -5 -2 296475 9270.19 8
-4 -5 -2 298109 8113.51 4
4 5 2 307286 8571.53 2
4 5 2 306230 9320.19 8
-4 -5 -2 305796 8938.6 2
4 5 2 308280 8510.05 11
4 5 2 308812 8644.78 10
-4 -5 -3 3065.8 393.421 5
-4 -5 -3 3137.43 254.903 4
-4 -5 -3 2501.18 507.669 8
4 5 3 3685.93 628.203 8
4 5 3 2537.49 403.868 2
4 5 3 3328.59 353.438 11
-4 -5 -3 2622.58 493.071 2
4 5 3 2821.66 453.273 10
-4 -5 -4 16460.2 1369.72 8
4 5 4 15294 1128.79 2
4 5 4 15832.8 659.243 11
4 5 4 17647.7 1265.72 10
-4 -5 -4 17999.4 1081.91 5
-4 -5 -5 38285 2245.84 8
4 5 5 37655.9 2013.98 2
-4 -5 -5 38955.2 1900.37 3
-4 -5 -5 36097.1 1987.28 7
-4 -5 -5 41265.9 1994.85 12
4 5 5 38826.9 2141.48 10
-4 -5 -5 42132 1913.11 5
-4 -5 -6 672.752 107.202 4
-4 -5 -6 829.625 236.919 7
4 5 6 1377.32 367.15 2
-4 -5 -6 842.243 261.593 12
-4 -5 -6 676.919 213.642 3
4 5 6 609.755 285.219 10
-4 -5 -6 565.108 225.57 5
4 5 7 8919.66 989.625 2
-4 -5 -7 9565.99 991.416 12
4 5 7 8516.07 1052.86 10
-4 -5 -7 8917.83 902.91 5
4 5 8 1138.96 371.621 2
-4 -5 -8 1340.11 402.62 12
4 5 8 844.809 338.339 10
-4 -5 -8 1627.25 403.666 5
-4 -5 -9 574.769 242.096 12
4 5 9 825.665 376.297 10
-4 -5 -9 349.325 280.814 5
-4 -5 -10 5212.1 837.833 5
4 6 -9 436.864 534.243 9
-4 -6 8 12843.1 1520.13 8
-4 -6 8 13984.1 1560.17 1
4 6 -8 10605.7 1648.92 9
-4 -6 7 5926.66 998.667 8
4 6 -7 5885.02 1041.32 4
4 6 -7 5428.34 1149.1 11
4 6 -7 5804.35 1162.2 9
-4 -6 6 6709.22 1048.88 8
4 6 -6 8884.39 1207.65 4
4 6 -6 10003.5 1452.21 11
4 6 -6 9036.3 1400.65 9
4 6 -5 1700.54 570.282 9
-4 -6 5 1592.15 515 8
4 6 -5 1403.08 448.456 4
4 6 -5 1253.06 491.914 11
4 6 -4 186.744 269.079 9
-4 -6 4 255.625 208.397 8
4 6 -4 268.009 214.064 4
4 6 -4 391.234 297.529 11
4 6 -3 45743.7 2522.94 4
-4 -6 3 48201.2 2763.1 8
4 6 -3 45692.6 2747.62 11
-4 -6 3 48443.3 1756.63 10
4 6 -3 48902.6 3086.32 9
4 6 -2 10166.5 1014.68 4
-4 -6 2 10571.4 1170.57 8
-4 -6 2 12407.8 1026.8 4
4 6 -2 11157.4 675.002 6
4 6 -2 11520.9 1192.29 11
-4 -6 2 11099.3 710.295 10
4 6 -2 11128.2 1351.24 9
4 6 -1 5244.39 460.053 2
4 6 -1 7161.24 1059.28 9
-4 -6 1 6410.79 661.536 4
-4 -6 1 4863.75 757.67 8
-4 -6 1 5026.04 563.432 2
4 6 -1 4639.04 411.555 6
4 6 -1 6351.64 807.341 11
-4 -6 1 5311.77 499.38 10
4 6 -1 5398.74 489.251 10
4 6 0 26552.1 1256.75 2
-4 -6 0 24058.1 1755.8 8
-4 -6 0 25107.7 1305.07 4
-4 -6 0 27714.1 1522.68 2
4 6 0 26366.9 1161.95 6
4 6 0 26058.8 1616.93 11
4 6 0 25470.3 1291.26 10
-4 -6 -1 1214.42 373.063 8
-4 -6 -1 1396.43 229.512 4
4 6 1 982.039 229.06 2
4 6 1 813.678 252.366 11
-4 -6 -1 1015.39 289.45 2
4 6 1 963.961 243.714 10
-4 -6 -2 8105.42 948.958 8
4 6 2 7256.43 696.5 2
-4 -6 -2 8083.33 443.864 4
-4 -6 -2 6282.12 793.401 2
4 6 2 8472.05 727.811 11
4 6 2 7480.26 739.956 10
-4 -6 -3 31222.2 2021.31 8
4 6 3 32822.9 1747.06 2
4 6 3 35889.5 1513.17 11
4 6 3 29443.5 1753.78 10
-4 -6 -3 36619.6 1696.35 5
-4 -6 -4 6828.02 871.561 8
4 6 4 6245.94 737.192 2
-4 -6 -4 7614.63 821.685 3
4 6 4 6863.14 506.453 11
4 6 4 7531.21 851.033 10
-4 -6 -4 7575.52 727.157 5
-4 -6 -5 14006.1 1332.88 8
4 6 5 16527.5 1313.74 2
-4 -6 -5 16156 1256.34 3
-4 -6 -5 18393.5 1312.81 12
4 6 5 18222.3 744.207 11
4 6 5 16521.4 1384.58 10
-4 -6 -5 17363.1 1218.39 5
-4 -6 -6 698.759 234.785 7
-4 -6 -6 625.082 233.293 12
4 6 6 289.53 181.856 2
-4 -6 -6 717.846 252.63 3
4 6 6 118.619 93.8549 10
-4 -6 -6 452.945 210.621 5
4 6 7 13045.9 1268.03 2
-4 -6 -7 10981 1125.89 12
4 6 7 9937.05 1176.81 10
-4 -6 -7 14548.5 1224.03 5
4 6 8 25110.8 1890.32 2
-4 -6 -8 21428.4 1705.43 12
4 6 8 20815.6 1835.82 10
-4 -6 -8 24137.1 1714.39 5
-4 -6 -9 1726.13 468.689 5
4 7 -8 9554.69 1571.62 9
-4 -7 7 89.5832 201.991 8
4 7 -7 65.36 240.944 4
4 7 -7 388.993 282.822 9
4 7 -6 51.061 239.412 9
-4 -7 6 -163.081 253.027 8
4 7 -6 218.375 118.636 4
4 7 -6 345.415 291.82 11
4 7 -5 9426.29 1433.67 9
4 7 -5 11071.5 1295.7 4
-4 -7 5 11621 1409.12 8
4 7 -5 12340.5 1532.62 11
4 7 -4 5086.21 1005.56 9
-4 -7 4 7302.44 1069.67 8
4 7 -4 5715.12 872.399 4
4 7 -4 7108.78 1093.03 11
4 7 -3 21487.4 1626.46 4
-4 -7 3 23320.6 1915.61 8
4 7 -3 18991 1718.87 11
-4 -7 3 19099.5 1121.18 10
4 7 -3 23944.1 2135.14 9
4 7 -2 8287.56 924.674 4
4 7 -2 9082.72 1266.27 9
-4 -7 2 12030.7 1297.76 8
-4 -7 2 12058.1 987.216 4
4 7 -2 8273.68 1041.67 11
-4 -7 2 10230.8 793.763 10
4 7 -2 10454.4 619.769 2
4 7 -1 12512.9 1034.47 4
4 7 -1 11860.9 746.302 2
-4 -7 1 11652.9 1248.03 8
-4 -7 1 11125 879.986 4
4 7 -1 11617.3 1152.28 11
-4 -7 1 11528.7 872.522 10
4 7 -1 11118.7 841.372 10
-4 -7 0 11084.5 1194.61 8
4 7 0 10714.8 772.586 2
-4 -7 0 10965.6 776.089 4
4 7 0 10365.4 576.038 6
4 7 0 11260.7 1046.17 11
-4 -7 0 10343.7 862.596 10
4 7 0 11818.1 912.827 10
-4 -7 -1 982.033 362.371 8
4 7 1 355.7 150.996 2
4 7 1 1042.64 283.581 11
4 7 1 770.663 263.354 10
-4 -7 -1 728.007 266.702 2
-4 -7 -2 18123.3 1507.22 8
4 7 2 17245.6 1190.45 2
4 7 2 18185.9 1178.95 11
4 7 2 17396.4 1280.78 10
-4 -7 -3 504.076 206.411 5
-4 -7 -3 388.311 268.867 8
4 7 3 136.095 111.125 2
4 7 3 236.714 198.663 10
4 7 4 8306.15 897.8 2
-4 -7 -4 6643.38 887.013 8
4 7 4 5859.65 541.322 11
4 7 4 6559.8 835.335 10
-4 -7 -4 5719.95 684.984 5
-4 -7 -5 42384.2 2476.15 8
4 7 5 42411.8 2396.3 2
-4 -7 -5 44687.9 2316.29 12
4 7 5 45267.9 1690.02 11
4 7 5 42195.5 2464.2 10
-4 -7 -5 45961.9 2288.75 5
-4 -7 -6 7669.82 967.245 8
-4 -7 -6 6835.79 861.422 12
4 7 6 7268.78 949.968 2
4 7 6 6945.11 964.592 10
-4 -7 -6 6773.78 835.32 5
4 7 7 9095.48 1114.87 2
-4 -7 -7 6874.48 919.575 12
-4 -7 -7 8942.15 1015.48 5
4 7 7 8152.02 1105.56 10
4 7 8 15958 1547.27 2
-4 -7 -8 14161.3 1428.47 12
4 7 8 14837.1 1593.85 10
-4 -7 -8 15385.8 1410.39 5
4 8 -7 418.168 354.061 9
4 8 -6 714.682 469.219 9
-4 -8 6 476.381 305.916 8
4 8 -6 874.448 406.659 4
4 8 -6 1275.46 573.872 11
4 8 -5 7567.27 1282.29 9
-4 -8 5 8121.6 1232.12 8
4 8 -5 6659.72 1036.79 4
4 8 -5 5614.65 1072.67 11
4 8 -4 6532.62 1163.51 9
-4 -8 4 6927.09 1105.88 8
4 8 -4 6565.89 956.481 4
4 8 -4 6093.68 1036.29 11
4 8 -3 51131.6 2751.96 4
-4 -8 3 51413.3 3134.38 8
4 8 -3 55489.1 3145.93 11
4 8 -3 45841.9 3227.62 9
4 8 -2 68001.8 3123.83 4
4 8 -2 69900 2305.99 2
-4 -8 2 68793 3639.25 8
4 8 -2 64002.3 3342 11
-4 -8 2 64864.8 2736.86 10
4 8 -2 71104.1 2751.56 10
4 8 -2 66963.5 3881.92 9
4 8 -1 5410.59 681.236 4
4 8 -1 4812.18 488.349 2
-4 -8 1 6047.56 942.191 8
4 8 -1 3812.28 669.617 11
-4 -8 1 4173.61 567.267 10
4 8 -1 3915.6 544.011 10
4 8 0 42631.6 1950.67 4
-4 -8 0 41328 2590.73 8
4 8 0 41152.5 1873.42 2
4 8 0 41345.8 2262.07 11
-4 -8 0 43063.2 2133.29 10
4 8 0 41607.4 2091.31 10
-4 -8 -1 101.787 181.672 8
4 8 1 321.079 144.854 2
4 8 1 140.41 158.666 11
4 8 1 297.321 176.264 10
-4 -8 -2 2680.12 596.943 8
4 8 2 2454.74 412.166 6
4 8 2 1969.53 413.667 2
4 8 2 3092.62 490.357 11
4 8 2 2198.13 458.807 10
-4 -8 -3 886.657 283.584 5
-4 -8 -3 241.249 191.979 8
4 8 3 594.396 231.363 6
4 8 3 613.372 280.764 2
4 8 3 717.415 232.647 11
4 8 3 375.673 214.105 10
-4 -8 -4 234.733 247.713 8
4 8 4 287.749 195.548 2
4 8 4 261.608 164.217 11
4 8 4 621.175 287.49 10
-4 -8 -4 203.544 122.197 5
-4 -8 -5 24139.6 1832.32 8
4 8 5 26054.4 1884.44 2
-4 -8 -5 23510.9 1677.73 12
4 8 5 21977.2 1795.08 10
-4 -8 -5 26042.7 1710.3 5
-4 -8 -6 8809.32 1072.87 8
-4 -8 -6 6893.14 903.324 12
4 8 6 7441.3 1016.97 2
4 8 6 8198.2 1101.09 10
-4 -8 -6 7724.64 940.046 5
-4 -8 -7 1282.04 411.539 12
4 8 7 1666.83 491.231 2
4 8 7 1244.63 419.428 10
-4 -8 -7 1129.43 362.608 5
4 9 -6 5387.2 1140.48 9
4 9 -6 4646.67 930.184 4
4 9 -5 4419.72 1080 9
4 9 -5 4998.98 915.657 4
4 9 -5 6140.84 1140.25 11
4 9 -4 1538.34 608.076 9
-4 -9 4 981.298 454.194 8
4 9 -4 1024.43 391.186 4
4 9 -4 1226.21 471.156 11
4 9 -3 40155.1 2417.54 4
-4 -9 3 36763 2737.52 8
4 9 -3 37538.5 2642.01 11
4 9 -3 38504.5 2966.51 9
-4 -9 2 979.686 394.351 8
4 9 -2 2197.91 494.521 4
4 9 -2 1421.93 456.178 11
4 9 -2 1751.08 408.527 10
4 9 -1 20203.6 1405.83 4
-4 -9 1 17386.6 1726.6 8
4 9 -1 18396 1122.73 2
4 9 -1 17926.6 1569.08 11
4 9 -1 18781.2 1362.83 10
4 9 0 5812.29 660.6 2
4 9 0 4623.4 734.31 11
4 9 0 6027.86 772.653 10
-4 -9 -1 573.831 339.402 8
4 9 1 856.59 268.168 2
4 9 1 622.537 248.245 11
4 9 1 698.121 264.271 10
-4 -9 -2 28764.4 2117.6 8
4 9 2 29430.5 1841.99 2
4 9 2 32055.2 1848.54 11
4 9 2 27356.9 1885.34 10
-4 -9 -3 11074.6 1261.25 8
4 9 3 12300.2 1202.56 2
4 9 3 12374 1040.59 11
4 9 3 9949.79 1129.86 10
-4 -9 -3 11748.5 1111.37 5
-4 -9 -4 1211.89 403.565 8
-4 -9 -4 812.71 308.16 12
4 9 4 1201.81 393.533 2
4 9 4 1036.72 386.234 10
-4 -9 -4 1153.43 346.256 5
-4 -9 -5 3428.98 709.485 8
-4 -9 -5 4780.36 766.877 12
4 9 5 5868.02 913.314 2
4 9 5 5853.34 935.657 10
-4 -9 -5 4227.93 703.353 5
4 9 6 973.966 396.568 2
4 9 6 745.678 371.444 10
-4 -9 -6 386.531 228.273 5
4 10 -5 5879.83 1192.88 9
4 10 -5 6734.71 1058.55 4
4 10 -4 1717.49 627.788 9
4 10 -4 1856.17 532.399 4
4 10 -3 1139.27 565.584 9
4 10 -3 1710.33 472.304 4
4 10 -3 811.377 389.528 11
4 10 -2 5815.2 1136.87 9
-4 -10 2 4744.46 985.608 8
4 10 -2 4747.53 867.644 11
4 10 -2 5982.44 780.48 10
-4 -10 1 2228.2 629.808 8
4 10 -1 3611.08 715.757 11
4 10 -1 3095.02 582.803 10
-4 -10 0 4947.93 910.81 8
4 10 0 5002.51 657.018 2
4 10 0 7479.16 985.252 11
4 10 0 6429.32 863.052 10
-4 -10 -1 5156.8 912.219 8
4 10 1 4195.56 648.305 2
4 10 1 4029.66 687.194 11
4 10 1 5853.89 861.457 10
-4 -10 -2 8870.79 1182.24 8
4 10 2 8333.61 989.932 2
4 10 2 8480.18 967.006 11
4 10 2 7728.23 1031.4 10
-4 -10 -3 28622.7 2167.65 8
4 10 3 23194.7 1844.75 2
4 10 3 25374.7 1995.4 10
-4 -10 -3 30490.9 1970.82 5
-4 -10 -4 144.707 201.637 8
-4 -10 -4 212.476 246.137 12
4 10 4 99.6883 241.726 2
4 10 4 82.2012 155.527 10
-4 -10 -4 44.0941 84.0273 5
4 11 -4 -132.861 255.062 9
4 11 -3 7038.84 1317.55 9
4 11 -2 9463.08 1305.9 11
4 11 -2 10970.4 1154.95 10
4 11 -1 2419.56 634.538 11
4 11 -1 2615.96 579.747 10
-4 -11 0 8584.49 1282.67 8
4 11 0 10655.4 1259.94 11
4 11 0 8256.45 1056.08 10
-4 -11 -1 388.687 213.519 8
4 11 1 1385.19 407.573 2
4 11 1 1271.86 411.125 11
4 11 1 813.355 334.653 10
-4 -11 -2 9209.45 1274.54 8
4 11 2 9537.19 1139.61 2
4 11 2 11094.2 1317.37 10
-4 -11 -3 481.464 301.423 8
4 11 3 548.472 316.812 2
5 -6 2 -28.5956 255.94 6
5 -6 3 13020.8 1611.7 6
5 -6 4 528.551 321.545 1
5 -6 4 603.328 380.942 6
5 -6 5 2369.01 661.192 1
5 -6 5 1726.02 548.684 6
-5 5 3 2936.64 613.88 10
-5 5 2 436.034 230.692 10
-5 5 0 299.876 225.896 7
5 -5 0 416.475 315.287 6
-5 5 -1 3367.51 850.875 7
5 -5 1 1708.23 580.587 6
-5 5 -1 1945.69 698.782 3
-5 5 -2 -95.1506 177.235 7
5 -5 2 -24.8093 121.126 6
-5 5 -2 371.384 307.088 3
-5 5 -3 11859.9 1580.73 7
5 -5 3 12029.2 1484.37 6
5 -5 3 10418.9 1221.56 1
-5 5 -3 8451.69 1389.25 3
-5 5 -4 2909.26 778.278 7
5 -5 4 2431.01 624.614 1
5 -5 4 3033.6 748.062 6
-5 5 -4 2181.95 699.512 3
5 -5 5 3610.91 789.882 1
5 -5 5 4416.01 878.086 6
-5 5 -5 5830.99 1078.63 3
-5 5 -6 16166.5 1735.3 3
5 -5 6 12143.6 1528.52 1
5 -5 6 12744.2 1517.98 6
-5 5 -7 3636 786.17 3
5 -5 7 4463.77 898.837 6
-5 4 4 1598.14 656.407 7
-5 4 3 -189.102 275.342 7
-5 4 3 -22.0122 79.8936 10
-5 4 2 21849.6 2250.35 7
-5 4 2 22830.7 2529.48 3
5 -4 -2 21777.4 2213.48 6
-5 4 2 23674.3 1666.66 10
-5 4 1 3278.22 840.567 7
5 -4 -1 2022.76 649.243 6
-5 4 1 1697.39 649.34 3
-5 4 0 16900.3 1928.89 7
5 -4 0 18518.5 1911.32 6
-5 4 0 22571.4 2406.21 3
-5 4 -1 4572.05 998.264 7
5 -4 1 4589.88 909.485 6
-5 4 -1 6360.58 1231.59 3
5 -4 1 7323.69 902.307 1
5 -4 2 3407.01 637.488 1
-5 4 -2 2380.59 716.07 7
5 -4 2 3027.64 737.782 6
-5 4 -2 1507.04 602.086 3
-5 4 -3 42298.5 3000.97 7
-5 4 -3 39736.3 3086.98 3
5 -4 3 38484.6 2678.96 6
5 -4 3 38913.5 2466.81 1
-5 4 -4 2532.28 697.486 7
5 -4 4 2841.42 649.346 1
5 -4 4 2340.66 591.065 6
-5 4 -4 3553.52 854.867 3
-5 4 -5 359.325 262.521 7
5 -4 5 1031.86 428.928 1
5 -4 5 1362.84 466.081 6
-5 4 -5 883.348 464.105 3
-5 4 -6 547.604 351.837 7
5 -4 6 905.29 421.969 1
-5 4 -6 1009.71 395.162 3
-5 4 -7 9554.41 1302.38 7
5 -4 7 8740.74 1318.71 1
-5 4 -7 7144.13 1044.5 3
-5 3 6 758.36 502.518 7
-5 3 5 1966.66 669.065 7
-5 3 4 5565.33 1144.47 7
-5 3 4 4610.78 1155.28 3
-5 3 3 1517.08 605.666 7
5 -3 -3 1709.2 602.127 6
-5 3 3 1444.16 644.693 3
-5 3 3 1275.38 344.784 10
-5 3 2 6810.38 1235.33 7
5 -3 -2 7628.36 1228.49 6
-5 3 2 8260.62 1483.6 3
-5 3 2 7589.35 835.112 10
-5 3 1 48927.6 3452.84 7
-5 3 1 54915.8 3901.16 3
5 -3 -1 45747.9 3101.27 6
5 -3 0 10231 965.382 1
-5 3 0 9440.49 1407.06 7
5 -3 0 10164.6 1322.43 6
-5 3 0 9143.28 1514.16 3
-5 3 -1 10304.3 1437.21 7
5 -3 1 9431.94 1246.72 6
-5 3 -1 8321.67 1408.87 3
5 -3 1 8986.82 990.27 1
-5 3 -2 430.284 288.472 9
5 -3 2 720.947 284.337 1
-5 3 -2 104.027 119.318 7
5 -3 2 219.127 161.307 6
-5 3 -2 614.758 439.148 3
-5 3 -3 34381.5 2601.62 7
-5 3 -3 27131.6 2467.14 3
5 -3 3 30993.2 2253.29 6
5 -3 3 31922.5 2152.94 1
-5 3 -4 334.103 236.679 7
5 -3 4 132.874 165.241 6
5 -3 4 65.1183 220.559 1
-5 3 -4 202.454 239.902 3
-5 3 -5 3751.98 811.901 7
5 -3 5 3148.05 705.549 1
-5 3 -5 2874.44 706.539 3
-5 3 -6 9448.39 1238.09 7
-5 3 -6 11799.3 1381.51 3
5 -3 6 10823.5 1365.66 1
-5 3 -7 1257.05 443.677 7
5 -3 7 270.804 278.338 1
-5 3 -7 613.565 310.379 3
5 -3 8 14678.8 1763.09 1
-5 2 6 998.145 529.454 7
-5 2 5 5981.39 1208.24 7
-5 2 5 3740.56 1086.93 3
-5 2 4 5827.77 1203.8 7
5 -2 -4 6150.54 1120.23 6
-5 2 4 5375.92 1209.84 3
-5 2 3 7430.09 1316.22 7
5 -2 -3 5936.16 1076.63 6
-5 2 3 7054.12 736.882 10
-5 2 3 5223.47 1185.09 3
-5 2 2 11197.8 1604.17 7
5 -2 -2 13541 1561.19 6
-5 2 2 10938.7 1697.44 3
5 -2 -1 3488.85 586.739 8
-5 2 1 4151.82 945.41 7
5 -2 -1 3195.78 736.002 6
5 -2 -1 3162.55 352.515 5
-5 2 1 4227.29 1032.13 3
-5 2 0 4686.73 983.948 7
-5 2 0 4235.87 546.135 1
5 -2 0 4337.62 814.681 6
5 -2 0 4274.69 343.875 5
-5 2 0 3182.54 901.664 3
5 -2 0 6433.94 1014.03 9
5 -2 1 41566.8 2260.72 1
-5 2 -1 39835.5 2065.63 1
-5 2 -1 35330.2 2776.82 7
-5 2 -1 41638.8 3206.21 3
5 -2 1 43763.2 2695.4 6
5 -2 1 42573.6 2649.47 9
-5 2 -2 21.0006 121.347 9
-5 2 -2 223.935 177.933 7
-5 2 -2 -76.687 138.782 1
5 -2 2 -79.9373 89.2513 1
5 -2 2 131.52 109.219 6
-5 2 -2 9.801 262.92 3
5 -2 2 49.1621 125.307 9
-5 2 -3 10572.3 1366.71 7
-5 2 -3 12106.1 1574.38 3
5 -2 3 11636.5 1279.93 6
5 -2 3 10776.6 1183.25 1
5 -2 3 10588.6 1084.68 9
-5 2 -3 12351.3 1087.13 9
-5 2 -4 6170.72 1032.59 7
-5 2 -4 7266.92 1168.05 3
5 -2 4 7951.28 840.357 9
5 -2 4 7068.31 986.894 1
-5 2 -5 3016.33 716.919 7
5 -2 5 1235.41 456.158 1
-5 2 -5 2404.37 638.916 3
-5 2 -6 18732.4 1701.14 7
-5 2 -6 19206.6 1739.5 3
5 -2 6 18792.2 1802.71 1
-5 2 -7 6918.61 982.25 7
5 -2 7 7717.69 1211.69 1
-5 2 -7 6860.27 940.965 3
-5 2 -8 18512.9 1636.19 7
5 -2 8 16444.4 1845.39 1
-5 2 -8 16452 1377 11
-5 2 -9 14500.3 1546.96 4
-5 1 7 7655.27 1502.09 7
-5 1 7 8706.69 1609.75 3
-5 1 6 2298.24 801.548 7
-5 1 6 1664.99 765.214 3
-5 1 5 906.603 522.037 7
5 -1 -5 1210.72 528.927 6
-5 1 5 288.547 432.255 3
-5 1 4 29528.9 2826.94 7
5 -1 -4 32213.7 2589.82 6
-5 1 4 32565.8 3120.65 3
-5 1 3 4181.3 993.57 7
5 -1 -3 3037.72 731.518 6
-5 1 3 1714.49 668.578 3
-5 1 3 3113 429.239 10
5 -1 -3 2108.32 670.147 9
5 -1 -2 7700.17 824.614 8
-5 1 2 7630.21 1321.38 7
-5 1 2 6989.16 631.652 12
5 -1 -2 9626.77 1252.81 6
5 -1 -2 7428.76 714.426 10
-5 1 2 5477.8 1179.97 3
-5 1 2 7313.98 568.107 5
5 -1 -2 10054 1414.53 9
5 -1 -1 3237.45 560.023 8
-5 1 1 4154.84 506.032 1
-5 1 1 3317.65 856.91 7
-5 1 1 3792.92 399.331 12
5 -1 -1 3366.79 714.291 6
5 -1 -1 3884.55 513.612 10
-5 1 1 3569.55 939.891 3
5 -1 -1 3796.22 809.891 9
5 -1 0 6706.17 853.71 8
-5 1 0 5753.11 660.256 1
-5 1 0 7424.27 1245.78 7
-5 1 0 6073.59 450.946 12
5 -1 0 6660.22 994.154 6
5 -1 0 6052.18 657.102 10
-5 1 0 4957.84 1084.2 3
5 -1 0 6130.98 979.717 9
5 -1 1 20979.9 1531.97 1
-5 1 -1 22332.5 1464 1
-5 1 -1 21837.9 2083.92 7
-5 1 -1 21473.3 861.53 12
-5 1 -1 19907.1 2184.89 3
5 -1 1 24785.5 1860.06 6
5 -1 1 22363.7 1371.03 10
5 -1 1 21587.2 1819.29 9
-5 1 -1 20886.5 1692.94 9
-5 1 -2 293.598 172.929 9
5 -1 2 511.772 229.231 1
-5 1 -2 99.9131 260.991 7
-5 1 -2 294.806 66.0616 12
5 -1 2 279.066 169.09 6
-5 1 -2 17.153 88.7381 1
-5 1 -2 119.927 284.867 3
5 -1 2 -13.9829 77.2414 10
5 -1 2 254.95 231.71 9
-5 1 -3 23163.2 2046.9 7
-5 1 -3 24581.8 895.519 12
-5 1 -3 25292.3 2303.78 3
5 -1 3 24872.4 1829.14 1
5 -1 3 23844.7 1698.95 9
-5 1 -4 18181.3 1727.84 7
-5 1 -4 18775.8 854.474 12
-5 1 -4 17369.1 1806.27 3
5 -1 4 18310.2 1614.83 1
5 -1 4 21199 1447.8 9
5 -1 5 3054.51 664.518 1
-5 1 -5 3427 706.002 7
-5 1 -5 2827.16 342.054 12
-5 1 -5 2599.92 632.962 3
5 -1 5 2881.11 234.824 5
5 -1 5 2760 460.776 9
-5 1 -6 24738.8 1917 7
-5 1 -6 27026.5 1376.17 12
-5 1 -6 27912.4 2074.67 3
5 -1 6 29142.3 2228.79 1
5 -1 6 27652.2 1416.77 9
-5 1 -7 12013.4 1255.96 7
-5 1 -7 13919.3 1292.17 3
-5 1 -7 13886.2 1020.52 12
5 -1 7 13407.4 1550.97 1
-5 1 -8 4943.34 816.613 4
-5 1 -8 3331.75 642.702 7
-5 1 -8 4106.47 588.353 12
-5 1 -8 4260.47 624.034 11
5 -1 8 3790.34 854.112 1
-5 1 -9 3934.45 757.176 4
-5 1 -9 3661.52 613.964 12
5 -1 9 4372.7 937.971 1
-5 1 -10 1199.69 453.256 4
-5 0 7 6812.89 1408.16 7
-5 0 7 4761 1216.48 3
-5 0 6 343.068 366.311 7
5 0 -6 1232.69 535.726 6
-5 0 6 1404.74 732.692 3
-5 0 5 28560.1 2780 7
5 0 -5 26346.4 2336.32 6
-5 0 5 21369.5 2583.68 3
5 0 -5 23632.5 2488.06 9
-5 0 4 31263.3 1746.69 8
-5 0 4 26816.7 2676.26 7
5 0 -4 28254 2340.01 6
-5 0 4 29453.4 2993.88 3
5 0 -4 30237.8 2703.38 9
5 0 -3 5581 703.488 8
-5 0 3 5264.43 1116.89 7
-5 0 3 5362.1 643.611 12
5 0 -3 5703.54 971.517 6
-5 0 3 5362.63 540.063 5
-5 0 3 5461.58 1209.26 3
5 0 -3 8447 1309.63 9
5 0 -2 9658.79 965.273 8
-5 0 2 9827.56 1485.79 7
-5 0 2 11921.9 901.495 12
5 0 -2 10331 1247.2 6
-5 0 2 11716.6 891.611 1
5 0 -2 10980.9 758.809 10
-5 0 2 11148.1 705.659 5
-5 0 2 9256.02 1569.71 3
5 0 -2 11717.3 1502.75 9
5 0 -1 35961.4 2066.44 8
-5 0 1 37968.9 2951.13 7
-5 0 1 39165.1 1697.16 12
-5 0 1 37002.2 1862.9 1
5 0 -1 33112.3 2294.21 6
-5 0 1 35639.6 3078.81 3
5 0 -1 34924.3 1598.58 10
-5 0 1 40404.8 1373.23 5
5 0 -1 39044.9 2720.77 9
5 0 0 1255.14 375.604 8
-5 0 0 1056.29 279.834 1
-5 0 0 1002.03 455.719 7
5 0 0 494.187 266.168 6
5 0 0 434.324 156.131 10
-5 0 0 530.386 352.963 3
5 0 0 904.495 397.671 9
-5 0 -1 10415.2 1419.8 7
-5 0 -1 8567.25 881.345 1
5 0 1 6899.4 923.867 6
5 0 1 7994.36 701.518 10
-5 0 -1 7645.5 1296.66 3
-5 0 -1 7669.45 966.143 9
5 0 1 6770.75 990.204 9
5 0 2 162.2 148.901 1
-5 0 -2 282.075 187.709 1
-5 0 -2 -66.813 138.412 7
5 0 2 121.386 94.3753 6
5 0 2 90.203 74.9402 10
-5 0 -2 215.629 262.372 3
5 0 2 347.748 200.797 9
-5 0 -3 82829.7 4233.61 7
-5 0 -3 87743.5 2646.41 12
-5 0 -3 82556.5 4490.19 3
5 0 3 84768 3696.73 9
5 0 3 82386.4 3797.08 1
-5 0 -4 33458.4 2355.76 7
-5 0 -4 33374.7 1359.6 12
-5 0 -4 27368.6 2324.5 3
5 0 4 32856.8 2225.32 1
5 0 4 33390.7 1974.43 9
5 0 5 2511.41 467.492 9
-5 0 -5 2797.07 629.178 7
5 0 5 1913.69 509.218 1
-5 0 -5 2736.9 365.028 12
-5 0 -5 1687.64 516.142 3
5 0 5 2144.98 200.614 5
-5 0 -6 26771.2 1933.73 7
-5 0 -6 29552.3 1504.58 12
-5 0 -6 29578.4 2101.85 3
5 0 6 29922.1 2252.24 1
5 0 6 29307.3 1197.91 5
5 0 6 30901.6 1678.89 9
5 0 7 128.839 122.243 9
5 0 7 297.151 297.118 1
-5 0 -7 36.1149 129.109 7
-5 0 -7 137.591 118.775 12
-5 0 -7 304.7 161.091 11
-5 0 -7 197.026 158.785 3
5 0 8 8875.44 1294.59 1
-5 0 -8 8269.96 1015.92 4
-5 0 -8 8464.79 939.994 7
-5 0 -8 9589.22 943.783 12
5 0 9 995.172 391.502 1
-5 0 -9 1565.38 440.947 4
-5 0 -9 1880.04 454.675 12
-5 0 -10 13477.8 1464.78 4
-5 0 -10 14627.7 1405.28 12
-5 0 -11 17147.6 1773.85 4
-5 0 -11 19453.5 1734.12 12
-5 -1 8 3780.5 1099.49 7
-5 -1 8 2888.72 1029.36 3
-5 -1 7 6319.38 1349.54 7
5 1 -7 9001.88 1382.65 6
-5 -1 7 7338.4 1522.72 3
-5 -1 6 7318.54 1416 7
5 1 -6 7097.16 1176.22 6
-5 -1 6 8865.31 1666.51 3
5 1 -6 7812.51 1426.54 9
-5 -1 5 18958.7 1404.06 8
-5 -1 5 23814.4 2506.48 7
5 1 -5 22672.7 2062.71 6
-5 -1 5 20180.2 2456.95 3
5 1 -5 20349.6 2237.98 9
-5 -1 4 16707.9 1290.37 8
5 1 -4 15716.8 1277.53 8
-5 -1 4 17740.7 2096.64 7
5 1 -4 17166.4 1711.59 6
5 1 -4 15042.3 1839.29 9
-5 -1 4 14520.6 2068.15 3
-5 -1 3 2038.15 429.92 8
5 1 -3 1461.6 366.383 8
-5 -1 3 2149.16 697.584 7
5 1 -3 1805.4 503.499 6
-5 -1 3 1692.37 705.922 3
-5 -1 3 1595.85 292.744 5
-5 -1 3 1755.01 347.76 1
5 1 -3 1658.75 584.159 9
-5 -1 2 18710 1378.5 8
5 1 -2 17018.2 1337.57 8
-5 -1 2 16711 1933.71 7
-5 -1 2 16755.1 1165.19 12
5 1 -2 15813 1492.06 6
5 1 -2 17449 786.484 10
-5 -1 2 16955 935.409 5
-5 -1 2 17943.8 1241.84 1
5 1 -2 19320 1914.74 9
-5 -1 1 51.5678 74.52 8
5 1 -1 57.9683 121.848 8
-5 -1 1 129.987 95.3248 1
-5 -1 1 224.397 269.941 7
5 1 -1 159.086 200.185 6
5 1 -1 86.0889 68.4216 10
-5 -1 1 281.21 91.7215 5
5 1 -1 364.507 227.043 9
-5 -1 0 2653.51 513.923 8
5 1 0 1743.13 414.059 8
-5 -1 0 1961.63 623.318 7
-5 -1 0 890.669 343.72 11
5 1 0 1645.96 433.108 6
-5 -1 0 1827.52 169.433 5
5 1 0 2080.28 281.518 10
-5 -1 0 1874.82 431.546 1
5 1 0 1528.03 479.744 9
-5 -1 -1 44218.3 3050.43 7
5 1 1 45101.6 2462.63 6
-5 -1 -1 45382.8 2370.58 1
5 1 1 44415 1794.88 10
5 1 1 44863.4 2702.15 9
-5 -1 -1 53439 2703.11 9
5 1 2 2244.68 527.148 9
-5 -1 -2 2165.56 619.94 7
-5 -1 -2 2627.51 508.093 1
5 1 3 27816.6 1940.96 1
-5 -1 -3 25352.2 2125.79 7
-5 -1 -3 19873.4 2005.42 3
5 1 3 25549.9 1786.97 9
5 1 4 52822 2948.17 1
-5 -1 -4 52576.7 3061.89 7
5 1 4 51107.2 3161.46 7
-5 -1 -4 55752.7 2021.6 12
-5 -1 -4 48127.9 3152.67 3
5 1 4 51925 2609 9
5 1 5 2249.25 564.972 1
5 1 5 2309.45 464.84 9
-5 -1 -5 2445.27 566.723 7
5 1 5 2919.23 676.55 7
-5 -1 -5 2319.29 360.743 12
-5 -1 -5 3135.5 709.397 3
-5 -1 -6 8753.64 1010.33 7
5 1 6 9223.55 1204.92 7
-5 -1 -6 9848.65 827.818 12
-5 -1 -6 7422.92 1030.43 3
5 1 6 9306.69 605.857 5
5 1 6 8959.68 1185.78 1
5 1 6 9475.08 929.246 9
-5 -1 -7 4054.81 641.057 7
5 1 7 6063.5 943.741 7
-5 -1 -7 6178.33 705.965 12
5 1 7 5394.64 942.459 1
-5 -1 -7 5516.2 480.307 11
-5 -1 -7 5653.53 805.412 3
5 1 7 5013.96 496.386 5
5 1 7 7005.24 785.607 9
-5 -1 -8 10187.9 1087.52 4
-5 -1 -8 10788 980.846 7
-5 -1 -8 12564.3 1114.3 12
5 1 8 11723.3 1477.09 1
5 1 8 11203.3 1128.25 2
-5 -1 -9 17006.1 1492.23 4
-5 -1 -9 19789.3 1542.32 12
5 1 9 18370.1 1934.64 1
5 1 9 19248.3 1557.51 2
-5 -1 -10 685.747 319.384 4
5 1 10 760.584 309.995 2
5 1 10 914.495 527.168 1
-5 -1 -10 1313.92 437.144 12
-5 -1 -11 330.425 162.878 4
-5 -1 -11 961.294 368.732 12
-5 -2 8 373.072 305.423 7
-5 -2 8 -20.8368 314.972 3
-5 -2 7 1534.11 692.38 7
5 2 -7 2560.51 719.13 6
-5 -2 7 1866.63 798.437 3
-5 -2 6 3185.08 934.112 7
5 2 -6 2943.24 720.022 6
-5 -2 6 1367.2 640.569 3
5 2 -6 2426.63 769.795 9
-5 -2 5 18952.2 1474.6 8
-5 -2 5 22483.9 2417.56 7
5 2 -5 18264 1773.47 6
5 2 -5 19068.9 2161.6 9
-5 -2 4 38167.6 2159.84 8
-5 -2 4 35577.6 3010.85 7
5 2 -4 32879.8 2352.9 6
5 2 -4 39510 3017.13 9
-5 -2 3 331.323 216.635 8
-5 -2 3 -93.4154 151.319 7
5 2 -3 129.731 173.542 6
-5 -2 3 150.398 106.313 5
5 2 -3 447.239 327.183 9
-5 -2 2 15999 1306.78 8
5 2 -2 15625.6 1307.56 8
-5 -2 2 14190.7 1179.34 1
-5 -2 2 14036.2 1731.81 7
5 2 -2 14009.7 1325.79 6
-5 -2 2 14871.7 892.136 5
5 2 -2 12279.9 1519.68 9
-5 -2 1 34457.2 1963.93 1
-5 -2 1 37225.2 2095.11 8
5 2 -1 37580.9 2136.7 8
-5 -2 1 33569.4 2680.03 7
5 2 -1 32205.7 2048.62 6
-5 -2 1 35044.1 1397.31 5
5 2 -1 38393.4 2640.97 9
-5 -2 1 35459 1701.93 2
5 2 0 4248.07 806.386 9
-5 -2 0 4840.95 723.218 8
-5 -2 0 4746.3 944.958 7
-5 -2 0 4015.77 691.468 11
5 2 0 4354.54 675.907 6
-5 -2 0 5036.03 361.32 5
5 2 0 5011.63 370.355 10
-5 -2 0 5150.82 717.211 1
-5 -2 0 4947.09 564.624 2
-5 -2 -1 38220.3 1767.5 2
-5 -2 -1 37027.8 2144 8
-5 -2 -1 35064.9 2610.33 7
5 2 1 35870.6 2039.21 6
-5 -2 -1 35142.5 2051.31 11
-5 -2 -1 33908.9 1108.53 5
-5 -2 -1 34682.1 2068.7 1
5 2 1 34130.2 2314.7 9
5 2 2 392.716 205.129 9
-5 -2 -2 975.43 377.842 7
-5 -2 -2 559.372 212.909 11
-5 -2 -2 856.275 90.1274 5
-5 -2 -2 606.431 258.159 1
-5 -2 -3 17545 1706.13 7
-5 -2 -3 15238.9 1088.58 11
-5 -2 -3 15743 603.349 5
5 2 3 17987.2 1468.51 9
5 2 4 11905.7 1278.39 1
-5 -2 -4 9811.54 1230.15 7
-5 -2 -4 11091.5 773.522 12
-5 -2 -4 9616.45 752.537 11
-5 -2 -4 9703.59 526.956 5
5 2 4 10849.8 1096.66 9
5 2 5 1810.28 451.19 9
-5 -2 -5 1447.44 415.724 7
5 2 5 1558.71 378.576 2
-5 -2 -5 1834.76 326.899 12
-5 -2 -5 1047.25 200.152 11
5 2 5 999.627 415.542 1
-5 -2 -5 1277.12 206.232 5
5 2 6 42466.8 2723.2 1
-5 -2 -6 38421.1 2217.24 7
-5 -2 -6 41327.1 1945.07 12
-5 -2 -6 34992.4 2401.13 3
-5 -2 -6 38796.2 1628.96 5
5 2 6 40964 1616.99 5
5 2 6 41230.1 2179.1 2
-5 -2 -7 12557.9 1069.05 4
-5 -2 -7 11864 1028.2 7
-5 -2 -7 12969.1 1066.78 12
-5 -2 -7 12423.6 1221.19 3
5 2 7 10062.5 766.116 5
5 2 7 12330.4 1438.93 1
5 2 7 11743.1 1100.85 2
-5 -2 -8 20333.7 1458.91 4
-5 -2 -8 19591.8 1231.75 7
-5 -2 -8 21946.1 1541.66 12
5 2 8 20897.2 1986.24 1
5 2 8 19374.8 1511.05 2
-5 -2 -9 25694.7 1769.39 4
-5 -2 -9 23403.5 1748.27 12
5 2 9 25895.2 2305.73 1
5 2 9 24665.1 1787.35 2
5 2 10 474.685 327.034 1
-5 -2 -10 55.9824 133.199 4
5 2 10 290.712 245.374 2
-5 -2 -10 184.919 214.663 12
-5 -3 8 5333.68 1304.04 7
-5 -3 8 5177.78 1329.11 3
-5 -3 7 2497.31 824.278 7
5 3 -7 2224.25 769.16 9
-5 -3 6 11112.9 1190.64 8
-5 -3 6 8502.47 1563.17 7
5 3 -6 9552.03 1269.86 6
5 3 -6 10121.7 1604.68 9
-5 -3 5 18285.3 1536.29 8
-5 -3 5 20732.3 2307.95 7
5 3 -5 18720.4 1709.32 6
5 3 -5 20683 2226.03 9
-5 -3 4 4275.12 705.123 8
-5 -3 4 4303.51 1004 7
5 3 -4 3986.43 722.299 6
-5 -3 4 4450.34 477.711 2
5 3 -4 3191.33 839.277 9
-5 -3 3 10139.9 1080.13 8
-5 -3 3 9243.82 1416.94 7
5 3 -3 10443.2 1137.05 6
-5 -3 3 12204.2 909.391 5
-5 -3 3 11221.6 785.689 2
5 3 -3 10317.1 1434.61 9
-5 -3 2 20664.9 1573.45 8
-5 -3 2 18715.1 1998.56 7
5 3 -2 17068.7 1409.27 6
-5 -3 2 19813.1 1107.18 5
5 3 -2 16043.2 1746.18 9
-5 -3 2 19591.4 1093.46 2
-5 -3 1 22096.8 1173.75 2
-5 -3 1 18430.7 1475.67 8
-5 -3 1 18087.4 1436.13 1
-5 -3 1 15558.8 1763.47 7
5 3 -1 19830.9 1456.7 6
-5 -3 1 20061.4 1573.43 11
5 3 -1 17487.6 1747.76 9
-5 -3 0 11143.4 823.158 2
-5 -3 0 12114.1 1148.92 8
-5 -3 0 9748.69 1032.54 1
-5 -3 0 10126.1 1353.91 7
5 3 0 11900.1 1071.27 6
-5 -3 0 9819.92 1010.55 11
5 3 0 10204.3 486.384 10
5 3 0 10122.2 474.543 10
5 3 0 10874.8 1280.63 9
-5 -3 -1 77758.6 3440.87 8
-5 -3 -1 77139.6 2849.59 2
-5 -3 -1 70083.3 3915.8 7
5 3 1 81415.7 3269.88 6
-5 -3 -1 71661.5 3061.02 11
5 3 1 76302.4 3709.54 9
-5 -3 -1 77357.2 3454.2 1
5 3 2 6688.51 962.291 9
-5 -3 -2 7758.21 949.206 8
-5 -3 -2 7780.61 732.656 2
-5 -3 -2 6339.45 1009.76 7
-5 -3 -2 6166.76 654.311 11
-5 -3 -2 7274.99 437.808 5
5 3 3 5185.31 797.234 9
-5 -3 -3 4551.62 747.629 8
-5 -3 -3 4651.23 845.331 7
-5 -3 -3 3718.79 425.066 11
-5 -3 -3 4931.35 376.894 5
5 3 3 4576.23 591.447 2
-5 -3 -4 16574.8 1595.83 7
-5 -3 -4 16833.4 759.133 11
-5 -3 -4 18326.1 894.303 5
5 3 4 17989 1259.86 2
5 3 5 17578.6 1633.34 1
-5 -3 -5 15506.8 1451.1 7
-5 -3 -5 15435.4 1059.32 12
-5 -3 -5 15522.4 904.066 5
5 3 5 15464.3 1195.32 2
-5 -3 -6 2040.72 457.865 7
5 3 6 2835.36 510.164 2
-5 -3 -6 1846.3 376.323 12
5 3 6 1532.91 494.709 1
-5 -3 -6 2056.56 335.429 5
5 3 7 7943.31 892.577 2
5 3 7 9798.25 1286.44 1
-5 -3 -7 7639.09 757.702 4
-5 -3 -7 6927.22 726.957 7
-5 -3 -7 6200.68 752.519 12
-5 -3 -7 7648.02 717.462 5
5 3 7 7363.7 672.511 5
-5 -3 -8 273.893 174.212 4
5 3 8 541.343 273.863 2
-5 -3 -8 432.555 186.408 12
-5 -3 -8 73.1973 118.808 5
5 3 8 662.119 364.847 1
5 3 9 35832.5 2201.86 2
5 3 9 31295.6 2597.78 1
-5 -3 -9 32533.6 1946.8 4
-5 -3 -9 35001.1 2199.5 12
-5 -3 -9 34618 1948.2 5
5 3 10 1436.9 427.373 2
-5 -3 -10 1107.38 409.68 12
5 3 10 437.753 301.105 1
-5 -4 8 7082.85 1502.36 7
-5 -4 7 16134 1573.2 8
5 4 -7 21090.2 2430.77 9
-5 -4 6 18502.9 1651.62 8
5 4 -6 19472.1 1739.38 6
5 4 -6 16665.8 2089.14 9
-5 -4 5 5639.09 865.357 8
5 4 -5 4901.11 810.309 6
5 4 -5 7246.81 1306.4 9
-5 -4 4 66818.9 3326.21 8
5 4 -4 70605.8 3314.57 6
5 4 -4 65327.7 4104.83 9
-5 -4 3 23331 1105.1 2
-5 -4 3 22509.7 1727.55 8
5 4 -3 23932.1 1673.92 6
5 4 -3 21956.5 2146.72 9
-5 -4 2 311.824 166.409 8
-5 -4 2 314.715 113.799 2
5 4 -2 279.795 181.672 6
-5 -4 1 8815.02 1032.71 8
-5 -4 1 11368.7 772.91 2
5 4 -1 8131.82 852.935 6
-5 -4 1 9473.7 1017.06 11
5 4 -1 9104.41 1255.08 9
5 4 0 130.769 138.535 9
-5 -4 0 53.2382 67.345 8
-5 -4 0 399.111 203.469 4
-5 -4 0 228.984 113.186 2
-5 -4 0 218.407 160.749 11
5 4 0 180.834 143.44 6
5 4 0 140.027 51.6067 10
-5 -4 -1 89388.7 3488.97 4
-5 -4 -1 87019 3840.3 8
-5 -4 -1 99030.3 3341.26 2
-5 -4 -1 88447.9 3347.78 11
5 4 1 90464.5 2886.02 10
5 4 1 90239.3 4223.16 9
5 4 2 3570.28 711.066 9
-5 -4 -2 6172.39 679.69 2
-5 -4 -2 6430.07 872.403 8
-5 -4 -2 4051.41 792.511 7
-5 -4 -2 4766.98 507.355 11
5 4 2 4925.9 516.05 10
5 4 2 5023.57 591.834 2
-5 -4 -3 281.387 210.676 8
-5 -4 -3 170.737 226.436 7
5 4 3 122.679 95.6694 2
-5 -4 -3 110.486 80.7012 11
-5 -4 -3 92.0235 44.5023 5
5 4 4 42404.4 2041.2 2
-5 -4 -4 37920.1 2375.68 8
-5 -4 -4 40316.6 2545.09 7
-5 -4 -4 39822.8 1652.42 5
-5 -4 -5 148.2 174.503 7
5 4 5 73.4515 128.437 2
-5 -4 -5 176.51 150.114 12
-5 -4 -5 56.6491 101.996 5
5 4 6 16557.4 1296.02 2
-5 -4 -6 16888.6 1009.75 4
-5 -4 -6 16459.1 1372.21 7
-5 -4 -6 18596.6 1275.25 12
-5 -4 -6 18368.8 1151.89 5
-5 -4 -7 90.1472 87.238 4
-5 -4 -7 272.469 146.55 7
5 4 7 83.7852 103.604 2
-5 -4 -7 -3.32227 142.615 12
-5 -4 -7 42.8851 117.285 5
5 4 8 5768.47 795.154 2
-5 -4 -8 4908.07 731.402 12
5 4 8 4439.46 899.23 1
-5 -4 -8 5134.9 674.822 5
5 4 9 7712.62 981.162 2
-5 -4 -9 7328.92 973.343 12
-5 -4 -9 9195.7 971.971 5
5 4 9 7473.09 1209.63 1
5 4 10 593.796 400.368 1
-5 -4 -10 608.944 267.623 5
-5 -4 -11 326.487 233.042 5
-5 -5 7 2712.19 683.398 8
5 5 -7 1005.58 479.981 9
-5 -5 6 3741.1 757.234 8
5 5 -6 3396.57 921.122 9
-5 -5 5 2490.55 594.953 8
5 5 -5 2746.63 573.726 6
5 5 -5 3188.05 833.646 11
5 5 -5 2803.23 814.998 9
-5 -5 4 33754.9 2325.71 8
5 5 -4 34182.6 2034.02 6
5 5 -4 34793.2 2694.49 11
5 5 -4 35244.4 2893.43 9
5 5 -3 3735.29 879.806 9
-5 -5 3 3708.89 371.058 2
-5 -5 3 3273.37 680.302 8
5 5 -3 4200.35 617.825 6
5 5 -3 3840.13 806.64 11
-5 -5 2 12924.4 1330.83 8
-5 -5 2 17006 934.611 2
5 5 -2 12379.5 1045.29 6
5 5 -2 13967.5 1472.21 11
5 5 -2 16228.3 1773.1 9
5 5 -1 5403.37 988.033 9
-5 -5 1 5328.99 534.059 2
-5 -5 1 5842.8 852.129 8
-5 -5 1 5016.07 687.588 4
5 5 -1 5650.3 653.4 6
5 5 -1 4622.21 778.263 11
5 5 0 225.365 181.878 9
-5 -5 0 499.804 295.037 8
-5 -5 0 105.333 111.742 4
-5 -5 0 402.432 166.656 2
5 5 0 430.021 225.62 11
-5 -5 0 192.726 126.678 11
5 5 0 58.457 93.5391 6
5 5 0 190.596 75.0436 10
5 5 1 5876.67 947.67 9
-5 -5 -1 4182.08 722.799 8
-5 -5 -1 3526.68 512.731 4
-5 -5 -1 4386.47 539.154 11
-5 -5 -1 4239.92 559.817 2
5 5 1 4169.46 617.865 11
5 5 1 5010.81 477.564 10
5 5 1 4733.03 546.88 2
5 5 2 7530.61 717.955 2
-5 -5 -2 7237.57 676.285 4
-5 -5 -2 7168.44 952.094 8
-5 -5 -2 7696.18 813.031 2
5 5 2 7660.9 691.608 10
-5 -5 -3 41273.7 1761.94 4
5 5 3 40407.9 1977.01 2
-5 -5 -3 42442.4 2507.21 8
5 5 3 42438.9 2018.68 10
-5 -5 -3 44878 1790.13 5
5 5 4 76713.4 3109.32 2
-5 -5 -4 74144.5 3634.48 8
-5 -5 -4 73322 3699.08 7
5 5 4 78591.5 3214.78 10
-5 -5 -4 86428.3 2908.37 5
-5 -5 -5 466.087 224.962 8
-5 -5 -5 499.536 125.804 4
-5 -5 -5 780.478 314.869 7
5 5 5 489.904 210.617 2
-5 -5 -5 707.438 240.542 12
5 5 5 867.648 286.543 10
-5 -5 -5 920.364 233.088 5
5 5 6 16542.8 1306.5 2
-5 -5 -6 15921.9 819.659 4
-5 -5 -6 17123.9 1382.16 7
-5 -5 -6 16548.6 1268.29 12
5 5 6 16745.9 1415.6 10
-5 -5 -6 16859.6 1170.04 5
5 5 7 46647.7 2456.3 2
-5 -5 -7 42607.3 2318.78 12
5 5 7 43655.1 2573.93 10
-5 -5 -7 45918.5 2232.76 5
5 5 8 3144.78 592.772 2
-5 -5 -8 3310.85 616.275 12
5 5 8 3357.4 693.034 10
-5 -5 -8 3460.17 566.331 5
5 5 9 6988.07 958.537 2
-5 -5 -9 5231.41 832.864 12
5 5 9 6083.82 998.235 10
-5 -5 -9 6161.48 830.758 5
-5 -5 -10 2799.9 584.702 5
-5 -6 8 700.511 375.289 1
-5 -6 7 1321.4 493.901 8
5 6 -7 1165.95 564.488 9
-5 -6 6 7415.87 1125.51 8
5 6 -6 9909.92 1563.35 11
5 6 -6 6879.61 1354.46 9
-5 -6 5 20907.1 1913.71 8
5 6 -5 25215.7 2381.31 11
5 6 -5 21613.4 2349.31 9
5 6 -4 7479.21 1309.15 9
-5 -6 4 7053.29 1059.02 8
5 6 -4 7780.95 808.177 6
5 6 -4 5624.28 1041.12 11
5 6 -3 180.192 204.63 9
-5 -6 3 -70.5944 87.0236 8
5 6 -3 147.868 122.315 6
5 6 -3 102.357 225.572 11
5 6 -2 666.798 371.835 9
-5 -6 2 677.78 295.863 8
5 6 -2 1122.31 270.285 6
5 6 -2 953.935 351.991 11
-5 -6 2 889.445 210.305 2
-5 -6 1 32579 2229.33 8
-5 -6 1 37568.1 1968.61 4
-5 -6 1 34856 1676.14 2
5 6 -1 33110.5 1639.79 6
5 6 -1 33447.8 2216.48 11
5 6 -1 34643.4 1291.57 10
5 6 -1 32750.5 2570.99 9
5 6 0 196.518 216.607 9
-5 -6 0 112.024 169.335 8
-5 -6 0 101.101 95.9944 4
5 6 0 97.497 96.5342 2
5 6 0 446.368 265.15 11
5 6 0 50.1879 74.1059 6
-5 -6 0 537.462 215.988 11
-5 -6 0 298.565 169.23 2
5 6 0 353.445 143.494 10
5 6 1 11676.3 872.939 2
-5 -6 -1 10718.7 1200.99 8
-5 -6 -1 10659.2 826.653 4
-5 -6 -1 11537 1008.41 2
5 6 1 8968.72 938.42 11
5 6 1 10098.2 782.609 10
5 6 2 21177.9 1277.86 2
-5 -6 -2 21081 1706.55 8
-5 -6 -2 19662.5 1060.59 4
5 6 2 21057.8 1348.58 11
5 6 2 21173.5 1286.18 10
-5 -6 -3 14768.5 1415.07 8
5 6 3 16381.6 1151.68 2
-5 -6 -3 15034.7 773.389 4
5 6 3 15883.1 1008.87 11
5 6 3 16417.5 1202.06 10
-5 -6 -3 15932.6 1034.51 5
-5 -6 -4 53539.3 3005.52 8
5 6 4 57024.6 2563.06 2
5 6 4 55059.5 2682.2 10
-5 -6 -4 60720.5 2419.28 5
-5 -6 -5 2524.94 594.09 8
-5 -6 -5 2293.04 525.737 7
5 6 5 2293.67 461.045 2
-5 -6 -5 3153.06 531.382 12
5 6 5 1944.01 460.498 10
-5 -6 -5 2559.07 433.514 5
-5 -6 -6 233.968 130.609 7
5 6 6 332.234 220.124 2
-5 -6 -6 384.828 193.776 12
-5 -6 -6 215.405 155.614 5
5 6 7 28640.7 1900.63 2
-5 -6 -7 27069 1824.9 12
5 6 7 24392.2 1936.91 10
-5 -6 -7 28569.9 1761.47 5
5 6 8 -113.202 200.156 2
-5 -6 -8 333.683 205.871 12
5 6 8 4.72579 176.863 10
-5 -6 -8 254.314 199.815 5
-5 -6 -9 13712.9 1321.42 5
-5 -7 6 10372.4 1425.14 8
5 7 -6 10855.1 1716.19 9
5 7 -5 2164.92 779.793 9
-5 -7 5 2769.15 668.172 8
5 7 -5 2508.13 737.562 11
-5 -7 4 43924.8 2901.02 8
5 7 -4 40700 2958.98 11
5 7 -4 39186.5 3182.62 9
-5 -7 3 21260.7 1908.64 8
5 7 -3 18952.9 1848.92 11
5 7 -3 20132 2141.83 9
5 7 -2 -120.466 133.767 9
-5 -7 2 85.7822 176.035 8
5 7 -2 121.664 82.1412 6
5 7 -2 95.2528 158.438 11
-5 -7 1 8187.4 1107.09 8
-5 -7 1 7630.68 812.239 4
-5 -7 1 8821.65 832.334 2
5 7 -1 7829.33 623.592 6
5 7 -1 8281.85 1038.18 11
5 7 -1 8266.16 635.772 10
5 7 -1 8731.02 689.436 2
5 7 -1 11397.5 1487.13 9
5 7 0 490.838 369.499 9
-5 -7 0 66.8274 172.723 8
-5 -7 0 79.9242 98.0256 4
5 7 0 150.192 123.341 2
5 7 0 385.49 226.158 11
5 7 0 269.609 115.493 6
-5 -7 0 586.267 229.319 2
5 7 0 146.372 95.5522 10
5 7 1 23794.4 1334.37 2
-5 -7 -1 22134.1 1829.19 8
-5 -7 -1 24097.3 1236.26 4
-5 -7 -1 22878.1 1612.08 2
5 7 1 23417.1 1597.04 11
5 7 1 21868.2 1315.2 10
-5 -7 -2 2414.02 282.648 4
-5 -7 -2 1593.64 483.446 8
5 7 2 2254.79 392.538 2
5 7 2 2199.3 432.909 11
5 7 2 2339.16 433.884 10
-5 -7 -3 3196.51 487.971 5
-5 -7 -3 2597.41 624.38 8
5 7 3 3200.56 509.325 2
5 7 3 3421.75 472.501 11
5 7 3 2562.03 485.335 10
-5 -7 -4 13620.6 1415.31 8
5 7 4 14286.9 1166.16 2
5 7 4 12081.1 1175.49 10
-5 -7 -4 15986.7 1152.44 5
-5 -7 -5 2142.51 551.37 8
5 7 5 2276.25 483.456 2
-5 -7 -5 1936.4 438.134 12
5 7 5 985.933 377.555 10
-5 -7 -5 1325.39 346.434 5
-5 -7 -6 6058.7 947.607 8
-5 -7 -6 7809.24 927.547 12
5 7 6 5462.09 787.368 2
5 7 6 7433.34 999.468 10
-5 -7 -6 7359.09 849.584 5
5 7 7 1009.92 357.804 2
-5 -7 -7 956.548 356.563 12
5 7 7 1079.19 421.688 10
-5 -7 -7 660.512 266.64 5
5 7 8 6147.65 1017.6 10
-5 -7 -8 6037.67 844.608 5
-5 -7 -9 3103.65 660.918 5
5 8 -6 174.51 282.283 9
5 8 -6 372.737 311.957 4
5 8 -5 -232.589 270.409 9
-5 -8 5 453.578 310.982 8
5 8 -5 -53.6615 171.859 4
5 8 -5 286.433 356.085 11
5 8 -4 8785.83 1477.58 9
5 8 -4 11848 1357.08 4
-5 -8 4 9158.82 1320.64 8
5 8 -4 11284.3 1487.5 11
5 8 -3 20773.8 1727.79 4
-5 -8 3 19321.3 1901.68 8
5 8 -3 18223 1820.63 11
5 8 -3 18066.8 2081.77 9
-5 -8 2 12294.7 1455.58 8
5 8 -2 11451.2 1361.21 11
5 8 -2 14209 1771.2 9
5 8 -1 6628.74 1179.72 9
-5 -8 1 6058.05 995.95 8
5 8 -1 6297.37 944.365 11
5 8 -1 7155.69 668.73 10
5 8 -1 6873.09 610.576 2
5 8 0 11054.1 840.573 2
-5 -8 0 11909.9 1377.19 8
5 8 0 10040.5 1126.73 11
5 8 0 10937.1 904.757 10
-5 -8 -1 16803.9 1635.24 8
5 8 1 18298.5 1181.45 2
5 8 1 18234.8 1434.56 11
5 8 1 18025.8 1274.36 10
-5 -8 -2 14758 1518.39 8
5 8 2 18289.8 1244.05 2
5 8 2 17910.4 1319.31 11
5 8 2 15770.2 1261.61 10
-5 -8 -3 602.888 238.261 5
-5 -8 -3 646.771 313.581 8
5 8 3 914.626 266.538 2
5 8 3 718.362 239.493 11
5 8 3 517.943 236.358 10
5 8 4 8310.54 929.515 2
-5 -8 -4 7728.93 1086.57 8
5 8 4 9818.68 1083.86 10
-5 -8 -4 9519.17 933.978 5
5 8 5 131.375 122.475 2
-5 -8 -5 119.258 124.102 12
5 8 5 -253.298 190.161 10
-5 -8 -5 43.0807 71.3138 5
-5 -8 -6 155.191 219.732 8
5 8 6 572.773 277.165 2
-5 -8 -6 115.304 128.858 12
5 8 6 308.377 255.509 10
-5 -8 -6 114.11 172.24 5
5 8 7 44302.5 2876.36 10
-5 -8 -7 47799.7 2632.25 5
5 9 -5 457.782 348.414 9
5 9 -5 655.096 308.707 4
5 9 -4 7587.38 1419.67 9
5 9 -4 6106.91 994.527 4
5 9 -4 6550.48 1166.96 11
5 9 -3 8743.18 1113.03 4
5 9 -3 7368.36 1352.88 9
-5 -9 3 8974.31 1334.29 8
5 9 -3 7783.74 1191.57 11
5 9 -2 1191.88 537.63 9
-5 -9 2 1718.53 565.514 8
5 9 -2 1115.37 381.057 4
5 9 -2 836.284 387.775 11
-5 -9 1 42827.4 2916.5 8
5 9 -1 45353.1 2748.1 11
5 9 -1 42511.2 2076.8 10
5 9 -1 38918.8 3134.23 9
-5 -9 0 3158.33 746.14 8
5 9 0 3190.36 459.529 2
5 9 0 3910.08 697.529 11
5 9 0 2742.19 489.594 10
-5 -9 -1 14347.8 1577.84 8
5 9 1 15444.6 1121.64 2
5 9 1 14103.9 1307.98 11
5 9 1 16875.1 1312.57 10
-5 -9 -2 16118.3 1631.46 8
5 9 2 15141.3 1214.8 2
5 9 2 18209.6 1403.98 11
5 9 2 18557.7 1448.8 10
-5 -9 -3 2790.29 522.889 5
-5 -9 -3 3141.88 709.298 8
5 9 3 2943.21 542.799 2
5 9 3 2869.4 589.965 10
-5 -9 -4 9488.03 1239.49 8
5 9 4 9899.73 1075.9 2
5 9 4 8641.58 1089.02 10
-5 -9 -4 11295.4 1102.68 5
-5 -9 -5 488.868 249.994 12
5 9 5 963.888 356.447 2
5 9 5 1290.76 448.618 10
-5 -9 -5 279.404 201.604 5
-5 -9 -6 1763.75 534.777 8
5 9 6 2523.47 657.95 10
-5 -9 -6 1754.16 441.476 5
5 10 -5 4176.28 895.026 4
5 10 -4 4687.05 1128.16 9
5 10 -3 12101.4 1776.46 9
5 10 -3 9327.68 1384.95 11
5 10 -2 544.358 416.583 9
5 10 -2 663.322 347.604 11
5 10 -1 624.523 440.053 9
-5 -10 1 -20.1403 190.08 8
5 10 -1 318.952 216.546 11
-5 -10 0 365.065 280.416 8
5 10 0 309.739 247.399 11
5 10 0 796.461 324.289 10
-5 -10 -1 504.755 356.58 8
5 10 1 1276.9 330.387 2
5 10 1 890.272 340.425 11
5 10 1 1284.76 383.406 10
-5 -10 -2 2872.37 719.354 8
5 10 2 2659.16 511.629 2
5 10 2 3095.91 620.478 10
-5 -10 -3 -67.9048 70.285 5
-5 -10 -3 218.81 277.957 8
5 10 3 94.8878 171.305 2
5 10 3 -180.03 178.874 10
-5 -10 -4 24620.3 2129.64 8
5 10 4 23838.6 1829.13 2
5 10 4 22968.4 1908.09 10
-5 -10 -4 27356.8 1879.73 5
-5 -10 -5 919.677 395.476 8
5 10 5 859.874 402.971 10
5 11 -2 275.186 235.911 11
5 11 -1 5212.1 951.436 11
5 11 0 1187.74 418.687 11
5 11 1 -92.1121 168.231 10
-5 -11 -2 5299.57 999.669 8
5 11 2 5531.95 788.923 2
5 11 2 7163.69 1015.28 10
-5 -11 -3 2497.82 658.34 8
5 11 3 2064.19 545.406 2
5 11 3 2721.05 640.3 10
-5 -11 -4 2726.06 707.476 8
6 -5 5 3533.35 847.222 1
6 -4 3 574.769 300.813 1
-6 4 -3 809.819 501.547 3
6 -4 4 1105.41 451.731 1
-6 4 -4 1843.02 712.18 3
6 -4 5 3223.66 775.984 1
-6 4 -5 4695.08 1035.74 3
-6 4 -6 203.861 302.056 3
6 -4 6 208.237 216.641 1
-6 3 0 34104.5 2932.7 7
-6 3 0 26292.3 2814.95 3
6 -3 0 29373.8 2598.68 6
-6 3 -1 176.333 267.546 7
6 -3 1 233.374 222.039 6
-6 3 -1 -38.8449 151.918 3
-6 3 -2 13770.9 1792.52 7
-6 3 -2 14792.4 1991.95 3
6 -3 2 9944.46 1415.58 6
6 -3 2 14386 1417.07 1
-6 3 -3 22751 2264.43 7
-6 3 -3 17347.6 2123.65 3
6 -3 3 18421.5 1910.51 6
6 -3 3 21757.6 1858.12 1
6 -3 4 1513.46 517.383 1
-6 3 -4 956.126 450.349 7
6 -3 4 1542.51 533.493 6
-6 3 -4 2071.16 727.546 3
-6 3 -5 17933.5 1929.46 7
-6 3 -5 14879.1 1845.31 3
6 -3 5 16676.1 1780.39 6
6 -3 5 13131.4 1574.71 1
6 -3 6 1933.93 592.564 1
-6 3 -6 1297.19 559.229 7
-6 3 -6 1373.08 536.178 3
-6 3 -7 450.921 322.288 7
-6 3 -8 16479.3 1780.83 7
-6 2 3 1805.52 694.578 7
-6 2 2 199.275 276.157 7
6 -2 -2 444.772 372.615 6
-6 2 2 -288.092 321.742 3
-6 2 1 5731.11 1182.66 7
6 -2 -1 4117.76 922.258 6
-6 2 1 5439.38 1267.92 3
-6 2 0 15769.2 1988.1 7
6 -2 0 12823.4 1608.61 6
-6 2 0 15214.5 2091.67 3
-6 2 -1 4316.61 1010.9 7
6 -2 1 3305.6 762.7 6
-6 2 -1 2464.89 880.44 3
6 -2 1 5003.42 946.819 9
6 -2 2 26979.2 1966.82 1
-6 2 -2 24424.8 2374.14 7
-6 2 -2 19936.8 2332.41 3
6 -2 2 24728.2 2148.02 6
6 -2 2 21092.2 1912.41 9
6 -2 3 3730.09 737.38 1
-6 2 -3 3862.34 906.21 7
6 -2 3 4503.32 865.816 6
-6 2 -3 2809.83 836.164 3
6 -2 3 3765.27 722.896 9
-6 2 -4 858.285 442.551 7
6 -2 4 1390.98 457.548 1
6 -2 4 1590.41 554.151 6
-6 2 -4 1715.76 661.943 3
6 -2 5 1325.61 485.832 1
-6 2 -5 1481.16 520.458 7
-6 2 -5 858.499 432.183 3
6 -2 6 707.121 366.571 1
-6 2 -6 594.818 399.903 7
-6 2 -6 644.274 344.048 3
6 -2 7 6741.88 1160.78 1
-6 2 -7 4626.13 898.934 7
-6 2 -7 4808.71 898.904 3
-6 2 -8 2554.84 666.309 7
-6 1 4 700.613 555.358 7
-6 1 3 7490.73 1457.42 7
6 -1 -3 6755.39 1205.53 6
-6 1 3 7480 1558.41 3
6 -1 -3 10495.4 1639.34 9
-6 1 2 11711.3 1818.02 7
6 -1 -2 12489.1 1580.18 6
-6 1 2 9698.26 1734.78 3
6 -1 -2 12317.1 1712.24 9
-6 1 1 1920.24 697.792 7
6 -1 -1 3480.69 805.515 6
-6 1 1 1308.52 610.077 3
6 -1 -1 1438.62 537.356 9
-6 1 0 1.26225 137.198 7
6 -1 0 65.5189 190.16 6
-6 1 0 520.212 427.623 3
6 -1 0 235.844 197.37 9
-6 1 -1 426.362 282.849 7
6 -1 1 397.21 255.744 6
-6 1 -1 776.998 502.036 3
6 -1 1 336.805 265.805 9
6 -1 2 9330.92 1140.31 1
-6 1 -2 9805.83 1493.29 7
6 -1 2 13932.2 1506.27 6
-6 1 -2 9252.56 1551.27 3
6 -1 2 10070.8 1291.63 9
6 -1 3 23926.9 1947.9 1
-6 1 -3 26309.3 2396.24 7
-6 1 -3 20715.1 2279.86 3
6 -1 3 26432 2109.55 6
6 -1 3 23634.6 1904.61 9
-6 1 -4 16846.4 1826.12 7
-6 1 -4 16430.9 1924.22 3
6 -1 4 17219.6 1491.51 9
6 -1 4 13843 1503.43 1
-6 1 -5 8810.43 1304.93 7
-6 1 -5 10068.1 1455.72 3
6 -1 5 10277.7 1322.08 1
-6 1 -6 2342.87 639.429 7
6 -1 6 3336.08 798.106 1
-6 1 -6 1724.34 561.334 3
-6 1 -7 12439.9 1437.01 7
-6 1 -7 16372.1 1646.89 3
6 -1 7 16873.2 1841.84 1
6 -1 8 2308.76 732.952 1
-6 1 -8 2552.88 638.28 7
-6 1 -9 1076.51 472.82 4
-6 0 5 10110.9 1786.4 7
-6 0 4 4195.56 1115.4 7
6 0 -4 2816.99 784.715 6
-6 0 4 5191.08 1320.83 3
6 0 -4 2763.27 838.98 9
-6 0 3 8823.73 1592.92 7
6 0 -3 11146.3 1507.79 6
-6 0 3 9476.18 1808.17 3
6 0 -3 11277.1 1690.42 9
-6 0 2 8210.68 1481.46 7
6 0 -2 6994.48 1136.21 6
-6 0 2 9342.99 1698.74 3
6 0 -2 7008.95 1268.35 9
-6 0 1 634.046 450.812 7
6 0 -1 571.492 308.134 6
6 0 -1 318.65 229.545 9
-6 0 0 32640.6 2892.4 7
-6 0 0 28086.8 1758.86 1
6 0 0 29753.4 2289.14 6
-6 0 0 29066.4 2935.05 3
6 0 0 26578.5 1451.24 10
6 0 0 32031.8 2581.99 9
-6 0 -1 288.158 286.23 7
6 0 1 -31.9012 178.63 6
6 0 1 68.5206 79.0014 10
6 0 1 -23.3573 89.8521 9
-6 0 -2 10104.9 1486.36 7
6 0 2 9850.77 1226.52 6
6 0 2 10166.7 912.955 10
-6 0 -2 8417.79 1487.01 3
6 0 2 8201.54 1155.85 9
6 0 3 19787.1 1726.19 1
-6 0 -3 16631.5 1889.5 7
-6 0 -3 17283.9 831.295 12
-6 0 -3 16581.7 2033.89 3
6 0 3 14557.7 1513.54 6
6 0 3 16290.4 1572.66 9
6 0 4 414.449 304.788 1
-6 0 -4 387.111 315.05 7
-6 0 -4 74.4807 90.966 12
-6 0 -4 89.7465 101.009 3
6 0 4 -396.022 234.241 9
-6 0 -5 23094.8 2050.54 7
-6 0 -5 25912.1 1247.54 12
-6 0 -5 24208.2 2288.56 3
6 0 5 23529.6 1739.87 9
6 0 5 21634.7 1977.68 1
-6 0 -6 5125.84 903.579 7
-6 0 -6 5168.2 559.926 12
-6 0 -6 6795.35 1146.36 3
6 0 6 5391.42 989.649 1
-6 0 -7 5295.71 876.222 7
6 0 7 5125.59 1004.24 1
-6 0 -7 4898.18 861.958 3
-6 0 -8 47420.5 2694.18 7
6 0 8 43008.2 3156.38 1
-6 0 -9 416.947 325.833 4
-6 0 -10 2843.78 695.63 4
-6 -1 5 12005.1 1950.49 7
6 1 -5 9982.79 1475.31 6
-6 -1 5 10326 1930.28 3
-6 -1 4 15860.5 2160.21 7
6 1 -4 15458.3 1779.95 6
6 1 -4 17187.3 2129.43 9
-6 -1 4 16788.3 2416.98 3
-6 -1 3 15821.2 1369.79 8
-6 -1 3 14917.2 2054.36 7
6 1 -3 12960.2 1561.96 6
-6 -1 3 13148.3 2078.07 3
6 1 -3 12957.6 1785.06 9
-6 -1 2 5934.66 826.12 8
-6 -1 2 4911.55 1149.11 7
6 1 -2 4541.57 871.715 6
-6 -1 2 4487.9 1151.48 3
6 1 -2 6427.42 1199.58 9
-6 -1 1 12340.2 1774.04 7
-6 -1 1 9658.83 994.403 1
6 1 -1 8890.77 1189.24 6
-6 -1 1 9999.62 1720.47 3
6 1 -1 11244.8 1523.65 9
-6 -1 0 13151.3 1805.94 7
6 1 0 14107.4 1485.17 6
-6 -1 0 14378.7 1260.9 1
6 1 0 14729.6 895.108 10
6 1 0 19006.5 1895.98 9
-6 -1 0 13189.3 1935.6 3
-6 -1 -1 1177.92 532.026 7
6 1 1 1220.08 420.833 6
6 1 1 1328.12 275.915 10
-6 -1 -1 1925.25 693.912 3
6 1 1 1019.73 451.105 9
6 1 2 3709.42 769.355 9
-6 -1 -2 1836.8 673.28 7
6 1 2 2671.2 620.039 6
6 1 2 2500.02 406.184 10
-6 -1 -2 2987.09 879.842 3
-6 -1 -3 8526.65 1334.88 7
6 1 3 7239.36 1035.68 1
-6 -1 -3 7120.18 1324.14 3
6 1 3 9435.52 1190.99 9
6 1 4 13104.3 1456.74 1
-6 -1 -4 13480.8 1624.94 7
-6 -1 -4 14729.3 880.209 12
-6 -1 -4 12501.3 1689.98 3
6 1 4 13999.2 1404.72 9
6 1 5 11651.8 1401.94 1
-6 -1 -5 8290.37 1205.12 7
-6 -1 -5 9924.73 762.581 12
-6 -1 -5 9298.71 1385.52 3
6 1 5 7979.67 1022.69 9
-6 -1 -6 11837 1358.06 7
-6 -1 -6 14869.1 1030.55 12
-6 -1 -6 12366.7 1535.78 3
6 1 6 14563.4 1313.3 9
6 1 6 12443.4 1517.84 1
6 1 7 8501.44 1282.67 1
-6 -1 -7 7323.53 1002.47 7
-6 -1 -7 8582.97 832.994 12
-6 -1 -7 6748.59 1045.74 3
-6 -1 -8 14035.6 1319.75 7
-6 -1 -8 16313.7 1278.99 12
6 1 8 13420 1672.06 1
-6 -1 -9 1326.68 421.079 4
-6 -1 -9 1007.36 328.568 12
-6 -1 -10 2141.53 556.925 4
-6 -2 6 467.32 324.305 7
6 2 -6 2185.84 694.519 6
-6 -2 6 2282.68 917.443 3
-6 -2 5 15617 2221.81 7
6 2 -5 19559.6 2001.01 6
6 2 -5 19787.1 2367.67 9
-6 -2 5 17730.6 2581.7 3
-6 -2 4 3337.59 635.446 8
-6 -2 4 3401.42 1030.04 7
6 2 -4 3703.52 813.615 6
6 2 -4 1852.5 684.577 9
-6 -2 3 1404.02 446.137 8
-6 -2 3 1447.42 610.025 7
6 2 -3 1156.97 465.58 6
6 2 -3 1419.46 576.461 9
-6 -2 2 5417.76 827.835 8
-6 -2 2 5102.86 1141.21 7
6 2 -2 4465.08 835.22 6
-6 -2 2 6126.06 811.343 1
-6 -2 1 68.536 109.489 8
-6 -2 1 62.1202 256.005 7
-6 -2 1 311.198 247.476 1
6 2 -1 182.103 191.315 6
6 2 -1 270.496 311.888 9
-6 -2 0 22355.9 1771.71 8
-6 -2 0 21597.1 2317.89 7
6 2 0 24504 1898.8 6
6 2 0 24579.6 1043.96 10
-6 -2 0 23939.6 902.115 5
6 2 0 23603.5 2181.53 9
6 2 1 349.582 269.794 9
-6 -2 -1 63.9792 92.9025 8
-6 -2 -1 -94.6694 154.404 7
6 2 1 353.4 201.069 6
6 2 1 405.717 130.216 10
6 2 2 415.356 283.107 9
-6 -2 -2 1436.3 545.834 7
-6 -2 -2 849.801 318.626 11
6 2 2 899.196 358.265 6
-6 -2 -3 89622.8 4762.38 7
-6 -2 -3 82579.9 3573.34 11
6 2 3 96738.5 4367.62 9
-6 -2 -4 38339 2852.24 7
-6 -2 -4 40690.4 1760.85 12
-6 -2 -4 39578.6 2025.52 11
6 2 4 35933 2400.52 9
6 2 5 15586.2 1663.61 1
-6 -2 -5 13668.3 1554.84 7
-6 -2 -5 16434.3 1067.49 12
-6 -2 -5 16145.2 1832.23 3
6 2 5 12859.8 1338.82 9
6 2 6 419.349 251.054 9
6 2 6 397.439 249.997 1
-6 -2 -6 -89.0744 90.2673 7
-6 -2 -6 295.792 161.496 12
-6 -2 -6 123.885 189.182 3
6 2 7 141.082 146.518 9
-6 -2 -7 117.162 147.264 7
-6 -2 -7 147.183 134.604 12
6 2 7 264.333 306.71 1
-6 -2 -7 216.081 277.858 3
6 2 8 19004.9 2014.86 1
-6 -2 -8 21039.4 1569.43 4
-6 -2 -8 20441.2 1497.81 12
-6 -2 -9 344.834 210.894 4
6 2 9 275.133 321.904 1
6 2 9 165.547 151.661 2
-6 -2 -9 -230.441 172.386 12
-6 -2 -10 5477.25 854.802 12
-6 -3 6 293.524 387.077 7
6 3 -6 47.1353 113.449 6
-6 -3 5 6788.01 967.637 8
-6 -3 5 5451.82 1285.3 7
6 3 -5 6220.74 1060.79 6
6 3 -5 4121.73 1072.42 9
-6 -3 4 207.427 185.23 7
6 3 -4 163.375 143.241 6
6 3 -4 670.054 374.639 9
-6 -3 3 -43.7602 93.3897 8
-6 -3 3 148.545 159.737 7
6 3 -3 89.1418 171.279 6
6 3 -3 102.957 219.459 9
-6 -3 2 1636.96 466.912 8
-6 -3 2 2854.63 868.661 7
6 3 -2 1147.08 389.132 6
-6 -3 2 1219.48 258.863 5
6 3 -2 1943.99 681.238 9
6 3 -1 178.413 250.075 9
-6 -3 1 56.3211 108.688 8
-6 -3 1 30.8277 183.504 7
6 3 -1 209.308 195.289 6
-6 -3 1 393.309 130.739 5
-6 -3 0 26482.5 1932.59 8
-6 -3 0 23465.7 2349.86 7
6 3 0 23830.8 1789.19 6
6 3 0 24399.6 859.404 10
-6 -3 0 24184.6 1057.55 5
6 3 0 23315.5 847.878 10
6 3 0 25805.8 2288.02 9
-6 -3 -1 26374.4 1955.32 8
-6 -3 -1 20862.3 2226.45 7
6 3 1 26540.1 1865.08 6
-6 -3 -1 24875.2 1763.81 11
6 3 1 26329.8 1145.33 10
6 3 1 28564.3 2314.67 9
-6 -3 -2 19604.2 1706.68 8
-6 -3 -2 18648.6 2032.18 7
-6 -3 -2 19961.4 1443.1 11
-6 -3 -2 22005.7 807.979 5
6 3 2 22981.5 1984.14 9
-6 -3 -3 7201.57 1226.36 7
-6 -3 -3 7896.47 791.526 11
-6 -3 -3 8364.7 444.338 5
-6 -3 -4 7829.88 1245.57 7
-6 -3 -4 9279.01 743.382 11
-6 -3 -4 10234.6 555.358 5
6 3 4 10103.9 1215.5 9
6 3 5 134.186 257.792 9
-6 -3 -5 230.724 136.294 12
6 3 6 1922.88 602.605 1
6 3 6 2276.85 569.313 9
-6 -3 -6 2152.4 559.515 7
6 3 6 3177.07 586.74 2
-6 -3 -6 2915.15 475.66 12
-6 -3 -6 2723.26 344.116 5
6 3 7 452.242 339.646 1
-6 -3 -7 497.562 257.245 7
6 3 7 215.771 139.749 2
-6 -3 -7 882.972 278.373 12
-6 -3 -7 714.351 203.639 5
-6 -3 -7 484.189 236.245 3
6 3 8 14257 1729.34 1
-6 -3 -8 12099.5 1093.02 4
-6 -3 -8 13360.8 1205.97 12
6 3 8 13634.4 1335.29 2
6 3 9 151.434 258.694 1
6 3 9 441.867 257.434 2
-6 -3 -9 329.299 248.522 12
-6 -3 -10 2069.56 564.624 12
-6 -4 6 1068.13 415.792 8
6 4 -6 2196.9 643.896 6
-6 -4 5 3354.32 728.503 8
-6 -4 5 3763.75 1092.01 7
6 4 -5 4326.69 832.726 6
6 4 -5 3911.7 1054 9
-6 -4 4 6494.99 968.641 8
-6 -4 4 6298.34 1384.63 7
6 4 -4 4907.25 866.342 6
6 4 -4 5694.48 1221.81 9
-6 -4 3 14396.6 1451.4 8
-6 -4 3 14308.7 1957.19 7
6 4 -3 12488 1335.43 6
6 4 -3 13969.4 1865.52 9
-6 -4 2 27082.7 1395.79 2
-6 -4 2 23066.6 1862.69 8
-6 -4 2 22684.1 2429.01 7
6 4 -2 21102.7 1713.32 6
6 4 -2 27048.6 2527.18 9
6 4 -1 147.871 154.102 9
-6 -4 1 -297.72 210.424 8
-6 -4 1 -92.5924 167.093 7
-6 -4 1 75.9228 84.6546 2
6 4 -1 -20.8073 118.635 6
-6 -4 0 25626.5 1971.14 8
-6 -4 0 24957.2 2428.19 7
6 4 0 27160.9 1836.47 6
6 4 0 30530.3 2499.85 9
6 4 1 6496.97 1088.11 9
-6 -4 -1 5737.42 909.133 8
-6 -4 -1 6772.52 1192.08 7
-6 -4 -1 5647.45 746.268 11
6 4 1 4862.01 732.106 6
6 4 1 5889.21 476.73 10
-6 -4 -2 22255.4 1825.51 8
-6 -4 -2 19987.8 2052.5 7
-6 -4 -2 17886.7 1264.79 11
-6 -4 -2 21852.4 959.945 5
6 4 2 19716.1 1874.33 9
-6 -4 -3 89576.6 4208.34 8
-6 -4 -3 85031.2 4596.96 7
-6 -4 -3 82665.4 3097.57 11
-6 -4 -3 95821.4 2860.71 5
6 4 3 97572.4 4499.25 9
6 4 4 2631.23 631.917 9
-6 -4 -4 3123.57 764.769 7
6 4 4 2712.97 508.431 2
-6 -4 -4 2497.68 282.229 11
-6 -4 -4 2933.73 345.359 5
-6 -4 -5 5305.58 943.713 7
6 4 5 5367.83 739.199 2
-6 -4 -5 5751.04 663.49 12
-6 -4 -5 5934.11 539.393 5
-6 -4 -6 33906 2377.22 7
-6 -4 -6 35566.1 1905.35 12
-6 -4 -6 35046 1629.53 5
6 4 6 32722.8 2031.18 2
-6 -4 -7 1065.14 266.735 4
-6 -4 -7 533.072 242.384 7
6 4 7 963.725 318.71 2
-6 -4 -7 1317.92 358.152 12
-6 -4 -7 851.7 242.639 5
-6 -4 -8 11571.9 1145.12 12
-6 -4 -8 12977 1042.95 5
6 4 8 11181.1 1199.49 2
-6 -4 -9 1318.61 405.057 12
-6 -5 6 2698.17 660.629 8
-6 -5 5 15610.3 1657.93 8
6 5 -5 18660.1 1692.52 6
6 5 -5 19392.5 2367.45 9
-6 -5 4 3222.49 726.506 8
6 5 -4 1973.96 529.897 6
6 5 -4 3063.49 930.568 9
6 5 -3 1089.58 513.984 9
-6 -5 3 334.599 250.032 8
6 5 -3 715.765 296.325 6
-6 -5 2 20771.6 1797.2 8
6 5 -2 18308 1488.86 6
6 5 -2 23971.3 2384.3 9
6 5 -1 5905.64 1129.63 9
-6 -5 1 8864.81 1137.51 8
-6 -5 1 8932.6 782.6 2
6 5 -1 8133.94 926.499 6
6 5 0 1211.89 522.917 9
-6 -5 0 582.211 330.273 8
-6 -5 0 450.826 183.371 2
6 5 0 962.714 328.888 6
-6 -5 -1 16115.9 1309.72 4
-6 -5 -1 17053.2 1592.85 8
6 5 1 15682.6 1282.02 6
-6 -5 -1 14797.9 1162.93 11
6 5 1 13778.7 812.934 10
6 5 1 11657.5 1501.36 9
6 5 2 -38.804 173.369 9
-6 -5 -2 58.2683 138.143 8
-6 -5 -2 78.9025 63.4664 4
6 5 2 36.5335 60.5625 2
-6 -5 -2 170.662 119.034 11
6 5 2 342.99 144.736 10
-6 -5 -3 35067.2 2416.48 8
-6 -5 -3 31736.7 2572.48 7
-6 -5 -3 32565.5 1464.75 11
6 5 3 33962.4 1780.95 10
-6 -5 -3 36563 1536.63 5
6 5 3 32906.6 1876.33 2
6 5 3 38905.6 2680.16 9
-6 -5 -4 3896.37 787.735 8
-6 -5 -4 4578.86 923.155 7
6 5 4 3846.93 601.593 2
6 5 4 5324.54 686.755 10
-6 -5 -4 5221.97 527.74 5
-6 -5 -5 3843.9 805.531 7
6 5 5 3989.75 623.255 2
-6 -5 -5 3840.24 570.829 12
-6 -5 -5 3921.03 493.364 5
6 5 6 11963.6 1137.38 2
-6 -5 -6 11166.4 1310.61 7
-6 -5 -6 10337.7 1007.56 12
-6 -5 -6 11136.9 902.032 5
6 5 7 6112.23 845.369 2
-6 -5 -7 6936.97 846.003 12
-6 -5 -7 7384.59 780.521 5
-6 -5 -8 18243.1 1514.01 12
-6 -5 -8 17595.5 1328.48 5
-6 -5 -9 2632.46 588.651 12
-6 -5 -9 2713.24 521.904 5
-6 -6 6 1144.62 472.189 8
-6 -6 5 9339.23 1305.34 8
6 6 -5 12761.9 1919.89 9
-6 -6 4 24860.3 2131.88 8
6 6 -4 23436.5 2580.25 9
6 6 -3 1757.83 637.695 9
-6 -6 3 2267.65 616.127 8
6 6 -3 1868.15 440.622 6
6 6 -3 1235.15 490.251 11
6 6 -2 2016.35 723.197 9
-6 -6 2 1993.69 558.489 8
6 6 -2 1697.81 404.215 6
6 6 -2 1208.68 493.629 11
6 6 -1 3114.85 816.702 9
-6 -6 1 1513.5 482.347 8
6 6 -1 2577.23 654.167 11
6 6 -1 1554.26 380.989 6
-6 -6 0 21268.9 1838.21 8
-6 -6 0 18359.1 1277.84 2
6 6 0 16487.1 1265.66 6
6 6 0 18039.9 828.423 10
6 6 0 18612.9 2009.45 9
6 6 1 632.045 359.648 9
-6 -6 -1 636.477 335.884 8
-6 -6 -1 327.997 183.488 4
6 6 1 1007.84 272.201 2
-6 -6 -1 288.434 124.553 11
6 6 1 923.691 291.132 6
6 6 1 667.257 188.558 10
6 6 2 7655.1 1191.08 9
-6 -6 -2 6376.16 701.709 4
-6 -6 -2 8013.09 1096.83 8
6 6 2 5395.98 611.137 10
6 6 2 6237.01 714.713 2
-6 -6 -3 6219.02 999.812 8
6 6 3 4626.03 638.445 2
6 6 3 5235.54 665.016 10
-6 -6 -3 4296.32 507.252 5
6 6 4 22733.1 1539.36 2
-6 -6 -4 24655.1 2048.26 8
-6 -6 -4 22829.6 2095.98 7
6 6 4 25558.7 1666.52 10
-6 -6 -4 26190.5 1411.49 5
-6 -6 -5 2838.42 663.953 8
-6 -6 -5 3281.56 751.598 7
6 6 5 3894.85 623.549 2
-6 -6 -5 2783.04 519.005 12
6 6 5 3200.78 595.611 10
-6 -6 -5 2885.58 454.975 5
6 6 6 10956.4 1115.38 2
-6 -6 -6 10093.8 1246.53 7
-6 -6 -6 10464.7 1042.48 12
6 6 6 9487.01 1106.44 10
-6 -6 -6 9295.12 897.235 5
6 6 7 -13.9302 143.993 2
-6 -6 -7 -38.1832 116.422 12
6 6 7 96.6182 97.1398 10
-6 -6 -7 -74.905 119.962 5
-6 -6 -8 16960.7 1512.15 12
6 6 8 19560.5 1796.67 10
-6 -6 -8 19061.2 1446.32 5
-6 -6 -9 967.815 351.526 5
-6 -7 5 14993.9 1739.04 8
-6 -7 4 26358.8 2263.11 8
6 7 -4 22341.5 2297.33 11
6 7 -4 22941.8 2599.64 9
6 7 -3 5257.92 1176.11 9
-6 -7 3 3881.8 825.947 8
6 7 -3 3956.28 880.74 11
6 7 -2 9192.4 1513.1 9
-6 -7 2 10637.3 1347.88 8
6 7 -2 7390.29 1195.35 11
6 7 -1 781.768 478.343 9
-6 -7 1 1156.77 467.356 8
6 7 -1 545.062 218.329 6
6 7 -1 715.802 354.161 11
-6 -7 0 13335.2 1502.3 8
6 7 0 14103.2 1075.65 6
6 7 0 15458.5 1504.04 11
6 7 0 13699.8 1766.34 9
6 7 1 6051.72 1134.58 9
-6 -7 -1 6699.59 1033.68 8
6 7 1 5929.53 691.933 6
6 7 1 6170.62 871.835 11
6 7 1 5794.17 583.982 10
6 7 1 6434.03 708.266 2
-6 -7 -2 124.36 192.771 8
6 7 2 75.128 106.628 2
6 7 2 43.0526 142.934 11
6 7 2 146.051 117.524 10
6 7 3 37153.5 1983.94 2
-6 -7 -3 32889.2 2462.3 8
6 7 3 39200.5 2074.33 10
-6 -7 -3 37556.8 1840.53 5
-6 -7 -4 557.458 316.86 8
6 7 4 1076.86 341.304 2
6 7 4 1154.62 348.837 10
-6 -7 -4 590.879 223.498 5
-6 -7 -5 3047.51 722.639 8
-6 -7 -5 2438.23 648.467 7
6 7 5 1842.34 451.608 2
-6 -7 -5 1795.17 426.121 12
6 7 5 1749.36 466.556 10
-6 -7 -5 2532.33 451.457 5
-6 -7 -6 23362 2091.55 8
6 7 6 24247.8 1757.09 2
-6 -7 -6 26317.1 1794.53 12
6 7 6 23948 1895.95 10
-6 -7 -6 27508.3 1693.54 5
6 7 7 594.673 302.151 2
-6 -7 -7 433.08 244.228 12
6 7 7 645.069 334.735 10
-6 -7 -7 1096.53 347.569 5
-6 -7 -8 8039.37 966.016 5
-6 -7 -9 -7.83272 186.972 5
6 8 -4 466.543 320.249 9
6 8 -4 1476.03 553.023 11
6 8 -3 -14.2706 135.643 9
-6 -8 3 197.137 337.899 8
6 8 -3 -25.24 161.929 11
-6 -8 2 15292.5 1723.92 8
6 8 -2 15257.5 1713.45 11
6 8 -2 15939.5 2057.87 9
-6 -8 1 22276.7 2053.06 8
6 8 -1 19616.4 1845.59 11
6 8 -1 20253.3 2262.44 9
6 8 0 172.197 226.906 9
-6 -8 0 134.495 204.49 8
6 8 0 107.106 107.736 2
6 8 0 219.177 261.286 11
6 8 1 41685.7 2051.83 2
-6 -8 -1 44302.7 2930.47 8
6 8 1 42298.7 2519.42 11
6 8 1 44907.3 2067.56 10
6 8 1 44940.4 3321.91 9
6 8 2 5922.89 699.411 2
-6 -8 -2 5940.07 1006.58 8
6 8 2 5293.26 762.522 11
6 8 2 6171.21 736.75 10
6 8 3 17458.1 1292.37 2
-6 -8 -3 15394.7 1647.63 8
6 8 3 16223.1 1331.23 10
-6 -8 -3 16370.7 1212.04 5
-6 -8 -4 466.418 319.784 8
6 8 4 820.211 286.486 2
6 8 4 948.9 351.255 10
-6 -8 -4 523.75 215.246 5
-6 -8 -5 2477.52 666.323 8
6 8 5 2272.18 496.26 2
-6 -8 -5 1370.57 401.125 12
6 8 5 2320.98 567.087 10
-6 -8 -5 2014.38 435.673 5
-6 -8 -6 6482.18 1089.48 8
6 8 6 7018.19 931.206 2
-6 -8 -6 7487.84 964.346 12
6 8 6 6895.94 1018.43 10
-6 -8 -6 7207.11 891.949 5
6 8 7 6130.97 1000.23 10
-6 -8 -7 5341.91 796.832 5
-6 -8 -8 1918.95 523.076 5
6 9 -3 812.136 422.725 11
6 9 -2 4534.29 1099.76 9
6 9 -2 2872.63 736.922 11
6 9 -1 3458.47 952.243 9
-6 -9 1 3341.7 815.779 8
6 9 -1 3980.6 815.857 11
-6 -9 0 17991.9 1891.87 8
6 9 0 23377.2 1917.68 11
6 9 0 22455.5 2386.55 9
-6 -9 -1 2250.96 652.647 8
6 9 1 2536.35 453.561 2
6 9 1 2746.2 595.799 11
-6 -9 -2 2017.79 601.026 8
6 9 2 2169.77 425.305 2
6 9 2 1796.41 418.411 10
-6 -9 -3 20569.1 1973.08 8
6 9 3 21663.9 1512.07 2
6 9 3 20031.5 1580.79 10
-6 -9 -3 23715.4 1579.5 5
-6 -9 -4 2506.78 674.856 8
6 9 4 2371.87 512.84 2
6 9 4 2140.62 529.505 10
-6 -9 -4 2152.69 464.41 5
-6 -9 -5 -116.756 244.966 8
6 9 5 131.948 110.69 2
6 9 5 260.436 216.585 10
-6 -9 -5 -146.453 174.363 5
-6 -9 -6 6939.55 1128.86 8
6 9 6 5936.23 970.448 10
-6 -9 -6 7078.31 924.582 5
6 10 -2 820.898 398.429 11
6 10 -1 7825.32 1180.93 11
6 10 0 165.044 218.038 11
-6 -10 -2 161.455 247.834 8
6 10 2 230.36 164.54 2
-6 -10 -3 1806.84 454.469 5
-6 -10 -3 751.277 420.723 8
6 10 3 1872.05 428.988 2
6 10 3 981.018 360.869 10
-6 -10 -4 3472.86 834.013 8
6 10 4 2921.54 574.083 2
6 10 4 3311.21 696.181 10
-6 -10 -4 3605.17 647.048 5
-6 -10 -5 311.367 269.532 8
6 10 5 686.131 377.405 10
-6 -10 -6 8964.16 1327.42 8
6 11 3 8709.55 1015.05 2
7 -3 4 2771.34 763.268 1
7 -3 5 910.67 444.38 1
7 -2 3 242.51 264.961 1
-7 2 -3 -287.405 258.444 3
7 -2 4 5969.35 1035.37 1
-7 2 -4 6270.47 1315.76 3
7 -2 5 5413.96 1030.66 1
-7 2 -5 5209.81 1179.05 3
-7 2 -6 3795.4 958.007 3
7 -1 -1 6843.72 1297.8 9
7 -1 0 4199.46 976.282 9
-7 1 -1 6094.3 1289.92 7
7 -1 1 5134.09 1037.06 6
-7 1 -1 4889.41 1255.01 3
7 -1 1 5703.04 1097.06 9
-7 1 -2 10646.6 1656.63 7
7 -1 2 10015.8 1435.06 6
-7 1 -2 9234.79 1679.5 3
7 -1 2 8849.83 1352.85 9
-7 1 -3 500.82 337.131 7
7 -1 3 1727.36 528.962 1
7 -1 3 2615.58 727.746 6
-7 1 -3 2221.02 849.969 3
7 -1 3 1796.33 556.488 9
7 -1 4 7224.57 1146.12 1
-7 1 -4 6481.56 1227.47 7
7 -1 4 8543.87 1289.79 6
-7 1 -4 7727.6 1420.69 3
7 -1 5 -13.9066 116.854 1
-7 1 -5 146.83 203.772 3
-7 1 -6 -29.7037 170.92 7
-7 1 -6 347.679 272.357 3
-7 1 -7 10846.6 1457.91 7
-7 1 -8 1663.08 543.546 7
7 0 -2 5582.48 1224.32 9
-7 0 1 12019.2 1920.69 7
7 0 -1 13628.2 1725.42 6
-7 0 1 12417.2 2097.7 3
7 0 -1 16821 2112.5 9
-7 0 0 4492.14 1140.43 7
7 0 0 3456.99 833.555 6
-7 0 0 2358.41 908.916 3
7 0 0 3776.59 950.279 9
-7 0 -1 61.5088 169.821 7
7 0 1 83.0188 126.659 6
-7 0 -1 417.603 360.146 3
7 0 1 49.4513 171.226 9
-7 0 -2 11069.8 1730.44 7
7 0 2 10794 1447.54 6
-7 0 -2 11872.9 1912.53 3
7 0 2 12494 1582.62 9
-7 0 -3 -159.318 161.297 7
7 0 3 124.6 151.391 6
-7 0 -3 338.444 343.566 3
7 0 3 530.511 298.193 9
-7 0 -4 4543.33 1016.36 7
7 0 4 5751.78 1030.19 6
-7 0 -4 3776.16 1015.4 3
7 0 4 4338.95 890.776 1
7 0 4 4304.43 847.103 9
-7 0 -5 495.33 326.507 7
-7 0 -5 71.1122 330.508 3
7 0 5 560.232 335.591 1
-7 0 -6 2080.35 632.125 7
7 0 6 1061.24 495.57 1
-7 0 -6 1242.43 537.162 3
-7 0 -7 22041.3 2057.7 7
-7 0 -8 1428.72 502.619 7
-7 -1 2 2761.22 892.648 7
7 1 -2 2664.77 733.933 6
-7 -1 2 2473.32 939.716 3
7 1 -2 4249.63 1063.75 9
-7 -1 1 10201.5 1791.79 7
7 1 -1 14184.2 1680.91 6
-7 -1 1 10383.4 1963.99 3
7 1 -1 14203.9 1872.46 9
-7 -1 0 380.087 337.736 7
7 1 0 217.864 278.138 9
-7 -1 -1 7883.65 1475.2 7
7 1 1 7487.43 1174.94 6
-7 -1 -1 9147.42 1721.7 3
7 1 1 9527.33 1419.81 9
-7 -1 -2 16992.1 2160.96 7
7 1 2 19567.4 1894.9 6
-7 -1 -2 18516.1 2415.23 3
7 1 2 19076.3 1980.59 9
-7 -1 -3 1639.19 617.679 7
7 1 3 1730.34 546.446 6
-7 -1 -3 1580.95 682.144 3
7 1 3 1433.23 538.583 9
7 1 4 256.317 280.611 9
-7 -1 -4 329.465 322.063 7
-7 -1 -4 -45.0293 217.346 3
7 1 5 7115.48 1069.04 9
7 1 5 6821.96 1177.58 1
-7 -1 -5 7320.5 1250.85 7
-7 -1 -5 6030.82 1253.64 3
-7 -1 -6 1680.05 557.718 7
-7 -1 -6 1974.6 661.675 3
7 1 7 16602.9 1907.84 1
-7 -1 -7 13811.3 1580.69 7
-7 -1 -9 5478.24 906.405 4
7 2 -4 -115.647 277.87 6
-7 -2 3 16430.6 1585.42 8
7 2 -3 18374.5 1963.71 6
-7 -2 2 -49.7193 77.0805 8
-7 -2 2 516.267 505.457 7
7 2 -2 167.353 253.954 6
-7 -2 2 -22.7244 198.113 3
7 2 -2 354.809 419.205 9
-7 -2 1 6210.44 988.931 8
-7 -2 1 6740.96 1431.58 7
7 2 -1 6906.02 1122.12 6
-7 -2 1 6548.87 1481.2 3
7 2 -1 4024.41 991.362 9
-7 -2 0 19090.7 2371.81 7
7 2 0 19812.5 1910.87 6
7 2 0 17674.7 2068.91 9
7 2 1 3097.96 814.337 9
7 2 1 3850.89 801.385 6
-7 -2 -2 14110.9 1921.02 7
7 2 2 12825.9 1468.63 6
7 2 2 11709.4 1585.38 9
-7 -2 -2 14162 2057.31 3
7 2 3 289.414 208.082 9
-7 -2 -3 774.442 493.468 7
7 2 3 504.001 355.875 6
-7 -2 -3 1249.03 600.364 3
7 2 4 4637.39 940.95 9
-7 -2 -4 5103.52 1103.13 7
-7 -2 -4 5823.91 589.439 12
-7 -2 -4 4613.99 1108.37 3
7 2 5 3093.28 712.468 9
-7 -2 -5 4208.39 914.994 7
-7 -2 -5 3478.64 481.276 12
-7 -2 -5 2712.68 849.497 3
7 2 6 1084.53 382.346 9
-7 -2 -6 815.223 369.139 7
-7 -2 -6 1151.22 325.752 12
7 2 6 671.283 343.763 1
-7 -2 -6 1494.76 642.686 3
7 2 7 13310.4 1706 1
-7 -2 -7 14598 1564.75 7
-7 -2 -7 12900.7 1091.98 12
-7 -3 4 32284.6 2339.56 8
7 3 -4 28473.1 2487.51 6
-7 -3 3 -44.0681 188.524 8
-7 -3 3 -150.126 310.989 7
7 3 -3 14.4755 113.646 6
7 3 -3 240.057 329.858 9
-7 -3 2 1382.01 473.292 8
-7 -3 2 745.071 473.195 7
7 3 -2 2066.83 593.246 6
7 3 -2 526.627 361.173 9
-7 -3 1 2106.02 575.068 8
-7 -3 1 2172.81 809.779 7
7 3 -1 1899.02 560.68 6
7 3 -1 1812.19 656.457 9
7 3 0 1295.51 519.327 9
-7 -3 0 796.239 343.15 8
-7 -3 0 100.213 297.607 7
7 3 0 432.127 253.972 6
7 3 1 3148.83 871.63 9
-7 -3 -1 2697.48 667.525 8
-7 -3 -1 2313.26 830.241 7
7 3 1 2622.89 637.147 6
-7 -3 -2 33966.3 3059.92 7
7 3 2 36407.4 2483.71 6
7 3 2 34998.4 2779.89 9
7 3 3 1404.76 540.628 9
-7 -3 -3 1485.8 583.188 7
7 3 4 1600.6 539.041 9
-7 -3 -4 3352.8 876.217 7
-7 -3 -5 21381.7 2201.99 7
-7 -3 -5 20122.9 1299.89 12
7 3 5 19342.4 1884.78 9
7 3 6 -106.091 173.982 9
-7 -3 -6 77.5222 58.6815 12
-7 -3 -6 173.23 202.748 3
7 3 7 5390.97 920.312 9
-7 -3 -7 6337.84 1009.34 7
-7 -3 -7 6671.63 783.492 12
-7 -3 -8 1030.49 346.665 12
-7 -3 -9 1187.39 388.926 12
7 4 -5 17202.2 1885.34 6
-7 -4 4 7020.14 1089.07 8
7 4 -4 10499.8 1388.14 6
-7 -4 3 12841.7 1467.03 8
-7 -4 3 16697.5 2322.69 7
7 4 -3 12698.1 1496.53 6
7 4 -3 15950.5 2142.7 9
7 4 -2 167.088 318.469 9
-7 -4 2 73.9645 187.921 8
-7 -4 2 67.925 411.641 7
7 4 -2 207.323 243.799 6
7 4 -1 3315.3 941.707 9
-7 -4 1 1805.9 550.803 8
-7 -4 1 2503.62 840.126 7
7 4 -1 2895.11 655.071 6
7 4 0 2983.95 844.456 9
-7 -4 0 3896.97 783.482 8
-7 -4 0 3515.61 1051.39 7
7 4 0 2425.05 589.951 6
-7 -4 -1 -95.1031 120.723 8
-7 -4 -1 -10.8756 179.366 7
7 4 1 338.88 242.569 6
-7 -4 -2 35657.3 2600.57 8
-7 -4 -2 34038.3 3064.43 7
7 4 2 39387.3 2504.89 6
7 4 2 39645.2 2971.57 9
7 4 3 4976.03 988.214 9
-7 -4 -3 3956.43 821.073 8
-7 -4 -3 4163.79 994.243 7
7 4 4 1649.86 556.269 9
-7 -4 -4 1456.52 569.774 7
7 4 5 6540.56 1084.11 9
-7 -4 -5 8671.23 1364.09 7
-7 -4 -5 7548.56 800.755 12
7 4 6 3194.05 743.123 9
-7 -4 -6 1913.07 619.744 7
-7 -4 -6 2382.87 456.376 12
-7 -4 -7 26695.4 1741.02 12
7 4 7 26920.8 1967.26 2
7 4 7 23298.5 2051.79 9
-7 -4 -8 117.114 141.124 12
-7 -4 -9 1555.99 451.414 12
-7 -5 5 3529.15 780.852 8
-7 -5 4 5724.01 1021.29 8
7 5 -4 4913.7 903.629 6
7 5 -3 80.3304 264.481 9
-7 -5 3 5.39665 125.738 8
-7 -5 3 354.413 373.649 7
7 5 -3 -37.5435 170.624 6
7 5 -2 -127.407 190.668 9
-7 -5 2 279.872 275.926 8
-7 -5 2 301.292 282.999 7
7 5 -2 469.812 245.768 6
-7 -5 1 22560 2010.71 8
-7 -5 1 19642.2 2432.26 7
7 5 -1 18036.2 1634.58 6
7 5 -1 21095.1 2373.47 9
7 5 0 4369.61 1026.6 9
-7 -5 0 4384.38 862.731 8
-7 -5 0 3823.26 1005.42 7
7 5 0 4760.93 793.391 6
7 5 1 207.905 344.903 9
-7 -5 -1 163.481 179.583 8
-7 -5 -1 330.857 408.744 7
7 5 1 -46.0571 107.581 6
7 5 2 12269.9 1611.86 9
-7 -5 -2 11753 1432.54 8
-7 -5 -2 10042.5 1622.17 7
7 5 2 11983.5 1274.26 6
7 5 3 7179.61 1184.87 9
-7 -5 -3 5981.39 1011.89 8
-7 -5 -3 4405.7 1018.23 7
7 5 3 5520.03 654.061 10
7 5 4 3143.57 794.164 9
-7 -5 -4 4064.97 849.555 8
-7 -5 -4 4271.03 979.922 7
7 5 4 3889.34 593.701 10
7 5 5 5866.41 1041.47 9
-7 -5 -5 5004.38 1045.1 7
7 5 5 4254.8 703.716 2
-7 -5 -5 5559.87 724.516 12
-7 -5 -6 -57.7667 170.589 7
-7 -5 -6 219.42 168.082 12
-7 -5 -7 9814.97 1046.77 12
7 5 7 11533.9 1246.18 2
-7 -5 -8 5562.27 824.292 12
-7 -6 4 4754.26 979.143 8
-7 -6 3 7337.55 1172.92 8
7 6 -2 7216.38 1448.63 9
-7 -6 2 4337.97 885.984 8
7 6 -2 4962.32 801.338 6
7 6 -1 219.687 224.408 9
-7 -6 1 989.359 436.754 8
7 6 -1 945.779 347.968 6
-7 -6 0 16074 1706.71 8
-7 -6 0 15527.6 2098.29 7
7 6 0 14787.7 1366.01 6
7 6 0 17639.7 2119.53 9
7 6 1 -51.9782 213.218 9
-7 -6 -1 409.04 295.208 8
-7 -6 -1 -42.1016 234.959 7
7 6 1 264.607 250.586 6
-7 -6 -2 15157.1 1661.33 8
-7 -6 -2 14435.3 1918.87 7
7 6 2 14185.9 1347.29 6
7 6 2 13067.5 1736.51 9
7 6 3 505.689 358.106 9
-7 -6 -3 436.447 242.009 8
7 6 3 484.695 246.118 2
-7 -6 -3 713.868 492.014 7
7 6 3 299.242 182.702 10
-7 -6 -3 116.269 75.1211 5
7 6 4 3722.63 859.298 9
-7 -6 -4 2868.6 736.926 8
7 6 4 3585.14 639.982 2
-7 -6 -4 3225.38 858.465 7
7 6 4 3485.34 580.461 10
-7 -6 -5 15924.7 1768.8 8
-7 -6 -5 16688.9 1914.44 7
-7 -6 -5 17107.4 1372.49 12
7 6 5 17606.4 1467.64 10
7 6 5 16284.5 1419.3 2
7 6 6 543.081 237.14 2
-7 -6 -6 940.73 323.27 12
7 6 6 1107.7 380.804 10
-7 -6 -7 6596.92 873.57 12
7 6 7 6225.94 956.424 10
7 6 8 874.037 372.457 10
-7 -7 2 4609.16 945.01 8
7 7 -1 5132.88 1185.48 9
-7 -7 1 5126.04 987.518 8
7 7 0 7788.1 1436.49 9
-7 -7 0 7929.07 1229.8 8
7 7 1 3859.56 952.51 9
-7 -7 -1 3640.09 815.417 8
7 7 1 4170.78 657.722 6
-7 -7 -2 12422.5 1536.87 8
7 7 2 11420.8 1089.34 2
7 7 2 13708.2 1802.79 9
-7 -7 -3 645.729 199.196 5
7 7 3 1259.09 603.853 9
-7 -7 -3 562.686 379.017 8
7 7 3 579.399 258.394 2
-7 -7 -3 1143.13 522.715 7
-7 -7 -4 1422.42 544.722 8
-7 -7 -4 1671.64 621.381 7
7 7 4 1483.66 409.567 2
7 7 4 2691.45 530.51 10
-7 -7 -4 2547.83 438.5 5
-7 -7 -5 11201.6 1497.98 8
-7 -7 -5 10475.8 1504.87 7
7 7 5 12456.1 1250.76 10
7 7 5 11053.3 1142.07 2
7 7 6 7130.96 935.889 2
-7 -7 -6 6825.2 907.345 12
7 7 6 5190.12 856.986 10
7 7 7 8090.52 1136.55 10
7 8 -3 70.8747 242.367 11
7 8 -2 589.754 367.186 11
7 8 -1 3390.14 800.742 11
7 8 0 6158.36 1311.27 9
-7 -8 0 8970.69 1322.89 8
7 8 0 7647.12 1139.52 11
7 8 1 1436.09 625.46 9
-7 -8 -1 1078.99 436.999 8
7 8 2 12487.9 1752.84 9
-7 -8 -2 11625.8 1522.61 8
7 8 2 10000.5 1003.23 2
-7 -8 -3 17174.3 1856.45 8
-7 -8 -3 17865 1257.32 5
7 8 3 20825.2 2246.71 9
7 8 3 15553 1304.79 2
-7 -8 -4 1192.49 526.399 8
-7 -8 -4 1204.21 545.07 7
7 8 4 1091.18 328.193 2
7 8 4 1069.71 368.449 10
-7 -8 -4 1179.09 316.187 5
7 8 5 10254.2 1106.84 2
-7 -8 -5 9353.23 1381.6 8
7 8 5 10484.8 1185.26 10
-7 -8 -5 9406.68 954.146 5
7 8 6 -6.1365 176.668 10
7 8 7 1937.95 565.905 10
7 9 -2 1049.44 513.415 11
7 9 -1 295.292 271.752 11
7 9 2 9440.71 967.836 2
7 9 3 7216.49 862.775 2
-7 -9 -3 5810.21 745.598 5
7 9 4 10.2306 110.436 2
-7 -9 -4 32.0166 101.461 5
7 9 5 4123.94 766.239 10
-7 -9 -5 4362.12 681.769 5
7 9 6 1518.12 500.156 10
-7 -9 -6 1114.22 374.045 5
-7 -10 -3 4872.99 728.894 5
7 10 3 5280.98 749.871 2
-7 -10 -4 737.015 289.339 5
8 0 1 22516.2 2426.57 9
8 0 2 -64.0061 281.52 9
-8 0 -5 2608.87 912.075 3
-8 0 -6 2742.23 887.159 3
8 1 0 7797.28 1496.49 9
8 1 1 4094.74 1027.56 9
8 1 2 875.128 471.417 9
-8 -1 -3 525.992 482.09 3
8 1 3 -182.359 280.15 9
-8 -1 -4 1246.82 544.545 7
-8 -1 -4 1517.64 710.799 3
-8 -1 -5 -388.597 320.036 7
-8 -1 -5 -225.267 286.481 3
-8 -1 -6 1921.3 671.519 7
-8 -1 -6 3107.44 921.394 3
-8 -1 -7 722.115 441.552 7
8 2 0 182.18 139.821 9
8 2 1 18485.8 2008.59 6
8 2 1 19675.6 2276.94 9
-8 -2 -2 1107.67 642.695 7
8 2 2 1392.05 526.288 6
-8 -2 -2 2965.69 1058.26 3
8 2 2 1684.56 648.526 9
8 2 3 279.063 143.276 9
-8 -2 -3 184.622 222.032 7
8 2 3 260.238 279.583 6
-8 -2 -3 344.214 468.675 3
8 2 4 8208.86 1354.66 9
-8 -2 -4 10690.6 1707.32 7
-8 -2 -4 9521.08 1772.71 3
-8 -2 -5 3754.01 958.045 7
-8 -2 -5 4759.33 1208.23 3
-8 -2 -6 15860.5 1940.38 7
-8 -2 -6 21980.9 2550.26 3
-8 -2 -7 -29.486 176.668 7
-8 -3 2 4221.49 886.406 8
-8 -3 1 1635.71 572.285 8
8 3 -1 807.011 456.327 6
8 3 0 377.896 331.147 6
8 3 0 738.134 552.42 9
-8 -3 -1 15230.1 2298.35 7
8 3 1 11288.1 1510.84 6
8 3 1 18167.8 2193.74 9
8 3 2 5113.21 1177.03 9
-8 -3 -2 6913.1 1486.8 7
8 3 2 7147.23 1169.85 6
8 3 3 646.606 378.759 9
-8 -3 -3 888.524 541.057 7
8 3 3 1656.6 572.734 6
8 3 4 -66.0584 166.652 9
-8 -3 -4 -86.1538 296.039 7
-8 -3 -4 57.3617 168.713 3
-8 -3 -5 12904.6 1847.71 7
-8 -3 -5 14199.9 2140.64 3
8 3 5 14268.7 1745.99 9
-8 -3 -6 6134.95 1199.15 7
-8 -3 -6 5445.4 1281.12 3
-8 -4 3 1396.99 529.725 8
8 4 -3 770.494 418.207 6
-8 -4 2 5306.94 1005.31 8
8 4 -2 4882.07 960.217 6
-8 -4 1 2749.75 707.326 8
8 4 -1 2539.91 670.616 6
8 4 0 287.901 229.312 9
-8 -4 0 980.291 471.547 8
8 4 0 599.366 356.209 6
8 4 1 4934.8 1174.5 9
-8 -4 -1 8041.9 1242.01 8
-8 -4 -1 7283.5 1514.44 7
8 4 1 4695.1 934.988 6
-8 -4 -2 174.107 231.046 7
8 4 2 -40.1404 120.881 6
8 4 3 224.464 198.154 9
-8 -4 -3 356.101 372.95 7
8 4 3 46.3762 126.561 6
-8 -4 -4 22059.1 2525.49 7
8 4 4 22673.7 2308.72 9
8 4 5 1980.57 637.894 9
-8 -4 -5 683.534 382.111 7
-8 -4 -5 2277.24 441.056 12
-8 -4 -6 14368.2 1869.33 7
-8 -4 -6 17327.3 1322.36 12
8 4 6 15952 1829.77 9
-8 -5 2 307.611 269.133 8
8 5 -2 365.001 300.762 6
-8 -5 1 2979.07 757.784 8
8 5 -1 2025.73 594.473 6
8 5 0 370.096 326.26 9
-8 -5 0 1433.3 540.603 8
8 5 0 808.206 371.678 6
8 5 1 1257.42 546.462 9
-8 -5 -1 1318.2 484.35 8
-8 -5 -1 1922.93 855.773 7
8 5 1 1082.68 416.76 6
8 5 2 2680.05 811.134 9
-8 -5 -2 3085.26 772.223 8
-8 -5 -2 3170.05 975.247 7
8 5 2 2099.83 606.645 6
8 5 3 -144.914 131.789 9
-8 -5 -3 817.476 456.807 8
-8 -5 -3 473.626 395.328 7
8 5 3 545.419 352.26 6
8 5 4 11042.8 1590 9
-8 -5 -4 10117.7 1705.58 7
-8 -5 -5 1656.04 662.377 7
-8 -5 -5 2490.42 487.335 12
8 5 6 4067.27 930.498 9
-8 -5 -6 3416.56 907.833 7
-8 -5 -6 3536.13 605.931 12
8 5 7 394.502 426.555 9
-8 -5 -7 106.012 112.417 12
8 6 0 350.087 248.029 6
-8 -6 -1 28129.1 3027.01 7
8 6 1 23437.4 1979.99 6
8 6 1 27970.9 2837.24 9
8 6 2 619.17 500.38 9
-8 -6 -2 58.1314 197.706 7
8 6 2 344.757 232.358 6
8 6 3 587.519 356.881 9
-8 -6 -3 283.887 458.183 7
8 6 3 217.769 239.874 6
8 6 4 2356.6 750.958 9
-8 -6 -4 4041.42 1080.13 7
8 6 5 4717.16 1044.75 9
-8 -6 -5 3681.51 1006.67 7
-8 -6 -5 4833.48 724.762 12
8 6 6 2746.7 771.5 9
-8 -6 -6 1804.99 460.941 12
8 6 7 5844.41 1134.12 9
8 6 7 5794.68 937.332 10
-8 -7 -2 13896.5 2060.22 7
8 7 2 14588.7 1463.52 6
-8 -7 -3 -113.349 224.057 7
-8 -7 -4 4546.62 1128.37 7
-8 -7 -5 3767.84 1005.41 7
-8 -8 -2 10206.3 1783.66 7
-8 -8 -3 1585.95 708.497 7
8 8 4 1215.78 388.678 2
-8 -8 -4 1771.67 692.806 7
8 9 3 110.002 186.179 2
-8 -9 -3 -221.448 271.858 7
9 3 3 7327.73 1417.37 9
9 4 4 916.3 541.867 9
9 6 2 237.385 249.784 6
