#------------------------------------------------------------------------------
#$Date: 2022-09-16 12:23:47 +0300 (Fri, 16 Sep 2022) $
#$Revision: 277918 $
#$URL: file:///home/coder/svn-repositories/cod/cif/8/10/57/8105783.cif $
#------------------------------------------------------------------------------
#
# This file is available in the Crystallography Open Database (COD),
# http://www.crystallography.net/
#
# All data on this site have been placed in the public domain by the
# contributors.
#
data_8105783
loop_
_publ_author_name
'Liu, Jin-Qiang'
'Ji, Li'
'Wang, Weizhou'
_publ_section_title
;
 Crystal structure of 2-isopropylthioxanthone, C16H14OS
;
_journal_issue                   3
_journal_name_full
'Zeitschrift f\"ur Kristallographie - New Crystal Structures'
_journal_page_first              573
_journal_page_last               574
_journal_paper_doi               10.1515/ncrs-2018-0576
_journal_volume                  234
_journal_year                    2019
_chemical_formula_moiety         'C16 H14 O S'
_chemical_formula_sum            'C16 H14 O S'
_chemical_formula_weight         254.33
_space_group_crystal_system      monoclinic
_space_group_IT_number           4
_space_group_name_Hall           'P 2yb'
_space_group_name_H-M_alt        'P 1 21 1'
_atom_sites_solution_hydrogens   geom
_atom_sites_solution_primary     dual
_cell_angle_alpha                90
_cell_angle_beta                 90.520(4)
_cell_angle_gamma                90
_cell_formula_units_Z            2
_cell_length_a                   8.1588(5)
_cell_length_b                   7.8670(4)
_cell_length_c                   10.2161(5)
_cell_measurement_reflns_used    2416
_cell_measurement_temperature    290
_cell_measurement_theta_max      27.0080
_cell_measurement_theta_min      4.6710
_cell_volume                     655.70(6)
_computing_cell_refinement       'CrysAlisPro 1.171.39.46 (Rigaku OD, 2018)'
_computing_data_collection       'CrysAlisPro 1.171.39.46 (Rigaku OD, 2018)'
_computing_data_reduction        'CrysAlisPro 1.171.39.46 (Rigaku OD, 2018)'
_computing_molecular_graphics    'Olex2 (Dolomanov et al., 2009)'
_computing_publication_material  'Olex2 (Dolomanov et al., 2009)'
_computing_structure_refinement  'ShelXL (Sheldrick, 2015)'
_computing_structure_solution    'ShelXT (Sheldrick, 2015)'
_diffrn_ambient_temperature      290
_diffrn_detector                 'CCD plate'
_diffrn_detector_area_resol_mean 8.0584
_diffrn_detector_type            EosS2
_diffrn_measured_fraction_theta_full 0.996
_diffrn_measured_fraction_theta_max 0.876
_diffrn_measurement_details
;
List of Runs (angles in degrees, time in seconds):

  # Type    Start    End  Width  t~exp~   \w     \q     \k     \f   Frames
--------------------------------------------------------------------------
  1  \w    -81.00  11.00   1.00    3.00    --  -15.84 -77.00-150.00   92
  2  \w    -43.00  50.00   1.00    3.00    --  -15.84  77.00 -30.00   93
  3  \w      0.00  53.00   1.00    3.00    --   16.93  57.00 120.00   53
  4  \w     -1.00  24.00   1.00    3.00    --   16.93  38.00 120.00   25
  5  \w    -10.00  23.00   1.00    3.00    --   16.93  77.00 -90.00   33
  6  \w     54.00  80.00   1.00    3.00    --   16.93  77.00 -90.00   26
  7  \w     27.00  70.00   1.00    3.00    --   16.93  57.00 150.00   43
;
_diffrn_measurement_device       'four-circle diffractometer'
_diffrn_measurement_device_type  'SuperNova, Single source at offset/far, EosS2'
_diffrn_measurement_method       '\w scans'
_diffrn_orient_matrix_type
'CrysAlisPro convention (1999,Acta A55,543-557)'
_diffrn_orient_matrix_UB_11      0.0695256000
_diffrn_orient_matrix_UB_12      -0.0468347000
_diffrn_orient_matrix_UB_13      0.0214748000
_diffrn_orient_matrix_UB_21      -0.0351644000
_diffrn_orient_matrix_UB_22      -0.0754378000
_diffrn_orient_matrix_UB_23      -0.0258503000
_diffrn_orient_matrix_UB_31      0.0386855000
_diffrn_orient_matrix_UB_32      0.0155474000
_diffrn_orient_matrix_UB_33      -0.0607285000
_diffrn_radiation_monochromator  mirror
_diffrn_radiation_probe          x-ray
_diffrn_radiation_type           MoK\a
_diffrn_radiation_wavelength     0.71073
_diffrn_reflns_av_R_equivalents  0.0218
_diffrn_reflns_av_unetI/netI     0.0366
_diffrn_reflns_Laue_measured_fraction_full 0.996
_diffrn_reflns_Laue_measured_fraction_max 0.876
_diffrn_reflns_limit_h_max       10
_diffrn_reflns_limit_h_min       -10
_diffrn_reflns_limit_k_max       10
_diffrn_reflns_limit_k_min       -10
_diffrn_reflns_limit_l_max       14
_diffrn_reflns_limit_l_min       -10
_diffrn_reflns_number            5364
_diffrn_reflns_point_group_measured_fraction_full 0.979
_diffrn_reflns_point_group_measured_fraction_max 0.819
_diffrn_reflns_theta_full        25.242
_diffrn_reflns_theta_max         29.281
_diffrn_reflns_theta_min         3.598
_diffrn_source                   'micro-focus sealed X-ray tube'
_diffrn_source_type              'SuperNova (Mo) X-ray Source'
_exptl_absorpt_coefficient_mu    0.231
_exptl_absorpt_correction_T_max  1.00000
_exptl_absorpt_correction_T_min  0.86757
_exptl_absorpt_correction_type   multi-scan
_exptl_absorpt_process_details
;
CrysAlisPro 1.171.39.46 (Rigaku Oxford Diffraction, 2018)
Empirical absorption correction using spherical harmonics,
 implemented in SCALE3 ABSPACK scaling algorithm.
;
_exptl_crystal_colour            yellow
_exptl_crystal_colour_primary    yellow
_exptl_crystal_density_diffrn    1.288
_exptl_crystal_description       block
_exptl_crystal_F_000             268
_exptl_crystal_size_max          0.27
_exptl_crystal_size_mid          0.26
_exptl_crystal_size_min          0.25
_refine_diff_density_max         0.301
_refine_diff_density_min         -0.319
_refine_diff_density_rms         0.044
_refine_ls_abs_structure_details
;
 Flack x determined using 903 quotients [(I+)-(I-)]/[(I+)+(I-)]
 (Parsons, Flack and Wagner, Acta Cryst. B69 (2013) 249-259).
;
_refine_ls_abs_structure_Flack   0.04(5)
_refine_ls_extinction_coef       .
_refine_ls_extinction_method     none
_refine_ls_goodness_of_fit_ref   1.037
_refine_ls_hydrogen_treatment    constr
_refine_ls_matrix_type           full
_refine_ls_number_parameters     165
_refine_ls_number_reflns         2923
_refine_ls_number_restraints     1
_refine_ls_restrained_S_all      1.037
_refine_ls_R_factor_all          0.0617
_refine_ls_R_factor_gt           0.0539
_refine_ls_shift/su_max          0.000
_refine_ls_shift/su_mean         0.000
_refine_ls_structure_factor_coef Fsqd
_refine_ls_weighting_details
'w=1/[\s^2^(Fo^2^)+(0.0551P)^2^+0.1755P] where P=(Fo^2^+2Fc^2^)/3'
_refine_ls_weighting_scheme      calc
_refine_ls_wR_factor_gt          0.1245
_refine_ls_wR_factor_ref         0.1312
_reflns_Friedel_coverage         0.747
_reflns_Friedel_fraction_full    0.958
_reflns_Friedel_fraction_max     0.752
_reflns_number_gt                2582
_reflns_number_total             2923
_reflns_threshold_expression     'I > 2\s(I)'
_cod_data_source_file            suppl_ncrs-2018-0576_suppl.cif
_cod_data_source_block           ljq180522-1
_cod_database_code               8105783
_shelx_space_group_comment
;
The symmetry employed for this shelxl refinement is uniquely defined
by the following loop, which should always be used as a source of
symmetry information in preference to the above space-group names.
They are only intended as comments.
;
_shelx_estimated_absorpt_t_max   0.945
_shelx_estimated_absorpt_t_min   0.940
_reflns_odcompleteness_completeness 99.58
_reflns_odcompleteness_iscentric 1
_reflns_odcompleteness_theta     26.32
_olex2_refinement_description
;
1. Fixed Uiso
 At 1.2 times of:
  All C(H) groups
 At 1.5 times of:
  All C(H,H,H) groups
2.a Ternary CH refined with riding coordinates:
 C14(H14)
2.b Aromatic/amide H refined with riding coordinates:
 C1(H1), C2(H2), C4(H4), C8(H8), C9(H9), C10(H10), C11(H11)
2.c Idealised Me refined as rotating group:
 C15(H15A,H15B,H15C), C16(H16A,H16B,H16C)
;
_shelx_res_file
;
    ljq180522-1.res created by SHELXL-2014/7

TITL ljq180522-1_a.res in P2(1)
REM Old TITL ljq180522-1 in P2(1)/m
REM SHELXT solution in P2(1)
REM R1 0.136, Rweak 0.095, Alpha 0.002, Orientation as input
REM Flack x = 0.219 ( 0.038 ) from Parsons' quotients
REM Formula found by SHELXT: C15 N O Cl
CELL 0.71073 8.1588 7.867 10.2161 90 90.52 90
ZERR 2 0.0005 0.0004 0.0005 0 0.004 0
LATT -1
SYMM -X,0.5+Y,-Z
SFAC C H O S
UNIT 32 28 2 2

L.S. 9
PLAN  20
SIZE 0.27 0.26 0.25
TEMP 16.85
BOND $H
list 4
fmap 2 53
ACTA
REM <olex2.extras>

REM </olex2.extras>

WGHT    0.055100    0.175500
FVAR       1.10974
S1    4    0.501692    0.325758    0.507173    11.00000    0.05392    0.06593 =
         0.05247    0.01460    0.00083    0.01081
O1    3    0.182047    0.589549    0.219280    11.00000    0.06290    0.12186 =
         0.06136    0.01941   -0.00558    0.03187
C1    1    0.705678    0.346546    0.306769    11.00000    0.04717    0.06445 =
         0.06084    0.00433   -0.00048    0.00791
AFIX  43
H1    2    0.775854    0.286582    0.362178    11.00000   -1.20000
AFIX   0
C2    1    0.756084    0.392823    0.184708    11.00000    0.04536    0.09807 =
         0.06543   -0.01271    0.00511   -0.00277
AFIX  43
H2    2    0.862192    0.366492    0.159105    11.00000   -1.20000
AFIX   0
C3    1    0.654253    0.477293    0.098609    11.00000    0.05585    0.08788 =
         0.04818   -0.00754    0.00900   -0.02120
C4    1    0.498032    0.517606    0.139321    11.00000    0.05615    0.06324 =
         0.04320   -0.00064   -0.00590   -0.00879
AFIX  43
H4    2    0.428071    0.574663    0.081937    11.00000   -1.20000
AFIX   0
C5    1    0.441412    0.475228    0.264561    11.00000    0.04801    0.04466 =
         0.04261   -0.00325   -0.00085   -0.00373
C6    1    0.270813    0.519773    0.298952    11.00000    0.04650    0.05604 =
         0.05044    0.00192   -0.00607    0.00515
C7    1    0.209891    0.479451    0.431532    11.00000    0.04076    0.04066 =
         0.05269   -0.00291    0.00059   -0.00242
C8    1    0.049056    0.528948    0.461732    11.00000    0.04115    0.05872 =
         0.07457    0.00180   -0.00056   -0.00025
AFIX  43
H8    2   -0.015036    0.582896    0.398487    11.00000   -1.20000
AFIX   0
C9    1   -0.014529    0.498599    0.583466    11.00000    0.05020    0.07458 =
         0.09638   -0.00558    0.02493   -0.00470
AFIX  43
H9    2   -0.120920    0.532716    0.602138    11.00000   -1.20000
AFIX   0
C10   1    0.079024    0.417247    0.678962    11.00000    0.06638    0.07779 =
         0.06857    0.00096    0.02385   -0.01130
AFIX  43
H10   2    0.035636    0.398195    0.761539    11.00000   -1.20000
AFIX   0
C11   1    0.235114    0.365119    0.651494    11.00000    0.06339    0.05862 =
         0.05262    0.00799    0.00716   -0.01045
AFIX  43
H11   2    0.296938    0.308797    0.714936    11.00000   -1.20000
AFIX   0
C12   1    0.301874    0.396573    0.527775    11.00000    0.04550    0.04240 =
         0.04775   -0.00291    0.00098   -0.00372
C13   1    0.547691    0.389822    0.348183    11.00000    0.04544    0.04689 =
         0.04527   -0.00375   -0.00019   -0.00160
C14   1    0.716699    0.518864   -0.037703    11.00000    0.08438    0.13278 =
         0.05227    0.00165    0.01427   -0.02785
AFIX  13
H14   2    0.787517    0.422055   -0.058311    11.00000   -1.20000
AFIX   0
C15   1    0.599520    0.518567   -0.141485    11.00000    0.11736    0.13115 =
         0.05245    0.00880    0.00167   -0.03629
AFIX 137
H15A  2    0.542934    0.411583   -0.142963    11.00000   -1.50000
H15B  2    0.654340    0.535163   -0.223248    11.00000   -1.50000
H15C  2    0.522132    0.608754   -0.128348    11.00000   -1.50000
AFIX   0
C16   1    0.833503    0.666519   -0.033144    11.00000    0.09288    0.11229 =
         0.08172    0.01568    0.00878   -0.03465
AFIX 137
H16A  2    0.776850    0.766070   -0.003445    11.00000   -1.50000
H16B  2    0.875994    0.686654   -0.119082    11.00000   -1.50000
H16C  2    0.922272    0.641147    0.026006    11.00000   -1.50000
AFIX   0
HKLF 4

REM  ljq180522-1_a.res in P2(1)
REM R1 =  0.0539 for    2582 Fo > 4sig(Fo)  and  0.0617 for all    2923 data
REM    165 parameters refined using      1 restraints

END

WGHT      0.0548      0.1755

REM Highest difference peak  0.301,  deepest hole -0.319,  1-sigma level  0.044
Q1    1   0.6748  0.6375 -0.0353  11.00000  0.05    0.30
Q2    1   0.6044  0.5685  0.1086  11.00000  0.05    0.24
Q3    1   0.5146  0.3754  0.4235  11.00000  0.05    0.15
Q4    1   0.6810  0.7644 -0.0440  11.00000  0.05    0.15
Q5    1   0.6889  0.4153 -0.1366  11.00000  0.05    0.14
Q6    1   0.7151  0.4785  0.1414  11.00000  0.05    0.14
Q7    1   0.5320  0.6930 -0.1150  11.00000  0.05    0.14
Q8    1   0.7197  0.1464  0.1876  11.00000  0.05    0.14
Q9    1   0.4446  0.5686  0.5990  11.00000  0.05    0.14
Q10   1   0.5268  0.2285  0.6929  11.00000  0.05    0.14
Q11   1   0.5161  0.1263  0.3729  11.00000  0.05    0.13
Q12   1   0.3069  0.2145  0.7211  11.00000  0.05    0.13
Q13   1   0.9962  0.3373  0.0759  11.00000  0.05    0.13
Q14   1   0.7273  0.1774  0.1249  11.00000  0.05    0.13
Q15   1   0.1773  0.6061  0.1454  11.00000  0.05    0.13
Q16   1   0.4272  0.6029  0.1366  11.00000  0.05    0.13
Q17   1   0.7064  0.3381 -0.0808  11.00000  0.05    0.12
Q18   1   0.6612  0.6968  0.0846  11.00000  0.05    0.12
Q19   1   0.2489  0.3258  0.2310  11.00000  0.05    0.12
Q20   1   0.3563  0.5216  0.0394  11.00000  0.05    0.12
;
_shelx_res_checksum              33647
_shelx_hkl_file
;
   0   0   2  337.40    6.72
   0   0  -2  340.16    6.82
   0   0  -2  331.16    7.17
   0   0   2  350.47    7.13
   0   0  -3  362.74    8.34
   0   0  -3  360.42    7.84
   0   0   3  368.05    7.76
   0   0   3  363.56    8.25
   0   0  -4  307.62    7.68
   0   0   4  325.98    8.09
   0   0   4  309.29    7.56
   0   0  -4  301.48    8.18
   0   0   5  666.36   14.05
   0   0  -5  660.38   14.28
   0   0  -5  650.70   14.86
   0   0   5  661.60   14.64
   0   0   6  461.98   11.24
   0   0  -6  457.58   12.29
   0   0   6  464.84   11.37
   0   0  -6  448.47   11.49
   0   0   6  472.38   12.00
   0   0   7   39.40    2.76
   0   0   7   40.93    2.84
   0   0  -7   45.50    3.12
   0   0   7   34.90    2.94
   0   0   8   28.40    2.78
   0   0   8   31.19    2.69
   0   0   9    4.63    1.32
   0   0   9    5.44    1.21
   0   0  10    1.40    0.62
   0   0  10    4.52    1.19
   0   0  10    3.70    1.20
   0   0  11   32.84    3.55
   0   0  11   37.13    3.96
   0   0  12    1.62    1.02
   0   0  12    1.10    0.94
   0   0  13   10.68    2.33
   0   0  13   10.86    2.53
   0  -1   2  173.21    3.58
   0  -1   2  172.95    4.05
   0   1   2  175.55    4.89
   0  -1  -2  168.24    4.90
   0   1  -2  168.38    3.65
   0  -1   2  157.11    4.83
   0  -1  -2  171.76    4.90
   0   1  -2  166.29    4.80
   0   1   3  472.63    8.39
   0   1  -3  468.93   10.72
   0  -1  -3  476.44   10.75
   0  -1   3  464.53    9.24
   0   1   3  487.70   10.88
   0   1  -3  473.27    9.42
   0  -1   3  461.98   10.62
   0  -1   3  467.17    9.74
   0   1   3  485.86    8.44
   0  -1  -3  454.51   10.88
   0  -1  -4  138.43    5.37
   0  -1  -4  144.54    5.29
   0  -1   4  142.42    5.19
   0   1   4  145.68    3.69
   0   1  -4  142.29    4.50
   0  -1   4  146.12    4.74
   0  -1   4  150.46    4.42
   0   1   4  147.90    3.70
   0   1   4  140.86    5.28
   0   1  -4  149.20    5.30
   0  -1  -5   43.63    3.11
   0  -1   5   39.21    2.52
   0  -1   5   38.32    2.30
   0   1  -5   37.81    2.41
   0   1   5   37.95    1.88
   0   1  -5   40.43    2.78
   0  -1  -5   38.08    2.74
   0   1   5   40.37    2.87
   0  -1   5   37.58    2.72
   0   1   5   36.35    1.89
   0  -1   6   96.31    4.53
   0  -1   6   94.39    4.68
   0   1  -6   90.38    3.78
   0   1  -6   92.69    4.30
   0   1   6   93.28    4.85
   0   1   6   88.16    3.42
   0  -1  -6   93.55    4.76
   0  -1   6   91.47    4.06
   0   1   6   91.32    3.46
   0   1   7   54.47    2.76
   0   1  -7   59.98    3.22
   0  -1   7   57.72    3.82
   0  -1   7   51.13    3.58
   0   1   7   60.05    4.07
   0   1   7   61.48    2.95
   0  -1   7   56.68    3.38
   0   1   8   66.74    4.58
   0  -1   8   76.06    4.61
   0   1   8   66.78    3.34
   0  -1   8   68.80    4.39
   0   1   8   72.64    3.56
   0   1  -8   71.51    3.86
   0  -1   8   69.94    4.09
   0  -1   9   71.54    4.81
   0  -1   9   63.14    4.17
   0   1   9   71.48    4.99
   0   1   9   62.22    3.56
   0  -1   9   63.70    4.45
   0  -1  10    8.92    1.78
   0   1  10    6.90    1.65
   0  -1  10    7.73    1.66
   0  -1  10    6.65    1.43
   0  -1  11    7.59    1.83
   0  -1  11    6.77    1.66
   0   1  11    7.66    1.82
   0  -1  11    7.49    1.61
   0   1  12   21.41    3.24
   0  -1  12   21.82    3.18
   0   1  12   23.34    3.47
   0  -1  13    6.57    2.09
   0   1  13   10.74    2.56
   0   1  13    7.77    2.13
   0   1  14    2.48    1.55
   0  -2   0 7169.64  116.23
   0   2   0 7451.69  115.63
   0   2   0 7194.98  116.37
   0  -2   0 7456.14  116.58
   0  -2   0 7164.98  116.32
   0   2   0 7705.00  116.46
   0   2   0 7341.68  116.29
   0  -2  -1 2929.00   50.46
   0   2   1 2871.31   50.48
   0  -2  -1 2989.41   49.05
   0  -2   1 2863.08   50.69
   0  -2   1 2900.98   50.40
   0   2  -1 3096.64   50.52
   0   2   1 3062.21   49.00
   0   2   1 3012.14   49.98
   0   2  -1 3040.81   48.89
   0   2   2  232.29    4.93
   0   2   2  230.37    6.70
   0  -2  -2  238.80    6.96
   0  -2  -2  252.98    6.57
   0   2  -2  246.30    7.00
   0  -2  -2  261.39    5.10
   0   2  -2  237.33    5.42
   0  -2   2  262.01    7.25
   0  -2  -3   42.72    2.76
   0  -2   3   36.07    1.86
   0   2  -3   42.25    2.80
   0   2   3   41.73    2.69
   0   2  -3   40.39    1.97
   0   2  -3   43.12    1.48
   0  -2   3   45.51    2.87
   0   2   3   43.25    2.47
   0   2  -4  229.66    7.75
   0   2   4  236.35    7.41
   0  -2  -4  239.69    7.85
   0   2   4  227.24    7.65
   0  -2   4  233.58    6.34
   0   2  -4  236.32    5.58
   0   2  -5  581.38   12.07
   0  -2   5  574.75   12.88
   0   2   5  575.89   14.69
   0  -2   5  595.06   14.85
   0  -2   6  665.49   16.66
   0   2  -6  638.63   13.90
   0  -2   6  656.47   14.77
   0   2  -6  659.20   12.62
   0   2   6  616.35   11.40
   0   2   6  655.28   11.52
   0   2   6  673.12   16.66
   0   2  -7  330.75    7.87
   0   2   7  327.79    6.91
   0   2   7  310.83    6.87
   0   2   7  325.66   11.09
   0  -2   7  351.51   10.01
   0  -2   7  352.51   11.38
   0  -2   8   47.22    3.99
   0   2   8   44.74    3.96
   0   2  -8   44.29    2.51
   0   2   8   42.60    2.04
   0   2   8   40.44    1.99
   0  -2   8   49.96    3.60
   0  -2   9   42.54    3.96
   0   2   9   39.87    3.93
   0  -2   9   43.44    3.60
   0   2  10   37.85    3.95
   0  -2  10   30.98    3.28
   0  -2  10   32.88    3.64
   0  -2  11    1.57    0.91
   0   2  11    1.37    0.97
   0  -2  11    1.17    0.95
   0  -2  12   28.97    3.59
   0  -2  12   28.51    3.76
   0   2  12   26.97    3.74
   0  -2  13    7.48    2.03
   0   2  13   11.31    2.55
   0   3   0    0.57    0.36
   0   3   0    0.09    0.25
   0   3   0    0.75    0.43
   0  -3   0    0.43    0.42
   0   3   0    0.35    0.26
   0  -3   1  148.01    5.74
   0   3   1  164.71    5.32
   0   3   1  164.43    4.85
   0   3   1  171.53    5.77
   0  -3  -1  174.32    5.77
   0   3  -1  145.22    4.81
   0   3  -1  161.22    5.63
   0  -3  -1  158.67    4.95
   0   3   1  171.85    5.45
   0   3  -1  158.00    4.08
   0  -3   1  156.52    5.60
   0  -3  -2   42.70    2.93
   0  -3  -2   47.39    2.22
   0   3   2   50.25    2.14
   0  -3   2   45.46    3.08
   0   3  -2   47.50    2.11
   0  -3   2   45.69    2.94
   0  -3  -2   49.67    2.75
   0   3   2   50.23    2.95
   0   3  -2   48.92    2.17
   0   3  -2   42.45    2.93
   0   3   3   75.43    2.35
   0   3  -3   73.51    2.43
   0  -3  -3   75.10    1.98
   0   3  -3   69.10    2.85
   0  -3   3   80.23    4.53
   0  -3  -3   83.90    4.43
   0   3  -3   75.89    4.27
   0   3   3   73.81    4.04
   0  -3  -3   87.46    2.65
   0  -3  -3   74.98    3.80
   0   3  -4   13.54    0.74
   0   3  -4   12.40    1.21
   0  -3   4   14.73    1.97
   0   3   4   14.26    1.63
   0   3   4   14.50    1.85
   0   3   5  143.12    5.99
   0  -3   5  134.79    4.90
   0   3   5  128.94    6.22
   0  -3   5  145.16    6.71
   0   3   6  176.22    7.84
   0  -3   6  189.05    8.21
   0  -3   6  173.98    6.13
   0   3  -7   15.27    0.84
   0  -3   7   16.81    2.45
   0   3   7   16.46    2.37
   0  -3   7   18.47    2.01
   0  -3   8   51.97    3.66
   0   3   8   49.91    4.44
   0  -3   8   60.53    4.86
   0   3   9   25.23    3.27
   0  -3   9   21.33    2.49
   0  -3   9   20.68    2.95
   0   3  10   18.26    2.93
   0  -3  10   20.83    2.63
   0  -3  10   16.61    2.76
   0  -3  11   11.34    2.19
   0  -3  11    5.66    1.84
   0   3  11   12.74    2.66
   0  -3  12   15.44    2.92
   0   3  12   17.26    3.18
   0   4   0  188.77    6.61
   0   4   0  184.18    6.46
   0   4   0  192.14    5.85
   0  -4   0  192.16    6.67
   0  -4   1  272.30    8.62
   0  -4   1  282.13    8.86
   0   4   1  277.44    8.69
   0   4   1  289.43    8.38
   0  -4  -1  270.37    7.98
   0   4  -1  272.02    7.76
   0   4  -1  279.32    6.77
   0   4   1  276.74    8.04
   0   4  -1  258.17    8.66
   0   4   1  294.05    8.01
   0  -4  -2   93.15    3.91
   0  -4   2   91.20    4.78
   0  -4   2   98.25    5.08
   0   4   2   87.36    4.40
   0  -4  -2   97.37    4.45
   0   4  -2   85.37    3.55
   0   4   2   91.01    3.74
   0   4  -2   88.10    2.72
   0  -4  -3  265.63    6.73
   0   4   3  257.28    6.43
   0   4  -3  244.35    6.30
   0   4  -3  253.28    6.60
   0  -4   3  250.36    8.88
   0  -4  -3  256.53    8.25
   0  -4  -3  250.26    5.95
   0  -4   3  262.91    9.35
   0   4   3  231.76    8.32
   0   4  -4  143.54    4.80
   0  -4   4  148.77    6.83
   0   4  -4  142.19    3.90
   0  -4   4  153.55    7.23
   0   4   4  144.17    6.61
   0   4   5   69.66    4.71
   0  -4   5   80.10    5.35
   0  -4   6  260.78   10.56
   0   4   6  251.28   10.13
   0  -4   7  258.65   11.00
   0   4   7  265.62   10.80
   0  -4   7  264.88    8.51
   0  -4   8   33.91    2.94
   0   4   8   27.04    3.47
   0  -4   8   33.36    3.88
   0  -4   9   24.23    2.62
   0  -4   9   22.36    3.30
   0   4   9   27.12    3.62
   0   4  10   21.67    3.33
   0  -4  10   20.03    2.56
   0  -4  10   19.85    3.27
   0  -4  11   21.20    3.55
   0   4  11   24.22    3.68
   0  -4  12    1.19    1.23
   0   5   0    3.39    0.86
   0  -5   0    3.77    1.10
   0   5  -1   15.28    1.41
   0   5   1   16.80    1.95
   0   5  -1   16.77    1.86
   0   5   1   19.18    2.13
   0  -5   1   15.84    2.10
   0  -5  -1   15.52    1.88
   0   5   1   18.98    1.98
   0  -5   1   15.15    2.00
   0   5   2   22.43    2.26
   0  -5  -2   22.91    1.90
   0   5  -2   19.81    1.36
   0  -5   2   24.61    2.83
   0  -5  -2   21.42    2.07
   0   5  -2   22.03    1.98
   0  -5   2   20.69    2.45
   0   5   2   21.31    2.00
   0   5   2   21.34    2.27
   0  -5  -3   19.27    1.80
   0  -5   3   22.92    2.79
   0  -5   3   18.77    2.45
   0   5  -3   17.98    0.82
   0  -5  -3   17.91    1.50
   0   5  -3   19.57    1.63
   0   5  -3   16.10    1.55
   0  -5  -3   17.97    2.10
   0   5   3   21.57    1.84
   0   5   3   18.23    2.22
   0  -5  -4   26.32    1.95
   0   5  -4   24.25    1.89
   0  -5   4   28.26    3.24
   0  -5  -4   27.44    2.76
   0  -5   4   27.16    3.04
   0   5   4   26.35    2.88
   0  -5  -4   24.63    1.36
   0   5   5   21.66    2.79
   0  -5   5   24.16    3.03
   0   5  -5   25.40    2.01
   0  -5   5   26.43    3.24
   0   5   6  130.72    7.31
   0  -5   6  128.06    7.65
   0  -5   6  119.93    7.12
   0  -5   7    6.57    1.80
   0   5   7    8.75    2.00
   0  -5   7    6.90    1.88
   0  -5   8    4.90    1.63
   0  -5   8    8.45    2.08
   0   5   8    6.38    1.94
   0   5   9   21.11    3.30
   0  -5   9   10.95    2.50
   0  -5  10    9.51    2.44
   0   5  10    2.86    1.52
   0  -5  11    0.52    0.85
   0   5  11    1.10    1.18
   0  -6   0  308.82   10.89
   0   6   0  314.48    9.18
   0   6  -1   48.91    2.84
   0  -6  -1   49.29    3.80
   0  -6   1   58.24    4.46
   0   6   1   47.62    3.36
   0   6   2   91.58    5.17
   0  -6  -2   90.64    4.46
   0  -6   2  103.30    6.04
   0  -6  -2  100.32    5.21
   0   6  -2   95.39    3.51
   0  -6   2   98.25    6.05
   0   6   3   33.91    3.27
   0   6   3   36.49    2.75
   0   6  -3   30.93    2.31
   0  -6   3   34.27    3.70
   0  -6  -3   40.10    3.52
   0  -6  -3   39.41    2.98
   0   6  -3   33.95    1.37
   0  -6   3   40.16    3.82
   0  -6  -3   34.05    2.42
   0  -6  -4   48.23    3.96
   0  -6  -4   53.88    3.20
   0  -6   4   56.58    4.95
   0   6   4   45.85    4.01
   0  -6   4   53.75    4.65
   0  -6   5   49.63    4.80
   0   6   5   46.84    4.34
   0  -6   5   49.43    4.64
   0  -6   6   35.69    4.24
   0  -6   6   41.40    4.39
   0   6   6   41.01    4.20
   0  -6   7    2.33    1.46
   0   6   7    3.03    1.32
   0  -6   7    3.30    1.39
   0   6   8   14.72    2.82
   0  -6   8   13.10    2.87
   0  -6   8   16.58    3.02
   0  -6   9   21.10    3.73
   0   6   9   19.14    3.35
   0  -6   9   15.60    3.17
   0  -6  10    7.04    2.39
   0   6  10    7.29    2.12
   0  -6  10    6.28    2.31
   0  -7   0   10.48    2.12
   0   7   0    8.54    1.45
   0   7   1    6.96    1.40
   0  -7  -1   12.52    2.10
   0   7  -1   10.24    1.38
   0  -7   1   13.52    2.41
   0   7  -2    1.16    0.46
   0   7   2    0.10    0.49
   0  -7   2    0.57    0.79
   0  -7  -2    0.51    0.69
   0  -7   2    1.96    0.96
   0  -7   3   11.54    2.36
   0   7   3   10.00    1.84
   0  -7   3    9.72    2.17
   0  -7  -3    5.82    1.43
   0  -7  -3    8.78    1.60
   0  -7   4    5.60    1.79
   0  -7  -4    6.06    1.50
   0   7   4    5.47    1.47
   0  -7   4    3.31    1.25
   0  -7   5   14.21    2.75
   0  -7   5   13.71    2.79
   0   7   5   12.74    2.38
   0   7   6   11.00    2.22
   0  -7   6    6.55    2.05
   0  -7   6   12.53    2.66
   0  -7   7    6.70    2.17
   0   7   7    5.58    1.78
   0  -7   7    9.32    2.35
   0   7   8    2.36    1.25
   0  -7   8    4.61    2.04
   0  -7   8    4.66    1.72
   0  -7   9    4.29    1.77
   0  -7   9    8.17    2.52
   0   7   9    4.96    1.82
   0  -8   0   13.24    2.46
   0   8   0   15.29    1.96
   0  -8   1    5.74    1.61
   0  -8  -1    3.43    1.39
   0   8   1    3.97    1.10
   0  -8   2   10.42    2.40
   0  -8  -2    9.95    1.91
   0   8   2    9.44    1.82
   0  -8  -2    9.98    2.04
   0  -8   3   12.99    2.77
   0  -8  -3   18.22    2.71
   0  -8   3   16.50    2.96
   0   8   3   15.92    2.42
   0  -8   4   16.83    3.22
   0  -8  -4   18.55    2.87
   0   8   4   16.49    2.69
   0  -8   4   16.88    3.07
   0  -8   5    9.78    2.53
   0   8   5    7.41    1.91
   0  -8   5   10.24    2.39
   0  -8   6    7.45    2.23
   0  -8   6    5.50    2.02
   0   8   6    7.53    2.01
   0  -8   7    7.68    2.39
   0   8   7    5.12    1.81
   0  -8   7    6.90    2.19
   0  -9   0    0.68    0.90
   0  -9  -1    5.25    1.67
   0  -9   1    3.80    1.82
   0  -9  -2    0.41    0.52
   0   9   2    0.42    0.64
   0  -9   2    1.53    1.05
   0  -9   3    1.23    0.93
   0   9   3    0.29    0.58
   0  -9   4   -0.19    1.24
   0   9   4    0.90    0.88
   0   9   5    2.17    1.00
   0  -9   5    1.26    1.22
   0  -9   5    1.41    1.34
   0  -9   6    1.12    1.43
   0   9   6   -0.96    0.68
   0 -10   0    3.96    1.71
   0 -10   1    1.05    1.02
   0 -10   2    0.74    0.76
   0 -10   3    4.81    2.06
   0  10   5    4.57    1.96
  -1   0  13    0.18    0.80
  -1   0  12   11.87    2.22
  -1   0  12   16.29    2.77
  -1   0  11   11.32    2.08
  -1   0  10   10.83    1.83
  -1   0  10    9.73    1.89
  -1   0   9  134.43    6.30
  -1   0   9  118.53    6.29
  -1   0   8   36.00    3.16
  -1   0   8   36.38    3.00
  -1   0   7   25.64    2.20
  -1   0   7   23.57    2.41
  -1   0   7   22.13    2.13
  -1   0   6  153.22    5.46
  -1   0   6  136.54    5.47
  -1   0   6  146.04    5.94
  -1   0   5 3518.27   60.80
  -1   0   5 3555.02   60.20
  -1   0   5 3525.33   59.78
  -1   0   4  210.77    5.85
  -1   0   4  216.57    6.00
  -1   0   4  216.96    6.46
  -1   0   3 1030.87   18.35
  -1   0   3 1037.62   18.46
   1   0  -2  104.01    3.23
  -1   0   2  109.39    3.27
  -1   0  -2  559.45   11.19
   1   0   2  574.57   11.01
  -1   0  -2  562.69   11.00
   1   0   2  573.50   11.30
   1   0   3  889.64   16.64
   1   0   3  919.43   17.12
  -1   0  -3  904.43   17.21
   1   0   3  917.37   17.34
   1   0   4    3.02    0.64
  -1   0  -4    3.57    0.74
   1   0   4    3.72    0.74
   1   0   4    3.76    0.78
  -1   0  -4    2.50    0.56
   1   0   5   72.50    3.47
  -1   0  -5   80.31    3.45
  -1   0  -5   74.60    3.92
   1   0   5   87.38    4.00
   1   0   5   77.70    3.96
   1   0   6  501.62   13.15
  -1   0  -6  503.62   12.07
   1   0   6  506.72   12.76
   1   0   6  498.57   12.16
   1   0   7   89.29    4.38
   1   0   7   90.00    4.77
  -1   0  -7   96.30    4.54
   1   0   7   83.45    4.87
   1   0   8  707.09   18.22
   1   0   8  710.00   17.60
   1   0   8  681.29   16.52
   1   0   9   58.28    3.94
   1   0   9   60.35    4.65
   1   0   9   50.75    4.07
   1   0  10   54.39    4.68
   1   0  10   54.85    4.10
   1   0  10   57.60    4.54
   1   0  11    7.54    1.89
   1   0  12    2.93    1.32
   1   0  13   33.01    4.30
  -1   1  13    4.76    1.76
  -1  -1  13    6.92    1.92
  -1  -1  12   11.49    2.23
  -1   1  12   15.72    2.79
  -1  -1  11   13.12    2.14
  -1   1  11   10.54    2.20
  -1  -1  11   12.40    2.28
  -1  -1  11   12.81    2.31
  -1  -1  10    4.37    1.41
  -1   1  10    4.88    1.34
  -1  -1  10    5.02    1.29
  -1  -1  10    3.93    1.12
  -1   1   9    5.92    1.49
  -1  -1   9    7.95    1.51
  -1   1   9    7.07    1.24
  -1  -1   9    9.45    1.80
  -1  -1   8   12.73    1.93
  -1   1   8   11.00    1.43
  -1  -1   8    9.71    1.54
  -1   1   8   10.45    1.34
  -1   1   8   11.58    1.93
  -1   1   7   54.97    3.95
  -1  -1   7   47.57    3.13
  -1   1   7   44.47    2.61
  -1   1   7   47.75    2.83
  -1  -1   7   49.84    3.54
  -1   1   6   41.96    3.29
  -1  -1   6   40.43    3.02
  -1   1   6   41.34    2.32
  -1  -1   6   44.20    3.11
  -1  -1   6   44.06    2.83
  -1   1   6   45.16    2.56
  -1   1   5  189.83    7.01
  -1   1   5  185.83    5.28
  -1  -1   5  181.44    6.66
  -1  -1   5  194.39    6.66
  -1  -1   5  187.29    5.84
  -1   1   4 1392.43   26.49
  -1   1   4 1389.45   26.89
   1  -1  -4 1390.32   24.59
  -1   1   4 1397.36   24.44
  -1  -1   4 1429.85   26.43
  -1  -1   4 1441.78   26.82
  -1  -1   4 1358.47   25.01
  -1   1   3   12.72    0.97
  -1  -1   3   10.61    1.18
  -1  -1   3   13.50    1.38
  -1   1   3   12.46    1.29
  -1  -1   3   11.76    0.70
   1  -1  -3   12.74    0.94
   1   1  -2  903.88   17.50
  -1   1   2  912.27   16.46
  -1  -1   2  949.37   17.60
  -1  -1   2  923.94   17.46
   1  -1  -2  915.07   16.27
   1  -1  -1  884.39   16.00
  -1   1   1  924.26   16.29
  -1  -1   1  878.28   16.55
   1   1  -1  894.11   16.36
  -1  -1   1  874.74   16.35
   1   1  -1  879.59   16.61
   1  -1   0   67.40    2.60
  -1   1   0   67.98    2.59
   1   1   0   72.45    2.37
  -1  -1   0   69.36    2.37
   1   1   0   69.83    1.79
  -1  -1  -1 5905.52   94.49
  -1  -1  -1 5844.44   95.16
  -1   1  -1 5876.85   95.20
   1   1   1 5845.76   94.45
   1   1   1 5687.49   93.75
   1  -1   1 5946.73   95.31
  -1   1  -1 5839.58   94.53
   1   1   1 5803.49   95.19
  -1  -1  -1 5533.35   93.90
  -1   1  -2 1322.29   24.13
  -1   1  -2 1355.10   23.58
   1   1   2 1317.54   22.58
   1  -1   2 1363.42   23.60
   1   1   2 1329.18   23.94
  -1  -1  -2 1277.49   22.28
   1   1   2 1393.32   24.64
   1  -1   2 1333.49   24.43
  -1  -1  -2 1361.38   24.11
  -1  -1  -3  293.37    7.92
  -1   1  -3  290.57    6.89
   1   1   3  316.75    7.91
  -1   1  -3  299.41    7.40
   1  -1   3  300.61    7.88
  -1   1  -3  292.78    7.78
  -1  -1  -3  285.07    5.91
   1  -1   3  305.98    7.47
   1   1   3  286.03    6.00
  -1  -1  -4   97.36    4.42
  -1  -1  -4   88.44    2.77
  -1   1  -4   92.61    4.14
   1  -1   4  100.54    4.25
   1   1   4  105.80    4.38
   1  -1   4  100.16    4.08
   1   1   4   84.76    2.88
  -1   1  -4   98.86    3.76
   1   1   5   68.13    2.69
  -1  -1  -5   72.45    2.70
  -1   1  -5   73.78    3.59
  -1   1  -5   68.35    3.70
   1  -1   5   71.90    3.72
   1  -1   5   67.69    3.79
   1   1   5   77.30    4.02
  -1   1  -6   17.39    1.88
   1   1   6   17.89    2.03
  -1   1  -6   16.10    1.86
   1  -1   6   19.49    2.04
  -1  -1  -6   15.61    1.33
   1   1   6   16.77    1.40
   1  -1   6   15.34    1.84
   1   1   7   54.47    3.86
   1   1   7   48.26    2.69
   1  -1   7   53.85    3.76
   1  -1   7   49.57    3.59
   1   1   8   38.17    2.54
   1   1   8   44.61    3.77
   1  -1   8   39.16    3.45
   1  -1   8   34.57    3.22
   1   1   8   41.45    2.71
   1  -1   9   38.60    3.56
   1  -1   9   42.52    3.77
   1   1   9   38.38    2.73
   1   1   9   43.13    3.91
   1  -1  10   40.91    3.96
   1   1  10   38.54    4.03
   1  -1  10   34.97    3.55
   1   1  10   37.43    3.81
   1   1  11   20.48    3.10
   1   1  11   22.28    3.12
   1  -1  11   22.59    2.98
   1  -1  11   25.81    3.32
   1  -1  12   16.15    2.84
   1   1  12   14.29    2.72
   1   1  12   14.03    2.67
   1  -1  13    2.66    1.25
   1   1  13    2.84    1.53
  -1   2  13    8.56    2.24
  -1  -2  12    8.75    2.11
  -1   2  12    2.29    1.30
  -1  -2  12    6.47    1.81
  -1  -2  11    5.84    1.72
  -1   2  11    6.51    1.83
  -1  -2  11    6.14    1.60
  -1  -2  10   79.00    5.76
  -1  -2  10   66.74    4.21
  -1   2  10   61.17    5.17
  -1  -2  10   63.40    4.57
  -1  -2   9   12.65    1.87
  -1  -2   9    6.84    1.71
  -1   2   9   10.44    2.11
  -1  -2   9    9.54    1.47
  -1  -2   8   17.94    1.84
  -1   2   8   15.29    1.44
  -1  -2   8   13.68    1.85
  -1  -2   8   14.87    2.26
  -1   2   8   13.62    1.31
  -1   2   8   14.27    2.24
  -1  -2   7   36.04    2.68
  -1  -2   7   34.99    2.36
  -1  -2   7   38.75    3.45
  -1   2   7   31.14    1.92
  -1   2   7   30.12    3.16
  -1   2   7   33.53    1.95
  -1  -2   6  166.31    5.68
  -1   2   6  164.55    4.78
  -1   2   6  157.80    4.60
  -1  -2   6  164.59    5.18
  -1   2   6  166.93    7.33
  -1  -2   6  160.28    6.91
  -1  -2   5  174.00    5.33
  -1  -2   5  168.14    4.84
  -1   2   5  184.17    4.66
  -1  -2   5  170.78    6.80
  -1   2   5  176.81    7.13
  -1   2   4  798.15   17.69
  -1  -2   4  792.67   17.63
   1  -2  -4  782.16   13.99
  -1   2   4  796.78   14.30
  -1  -2   4  765.22   14.09
  -1   2   4  794.84   17.81
  -1  -2   4  809.78   17.69
  -1  -2   4  754.81   14.70
   1  -2  -3  399.79    7.98
  -1  -2   3  409.18    7.30
  -1  -2   3  409.29   10.68
  -1   2   3  406.88    8.79
  -1   2   3  380.39    8.71
  -1   2   3  382.89   10.34
  -1  -2   3  387.01    7.72
  -1  -2   3  409.44   10.49
  -1  -2   3  400.75   10.35
  -1  -2   2  439.24   10.89
  -1  -2   2  458.28    8.00
  -1   2   2  428.02    9.45
  -1  -2   2  448.62   10.92
   1  -2  -2  435.91    9.17
  -1   2   2  439.34   10.72
  -1  -2   2  453.39   10.71
  -1   2   1  997.99   17.29
  -1  -2   1 1018.78   17.02
  -1   2   1 1005.20   18.71
   1  -2  -1 1004.81   18.93
   1   2  -1  976.86   19.73
  -1  -2   1 1017.59   19.23
  -1  -2   1 1012.52   19.64
  -1  -2   1 1010.57   19.47
   1   2   0 1385.69   24.03
  -1   2   0 1368.68   24.64
   1   2   0 1330.72   24.96
   1   2   0 1367.86   23.18
  -1  -2   0 1351.57   23.26
  -1  -2   0 1329.26   24.16
  -1  -2   0 1289.77   23.94
   1  -2   0 1382.74   23.21
   1  -2   0 1289.16   24.55
  -1  -2  -1 9132.19  154.11
  -1  -2  -1 9482.04  155.13
  -1   2  -1 9821.15  156.07
   1  -2   1 9756.01  156.34
   1   2   1 9545.14  154.89
   1   2   1 9999.00  154.22
  -1  -2  -2 2247.82   36.90
  -1   2  -2 2239.08   38.26
   1   2   2 2195.50   38.96
   1   2   2 2244.13   36.65
  -1  -2  -2 2180.33   39.84
  -1   2  -2 2207.91   39.65
  -1  -2  -2 2249.49   39.30
   1  -2   2 2270.64   39.98
   1   2   3  127.21    2.82
  -1   2  -3  127.54    4.38
   1   2   3  116.90    4.91
   1  -2   3  125.81    4.41
   1   2   3  125.05    4.85
  -1   2  -3  123.88    5.15
  -1  -2  -3  109.24    4.78
   1  -2   3  122.69    5.12
  -1   2  -4  549.03   11.53
  -1   2  -4  534.56   13.67
  -1  -2  -4  545.80   13.91
   1   2   4  563.72   13.60
   1  -2   4  570.57   12.61
   1  -2   4  559.10   13.79
  -1   2  -4  557.86   12.54
   1   2   4  571.32   13.97
  -1   2  -5  121.35    4.34
   1   2   5  108.14    2.83
   1  -2   5  116.13    4.82
   1  -2   5  109.53    5.37
   1   2   5  111.28    5.32
  -1   2  -6   94.87    4.24
   1  -2   6   89.07    5.04
   1  -2   6   92.89    4.62
   1   2   6   95.34    2.88
   1   2   6   99.46    5.27
   1   2   6   90.80    2.73
   1  -2   7  575.45   15.85
  -1   2  -7  572.73   14.08
   1   2   7  591.96   16.03
   1   2   7  586.60   11.47
   1  -2   7  595.62   14.92
   1   2   7  559.10   11.12
   1  -2   8  196.02    8.05
   1   2   8  195.97    8.65
   1  -2   8  191.70    8.63
   1  -2   9   28.88    3.34
   1   2   9   27.32    3.24
   1  -2   9   29.08    3.14
   1   2  10   10.95    2.25
   1  -2  10   17.31    2.58
   1  -2  10   14.87    2.57
   1   2  11   18.68    2.97
   1  -2  11   13.99    2.45
   1  -2  11   17.53    2.84
   1   2  12   12.21    2.67
   1  -2  12   10.91    2.36
   1   2  12   11.76    2.48
   1  -2  13    5.20    1.63
   1   2  13    8.59    2.31
  -1   3  12    3.68    1.61
  -1  -3  12    5.05    1.98
  -1   3  11    8.74    2.23
  -1  -3  11    8.46    2.22
  -1  -3  10    2.86    1.35
  -1   3  10    2.81    1.26
  -1  -3  10    3.90    1.11
  -1  -3   9    0.60    0.62
  -1   3   9   -0.42    0.63
  -1  -3   9    1.48    1.05
  -1   3   8   37.69    3.87
  -1  -3   8   36.62    3.89
  -1  -3   8   34.12    2.74
  -1  -3   7    9.35    1.90
  -1   3   7    9.68    0.73
  -1   3   7    9.03    1.91
  -1  -3   7   10.77    1.39
  -1   3   7   11.54    0.90
  -1  -3   6   43.30    2.54
  -1   3   6   42.68    1.85
  -1  -3   6   41.82    3.70
  -1   3   6   43.84    3.84
  -1   3   6   40.72    3.05
  -1  -3   5   57.77    2.64
  -1   3   5   59.06    4.23
  -1  -3   5   54.13    4.00
  -1   3   5   58.01    2.29
  -1   3   5   58.90    3.35
  -1   3   4   46.22    3.49
  -1  -3   4   41.50    1.95
  -1  -3   4   45.67    3.46
  -1   3   4   44.61    2.61
   1  -3  -4   43.96    1.68
  -1  -3   4   40.74    3.30
  -1   3   4   45.14    2.09
  -1   3   4   43.63    3.37
  -1   3   3   42.80    3.16
  -1   3   3   39.37    2.98
  -1   3   3   44.77    2.21
   1  -3  -3   44.64    2.10
  -1  -3   3   40.55    3.05
  -1  -3   3   44.38    3.23
  -1  -3   2   41.68    2.87
   1  -3  -2   48.02    2.61
  -1   3   2   43.57    2.31
   1  -3  -2   39.47    2.12
   1   3  -2   45.68    1.39
  -1   3   2   46.16    3.17
  -1  -3   2   45.97    3.03
  -1  -3   2   40.48    1.84
  -1  -3   2   43.86    3.12
  -1  -3   1   14.58    1.00
  -1   3   1   14.73    1.20
  -1   3   1   13.74    1.58
  -1   3   1   13.90    1.37
  -1  -3   1   14.70    1.67
  -1  -3   1   15.04    1.55
   1   3  -1   13.77    1.59
  -1  -3   1   12.94    1.48
  -1  -3   1   14.23    1.23
   1  -3  -1   13.12    1.41
   1  -3   0  116.01    4.75
  -1  -3   0  116.61    4.42
   1   3   0  120.90    3.81
   1  -3   0  119.22    4.09
  -1  -3   0  119.65    3.94
  -1  -3   0  122.76    4.42
   1   3   0  117.37    4.88
  -1   3   0  121.00    4.66
  -1  -3   0  121.24    4.45
   1  -3   1 1185.99   24.77
  -1   3  -1 1249.99   24.45
  -1  -3  -1 1245.16   23.41
   1   3   1 1224.75   23.08
  -1  -3  -1 1294.41   24.24
  -1  -3  -1 1208.53   22.66
   1  -3   1 1253.54   23.40
  -1  -3  -1 1248.59   22.62
   1   3   2  658.88   14.40
  -1  -3  -2  673.83   15.30
  -1  -3  -2  621.56   12.57
   1  -3   2  668.86   15.60
  -1  -3  -2  680.97   14.92
  -1  -3  -2  657.68   12.63
  -1  -3  -2  636.33   15.10
  -1   3  -2  666.74   15.64
   1   3   3  125.86    5.27
  -1  -3  -3  131.63    5.62
  -1   3  -3  131.56    4.67
  -1  -3  -3  127.81    3.38
   1  -3   3  130.55    5.86
  -1  -3  -3  123.60    3.25
  -1  -3  -3  133.99    5.73
  -1   3  -4  138.50    4.17
   1   3   4  141.89    6.05
  -1   3  -4  151.69    5.32
   1  -3   4  149.35    6.61
   1   3   4  153.69    6.28
  -1   3  -5   25.97    2.21
   1  -3   5   27.29    2.82
   1   3   5   27.60    2.72
  -1   3  -5   25.37    1.72
   1  -3   5   30.03    2.38
   1   3   6   40.41    3.55
   1  -3   6   42.73    3.75
  -1   3  -6   38.05    2.37
   1  -3   6   37.97    2.91
  -1   3  -7  101.92    4.53
   1  -3   7  107.86    6.40
   1   3   7  118.17    6.49
   1  -3   7  101.50    5.19
   1   3   8   42.45    4.04
   1  -3   8   37.41    3.33
   1  -3   8   37.49    3.91
   1   3   9   11.35    2.15
   1  -3   9    9.76    1.75
   1  -3   9   10.35    2.25
   1  -3  10   44.23    4.05
   1  -3  10   47.70    4.87
   1   3  10   50.76    4.96
   1  -3  11    7.15    1.83
   1   3  11    6.21    1.81
   1  -3  11    7.42    2.05
   1  -3  12    3.54    1.47
   1  -3  12    0.88    0.80
   1   3  12    2.52    1.35
  -1  -4  12   12.48    2.89
  -1  -4  11   43.90    5.14
  -1   4  11   50.07    5.38
  -1  -4  10   19.53    3.31
  -1   4  10   22.79    3.46
  -1  -4   9   19.89    2.20
  -1   4   9   20.01    3.14
  -1  -4   9   24.84    3.56
  -1   4   8   57.60    5.09
  -1  -4   8   50.17    4.79
  -1  -4   8   56.10    5.15
  -1  -4   8   55.96    3.44
  -1  -4   7   48.40    4.57
  -1   4   7   42.11    4.23
  -1  -4   7   44.00    2.76
  -1  -4   7   39.74    4.06
  -1  -4   6  127.83    7.25
  -1   4   6  131.33    7.16
  -1   4   6  136.49    5.93
  -1  -4   6  129.99    7.10
  -1  -4   5   98.92    5.91
  -1   4   5   94.89    5.81
  -1   4   5  100.29    3.21
  -1  -4   5  101.87    6.11
   1  -4  -4  108.21    3.44
  -1   4   4   97.10    3.58
  -1  -4   4  103.59    5.81
  -1   4   4  100.66    5.79
  -1   4   4  101.75    5.64
  -1  -4   4  102.73    5.80
  -1   4   3   44.41    3.60
  -1   4   3   52.46    3.74
   1  -4  -3   45.79    2.77
  -1  -4   3   52.21    3.77
   1  -4  -3   53.34    3.00
  -1   4   3   46.75    2.55
   1   4  -3   51.76    1.87
  -1  -4   3   52.19    3.84
  -1  -4   2   60.40    3.96
   1  -4  -2   63.70    3.48
   1   4  -2   64.77    2.22
  -1  -4   2   68.20    4.23
  -1   4   2   57.41    3.70
  -1   4   2   65.49    3.31
  -1   4   2   56.57    3.89
   1  -4  -2   64.80    3.15
  -1   4   2   68.89    3.16
  -1  -4   1  191.59    7.11
  -1  -4   1  193.88    6.13
  -1  -4   1  201.28    7.04
   1   4  -1  194.53    5.03
  -1   4   1  188.73    7.17
   1  -4  -1  194.91    6.86
  -1  -4   1  199.88    7.51
  -1   4   1  191.34    6.58
  -1   4   1  212.41    6.28
  -1  -4   0  194.75    6.55
  -1  -4   0  188.77    6.56
   1   4   0  218.23    7.48
   1  -4   0  195.00    7.16
  -1   4   0  194.20    7.04
  -1  -4   0  190.68    6.74
   1   4   0  183.77    5.54
  -1   4   0  186.13    6.79
   1  -4   0  195.90    6.32
   1   4   1 1523.59   28.65
  -1  -4  -1 1510.07   28.97
  -1  -4  -1 1584.22   30.25
  -1   4  -1 1513.51   29.33
   1  -4   1 1575.89   31.04
  -1   4  -1 1585.39   30.72
  -1  -4  -1 1540.88   28.47
   1   4   1 1583.65   30.63
  -1  -4  -1 1542.39   29.14
   1  -4   1 1519.46   29.40
  -1  -4  -2 1190.85   24.21
   1   4   2 1151.79   23.73
  -1  -4  -2 1234.96   24.95
  -1  -4  -2 1154.27   22.44
   1  -4   2 1214.75   25.57
  -1  -4  -2 1179.53   21.89
   1  -4   2 1154.12   24.15
   1   4   3  117.16    5.44
  -1  -4  -3  128.99    3.90
  -1  -4  -3  125.82    5.97
  -1   4  -3  118.12    4.75
  -1  -4  -3  127.73    4.00
   1  -4   3  127.92    6.34
   1  -4   4   19.05    2.50
   1   4   4   25.58    2.60
  -1   4  -4   22.51    1.98
  -1  -4  -4   22.80    1.07
  -1  -4  -4   22.71    1.07
  -1  -4  -4   20.02    2.44
  -1   4  -5  118.21    3.70
   1  -4   5  132.44    6.98
  -1   4  -5  117.80    5.08
   1   4   5  116.84    6.15
  -1   4  -6  192.10    5.42
   1   4   6  187.47    8.43
   1  -4   6  195.75    9.09
   1   4   7  180.30    8.65
   1  -4   7  180.87    9.09
   1   4   8    9.60    2.07
   1  -4   8   10.41    1.77
   1  -4   8   11.60    2.38
   1  -4   9   26.32    2.99
   1   4   9   25.99    3.50
   1  -4   9   26.47    3.67
   1  -4  10   15.82    2.95
   1  -4  10   14.63    2.36
   1   4  10   11.51    2.48
   1  -4  11   12.47    2.29
   1   4  11   10.65    2.52
   1  -4  11   16.47    3.24
   1  -4  12    1.02    1.23
  -1  -5  11    3.30    1.71
  -1   5  11    3.40    1.59
  -1  -5  10    7.72    2.22
  -1  -5  10    9.10    2.59
  -1   5  10    6.42    2.02
  -1  -5   9   10.83    2.58
  -1   5   9    6.72    1.94
  -1  -5   9    8.53    2.25
  -1  -5   8   14.13    2.66
  -1  -5   8    9.75    2.43
  -1   5   8   11.81    2.53
  -1   5   7   26.55    3.45
  -1  -5   7   22.30    3.32
  -1  -5   7   26.51    3.52
  -1  -5   6   29.07    3.64
  -1  -5   6   24.44    3.26
  -1   5   6   23.67    3.15
  -1   5   5   70.65    2.88
  -1   5   5   74.93    5.35
   1  -5  -5   63.95    1.91
  -1  -5   5   67.92    5.27
  -1  -5   5   73.10    5.59
   1  -5  -5   68.48    2.02
   1  -5  -4   19.29    1.59
  -1   5   4   21.33    1.79
  -1   5   4   23.24    2.80
  -1  -5   4   21.75    2.91
  -1  -5   4   23.92    2.99
  -1   5   4   21.59    2.84
  -1   5   3    0.18    0.51
   1  -5  -3    0.93    0.68
  -1  -5   3    0.19    0.46
  -1   5   3    0.45    0.59
   1   5  -3    0.19    0.22
  -1  -5   3    0.20    0.61
   1  -5  -3   -0.06    0.42
  -1   5   3   -0.04    0.40
  -1   5   3    0.30    0.42
  -1   5   2    7.70    1.22
   1  -5  -2    8.98    1.48
  -1  -5   2    6.34    1.47
  -1  -5   2    4.96    1.21
  -1   5   2   10.13    1.79
  -1   5   2    5.28    1.19
  -1   5   2    5.63    1.09
  -1   5   1    3.59    1.06
   1   5  -1    3.33    0.63
   1  -5  -1    2.44    0.84
  -1   5   1    2.79    0.82
  -1   5   1    3.43    0.93
  -1  -5   1    3.40    0.97
  -1   5   1    2.45    0.78
   1  -5   0   17.23    2.17
  -1  -5   0   11.73    1.81
   1   5   0   12.39    1.39
  -1   5   0   11.77    1.77
   1  -5   1   55.48    3.69
  -1  -5  -1   58.72    3.40
   1  -5   1   65.12    4.49
   1   5   1   57.90    3.39
  -1   5  -1   55.09    3.61
  -1  -5  -1   60.71    3.74
  -1  -5  -2  100.75    4.24
  -1  -5  -2   88.23    4.23
  -1   5  -2   92.02    4.48
   1   5   2   86.55    4.59
   1  -5   2   87.44    5.50
   1  -5   2   88.07    4.99
   1   5   3    4.72    1.13
  -1   5  -3    6.87    1.15
  -1  -5  -3    4.23    0.85
  -1  -5  -3    4.15    0.77
  -1   5  -3    3.87    0.89
   1  -5   3    6.60    1.44
  -1  -5  -3    6.24    1.45
   1  -5   3    6.29    1.50
  -1  -5  -4   21.70    1.52
   1   5   4   20.92    2.52
  -1   5  -4   21.20    2.04
  -1  -5  -4   21.86    2.68
   1  -5   4   22.96    2.95
  -1  -5  -4   22.65    1.39
   1  -5   4   20.86    2.60
  -1   5  -4   22.88    1.95
  -1   5  -5   40.58    1.71
   1   5   5   38.18    3.59
   1  -5   5   46.23    4.39
   1  -5   5   41.48    3.82
   1  -5   6    7.47    1.82
   1   5   6    3.66    1.30
   1   5   7   45.03    4.43
   1  -5   7   61.71    5.55
   1  -5   8   24.04    3.60
   1   5   8   33.48    3.95
   1  -5   9    6.91    2.10
   1   5   9   12.40    2.56
   1  -5  10   12.30    2.86
   1   5  10    5.98    1.86
   1  -5  11    4.18    1.70
  -1  -6  10   10.31    2.86
  -1   6  10   14.85    3.20
  -1  -6  10   11.13    2.86
  -1  -6   9   27.62    4.26
  -1   6   9   23.60    3.82
  -1  -6   9   27.38    4.12
  -1  -6   8   18.72    3.39
  -1   6   8   13.36    2.73
  -1  -6   8   12.63    2.73
  -1  -6   7   40.70    4.66
  -1   6   7   40.12    4.47
  -1  -6   7   46.00    5.01
  -1   6   6   54.23    5.08
  -1  -6   6   56.32    5.56
  -1  -6   6   64.04    5.57
  -1   6   5  143.61    7.98
  -1  -6   5  137.56    8.38
  -1  -6   5  148.17    8.34
  -1  -6   4  135.49    7.71
  -1  -6   4  136.21    7.86
  -1   6   4  134.76    7.33
   1  -6  -4  126.90    6.15
   1  -6  -4  132.52    5.17
  -1  -6   3  118.97    6.98
  -1   6   3  107.25    5.04
  -1   6   3  110.83    6.30
   1  -6  -3  112.63    5.58
   1   6  -3  115.47    3.74
  -1   6   3  110.80    6.75
  -1  -6   3  113.15    6.90
   1  -6  -3  105.84    5.35
  -1  -6   2   66.07    4.95
  -1   6   2   52.55    4.42
   1  -6  -2   58.08    4.12
  -1   6   2   60.56    4.38
  -1  -6   2   61.02    4.72
   1   6  -1   62.94    3.10
  -1   6   1   66.27    4.29
   1  -6  -1   68.25    4.69
  -1  -6   1   78.54    5.16
  -1   6   1   67.90    4.80
  -1   6   0   98.85    5.64
   1   6   0   93.03    4.27
   1  -6   0   98.87    5.93
  -1   6   0   90.41    4.74
  -1  -6   0   96.36    5.49
  -1  -6  -1    3.57    0.98
   1   6   1    2.82    0.82
  -1   6  -1    3.05    1.02
  -1   6  -1    2.85    0.76
   1  -6   1    5.31    1.33
   1  -6   1    4.23    1.30
  -1  -6  -2    3.14    0.83
   1   6   2    3.62    1.09
  -1  -6  -2    4.12    1.08
   1  -6   2    4.11    1.44
   1  -6   2    5.28    1.33
  -1   6  -2    2.51    0.83
  -1   6  -3   27.56    1.86
  -1   6  -3   27.13    2.47
   1  -6   3   29.29    3.54
   1   6   3   27.29    2.82
  -1  -6  -3   25.42    2.36
  -1  -6  -3   32.20    3.33
  -1  -6  -3   29.33    2.21
   1  -6   3   29.03    3.18
  -1   6  -4   34.57    2.67
  -1  -6  -4   40.72    2.56
  -1   6  -4   35.93    1.76
   1   6   4   38.12    3.59
  -1  -6  -4   44.48    4.06
   1  -6   4   40.83    4.09
   1  -6   4   40.94    4.29
  -1   6  -5   28.65    2.24
   1   6   5   33.28    3.52
   1  -6   5   29.08    3.82
   1  -6   5   38.63    4.00
   1   6   6   12.81    2.31
   1  -6   6   10.95    2.18
   1  -6   6   13.94    2.79
   1   6   7    0.27    0.84
   1  -6   7    1.46    1.22
   1  -6   7    0.00    0.71
   1  -6   8   43.56    5.22
   1   6   8   39.04    4.43
   1  -6   8   34.05    4.38
   1   6   9    5.41    1.77
   1  -6   9    3.73    1.59
   1  -6   9    4.06    1.72
   1  -6  10    4.30    1.74
   1  -6  10   10.50    2.79
   1   6  10    6.43    2.15
  -1  -7   8    7.45    2.14
  -1   7   8    3.74    1.61
  -1  -7   8    7.00    2.24
  -1  -7   7    8.25    2.29
  -1   7   7    5.93    1.77
  -1  -7   7    5.09    1.80
  -1   7   6   11.27    2.39
  -1  -7   6   10.45    2.47
  -1  -7   6    8.21    2.23
  -1  -7   5   62.19    5.85
  -1  -7   5   51.42    5.17
  -1   7   5   49.56    4.82
  -1  -7   4    3.19    1.52
   1  -7  -4    2.92    1.19
  -1   7   4    2.79    1.31
  -1  -7   4    3.65    1.55
   1  -7  -4    4.32    1.24
  -1  -7   3    3.64    1.46
  -1   7   3    6.34    1.64
   1  -7  -3    3.96    1.24
  -1  -7   3    2.32    1.13
   1  -7  -3    4.38    1.23
  -1  -7   2    0.92    0.58
  -1   7   2   -0.22    0.66
   1  -7  -2    0.27    0.55
  -1   7   1    3.15    1.28
  -1  -7   1    2.60    1.22
   1   7  -1    2.53    0.68
   1  -7  -1    2.21    1.06
  -1   7   1    0.91    0.63
  -1   7   0    0.32    0.47
  -1  -7   0    0.99    0.64
  -1   7   0    0.55    0.49
   1   7   0    0.30    0.32
   1  -7   0    0.57    0.62
   1  -7   1   30.32    3.63
  -1   7  -1   32.72    3.30
   1   7   1   30.99    2.75
  -1   7  -1   25.56    2.41
  -1  -7  -1   25.15    2.88
   1  -7   2   12.94    2.24
   1   7   2    9.72    1.68
  -1   7  -2   11.19    1.87
  -1   7  -2    9.66    1.33
   1  -7   2    8.77    2.09
  -1  -7  -2   11.11    1.83
   1   7   3    2.25    0.88
   1  -7   3    2.07    1.21
  -1  -7  -3    0.94    0.67
  -1   7  -3    2.26    0.88
  -1  -7  -3    2.24    0.83
   1  -7   3    2.12    1.09
  -1  -7  -4    2.38    1.06
   1   7   4    6.14    1.61
   1  -7   4    4.11    1.56
   1  -7   4    2.52    1.18
  -1   7  -4    2.73    0.98
  -1  -7  -5    6.14    1.67
   1   7   5    5.78    1.60
   1  -7   5    2.79    1.48
   1  -7   5    5.93    1.81
   1  -7   6    4.44    1.61
   1  -7   6    0.14    0.97
   1   7   6    5.35    1.72
   1  -7   7   18.16    3.44
   1  -7   7   13.21    2.80
   1   7   7   12.95    2.58
   1   7   8    5.42    1.74
   1  -7   8    2.73    1.40
   1  -7   8    3.52    1.63
   1  -7   9   -0.41    0.82
   1   7   9   -0.34    1.03
  -1  -8   7    7.50    2.38
  -1   8   7    9.89    2.48
  -1  -8   7    5.68    2.03
  -1  -8   6    0.15    0.81
  -1   8   6    1.56    1.25
  -1  -8   6    2.08    1.33
  -1  -8   5   21.52    3.67
  -1   8   5   16.58    2.93
  -1  -8   5   20.99    3.54
  -1  -8   4   79.15    6.76
  -1  -8   4   69.14    6.32
  -1   8   4   75.82    5.93
  -1   8   3   14.54    2.51
   1  -8  -3   14.88    2.50
  -1  -8   3   20.51    3.35
   1  -8  -3   17.29    2.48
   1  -8  -2   28.54    3.43
   1  -8  -2   27.56    3.12
  -1   8   2   23.56    2.99
  -1  -8   2   36.12    4.19
   1  -8  -1   22.15    3.18
  -1  -8   1   21.90    3.28
  -1   8   1   15.29    2.30
  -1   8   0   10.30    1.74
   1  -8   0   12.78    2.49
  -1  -8   0   11.71    2.36
   1   8   0   13.87    1.81
   1   8   1   22.63    2.50
   1  -8   1   28.65    3.89
  -1  -8  -1   25.94    3.18
   1   8   2   16.08    2.27
  -1  -8  -2   18.86    2.98
  -1  -8  -2   18.10    2.65
   1  -8   2   16.32    3.03
   1   8   3   17.12    2.50
   1  -8   3   19.43    3.01
   1  -8   3   18.52    3.36
  -1  -8  -3   18.90    2.96
   1  -8   4    7.49    2.06
   1   8   4    8.38    1.87
  -1  -8  -4    7.93    2.06
   1  -8   4    7.28    2.25
   1   8   5   11.91    2.33
   1  -8   5   12.80    3.02
  -1  -8  -5   13.57    2.66
   1  -8   5   12.83    2.64
   1   8   6    3.89    1.56
   1  -8   6    1.66    1.31
   1  -8   6    4.88    1.80
   1  -8   7    3.54    1.82
   1  -8   7    6.04    1.99
   1   8   7    2.62    1.40
  -1   9   6    2.26    1.41
  -1   9   5    8.95    2.22
  -1  -9   5   11.27    2.99
  -1   9   4    0.96    0.89
  -1  -9   4    1.58    1.34
  -1   9   3    0.95    0.80
  -1  -9   3    0.51    1.08
  -1  -9   2    1.60    1.03
  -1   9   2    0.62    0.78
   1  -9  -1   -0.75    0.97
  -1  -9   1   28.32    4.06
   1  -9   0    1.19    0.93
  -1  -9   0    4.62    1.57
  -1  -9  -1   10.92    2.31
   1  -9   1   10.82    2.66
  -1  -9  -2    3.08    1.37
   1  -9   2    4.27    1.79
   1  -9   3    6.06    2.14
   1   9   3    3.87    1.43
  -1  -9  -3    3.67    1.60
   1  -9   4    2.75    1.57
   1   9   4    2.99    1.25
   1  -9   4    0.68    1.22
  -1  -9  -4    4.87    1.76
   1   9   5    3.89    1.58
   1  -9   5    5.45    2.20
   1  -9   5    1.97    1.47
   1   9   6    2.02    1.27
   1  -9   6    2.51    1.52
  -1 -10   3    3.11    1.91
  -1 -10   2    1.50    1.31
  -1 -10   1    5.89    2.02
   1 -10   0    2.62    1.45
   1 -10   1    0.68    0.79
   1 -10   2    9.04    2.53
  -1 -10  -2    5.91    2.16
   1 -10   3    6.82    2.44
  -2   0  12   34.14    3.89
  -2   0  11    5.28    1.50
  -2   0  10    4.45    1.39
  -2   0  10    5.41    1.40
  -2   0   9   66.81    4.74
  -2   0   9   69.77    4.51
  -2   0   8   67.62    4.38
  -2   0   8   75.13    4.76
  -2   0   7   14.64    2.00
  -2   0   7   16.33    1.99
  -2   0   6   99.64    4.98
  -2   0   6   98.09    4.40
  -2   0   6  106.42    4.76
  -2   0   5   34.84    2.52
   2   0  -5   39.74    2.74
  -2   0   5   40.67    2.52
  -2   0   4   48.49    2.81
   2   0  -4   45.98    2.76
  -2   0   3  298.95    7.92
   2   0  -3  305.37    7.89
  -2   0   3  303.06    7.47
  -2   0   2  477.51    9.78
  -2   0   2  468.68   10.59
   2   0  -2  459.18   10.49
   2   0  -1 1096.35   19.55
  -2   0   1 1135.35   20.92
   2   0  -1 1087.71   20.65
  -2   0   0    0.69    0.33
   2   0   0    0.00    0.15
  -2   0   0    0.66    0.33
  -2   0  -1 1563.49   28.52
  -2   0  -1 1585.97   27.61
  -2   0  -1 1561.81   28.47
   2   0   1 1558.58   28.11
   2   0   1 1567.67   27.69
   2   0   1 1617.62   28.49
  -2   0  -2 1051.89   20.35
   2   0   2 1068.47   20.56
  -2   0  -2 1063.54   20.00
   2   0   2 1051.02   20.03
  -2   0  -3 2069.21   36.67
   2   0   3 2098.98   36.84
   2   0   3 2064.27   36.94
  -2   0  -3 2057.97   36.85
  -2   0  -3 2077.67   36.71
  -2   0  -4  101.67    4.40
   2   0   4   98.82    4.17
   2   0   4  103.82    4.55
  -2   0  -4  100.71    4.20
   2   0   5  910.58   19.06
  -2   0  -5  923.11   18.91
   2   0   5  920.64   19.93
   2   0   6   42.14    3.30
   2   0   6   39.29    2.80
  -2   0  -6   36.56    2.67
   2   0   7   39.86    3.00
  -2   0  -7   36.36    2.80
   2   0   7   42.04    3.53
   2   0   8  613.88   15.60
   2   0   8  647.01   17.41
   2   0   9   32.61    3.02
   2   0   9   30.52    3.43
   2   0  10    0.31    0.75
   2   0  10   -0.31    0.69
   2   0  11   28.21    3.70
   2   0  12   11.47    2.55
  -2   1  13    0.55    0.81
  -2   1  12    5.78    1.71
  -2  -1  12    3.57    1.44
  -2  -1  11    7.15    1.56
  -2   1  11    9.10    2.02
  -2  -1  11    5.21    1.55
  -2  -1  10    1.76    1.15
  -2  -1  10    4.53    1.45
  -2   1  10    1.06    0.84
  -2   1  10    1.82    0.78
  -2  -1   9   26.15    2.71
  -2   1   9   29.52    3.38
  -2  -1   9   25.37    2.93
  -2   1   9   29.18    2.73
  -2   1   8    3.02    0.85
  -2  -1   8    3.04    1.09
  -2   1   8    4.83    1.02
  -2  -1   8    2.49    0.73
  -2   1   8    4.83    1.34
  -2   1   7   47.14    3.04
  -2  -1   7   45.08    3.20
  -2   1   7   49.88    3.91
  -2   1   7   46.93    3.17
  -2  -1   7   54.21    3.97
  -2   1   6    2.58    0.66
  -2   1   6    1.85    0.90
  -2  -1   6    3.19    0.82
  -2   1   6    2.71    0.84
  -2  -1   6    2.24    0.92
   2  -1  -6    2.18    0.62
  -2   1   5    3.12    0.71
  -2  -1   5    2.62    0.77
   2  -1  -5    3.52    0.76
  -2   1   5    2.17    0.71
  -2  -1   5    3.88    0.63
  -2   1   4  561.25   13.18
   2  -1  -4  545.45   12.10
  -2   1   4  557.71   12.30
   2   1  -4  558.10   13.44
  -2  -1   4  566.00   13.24
  -2  -1   4  540.40   13.13
  -2  -1   3  572.80   13.04
   2  -1  -3  558.39   12.11
  -2   1   3  563.27   12.33
   2   1  -3  566.62   13.01
  -2  -1   3  572.90   12.98
   2  -1  -2  246.27    6.72
  -2   1   2  258.47    6.92
  -2  -1   2  255.95    7.13
   2   1  -2  242.08    6.97
   2   1  -2  248.23    6.93
  -2  -1   2  248.57    6.97
  -2   1   2  256.49    5.14
   2   1  -1  288.88    7.47
   2  -1  -1  296.61    7.72
   2   1  -1  293.73    7.51
  -2  -1   1  295.21    7.61
  -2   1   1  298.97    7.73
  -2  -1   0 1059.25   18.48
   2   1   0 1047.76   18.57
   2   1   0 1069.70   19.81
  -2   1   0 1118.34   20.84
   2  -1   0 1050.07   18.42
   2  -1   0 1043.91   20.42
  -2  -1   0 1026.59   19.90
  -2   1  -1  128.97    4.78
   2  -1   1  138.74    5.00
   2   1   1  129.35    4.25
  -2  -1  -1  126.43    4.76
  -2  -1  -1  132.67    3.93
  -2  -1  -1  128.45    4.42
   2   1   1  129.06    3.92
  -2   1  -1  131.14    4.40
   2   1   2   19.99    1.54
  -2   1  -2   22.23    1.89
  -2  -1  -2   19.42    1.90
  -2  -1  -2   18.86    1.59
  -2  -1  -2   18.76    1.54
   2  -1   2   20.33    1.68
  -2   1  -2   21.39    1.67
   2  -1   2   17.49    1.71
   2   1   2   18.22    1.49
   2   1   2   20.02    1.82
   2  -1   3  177.23    6.26
  -2  -1  -3  169.37    5.88
  -2  -1  -3  180.31    5.27
  -2   1  -3  182.07    5.91
   2   1   3  183.37    5.46
   2  -1   3  189.48    5.99
   2   1   3  180.34    6.57
   2   1   3  178.28    5.84
  -2   1  -3  181.12    6.22
  -2  -1  -4   16.96    1.87
  -2   1  -4   14.35    1.61
  -2   1  -4   15.96    1.60
   2  -1   4   11.53    1.63
   2   1   4   13.44    1.37
   2  -1   4   15.92    1.68
  -2   1  -4   20.74    1.98
   2   1   4   15.17    1.71
   2   1   4   15.06    1.94
  -2  -1  -4   15.11    1.32
   2  -1   5   60.51    3.77
   2  -1   5   67.82    3.85
   2   1   5   57.37    2.85
   2   1   5   63.38    3.86
  -2   1  -5   58.96    3.40
   2   1   5   59.78    3.70
  -2  -1  -5   61.57    2.81
  -2   1  -5   57.51    3.62
   2  -1   6   89.20    4.76
   2  -1   6   87.23    4.76
   2   1   6   86.71    4.88
   2   1   6   84.00    3.76
  -2  -1  -6   79.32    3.50
   2   1   6   91.55    4.88
   2  -1   7   30.20    2.96
  -2  -1  -7   24.80    1.96
   2   1   7   27.11    2.80
   2   1   7   28.94    2.95
   2  -1   7   26.45    2.68
   2   1   7   27.24    2.13
   2  -1   8   15.95    2.33
   2   1   8   17.82    2.51
   2   1   8   18.45    1.89
   2   1   8   19.84    2.56
   2  -1   8   15.04    2.23
  -2  -1  -8   17.39    1.81
   2   1   9  281.95   11.14
   2  -1   9  271.49   10.43
   2  -1   9  284.20   10.92
   2   1   9  276.25   10.78
   2   1   9  263.56    8.52
   2   1  10    3.33    1.38
   2  -1  10    3.16    1.26
   2  -1  10    3.67    1.38
   2  -1  11   28.99    3.67
   2   1  11   31.00    3.88
   2  -1  11   26.72    3.36
   2  -1  12    5.65    1.76
   2   1  12    7.36    2.02
   2  -1  13    2.03    1.14
  -2   2  13    7.99    2.21
  -2   2  12    5.07    1.72
  -2  -2  12    4.84    1.67
  -2  -2  11   18.81    2.99
  -2   2  11   20.71    3.19
  -2  -2  11   20.36    2.68
  -2   2  10   35.99    4.06
  -2  -2  10   35.48    3.30
  -2  -2  10   30.19    2.81
  -2  -2  10   38.46    4.06
  -2   2   9   12.40    1.56
  -2   2   9   16.44    2.63
  -2  -2   9   14.03    1.79
  -2  -2   9   13.38    1.89
  -2  -2   9   12.46    2.22
  -2  -2   8   83.22    5.45
  -2  -2   8   84.63    4.22
  -2   2   8   77.76    5.51
  -2   2   8   74.49    3.95
  -2  -2   7  125.33    5.00
  -2   2   7  138.47    7.10
  -2   2   7  123.55    4.91
  -2  -2   7  137.84    6.89
  -2  -2   6   20.12    1.73
  -2   2   6   19.64    2.45
  -2  -2   6   22.05    2.54
  -2   2   6   16.22    1.59
  -2   2   6   16.14    2.21
   2  -2  -6   17.64    1.59
  -2  -2   5  216.84    8.16
   2  -2  -5  206.87    6.04
  -2   2   5  208.71    6.28
  -2  -2   5  209.88    5.94
  -2  -2   5  209.70    7.86
  -2   2   5  219.43    8.06
  -2   2   4 1111.30   23.53
  -2   2   4 1098.69   21.32
  -2  -2   4 1146.65   23.88
   2  -2  -4 1100.47   20.94
  -2  -2   4 1129.20   23.62
   2  -2  -3  412.04    9.71
  -2   2   3  415.06    8.06
  -2  -2   3  413.62   10.89
  -2   2   3  392.95    9.73
   2   2  -3  382.63   10.79
  -2  -2   2  374.17   10.03
   2  -2  -2  360.46    9.12
   2   2  -2  367.41    9.93
  -2   2   2  366.18    9.55
  -2  -2   2  354.07    9.55
   2   2  -2  364.74    9.69
   2  -2  -1  231.74    6.97
  -2  -2   1  230.22    6.89
   2   2  -1  244.83    6.97
   2   2  -1  235.46    7.23
  -2   2   1  236.98    7.13
   2  -2   0   21.50    1.96
   2   2   0   26.28    1.29
  -2  -2   0   22.02    1.75
  -2   2   0   24.26    2.03
   2   2   0   28.22    1.90
  -2   2  -1  167.22    6.06
   2  -2   1  172.08    6.26
  -2  -2  -1  183.14    5.43
  -2  -2  -1  177.69    6.28
   2   2   1  166.41    4.75
   2   2   1  170.84    5.10
  -2  -2  -1  178.20    5.36
   2  -2   2  293.78    8.80
  -2  -2  -2  278.05    7.90
  -2  -2  -2  292.91    9.01
  -2   2  -2  286.91    8.66
   2   2   2  291.38    6.96
  -2   2  -2  290.61    7.93
  -2  -2  -2  281.27    7.38
  -2  -2  -3  185.87    6.55
   2   2   3  189.81    6.43
   2  -2   3  199.12    7.16
  -2   2  -3  187.87    6.25
  -2  -2  -3  180.05    5.38
   2   2   3  185.97    5.06
   2   2   3  184.57    6.92
  -2   2  -3  182.34    6.77
   2  -2   4  247.98    8.69
  -2  -2  -4  253.43    6.06
   2   2   4  272.99    8.48
   2   2   4  246.06    6.35
   2  -2   4  281.58    8.34
  -2   2  -4  269.00    8.08
   2  -2   5   18.42    2.31
  -2   2  -5   19.23    1.81
   2   2   5   21.05    2.27
  -2  -2  -5   17.88    1.15
   2  -2   5   19.04    2.04
   2   2   5   19.11    1.44
   2  -2   6  150.16    6.33
  -2   2  -6  141.12    5.66
   2   2   6  138.19    4.50
  -2  -2  -6  124.18    3.58
   2  -2   6  137.71    6.64
   2   2   6  139.56    6.49
   2  -2   7  195.96    8.49
   2   2   7  199.23    8.31
   2   2   7  181.40    5.71
   2  -2   7  190.74    7.82
   2  -2   8  118.01    6.72
   2  -2   8  119.78    6.39
   2   2   8  116.72    4.46
   2   2   8  128.41    6.93
   2  -2   9   56.01    4.76
   2  -2   9   60.55    4.72
   2   2   9   52.79    4.68
   2   2   9   61.09    4.92
   2  -2  10   53.19    4.92
   2   2  10   53.32    4.91
   2  -2  10   53.29    4.66
   2   2  10   54.02    4.97
   2  -2  11   18.13    3.04
   2   2  11   20.49    3.20
   2   2  11   16.19    2.94
   2  -2  11   17.78    2.85
   2   2  12   12.98    2.77
   2  -2  12    9.95    2.30
   2  -2  13    5.28    1.94
  -2  -3  12    6.29    1.91
  -2   3  12    6.79    2.23
  -2  -3  12    5.70    2.08
  -2  -3  11   13.04    2.70
  -2   3  11    8.29    2.19
  -2  -3  11   11.99    2.62
  -2  -3  10    8.44    2.22
  -2  -3  10    8.26    2.02
  -2   3  10    4.83    1.62
  -2  -3   9   14.25    2.52
  -2   3   9   14.57    2.65
  -2  -3   9   17.11    2.03
  -2  -3   9   18.30    2.99
  -2  -3   8    0.16    0.69
  -2  -3   8    1.65    0.56
  -2   3   8    2.64    1.19
  -2   3   8    1.87    0.58
  -2  -3   8    1.07    0.52
  -2  -3   8    2.11    1.06
  -2  -3   7    9.18    1.95
  -2   3   7    8.93    1.29
  -2  -3   7    9.05    1.05
  -2   3   7    9.54    1.62
  -2   3   7   10.30    2.04
  -2  -3   7    9.60    1.24
  -2  -3   7    8.60    1.77
   2  -3  -6   13.28    1.21
  -2   3   6   15.59    1.74
  -2  -3   6    9.55    1.95
  -2   3   6   17.12    2.39
  -2  -3   6   12.91    1.07
  -2   3   6   14.06    1.55
  -2  -3   6   13.02    1.27
  -2   3   6   11.02    2.02
  -2  -3   6   14.20    2.17
  -2   3   5   23.69    2.72
  -2  -3   5   27.16    1.38
  -2   3   5   26.00    2.84
  -2   3   5   27.88    2.14
   2  -3  -5   28.43    1.80
  -2  -3   5   27.03    1.53
  -2  -3   5   26.27    2.85
  -2  -3   5   28.40    2.99
  -2   3   5   27.99    2.06
  -2  -3   4  195.83    4.20
  -2   3   4  204.92    6.51
  -2  -3   4  202.93    8.11
   2  -3  -4  189.47    5.84
  -2   3   4  205.36    8.20
  -2  -3   4  214.22    8.20
  -2  -3   3  297.80    9.86
   2  -3  -3  307.97    8.29
  -2   3   3  300.01    8.48
  -2   3   3  324.24   10.18
  -2  -3   3  314.34    9.97
  -2   3   2   35.44    2.50
  -2  -3   2   32.82    1.51
   2  -3  -2   32.00    2.39
  -2  -3   2   37.68    2.91
  -2  -3   2   34.83    2.70
  -2  -3   2   40.81    3.10
   2   3  -2   35.43    2.90
  -2   3   1  146.28    5.62
   2  -3  -1  141.27    5.70
  -2  -3   1  138.02    4.10
  -2  -3   1  151.94    5.63
   2   3  -1  142.32    5.95
  -2  -3   1  149.36    5.78
   2   3  -1  147.72    5.60
  -2  -3   0  107.87    3.90
   2   3   0  113.09    5.12
   2  -3   0   99.94    4.84
  -2  -3   0  103.07    4.36
  -2   3   0  107.66    4.89
   2   3   0  102.48    4.33
   2  -3   0  110.10    3.56
   2  -3   1  109.00    5.20
  -2  -3  -1  114.76    4.45
  -2  -3  -1  114.37    4.38
  -2   3  -1  109.16    5.11
   2   3   1  110.43    4.20
   2  -3   2  964.38   22.00
   2   3   2  981.37   20.39
  -2  -3  -2 1024.94   20.88
   2   3   2 1000.87   18.96
  -2  -3  -2 1037.83   19.56
  -2  -3  -2 1030.19   22.11
  -2   3  -2 1015.16   21.84
  -2  -3  -3  387.95    9.13
   2   3   3  399.25   10.82
  -2   3  -3  380.12   10.23
   2  -3   3  398.93   11.91
  -2  -3  -3  393.71   11.82
   2   3   3  386.72    8.51
   2   3   4   59.88    3.89
  -2  -3  -4   64.27    2.36
   2   3   4   61.32    2.36
   2  -3   4   66.23    4.49
   2  -3   5   61.72    4.49
  -2   3  -5   58.76    3.10
   2   3   5   55.47    2.03
   2   3   5   60.77    4.12
   2  -3   6   45.33    4.00
   2  -3   6   43.79    3.42
   2   3   6   47.40    3.84
  -2   3  -6   43.72    2.87
   2   3   6   45.45    1.57
   2  -3   7   13.51    2.34
   2  -3   7   13.54    2.02
   2   3   7   12.41    2.10
   2  -3   8   25.55    2.92
   2   3   8   15.77    2.54
   2  -3   8   21.86    3.08
   2  -3   9   58.70    5.31
   2   3   9   54.47    4.92
   2  -3   9   59.93    4.67
   2  -3  10    7.32    2.10
   2   3  10   11.39    2.35
   2  -3  10    9.25    2.03
   2  -3  11    5.80    1.93
   2  -3  11   11.58    2.37
   2   3  11    4.95    1.82
   2   3  11    8.36    2.16
   2  -3  12   13.83    2.83
   2   3  12   15.26    3.05
   2  -3  12    9.87    2.33
   2  -3  13    4.48    1.99
  -2  -4  12    2.95    1.54
  -2  -4  11    6.58    2.22
  -2  -4  11    9.17    2.49
  -2   4  11    5.12    1.81
  -2  -4  10    9.31    2.39
  -2   4  10    7.40    2.16
  -2  -4  10    8.43    2.26
  -2   4   9   33.61    4.19
  -2  -4   9   40.66    4.68
  -2  -4   9   41.50    4.61
  -2  -4   8   35.99    4.15
  -2   4   8   36.25    4.16
  -2  -4   8   34.73    4.03
  -2  -4   7   19.62    2.93
  -2  -4   7   19.31    1.57
  -2   4   7   17.67    2.84
  -2  -4   7   19.32    2.83
  -2   4   6   51.33    4.55
  -2  -4   6   41.97    4.05
  -2   4   6   47.50    2.70
   2  -4  -6   45.57    2.06
  -2   4   6   44.86    4.24
  -2  -4   6   44.73    4.21
  -2   4   5   54.15    4.52
  -2   4   5   52.41    3.00
  -2   4   5   52.64    4.36
  -2  -4   5   56.06    4.44
  -2  -4   5   49.94    4.27
   2  -4  -5   53.17    2.58
  -2   4   4   82.94    3.95
  -2   4   4   91.54    5.62
  -2  -4   4   81.43    5.24
   2  -4  -4   83.51    3.74
  -2  -4   4   75.01    5.12
  -2   4   3 1004.96   23.54
  -2   4   3 1015.36   21.04
  -2  -4   3  991.04   18.43
   2  -4  -3 1015.41   20.86
  -2   4   3 1048.14   18.57
  -2  -4   3 1036.09   23.43
  -2  -4   3  982.93   23.48
  -2  -4   2  496.58   10.95
  -2   4   2  493.53   14.08
  -2  -4   2  476.12    9.61
   2  -4  -2  464.84   13.08
   2  -4  -2  488.86   10.11
  -2   4   2  486.05   12.40
  -2  -4   2  487.65   13.61
  -2  -4   2  486.46   13.94
  -2  -4   1   78.91    3.78
  -2  -4   1   85.67    4.66
  -2  -4   1   78.52    3.17
   2  -4  -1   82.48    4.63
  -2   4   1   81.35    4.32
  -2  -4   0  191.50    7.32
   2  -4   0  219.99    8.13
  -2  -4   0  205.82    6.35
  -2  -4   0  215.30    7.20
   2  -4   0  213.29    6.20
   2   4   1  285.25    8.20
  -2  -4  -1  298.47    8.62
   2  -4   1  293.39    9.97
  -2  -4  -1  270.74    8.41
  -2  -4  -1  300.31    8.50
   2  -4   1  298.62    8.35
   2  -4   2  953.98   22.00
   2   4   2  883.74   19.52
  -2  -4  -2  909.10   18.59
  -2  -4  -2  933.21   21.54
  -2  -4  -2  934.06   18.69
   2  -4   3  402.71   13.06
  -2  -4  -3  397.27    9.34
  -2  -4  -3  421.97    9.82
   2   4   3  388.23   11.33
  -2  -4  -3  416.41   12.83
   2  -4   4   81.57    5.47
  -2  -4  -4   76.20    2.77
  -2  -4  -4   76.67    5.19
  -2  -4  -4   77.99    3.18
   2   4   4   82.45    4.77
   2   4   5   78.29    4.99
   2  -4   5   85.65    5.83
   2  -4   6   51.47    4.66
   2   4   6   43.47    3.89
  -2   4  -6   46.57    2.80
   2  -4   7   27.10    3.57
   2   4   7   31.67    3.52
   2  -4   8   59.72    5.53
   2   4   8   55.94    4.96
   2  -4   9   24.24    3.07
   2   4   9   26.73    3.59
   2  -4   9   24.87    3.68
   2  -4  10   12.14    2.67
   2   4  10   11.90    2.52
   2  -4  10   14.49    2.61
   2  -4  11    8.07    2.32
   2  -4  11    7.94    2.02
   2   4  11    6.22    2.10
   2  -4  12   10.86    2.82
  -2  -5  11   11.52    2.78
  -2  -5  10   13.83    2.98
  -2  -5  10   16.07    3.21
  -2   5  10   14.78    3.08
  -2   5   9    2.16    1.34
  -2  -5   9    2.69    1.54
  -2  -5   9    6.55    2.21
  -2  -5   8   13.44    2.72
  -2   5   8   15.51    2.91
  -2  -5   8    6.53    1.89
  -2  -5   7    3.31    1.26
  -2   5   7    4.11    1.40
  -2   5   6   22.37    3.29
  -2   5   6   19.93    3.02
  -2  -5   6   16.40    2.73
  -2  -5   6   20.78    3.14
  -2  -5   5   16.10    2.58
  -2   5   5   20.63    2.96
  -2   5   5   19.93    2.79
   2  -5  -5   18.67    1.59
  -2  -5   5   19.73    2.83
  -2   5   5   19.42    1.84
  -2  -5   4   18.21    2.76
  -2   5   4   19.46    2.83
  -2   5   4   19.03    2.67
  -2   5   4   22.44    2.09
   2  -5  -4   22.07    2.01
  -2  -5   4   19.62    2.79
  -2   5   4   19.94    1.65
  -2   5   3   35.22    3.64
  -2  -5   3   37.56    3.62
  -2   5   3   41.95    2.37
   2  -5  -3   37.39    2.91
   2  -5  -3   36.39    2.39
  -2  -5   3   38.40    3.81
  -2   5   3   37.15    2.83
  -2  -5   2   18.55    1.77
   2  -5  -2   19.54    1.68
   2  -5  -2   16.30    2.13
  -2  -5   2   17.60    2.34
  -2   5   2   17.53    2.50
  -2   5   1    1.33    0.72
  -2  -5   1    0.51    0.33
  -2  -5   1    0.68    0.46
   2  -5  -1    0.29    0.54
  -2   5   0   28.99    2.93
   2  -5   0   31.03    3.13
  -2  -5   0   29.95    2.78
  -2  -5   0   29.36    2.33
   2  -5   0   27.01    2.26
   2  -5   1    1.04    0.72
   2   5   1    1.54    0.66
   2  -5   1    2.03    0.71
  -2  -5  -1    2.18    0.74
  -2  -5  -2  412.26   10.99
   2   5   2  404.21   11.49
  -2  -5  -2  434.84   13.48
   2  -5   2  421.46   13.77
  -2  -5  -2  418.83   10.94
   2  -5   2  413.65   11.99
   2  -5   3  236.05   10.19
   2   5   3  233.52    8.55
  -2  -5  -3  235.51    7.13
  -2  -5  -3  219.99    6.91
   2  -5   3  218.15    8.54
  -2  -5  -3  240.58    9.76
   2   5   4   15.45    2.14
  -2  -5  -4   13.41    1.34
  -2  -5  -4   10.29    1.11
  -2  -5  -4    8.66    1.85
   2  -5   4   14.60    2.49
   2   5   5    9.19    1.74
   2  -5   5   16.26    2.70
   2   5   6   25.07    3.09
   2  -5   6   26.19    3.57
   2   5   7   11.35    2.19
   2  -5   7    7.63    1.99
   2   5   8    0.12    0.63
   2  -5   8    2.10    1.26
   2   5   9    2.37    1.28
   2  -5   9    1.62    1.37
   2   5  10    4.98    1.68
   2  -5  10    1.93    1.42
   2  -5  11    8.27    2.56
  -2  -6  10   17.78    3.69
  -2   6   9   40.46    5.06
  -2  -6   9   44.96    5.33
  -2  -6   9   41.00    5.24
  -2  -6   8   31.99    4.38
  -2   6   8   40.36    4.92
  -2  -6   8   33.75    4.67
  -2  -6   7   17.33    3.09
  -2  -6   7   17.13    3.17
  -2   6   7   16.73    2.98
  -2  -6   6   19.23    3.23
  -2  -6   6   22.18    3.36
  -2   6   6   27.12    3.68
  -2   6   5   28.73    3.86
  -2   6   5   32.71    3.86
  -2  -6   5   32.36    3.99
  -2  -6   5   30.02    3.73
  -2   6   4  106.04    7.09
  -2   6   4  101.39    6.61
   2  -6  -4  106.15    5.05
  -2  -6   4  104.43    6.99
  -2  -6   4  105.42    6.97
  -2   6   3  165.52    8.69
  -2   6   3  169.86    5.85
  -2   6   3  171.09    8.30
   2  -6  -3  156.79    7.43
   2  -6  -3  149.45    5.88
  -2  -6   3  152.18    8.25
  -2  -6   3  158.07    8.55
  -2   6   2   59.66    4.96
   2   6  -2   51.00    1.75
  -2   6   2   48.93    4.12
  -2  -6   2   45.99    4.21
   2  -6  -2   59.67    4.47
  -2   6   1   61.56    4.83
  -2  -6   1   54.10    4.43
   2  -6  -1   62.52    4.78
   2  -6   0   50.00    4.39
  -2   6   0   51.31    4.21
  -2  -6   0   54.04    4.21
  -2   6  -1   50.90    4.04
   2  -6   1   44.33    4.21
   2   6   1   45.98    3.22
   2  -6   1   52.73    3.72
  -2  -6  -1   52.80    3.93
  -2   6  -2  108.65    5.87
   2   6   2  108.58    5.51
  -2  -6  -2  110.79    5.50
  -2  -6  -2  122.47    7.00
   2  -6   2  119.71    7.29
   2  -6   2  118.17    6.08
  -2  -6  -3  327.71   12.36
   2   6   3  324.34   10.88
  -2  -6  -3  314.88    9.25
  -2  -6  -3  320.42    9.55
   2  -6   3  319.19   11.33
   2  -6   3  334.29   13.20
   2  -6   4   58.13    5.33
   2   6   4   51.61    4.16
  -2  -6  -4   54.06    4.86
  -2  -6  -4   48.48    2.90
   2  -6   4   50.36    4.34
   2   6   5   16.64    2.54
  -2  -6  -5   17.42    2.90
   2  -6   5   18.47    3.05
   2  -6   5   18.96    2.85
   2   6   6   29.38    3.48
   2  -6   6   30.64    3.65
   2  -6   6   30.96    4.26
   2   6   7   26.56    3.48
   2  -6   7   23.97    3.84
   2   6   8   28.01    3.80
   2  -6   8   25.42    4.20
   2  -6   9    7.25    2.32
   2   6   9    3.87    1.67
   2  -6  10    1.75    1.59
  -2  -7   8   17.45    3.54
  -2  -7   8   10.05    2.88
  -2   7   8   21.81    3.78
  -2  -7   7    7.35    2.21
  -2  -7   7    3.51    1.82
  -2   7   7    4.77    1.72
  -2   7   6   14.33    2.82
  -2  -7   6    9.59    2.48
  -2  -7   6   13.19    2.79
  -2  -7   5   10.44    2.39
  -2   7   5    6.29    1.86
  -2  -7   5    4.51    1.91
  -2   7   4   15.76    2.90
  -2  -7   4   14.11    2.90
  -2   7   4   10.64    2.25
  -2  -7   4   14.26    2.77
  -2  -7   3   17.14    2.87
   2  -7  -3   20.18    2.73
  -2   7   3   20.38    2.98
  -2   7   3   18.70    3.03
   2  -7  -3   17.73    2.09
   2  -7  -2    1.22    0.76
  -2   7   2    0.02    0.57
   2  -7  -2    0.93    0.68
  -2   7   2    0.89    0.84
  -2  -7   2    0.87    0.72
  -2  -7   1    6.33    1.76
  -2   7   1    4.45    1.40
  -2   7   1    8.91    1.76
   2  -7  -1    7.22    1.90
  -2  -7   0    1.08    0.84
   2  -7   0    2.13    0.98
  -2   7   0    1.68    0.77
  -2   7   0    0.81    0.77
  -2   7  -1    2.23    1.08
   2  -7   1    1.27    0.85
   2   7   1    2.07    0.84
  -2  -7  -1    2.30    0.99
  -2   7  -2   45.55    3.98
   2  -7   2   45.40    4.76
   2   7   2   40.66    3.46
  -2  -7  -2   55.00    4.93
  -2  -7  -2   46.30    3.70
   2  -7   2   47.57    4.08
  -2   7  -3   54.51    4.22
   2  -7   3   53.01    5.31
   2   7   3   52.53    4.17
  -2  -7  -3   56.83    3.90
  -2  -7  -3   59.90    5.26
   2  -7   3   53.07    4.52
   2  -7   4   16.73    2.75
   2  -7   4   12.25    2.64
   2   7   4   12.57    2.15
  -2   7  -4   12.23    1.97
  -2  -7  -4   13.91    2.64
   2  -7   5   13.91    2.95
   2  -7   5   18.67    2.95
   2   7   5   16.89    2.61
  -2  -7  -5   14.91    2.77
   2   7   6   11.86    2.35
   2  -7   6    9.39    2.19
   2  -7   6   16.64    3.27
   2  -7   7    7.71    2.47
   2  -7   7    6.88    1.96
   2   7   7    7.71    1.97
   2  -7   8    7.62    2.44
   2  -7   8    8.91    2.41
   2   7   8    5.96    1.85
   2  -7   9   10.87    2.81
  -2  -8   7   10.62    2.93
  -2   8   7    8.45    2.45
  -2  -8   7   11.33    2.98
  -2  -8   6   13.22    3.00
  -2   8   6   15.20    3.03
  -2  -8   6   15.54    3.24
  -2   8   5   24.27    3.66
  -2  -8   5   20.11    3.71
  -2  -8   5   22.70    3.76
  -2   8   4   44.71    4.74
  -2  -8   4   53.37    5.60
  -2   8   3   13.57    2.73
  -2  -8   3   19.09    3.27
  -2   8   3   15.88    2.83
   2  -8  -3   14.11    2.67
  -2   8   2   22.48    3.41
  -2  -8   2   21.30    3.49
  -2   8   2   25.77    3.35
   2  -8  -2   31.06    3.72
  -2   8   1   16.39    2.85
  -2  -8   1   10.90    2.41
  -2   8   1   16.47    2.51
   2  -8  -1   16.81    2.88
  -2   8   0   18.33    2.89
  -2  -8   0   21.66    3.05
  -2   8   0   15.91    2.32
   2  -8   0   19.00    3.17
  -2   8  -1   17.76    2.76
   2  -8   1   17.00    3.04
  -2   8  -1   15.89    2.21
  -2  -8  -1   15.52    2.52
  -2   8  -2    2.15    0.97
   2  -8   2    3.08    1.64
   2   8   2    3.77    1.14
  -2  -8  -2    5.66    1.60
  -2  -8  -2    5.81    1.82
   2  -8   2    5.08    1.53
  -2   8  -3    7.04    1.72
   2  -8   3    3.55    1.40
   2   8   3    6.35    1.59
  -2  -8  -3    6.64    1.95
   2  -8   3    6.27    1.71
   2  -8   4   35.00    4.75
   2  -8   4   28.76    3.68
   2   8   4   29.61    3.46
  -2  -8  -4   38.18    4.64
   2  -8   5   11.08    2.49
   2  -8   5    7.52    2.40
   2   8   5    7.44    1.88
  -2  -8  -5    6.90    1.97
   2  -8   6    7.70    2.14
   2  -8   6    6.73    2.23
   2   8   6    8.24    2.13
   2  -8   7    4.67    2.05
   2   8   7   10.08    2.39
   2  -8   7    4.30    1.75
  -2   9   6    2.30    1.59
  -2  -9   5    4.69    2.15
  -2   9   5    5.35    1.92
  -2  -9   4    5.32    2.10
  -2   9   4   12.52    2.66
  -2  -9   3    4.93    1.82
  -2   9   3    5.80    1.83
  -2  -9   2    3.29    1.61
  -2   9   2    2.05    1.11
  -2  -9   1    1.77    1.21
  -2   9   1    1.66    0.95
   2  -9  -1    1.90    1.20
  -2   9   0    0.18    0.90
  -2  -9   0    1.16    1.20
   2  -9   0   -0.33    1.02
  -2   9  -1    3.98    1.51
   2  -9   1    1.52    1.20
  -2  -9  -1    2.45    1.25
  -2   9  -2    0.30    0.97
   2  -9   2    0.90    1.25
  -2  -9  -2    1.26    1.17
   2  -9   3   14.66    3.30
   2   9   3   12.01    2.18
  -2  -9  -3   16.53    3.16
   2   9   4    3.91    1.50
  -2  -9  -4    2.11    1.34
   2  -9   4    4.32    1.72
   2   9   5    1.36    0.98
  -2  -9  -5    2.96    1.60
   2  -9   5    4.42    1.92
   2  -9   6    3.56    1.67
   2   9   6    1.65    1.28
  -2  10   4    4.58    1.78
  -2 -10   2   15.23    3.29
  -2 -10   1    3.61    1.76
   2 -10   0    8.94    2.45
   2 -10   1    4.36    2.14
  -2 -10  -1    0.23    0.93
   2 -10   2   12.75    3.19
  -2 -10  -2   11.17    2.78
  -2 -10  -3    3.46    1.60
  -3   0  12    6.25    1.67
  -3   0  11   15.12    2.51
  -3   0  10   24.16    2.97
  -3   0  10   24.77    3.07
  -3   0   9   64.65    4.84
  -3   0   9   65.15    4.85
  -3   0   8  118.03    6.31
  -3   0   8  110.80    6.03
  -3   0   7  102.02    4.96
  -3   0   7  100.32    5.53
   3   0  -7  104.66    5.52
  -3   0   6  324.60    9.57
   3   0  -6  350.98   10.64
  -3   0   6  325.86    9.94
  -3   0   5    0.41    0.45
   3   0  -5    1.39    0.67
  -3   0   4  793.00   17.87
   3   0  -4  800.60   17.75
  -3   0   4  814.00   16.97
   3   0  -3  347.01    9.63
  -3   0   3  340.22    9.73
  -3   0   3  353.27    8.76
  -3   0   2    5.02    0.98
   3   0  -2    5.75    1.03
   3   0  -2    4.71    0.74
   3   0  -1  242.69    7.48
  -3   0   1  239.07    7.66
  -3   0   0  572.99   13.96
   3   0   0  615.09   14.07
  -3   0   0  608.68   12.94
   3   0   1    3.79    0.85
   3   0   1    2.36    0.64
  -3   0  -1    3.17    0.67
  -3   0  -1    3.48    0.84
   3   0   2  125.91    5.18
   3   0   2  122.41    4.79
   3   0   2  125.13    5.26
  -3   0  -2  132.75    5.42
  -3   0  -2  119.96    4.71
  -3   0  -3  446.28   11.21
   3   0   3  428.36   11.14
  -3   0  -3  429.28   11.44
   3   0   3  451.68   11.68
   3   0   3  434.90   12.00
  -3   0  -4    0.65    0.41
   3   0   4    0.79    0.64
   3   0   4    0.96    0.54
   3   0   4    0.60    0.60
   3   0   5    1.92    0.71
  -3   0  -5    1.56    0.65
   3   0   5    1.94    0.73
   3   0   6   51.75    3.62
   3   0   6   47.85    3.69
  -3   0  -6   47.93    3.31
   3   0   7  126.30    6.05
   3   0   7  131.74    6.70
   3   0   8  118.83    6.75
   3   0   8  106.95    5.76
   3   0   9    1.67    0.98
   3   0   9    1.13    0.87
   3   0  10   19.87    2.98
   3   0  11   27.77    3.81
   3   0  12   10.08    2.41
  -3  -1  13    5.18    1.99
  -3   1  13    4.22    1.70
  -3  -1  12    4.01    1.63
  -3   1  12    2.09    1.20
  -3  -1  11   12.26    2.13
  -3   1  11   14.11    2.56
  -3  -1  11   11.39    2.25
  -3  -1  10   24.30    2.91
  -3   1  10   26.76    3.47
  -3  -1  10   23.32    3.12
  -3   1  10   23.05    2.70
  -3  -1   9    1.48    1.00
  -3  -1   9    0.90    0.57
  -3   1   9    0.72    0.82
  -3   1   9    2.34    1.00
  -3   1   8    2.51    0.92
  -3  -1   8    6.06    1.54
  -3  -1   8    4.30    1.12
  -3  -1   8    3.31    1.09
  -3   1   8    2.74    1.03
  -3   1   7    8.59    1.70
  -3  -1   7    9.85    1.67
  -3  -1   7   10.27    1.31
  -3  -1   7   14.76    2.17
   3  -1  -7    8.49    1.47
  -3  -1   7   10.21    1.65
  -3   1   7   12.97    2.16
  -3  -1   6   15.38    2.12
  -3  -1   6   17.71    1.66
  -3   1   6   19.35    2.22
  -3   1   6   21.68    2.23
   3  -1  -6   20.11    2.10
   3   1  -6   18.27    2.29
  -3  -1   5    3.14    0.96
  -3   1   5    3.20    0.89
   3  -1  -5    2.51    0.69
   3   1  -5    3.71    0.99
   3  -1  -4   27.73    2.28
  -3   1   4   26.04    2.34
   3   1  -4   26.20    2.44
  -3  -1   4   32.08    2.58
  -3   1   4   27.56    1.84
  -3   1   3   19.78    2.00
   3  -1  -3   21.05    1.95
  -3  -1   3   14.89    1.74
   3   1  -3   20.08    2.00
  -3   1   3   19.40    1.33
  -3  -1   3   18.63    1.84
  -3   1   2  189.93    6.78
   3  -1  -2  200.43    6.76
  -3  -1   2  196.56    6.85
   3   1  -2  202.75    6.82
   3   1  -2  196.05    6.40
   3  -1  -1  749.58   16.65
  -3  -1   1  742.64   16.54
  -3   1   1  744.72   16.79
   3   1  -1  759.20   16.36
  -3   1   1  739.20   13.84
   3   1  -1  754.59   15.93
   3   1   0   53.25    3.06
  -3  -1   0   48.00    2.36
  -3   1   0   51.99    3.41
   3  -1   0   47.93    3.15
  -3  -1   0   55.58    3.25
   3  -1   0   51.82    2.41
   3   1   1  170.74    5.93
  -3   1  -1  168.46    5.83
  -3   1  -1  163.27    6.56
  -3  -1  -1  169.02    6.36
   3  -1   1  172.62    6.48
   3   1   1  175.70    5.41
  -3  -1  -1  167.72    6.17
  -3  -1  -1  170.07    5.25
   3  -1   1  160.12    5.43
  -3   1  -2  110.44    4.63
   3   1   2  107.24    4.40
  -3  -1  -2  110.64    4.37
   3   1   2  114.60    4.71
  -3   1  -2  106.17    5.05
  -3  -1  -2  112.29    5.25
   3  -1   2  111.78    5.14
  -3  -1  -2  114.31    4.90
   3   1   2  110.57    5.04
  -3  -1  -3   84.77    4.25
  -3   1  -3   82.27    4.52
   3   1   3   95.22    4.33
   3  -1   3   95.56    4.52
  -3  -1  -3   94.37    4.34
   3  -1   3   86.97    4.65
  -3   1  -3   92.02    4.37
   3   1   3   89.71    4.26
   3   1   3   80.73    4.59
  -3   1  -4  757.54   17.65
  -3  -1  -4  719.15   16.07
   3  -1   4  720.34   17.45
   3  -1   4  744.10   17.10
   3   1   4  724.76   16.90
   3   1   4  735.95   16.42
   3  -1   5    1.60    0.67
   3   1   5    0.93    0.48
   3   1   5    1.21    0.71
   3  -1   5    2.33    0.79
  -3  -1  -5    0.90    0.45
  -3  -1  -6   35.05    2.56
   3  -1   6   33.39    3.30
   3   1   6   39.58    2.98
   3  -1   6   34.49    3.15
   3   1   6   35.63    3.21
   3   1   7   12.15    1.72
  -3  -1  -7   10.48    1.44
   3   1   7   10.52    1.86
   3  -1   7   10.54    1.84
   3  -1   7   11.68    1.94
   3  -1   8   30.50    3.33
   3  -1   8   37.85    3.65
   3   1   8   38.12    3.19
   3   1   8   40.24    3.85
   3  -1   9   30.08    3.34
   3  -1   9   28.96    3.49
   3   1   9   31.66    3.02
   3   1   9   31.81    3.67
   3   1  10   14.78    2.63
   3  -1  10   21.95    3.18
   3  -1  10   17.86    2.74
   3   1  11   15.91    2.84
   3  -1  11   19.17    3.07
   3   1  12    6.54    2.06
   3  -1  12   10.06    2.46
  -3   2  13   11.82    2.75
  -3  -2  12    6.97    2.14
  -3  -2  12    6.28    1.94
  -3   2  12    6.97    2.08
  -3  -2  11    6.88    1.97
  -3   2  11    8.59    2.14
  -3  -2  11    6.89    1.93
  -3  -2  10   12.24    2.51
  -3   2  10   14.60    2.76
  -3  -2  10   17.80    2.81
  -3  -2   9   25.69    3.26
  -3  -2   9   20.31    2.28
  -3  -2   9   21.63    3.06
  -3   2   9   25.88    3.42
  -3   2   9   18.35    2.19
  -3  -2   8   33.49    3.60
  -3   2   8   25.20    3.00
  -3  -2   8   29.25    2.60
  -3   2   8   31.91    3.68
  -3  -2   8   31.89    3.66
  -3   2   7  170.55    7.88
   3  -2  -7  167.59    6.38
  -3  -2   7  176.65    8.29
  -3  -2   7  155.66    6.15
  -3   2   7  182.62    8.54
  -3   2   7  159.15    6.48
  -3  -2   7  172.47    8.06
  -3  -2   6   53.65    2.36
  -3   2   6   59.85    4.36
   3  -2  -6   55.38    3.31
  -3  -2   6   48.36    4.07
  -3   2   6   58.57    3.61
  -3  -2   6   55.65    4.19
  -3   2   5  156.15    6.97
  -3  -2   5  154.67    6.99
  -3   2   5  141.87    5.84
   3  -2  -5  153.05    5.75
   3   2  -5  154.66    7.06
  -3  -2   4   47.37    3.50
   3  -2  -4   49.27    3.07
  -3   2   4   47.18    3.20
   3   2  -4   53.12    3.78
  -3   2   4   50.15    2.03
   3   2  -3   40.89    3.11
  -3   2   3   40.92    2.99
   3  -2  -3   48.11    3.07
   3   2  -3   48.03    3.34
  -3  -2   3   53.47    3.55
  -3  -2   2 1339.00   22.73
  -3   2   2 1345.32   27.01
  -3  -2   2 1307.20   26.73
   3  -2  -2 1347.59   26.60
   3   2  -2 1352.14   26.68
   3   2  -2 1292.71   26.75
  -3   2   1  930.33   20.02
   3  -2  -1  909.45   19.59
   3   2  -1  917.33   19.05
  -3  -2   1  879.00   16.04
  -3  -2   1  871.69   19.20
   3   2  -1  898.04   19.40
   3   2   0  337.84    7.82
  -3   2   0  340.40   10.31
  -3  -2   0  344.27    9.68
   3  -2   0  345.38   10.20
  -3  -2   0  356.91    7.78
   3   2   0  345.75    9.37
  -3   2  -1  206.94    7.67
   3  -2   1  211.88    7.80
   3   2   1  207.08    6.02
  -3  -2  -1  213.86    7.06
   3   2   1  213.85    6.69
  -3  -2  -1  217.71    7.66
  -3   2  -2  546.72   14.60
  -3  -2  -2  548.16   13.45
   3   2   2  554.56   12.78
  -3  -2  -2  577.37   13.47
  -3   2  -2  569.71   13.72
   3  -2   2  580.82   14.94
   3   2   2  569.57   12.96
  -3  -2  -2  603.10   15.13
   3   2   3  176.45    6.27
   3  -2   3  171.56    7.33
   3   2   3  182.43    5.96
  -3  -2  -3  165.18    6.12
  -3  -2  -3  166.78    7.38
   3  -2   4  333.44   11.02
  -3  -2  -4  331.67    8.71
   3   2   4  301.56    8.55
   3   2   4  321.82    9.74
   3  -2   5  147.85    7.11
   3   2   5  140.18    6.44
   3  -2   5  167.15    6.93
  -3  -2  -5  155.79    5.25
   3   2   5  152.97    5.53
   3  -2   6  156.03    7.55
   3   2   6  149.86    7.00
   3  -2   6  155.99    7.04
   3   2   6  158.74    5.72
  -3  -2  -6  149.94    5.08
   3   2   7   33.43    3.37
   3  -2   7   23.57    3.00
   3  -2   7   29.72    3.07
   3   2   7   31.26    2.43
  -3  -2  -7   29.59    2.04
   3  -2   8   38.74    3.89
   3  -2   8   34.42    3.53
   3   2   8   36.04    2.72
   3   2   8   34.17    3.66
   3  -2   9   99.64    6.81
   3  -2   9  107.21    6.64
   3   2   9  100.60    6.77
   3  -2  10   48.45    4.64
   3  -2  10   46.72    4.79
   3   2  10   44.81    4.71
   3  -2  11   -0.25    0.72
   3  -2  11   -1.68    1.04
   3  -2  12   11.81    2.56
  -3  -3  12    4.10    1.75
  -3   3  12    3.75    1.72
  -3  -3  12    4.46    1.76
  -3  -3  11   10.02    2.54
  -3   3  11    6.73    2.00
  -3  -3  11    7.97    2.27
  -3  -3  10    7.49    1.92
  -3   3  10    8.76    2.26
  -3  -3  10    8.29    2.19
  -3  -3   9   11.11    2.29
  -3   3   9    5.70    1.79
  -3  -3   9   12.49    2.46
  -3   3   8   79.57    5.79
  -3  -3   8   73.85    3.65
  -3   3   8   70.52    5.73
  -3  -3   8   76.41    3.77
  -3  -3   8   72.76    5.73
  -3  -3   8   65.99    5.38
   3  -3  -8   67.69    3.71
  -3   3   7   34.40    3.68
  -3  -3   7   35.92    3.88
  -3  -3   7   34.17    2.29
  -3   3   7   30.59    3.68
  -3  -3   7   36.58    2.32
   3  -3  -7   32.26    2.42
  -3  -3   7   32.88    3.64
  -3  -3   6   12.33    2.16
  -3   3   6   10.63    2.06
  -3   3   6   14.37    1.88
  -3  -3   6   12.67    2.27
  -3  -3   6   13.28    1.34
  -3   3   6   11.91    1.31
  -3  -3   6   14.24    1.26
   3  -3  -6   15.15    1.63
  -3  -3   5   16.58    2.38
   3  -3  -5   14.38    1.62
  -3   3   5   18.97    2.51
  -3  -3   5   18.41    2.54
  -3   3   5   13.70    1.81
  -3  -3   5   13.98    0.98
  -3   3   5   14.20    1.14
   3  -3  -4    6.36    1.10
  -3   3   4    5.84    1.40
  -3  -3   4    4.60    1.30
   3   3  -4    5.38    1.29
  -3  -3   4    5.72    1.39
  -3   3   4    4.42    1.03
  -3   3   3  112.93    5.37
   3  -3  -3  113.19    5.23
  -3  -3   3  108.48    5.76
   3   3  -3  111.71    5.73
  -3   3   2  576.10   14.66
   3  -3  -2  569.52   14.38
   3   3  -2  581.14   14.76
  -3   3   1   96.93    5.05
   3  -3  -1   99.31    5.07
   3   3  -1  102.78    4.87
  -3  -3   0   16.60    1.84
  -3  -3   0   13.07    1.39
   3  -3   0   11.68    1.81
   3   3   0   12.24    1.08
   3   3   0   14.87    1.70
  -3  -3  -1  238.35    7.41
   3  -3   1  254.70    9.16
   3   3   1  238.89    6.65
  -3  -3  -1  240.38    7.84
   3   3   1  255.78    7.59
   3  -3   2   47.83    3.85
   3   3   2   49.14    2.88
  -3  -3  -2   48.07    3.09
  -3  -3  -2   49.23    3.79
   3   3   2   51.11    2.91
   3   3   3   28.22    2.41
   3  -3   3   36.06    3.42
  -3  -3  -3   27.16    2.33
  -3  -3  -3   27.04    2.99
   3   3   3   26.56    2.04
   3  -3   4   93.38    5.68
   3   3   4   93.17    4.79
  -3  -3  -4   86.89    4.15
   3   3   4   90.59    3.77
   3   3   5    3.06    0.68
   3  -3   5    2.22    0.98
   3   3   5    2.18    0.86
  -3  -3  -5    2.13    0.53
   3  -3   6   18.44    2.72
   3   3   6   13.28    1.30
   3   3   6   15.14    2.24
  -3  -3  -6   15.41    1.18
   3  -3   7   83.32    6.11
   3  -3   7   86.26    5.50
   3   3   7   83.88    5.55
   3   3   7   77.50    3.21
   3  -3   8    9.00    1.83
   3  -3   8    6.85    1.81
   3   3   8    6.90    1.68
   3  -3   9   20.24    3.26
   3  -3   9   15.73    2.57
   3   3   9   19.03    2.92
   3   3  10   38.43    4.41
   3  -3  10   36.77    4.12
   3  -3  10   32.18    4.22
   3  -3  11   -0.02    0.99
   3   3  11    2.62    1.62
   3  -3  11    1.02    1.08
   3  -3  12    3.90    1.68
   3  -3  12    6.92    2.08
  -3  -4  12    3.07    1.80
  -3  -4  11    5.36    2.06
  -3  -4  11    2.56    1.52
  -3   4  11    5.70    2.03
  -3   4  10    5.94    2.01
  -3  -4  10    4.19    1.52
  -3  -4  10    5.65    1.96
  -3  -4   9   19.33    3.24
  -3   4   9   13.21    2.76
  -3  -4   9   12.39    2.63
  -3   4   8   72.42    5.96
  -3   4   8   67.12    5.97
  -3  -4   8   68.21    5.86
  -3  -4   8   75.37    6.07
  -3   4   7  195.88    9.87
  -3   4   7  189.84    9.84
  -3  -4   7  185.30    9.45
  -3  -4   7  174.02    9.31
   3  -4  -7  186.89    5.96
  -3   4   6   54.43    4.81
  -3  -4   6   53.93    1.80
  -3   4   6   57.37    5.01
  -3  -4   6   48.49    4.51
   3  -4  -6   53.96    3.09
  -3  -4   6   57.39    4.92
  -3  -4   5   21.36    2.89
  -3   4   5   21.66    2.95
  -3   4   5   20.21    2.20
  -3  -4   5   23.14    1.16
  -3  -4   5   25.92    3.20
   3  -4  -5   21.66    2.02
  -3   4   4   29.47    3.30
  -3   4   4   24.49    2.45
  -3  -4   4   25.61    1.31
  -3  -4   4   30.38    3.26
   3  -4  -4   25.72    2.35
  -3  -4   4   28.61    3.27
  -3  -4   3  477.63    9.91
  -3  -4   3  463.93   14.46
   3  -4  -3  507.01   13.32
  -3  -4   2  178.75    5.30
   3  -4  -2  202.15    7.80
  -3  -4   2  192.68    8.03
   3   4  -2  182.63    7.68
  -3  -4   1  158.72    5.28
   3  -4  -1  160.27    7.32
  -3  -4   1  163.52    7.01
   3   4  -1  160.06    3.69
   3   4  -1  149.95    6.63
  -3  -4   0  174.34    6.02
   3   4   0  176.06    4.91
   3  -4   0  169.46    7.73
   3  -4   0  174.28    5.23
   3   4   0  174.67    6.80
  -3  -4  -1   47.33    3.24
   3  -4   1   51.15    4.10
   3   4   1   44.64    2.55
   3   4   1   42.35    3.00
   3  -4   2   27.93    3.08
   3   4   2   21.48    1.96
  -3  -4  -2   24.72    2.87
  -3  -4  -2   22.70    2.23
   3   4   2   22.92    2.05
   3  -4   3  165.72    8.16
  -3  -4  -3  174.67    6.38
   3   4   3  164.35    5.68
  -3  -4  -3  170.30    8.16
  -3  -4  -4   69.79    3.64
   3  -4   4   68.43    5.24
  -3  -4  -4   63.71    5.11
   3   4   4   65.83    3.16
   3  -4   5   97.42    6.37
  -3  -4  -5   84.09    3.28
  -3  -4  -5   78.41    3.09
   3   4   5   85.53    5.36
   3   4   5   90.48    3.49
   3  -4   6   29.94    3.67
   3   4   6   25.59    3.01
   3   4   6   30.38    1.71
   3  -4   7   46.42    4.76
   3   4   7   54.81    4.71
   3   4   8   30.21    3.60
   3   4   8   33.99    3.90
   3  -4   8   27.97    3.87
   3  -4   9   20.06    3.35
   3   4   9   13.66    2.64
   3   4  10   29.79    4.09
   3  -4  10   28.84    4.27
   3  -4  11   15.54    3.36
   3   4  11   19.29    3.38
   3  -4  12    4.26    1.78
  -3  -5  10    7.04    2.26
  -3  -5  10    9.13    2.49
  -3   5  10    4.38    1.80
  -3  -5   9    0.40    1.32
  -3   5   9    2.44    1.44
  -3  -5   9    2.09    1.64
  -3  -5   8   63.01    5.91
  -3   5   8   70.80    6.46
  -3  -5   8   68.48    6.10
  -3   5   7   47.82    5.05
  -3   5   7   42.89    4.84
  -3  -5   7   41.39    4.60
  -3  -5   7   48.33    4.93
  -3   5   6    6.88    2.10
   3  -5  -6    7.38    1.13
  -3   5   6    6.11    1.84
  -3  -5   6    9.58    2.16
  -3  -5   6    5.15    1.68
   3  -5  -5    2.62    0.76
  -3  -5   5    4.05    1.57
  -3   5   5    3.89    1.59
  -3  -5   5    5.01    1.59
  -3  -5   4   14.14    1.16
  -3   5   4   15.65    2.62
  -3  -5   4   15.30    2.68
   3  -5  -4   16.88    2.04
  -3  -5   4   14.94    2.50
  -3  -5   3   21.29    1.82
  -3   5   3   21.85    2.95
  -3  -5   3   18.26    1.24
   3  -5  -3   21.30    2.46
  -3  -5   3   22.17    2.94
  -3  -5   2  172.28    6.39
  -3   5   2  174.25    8.48
  -3  -5   2  171.13    5.33
   3  -5  -2  183.29    8.16
   3  -5  -2  170.82    7.63
  -3  -5   2  180.05    8.28
   3  -5  -2  171.76    4.55
   3   5  -1   10.85    0.76
  -3  -5   1   11.04    1.38
  -3  -5   1   10.55    1.82
   3  -5  -1    9.91    1.90
   3  -5   0    9.43    1.26
   3  -5   0    5.46    1.47
  -3  -5   0    8.77    1.34
  -3  -5   0    9.24    1.75
   3   5   0    9.68    1.04
   3  -5   1    6.85    1.20
  -3  -5  -1    6.83    1.41
   3  -5   1    4.22    1.43
   3  -5   2   29.34    3.43
  -3  -5  -2   28.52    2.60
  -3  -5  -2   26.00    3.15
   3  -5   2   28.00    2.57
   3  -5   3   16.42    2.71
  -3  -5  -3   21.87    2.97
  -3  -5  -3   16.57    1.86
  -3  -5  -3   19.56    2.08
   3  -5   4   31.22    3.77
   3   5   4   31.87    3.21
  -3  -5  -4   28.29    2.41
  -3  -5  -4   30.03    3.66
  -3  -5  -4   31.18    2.25
   3  -5   5   32.64    3.96
   3   5   5   36.15    3.62
  -3  -5  -5   31.48    1.88
   3  -5   6   36.11    4.31
   3   5   6   34.91    3.73
   3  -5   7   15.55    3.02
   3   5   7   20.65    2.99
   3  -5   8   20.29    3.48
   3   5   8   19.02    3.07
   3  -5   9    4.98    1.97
   3   5   9    2.88    1.28
   3   5   9    6.04    1.84
   3  -5  10   13.08    3.22
   3   5  10   18.88    3.37
   3  -5  11    7.12    2.51
  -3  -6   9   10.30    2.85
  -3  -6   9   12.02    2.99
  -3   6   9   15.24    3.28
  -3  -6   8   30.80    4.31
  -3  -6   8   33.36    4.60
  -3   6   8   25.56    4.04
  -3  -6   7    7.05    2.26
  -3   6   7    7.82    2.42
  -3   6   7    6.22    1.94
  -3  -6   7    6.34    2.06
  -3   6   6   30.74    4.15
  -3   6   6   27.77    3.87
  -3  -6   6   23.34    3.53
  -3  -6   6   29.47    4.02
   3  -6  -5    9.91    1.55
  -3   6   5   10.16    2.37
  -3   6   5    6.77    1.83
  -3  -6   5   10.75    2.33
  -3  -6   5   11.95    2.64
  -3   6   4   19.38    3.13
   3  -6  -4   20.07    2.37
  -3  -6   4   23.18    3.24
  -3  -6   4   21.82    3.32
  -3   6   3   49.50    4.80
   3  -6  -3   43.66    3.75
  -3  -6   3   34.07    3.79
  -3   6   2  160.32    8.62
  -3  -6   2  153.48    7.97
   3  -6  -2  158.00    8.10
   3  -6  -2  148.75    4.97
  -3   6   1  106.77    6.72
  -3  -6   1   97.85    4.56
   3  -6  -1  112.77    6.88
   3   6  -1  100.86    2.92
  -3  -6   1  102.47    6.24
  -3  -6   0   39.99    3.61
   3  -6   0   39.38    4.17
   3   6   0   36.43    2.18
   3  -6   1   72.78    5.73
   3  -6   1   68.36    4.10
  -3  -6  -1   64.06    4.40
   3  -6   2   64.42    5.50
  -3  -6  -2   50.75    3.73
  -3  -6  -2   53.81    4.91
   3  -6   2   52.60    3.95
   3  -6   3  149.97    8.89
  -3  -6  -3  139.19    5.94
  -3  -6  -3  147.91    8.53
   3  -6   3  136.57    6.93
   3  -6   4  191.31   10.34
   3   6   4  189.62    8.52
  -3  -6  -4  183.83    6.58
   3  -6   4  199.45    8.85
  -3  -6  -4  178.80    9.72
   3  -6   5   71.79    6.33
   3   6   5   59.56    4.87
  -3  -6  -5   56.07    5.51
   3   6   6   25.89    3.38
   3  -6   6   25.62    3.98
   3  -6   7   14.46    3.08
   3   6   7   10.18    2.23
   3  -6   8   18.76    3.59
   3   6   8   16.17    2.87
   3  -6   9   11.26    3.19
   3   6   9   10.67    2.57
  -3  -7   8   25.70    4.34
  -3   7   8   22.74    4.06
  -3  -7   8   18.08    3.56
  -3  -7   7    2.12    1.43
  -3   7   7    5.56    2.10
  -3  -7   7    3.27    1.50
  -3  -7   6    8.05    2.41
  -3   7   6    6.98    2.08
  -3   7   6    6.18    1.98
  -3  -7   6    5.51    1.96
  -3  -7   5    2.96    1.57
  -3   7   5    3.59    1.73
  -3   7   5    1.26    1.13
  -3  -7   5    1.57    1.19
  -3   7   4    1.28    1.16
  -3   7   4   -0.70    0.82
  -3  -7   4    0.34    0.89
  -3   7   3    2.77    1.47
  -3   7   3   -0.09    0.83
   3  -7  -3    1.25    0.85
  -3  -7   3    2.04    1.12
  -3   7   2   12.89    2.62
  -3  -7   2   12.10    2.44
   3  -7  -2   19.34    2.99
  -3   7   1    5.40    1.64
   3  -7  -1    6.28    1.87
  -3  -7   1    6.59    1.80
   3  -7   0   13.30    2.65
  -3   7   0   11.74    2.39
  -3  -7   0   16.93    2.61
  -3  -7  -1    7.47    1.67
  -3   7  -1    7.49    1.84
   3  -7   1   10.28    2.29
   3  -7   1    8.00    1.53
   3  -7   2    1.66    0.97
  -3  -7  -2    3.46    1.22
  -3   7  -2    4.77    1.48
   3  -7   2    4.18    1.63
  -3  -7  -2    1.93    1.05
   3  -7   3   23.93    3.68
  -3  -7  -3   24.06    2.63
  -3  -7  -3   25.75    3.66
   3  -7   3   26.42    3.20
   3  -7   4    6.73    1.75
   3  -7   4   11.45    2.76
  -3  -7  -4    6.22    2.03
   3  -7   5   24.70    3.37
   3  -7   5   25.85    4.13
   3   7   5   23.54    3.18
  -3  -7  -5   24.76    3.83
   3  -7   6    1.88    1.19
   3  -7   6    2.17    1.61
   3   7   6    3.76    1.43
   3  -7   7    5.90    1.97
   3  -7   7    3.86    1.99
   3   7   7    6.20    1.85
   3  -7   8    7.69    2.17
   3  -7   8    9.01    2.74
   3   7   8    6.99    2.04
  -3  -8   6    0.15    0.91
  -3   8   6    3.15    1.55
  -3  -8   5    4.03    1.81
  -3   8   5    6.25    2.31
  -3   8   5    5.19    1.81
  -3  -8   4   11.29    2.81
  -3   8   4   11.30    2.68
  -3   8   4   17.65    3.04
  -3  -8   3   17.92    3.32
  -3   8   3   14.17    2.90
  -3   8   3   13.37    2.71
  -3   8   2   35.78    4.60
  -3   8   2   29.91    3.84
   3  -8  -2   42.83    4.64
  -3  -8   2   31.87    4.39
  -3   8   1   62.22    5.83
  -3   8   1   67.35    5.48
   3  -8  -1   64.50    5.97
  -3  -8   1   65.92    5.75
  -3  -8   0   17.66    2.82
   3  -8   0   16.75    3.15
  -3   8   0   15.86    2.83
  -3   8  -1   19.67    3.04
  -3  -8  -1   17.19    2.66
   3  -8   1   16.39    3.17
   3  -8   2   15.41    3.10
  -3   8  -2   23.54    3.30
  -3  -8  -2   21.65    2.78
  -3  -8  -2   20.94    3.51
   3  -8   2   21.95    2.92
  -3   8  -3   44.05    4.36
   3  -8   3   46.08    5.52
  -3  -8  -3   37.93    5.09
   3  -8   3   44.28    4.33
  -3  -8  -4   77.40    6.95
   3  -8   4   88.17    6.51
   3  -8   5    7.30    2.04
   3  -8   5   12.33    3.19
  -3  -8  -5   11.63    2.83
   3  -8   6    8.06    2.22
   3  -8   6    7.09    2.48
   3  -8   7    6.70    2.10
  -3   9   5    4.16    1.87
  -3  -9   4   -0.10    0.86
  -3   9   4   -0.85    1.10
  -3  -9   3    0.66    1.15
  -3   9   3    2.53    1.29
  -3   9   2    8.57    2.33
  -3  -9   2   10.36    2.58
  -3   9   2    9.58    2.40
  -3   9   1   14.19    2.92
  -3  -9   1   15.24    2.90
  -3   9   1   13.17    2.50
   3  -9  -1   14.62    3.14
  -3   9   0    3.37    1.60
  -3  -9   0    0.04    0.70
   3  -9   0    2.22    1.73
   3  -9   1    1.91    1.69
  -3   9  -1    1.86    1.31
  -3  -9  -1    1.08    0.65
  -3   9  -2    0.37    0.82
  -3  -9  -2    1.84    1.41
   3  -9   3   17.91    3.67
  -3  -9  -3    9.72    2.51
   3  -9   4    8.26    2.80
  -3  -9  -4    1.22    1.23
   3  -9   5    4.10    1.53
  -3  -9  -5    3.52    1.95
   3  -9   6    3.22    1.66
  -3 -10   2    9.99    2.74
  -3 -10   1    2.47    1.37
  -3  10   0    1.67    1.54
   3 -10   0    1.23    1.36
   3 -10   1    6.40    2.32
  -4   0  11   20.39    2.99
  -4   0  11   15.97    2.67
  -4   0  11   13.59    2.46
  -4   0  10    2.57    1.20
  -4   0  10    2.56    1.18
  -4   0  10    0.50    0.67
  -4   0   9   18.25    2.59
  -4   0   9   21.48    2.86
  -4   0   9   18.91    2.75
  -4   0   8   11.02    1.89
  -4   0   8   12.32    1.87
   4   0  -8   13.56    2.22
  -4   0   8   14.87    2.26
  -4   0   7   12.92    1.88
  -4   0   7   11.09    1.73
   4   0  -7    7.23    1.62
   4   0  -6  376.20   11.83
  -4   0   6  369.60   10.99
   4   0  -5  231.13    8.64
  -4   0   5  231.67    7.73
   4   0  -4  133.70    6.05
  -4   0   4  116.78    5.02
   4   0  -3   28.93    2.67
   4   0  -3   25.72    2.04
   4   0  -2   35.11    2.35
   4   0  -2   30.48    2.71
  -4   0   1 2721.02   47.66
   4   0  -1 2738.11   49.74
  -4   0   0 1993.40   36.60
  -4   0   0 1975.29   38.55
   4   0   0 2035.42   38.38
  -4   0   0 2007.87   36.72
   4   0   1  186.82    6.67
  -4   0  -1  176.09    7.33
  -4   0  -1  185.44    6.40
   4   0   1  196.71    7.48
   4   0   2  413.19   12.06
  -4   0  -2  405.81   12.18
   4   0   2  413.70   11.67
   4   0   3  318.35    9.82
   4   0   3  319.85   10.35
   4   0   4   74.72    4.63
   4   0   4   70.61    4.33
   4   0   5    0.53    0.62
   4   0   5    0.01    0.45
   4   0   6   94.73    5.62
   4   0   6   86.48    5.32
   4   0   7   42.22    3.77
   4   0   7   43.48    3.97
   4   0   8    8.29    1.80
   4   0   8   14.09    2.29
   4   0   9   40.57    4.01
   4   0   9   39.79    4.27
   4   0  10    8.60    2.05
   4   0  10   12.90    2.31
   4   0  11    9.91    2.45
  -4  -1  12    2.46    1.40
  -4   1  12    0.41    0.82
  -4  -1  11    3.33    1.38
  -4   1  11    1.38    1.06
  -4  -1  11    4.57    1.61
  -4  -1  10    9.13    2.15
  -4   1  10   13.37    2.32
  -4  -1  10    8.33    1.72
  -4   1  10    9.32    2.14
  -4   1  10    9.75    1.96
  -4  -1  10    9.52    2.14
  -4  -1   9   24.60    3.09
  -4   1   9   25.91    3.09
  -4  -1   9   24.05    2.88
  -4   1   9   26.70    3.45
  -4  -1   9   32.43    3.67
  -4   1   9   24.20    2.78
  -4  -1   8   23.45    2.32
  -4   1   8   25.43    2.95
  -4  -1   8   26.99    2.91
  -4   1   8   35.83    3.78
  -4  -1   8   32.30    3.54
  -4  -1   8   30.68    3.31
   4  -1  -8   31.22    3.15
  -4   1   8   30.44    2.87
  -4  -1   7   29.48    2.48
  -4   1   7   29.82    3.09
   4   1  -7   30.15    3.33
   4  -1  -7   30.59    2.95
  -4  -1   7   30.64    3.12
  -4   1   7   31.12    2.72
   4   1  -6  263.88   10.16
   4  -1  -6  277.69    9.44
  -4  -1   6  256.85    9.47
  -4   1   6  273.54    8.32
   4  -1  -5   19.09    2.20
   4   1  -5   18.10    2.34
  -4   1   5   18.59    1.74
  -4  -1   5   18.26    2.18
   4  -1  -4    2.50    0.87
   4   1  -4    1.43    0.67
  -4  -1   4    1.82    0.78
   4   1  -3   39.76    3.19
   4  -1  -3   34.46    2.93
   4   1  -3   38.50    2.90
   4  -1  -2   36.81    3.06
   4   1  -2   38.99    3.07
  -4   1   2   47.12    2.27
   4   1  -2   39.03    2.84
   4  -1  -2   38.17    2.03
  -4  -1   1  513.61   11.50
   4  -1  -1  487.31   13.50
   4   1  -1  489.21   13.11
  -4   1   1  487.52   10.89
   4   1  -1  502.83   12.58
   4  -1   0   41.45    3.37
   4   1   0   42.87    3.18
  -4  -1   0   47.41    3.25
  -4  -1   0   43.42    2.59
   4   1   1   15.03    1.89
   4  -1   1   15.32    2.07
  -4  -1  -1   15.62    1.98
  -4  -1  -1   18.46    1.75
   4  -1   1   17.04    1.76
  -4  -1  -1   19.55    2.20
   4  -1   2  109.82    5.08
  -4  -1  -2  107.18    5.44
   4  -1   2  107.39    5.65
   4   1   2  100.51    4.67
   4   1   2  107.02    5.20
  -4  -1  -2  115.05    5.84
  -4  -1  -2  106.18    4.70
  -4  -1  -3  124.03    5.93
   4  -1   3  144.12    6.72
   4   1   3  131.00    5.70
   4   1   3  126.04    5.85
  -4  -1  -4   14.67    1.94
   4  -1   4   19.61    2.45
   4  -1   4   18.83    2.33
   4   1   4   17.53    2.10
   4   1   4   21.06    2.29
   4   1   5  184.38    7.47
  -4  -1  -5  183.16    7.25
   4  -1   5  194.92    7.99
   4  -1   5  181.58    8.09
   4   1   5  186.02    7.76
   4  -1   6   52.14    4.25
   4   1   6   49.83    3.74
   4  -1   6   47.96    3.97
   4   1   6   46.37    3.95
   4  -1   7   24.20    3.05
   4   1   7   33.35    3.16
   4  -1   7   34.13    3.51
   4   1   7   27.07    3.14
   4  -1   8   39.45    3.97
   4   1   8   42.50    3.65
   4  -1   8   36.17    3.82
   4   1   8   39.46    3.99
   4  -1   9   12.32    2.29
   4   1   9    9.86    1.84
   4  -1   9   11.22    2.28
   4   1   9   10.24    2.21
   4  -1  10    3.38    1.47
   4  -1  10    4.51    1.71
   4   1  10    1.03    0.78
   4  -1  11    3.36    1.50
   4   1  11    2.93    1.32
  -4   2  12   17.93    3.34
  -4  -2  12   21.00    3.60
  -4  -2  12   23.70    3.68
  -4  -2  11    9.80    2.37
  -4   2  11   11.06    2.51
  -4  -2  11   12.20    2.53
  -4  -2  10   18.28    3.02
  -4   2  10   14.51    2.85
  -4  -2  10   12.69    2.59
  -4  -2   9    7.34    1.92
  -4   2   9    5.71    1.59
  -4  -2   9    7.05    1.43
  -4   2   9    5.14    1.66
  -4  -2   9   10.44    2.21
  -4   2   8   24.55    3.08
  -4  -2   8   23.72    2.55
  -4   2   8   21.37    3.12
  -4  -2   8   20.52    3.05
   4  -2  -8   26.35    2.79
  -4  -2   8   25.21    3.27
  -4   2   8   23.92    2.32
  -4  -2   7  336.31    8.68
  -4   2   7  355.85   12.54
  -4  -2   7  355.05   12.94
   4  -2  -7  350.83   10.89
  -4  -2   7  353.79   12.47
  -4   2   7  338.13    9.51
  -4   2   6  395.49   13.22
   4  -2  -6  430.94   12.18
  -4  -2   6  410.95   13.23
  -4   2   6  418.13   10.06
   4   2  -6  413.20   13.77
   4  -2  -5  182.80    7.18
  -4   2   5  180.39    5.10
  -4  -2   5  185.07    7.99
   4   2  -5  178.85    8.10
   4  -2  -4   50.28    3.59
  -4  -2   4   54.18    3.95
   4   2  -4   45.19    3.70
   4  -2  -3  202.15    7.73
   4   2  -3  195.52    7.92
   4  -2  -2  286.82    9.70
  -4  -2   2  287.75    6.96
   4   2  -2  286.08    9.47
  -4  -2   1  160.20    4.87
   4  -2  -1  163.02    7.09
   4   2  -1  176.65    6.92
   4   2   0  664.94   15.66
   4  -2   0  625.54   16.54
  -4  -2   0  625.40   13.36
   4  -2   0  637.69   13.18
   4  -2   1  285.02    8.26
   4   2   1  300.03    9.26
   4   2   1  297.24    8.28
   4  -2   1  304.04   10.46
  -4  -2  -1  298.16    8.11
  -4  -2  -1  320.85   10.35
  -4  -2  -2   12.67    1.80
   4  -2   2   12.27    1.99
   4   2   2   11.05    1.46
   4   2   2   12.48    1.69
  -4  -2  -2   18.29    2.35
   4  -2   2   13.75    2.03
   4  -2   3   73.35    4.96
  -4  -2  -3   69.19    4.34
   4   2   3   75.62    4.18
   4   2   3   75.07    4.14
  -4  -2  -3   77.35    5.17
   4  -2   4  216.27    9.03
  -4  -2  -4  205.01    7.55
   4   2   4  203.29    7.37
   4   2   4  203.61    7.76
  -4  -2  -5   58.79    3.65
   4  -2   5   55.51    4.65
   4   2   5   56.21    4.10
   4   2   5   52.98    3.54
  -4  -2  -6   24.16    2.30
   4  -2   6   27.68    3.27
   4  -2   6   33.87    3.38
   4   2   6   30.23    3.18
   4   2   6   28.85    2.66
   4  -2   7   48.22    4.30
   4  -2   7   56.10    4.80
   4   2   7   48.27    4.25
   4   2   7   51.78    3.60
   4  -2   8   52.50    4.85
   4  -2   8   60.96    5.03
   4   2   8   60.76    4.01
   4   2   8   56.63    4.89
   4  -2   9   21.25    3.24
   4  -2   9   27.56    3.60
   4   2   9   21.73    3.22
   4   2  10   11.63    2.48
   4  -2  10    9.59    2.33
   4  -2  10   11.92    2.47
   4  -2  11    2.73    1.35
   4  -2  11    1.42    1.13
   4  -2  12    4.03    1.95
  -4  -3  12    5.82    2.25
  -4  -3  12    5.36    2.05
  -4  -3  11    2.48    1.67
  -4   3  11    1.77    1.17
  -4  -3  11    3.30    1.59
  -4  -3  10    9.84    2.37
  -4   3  10   10.23    2.50
  -4  -3  10    9.76    2.43
  -4  -3   9   26.86    3.65
  -4   3   9   27.48    3.69
  -4   3   9   22.49    3.45
  -4  -3   9   21.86    3.39
  -4   3   8    3.77    1.47
   4  -3  -8    0.49    0.58
  -4   3   8    2.28    1.36
  -4  -3   8    2.80    1.32
  -4  -3   8    2.00    1.07
  -4   3   7   42.76    4.30
  -4  -3   7   48.02    4.63
   4  -3  -7   44.88    3.30
  -4  -3   7   37.99    4.04
  -4   3   6  146.70    7.92
  -4  -3   6  155.98    8.29
   4  -3  -6  158.30    6.53
  -4  -3   6  152.60    7.96
  -4   3   6  151.13    4.20
   4  -3  -5    6.40    1.30
   4   3  -5    6.61    1.60
  -4  -3   4   22.89    1.13
   4  -3  -4   17.93    2.19
   4   3  -4   22.05    2.72
  -4  -3   4   21.41    2.72
   4  -3  -3   15.28    2.05
  -4  -3   3   18.48    0.94
   4   3  -3   18.34    2.40
   4  -3  -2   14.56    2.09
   4   3  -2   13.10    1.93
  -4  -3   2   13.70    0.93
   4  -3  -1   31.86    3.17
   4   3  -1   35.83    3.06
   4  -3   0  143.09    7.01
   4   3   0  140.00    6.09
   4  -3   1    2.97    1.15
   4   3   1    2.53    0.83
   4   3   1    1.35    0.55
  -4  -3  -1    1.01    0.64
   4   3   2   67.95    3.90
   4   3   2   60.55    3.51
   4  -3   2   67.08    5.00
   4   3   3   20.00    2.13
  -4  -3  -3   15.71    2.03
   4  -3   3   17.02    2.47
   4   3   3   19.28    1.98
  -4  -3  -3   19.17    2.69
   4  -3   4   22.89    2.97
  -4  -3  -4   21.00    2.30
   4   3   4   25.82    2.61
   4   3   4   24.28    2.20
   4  -3   5   39.20    4.06
  -4  -3  -5   39.45    2.87
   4   3   5   36.50    3.33
   4   3   5   36.91    2.71
  -4  -3  -6   51.68    3.11
   4  -3   6   61.43    5.21
   4   3   6   55.69    4.40
   4   3   6   61.92    3.50
   4  -3   7   35.38    4.24
   4   3   7   34.15    3.63
   4   3   7   39.86    2.72
   4   3   8    6.17    1.73
   4  -3   8    8.61    2.31
   4  -3   9   19.89    3.45
   4  -3   9   17.75    2.95
   4  -3  10    0.59    1.36
   4  -3  10    0.70    1.11
   4   3  10    0.87    1.02
   4  -3  11    4.12    1.75
   4  -3  11    5.03    1.80
   4   3  11    3.38    1.51
  -4  -4  11    3.98    1.79
  -4  -4  11    9.36    2.61
  -4  -4  10    5.26    1.55
  -4   4  10    5.83    2.02
  -4  -4  10    6.97    2.02
  -4  -4   9    8.73    2.33
  -4   4   9    4.09    1.65
  -4   4   9   11.15    2.60
  -4  -4   9    6.10    1.94
  -4  -4   8   23.65    3.52
  -4   4   8   26.39    3.77
  -4   4   8   27.24    3.91
  -4  -4   8   30.57    4.04
  -4   4   7  128.44    8.07
  -4  -4   7  132.55    8.26
   4  -4  -7  128.53    5.62
  -4  -4   7  123.85    7.83
  -4   4   6   54.19    5.10
  -4  -4   6   57.54    5.18
   4  -4  -6   59.00    3.80
  -4  -4   6   58.71    5.15
   4  -4  -5   80.01    4.64
  -4   4   5   76.71    5.84
  -4  -4   5   76.05    5.77
  -4  -4   5   78.31    5.77
  -4  -4   4   75.32    5.52
   4  -4  -4   71.35    4.58
   4   4  -4   68.48    5.16
   4  -4  -3    8.76    1.66
   4   4  -3   12.43    2.11
  -4  -4   2   44.63    2.73
   4  -4  -2   55.02    4.23
   4   4  -2   52.87    4.13
  -4  -4   1   57.17    3.26
   4  -4  -1   58.18    4.49
   4  -4  -1   58.77    1.80
   4   4  -1   55.74    4.10
   4  -4   0  136.14    7.33
   4   4   0  127.37    4.41
   4   4   0  132.23    6.19
   4  -4   0  128.53    4.21
   4  -4   1  101.56    6.43
   4   4   1  101.49    4.30
  -4  -4  -1  113.35    6.59
   4   4   1  103.02    5.19
   4  -4   2  166.52    8.44
   4   4   2  150.19    5.93
  -4  -4  -2  161.11    8.22
   4   4   2  151.22    6.25
   4  -4   3  108.10    6.92
   4   4   3  109.28    5.29
  -4  -4  -3  106.76    6.85
   4   4   3  115.80    5.12
   4  -4   4   33.59    3.91
  -4  -4  -4   30.26    2.79
   4   4   4   29.55    2.89
   4   4   4   32.66    2.52
  -4  -4  -4   32.82    3.87
   4   4   5  210.04    6.76
   4  -4   5  214.16   10.38
  -4  -4  -5  198.89    6.99
   4   4   5  213.52    8.72
   4   4   6  102.12    6.16
   4  -4   6  109.15    7.49
   4   4   6  105.71    4.34
   4  -4   7   32.04    4.15
   4   4   7   39.05    3.96
   4   4   8   18.78    2.89
   4  -4   8   12.07    2.69
   4   4   9   19.54    3.30
   4  -4   9   16.29    3.26
   4   4  10   19.18    3.30
   4  -4  10   18.69    3.72
   4  -4  11   26.90    4.43
  -4  -5  10    5.76    2.16
  -4  -5  10    1.81    1.38
  -4  -5   9    8.09    2.32
  -4   5   9    9.07    2.42
  -4  -5   9    4.13    1.60
  -4  -5   8   -0.01    0.73
  -4   5   8    0.78    1.18
  -4   5   8   -0.37    0.88
  -4  -5   8   -0.64    1.06
  -4   5   7    8.57    2.30
  -4   5   7   12.56    2.66
  -4  -5   7   14.03    2.83
  -4  -5   7   12.49    2.68
  -4   5   6   17.71    3.12
   4  -5  -6   16.14    1.95
  -4  -5   6   15.31    2.92
  -4  -5   6   12.42    2.54
  -4   5   5   17.37    2.96
   4  -5  -5   17.79    2.22
  -4  -5   5   13.98    2.71
  -4  -5   5   17.47    2.94
   4  -5  -4    0.56    0.59
  -4   5   4    1.81    1.03
  -4  -5   4    1.24    0.75
   4  -5  -3   11.02    1.93
  -4  -5   3    8.56    1.91
  -4  -5   2    4.01    0.85
  -4  -5   2    2.64    1.00
   4  -5  -2    5.48    1.51
  -4  -5   1   37.62    2.75
   4  -5  -1   38.34    3.87
  -4  -5   1   39.11    3.72
   4   5  -1   41.26    3.66
   4  -5   0   54.96    4.95
  -4  -5   0   53.01    4.22
   4   5   0   53.88    2.62
   4  -5   0   53.97    2.79
   4   5   0   55.30    4.10
   4  -5   1   39.87    4.20
  -4  -5  -1   45.15    3.73
   4   5   1   43.43    2.71
   4   5   1   42.43    3.50
   4  -5   1   38.53    2.77
   4  -5   2   28.97    3.70
   4   5   2   29.62    2.48
  -4  -5  -2   24.92    3.39
   4   5   2   26.72    2.62
   4  -5   3   35.72    4.15
  -4  -5  -3   30.92    2.79
   4   5   3   34.32    2.92
  -4  -5  -3   32.61    3.87
   4   5   3   36.51    2.94
   4   5   4    9.64    1.42
  -4  -5  -4   10.70    1.54
   4   5   4    9.95    1.72
  -4  -5  -4   10.50    2.33
   4  -5   4   16.54    2.86
  -4  -5  -5   20.78    1.91
   4   5   5   24.18    2.83
   4  -5   5   27.47    3.81
   4   5   5   25.59    2.17
   4   5   6   27.77    3.21
   4  -5   6   24.24    3.78
   4  -5   7    2.43    1.21
   4   5   7    1.36    1.01
   4  -5   8   20.15    3.59
   4   5   8   19.24    3.09
   4  -5   9    7.63    2.59
   4   5   9    7.76    2.13
   4   5  10    0.22    0.65
   4  -5  10    0.94    1.27
  -4  -6   9    3.94    1.85
  -4   6   8    4.13    1.83
  -4   6   8    4.31    1.86
  -4  -6   8    5.09    1.85
  -4  -6   8    6.93    2.27
  -4   6   7    2.08    1.46
  -4   6   7   -0.14    0.85
  -4  -6   7   -2.43    1.32
  -4  -6   7   -0.27    1.04
  -4   6   6   11.96    2.71
  -4   6   6    9.17    2.30
  -4  -6   6    8.72    2.29
  -4  -6   6    5.18    1.69
   4  -6  -5   12.68    1.98
  -4   6   5   13.66    2.78
  -4  -6   5    7.69    2.11
   4  -6  -4    8.19    1.73
  -4   6   4    4.48    1.64
  -4  -6   4    8.26    2.09
   4  -6  -3   16.48    2.52
  -4  -6   3   17.74    2.87
  -4   6   3   21.38    3.37
  -4   6   2   54.90    5.20
   4  -6  -2   53.83    4.74
  -4  -6   2   54.14    4.86
   4  -6  -1  115.89    7.55
  -4  -6   1  117.95    7.08
   4  -6   0  112.03    7.58
   4   6   0  108.86    3.96
  -4  -6   0  112.50    6.69
   4  -6   0  105.81    4.48
   4  -6   1   62.01    5.62
  -4  -6  -1   49.94    4.17
   4   6   1   53.43    3.14
   4  -6   1   51.71    3.44
   4  -6   2   18.09    3.16
   4   6   2   15.98    1.90
  -4  -6  -2   18.37    2.43
  -4  -6  -2   22.80    3.37
   4  -6   2   19.95    2.35
   4  -6   3   28.18    3.95
  -4  -6  -3   22.20    2.50
   4   6   3   20.10    2.32
  -4  -6  -3   19.25    3.24
   4  -6   3   20.22    2.53
   4  -6   4   55.03    5.59
   4   6   4   54.19    4.12
  -4  -6  -4   44.01    3.23
  -4  -6  -4   55.92    5.58
   4   6   5   29.38    3.24
   4  -6   5   27.33    4.11
  -4  -6  -5   26.90    4.03
   4  -6   6   14.81    3.11
   4   6   6   13.29    2.38
   4   6   7   15.60    2.71
   4  -6   7    7.99    2.53
   4  -6   8   12.15    3.01
   4   6   8   12.61    2.65
   4   6   9    5.87    1.95
   4  -6   9    7.37    2.52
  -4   7   7    1.85    1.66
  -4   7   7    3.17    1.49
  -4  -7   7   -0.11    1.03
  -4  -7   7    0.32    0.84
  -4   7   6    3.38    2.18
  -4   7   6    7.82    2.16
  -4  -7   6    6.53    1.96
  -4   7   5    1.47    1.22
  -4   7   5    3.33    1.54
  -4  -7   5    1.41    1.14
  -4   7   4    3.18    1.53
  -4  -7   4    0.42    0.95
   4  -7  -3    0.85    0.91
  -4   7   3    1.34    0.83
  -4  -7   3   -1.60    1.04
   4  -7  -2    3.86    1.55
  -4   7   2    1.16    1.01
  -4  -7   2    1.93    1.15
  -4   7   1   19.32    3.22
   4  -7  -1   25.56    3.79
  -4  -7   1   22.54    3.22
  -4   7   0   95.35    6.97
  -4  -7   0   83.47    5.93
   4  -7   0   89.35    7.18
   4  -7   1    2.81    1.58
  -4  -7  -1    3.27    1.21
   4  -7   2    8.95    1.69
   4  -7   2    5.38    1.84
   4   7   2    5.08    1.16
  -4  -7  -2    5.81    1.40
  -4  -7  -2    9.96    2.38
   4  -7   3   17.82    3.40
   4  -7   3   18.59    2.60
   4   7   3   15.34    2.13
  -4  -7  -3   16.38    3.12
  -4  -7  -3   15.08    2.17
   4  -7   4    2.47    1.01
  -4  -7  -4    3.65    1.81
   4   7   4    5.38    1.41
   4  -7   5    5.56    1.48
   4   7   5   11.57    2.10
   4  -7   5    9.47    2.77
  -4  -7  -5   10.43    2.68
   4  -7   6    1.74    1.14
   4  -7   6    1.25    1.37
   4   7   6    1.94    0.98
   4  -7   7    6.61    2.40
   4   7   7    5.20    1.54
   4   7   8    6.03    1.83
  -4   8   6    3.94    1.75
  -4  -8   5    4.56    1.89
  -4   8   5    8.86    2.50
  -4   8   5    4.16    1.56
  -4   8   4    3.35    1.76
  -4   8   4    3.57    1.82
  -4  -8   4    1.91    1.45
  -4   8   3   11.84    2.78
  -4   8   3    8.19    2.15
  -4  -8   3    9.83    2.39
  -4   8   2   21.68    3.80
  -4  -8   2   23.92    3.65
   4  -8  -2   23.38    3.46
  -4   8   1   47.24    5.30
   4  -8  -1   38.64    4.82
  -4  -8   1   37.49    4.35
   4  -8   0    6.19    2.06
  -4   8   0    3.65    1.66
  -4  -8   0    5.93    1.88
  -4  -8  -1    1.64    0.95
  -4   8  -1    2.48    1.36
   4  -8   1    0.22    1.31
  -4  -8  -1    2.74    1.41
  -4   8  -2    9.77    2.25
   4  -8   2    6.92    2.34
  -4  -8  -2    7.39    2.42
   4  -8   3    8.11    2.44
  -4   8  -3   10.25    2.24
  -4  -8  -3   14.33    3.15
  -4  -8  -4   24.76    4.26
   4  -8   4   26.56    4.50
   4  -8   5   13.59    2.76
  -4  -8  -5   18.30    3.63
   4  -8   5   14.76    3.39
   4  -8   6    6.18    1.85
   4   8   6    9.19    2.03
   4  -8   7    1.80    1.27
   4   8   7    3.95    1.61
  -4   9   4    1.00    1.07
  -4  -9   3    1.67    1.19
  -4   9   3   -0.07    0.92
  -4   9   3   -0.24    0.84
  -4  -9   2    2.49    1.27
  -4   9   2    0.83    1.27
  -4   9   2    2.85    1.40
  -4  -9   1    6.72    2.16
  -4   9   1    8.56    2.41
  -4   9   1    5.14    1.77
   4  -9  -1    8.72    2.57
  -4  -9   0   13.37    2.72
  -4   9   0   17.03    3.26
   4  -9   0   14.37    3.36
  -4   9  -1    0.86    1.06
   4  -9   1    0.57    0.96
  -4  -9  -1    1.23    1.50
  -4   9  -2    2.19    1.43
   4  -9   2    1.95    1.42
  -4  -9  -2    2.14    1.34
   4  -9   3    0.50    0.94
  -4  -9  -3    0.56    1.11
  -4  -9  -4    3.79    2.18
   4 -10   0    2.44    1.58
  -4  10  -1    2.03    1.87
  -5   0  11   28.25    3.70
  -5   0  10   32.08    3.91
  -5   0  10   27.71    3.55
  -5   0   9   22.34    2.87
  -5   0   9   18.39    2.50
  -5   0   9   24.72    3.24
   5   0  -9   24.93    3.33
  -5   0   8    3.50    1.30
  -5   0   8    3.58    1.19
   5   0  -8    3.24    1.23
  -5   0   7    0.37    0.38
   5   0  -7    0.48    0.63
   5   0  -6  727.26   19.21
  -5   0   6  705.95   17.57
   5   0  -5 1040.87   24.41
   5   0  -4  173.46    7.76
   5   0  -3  151.49    7.06
   5   0  -3  133.94    5.49
   5   0  -2   86.75    5.23
   5   0  -2   82.62    4.13
   5   0  -1   47.92    3.85
  -5   0   1   53.12    3.40
   5   0   0  200.15    8.33
  -5   0   0  196.39    7.35
   5   0   1  219.65    8.86
   5   0   2  211.04    8.76
   5   0   3    5.08    1.30
   5   0   4  113.89    6.13
   5   0   4  130.19    6.88
   5   0   5  120.21    6.69
   5   0   5  120.44    6.60
   5   0   6   14.42    2.39
   5   0   6   14.85    2.35
   5   0   7   54.81    4.72
   5   0   7   62.84    5.08
   5   0   8   62.01    5.17
   5   0   8   64.79    5.41
   5   0   9   49.45    4.68
   5   0   9   33.42    4.10
   5   0  10    5.74    1.77
   5   0  10    6.24    1.95
   5   0  11    5.92    2.08
  -5   1  12    2.82    1.59
  -5  -1  11    3.63    1.52
  -5   1  11    3.78    1.70
  -5  -1  11    2.64    1.38
  -5  -1  10    9.66    2.27
  -5  -1  10    6.57    1.72
  -5   1  10    7.22    2.01
  -5  -1  10    8.11    2.14
  -5  -1   9    2.35    1.18
  -5   1   9    2.83    1.31
  -5  -1   9    1.76    1.07
   5  -1  -9    3.52    1.29
  -5  -1   9    2.58    1.02
  -5   1   9    2.19    1.08
  -5  -1   8   21.26    2.85
  -5  -1   8   23.86    2.49
  -5   1   8   26.48    3.15
   5  -1  -8   29.87    3.33
  -5   1   8   26.18    2.71
   5   1  -8   28.95    3.55
  -5  -1   7   13.76    2.16
  -5   1   7   10.94    1.95
   5  -1  -7   12.96    2.11
   5   1  -7   12.42    2.27
  -5   1   7   11.23    1.63
   5  -1  -6   41.03    3.69
  -5   1   6   33.65    2.67
   5   1  -6   32.81    3.59
  -5  -1   6   32.18    3.22
   5  -1  -5  366.52   12.15
   5   1  -5  369.18   12.53
   5  -1  -4   28.53    3.02
   5   1  -4   32.77    3.28
   5  -1  -3   28.66    2.96
   5   1  -3   27.44    2.93
   5  -1  -2   15.14    2.19
   5   1  -2   19.81    2.42
  -5   1   2   20.48    1.75
   5  -1  -2   17.50    1.58
   5  -1  -1    7.17    1.53
   5   1  -1    4.93    1.27
  -5  -1   1    6.32    1.08
  -5   1   1    4.05    0.85
  -5  -1   1    5.41    1.19
  -5  -1   0   80.56    4.12
   5  -1   0   87.81    5.49
   5   1   0   87.13    5.16
  -5  -1   0   94.38    5.16
   5  -1   1   26.08    2.96
   5   1   1   27.62    2.89
  -5  -1  -1   27.36    2.85
   5  -1   1   28.94    2.54
   5  -1   2    9.81    1.92
   5   1   2   20.58    2.51
   5  -1   3   35.73    3.58
   5   1   3   34.85    3.06
   5   1   3   36.74    3.34
   5   1   4   21.82    2.59
   5  -1   4   27.19    3.15
   5   1   4   31.51    3.16
   5  -1   5    6.28    1.56
   5   1   5    7.07    1.54
   5  -1   5    6.50    1.56
   5   1   5    7.82    1.64
   5  -1   6   30.72    3.45
   5  -1   6   32.92    3.67
   5   1   6   27.94    3.19
   5   1   6   25.76    2.98
   5  -1   7   53.36    4.86
   5  -1   7   52.98    4.73
   5   1   7   51.48    4.32
   5   1   7   59.68    4.93
   5   1   8   19.13    2.71
   5  -1   8   25.16    3.39
   5   1   8   22.95    3.23
   5  -1   8   21.60    3.17
   5  -1   9   12.92    2.63
   5   1   9   12.89    2.35
   5   1   9   12.61    2.46
   5  -1   9   15.54    2.73
   5  -1  10    6.30    2.06
   5   1  10   11.01    2.44
   5  -1  10    8.07    2.11
   5  -1  11    6.96    2.25
   5   1  11    7.41    2.16
  -5  -2  12   20.60    3.58
  -5  -2  12   17.76    3.55
  -5  -2  11   18.59    3.26
  -5   2  11   16.11    3.07
  -5  -2  11   20.29    3.42
  -5  -2  10   11.35    2.39
  -5   2  10   13.96    2.61
  -5   2  10   16.30    3.10
  -5  -2  10    9.76    2.41
  -5  -2   9    7.51    1.99
  -5   2   9    5.38    1.54
   5  -2  -9    3.18    1.20
  -5   2   9    3.23    1.24
  -5  -2   9    2.76    1.39
  -5  -2   8    9.73    1.99
  -5   2   8    6.38    1.81
   5  -2  -8   11.28    1.99
  -5   2   7    6.27    1.73
   5  -2  -7   11.57    1.96
   5   2  -7   10.82    2.24
  -5  -2   7    8.39    1.88
   5  -2  -6   83.56    5.30
  -5  -2   6   88.25    5.86
   5   2  -6   91.04    6.20
   5  -2  -5  351.68   11.76
   5   2  -5  363.45   12.89
  -5   2   4  195.47    4.75
   5  -2  -4  208.85    8.61
   5   2  -4  194.79    8.74
   5  -2  -3   92.61    5.60
   5   2  -3   92.08    5.58
   5   2  -2   17.67    2.40
  -5  -2   2   25.46    1.92
   5  -2  -2   25.85    2.94
   5  -2  -2   18.69    1.21
  -5  -2   1   90.67    3.99
   5  -2  -1   94.45    5.80
   5   2  -1   98.39    5.54
   5  -2   0  427.69   13.79
  -5  -2   0  414.67   10.70
   5   2   0  429.42   12.81
  -5  -2   0  448.26   13.48
   5  -2   1  733.13   19.69
   5   2   1  764.05   18.45
   5  -2   1  696.49   16.39
  -5  -2  -1  749.13   19.42
   5  -2   2  219.48    9.59
   5   2   2  223.06    7.95
   5   2   2  217.95    8.44
   5  -2   2  199.40    7.75
  -5  -2  -2  231.08    9.70
   5  -2   3  281.01   11.22
   5   2   3  269.22    9.30
   5   2   3  281.09    9.80
   5  -2   4  106.24    6.67
   5   2   4   96.26    5.49
   5   2   4  114.46    5.85
   5  -2   5   40.00    4.17
   5   2   5   39.17    3.62
   5   2   5   46.66    3.71
   5   2   6   67.21    4.52
   5   2   6   63.54    4.86
   5  -2   7   94.50    6.78
   5  -2   7   89.42    6.34
   5   2   7   76.51    5.72
   5   2   7   90.37    5.36
   5  -2   8   32.37    4.05
   5   2   8   27.92    3.55
   5   2   8   27.90    2.97
   5  -2   8   24.31    3.48
   5  -2   9    6.50    1.96
   5  -2   9    8.23    2.14
   5   2   9    6.64    1.82
   5  -2  10   23.07    3.65
   5   2  10   21.73    3.55
   5  -2  10   22.60    3.69
   5  -2  11    6.90    2.26
  -5  -3  11   14.24    3.00
  -5   3  11   13.30    3.08
  -5  -3  11   15.14    3.14
  -5  -3  10    2.46    1.47
  -5   3  10    3.77    1.43
  -5   3  10    3.91    1.87
  -5  -3  10    1.89    1.26
  -5  -3   9    7.79    2.00
  -5   3   9    8.13    2.10
  -5   3   9    6.30    2.02
  -5  -3   9    5.54    1.83
  -5  -3   8    3.38    1.37
  -5   3   8    3.31    1.33
   5  -3  -8    4.59    1.19
  -5  -3   8    2.91    1.56
  -5   3   7    6.00    1.63
   5  -3  -7    3.10    0.95
  -5  -3   7    1.70    1.13
  -5  -3   7    3.83    1.37
  -5   3   6   39.97    4.26
   5  -3  -6   42.89    3.63
  -5  -3   6   44.23    4.37
   5   3  -6   39.32    4.25
   5  -3  -5   62.63    4.52
   5   3  -5   52.77    4.74
   5   3  -4   21.11    2.90
  -5  -3   4   21.78    1.41
   5  -3  -4   24.37    2.82
   5  -3  -3    3.86    1.26
   5   3  -3    5.22    1.47
  -5  -3   3    3.01    0.53
   5  -3  -2    1.18    0.84
  -5  -3   2    1.26    0.39
   5  -3  -1   13.57    2.25
   5   3  -1   11.83    1.90
  -5  -3   1   12.69    1.29
   5  -3   0   74.43    5.36
   5  -3   0   67.72    3.21
   5   3   0   73.70    4.70
   5  -3   1   51.53    4.53
   5   3   1   53.08    3.35
   5  -3   1   49.74    3.17
   5   3   1   54.42    4.02
  -5  -3  -1   54.31    4.56
   5  -3   2   61.79    5.10
   5   3   2   70.16    4.08
   5   3   2   66.05    4.33
  -5  -3  -2   70.11    5.41
   5  -3   3   33.96    3.87
   5   3   3   29.48    2.76
   5   3   3   34.35    3.03
  -5  -3  -3   30.74    3.69
   5  -3   4   41.18    4.38
   5   3   4   47.12    3.83
   5   3   4   49.27    3.62
   5   3   5   13.20    1.86
   5  -3   5   12.34    2.57
   5   3   5   15.96    2.33
   5  -3   6   93.03    6.97
   5   3   6   91.36    6.01
   5   3   6   90.36    4.96
   5   3   7   10.89    2.19
   5   3   7   13.36    1.86
   5   3   8    2.91    1.27
   5  -3   8    3.98    1.66
   5   3   9   12.50    2.49
   5  -3   9   18.88    3.41
   5  -3  10    9.47    2.53
   5   3  10   12.81    2.72
   5  -3  11    0.03    0.79
  -5  -4  10    4.62    1.66
  -5   4  10    0.54    1.06
  -5   4  10    3.86    1.47
  -5  -4  10    4.34    1.79
  -5   4   9   15.08    3.07
  -5   4   9   14.26    3.15
  -5  -4   9   21.82    3.69
  -5  -4   9   18.07    3.24
  -5   4   8    6.80    1.96
  -5  -4   8    6.48    2.04
  -5  -4   8    5.41    1.89
  -5   4   7   42.64    4.81
  -5  -4   7   37.54    4.52
   5  -4  -7   43.92    3.66
  -5  -4   7   51.37    5.14
  -5   4   6   27.32    3.79
  -5  -4   6   27.01    3.79
   5  -4  -6   29.11    3.03
  -5  -4   6   29.98    3.83
   5  -4  -5   18.84    2.54
   5   4  -5   15.88    2.73
   5  -4  -4   68.42    5.01
   5   4  -4   72.28    5.63
   5  -4  -3   35.26    3.63
   5   4  -3   40.53    4.05
   5  -4  -2   90.09    6.06
   5   4  -2   98.57    6.05
   5  -4  -1   70.85    5.38
   5   4  -1   57.92    4.46
   5  -4   0  107.45    6.89
   5  -4   0  109.53    4.10
   5   4   0  115.59    6.18
   5  -4   1  501.78   16.68
   5   4   1  494.07   12.48
  -5  -4  -1  513.53   16.69
   5   4   1  517.44   14.49
   5  -4   2  143.06    8.49
   5   4   2  145.41    6.20
  -5  -4  -2  164.01    8.81
   5   4   2  155.42    6.90
   5  -4   3   17.31    2.94
   5   4   3   15.62    2.08
  -5  -4  -3   22.77    3.39
   5  -4   4   49.83    5.11
   5   4   4   50.14    3.93
  -5  -4  -4   55.85    5.40
   5   4   4   57.32    3.85
   5  -4   5   70.11    6.11
   5   4   5   64.78    4.82
   5   4   5   68.26    4.14
   5   4   6   13.38    1.76
   5  -4   6   10.47    2.64
   5   4   6   17.03    2.68
   5  -4   7    1.92    1.30
   5   4   7    2.90    1.27
   5  -4   8    8.99    2.45
   5   4   8    9.51    2.23
   5  -4   9    9.90    2.70
   5   4   9    9.83    2.36
   5  -4  10    4.50    2.04
   5   4  10    4.03    1.67
   5  -4  11    5.26    2.23
  -5   5   9    1.17    1.29
  -5   5   9    2.04    1.43
  -5  -5   9    3.93    1.76
  -5  -5   9    3.44    1.55
  -5   5   8    2.92    1.38
  -5   5   8    4.97    1.78
  -5  -5   8    4.11    1.82
  -5  -5   8    6.29    2.20
  -5   5   7   -0.11    0.72
  -5  -5   7    0.75    1.10
  -5  -5   7    0.87    1.43
  -5   5   6    4.96    1.66
   5  -5  -6    2.92    1.16
  -5  -5   6    4.02    1.73
  -5   5   5    7.14    2.14
   5  -5  -5   11.91    2.10
  -5  -5   5   13.46    2.78
   5  -5  -4    0.85    0.80
  -5  -5   4    0.39    1.03
   5  -5  -3    4.30    1.29
  -5  -5   3    6.86    1.81
   5   5  -3    5.48    1.54
   5  -5  -2    3.64    1.43
   5   5  -2    1.65    0.90
   5  -5  -1   12.53    2.42
   5   5  -1   11.07    2.10
   5  -5   0   69.97    5.75
   5   5   0   69.15    4.97
   5  -5   0   69.07    3.01
   5  -5   1   68.95    5.95
   5   5   1   63.33    3.61
  -5  -5  -1   71.46    5.87
   5   5   1   65.77    4.64
   5   5   2   21.70    2.26
   5  -5   2   24.19    3.56
  -5  -5  -2   24.70    3.52
   5   5   2   20.54    2.52
   5  -5   3    5.92    1.94
   5   5   3    5.54    1.32
   5   5   3    8.32    1.60
  -5  -5  -3    7.88    2.27
   5   5   4   18.99    2.48
   5  -5   4   24.01    3.72
  -5  -5  -4   25.54    3.88
   5   5   4   21.10    2.33
   5   5   5    7.57    1.74
   5   5   5    8.19    1.42
   5  -5   5   10.39    2.56
   5  -5   6    7.40    2.24
   5   5   6    7.31    1.85
   5  -5   7    5.74    2.09
   5   5   7    4.35    1.43
   5  -5   8   13.84    3.11
   5   5   8   14.15    2.69
   5  -5   9    5.74    2.04
   5   5   9    3.89    1.47
  -5   6   8   17.47    3.66
  -5   6   8   13.51    3.27
  -5  -6   8   13.03    3.04
  -5  -6   8   12.29    3.01
  -5   6   7   11.89    2.92
  -5   6   7   13.53    3.09
  -5  -6   7    8.99    2.61
  -5   6   6   28.69    4.35
  -5  -6   6   26.13    3.98
  -5   6   5   38.75    4.89
  -5  -6   5   40.71    4.84
   5  -6  -5   32.76    3.53
   5  -6  -4   15.54    2.53
  -5   6   4   15.72    3.10
  -5  -6   4   11.15    2.53
   5  -6  -3    8.38    2.01
  -5  -6   3   11.20    2.46
   5  -6  -2   13.83    2.60
  -5  -6   2   10.74    2.33
   5  -6  -1   32.13    4.02
  -5  -6   1   30.50    3.72
   5   6   0   22.67    3.01
  -5  -6   0   13.96    2.46
   5  -6   0   21.05    3.36
   5  -6   1   30.92    4.19
  -5  -6  -1   31.41    3.53
  -5  -6  -1   31.73    4.25
   5   6   1   29.05    3.21
   5  -6   2    1.42    0.69
   5  -6   2    4.60    1.90
   5   6   2    1.86    1.05
  -5  -6  -2    5.00    1.45
   5   6   2    5.38    1.10
  -5  -6  -2   -0.05    0.82
  -5  -6  -3   14.71    2.17
   5   6   3   18.98    2.34
  -5  -6  -3   19.78    3.49
   5  -6   3   17.40    3.30
   5   6   3   20.02    2.49
   5  -6   4   17.47    3.39
   5   6   4   16.60    2.35
  -5  -6  -4   17.49    3.32
   5  -6   5   20.61    3.75
   5   6   5   17.06    2.55
  -5  -6  -5   20.03    3.67
   5  -6   6   21.89    3.98
   5   6   6   26.16    3.35
   5  -6   7   20.71    3.94
   5   6   7   14.82    2.70
   5  -6   8    8.48    2.66
   5   6   8    6.66    1.98
  -5   7   6    0.49    0.75
  -5   7   6    0.58    0.76
  -5  -7   6    1.70    1.24
  -5   7   5    6.63    2.28
  -5  -7   5    4.78    2.00
  -5   7   4    2.46    1.53
  -5  -7   4    2.02    1.45
   5  -7  -3    0.53    0.73
  -5   7   3    0.97    0.69
  -5  -7   3   -0.92    0.90
   5  -7  -2    8.36    2.27
  -5   7   2    5.28    2.05
  -5  -7   2    9.00    2.22
   5  -7  -1    6.70    1.96
  -5  -7   1    5.98    1.76
  -5  -7   0    6.80    1.87
   5  -7   0    4.68    1.88
   5  -7   0    8.23    2.25
   5  -7   1    6.10    1.94
  -5  -7  -1    3.48    1.38
  -5  -7  -1    8.01    2.37
   5  -7   2    6.04    1.97
  -5  -7  -2    7.61    1.82
  -5  -7  -2    9.15    2.49
   5  -7   3    3.27    1.64
  -5  -7  -3    5.31    2.01
   5  -7   4    4.91    1.47
   5  -7   4    9.08    2.69
   5   7   4    4.74    1.31
  -5  -7  -4    8.90    2.59
   5  -7   5    8.79    1.95
   5  -7   5    8.67    2.77
   5   7   5    7.55    1.65
  -5  -7  -5   10.27    2.93
   5  -7   6   -0.67    1.12
   5   7   6    1.37    1.01
   5   7   7    1.39    1.06
   5   7   8    1.70    1.28
  -5   8   5    2.95    1.48
  -5   8   4    1.29    1.32
  -5  -8   4    1.58    1.23
  -5   8   3    5.71    2.24
  -5  -8   3    4.83    1.90
   5  -8  -2    0.29    0.79
  -5   8   2    2.93    1.56
  -5  -8   2    2.52    1.37
   5  -8  -1   16.13    3.18
  -5   8   1   10.86    2.68
  -5  -8   1    9.82    2.35
  -5   8   0    4.11    1.81
   5  -8   0    4.50    2.05
  -5  -8   0    3.84    1.52
   5  -8   0    7.43    2.33
   5  -8   1   17.90    3.63
  -5   8  -1    9.85    2.54
  -5  -8  -1    9.45    2.22
  -5  -8  -1   13.96    3.11
   5  -8   2    0.49    0.90
  -5  -8  -2    3.34    1.57
  -5  -8  -3    2.56    1.29
   5  -8   3    5.01    1.95
   5  -8   4    3.64    1.92
  -5  -8  -4   11.74    3.05
  -5   9   3   -1.07    1.36
  -5  -9   2    1.53    1.41
  -5  -9   1    1.55    1.34
  -5   9   1    3.30    1.83
  -5   9   0    0.46    0.85
   5  -9   0    1.51    1.58
   5  -9   0    1.21    1.48
  -5   9  -1    2.02    1.49
   5  -9   1    1.19    1.17
  -5   9  -2    1.15    1.25
  -6   0  10   19.23    3.14
   6   0  -9    9.97    2.23
  -6   0   8   14.12    2.32
   6   0  -8   20.73    3.10
  -6   0   8   15.43    2.32
   6   0  -7    3.12    1.28
   6   0  -6    8.59    1.90
   6   0  -5    5.67    1.60
   6   0  -4    1.43    1.13
   6   0  -3  107.68    6.49
   6   0  -2   77.60    5.43
  -6   0   2   85.75    4.69
   6   0  -1   11.46    2.06
  -6   0   1   11.40    1.71
   6   0   0   99.00    6.17
  -6   0   0   98.82    5.47
   6   0   1   79.53    5.57
   6   0   2  514.33   16.08
   6   0   3  393.97   13.79
   6   0   4  220.10    9.99
   6   0   5   41.97    4.14
   6   0   5   41.91    4.22
   6   0   6   23.25    3.19
   6   0   6   19.62    2.90
   6   0   7   86.16    6.38
   6   0   7   88.45    6.48
   6   0   8   82.56    6.57
   6   0   8   86.74    6.57
   6   0   9    6.96    2.06
   6   0   9    6.67    2.06
   6   0  10    6.66    2.01
  -6   1  11    3.23    1.58
  -6  -1  11    1.58    1.12
  -6   1  10   33.94    4.33
  -6  -1  10   30.56    4.27
  -6   1   9    8.54    2.13
   6  -1  -9    9.28    2.12
   6   1  -9    8.96    2.23
  -6  -1   9    7.46    1.87
  -6   1   8    7.42    1.92
   6  -1  -8    5.32    1.72
   6   1  -8    3.92    1.53
  -6  -1   8    5.19    1.71
   6  -1  -7   -0.49    0.45
   6   1  -7    0.32    0.91
   6  -1  -6    4.09    1.25
   6   1  -6    7.92    1.91
   6  -1  -5   74.56    5.42
   6   1  -5   85.98    5.95
   6  -1  -4  122.37    6.97
   6   1  -4  112.07    6.79
   6  -1  -3   21.55    2.88
   6   1  -3   21.98    2.95
  -6   1   3   21.19    1.98
   6  -1  -3   22.04    1.92
   6  -1  -2    6.89    1.16
   6  -1  -2    8.26    1.71
   6   1  -2    5.83    1.61
  -6   1   2    7.76    1.25
   6  -1  -1   31.01    3.52
   6   1  -1   34.22    3.44
  -6  -1   1   31.69    3.13
   6  -1   0   26.27    3.25
   6   1   0   29.54    3.22
  -6  -1   0   28.80    3.07
   6  -1   1   15.26    2.49
   6   1   1   11.67    2.02
  -6  -1  -1   12.74    2.19
   6  -1   2  115.66    7.08
   6   1   2  118.28    6.71
   6  -1   3   53.35    4.81
   6   1   3   56.64    4.68
   6  -1   4    9.54    2.11
   6   1   4   12.00    2.20
   6   1   4   10.79    2.00
   6  -1   5   16.34    2.90
   6   1   5   19.35    2.78
   6   1   5   12.57    2.19
   6  -1   6   24.60    3.46
   6   1   6   21.63    3.01
   6   1   6   24.82    3.22
   6  -1   7   23.22    3.47
   6   1   7   20.71    2.97
   6  -1   7   16.97    2.86
   6   1   7   24.00    3.37
   6  -1   8    7.29    1.98
   6   1   8   10.00    2.16
   6  -1   8   10.61    2.43
   6   1   8    7.12    2.06
   6  -1   9    7.92    2.12
   6  -1   9    6.29    1.99
   6   1   9    7.43    2.21
   6  -1  10    5.35    1.86
   6  -1  10    5.18    1.97
   6   1  10    4.08    1.79
  -6   2  11   -1.33    1.41
  -6  -2  11    1.06    1.04
  -6   2  10    5.05    1.61
  -6   2  10    9.29    2.48
  -6  -2  10    5.41    1.95
  -6  -2  10   10.06    2.38
  -6   2   9   16.09    2.86
   6  -2  -9   24.39    3.23
  -6  -2   9   18.62    3.32
  -6  -2   9   19.11    3.20
  -6   2   8   25.16    3.46
   6  -2  -8   29.70    3.47
  -6  -2   8   32.78    3.84
   6   2  -8   33.07    4.23
   6  -2  -7    6.31    1.57
   6   2  -7    9.52    2.22
   6  -2  -6   56.40    4.70
   6   2  -6   59.82    5.26
   6  -2  -5  129.84    7.27
   6   2  -5  131.38    7.72
   6  -2  -4  420.20   14.12
   6   2  -4  417.10   14.42
  -6  -2   3   77.93    4.02
   6  -2  -3   82.94    5.77
   6   2  -3   88.37    5.90
  -6  -2   2  105.53    4.70
   6  -2  -2  115.18    6.93
   6   2  -2  115.98    6.70
   6  -2  -2  104.10    3.79
   6  -2  -1   54.75    4.77
   6   2  -1   64.59    4.85
  -6  -2   1   57.84    4.60
   6  -2   0   34.38    3.86
   6   2   0   26.57    3.07
  -6  -2   0   33.25    3.53
   6  -2   1  174.11    8.92
   6   2   1  165.02    7.85
  -6  -2  -1  160.94    8.29
   6  -2   1  165.92    6.80
   6  -2   2  243.87   10.94
   6   2   2  247.27    9.87
  -6  -2  -2  255.73   11.11
   6   2   3  156.50    7.36
   6  -2   3  162.47    8.84
   6   2   3  158.10    7.68
   6  -2   4   10.37    2.26
   6   2   4    7.37    1.71
   6   2   4    6.87    1.57
   6  -2   5   81.07    6.36
   6   2   5   74.00    5.34
   6   2   5   85.51    5.57
   6  -2   6   39.19    4.55
   6   2   6   47.63    4.46
   6   2   6   43.04    3.96
   6  -2   7   14.68    2.89
   6   2   7   19.59    2.68
   6   2   7   21.38    3.13
   6   2   8   18.34    2.65
   6   2   8   15.38    2.79
   6  -2   8   20.87    3.51
   6   2   9   28.53    4.00
   6  -2   9   25.49    4.01
   6  -2  10   17.09    3.38
   6  -2  11    6.20    2.28
  -6  -3  11    5.41    2.16
  -6   3  10    6.07    2.17
  -6   3  10    3.15    1.68
  -6  -3  10    2.14    1.42
  -6  -3  10    2.98    1.65
  -6   3   9    9.99    2.59
  -6  -3   9   10.35    2.60
  -6  -3   9   11.87    2.73
  -6   3   8    0.28    0.76
   6  -3  -8    0.31    0.62
  -6  -3   8    1.16    1.28
  -6  -3   8    1.07    1.14
  -6   3   7    7.50    2.06
   6  -3  -7    9.51    2.00
   6   3  -7    5.27    1.84
   6  -3  -6    5.11    1.44
   6   3  -6    5.56    1.88
   6  -3  -5   11.03    2.09
   6   3  -5   12.99    2.57
   6  -3  -4  137.94    7.68
   6   3  -4  139.89    7.96
   6  -3  -3   70.24    5.53
   6   3  -3   58.90    4.97
   6  -3  -2    0.82    0.80
   6   3  -2    0.50    0.83
  -6  -3   2    1.77    0.61
   6  -3  -1    1.64    1.00
   6   3  -1    2.27    1.17
  -6  -3   1    1.30    0.52
   6  -3   0   19.02    3.06
   6   3   0   22.56    2.92
  -6  -3   0   20.91    3.03
   6  -3   1   17.37    2.90
   6   3   1   21.44    2.70
   6  -3   1   17.65    2.01
  -6  -3  -1   22.87    3.14
   6  -3   2  295.97   12.47
   6   3   2  262.82    9.46
   6   3   2  258.55   10.13
  -6  -3  -2  284.43   12.16
   6  -3   3   33.29    4.11
   6   3   3   36.04    3.37
   6   3   3   40.70    3.68
  -6  -3  -3   32.96    4.16
   6  -3   4    5.93    1.82
   6   3   4    1.55    0.80
   6   3   4    5.51    1.49
   6   3   5   18.56    2.49
   6   3   5   19.52    2.74
   6  -3   5   16.72    3.03
   6   3   6    2.44    1.02
   6   3   6    2.34    1.14
   6  -3   6    2.40    1.25
   6  -3   6    1.70    1.32
   6   3   7    6.56    1.41
   6  -3   7   11.26    2.62
   6   3   7    7.53    1.87
   6  -3   8   10.51    2.63
   6   3   8    6.42    1.93
   6  -3   9   10.99    2.95
   6   3   9   12.78    2.72
   6  -3  10    1.73    1.44
   6  -3  11    1.51    1.85
  -6   4  10    1.73    1.31
  -6  -4  10    3.40    1.71
  -6   4   9    9.17    2.49
  -6   4   9   11.93    2.91
  -6  -4   9   10.55    2.82
  -6  -4   9   13.00    2.90
  -6   4   8    3.80    1.85
  -6  -4   8    4.32    1.86
  -6   4   7   14.59    2.98
   6  -4  -7   18.28    2.62
  -6  -4   7   14.44    3.04
  -6   4   6   16.56    3.04
   6  -4  -6   12.76    2.26
   6   4  -6   19.81    3.26
   6  -4  -5   18.83    2.82
   6   4  -5   29.41    3.88
   6  -4  -4  209.95    9.94
   6   4  -4  214.36   10.63
   6  -4  -3  103.23    6.88
   6   4  -3  118.02    7.33
   6  -4  -2   15.94    2.74
   6   4  -2   17.92    2.71
   6  -4  -1   37.95    4.32
   6   4  -1   42.57    4.10
   6  -4   0   59.11    5.36
  -6  -4   0   57.87    5.26
   6   4   0   53.91    4.52
   6  -4   1  107.99    7.52
  -6  -4  -1  119.82    7.85
   6   4   1  114.42    6.52
   6  -4   2   10.18    2.42
   6   4   2   10.64    1.99
   6   4   2   13.42    1.94
  -6  -4  -2   10.42    2.49
   6   4   3   30.70    3.06
   6   4   3   24.01    2.82
  -6  -4  -3   26.04    3.78
   6  -4   3   24.45    3.69
   6  -4   4   38.39    4.69
   6  -4   4   41.75    4.86
   6   4   4   34.54    3.43
  -6  -4  -4   36.60    4.62
   6   4   4   41.01    3.63
   6   4   5   15.33    2.19
   6   4   5   16.38    2.52
   6  -4   5   16.25    3.09
   6  -4   6   19.44    3.56
   6   4   6   21.03    3.08
   6  -4   7   16.01    3.33
   6   4   7    8.07    2.20
   6   4   8   13.88    2.73
   6  -4   8    9.70    2.91
   6   4   9    9.42    2.43
   6  -4   9    8.44    2.72
  -6   5   8    6.09    2.19
  -6  -5   8    4.19    1.84
  -6   5   7    1.31    1.31
  -6  -5   7    3.17    1.60
  -6   5   6    2.43    1.44
   6  -5  -6    2.26    1.16
  -6  -5   6   -0.05    0.67
   6  -5  -5    5.38    1.62
  -6  -5   5    8.28    2.42
   6   5  -5    6.62    1.86
   6  -5  -4    6.90    1.83
   6   5  -4    6.84    2.04
   6  -5  -3   28.71    3.71
   6   5  -3   30.69    3.99
   6  -5  -2   -0.30    0.87
   6   5  -2    0.86    0.98
   6  -5  -1    8.88    2.26
   6   5  -1    7.95    1.96
   6  -5   0    6.86    2.01
   6   5   0   11.92    2.24
  -6  -5   0   10.22    2.42
   6  -5   1    5.07    1.72
   6   5   1    7.25    1.83
  -6  -5  -1    5.91    1.95
   6  -5   2   87.13    7.21
   6   5   2   90.51    5.06
  -6  -5  -2   90.46    7.28
   6   5   2   80.73    5.49
   6  -5   3    1.14    1.11
   6   5   3    1.23    0.83
   6   5   3    1.64    0.76
  -6  -5  -3    2.34    1.32
   6  -5   3    0.86    0.85
   6   5   4    4.84    1.22
   6  -5   4    4.26    1.79
   6   5   4    2.80    1.03
  -6  -5  -4    3.79    1.64
   6   5   5   13.76    2.34
   6  -5   5   21.28    3.91
   6  -5   6   13.85    3.27
   6   5   6   14.45    2.65
   6  -5   7    9.18    2.73
   6   5   7   11.76    2.51
   6  -5   8    9.58    2.96
   6   5   8   11.19    2.48
  -6   6   7    8.47    2.52
  -6   6   6   10.65    2.83
  -6  -6   6   10.87    2.86
  -6   6   5   19.38    3.75
  -6  -6   5   13.39    2.95
   6  -6  -4    3.08    1.30
  -6   6   4    6.03    2.11
  -6  -6   4    2.24    1.38
   6  -6  -3    6.92    1.99
  -6  -6   3    6.58    1.86
   6  -6  -2   13.16    2.66
  -6  -6   2   18.12    3.14
   6   6  -2   14.95    2.79
   6  -6  -1   12.67    2.71
  -6  -6   1   11.93    2.55
   6   6  -1   12.72    2.52
   6  -6   0   28.95    4.24
  -6  -6   0   31.61    3.89
  -6  -6   0   39.09    4.91
   6   6   0   28.57    3.61
   6  -6   1    9.60    2.52
   6   6   1   13.09    2.40
  -6  -6  -1   13.01    2.96
  -6  -6  -2   37.80    4.92
   6   6   2   32.40    3.56
   6  -6   2   24.44    3.96
   6   6   3   20.53    2.58
   6  -6   3   27.91    4.38
  -6  -6  -3   30.57    4.58
   6   6   3   30.68    3.36
   6  -6   4    5.64    2.13
   6   6   4    9.14    1.88
  -6  -6  -4    3.89    2.26
   6  -6   5    9.99    2.99
   6   6   5    6.18    1.68
   6  -6   6   14.16    3.65
   6   6   6   14.41    2.61
   6   6   7    4.33    1.65
   6   6   8    3.84    1.69
  -6  -7   5    2.26    1.37
  -6   7   4    1.34    1.50
  -6  -7   4    0.02    0.91
   6  -7  -3    5.15    1.76
  -6   7   3    4.26    1.92
  -6  -7   3    2.30    1.57
   6  -7  -2    3.11    1.71
  -6  -7   2   -0.16    0.75
   6  -7  -1   -0.39    0.99
  -6  -7   1    0.95    0.93
   6  -7   0    7.06    2.32
  -6  -7   0    8.64    2.20
  -6  -7   0   11.73    2.92
  -6  -7  -1    6.00    1.84
  -6  -7  -1    3.06    1.66
   6  -7   1    2.53    1.27
   6  -7   2   10.32    2.70
  -6  -7  -2   10.01    2.15
  -6  -7  -2   11.86    2.88
   6  -7   2   18.42    3.58
   6  -7   3    4.45    1.97
  -6  -7  -3    5.30    2.21
   6  -7   4    2.64    1.48
  -6  -7  -4    4.20    2.12
  -6  -8   3    3.65    1.71
   6  -8  -2    9.85    2.51
  -6  -8   2    1.40    1.33
   6  -8  -1    5.54    2.04
  -6   8   1    2.64    1.84
  -6  -8   1    4.49    1.73
   6  -8   0   12.08    2.96
  -6  -8   0    5.50    1.89
   6  -8   1    0.36    0.77
   6  -8   2    2.10    1.60
   6  -8   2    0.35    1.29
  -6  -9   1    2.94    1.58
   6  -9   0    2.67    2.00
   7   0 -10    1.15    1.18
   7   0  -9    2.65    1.28
   7   0  -8    7.01    1.94
   7   0  -7   40.13    4.53
   7   0  -6    6.28    1.64
   7   0  -5   67.76    5.67
   7   0  -4   43.23    4.48
   7   0  -3  104.12    6.92
  -7   0   3  107.58    5.72
   7   0  -2   61.77    5.25
  -7   0   2   59.09    4.22
   7   0  -1   94.99    6.55
  -7   0   1   99.42    5.78
   7   0   0   33.57    3.86
   7   0   1    9.78    2.08
   7   0   2  122.79    7.64
   7   0   3  172.70    9.25
   7   0   4   15.83    2.77
   7   0   5    1.11    0.59
   7   0   6   46.35    4.89
   7   0   7   17.82    3.09
   7   0   8    8.95    2.34
   7   0   8    9.41    2.48
   7   0   9   -0.20    0.86
   7   0   9   -0.07    1.04
   7  -1  -9    8.11    2.10
   7   1  -9    5.06    2.05
  -7   1   8    1.65    1.11
   7  -1  -8    3.39    1.36
   7   1  -8    3.16    1.58
   7  -1  -7    2.51    1.26
   7   1  -7    1.85    1.32
   7  -1  -6   -0.19    0.77
   7   1  -6    0.87    0.84
   7  -1  -5   37.65    4.19
   7   1  -5   37.07    4.16
   7  -1  -4   10.32    2.22
   7   1  -4   10.49    2.24
  -7   1   4    9.50    1.48
   7  -1  -3    6.53    1.78
   7   1  -3    6.68    1.73
  -7   1   3    6.31    1.22
   7  -1  -2   34.63    3.96
   7   1  -2   31.42    3.73
  -7  -1   2   28.64    3.19
   7  -1  -1   -0.29    0.48
   7   1  -1    1.43    1.07
  -7  -1   1    1.48    1.03
   7  -1   0    6.14    1.70
   7   1   0    7.40    1.80
  -7  -1   0    7.21    1.72
   7  -1   1   34.02    4.08
   7   1   1   39.62    4.10
  -7  -1  -1   32.69    3.75
   7  -1   2   26.18    3.58
   7   1   2   30.96    3.67
   7  -1   3  272.03   12.26
   7   1   3  280.81   11.74
   7  -1   4  106.18    7.52
   7   1   4  122.97    7.57
   7  -1   5    4.32    1.97
   7   1   5    1.98    1.20
   7  -1   6    4.66    1.68
   7   1   6    1.79    0.84
   7   1   6    1.38    1.20
   7  -1   7   10.43    2.56
   7   1   7    9.12    2.07
   7   1   7    7.54    2.08
   7  -1   8    3.47    1.52
   7   1   8    2.12    1.11
   7   1   8    2.80    1.41
   7  -1   9    0.41    0.75
   7   1   9    0.68    1.16
   7  -1  10    5.02    2.01
  -7   2   9   18.93    3.24
   7   2  -9   22.62    3.87
  -7   2   8    6.40    1.84
   7  -2  -8    8.68    2.07
   7   2  -8    7.08    2.15
   7  -2  -7   18.77    2.99
   7   2  -7   16.98    3.06
   7  -2  -6   12.04    2.40
   7   2  -6   13.39    2.69
   7  -2  -5    1.79    1.12
   7   2  -5    0.95    0.86
   7  -2  -4   14.59    2.65
   7   2  -4   15.02    2.70
   7  -2  -3    4.73    1.61
   7   2  -3    7.37    2.03
   7  -2  -2   22.07    3.22
   7   2  -2   27.82    3.53
  -7  -2   2   21.50    3.05
   7  -2  -1   16.17    2.86
   7   2  -1   19.69    2.89
  -7  -2   1   16.75    2.59
   7  -2   0   28.01    3.69
   7   2   0   34.63    3.82
  -7  -2   0   37.06    4.05
   7  -2   1   55.14    5.28
   7   2   1   47.22    4.46
  -7  -2  -1   48.75    4.71
   7  -2   2   49.71    5.22
   7   2   2   50.82    4.66
  -7  -2  -2   47.27    4.91
   7  -2   3   29.88    4.05
   7   2   3   32.46    3.71
   7  -2   4  133.04    8.61
   7   2   4  123.21    7.39
   7   2   5   44.62    4.43
   7  -2   5   43.77    4.93
   7   2   5   38.71    4.07
   7  -2   6   12.38    2.74
   7   2   6   12.07    2.32
   7   2   6   14.07    2.62
   7  -2   7   17.93    3.49
   7   2   7   16.98    2.79
   7   2   7   11.90    2.46
   7  -2   8   27.76    4.32
   7   2   8   25.79    3.82
   7  -2   9   22.91    3.91
   7   2   9   21.83    3.75
   7  -2  10    6.15    2.30
  -7   3  10    0.67    0.99
  -7   3   9    7.79    2.46
  -7   3   8    2.64    1.48
   7   3  -8   -0.98    1.23
   7  -3  -7    1.29    0.83
   7   3  -7    0.79    1.02
   7  -3  -6    1.56    1.13
   7   3  -6    1.74    1.60
   7  -3  -5    8.79    2.03
   7   3  -5   10.25    2.39
   7  -3  -4    3.01    1.26
   7   3  -4    3.27    1.40
   7  -3  -3   88.04    6.63
   7   3  -3   70.72    5.93
   7  -3  -2    3.17    1.41
   7   3  -2    1.97    1.01
   7  -3  -1    6.22    1.97
   7   3  -1    5.09    1.60
  -7  -3   1    3.54    1.42
   7  -3   0   27.68    3.82
   7   3   0   24.33    3.27
  -7  -3   0   24.12    3.43
   7  -3   1   19.83    3.24
   7   3   1   21.43    2.96
  -7  -3  -1   23.44    3.49
   7  -3   2    8.56    2.20
   7   3   2    7.23    1.74
  -7  -3  -2   10.41    2.54
   7  -3   3   41.67    4.87
   7   3   3   40.85    4.09
   7  -3   4   16.94    3.20
   7   3   4   15.65    2.60
   7   3   4   16.93    2.62
   7  -3   5    2.63    1.51
   7   3   5    3.31    1.25
   7   3   5    2.38    1.13
   7  -3   6   18.81    3.46
   7   3   6   14.69    2.43
   7   3   6   14.95    2.67
   7  -3   7   15.40    3.22
   7   3   7   10.49    2.39
   7  -3   8    7.74    2.55
   7   3   8    5.37    1.80
   7  -3   9    0.62    1.58
  -7   4   9    8.21    2.45
  -7   4   8   37.30    5.00
  -7  -4   8   51.89    6.08
  -7   4   7   15.30    3.15
  -7  -4   7   14.57    3.15
   7   4  -7   14.65    3.25
   7  -4  -6   10.93    2.25
   7   4  -6    6.47    2.07
   7  -4  -5   12.18    2.53
   7   4  -5   14.61    3.04
   7  -4  -4   51.81    5.05
   7   4  -4   46.63    5.03
   7  -4  -3   70.20    6.08
   7   4  -3   81.13    6.41
   7  -4  -2   71.67    6.21
   7   4  -2   73.96    6.04
  -7  -4   1   37.99    4.52
   7   4  -1   32.47    3.82
   7  -4   0   12.74    2.85
   7   4   0   10.73    2.21
  -7  -4   0   18.86    3.25
   7  -4   1   23.47    3.70
   7   4   1   27.53    3.37
  -7  -4  -1   31.81    4.22
   7  -4   2   36.83    4.81
  -7  -4  -2   48.13    5.34
   7   4   2   38.06    3.96
   7   4   3   21.14    2.90
   7   4   3   26.26    3.13
  -7  -4  -3   28.70    4.32
   7  -4   4   38.71    4.98
   7   4   4   34.72    3.70
   7   4   4   37.33    3.86
   7  -4   5    9.81    2.63
   7   4   5   10.83    2.06
   7   4   5   12.69    2.42
   7  -4   6   15.00    3.27
   7   4   6   20.43    3.17
   7   4   7   14.01    2.74
   7  -4   7   16.32    3.46
   7   4   8    8.07    2.20
   7  -4   8    6.44    2.38
  -7   5   7    2.71    1.46
  -7   5   6   -0.09    0.91
  -7  -5   6    5.36    2.12
   7  -5  -5    3.95    1.46
   7   5  -5    7.02    2.08
   7  -5  -4    0.70    0.91
   7   5  -4   -0.10    0.84
   7  -5  -3   37.58    4.59
   7   5  -3   55.16    5.52
   7  -5  -2   10.66    2.60
   7   5  -2   10.18    2.42
   7  -5  -1    2.28    1.27
   7   5  -1    2.60    1.27
  -7  -5   1    2.29    1.22
   7  -5   0    0.57    1.01
   7   5   0   -0.38    0.88
  -7  -5   0    0.15    0.97
   7  -5   1   21.85    3.66
   7   5   1   24.73    3.27
  -7  -5  -1   26.30    4.05
   7  -5   2    2.62    1.25
   7   5   2    2.19    1.13
  -7  -5  -2    1.46    1.45
   7  -5   3    6.39    2.35
   7   5   3    8.31    1.94
   7   5   3    8.34    1.74
  -7  -5  -3    8.87    2.67
   7  -5   4    2.10    1.64
   7   5   4    0.56    0.69
   7   5   4    0.81    0.66
  -7  -5  -4    0.19    1.20
   7   5   5    2.05    1.18
   7  -5   5    7.18    2.31
   7   5   6    2.47    1.17
   7  -5   6    3.56    1.66
   7   5   7    3.63    1.29
  -7   6   5   10.36    2.89
  -7  -6   5    9.89    2.71
   7  -6  -4    5.54    1.90
  -7  -6   4    7.96    2.53
  -7  -6   3   57.99    6.04
   7  -6  -3   62.73    6.08
   7   6  -3   54.03    5.79
   7  -6  -2   52.39    5.75
   7   6  -2   57.59    5.69
   7  -6  -1   15.25    3.16
   7   6  -1   14.88    2.90
   7  -6   0   12.14    3.04
   7   6   0   12.62    2.55
  -7  -6   0   15.06    3.24
   7  -6   1   25.66    4.21
   7   6   1   25.59    3.58
  -7  -6  -1   20.89    3.95
   7  -6   2   11.37    2.83
   7   6   2   12.80    2.43
  -7  -6  -2    7.11    2.38
   7  -6   3   15.38    3.53
   7   6   3   24.79    3.28
  -7  -6  -3   24.71    4.36
  -7  -6  -4    2.10    1.55
   7  -6   4    4.88    2.06
   7  -6   5    3.65    1.71
   7   6   6    2.13    1.19
   7   6   7    4.68    1.74
   7  -7  -3    9.97    2.78
  -7  -7   3   11.06    2.83
   7  -7  -2   12.51    2.88
  -7  -7   2    9.84    2.61
   7  -7  -1    2.31    1.50
  -7  -7   1    1.04    1.14
  -7  -7   1    5.36    2.22
   7  -7   0    4.49    2.13
   7   7   0    5.58    1.95
  -7  -7   0    5.35    1.91
  -7  -7   0    3.16    1.39
   7  -7   1    2.55    1.51
   7   7   1    3.49    1.44
  -7  -7  -1    0.36    0.91
  -7  -7  -1    2.71    1.59
   7  -7   2    1.42    1.25
   7   7   2    5.13    1.68
   7  -8  -1    7.62    2.51
  -7  -8   1    4.14    1.71
   7  -8   0    3.00    1.58
  -7  -8   0    6.14    2.31
   8   0  -9    7.45    2.31
   8   0  -8    5.06    1.82
   8   0  -7    2.26    1.41
   8   0  -6   29.88    4.15
   8   0  -5   14.74    2.84
   8   0  -4   10.14    2.31
   8   0  -3   19.81    3.31
  -8   0   3   14.40    2.26
   8   0  -2   29.67    3.92
  -8   0   2   29.27    3.21
   8   0  -1    1.77    1.14
   8   0   0    5.07    1.58
   8   0   1   32.14    4.08
   8   0   2   18.26    3.17
   8   0   3   59.43    5.68
   8   0   4    7.35    2.23
   8   0   5    1.65    1.06
   8   0   6   10.20    2.49
   8   0   7    6.33    2.07
   8   0   8    7.09    2.26
   8  -1  -9    1.41    1.18
   8   1  -9    0.71    0.91
   8  -1  -8    2.90    1.55
   8   1  -8   -0.36    0.78
   8  -1  -7   16.11    3.09
   8   1  -7   12.32    2.70
   8  -1  -6    3.35    1.63
   8   1  -6    4.10    1.70
   8  -1  -5    1.64    1.15
   8   1  -5    1.56    1.16
   8  -1  -4   10.08    2.45
   8   1  -4    6.81    2.03
  -8  -1   4    9.08    1.97
   8  -1  -3    3.79    1.56
   8   1  -3    4.80    1.80
  -8  -1   3    3.34    1.24
   8  -1  -2   21.80    3.36
   8   1  -2   26.53    3.67
  -8  -1   2   20.14    2.95
   8  -1  -1    5.96    1.96
   8   1  -1    2.24    1.21
  -8  -1   1    7.24    1.81
   8  -1   0    0.00    0.72
   8   1   0    0.84    0.86
  -8  -1   0    2.37    1.14
   8  -1   1    3.07    1.50
   8   1   1    3.44    1.40
   8  -1   2   26.30    3.85
   8   1   2   34.75    4.16
   8  -1   3   10.25    2.48
   8   1   3   11.87    2.57
   8  -1   4   12.09    2.81
   8   1   4    9.58    2.25
   8  -1   5   31.97    4.44
   8   1   5   35.05    4.31
   8  -1   6    2.77    1.68
   8   1   6   -0.20    0.68
   8  -1   7   12.62    2.89
   8   1   7    6.63    2.11
   8  -1   8    7.76    2.43
   8   1   8    3.47    1.59
   8  -1   9    3.56    2.04
  -8   2   8    0.61    1.20
   8  -2  -8    3.43    1.58
   8   2  -8    3.42    1.92
   8  -2  -7   25.41    3.66
   8   2  -7   30.20    4.33
   8  -2  -6   22.58    3.55
   8   2  -6   22.86    3.72
   8  -2  -5   18.55    3.14
   8   2  -5   17.06    3.18
   8  -2  -4   29.76    3.95
   8   2  -4   34.35    4.36
   8  -2  -3   40.42    4.76
  -8  -2   3   49.23    4.85
   8   2  -3   47.67    5.03
   8  -2  -2   17.92    3.11
   8   2  -2   17.57    3.00
  -8  -2   2   15.71    2.72
   8  -2  -1   75.06    6.52
   8   2  -1   75.86    6.21
  -8  -2   1   77.41    6.20
   8  -2   0   22.46    3.61
   8   2   0   29.84    3.84
  -8  -2   0   29.91    3.94
   8  -2   1   12.16    2.65
   8   2   1   12.90    2.52
  -8  -2  -1    7.41    2.09
   8  -2   2   18.02    3.27
   8   2   2   14.18    2.73
   8  -2   3   52.10    5.59
   8   2   3   51.70    5.05
   8  -2   4   55.65    5.90
   8   2   4   58.71    5.39
   8  -2   5    7.81    2.35
   8   2   5    8.66    2.17
   8  -2   6   -0.29    0.69
   8   2   6   -0.64    0.65
   8  -2   7    7.14    2.30
   8   2   7    7.98    2.09
   8   2   7    7.62    2.26
   8  -2   8    5.91    2.21
  -8   3   8    8.93    2.56
   8  -3  -7   15.32    2.93
   8   3  -7   26.50    4.28
   8  -3  -6    5.44    1.84
   8   3  -6    5.85    2.00
   8  -3  -5    0.70    1.11
   8   3  -5    1.23    1.22
   8  -3  -4    7.94    2.13
   8   3  -4    7.78    2.10
   8  -3  -3   12.78    2.75
   8   3  -3    4.82    1.66
   8  -3  -2    6.70    2.20
   8   3  -2    5.96    1.86
  -8  -3   2    7.37    2.07
   8  -3  -1    0.59    1.17
  -8  -3   1    0.08    0.66
   8  -3   0    0.55    1.28
   8   3   0    0.55    0.83
  -8  -3   0   -0.42    0.55
   8  -3   1    5.38    2.07
  -8  -3  -1    7.62    2.22
   8  -3   2   15.23    3.15
   8   3   2   16.82    2.83
  -8  -3  -2   17.09    3.23
   8  -3   3    8.68    2.47
   8   3   3    8.64    2.09
   8  -3   4   12.26    3.12
   8   3   4   16.64    2.81
   8  -3   5   35.38    4.94
   8   3   5   32.74    3.92
   8  -3   6    0.92    0.87
   8   3   6    3.89    1.61
   8   3   6    3.05    1.49
   8  -3   7    2.94    1.48
   8   3   7    2.00    1.26
  -8   4   7    6.88    2.34
   8  -4  -6    3.31    1.52
   8   4  -6    9.96    2.68
   8  -4  -5    6.63    1.91
   8   4  -5    9.55    2.67
   8  -4  -4    4.46    1.74
   8   4  -4    3.01    1.43
   8  -4  -3    7.34    2.15
   8   4  -3   11.22    2.52
   8  -4  -2    9.15    2.58
   8   4  -2   10.41    2.48
  -8  -4   2    9.23    2.47
   8  -4  -1   20.62    3.64
   8   4  -1   17.36    3.08
  -8  -4   1   13.27    2.93
   8  -4   0   30.44    4.47
   8   4   0   27.22    3.74
  -8  -4   0   33.48    4.56
   8  -4   1   22.00    3.77
   8   4   1   19.40    3.13
  -8  -4  -1   16.96    3.40
   8  -4   2   32.94    4.73
   8   4   2   18.74    3.00
  -8  -4  -2   26.56    4.22
   8  -4   3    3.97    1.90
   8   4   3    6.23    1.76
  -8  -4  -3    7.50    2.39
   8  -4   4   31.52    4.80
   8   4   4   33.70    3.99
   8  -4   5   30.15    4.79
   8   4   5   26.35    3.68
   8   4   5   29.40    3.75
   8  -4   6   12.72    3.31
   8   4   6   12.46    2.60
   8   4   7    2.39    1.25
   8  -5  -5   -0.04    0.81
   8  -5  -4    9.29    2.36
   8   5  -4   11.96    2.87
   8  -5  -3    3.91    1.81
   8   5  -3    4.01    1.78
   8  -5  -2   13.46    3.05
   8   5  -2   14.77    2.94
  -8  -5   2   20.20    3.77
   8  -5  -1    4.75    1.98
   8   5  -1    6.38    2.02
  -8  -5   1    6.99    2.35
   8  -5   0    3.94    1.69
   8   5   0    6.71    1.97
  -8  -5   0    9.08    2.56
   8  -5   1    7.26    2.44
   8   5   1    5.51    1.82
  -8  -5  -1    6.11    2.14
   8  -5   2   10.98    2.80
   8   5   2   11.49    2.43
  -8  -5  -2    6.19    2.28
   8  -5   3    1.81    1.42
   8   5   3    4.38    1.61
  -8  -5  -3    5.96    2.30
   8  -5   4    8.07    2.77
   8   5   4    6.16    1.83
   8   5   5   18.25    2.99
   8   5   6    1.91    1.35
   8  -6  -4    5.54    2.01
   8  -6  -3    2.51    1.60
   8   6  -3    1.12    1.21
   8  -6  -2   34.06    4.81
   8   6  -2   29.67    4.44
  -8  -6   2   30.88    4.93
   8  -6  -1   23.40    4.13
   8   6  -1   28.52    4.24
  -8  -6   1   31.42    4.98
   8  -6   0   23.61    4.31
   8   6   0   17.99    3.26
  -8  -6   0   17.69    3.68
   8  -6   1    2.99    1.68
   8   6   1    3.59    1.41
  -8  -6  -1    5.27    2.12
   8  -6   2    1.00    0.99
   8   6   2    4.74    1.68
   8  -7  -3    2.02    1.95
   8  -7  -2    4.50    2.06
   8  -7  -1    8.71    2.76
  -8  -7   1    5.87    2.15
  -8  -7   0    1.76    1.37
   8   7   0    3.78    1.86
  -8  -7  -1    2.20    1.27
   8   7   1    0.97    0.76
   9   0  -7    8.78    2.60
   9   0  -6   69.42    6.59
   9   0  -5   35.89    4.78
   9   0  -4   22.06    3.74
   9   0  -3   22.81    3.65
   9   0  -2   60.69    6.05
   9   0  -1    2.26    1.44
   9   0   0   26.55    3.97
   9   0   1   11.62    2.69
   9   0   2    2.07    1.33
   9   0   3   29.39    4.26
   9   0   4   38.86    4.96
   9   0   5   11.62    2.89
   9   0   6    3.61    1.72
   9   0   7    0.37    0.89
   9  -1  -7    0.20    1.26
   9  -1  -6    2.93    1.88
   9   1  -6    2.88    1.94
   9  -1  -5    8.20    2.38
   9   1  -5    7.14    2.26
   9  -1  -4    2.24    1.30
   9   1  -4    3.77    1.75
   9  -1  -3    4.58    1.77
   9   1  -3    1.89    1.28
  -9  -1   3    4.03    1.49
   9  -1  -2    8.04    2.31
   9   1  -2    7.41    2.36
  -9  -1   2    6.78    1.84
   9  -1  -1    2.69    1.31
   9   1  -1    2.29    1.31
  -9  -1   1    1.21    1.12
   9  -1   0   15.12    3.15
   9   1   0   13.04    2.74
   9  -1   1    5.39    1.87
   9   1   1    2.52    1.29
   9  -1   2    3.99    1.81
   9   1   2    4.47    1.79
   9  -1   3   17.50    3.42
   9   1   3   14.33    2.87
   9  -1   4    1.02    1.25
   9   1   4    4.46    1.79
   9  -1   5    1.89    1.22
   9   1   5    1.30    1.25
   9  -1   6    2.71    1.55
   9   1   6    3.49    1.85
   9  -1   7    0.72    1.22
   9   1   7    1.52    1.53
   9  -2  -7    3.06    1.50
   9  -2  -6   12.23    2.73
   9  -2  -5   16.46    3.28
   9   2  -5   18.92    3.59
   9  -2  -4    7.59    2.19
   9   2  -4   11.48    2.70
  -9  -2   4   10.04    2.35
   9  -2  -3    4.43    1.66
   9   2  -3    3.74    1.58
  -9  -2   3    4.17    1.60
   9  -2  -2   19.40    3.53
   9   2  -2   17.94    3.27
  -9  -2   2   16.81    3.01
   9  -2  -1   17.93    3.42
   9   2  -1   22.35    3.59
  -9  -2   1   19.54    3.38
   9  -2   0    3.50    1.77
   9   2   0    5.97    1.94
  -9  -2   0    1.65    1.24
   9  -2   1    9.14    2.57
   9   2   1   14.74    3.05
   9  -2   2   19.76    3.58
   9   2   2   16.10    3.13
   9  -2   3   11.03    2.82
   9   2   3   13.12    2.75
   9  -2   4    9.56    2.83
   9   2   4   14.25    2.92
   9  -2   5    3.20    1.56
   9   2   5    6.25    1.96
   9  -2   6    0.76    1.55
   9   2   6   -0.07    1.02
   9  -3  -7    0.78    1.06
   9  -3  -6    2.56    1.52
   9  -3  -5    2.69    1.37
   9  -3  -4   -0.48    0.90
   9   3  -4    2.04    1.51
  -9  -3   4    1.33    1.02
   9  -3  -3    4.31    1.78
   9   3  -3    5.17    1.98
  -9  -3   3    4.29    1.54
   9  -3  -2    1.43    1.46
   9   3  -2    1.88    1.08
  -9  -3   2    0.52    1.07
   9  -3  -1   -0.92    0.89
   9   3  -1   -0.03    0.70
  -9  -3   1    1.66    1.26
   9  -3   0   12.99    3.12
   9   3   0    6.75    2.12
  -9  -3   0    6.73    2.18
   9  -3   1   25.65    4.19
   9   3   1   24.36    3.76
  -9  -3  -1   24.60    4.05
   9  -3   2    3.21    1.41
   9   3   2    4.93    1.71
   9  -3   3   12.25    3.10
   9   3   3   11.11    2.61
   9  -3   4    8.92    2.62
   9   3   4    8.48    2.16
   9   3   5    4.69    1.77
   9  -4  -6    2.68    1.64
   9  -4  -5   12.97    2.99
   9  -4  -4    7.76    2.34
   9  -4  -3   14.36    3.23
   9   4  -3   12.18    2.99
  -9  -4   3   14.22    3.16
   9  -4  -2    6.87    2.36
   9   4  -2    3.50    1.65
  -9  -4   2    3.09    1.55
   9  -4  -1   13.14    3.14
   9   4  -1   16.12    3.15
  -9  -4   1   10.55    2.77
   9  -4   0   30.89    4.74
  -9  -4   0   43.28    5.60
   9   4   0   39.54    4.80
   9  -4   1   17.76    3.74
   9   4   1   14.33    2.89
  -9  -4  -1   17.28    3.63
   9  -4   2    1.76    1.34
   9   4   2    3.38    1.64
  -9  -4  -2    4.93    2.24
   9  -4   3    7.85    2.65
   9   4   3    5.94    1.94
   9   4   4   12.18    2.72
   9  -5  -5    4.73    2.10
   9  -5  -4    2.79    1.36
   9  -5  -3    4.24    1.96
  -9  -5   3    3.50    1.94
   9  -5  -2    5.05    2.07
  -9  -5   2    3.47    1.78
   9  -5  -1    7.92    2.47
   9   5  -1    6.14    1.98
  -9  -5   1   11.77    3.21
   9  -5   0    8.91    2.63
   9   5   0    5.84    1.89
  -9  -5   0    6.51    2.62
   9   5   1    6.17    1.91
  -9  -5  -1    6.07    2.33
   9   5   2    1.77    1.09
   9   5   3    2.00    1.54
   9   6   2    0.66    1.29
  10   0  -2    3.95    1.95
  10   0  -1   18.49    3.60
  10   0   0    5.56    2.16
  10   0   1    8.18    2.52
  10   0   2   27.77    4.40
  10   0   3   20.36    3.95
  10  -1  -3    2.72    1.73
  10  -1  -2    3.22    1.59
  10   1  -2    0.89    1.15
  10  -1  -1    2.27    1.57
  10   1  -1    0.23    1.07
  10  -1   0    1.96    1.34
  10   1   0    1.41    1.33
  10  -1   1    9.10    2.58
  10   1   1    4.53    2.11
  10  -1   2    5.63    2.20
  10   1   2    4.64    1.93
  10   1   3   -0.14    0.93
  10   1   4    3.68    1.81
  10  -2  -1   15.18    3.33
  10   2  -1    9.64    2.61
 -10  -2   1    7.95    2.32
  10  -2   0   10.33    2.82
  10   2   0    7.95    2.36
  10   2   1   22.01    3.77
  10   2   2   18.11    3.46
  10   2   3    0.97    1.17
  10   2   4    9.81    2.63
 -10  -3   3    1.24    1.44
 -10  -3   2    0.14    0.99
 -10  -3   1    3.43    1.73
 -10  -3   0    2.30    1.64
  10   3   2    0.18    0.89
 -10  -4   3    2.63    1.60
 -10  -4   2    3.14    1.47
 -10  -4   1    6.17    2.41
   0   0   0    0.00    0.00


TITL ljq180522-1 in P2(1)/m
REM P2(1)/m (#11 in standard setting)
CELL 0.71073   8.158836   7.866980  10.216083  90.0000  90.5204  90.0000
ZERR    3.00   0.000471   0.000397   0.000463   0.0000   0.0045   0.0000
LATT  1
SYMM -x, y+1/2,-z
SFAC C H N O
UNIT 33.00 30.00 3.00 3.00
TREF
HKLF 4
END
_computing_structure_solution     'SHELXT 2014/5 (Sheldrick, 2014)'

_shelx_hkl_checksum                19731
_olex2_submission_special_instructions  'No special instructions were received'
_oxdiff_exptl_absorpt_empirical_details
;
_oxdiff_exptl_absorpt_empirical_full_max 1.229
_oxdiff_exptl_absorpt_empirical_full_min 0.819
loop_
_space_group_symop_operation_xyz
'x, y, z'
'-x, y+1/2, -z'
loop_
_atom_site_label
_atom_site_type_symbol
_atom_site_fract_x
_atom_site_fract_y
_atom_site_fract_z
_atom_site_U_iso_or_equiv
_atom_site_adp_type
_atom_site_occupancy
_atom_site_site_symmetry_order
_atom_site_calc_flag
_atom_site_refinement_flags_posn
_atom_site_refinement_flags_adp
_atom_site_refinement_flags_occupancy
_atom_site_disorder_assembly
_atom_site_disorder_group
S1 S 0.50169(13) 0.3258(2) 0.50717(10) 0.0574(3) Uani 1 1 d . . . . .
O1 O 0.1820(4) 0.5895(6) 0.2193(3) 0.0821(11) Uani 1 1 d . . . . .
C1 C 0.7057(5) 0.3465(6) 0.3068(4) 0.0575(10) Uani 1 1 d . . . . .
H1 H 0.7759 0.2866 0.3622 0.069 Uiso 1 1 calc R . . . .
C2 C 0.7561(5) 0.3928(7) 0.1847(4) 0.0696(13) Uani 1 1 d . . . . .
H2 H 0.8622 0.3665 0.1591 0.084 Uiso 1 1 calc R . . . .
C3 C 0.6543(5) 0.4773(7) 0.0986(4) 0.0639(12) Uani 1 1 d . . . . .
C4 C 0.4980(5) 0.5176(5) 0.1393(4) 0.0542(10) Uani 1 1 d . . . . .
H4 H 0.4281 0.5747 0.0819 0.065 Uiso 1 1 calc R . . . .
C5 C 0.4414(5) 0.4752(5) 0.2646(3) 0.0451(8) Uani 1 1 d . . . . .
C6 C 0.2708(5) 0.5198(5) 0.2990(4) 0.0510(9) Uani 1 1 d . . . . .
C7 C 0.2099(4) 0.4795(5) 0.4315(3) 0.0447(8) Uani 1 1 d . . . . .
C8 C 0.0491(5) 0.5289(5) 0.4617(4) 0.0582(10) Uani 1 1 d . . . . .
H8 H -0.0150 0.5829 0.3985 0.070 Uiso 1 1 calc R . . . .
C9 C -0.0145(6) 0.4986(6) 0.5835(5) 0.0736(14) Uani 1 1 d . . . . .
H9 H -0.1209 0.5327 0.6021 0.088 Uiso 1 1 calc R . . . .
C10 C 0.0790(6) 0.4172(7) 0.6790(5) 0.0708(13) Uani 1 1 d . . . . .
H10 H 0.0356 0.3982 0.7615 0.085 Uiso 1 1 calc R . . . .
C11 C 0.2351(5) 0.3651(5) 0.6515(4) 0.0582(11) Uani 1 1 d . . . . .
H11 H 0.2969 0.3088 0.7149 0.070 Uiso 1 1 calc R . . . .
C12 C 0.3019(5) 0.3966(5) 0.5278(3) 0.0452(8) Uani 1 1 d . . . . .
C13 C 0.5477(5) 0.3898(5) 0.3482(3) 0.0459(8) Uani 1 1 d . . . . .
C14 C 0.7167(7) 0.5189(9) -0.0377(4) 0.0897(19) Uani 1 1 d . . . . .
H14 H 0.7875 0.4221 -0.0583 0.108 Uiso 1 1 calc R . . . .
C15 C 0.5995(8) 0.5186(9) -0.1415(5) 0.100(2) Uani 1 1 d . . . . .
H15A H 0.5429 0.4116 -0.1430 0.150 Uiso 1 1 calc GR . . . .
H15B H 0.6543 0.5352 -0.2232 0.150 Uiso 1 1 calc GR . . . .
H15C H 0.5221 0.6088 -0.1283 0.150 Uiso 1 1 calc GR . . . .
C16 C 0.8335(7) 0.6665(9) -0.0331(5) 0.0956(18) Uani 1 1 d . . . . .
H16A H 0.7768 0.7661 -0.0034 0.143 Uiso 1 1 calc GR . . . .
H16B H 0.8760 0.6867 -0.1191 0.143 Uiso 1 1 calc GR . . . .
H16C H 0.9223 0.6411 0.0260 0.143 Uiso 1 1 calc GR . . . .
loop_
_atom_site_aniso_label
_atom_site_aniso_U_11
_atom_site_aniso_U_22
_atom_site_aniso_U_33
_atom_site_aniso_U_23
_atom_site_aniso_U_13
_atom_site_aniso_U_12
S1 0.0539(5) 0.0659(6) 0.0525(5) 0.0146(5) 0.0008(4) 0.0108(5)
O1 0.0629(18) 0.122(3) 0.0614(17) 0.019(2) -0.0056(14) 0.032(2)
C1 0.0472(19) 0.064(3) 0.061(2) 0.004(2) -0.0005(16) 0.008(2)
C2 0.045(2) 0.098(4) 0.065(2) -0.013(2) 0.0051(19) -0.003(2)
C3 0.056(2) 0.088(3) 0.048(2) -0.008(2) 0.0090(19) -0.021(2)
C4 0.056(2) 0.063(3) 0.0432(17) -0.0006(16) -0.0059(16) -0.0088(18)
C5 0.0480(19) 0.0447(19) 0.0426(17) -0.0033(15) -0.0008(14) -0.0037(16)
C6 0.047(2) 0.056(2) 0.0504(19) 0.0019(16) -0.0061(16) 0.0052(16)
C7 0.0408(18) 0.0407(18) 0.0527(19) -0.0029(16) 0.0006(15) -0.0024(15)
C8 0.0412(19) 0.059(3) 0.075(2) 0.002(2) -0.0006(18) -0.0002(17)
C9 0.050(2) 0.075(3) 0.096(3) -0.006(3) 0.025(3) -0.005(2)
C10 0.066(3) 0.078(3) 0.069(3) 0.001(2) 0.024(2) -0.011(2)
C11 0.063(2) 0.059(3) 0.053(2) 0.0080(18) 0.0072(18) -0.010(2)
C12 0.0455(19) 0.0424(17) 0.0478(18) -0.0029(15) 0.0010(15) -0.0037(15)
C13 0.0454(19) 0.0469(19) 0.0453(17) -0.0037(15) -0.0002(14) -0.0016(15)
C14 0.084(3) 0.133(6) 0.052(2) 0.002(3) 0.014(2) -0.028(3)
C15 0.117(5) 0.131(6) 0.052(3) 0.009(3) 0.002(3) -0.036(4)
C16 0.093(4) 0.112(5) 0.082(3) 0.016(3) 0.009(3) -0.035(4)
loop_
_atom_type_symbol
_atom_type_description
_atom_type_scat_dispersion_real
_atom_type_scat_dispersion_imag
_atom_type_scat_source
C C 0.0033 0.0016 'International Tables Vol C Tables 4.2.6.8 and 6.1.1.4'
H H 0.0000 0.0000 'International Tables Vol C Tables 4.2.6.8 and 6.1.1.4'
O O 0.0106 0.0060 'International Tables Vol C Tables 4.2.6.8 and 6.1.1.4'
S S 0.1246 0.1234 'International Tables Vol C Tables 4.2.6.8 and 6.1.1.4'
loop_
_geom_angle_atom_site_label_1
_geom_angle_atom_site_label_2
_geom_angle_atom_site_label_3
_geom_angle
_geom_angle_site_symmetry_1
_geom_angle_site_symmetry_3
C12 S1 C13 103.31(18) . .
C2 C1 H1 120.1 . .
C2 C1 C13 119.7(4) . .
C13 C1 H1 120.1 . .
C1 C2 H2 119.1 . .
C1 C2 C3 121.8(4) . .
C3 C2 H2 119.1 . .
C2 C3 C4 118.2(4) . .
C2 C3 C14 118.9(4) . .
C4 C3 C14 122.9(4) . .
C3 C4 H4 118.9 . .
C3 C4 C5 122.1(4) . .
C5 C4 H4 118.9 . .
C4 C5 C6 118.5(3) . .
C13 C5 C4 117.9(3) . .
C13 C5 C6 123.6(3) . .
O1 C6 C5 120.2(3) . .
O1 C6 C7 120.4(3) . .
C5 C6 C7 119.4(3) . .
C8 C7 C6 117.6(3) . .
C12 C7 C6 124.2(3) . .
C12 C7 C8 118.2(3) . .
C7 C8 H8 119.6 . .
C9 C8 C7 120.8(4) . .
C9 C8 H8 119.6 . .
C8 C9 H9 119.8 . .
C8 C9 C10 120.4(4) . .
C10 C9 H9 119.8 . .
C9 C10 H10 120.0 . .
C11 C10 C9 120.0(4) . .
C11 C10 H10 120.0 . .
C10 C11 H11 120.0 . .
C10 C11 C12 120.1(4) . .
C12 C11 H11 120.0 . .
C7 C12 S1 124.4(3) . .
C7 C12 C11 120.5(4) . .
C11 C12 S1 115.2(3) . .
C1 C13 S1 114.6(3) . .
C5 C13 S1 125.1(3) . .
C5 C13 C1 120.2(3) . .
C3 C14 H14 103.4 . .
C15 C14 C3 117.0(4) . .
C15 C14 H14 103.4 . .
C15 C14 C16 116.5(5) . .
C16 C14 C3 110.8(4) . .
C16 C14 H14 103.4 . .
C14 C15 H15A 109.5 . .
C14 C15 H15B 109.5 . .
C14 C15 H15C 109.5 . .
H15A C15 H15B 109.5 . .
H15A C15 H15C 109.5 . .
H15B C15 H15C 109.5 . .
C14 C16 H16A 109.5 . .
C14 C16 H16B 109.5 . .
C14 C16 H16C 109.5 . .
H16A C16 H16B 109.5 . .
H16A C16 H16C 109.5 . .
H16B C16 H16C 109.5 . .
loop_
_geom_bond_atom_site_label_1
_geom_bond_atom_site_label_2
_geom_bond_distance
_geom_bond_site_symmetry_2
S1 C12 1.737(4) .
S1 C13 1.745(4) .
O1 C6 1.216(5) .
C1 H1 0.9300 .
C1 C2 1.366(6) .
C1 C13 1.402(5) .
C2 H2 0.9300 .
C2 C3 1.376(7) .
C3 C4 1.381(6) .
C3 C14 1.523(6) .
C4 H4 0.9300 .
C4 C5 1.404(5) .
C5 C6 1.481(5) .
C5 C13 1.386(5) .
C6 C7 1.481(5) .
C7 C8 1.406(5) .
C7 C12 1.393(5) .
C8 H8 0.9300 .
C8 C9 1.373(6) .
C9 H9 0.9300 .
C9 C10 1.389(7) .
C10 H10 0.9300 .
C10 C11 1.369(7) .
C11 H11 0.9300 .
C11 C12 1.403(5) .
C14 H14 0.9800 .
C14 C15 1.421(7) .
C14 C16 1.503(8) .
C15 H15A 0.9600 .
C15 H15B 0.9600 .
C15 H15C 0.9600 .
C16 H16A 0.9600 .
C16 H16B 0.9600 .
C16 H16C 0.9600 .
