#------------------------------------------------------------------------------
#$Date: 2022-05-06 12:30:28 +0300 (Fri, 06 May 2022) $
#$Revision: 275103 $
#$URL: file:///home/coder/svn-repositories/cod/cif/8/10/51/8105170.cif $
#------------------------------------------------------------------------------
#
# This file is available in the Crystallography Open Database (COD),
# http://www.crystallography.net/
#
# All data on this site have been placed in the public domain by the
# contributors.
#
data_8105170
loop_
_publ_author_name
'Jia, Hua-Li'
'Zhou, Juan'
'Wang, Xin'
'Zhao, Hui'
'Feng, Bo-Fang'
_publ_section_title
;
 The crystal structure of 2-bromoisonicotinic acid, C6H4BrNO2
;
_journal_issue                   3
_journal_name_full
'Zeitschrift f\"ur Kristallographie - New Crystal Structures'
_journal_page_first              555
_journal_page_last               556
_journal_paper_doi               10.1515/ncrs-2019-0798
_journal_volume                  235
_journal_year                    2020
_chemical_formula_moiety         'C6 H4 Br N O2'
_chemical_formula_sum            'C6 H4 Br N O2'
_chemical_formula_weight         202.00
_space_group_crystal_system      monoclinic
_space_group_IT_number           14
_space_group_name_Hall           '-P 2ybc'
_space_group_name_H-M_alt        'P 1 21/c 1'
_symmetry_Int_Tables_number      14
_cell_angle_alpha                90
_cell_angle_beta                 102.302(4)
_cell_angle_gamma                90
_cell_formula_units_Z            4
_cell_length_a                   11.9715(14)
_cell_length_b                   7.5753(7)
_cell_length_c                   7.4498(8)
_cell_measurement_reflns_used    3113
_cell_measurement_temperature    150(2)
_cell_measurement_theta_max      26.29
_cell_measurement_theta_min      3.20
_cell_volume                     660.09(12)
_computing_cell_refinement       'SAINT v8.37A (Bruker, 2015) [1]'
_computing_data_collection       'Bruker APEX-II'
_computing_data_reduction        'SAINT v8.37A (Bruker, 2015) [1]'
_computing_molecular_graphics    'Olex2 (Dolomanov et al., 2009) [4]'
_computing_publication_material  'Olex2 (Dolomanov et al., 2009) [4]'
_computing_structure_refinement  'olex2.refine (Bourhis et al., 2015) [3]'
_computing_structure_solution    'ShelXT (Sheldrick, 2015) [2]'
_diffrn_ambient_temperature      150.0
_diffrn_measured_fraction_theta_full 0.9985
_diffrn_measured_fraction_theta_max 0.9985
_diffrn_measurement_device       'Bruker APEX-II diffractometer'
_diffrn_measurement_device_type  'Bruker APEX-II CCD'
_diffrn_measurement_method       '\f and \w scans'
_diffrn_radiation_type           'Mo K\a'
_diffrn_radiation_wavelength     0.71073
_diffrn_reflns_av_R_equivalents  0.0582
_diffrn_reflns_av_unetI/netI     0.0359
_diffrn_reflns_limit_h_max       14
_diffrn_reflns_limit_h_min       -14
_diffrn_reflns_limit_k_max       9
_diffrn_reflns_limit_k_min       -9
_diffrn_reflns_limit_l_max       9
_diffrn_reflns_limit_l_min       -9
_diffrn_reflns_number            8662
_diffrn_reflns_theta_full        26.3855
_diffrn_reflns_theta_max         26.39
_diffrn_reflns_theta_min         3.20
_diffrn_standards_number         0
_exptl_absorpt_coefficient_mu    6.154
_exptl_absorpt_correction_T_max  0.7454
_exptl_absorpt_correction_T_min  0.5109
_exptl_absorpt_correction_type   multi-scan
_exptl_absorpt_process_details
;
SADABS-2016/2 (Bruker,2016/2) was used for absorption correction.
wR2(int) was 0.1134 before and 0.0593 after correction.
The Ratio of minimum to maximum transmission is 0.6854.
The \l/2 correction factor is Not present.
;
_exptl_crystal_density_diffrn    2.0325
_exptl_crystal_density_method    'not measured'
_exptl_crystal_F_000             391.1313
_exptl_crystal_size_max          0.25
_exptl_crystal_size_mid          0.15
_exptl_crystal_size_min          0.1
_refine_diff_density_max         0.7545
_refine_diff_density_min         -0.6073
_refine_diff_density_rms         0.1676
_refine_ls_d_res_high            0.7996
_refine_ls_d_res_low             6.3583
_refine_ls_goodness_of_fit_ref   1.0345
_refine_ls_hydrogen_treatment    constr
_refine_ls_matrix_type           full
_refine_ls_number_constraints    8
_refine_ls_number_parameters     92
_refine_ls_number_reflns         1354
_refine_ls_number_restraints     0
_refine_ls_restrained_S_all      1.0345
_refine_ls_R_factor_all          0.0438
_refine_ls_R_factor_gt           0.0290
_refine_ls_shift/su_max          0.0000
_refine_ls_shift/su_mean         0.0000
_refine_ls_structure_factor_coef Fsqd
_refine_ls_weighting_details
'w=1/[\s^2^(Fo^2^)+(0.0244P)^2^+0.9465P] where P=(Fo^2^+2Fc^2^)/3'
_refine_ls_weighting_scheme      calc
_refine_ls_wR_factor_gt          0.0582
_refine_ls_wR_factor_ref         0.0635
_reflns_Friedel_coverage         0.0
_reflns_limit_h_max              14
_reflns_limit_h_min              -14
_reflns_limit_k_max              9
_reflns_limit_k_min              0
_reflns_limit_l_max              9
_reflns_limit_l_min              0
_reflns_number_gt                1106
_reflns_number_total             1354
_reflns_threshold_expression     I>=2u(I)
_iucr_refine_instructions_details
;
TITL mo_0708_1_0ma_a.res in P2(1)/c
CELL 0.71073 11.9715 7.5753 7.4498 90 102.302 90
ZERR 4 0.0014 0.0007 0.0008 0 0.004 0
LATT 1
SYMM -X,0.5+Y,0.5-Z
SFAC C H Br O N
UNIT 24 16 4 8 4

L.S. 10
PLAN  20
SIZE 0.25 0.15 0.1
TEMP -123.15
ACTA 
BOND $H
FMAP 2
WGHT 0.024365 0.946504
FVAR 0.388058
REM <olex2.extras>
REM <HklSrc "%.\\1.hkl">
REM </olex2.extras>

Br1   3     0.45682  0.20988  0.56170  11.00000  0.02102  0.01986  0.02654 =
 -0.00090  0.00943  0.00611 
C1    1     0.18452  0.75290  0.64300  11.00000  0.01924  0.01593  0.02233 =
 -0.00021  0.00415 -0.00055 
C2    1     0.20445  0.55621  0.63348  11.00000  0.01878  0.01134  0.01986 =
 0.00018  0.00471  0.00061 
C3    1     0.12048  0.44011  0.66351  11.00000  0.01547  0.01829  0.02557 =
 0.00135  0.00633  0.00070 
AFIX 43
H3    2     0.05093  0.48284  0.68922  11.00000 -1.20000 
AFIX 0
C4    1     0.14052  0.26138  0.65511  11.00000  0.01981  0.01675  0.02638 =
 0.00268  0.00711 -0.00408 
AFIX 43
H4    2     0.08241  0.18182  0.67252  11.00000 -1.20000 
AFIX 0
C5    1     0.31804  0.30856  0.59878  11.00000  0.01703  0.01565  0.01576 =
 -0.00169  0.00452 -0.00039 
C6    1     0.30575  0.49024  0.59845  11.00000  0.01809  0.01236  0.01945 =
 0.00019  0.00404 -0.00268 
AFIX 43
H6    2     0.36413  0.56638  0.57526  11.00000 -1.20000 
AFIX 0
N1    5     0.23851  0.19461  0.62341  11.00000  0.02108  0.01462  0.02013 =
 0.00136  0.00542  0.00113 
O1    4     0.26845  0.84493  0.59862  11.00000  0.02430  0.00946  0.04514 =
 0.00048  0.01366 -0.00040 
AFIX 147
H1    2     0.25515  0.95325  0.60624  11.00000 -1.50000 
AFIX 0
O2    4     0.10161  0.81366  0.68746  11.00000  0.02447  0.01880  0.04914 =
 -0.00069  0.01808  0.00468 
HKLF 4

END
Q1 1 0.4558 0.3776 0.5569 11 0.05 0.79
Q6 1 0.3775 0.7858 0.692 11 0.05 0.61
Q46 1 0.3923 0.612 0.7046 11 0.05 0.38
Q47 1 0.5181 0.2079 0.7501 11 0.05 0.37
Q48 1 -0.0549 0.3554 0.5349 11 0.05 0.36
Q49 1 0.1774 0.6467 0.6179 11 0.05 0.36
Q50 1 0.4466 0.8376 0.6702 11 0.05 0.35
Q51 1 0.1202 0.4808 0.4391 11 0.05 0.33
Q52 1 0.1514 0.5006 0.6156 11 0.05 0.33
Q53 1 0.3832 0.1579 0.383 11 0.05 0.33
Q54 1 0.2876 0.2847 0.818 11 0.05 0.31
Q55 1 0.2662 0.2353 0.5757 11 0.05 0.31
Q56 1 0.3013 0.4047 0.5594 11 0.05 0.3
Q57 1 -0.0298 0.4583 0.581 11 0.05 0.3
Q58 1 0.3544 0.818 0.8288 11 0.05 0.3
Q59 1 0.2886 0.0904 0.3937 11 0.05 0.3
Q60 1 0.1779 0.1407 0.8668 11 0.05 0.29
Q61 1 0.5378 0.3255 0.6925 11 0.05 0.29
Q62 1 0.3812 0.5608 0.331 11 0.05 0.29
Q63 1 0.2405 0.0896 0.6086 11 0.05 0.28
Q35 1 0.275 0.416667 0.875 11 0.05 0.44
Q42 1 0.05 0 0.75 11 0.05 0.43
Q43 1 0.35 1.125 0.458333 11 0.05 0.43
Q3 1 0.45 0.375 0.541667 11 0.05 0.75
Q5 1 0.375 0.791667 0.708333 11 0.05 0.64
Q8 1 0.45 0.833333 0.666667 11 0.05 0.61
Q10 1 -0.1 0.5 0.583333 11 0.05 0.57
Q13 1 0.3 0.416667 0.541667 11 0.05 0.55
Q14 1 0.325 0.166667 0.791667 11 0.05 0.55
Q16 1 0.175 0.5 0.666667 11 0.05 0.53
Q18 1 0.275 0.291667 0.791667 11 0.05 0.48
Q21 1 0.125 0.875 0.5 11 0.05 0.48
Q22 1 0.325 1 0.75 11 0.05 0.48
Q25 1 0.525 0.208333 0.75 11 0.05 0.46
Q27 1 0.175 0.375 0.875 11 0.05 0.46
Q26 1 0.15 0.125 0.625 11 0.05 0.46
Q32 1 0 0.666667 0.583333 11 0.05 0.45
Q30 1 0.375 0.333333 0.625 11 0.05 0.45
Q31 1 0.375 0.25 0.416667 11 0.05 0.45
Q39 1 0.15 0.125 0.875 11 0.05 0.44
Q41 1 0.175 0.666667 0.625 11 0.05 0.44
Q40 1 0.475 0.041667 0.708333 11 0.05 0.44
Q45 1 0.125 0.375 0.666667 11 0.05 0.43

  REM The information below was added by Olex2.
  REM
  REM R1 = 0.0290 for 1106 Fo > 4sig(Fo) and 0.0438 for all 1354 data
  REM 92 parameters refined using 0 restraints
  REM Highest difference peak 0.7545, deepest hole -0.6073
  REM Mean Shift 0.0000, Max Shift 0.0000.

  REM +++ Tabular Listing of Refinement Information +++
  REM R1_all = 0.0438
  REM R1_gt = 0.0290
  REM wR_ref = 0.0635
  REM GOOF = 1.0345
  REM Shift_max = 0.0000
  REM Shift_mean = 0.0000
  REM Reflections_all = 1354
  REM Reflections_gt = 1106
  REM Parameters = 92
  REM Hole = -0.6073
  REM Peak = 0.7545
  REM Flack = n/a

  
;
_cod_data_source_file            suppl_ncrs-2019-0798_suppl.cif
_cod_data_source_block           1
_cod_original_sg_symbol_H-M      'P 21/c'
_cod_database_code               8105170
_olex2_refinement_description
;
1. Fixed Uiso
 At 1.2 times of:
  All C(H) groups
 At 1.5 times of:
  All O(H) groups
2.a Aromatic/amide H refined with riding coordinates:
 C3(H3), C4(H4), C6(H6)
2.b Idealised tetrahedral OH refined as rotating group:
 O1(H1)
;
_iucr_refine_fcf_details
;
data_1
_computing_structure_refinement   'olex2.refine (Bourhis et al., 2015)'
_shelx_refln_list_code            4
loop_
  _space_group_symop_id
  _space_group_symop_operation_xyz
  1  x,y,z
  2  -x,y+1/2,-z+1/2
  3  -x,-y,-z
  4  x,-y-1/2,z-1/2

_space_group_crystal_system       monoclinic
_space_group_IT_number            14
_space_group_name_H-M_alt         'P 1 21/c 1'
_space_group_name_Hall            '-P 2ybc'
_symmetry_space_group_name_H-M    'P 1 21/c 1'
_symmetry_space_group_name_Hall   '-P 2ybc'
_symmetry_Int_Tables_number       14
_cell_length_a                    11.9715(14)
_cell_length_b                    7.5753(7)
_cell_length_c                    7.4498(8)
_cell_angle_alpha                 90
_cell_angle_beta                  102.302(4)
_cell_angle_gamma                 90
_cell_volume                      660.09(12)
loop_
  _refln_index_h
  _refln_index_k
  _refln_index_l
  _refln_F_squared_calc
  _refln_F_squared_meas
  _refln_F_squared_sigma
  _refln_F_squared_weight
  _refln_observed_status
-14 0 2 55.075 59.792 39.434 39.615 o
-14 0 4 891.388 780.716 56.074 14.545 o
-14 1 1 1.163 -25.675 27.356 85.171 o
-14 1 2 1453.890 1595.730 55.509 10.925 o
-14 1 3 3.104 20.719 28.448 78.012 o
-14 1 4 948.535 943.623 42.892 19.522 o
-14 2 1 219.922 233.855 44.630 28.555 o
-14 2 2 15.686 -2.841 28.200 79.240 o
-14 2 3 171.697 145.373 30.864 56.836 o
-14 2 4 268.345 183.230 33.280 46.609 o
-14 3 1 80.058 54.627 30.481 63.810 o
-14 3 2 265.406 231.842 34.785 42.849 o
-14 3 3 147.705 98.728 32.805 52.695 o
-13 0 2 616.125 610.369 45.715 22.038 o
-13 0 4 190.895 237.869 39.455 35.895 o
-13 0 6 1520.340 1387.440 145.872 2.662 o
-13 1 1 109.205 106.301 25.065 86.494 o
-13 1 2 2368.840 2362.370 71.574 5.969 o
-13 1 3 6.776 31.205 26.323 90.223 o
-13 1 4 1583.950 1686.200 56.901 10.090 o
-13 1 5 52.906 79.985 27.713 76.971 o
-13 1 6 249.680 208.074 35.373 42.324 o
-13 2 1 584.856 534.603 37.751 29.615 o
-13 2 2 597.009 537.043 31.560 36.671 o
-13 2 3 409.181 375.856 30.343 45.849 o
-13 2 4 214.405 178.911 28.545 61.890 o
-13 2 5 71.325 46.994 28.824 71.444 o
-13 3 1 260.269 236.502 31.165 51.127 o
-13 3 2 887.059 863.307 39.020 22.677 o
-13 3 3 7.828 34.926 26.706 87.478 o
-13 3 4 333.601 277.100 31.305 47.730 o
-13 3 5 490.041 469.040 36.869 32.635 o
-13 4 1 705.990 666.656 38.902 25.997 o
-13 4 2 163.220 180.413 32.351 52.151 o
-13 4 3 1146.240 1194.810 48.937 14.847 o
-13 4 4 32.626 26.545 33.640 54.948 o
-12 0 2 763.120 736.827 46.034 20.121 o
-12 0 4 0.504 -14.720 29.915 71.270 o
-12 0 6 929.999 834.751 61.840 12.381 o
-12 1 1 10.973 -4.109 21.776 132.599 o
-12 1 2 1560.670 1497.660 53.079 11.229 o
-12 1 3 36.762 23.981 22.189 121.820 o
-12 1 4 3378.190 3517.810 70.510 4.204 o
-12 1 5 35.944 34.141 23.534 108.502 o
-12 1 6 718.511 650.587 34.443 29.920 o
-12 2 1 66.944 -0.544 22.609 115.041 o
-12 2 2 758.535 714.473 33.891 29.252 o
-12 2 3 945.186 888.514 38.422 22.290 o
-12 2 4 63.924 11.431 22.440 116.260 o
-12 2 5 310.409 277.686 27.898 57.221 o
-12 2 6 807.117 734.903 36.137 26.463 o
-12 3 1 402.778 379.828 30.135 46.409 o
-12 3 2 781.287 810.716 38.556 24.475 o
-12 3 3 10.754 35.604 23.122 115.407 o
-12 3 4 1461.960 1462.810 52.722 11.743 o
-12 3 5 255.514 246.797 28.693 57.988 o
-12 3 6 132.081 61.202 30.188 62.492 o
-12 4 1 220.453 240.312 26.103 68.834 o
-12 4 2 640.374 626.393 43.361 23.441 o
-12 4 3 1432.690 1426.430 48.940 12.852 o
-12 4 4 14.267 -22.280 25.193 99.110 o
-12 4 5 784.645 703.398 42.492 22.283 o
-12 5 1 412.042 479.684 30.548 43.801 o
-12 5 2 73.046 33.022 25.899 87.472 o
-12 5 3 48.280 -14.145 29.384 71.327 o
-12 5 4 99.800 55.387 29.262 67.801 o
-11 0 2 2826.670 2742.230 81.875 4.557 o
-11 0 4 57.067 37.830 26.831 82.927 o
-11 0 6 511.609 366.264 38.833 30.767 o
-11 1 1 136.672 134.316 24.484 86.329 o
-11 1 2 18.628 7.034 20.035 153.557 o
-11 1 3 109.214 120.004 22.002 106.620 o
-11 1 4 2390.730 2506.010 55.578 7.176 o
-11 1 5 0.977 -16.127 20.190 156.287 o
-11 1 6 2291.600 2321.470 57.024 7.441 o
-11 1 7 42.809 26.949 25.940 89.958 o
-11 2 1 35.624 49.196 21.759 124.509 o
-11 2 2 598.902 658.669 33.680 32.763 o
-11 2 3 254.454 294.690 24.780 70.100 o
-11 2 4 62.039 69.166 25.528 89.219 o
-11 2 5 722.271 716.200 32.511 31.174 o
-11 2 6 87.052 111.683 24.370 92.543 o
-11 2 7 77.087 65.260 27.161 78.757 o
-11 3 1 1877.810 1739.530 63.548 8.218 o
-11 3 2 42.687 84.543 19.643 144.562 o
-11 3 3 115.444 97.796 25.107 86.081 o
-11 3 4 1272.860 1332.150 50.910 13.272 o
-11 3 5 164.022 149.481 25.585 77.780 o
-11 3 6 1107.390 999.353 47.613 16.102 o
-11 4 1 60.966 77.285 20.709 129.070 o
-11 4 2 616.974 658.395 35.394 30.586 o
-11 4 3 792.328 854.802 38.815 23.907 o
-11 4 4 294.576 213.847 25.543 67.278 o
-11 4 5 1270.470 1247.780 47.492 14.508 o
-11 4 6 38.203 28.783 28.809 73.857 o
-11 5 1 1905.350 2069.270 52.718 9.227 o
-11 5 2 3.079 18.763 22.193 127.496 o
-11 5 3 80.748 103.429 31.206 60.077 o
-11 5 4 209.070 186.888 26.314 70.308 o
-11 5 5 131.803 128.638 28.841 66.068 o
-11 6 1 173.121 118.987 24.329 84.734 o
-11 6 2 96.738 116.289 26.001 81.785 o
-11 6 3 1052.390 1098.600 43.154 17.974 o
-10 0 2 3001.280 3123.910 82.124 4.220 o
-10 0 4 1173.010 1269.810 52.670 13.355 o
-10 0 6 174.116 158.962 31.318 55.106 o
-10 0 8 918.083 912.310 56.195 14.105 o
-10 1 1 1238.680 1177.440 37.593 18.507 o
-10 1 2 1235.230 1172.660 35.080 19.598 o
-10 1 3 152.855 123.494 20.556 111.914 o
-10 1 4 344.808 325.770 28.212 53.875 o
-10 1 5 291.784 264.304 21.931 80.162 o
-10 1 6 1505.760 1557.970 45.557 13.036 o
-10 1 7 33.756 22.790 23.358 111.030 o
-10 1 8 702.874 687.758 51.036 17.951 o
-10 2 1 74.956 49.470 17.204 176.496 o
-10 2 2 3221.750 3233.270 65.370 4.725 o
-10 2 3 408.834 473.112 30.853 43.431 o
-10 2 4 76.342 100.817 18.531 149.203 o
-10 2 5 314.135 265.652 26.699 60.904 o
-10 2 6 189.571 184.239 23.366 85.679 o
-10 2 7 229.347 204.459 26.752 66.885 o
-10 3 1 1329.720 1388.550 38.787 16.519 o
-10 3 2 365.815 334.201 21.789 72.016 o
-10 3 3 1474.040 1342.030 49.818 12.636 o
-10 3 4 447.440 489.670 29.159 45.138 o
-10 3 5 13.411 36.977 21.430 133.023 o
-10 3 6 901.754 900.736 38.270 22.785 o
-10 3 7 473.701 378.126 31.428 41.925 o
-10 4 1 226.260 191.066 23.488 81.581 o
-10 4 2 358.598 355.904 26.068 58.316 o
-10 4 3 814.752 798.854 34.499 27.204 o
-10 4 4 251.987 243.466 29.096 57.006 o
-10 4 5 926.192 920.357 36.955 23.221 o
-10 4 6 20.849 34.547 24.391 103.016 o
-10 5 1 2365.730 2333.660 73.721 5.823 o
-10 5 2 1.541 32.259 18.479 180.897 o
-10 5 3 1396.060 1488.220 54.127 11.624 o
-10 5 4 61.254 63.885 25.745 88.136 o
-10 5 5 85.506 107.537 25.359 86.678 o
-10 5 6 218.125 221.774 30.778 53.912 o
-10 6 1 1.459 -4.035 19.765 162.944 o
-10 6 2 6.730 13.951 20.918 142.974 o
-10 6 3 1018.560 1010.820 41.484 19.362 o
-10 6 4 84.574 54.482 36.330 45.778 o
-10 7 1 1206.550 1141.770 41.540 17.334 o
-10 7 2 110.632 106.844 33.005 53.170 o
-9 0 2 3034.490 3202.540 87.510 3.925 o
-9 0 4 1258.580 1320.960 59.234 11.210 o
-9 0 6 33.950 -14.763 32.749 58.309 o
-9 0 8 470.090 482.223 61.684 14.543 o
-9 1 1 243.993 220.162 19.912 97.711 o
-9 1 2 779.320 784.787 35.975 26.631 o
-9 1 3 1138.360 1190.880 32.362 21.742 o
-9 1 4 4149.380 4346.880 83.313 2.970 o
-9 1 5 59.461 48.712 17.174 182.463 o
-9 1 6 554.476 562.993 26.182 45.658 o
-9 1 7 374.315 340.814 29.088 50.312 o
-9 1 8 313.154 318.355 32.423 45.310 o
-9 2 1 81.386 82.634 15.152 205.170 o
-9 2 2 4068.200 4043.890 72.188 3.387 o
-9 2 3 613.987 594.191 29.116 38.865 o
-9 2 4 1953.340 1928.540 52.953 9.259 o
-9 2 5 742.095 768.471 32.514 30.344 o
-9 2 6 145.502 130.815 21.872 102.376 o
-9 2 7 158.890 130.772 23.134 92.469 o
-9 2 8 590.213 538.851 32.577 35.471 o
-9 3 1 1452.780 1457.420 40.269 14.999 o
-9 3 2 13.408 -1.876 16.722 221.428 o
-9 3 3 1035.030 1111.610 64.197 11.014 o
-9 3 4 1404.050 1435.560 64.313 9.576 o
-9 3 5 388.702 380.419 31.532 44.064 o
-9 3 6 582.579 584.589 27.505 42.238 o
-9 3 7 191.332 147.932 26.284 72.764 o
-9 4 1 439.203 424.647 26.440 52.203 o
-9 4 2 659.827 691.728 34.932 30.072 o
-9 4 3 1560.590 1587.850 62.393 9.326 o
-9 4 4 198.938 165.557 27.580 66.507 o
-9 4 5 1543.420 1611.340 53.126 11.076 o
-9 4 6 6.124 9.358 22.047 129.437 o
-9 4 7 432.650 403.772 31.945 41.780 o
-9 5 1 2575.900 2658.870 55.709 6.652 o
-9 5 2 16.819 2.313 18.298 184.262 o
-9 5 3 2080.350 2076.230 72.104 6.555 o
-9 5 4 103.226 69.879 21.207 117.729 o
-9 5 5 298.437 294.463 25.314 65.478 o
-9 5 6 94.571 116.846 26.096 81.413 o
-9 6 1 459.135 417.680 28.158 47.896 o
-9 6 2 67.724 63.288 18.923 150.694 o
-9 6 3 361.535 365.515 23.834 64.468 o
-9 6 4 20.925 20.110 22.618 120.069 o
-9 6 5 1603.000 1680.620 52.687 10.827 o
-9 7 1 996.243 994.486 46.714 17.183 o
-9 7 2 131.830 104.800 22.821 98.767 o
-9 7 3 1146.540 1191.830 61.424 11.246 o
-8 0 2 7675.980 7748.090 159.788 0.938 o
-8 0 4 1911.160 1984.510 86.361 5.541 o
-8 0 6 13.927 23.086 26.296 90.154 o
-8 0 8 193.409 180.657 36.395 41.841 o
-8 1 1 6.374 20.419 12.639 374.679 o
-8 1 2 1106.300 1178.480 31.796 22.471 o
-8 1 3 211.727 217.522 17.324 120.510 o
-8 1 4 2744.220 2847.080 54.640 6.256 o
-8 1 5 529.111 542.695 24.770 49.547 o
-8 1 6 4635.710 4817.440 92.214 2.450 o
-8 1 7 3.084 -7.141 19.041 175.036 o
-8 1 8 209.284 216.074 25.943 70.904 o
-8 2 1 304.236 303.198 19.584 87.884 o
-8 2 2 3602.770 3640.800 64.656 4.153 o
-8 2 3 53.198 48.477 13.047 289.142 o
-8 2 4 2673.400 2758.310 54.918 6.441 o
-8 2 5 1003.740 883.508 37.376 22.306 o
-8 2 6 335.768 325.115 25.108 63.148 o
-8 2 7 533.199 540.274 27.080 45.234 o
-8 2 8 560.151 467.768 47.710 21.675 o
-8 3 1 1470.180 1444.870 34.039 16.743 o
-8 3 2 435.906 466.151 21.297 64.202 o
-8 3 3 1671.470 1685.870 37.616 13.663 o
-8 3 4 529.737 488.767 39.104 29.325 o
-8 3 5 223.914 210.759 19.781 101.648 o
-8 3 6 1655.650 1710.960 46.600 11.772 o
-8 3 7 1.170 9.892 22.130 129.258 o
-8 3 8 254.282 259.021 29.145 56.439 o
-8 4 1 1167.060 1192.240 33.657 20.812 o
-8 4 2 1112.480 1066.640 31.312 23.340 o
-8 4 3 2.859 6.505 14.876 283.360 o
-8 4 4 541.359 514.132 26.780 45.928 o
-8 4 5 2574.260 2480.000 59.067 6.554 o
-8 4 6 13.225 49.057 19.128 163.562 o
-8 4 7 1177.450 1188.790 46.195 15.636 o
-8 5 1 1724.640 1734.390 45.175 11.710 o
-8 5 2 659.449 649.040 42.072 24.110 o
-8 5 3 3127.700 3371.340 71.076 4.492 o
-8 5 4 2.674 17.555 16.439 229.904 o
-8 5 5 740.193 712.294 33.790 29.666 o
-8 5 6 228.258 202.137 23.001 83.352 o
-8 5 7 10.947 25.482 25.536 95.631 o
-8 6 1 668.658 700.310 28.015 37.495 o
-8 6 2 0.086 29.244 17.486 202.487 o
-8 6 3 4.006 1.882 16.879 221.507 o
-8 6 4 148.123 132.875 19.878 117.571 o
-8 6 5 1016.060 1035.440 38.323 20.870 o
-8 6 6 26.131 14.874 23.554 110.713 o
-8 7 1 1432.440 1479.400 44.446 13.897 o
-8 7 2 86.290 97.095 18.641 145.879 o
-8 7 3 1278.890 1297.490 40.972 16.463 o
-8 7 4 177.850 156.250 22.307 94.326 o
-8 8 1 342.612 285.449 43.417 28.313 o
-7 0 2 4613.010 4817.020 103.507 2.266 o
-7 0 4 6175.480 6181.820 217.625 0.841 o
-7 0 6 267.570 277.800 31.664 48.977 o
-7 0 8 366.224 354.906 44.071 26.997 o
-7 1 1 6.283 6.629 9.661 641.763 o
-7 1 2 1001.190 1006.670 25.339 29.151 o
-7 1 3 39.326 12.021 10.507 457.246 o
-7 1 4 17.135 -9.665 14.653 282.796 o
-7 1 5 73.410 68.975 14.012 238.517 o
-7 1 6 3162.060 3222.980 75.610 4.328 o
-7 1 7 122.771 143.970 21.342 108.435 o
-7 1 8 2460.310 2424.960 60.595 6.682 o
-7 2 1 2138.620 2220.370 40.806 9.816 o
-7 2 2 2826.100 2746.720 47.314 6.687 o
-7 2 3 22.360 1.674 12.575 368.989 o
-7 2 4 3136.870 3231.030 54.584 5.345 o
-7 2 5 368.186 380.006 19.744 77.405 o
-7 2 6 606.522 599.751 29.246 38.808 o
-7 2 7 702.208 668.329 30.053 34.665 o
-7 2 8 7.826 24.819 23.404 113.807 o
-7 3 1 368.007 344.122 18.955 82.109 o
-7 3 2 552.649 599.410 23.377 50.001 o
-7 3 3 1995.800 1885.980 37.528 11.514 o
-7 3 4 31.534 47.731 13.023 310.675 o
-7 3 5 793.356 748.063 32.261 29.856 o
-7 3 6 997.900 976.870 38.572 21.207 o
-7 3 7 7.169 -11.713 20.098 156.197 o
-7 3 8 889.308 878.717 48.146 17.614 o
-7 4 1 1019.570 1041.970 27.545 27.069 o
-7 4 2 1768.610 1823.100 37.375 12.803 o
-7 4 3 81.088 35.864 13.021 271.940 o
-7 4 4 1074.830 1048.840 35.121 21.869 o
-7 4 5 285.768 288.014 24.288 70.127 o
-7 4 6 127.005 141.621 19.084 127.774 o
-7 4 7 1889.350 1889.210 48.503 10.192 o
-7 5 1 195.866 204.517 14.960 146.548 o
-7 5 2 17.738 20.411 13.247 330.017 o
-7 5 3 2432.940 2531.570 55.750 7.049 o
-7 5 4 209.032 219.683 20.829 96.395 o
-7 5 5 1726.850 1852.200 49.828 10.609 o
-7 5 6 28.718 -2.486 21.388 134.097 o
-7 5 7 40.552 38.304 22.629 115.861 o
-7 6 1 1573.100 1602.610 38.233 14.346 o
-7 6 2 1.672 -8.912 14.797 290.000 o
-7 6 3 23.836 26.121 17.708 189.208 o
-7 6 4 7.563 17.381 16.822 217.533 o
-7 6 5 463.247 448.550 25.488 52.810 o
-7 6 6 135.554 98.718 22.198 103.165 o
-7 7 1 692.205 683.182 32.597 31.951 o
-7 7 2 0.076 10.894 17.330 209.991 o
-7 7 3 2183.570 2313.600 48.827 8.580 o
-7 7 4 139.226 132.613 19.975 118.189 o
-7 7 5 671.110 599.011 31.995 33.852 o
-7 8 1 402.571 418.925 26.863 52.877 o
-7 8 2 50.482 66.198 22.189 116.654 o
-7 8 3 13.452 28.719 19.550 159.521 o
-6 0 2 7107.830 7405.050 148.749 1.067 o
-6 0 4 5486.360 5686.200 119.196 1.689 o
-6 0 6 2055.350 2200.010 61.828 7.559 o
-6 0 8 55.096 54.387 29.928 67.205 o
-6 1 1 923.403 999.901 23.365 32.246 o
-6 1 2 4655.700 4763.480 70.897 2.831 o
-6 1 3 69.042 28.639 9.444 444.209 o
-6 1 4 88.322 94.117 12.504 258.707 o
-6 1 5 29.218 10.188 13.667 305.647 o
-6 1 6 802.461 857.476 51.984 16.447 o
-6 1 7 3.170 -7.066 19.901 160.290 o
-6 1 8 1697.680 1728.610 47.661 11.353 o
-6 1 9 13.672 -1.047 27.300 84.620 o
-6 2 1 330.851 234.151 12.545 129.425 o
-6 2 2 3202.950 3247.280 51.763 5.374 o
-6 2 3 887.644 946.949 23.772 33.356 o
-6 2 4 3487.080 3472.250 64.928 4.337 o
-6 2 5 60.010 50.512 13.690 262.429 o
-6 2 6 1036.210 990.177 30.710 25.238 o
-6 2 7 408.156 477.616 31.900 41.530 o
-6 2 8 0.550 16.541 21.348 138.307 o
-6 3 1 2931.170 3076.790 50.015 6.023 o
-6 3 2 1642.630 1618.260 32.194 15.302 o
-6 3 3 1167.040 1142.180 31.140 22.281 o
-6 3 4 2.275 9.910 10.939 513.557 o
-6 3 5 1101.360 1039.850 30.977 23.841 o
-6 3 6 522.995 553.803 28.584 42.803 o
-6 3 7 102.665 112.202 19.442 131.604 o
-6 3 8 694.931 608.477 32.044 33.219 o
-6 4 1 2395.970 2379.230 44.594 8.348 o
-6 4 2 573.016 580.880 24.416 47.696 o
-6 4 3 70.137 60.482 11.947 305.660 o
-6 4 4 1975.040 2029.820 40.495 10.841 o
-6 4 5 236.262 203.847 19.407 102.871 o
-6 4 6 422.696 394.597 23.026 62.380 o
-6 4 7 407.159 397.520 27.854 50.837 o
-6 4 8 1.406 -8.112 23.351 116.819 o
-6 5 1 1544.450 1543.890 35.712 15.364 o
-6 5 2 5.120 1.709 11.325 483.212 o
-6 5 3 867.666 840.834 27.672 31.644 o
-6 5 4 219.614 183.034 16.197 131.769 o
-6 5 5 1347.880 1457.840 53.812 11.939 o
-6 5 6 11.746 32.862 19.545 159.507 o
-6 5 7 365.895 333.282 25.114 61.256 o
-6 6 1 1205.330 1261.190 32.129 20.715 o
-6 6 2 64.605 40.007 14.232 247.477 o
-6 6 3 371.673 356.822 23.785 64.275 o
-6 6 4 19.752 22.000 16.417 220.648 o
-6 6 5 215.007 166.236 21.828 92.734 o
-6 6 6 9.722 50.901 20.400 145.440 o
-6 7 1 221.677 202.222 17.930 115.447 o
-6 7 2 138.666 155.044 16.916 146.713 o
-6 7 3 1342.030 1427.050 39.089 16.194 o
-6 7 4 13.864 -11.008 15.939 242.742 o
-6 7 5 1449.860 1512.310 43.291 14.022 o
-6 8 1 1011.950 1034.120 35.490 22.456 o
-6 8 2 79.755 61.147 18.964 147.539 o
-6 8 3 55.749 44.763 17.372 180.894 o
-6 8 4 19.800 12.180 19.436 161.832 o
-5 0 2 3706.120 3839.830 81.014 3.455 o
-5 0 4 9269.600 9581.820 189.305 0.659 o
-5 0 6 2816.420 3163.650 195.888 1.379 o
-5 0 8 163.597 150.573 31.256 55.835 o
-5 1 1 630.048 683.946 17.748 54.179 o
-5 1 2 6706.410 6996.740 98.547 1.462 o
-5 1 3 1388.750 1489.900 28.345 19.040 o
-5 1 4 732.751 727.927 21.003 43.986 o
-5 1 5 70.358 50.915 14.585 231.503 o
-5 1 6 1332.970 1376.330 38.895 16.503 o
-5 1 7 1.410 16.909 19.020 173.368 o
-5 1 8 922.558 986.843 37.748 22.407 o
-5 1 9 4.673 -8.979 25.840 95.138 o
-5 2 1 145.212 122.060 9.149 283.486 o
-5 2 2 2217.100 2253.770 37.559 9.859 o
-5 2 3 11.606 20.968 8.470 743.477 o
-5 2 4 4448.040 4552.230 68.841 3.051 o
-5 2 5 30.509 18.861 13.119 322.664 o
-5 2 6 1742.390 1791.350 44.984 11.549 o
-5 2 7 140.121 116.710 17.837 140.597 o
-5 2 8 57.615 72.731 22.959 108.365 o
-5 2 9 180.323 128.818 32.222 52.796 o
-5 3 1 361.858 361.955 14.246 102.374 o
-5 3 2 2175.130 2064.580 35.979 10.576 o
-5 3 3 5262.820 5543.130 81.054 2.225 o
-5 3 4 210.015 200.464 14.956 143.429 o
-5 3 5 1053.960 1053.120 29.778 25.088 o
-5 3 6 362.000 325.644 20.968 75.640 o
-5 3 7 194.458 221.762 20.506 100.042 o
-5 3 8 564.610 555.823 28.292 41.993 o
-5 4 1 3425.940 3464.730 54.255 4.827 o
-5 4 2 4.227 18.656 9.030 707.784 o
-5 4 3 796.660 741.062 25.410 36.634 o
-5 4 4 903.502 882.145 25.171 32.569 o
-5 4 5 298.708 269.690 20.537 85.649 o
-5 4 6 1073.490 1099.360 33.140 22.644 o
-5 4 7 609.715 602.251 26.230 43.062 o
-5 4 8 44.042 17.849 22.615 116.939 o
-5 5 1 845.084 908.605 45.446 19.156 o
-5 5 2 2695.180 2833.630 47.371 6.860 o
-5 5 3 3701.020 3808.430 60.560 4.118 o
-5 5 4 1.406 -5.129 12.509 405.429 o
-5 5 5 774.312 764.021 31.136 31.094 o
-5 5 6 424.493 376.089 23.169 62.410 o
-5 5 7 217.842 195.471 21.529 92.617 o
-5 6 1 2745.260 2874.790 65.034 5.556 o
-5 6 2 286.652 277.228 15.162 116.868 o
-5 6 3 234.397 247.768 15.832 124.954 o
-5 6 4 45.120 22.247 13.783 281.931 o
-5 6 5 27.125 10.135 15.890 233.651 o
-5 6 6 25.197 21.235 20.453 144.591 o
-5 6 7 445.053 404.391 26.626 51.961 o
-5 7 1 130.568 106.715 19.184 129.409 o
-5 7 2 0.534 -1.183 12.626 399.373 o
-5 7 3 1125.160 1141.330 32.964 21.884 o
-5 7 4 23.214 29.371 15.688 235.955 o
-5 7 5 1036.580 1018.990 40.141 19.829 o
-5 8 1 2122.460 2232.760 51.174 8.587 o
-5 8 2 553.176 608.549 42.135 25.415 o
-5 8 3 499.223 459.523 29.361 43.632 o
-5 8 4 150.427 127.549 20.074 115.954 o
-4 0 2 155.489 157.737 12.102 206.594 o
-4 0 4 5489.370 5710.690 116.954 1.710 o
-4 0 6 4978.760 5249.990 114.962 1.918 o
-4 0 8 608.683 646.422 47.349 20.857 o
-4 1 1 366.035 377.764 12.344 109.293 o
-4 1 2 6875.030 6924.570 96.289 1.450 o
-4 1 3 851.894 898.114 19.891 38.364 o
-4 1 4 1593.420 1676.520 31.116 15.704 o
-4 1 5 863.274 837.669 26.663 32.658 o
-4 1 6 88.465 87.038 14.250 219.300 o
-4 1 7 10.866 36.538 17.248 201.834 o
-4 1 8 1577.880 1643.830 44.162 12.801 o
-4 1 9 8.969 -9.486 25.511 97.184 o
-4 2 1 8319.290 8686.620 119.462 0.988 o
-4 2 2 371.873 372.145 13.484 103.574 o
-4 2 3 68.973 58.530 8.149 487.254 o
-4 2 4 3942.920 4018.230 61.103 3.789 o
-4 2 5 370.838 417.454 19.843 75.231 o
-4 2 6 2437.350 2491.370 50.231 7.572 o
-4 2 7 88.603 93.267 19.643 134.039 o
-4 2 8 318.980 327.689 25.653 62.291 o
-4 2 9 66.655 35.578 25.872 88.062 o
-4 3 1 914.910 950.017 20.177 35.567 o
-4 3 2 5167.620 5181.450 74.534 2.423 o
-4 3 3 1397.200 1416.750 27.197 19.704 o
-4 3 4 531.097 496.899 19.491 61.815 o
-4 3 5 3867.250 4048.110 67.995 3.646 o
-4 3 6 83.616 93.213 15.519 194.828 o
-4 3 7 331.761 304.612 22.098 74.571 o
-4 3 8 475.212 454.607 28.844 45.395 o
-4 4 1 6522.260 6553.450 92.848 1.590 o
-4 4 2 258.053 255.259 11.839 150.914 o
-4 4 3 1719.760 1708.310 34.106 14.068 o
-4 4 4 270.382 272.645 14.809 122.794 o
-4 4 5 0.496 -12.495 11.995 442.479 o
-4 4 6 569.507 538.898 24.440 48.615 o
-4 4 7 832.648 905.363 34.900 25.884 o
-4 4 8 293.340 198.849 23.703 75.027 o
-4 5 1 23.319 12.704 8.730 670.448 o
-4 5 2 228.320 237.847 14.261 140.443 o
-4 5 3 2821.860 2835.460 50.143 6.424 o
-4 5 4 1506.580 1539.490 32.694 16.476 o
-4 5 5 3319.660 3357.580 64.340 4.595 o
-4 5 6 2.260 -8.880 14.670 294.530 o
-4 5 7 177.408 211.717 24.555 79.471 o
-4 6 1 7467.360 7752.630 127.931 1.110 o
-4 6 2 536.060 562.425 21.074 56.163 o
-4 6 3 1726.760 1780.460 34.980 13.627 o
-4 6 4 110.109 124.711 16.462 164.572 o
-4 6 5 102.323 61.964 19.032 141.456 o
-4 6 6 29.218 18.841 17.559 191.540 o
-4 6 7 359.214 306.921 33.845 41.474 o
-4 7 1 84.144 72.759 15.549 198.353 o
-4 7 2 70.861 69.488 13.823 244.775 o
-4 7 3 1066.270 1111.720 44.750 17.149 o
-4 7 4 8.839 11.756 12.468 387.167 o
-4 7 5 1376.660 1446.900 45.226 14.071 o
-4 7 6 0.731 -11.130 18.606 184.063 o
-4 8 1 1459.990 1530.340 36.702 15.725 o
-4 8 2 9.014 15.909 15.027 269.687 o
-4 8 3 1427.370 1491.650 42.432 14.442 o
-4 8 4 578.229 608.488 21.797 51.560 o
-4 9 1 17.141 21.038 15.666 242.527 o
-4 9 2 712.328 618.836 69.726 11.035 o
-3 0 2 7.142 11.787 7.637 958.149 o
-3 0 4 1252.570 1294.630 36.019 18.501 o
-3 0 6 3252.670 3386.220 80.422 3.977 o
-3 0 8 1230.030 1208.400 125.501 3.585 o
-3 1 1 330.843 298.162 9.727 139.243 o
-3 1 2 11138.900 11272.800 152.026 0.591 o
-3 1 3 16.952 21.238 6.619 1039.050 o
-3 1 4 2606.470 2512.980 40.840 7.933 o
-3 1 5 570.645 572.408 21.094 54.099 o
-3 1 6 4.974 20.379 13.072 353.473 o
-3 1 7 297.277 265.192 20.348 86.918 o
-3 1 8 512.475 553.868 28.529 43.213 o
-3 1 9 3.896 19.633 25.109 99.821 o
-3 2 1 2750.850 2665.440 39.789 7.454 o
-3 2 2 12.212 13.820 5.805 1391.360 o
-3 2 3 5900.800 6223.050 87.449 1.835 o
-3 2 4 2331.100 2403.580 39.602 8.998 o
-3 2 5 1.807 -10.290 12.016 438.424 o
-3 2 6 2665.050 2766.210 49.493 6.840 o
-3 2 7 644.153 640.270 30.907 35.269 o
-3 2 8 546.026 555.725 26.709 45.175 o
-3 2 9 137.796 118.515 28.409 67.756 o
-3 3 1 731.994 719.899 19.295 46.371 o
-3 3 2 4422.680 4468.030 64.240 3.187 o
-3 3 3 22.619 18.445 7.193 884.941 o
-3 3 4 2326.350 2398.760 39.878 8.993 o
-3 3 5 1586.710 1507.570 48.915 12.004 o
-3 3 6 1.010 4.559 14.697 292.571 o
-3 3 7 1445.470 1508.070 41.385 14.576 o
-3 3 8 339.679 304.992 23.457 68.996 o
-3 4 1 4838.550 4843.300 74.628 2.652 o
-3 4 2 45.658 36.893 7.582 644.284 o
-3 4 3 4833.450 4874.160 70.929 2.707 o
-3 4 4 996.597 1029.400 24.111 29.848 o
-3 4 5 186.827 161.900 15.127 153.105 o
-3 4 6 345.599 331.473 18.276 87.926 o
-3 4 7 261.829 242.363 21.194 87.454 o
-3 4 8 143.227 150.562 22.345 98.189 o
-3 5 1 1065.370 1050.340 22.396 29.365 o
-3 5 2 34.133 27.903 8.992 570.660 o
-3 5 3 753.781 773.617 22.179 41.034 o
-3 5 4 27.836 30.107 11.661 390.192 o
-3 5 5 3228.840 3291.750 68.062 4.564 o
-3 5 6 414.480 380.282 19.627 73.916 o
-3 5 7 1396.420 1423.360 43.589 14.491 o
-3 6 1 2152.730 2214.140 43.592 9.437 o
-3 6 2 46.830 44.728 11.497 360.245 o
-3 6 3 5499.630 5649.360 88.220 2.037 o
-3 6 4 634.288 635.708 21.030 49.757 o
-3 6 5 327.605 296.635 17.543 95.536 o
-3 6 6 18.656 -0.928 20.443 148.451 o
-3 6 7 609.551 513.344 37.086 30.096 o
-3 7 1 254.925 251.056 14.185 133.068 o
-3 7 2 74.501 64.597 13.345 256.761 o
-3 7 3 193.528 178.831 12.604 177.965 o
-3 7 4 27.973 11.011 9.898 534.370 o
-3 7 5 1457.170 1524.830 43.712 13.836 o
-3 7 6 14.521 -14.480 20.373 150.378 o
-3 8 1 637.081 658.292 27.689 39.319 o
-3 8 2 17.544 24.487 11.478 423.181 o
-3 8 3 1019.190 1074.130 41.737 18.972 o
-3 8 4 62.474 -24.455 52.564 22.759 o
-3 9 1 262.815 264.615 24.599 71.236 o
-3 9 2 516.934 535.561 24.391 50.938 o
-2 0 2 2879.050 2973.050 60.512 5.575 o
-2 0 4 1473.840 1396.530 37.259 15.936 o
-2 0 6 2229.770 2459.770 63.414 6.815 o
-2 0 8 908.126 973.146 68.886 10.394 o
-2 1 1 361.023 370.419 9.019 126.407 o
-2 1 2 9826.850 9598.030 129.339 0.774 o
-2 1 3 17.245 15.865 5.991 1228.160 o
-2 1 4 5473.820 5480.140 78.673 2.187 o
-2 1 5 56.315 40.884 11.674 342.540 o
-2 1 6 181.332 139.404 14.836 161.472 o
-2 1 7 248.733 222.283 21.185 89.856 o
-2 1 8 222.637 208.484 24.382 76.968 o
-2 1 9 58.203 59.651 27.295 79.493 o
-2 2 1 1663.140 1580.000 24.666 17.041 o
-2 2 2 1822.750 1769.540 27.740 14.461 o
-2 2 3 2001.930 1953.570 31.588 12.226 o
-2 2 4 1177.300 1196.610 24.044 25.215 o
-2 2 5 1809.460 1942.660 37.585 12.252 o
-2 2 6 2411.110 2511.440 45.977 8.000 o
-2 2 7 38.379 44.360 17.204 190.366 o
-2 2 8 856.820 851.155 34.361 26.323 o
-2 2 9 478.458 427.558 35.740 34.664 o
-2 3 1 1253.260 1180.260 20.621 25.675 o
-2 3 2 1815.980 1749.310 28.301 14.471 o
-2 3 3 32.844 31.324 6.604 852.436 o
-2 3 4 2037.280 2021.760 34.630 11.446 o
-2 3 5 606.194 584.971 23.810 47.364 o
-2 3 6 340.294 312.410 17.169 94.786 o
-2 3 7 846.883 922.213 34.632 25.767 o
-2 3 8 154.669 140.386 21.079 106.420 o
-2 4 1 3529.330 3579.770 52.225 4.709 o
-2 4 2 724.467 748.303 17.926 47.863 o
-2 4 3 4474.020 4569.810 71.133 2.984 o
-2 4 4 336.105 330.097 15.237 103.800 o
-2 4 5 1423.180 1450.440 35.344 16.690 o
-2 4 6 946.457 962.486 28.143 28.602 o
-2 4 7 49.403 45.284 23.748 104.457 o
-2 4 8 132.740 67.102 21.032 115.050 o
-2 5 1 3480.430 3522.470 55.832 4.666 o
-2 5 2 880.725 813.580 21.974 36.823 o
-2 5 3 2.352 2.946 7.031 1230.450 o
-2 5 4 56.203 48.363 9.041 475.525 o
-2 5 5 1764.410 1836.340 45.859 11.204 o
-2 5 6 21.450 34.675 14.338 276.861 o
-2 5 7 1808.910 1826.200 51.950 10.014 o
-2 6 1 1782.060 1802.440 40.695 12.155 o
-2 6 2 774.358 785.020 21.679 40.755 o
-2 6 3 1997.190 1989.610 33.505 11.876 o
-2 6 4 17.377 6.415 6.803 1074.540 o
-2 6 5 1854.350 1904.310 39.545 11.787 o
-2 6 6 485.554 431.379 22.887 58.212 o
-2 6 7 1.940 0.765 17.348 210.965 o
-2 7 1 981.263 1004.890 28.868 27.145 o
-2 7 2 5.920 4.046 8.497 826.234 o
-2 7 3 87.839 67.024 10.156 347.509 o
-2 7 4 16.117 -1.245 27.098 85.697 o
-2 7 5 639.355 634.010 44.692 22.449 o
-2 7 6 2.832 18.390 49.665 25.787 o
-2 8 1 946.890 958.481 29.324 27.784 o
-2 8 2 19.100 -12.132 18.020 189.408 o
-2 8 3 701.372 774.430 44.761 21.245 o
-2 8 4 102.891 127.149 29.826 63.679 o
-2 9 1 550.023 584.333 40.121 27.403 o
-2 9 2 92.265 49.071 19.995 133.729 o
-1 0 2 2981.320 3190.360 63.666 5.118 o
-1 0 4 92.151 84.988 12.034 272.021 o
-1 0 6 1836.680 1812.650 52.367 9.879 o
-1 0 8 1098.050 1123.430 52.742 14.005 o
-1 1 1 1826.480 1754.160 25.088 14.963 o
-1 1 2 11606.200 11574.800 154.752 0.556 o
-1 1 3 46.482 54.080 6.250 734.352 o
-1 1 4 4982.760 4989.620 72.124 2.586 o
-1 1 5 212.873 228.036 14.756 141.090 o
-1 1 6 897.063 856.266 33.246 26.530 o
-1 1 7 88.684 93.244 18.709 144.923 o
-1 1 8 77.852 61.967 23.300 103.797 o
-1 1 9 62.153 59.930 27.206 79.698 o
-1 2 1 739.380 744.002 14.069 52.079 o
-1 2 2 733.686 723.895 14.992 51.753 o
-1 2 3 1884.910 1748.240 28.454 13.995 o
-1 2 4 42.772 44.953 7.936 606.085 o
-1 2 5 598.739 552.784 20.497 54.327 o
-1 2 6 1580.360 1656.720 37.701 14.267 o
-1 2 7 248.043 201.530 20.502 94.871 o
-1 2 8 1052.750 1007.770 38.376 20.619 o
-1 2 9 59.010 64.042 42.941 33.518 o
-1 3 1 51.716 33.084 5.156 900.141 o
-1 3 2 5398.440 5427.970 87.158 2.121 o
-1 3 3 0.648 8.464 6.188 1541.950 o
-1 3 4 1418.800 1388.600 26.293 19.921 o
-1 3 5 552.743 541.083 22.103 53.757 o
-1 3 6 299.684 264.170 15.921 110.936 o
-1 3 7 567.273 590.962 30.246 38.537 o
-1 3 8 0.624 -16.786 20.362 153.745 o
-1 4 1 1359.090 1230.480 25.111 21.964 o
-1 4 2 114.217 96.849 7.081 399.409 o
-1 4 3 3870.390 3859.090 56.281 4.063 o
-1 4 4 10.123 7.621 8.215 835.805 o
-1 4 5 1763.470 1887.380 44.862 11.284 o
-1 4 6 364.796 322.046 18.313 86.207 o
-1 4 7 91.560 82.321 19.983 130.822 o
-1 4 8 411.256 361.128 24.280 60.454 o
-1 5 1 1638.890 1621.880 31.198 15.551 o
-1 5 2 167.994 156.697 9.395 245.657 o
-1 5 3 450.235 463.864 11.399 93.392 o
-1 5 4 614.093 600.802 16.159 60.259 o
-1 5 5 505.698 486.024 21.210 59.618 o
-1 5 6 17.090 15.773 13.414 325.773 o
-1 5 7 1285.200 1270.830 38.157 17.523 o
-1 6 1 2271.380 2348.080 37.536 9.501 o
-1 6 2 80.430 83.178 7.200 480.583 o
-1 6 3 2736.100 2788.380 79.446 4.755 o
-1 6 4 460.892 489.735 35.054 35.337 o
-1 6 5 724.354 704.511 30.609 33.194 o
-1 6 6 3.648 12.140 33.675 55.961 o
-1 6 7 205.007 191.085 41.837 32.489 o
-1 7 1 2437.450 2427.060 42.555 8.360 o
-1 7 2 299.329 275.145 13.111 128.134 o
-1 7 3 59.993 38.049 39.866 38.885 o
-1 7 4 1.587 18.418 24.163 108.011 o
-1 7 5 633.677 538.937 40.741 26.096 o
-1 7 6 0.719 -40.626 35.499 50.613 o
-1 8 1 1036.640 1045.680 38.819 20.367 o
-1 8 2 19.961 -19.303 21.858 130.081 o
-1 8 3 1347.480 1395.410 54.209 11.964 o
-1 8 4 12.375 71.930 29.478 70.888 o
-1 9 1 472.642 404.141 22.001 61.951 o
-1 9 2 652.711 660.281 42.156 24.056 o
0 0 2 4189.700 4066.740 79.853 3.109 o
0 0 4 4730.150 5129.930 104.669 2.155 o
0 0 6 1238.980 1353.920 45.629 14.979 o
0 0 8 737.499 782.613 48.020 19.020 o
0 1 1 42.350 41.115 2.729 1324.120 o
0 1 2 5970.350 5849.250 79.786 1.942 o
0 1 3 505.837 518.648 13.275 78.428 o
0 1 4 7253.940 7511.510 105.054 1.277 o
0 1 5 1.238 5.294 11.084 509.117 o
0 1 6 1080.630 1101.120 32.999 22.623 o
0 1 7 206.092 204.725 20.945 96.899 o
0 1 8 0.251 29.376 22.555 123.119 o
0 1 9 42.396 10.030 30.602 65.979 o
0 2 0 22246.800 19602.300 421.951 0.136 o
0 2 1 105.032 94.632 3.733 549.111 o
0 2 2 2918.640 2845.730 52.328 6.105 o
0 2 3 1046.390 1048.410 19.589 31.497 o
0 2 4 142.394 136.297 9.177 278.896 o
0 2 5 836.524 775.400 25.288 35.301 o
0 2 6 750.881 766.924 25.767 37.111 o
0 2 7 48.169 3.484 16.970 199.305 o
0 2 8 765.492 776.776 43.032 21.767 o
0 3 1 11375.700 11441.800 175.801 0.537 o
0 3 2 3551.390 3458.780 48.773 4.882 o
0 3 3 85.868 93.699 6.665 480.378 o
0 3 4 3886.140 3798.990 56.808 4.061 o
0 3 5 487.183 496.476 21.322 60.113 o
0 3 6 368.273 362.119 17.824 85.762 o
0 3 7 540.933 579.478 28.197 42.499 o
0 3 8 2.439 -27.031 22.707 123.370 o
0 4 0 5176.930 5409.980 122.294 1.757 o
0 4 1 129.191 108.832 5.438 413.441 o
0 4 2 634.871 617.606 18.808 53.880 o
0 4 3 2549.140 2498.050 39.418 8.225 o
0 4 4 147.626 127.448 8.415 295.432 o
0 4 5 1812.710 1908.620 53.925 9.560 o
0 4 6 113.548 108.786 14.242 201.740 o
0 4 7 254.245 211.506 21.663 87.325 o
0 4 8 145.441 190.714 38.948 37.883 o
0 5 1 4725.730 4735.070 66.510 2.877 o
0 5 2 595.449 687.323 27.678 40.093 o
0 5 3 179.162 176.495 21.870 95.813 o
0 5 4 214.232 198.487 28.755 60.732 o
0 5 5 78.969 54.866 14.849 219.544 o
0 5 6 214.115 186.003 15.663 137.504 o
0 5 7 588.586 640.486 34.202 32.533 o
0 6 0 63.356 74.417 15.662 204.875 o
0 6 1 351.946 350.760 11.906 116.454 o
0 6 2 12.094 8.229 15.473 255.497 o
0 6 3 3187.810 3376.610 81.387 3.994 o
0 6 4 6.690 49.937 25.377 96.056 o
0 6 5 1570.730 1686.500 69.514 8.083 o
0 6 6 198.023 168.190 34.270 46.455 o
0 6 7 53.497 66.538 21.778 120.149 o
0 7 1 1800.560 1845.530 30.304 13.889 o
0 7 2 91.182 74.233 22.828 105.215 o
0 7 3 576.713 522.975 46.073 22.490 o
0 7 4 187.985 114.803 32.852 51.044 o
0 7 5 131.905 136.107 32.806 52.599 o
0 7 6 3.524 55.850 38.840 41.739 o
0 8 0 979.122 952.243 40.343 20.551 o
0 8 1 343.081 302.828 18.600 88.306 o
0 8 2 84.722 81.860 21.565 116.321 o
0 8 3 1508.060 1526.170 57.864 10.387 o
0 8 4 22.819 31.509 50.626 24.656 o
0 9 1 515.984 431.256 40.527 28.416 o
0 9 2 557.738 503.642 33.726 35.034 o
1 0 2 74211.800 66257.700 1741.880 0.010 o
1 0 4 765.058 773.823 27.302 35.009 o
1 0 6 4496.050 4388.150 200.922 1.131 o
1 0 8 1071.430 1186.200 68.323 9.893 o
1 1 0 987.202 995.294 16.022 35.938 o
1 1 1 165.997 165.638 5.960 305.485 o
1 1 2 2976.980 2917.970 41.994 6.541 o
1 1 3 2.150 -1.247 5.730 1866.260 o
1 1 4 5746.570 5745.990 82.305 2.005 o
1 1 5 47.397 32.956 11.088 388.252 o
1 1 6 2413.850 2541.900 54.121 7.220 o
1 1 7 5.249 31.428 22.665 121.058 o
1 1 8 23.172 50.535 28.763 74.317 o
1 2 0 6308.660 6170.770 98.150 1.642 o
1 2 1 1548.060 1502.020 34.279 15.870 o
1 2 2 12364.800 12249.300 207.695 0.440 o
1 2 3 307.474 321.664 11.178 133.392 o
1 2 4 241.954 247.117 11.626 159.085 o
1 2 5 612.223 594.594 25.592 44.090 o
1 2 6 849.156 860.566 27.909 31.614 o
1 2 7 159.098 202.011 24.338 82.401 o
1 2 8 622.283 593.295 32.047 34.871 o
1 3 0 1267.210 1182.690 24.549 23.747 o
1 3 1 9740.360 9883.000 189.887 0.624 o
1 3 2 1057.410 1068.710 22.864 29.058 o
1 3 3 4734.220 4769.580 78.213 2.660 o
1 3 4 3062.650 3164.310 77.078 4.381 o
1 3 5 342.732 323.227 30.517 48.460 o
1 3 6 1361.720 1402.470 41.461 15.398 o
1 3 7 677.043 656.937 35.402 29.613 o
1 3 8 7.183 43.305 24.208 105.559 o
1 4 0 1314.760 1270.770 23.139 23.038 o
1 4 1 644.509 640.747 23.704 45.046 o
1 4 2 3306.570 3500.800 76.523 4.040 o
1 4 3 1318.200 1301.530 28.476 20.741 o
1 4 4 59.448 53.732 12.176 311.710 o
1 4 5 1635.710 1729.240 39.617 13.301 o
1 4 6 521.448 482.620 29.692 42.075 o
1 4 7 343.130 314.095 23.421 68.594 o
1 4 8 143.753 85.691 28.111 69.566 o
1 5 0 218.369 224.864 10.400 184.518 o
1 5 1 4790.730 4844.780 79.367 2.596 o
1 5 2 42.739 42.219 17.603 181.658 o
1 5 3 1700.860 1752.170 51.046 10.662 o
1 5 4 484.122 416.284 40.615 28.833 o
1 5 5 95.467 88.469 11.921 271.033 o
1 5 6 91.160 90.290 12.115 268.428 o
1 5 7 343.881 322.485 20.096 80.772 o
1 6 0 15.827 8.140 7.587 908.565 o
1 6 1 138.593 131.316 12.136 222.183 o
1 6 2 50.205 30.279 17.248 187.734 o
1 6 3 1424.430 1523.840 58.746 10.473 o
1 6 4 8.847 -6.292 24.951 101.574 o
1 6 5 1873.280 1853.850 79.731 6.260 o
1 6 6 2.177 -26.528 32.493 60.352 o
1 7 0 35.732 39.261 10.036 467.579 o
1 7 1 2310.710 2435.980 63.365 6.697 o
1 7 2 37.290 34.326 19.703 150.702 o
1 7 3 461.754 434.937 35.750 34.896 o
1 7 4 117.479 123.572 33.955 50.061 o
1 7 5 0.280 -51.782 32.767 59.415 o
1 8 0 186.712 175.973 12.468 182.970 o
1 8 1 1.021 22.012 19.933 157.564 o
1 8 2 703.291 652.330 69.876 10.978 o
1 8 3 845.508 861.662 48.291 17.886 o
1 8 4 5.861 -2.296 51.254 24.253 o
1 9 0 246.161 221.678 16.409 120.805 o
1 9 1 578.187 506.199 31.307 37.821 o
1 9 2 99.773 117.749 29.171 66.622 o
2 0 0 77.005 65.315 6.553 553.321 o
2 0 2 2419.680 2246.140 48.559 8.071 o
2 0 4 14875.300 15961.100 353.579 0.230 o
2 0 6 3.220 23.106 22.867 119.862 o
2 0 8 2823.570 2808.930 98.055 3.753 o
2 1 0 6517.260 6269.730 84.978 1.684 o
2 1 1 1454.860 1471.410 29.742 18.059 o
2 1 2 788.453 749.642 15.503 47.921 o
2 1 3 115.194 83.670 8.958 343.325 o
2 1 4 4253.620 4337.570 75.019 3.103 o
2 1 5 50.214 54.258 14.689 239.724 o
2 1 6 2728.390 2905.460 94.476 3.944 o
2 1 7 0.662 36.158 20.942 141.629 o
2 1 8 358.253 351.526 31.105 46.242 o
2 2 0 4573.360 4505.730 66.778 3.029 o
2 2 1 54.570 61.220 4.376 852.865 o
2 2 2 4125.230 4081.550 62.331 3.583 o
2 2 3 1879.990 1853.530 30.961 13.269 o
2 2 4 2566.980 2649.990 49.974 7.129 o
2 2 5 522.102 475.187 21.334 58.706 o
2 2 6 89.656 104.086 18.096 151.131 o
2 2 7 153.791 138.709 20.099 114.359 o
2 2 8 746.033 678.088 31.352 32.252 o
2 3 0 2530.310 2500.120 39.659 8.255 o
2 3 1 358.657 283.250 13.897 110.994 o
2 3 2 8.019 8.876 3.075 3676.370 o
2 3 3 3193.010 3220.800 48.381 5.568 o
2 3 4 1727.990 1749.230 36.926 13.312 o
2 3 5 762.168 789.901 26.087 36.170 o
2 3 6 1328.080 1421.720 39.259 16.257 o
2 3 7 408.106 389.712 24.422 59.471 o
2 3 8 212.802 216.824 29.143 59.118 o
2 4 0 1073.340 998.863 21.506 30.273 o
2 4 1 21.447 15.066 11.414 428.816 o
2 4 2 980.531 905.876 32.361 25.583 o
2 4 3 2079.460 2055.630 41.966 10.177 o
2 4 4 951.929 969.644 21.733 33.169 o
2 4 5 1326.690 1461.650 41.684 15.364 o
2 4 6 15.945 14.392 17.518 198.375 o
2 4 7 438.824 461.633 25.338 53.938 o
2 5 0 13.814 19.925 6.020 1241.610 o
2 5 1 2732.960 2865.170 66.285 5.500 o
2 5 2 2.138 -0.368 17.467 208.208 o
2 5 3 1866.620 1908.440 55.629 9.149 o
2 5 4 84.000 135.468 48.476 26.023 o
2 5 5 98.654 75.290 11.632 282.062 o
2 5 6 173.274 150.845 12.302 196.571 o
2 5 7 325.210 295.218 22.472 73.990 o
2 6 0 190.497 189.873 9.893 213.048 o
2 6 1 339.771 354.644 23.095 68.588 o
2 6 2 30.034 36.964 20.934 135.902 o
2 6 3 1069.330 1129.880 46.760 16.266 o
2 6 4 32.593 56.627 35.864 48.130 o
2 6 5 1287.660 1335.030 63.366 10.196 o
2 6 6 3.033 -48.937 35.184 51.459 o
2 7 0 268.134 259.080 14.689 125.490 o
2 7 1 3387.330 3425.540 82.184 3.790 o
2 7 2 5.701 -4.274 25.805 95.302 o
2 7 3 1243.580 1341.400 54.149 12.493 o
2 7 4 73.435 91.297 30.094 64.804 o
2 7 5 0.809 32.296 59.234 18.128 o
2 8 0 170.025 188.732 11.694 198.122 o
2 8 1 168.969 102.843 25.740 78.339 o
2 8 2 161.379 138.208 27.510 69.632 o
2 8 3 264.070 278.951 32.895 46.244 o
2 8 4 254.771 239.514 40.180 33.797 o
2 9 0 318.622 260.267 30.959 49.277 o
2 9 1 708.901 551.606 37.093 28.317 o
2 9 2 21.292 -15.227 30.480 67.689 o
3 0 0 11727.100 11009.200 210.058 0.478 o
3 0 2 2183.260 2044.820 54.313 8.303 o
3 0 4 426.229 359.158 27.211 52.316 o
3 0 6 1730.730 1771.280 91.603 5.385 o
3 0 8 109.721 99.730 36.579 44.140 o
3 1 0 6505.160 5956.190 82.395 1.748 o
3 1 1 557.704 536.807 16.846 64.766 o
3 1 2 414.114 443.746 15.982 83.572 o
3 1 3 456.620 495.110 16.242 76.049 o
3 1 4 2314.230 2333.160 40.668 9.054 o
3 1 5 7.836 1.368 11.812 440.294 o
3 1 6 2355.100 2672.410 64.330 6.340 o
3 1 7 117.436 97.175 22.280 104.867 o
3 1 8 645.908 649.401 48.102 20.096 o
3 2 0 7428.780 7153.970 98.186 1.314 o
3 2 1 253.053 218.525 10.201 173.694 o
3 2 2 4992.380 4890.130 75.074 2.560 o
3 2 3 107.995 93.724 8.704 354.846 o
3 2 4 1057.720 1118.630 28.988 25.015 o
3 2 5 1085.290 1108.370 30.358 23.938 o
3 2 6 104.629 91.093 17.733 153.675 o
3 2 7 224.789 242.328 21.408 90.096 o
3 2 8 258.104 215.869 30.142 54.305 o
3 3 0 653.191 586.620 15.091 60.114 o
3 3 1 3041.380 2995.270 44.313 6.216 o
3 3 2 74.113 56.661 5.721 637.127 o
3 3 3 351.164 323.767 14.040 108.086 o
3 3 4 545.878 544.996 23.705 50.837 o
3 3 5 384.833 414.941 22.025 67.062 o
3 3 6 1008.290 1002.180 32.483 24.458 o
3 3 7 22.663 35.373 21.744 127.936 o
3 3 8 288.638 275.406 31.633 48.422 o
3 4 0 1978.700 1983.820 52.058 9.230 o
3 4 1 932.786 928.491 26.004 30.782 o
3 4 2 1349.570 1375.710 65.440 9.575 o
3 4 3 497.590 508.615 17.041 69.806 o
3 4 4 245.551 225.964 12.141 156.547 o
3 4 5 1848.360 1875.610 45.117 10.922 o
3 4 6 109.325 83.327 21.592 112.427 o
3 4 7 485.002 474.388 27.276 47.711 o
3 5 0 573.494 544.890 17.413 62.198 o
3 5 1 5890.300 5982.650 145.154 1.344 o
3 5 2 36.313 28.840 17.106 196.122 o
3 5 3 1676.470 1732.170 63.415 8.703 o
3 5 4 139.602 119.576 29.419 63.688 o
3 5 5 157.129 135.886 14.700 171.750 o
3 5 6 52.000 42.481 11.160 370.562 o
3 5 7 56.477 72.982 19.765 141.275 o
3 6 0 806.092 797.921 19.058 42.344 o
3 6 1 154.933 139.353 20.425 111.502 o
3 6 2 195.976 202.068 23.760 82.302 o
3 6 3 117.015 90.822 28.132 70.825 o
3 6 4 55.326 60.155 31.245 61.819 o
3 6 5 1146.720 1102.340 58.603 12.115 o
3 6 6 24.662 36.486 40.148 38.918 o
3 7 0 2.883 5.093 7.595 1043.800 o
3 7 1 1807.110 1921.340 58.772 8.835 o
3 7 2 124.179 99.716 28.073 70.430 o
3 7 3 2035.970 2049.950 81.815 5.749 o
3 7 4 0.580 -71.819 33.662 56.288 o
3 7 5 245.108 161.178 40.331 34.300 o
3 8 0 146.398 117.267 17.904 138.390 o
3 8 1 151.091 181.542 31.343 55.461 o
3 8 2 241.160 229.128 30.912 52.582 o
3 8 3 33.782 1.339 37.411 44.880 o
3 8 4 56.048 95.730 39.220 39.712 o
3 9 0 26.945 27.567 49.362 25.907 o
3 9 1 928.843 843.500 48.574 17.277 o
4 0 0 2214.930 2010.430 46.813 9.168 o
4 0 2 10067.800 10290.300 207.110 0.562 o
4 0 4 1590.380 1560.900 53.536 10.915 o
4 0 6 23.598 61.890 27.538 80.401 o
4 0 8 69.371 -28.590 37.116 44.847 o
4 1 0 7418.650 7176.140 100.139 1.304 o
4 1 1 981.059 912.721 20.352 34.185 o
4 1 2 717.492 700.958 18.836 47.985 o
4 1 3 369.990 376.890 16.247 91.328 o
4 1 4 301.770 278.406 17.316 101.370 o
4 1 5 99.457 98.905 20.025 127.397 o
4 1 6 1643.650 1756.410 53.878 10.337 o
4 1 7 5.776 -10.892 19.561 165.164 o
4 1 8 637.865 569.232 36.039 30.304 o
4 2 0 1354.860 1328.810 27.624 20.495 o
4 2 1 1280.610 1234.640 25.036 22.993 o
4 2 2 7133.360 6946.570 113.538 1.295 o
4 2 3 60.955 73.328 10.068 385.565 o
4 2 4 2125.970 2158.240 46.263 9.283 o
4 2 5 281.807 273.994 16.738 108.011 o
4 2 6 33.416 41.191 17.401 188.960 o
4 2 7 355.628 379.561 24.983 60.949 o
4 2 8 41.008 50.083 28.378 75.229 o
4 3 0 3668.200 3683.760 54.695 4.407 o
4 3 1 2531.240 2529.670 48.826 7.435 o
4 3 2 3.107 9.938 8.613 804.594 o
4 3 3 2242.550 2243.710 53.375 8.017 o
4 3 4 301.856 267.886 18.045 98.049 o
4 3 5 50.929 54.874 13.843 262.897 o
4 3 6 530.713 507.735 26.059 47.735 o
4 3 7 0.521 -31.699 19.673 164.714 o
4 4 0 97.648 99.677 8.601 369.286 o
4 4 1 1865.760 1864.100 32.862 12.992 o
4 4 2 1816.400 1875.080 32.312 13.340 o
4 4 3 2.474 2.316 6.195 1568.660 o
4 4 4 580.957 569.761 18.797 58.136 o
4 4 5 931.000 957.268 35.334 23.966 o
4 4 6 1.774 26.603 18.980 172.528 o
4 4 7 779.860 826.226 37.587 25.109 o
4 5 0 9.291 10.795 12.461 387.632 o
4 5 1 3151.180 3178.230 62.601 4.969 o
4 5 2 132.592 102.359 21.192 111.156 o
4 5 3 4196.490 4190.670 263.922 0.759 o
4 5 4 92.189 129.581 32.972 53.494 o
4 5 5 341.254 354.598 18.050 88.128 o
4 5 6 168.365 140.363 13.176 188.127 o
4 6 0 78.703 57.492 11.879 301.015 o
4 6 1 849.719 901.567 46.007 18.857 o
4 6 2 499.948 467.534 31.839 39.414 o
4 6 3 277.639 175.850 40.924 32.876 o
4 6 4 121.307 85.660 31.041 59.395 o
4 6 5 536.196 550.548 44.901 23.614 o
4 6 6 63.439 124.079 44.180 31.349 o
4 7 0 97.390 102.072 9.521 335.580 o
4 7 1 1211.000 1262.330 58.828 11.562 o
4 7 2 2.554 -5.711 25.077 101.201 o
4 7 3 1221.940 1151.350 69.565 9.347 o
4 7 4 26.752 40.595 52.237 23.125 o
4 7 5 498.266 474.652 50.946 19.923 o
4 8 0 25.261 41.137 21.984 124.429 o
4 8 1 155.367 163.925 29.038 63.305 o
4 8 2 221.248 231.755 34.065 45.472 o
4 8 3 40.255 27.310 34.963 50.751 o
4 9 0 537.309 382.544 34.111 36.183 o
5 0 0 3687.770 3684.830 79.519 3.568 o
5 0 2 4436.270 4289.360 92.957 2.634 o
5 0 4 4354.840 4599.970 103.257 2.403 o
5 0 6 255.432 238.838 33.225 46.318 o
5 1 0 6330.720 6164.300 88.438 1.718 o
5 1 1 569.514 560.329 18.542 59.604 o
5 1 2 1275.870 1234.210 27.418 22.064 o
5 1 3 757.316 728.525 26.305 36.846 o
5 1 4 116.712 107.872 14.063 203.759 o
5 1 5 128.566 99.791 20.099 121.533 o
5 1 6 614.097 584.717 31.115 36.315 o
5 1 7 5.930 27.062 25.169 98.791 o
5 2 0 516.066 502.018 16.579 69.796 o
5 2 1 4397.350 4587.420 68.663 3.075 o
5 2 2 2882.830 2881.170 47.685 6.423 o
5 2 3 152.840 154.585 13.405 188.276 o
5 2 4 3294.600 3504.050 64.970 4.517 o
5 2 5 344.470 346.559 20.411 78.376 o
5 2 6 348.614 332.917 29.939 49.408 o
5 2 7 190.769 174.240 24.949 77.983 o
5 3 0 4464.670 4388.320 65.450 3.161 o
5 3 1 2560.270 2612.390 43.169 7.736 o
5 3 2 1007.280 1030.690 25.484 28.715 o
5 3 3 2433.140 2523.140 55.145 7.110 o
5 3 4 302.455 281.958 17.664 99.119 o
5 3 5 743.039 719.417 28.819 34.540 o
5 3 6 477.966 487.579 26.867 48.529 o
5 3 7 19.263 3.832 22.393 123.906 o
5 4 0 74.237 77.436 9.706 377.881 o
5 4 1 3629.020 3604.770 64.694 4.144 o
5 4 2 361.792 341.938 16.386 93.887 o
5 4 3 95.636 87.465 9.986 330.946 o
5 4 4 787.320 786.139 31.084 30.694 o
5 4 5 315.987 300.856 19.229 88.433 o
5 4 6 85.309 113.354 21.304 116.266 o
5 4 7 555.258 466.924 54.196 17.728 o
5 5 0 343.939 326.050 16.051 98.866 o
5 5 1 1089.860 1117.290 23.921 27.390 o
5 5 2 116.196 110.374 8.855 328.358 o
5 5 3 3089.310 3240.670 65.753 4.853 o
5 5 4 2.837 5.513 10.127 601.371 o
5 5 5 1494.090 1641.670 63.487 9.240 o
5 5 6 51.652 18.079 31.555 61.645 o
5 6 0 250.244 238.925 12.975 145.771 o
5 6 1 4858.280 4904.640 93.533 2.323 o
5 6 2 83.736 103.911 29.773 65.310 o
5 6 3 35.644 47.373 32.322 58.907 o
5 6 4 202.074 160.309 36.866 40.946 o
5 6 5 850.834 948.757 62.450 12.271 o
5 7 0 76.040 68.339 12.693 272.831 o
5 7 1 844.536 903.266 50.311 16.824 o
5 7 2 49.115 62.867 43.618 32.635 o
5 7 3 1327.400 1310.840 66.936 9.426 o
5 7 4 13.558 0.831 38.055 43.789 o
5 8 0 18.538 12.525 13.364 328.192 o
5 8 1 881.504 836.426 50.619 16.667 o
5 8 2 134.390 158.791 43.681 31.047 o
5 8 3 10.310 -27.840 39.807 40.098 o
6 0 0 319.054 315.400 19.999 83.866 o
6 0 2 5331.710 5283.940 113.709 1.837 o
6 0 4 2800.420 2878.500 76.628 4.801 o
6 0 6 926.130 1013.400 64.513 11.378 o
6 1 0 8223.730 8260.860 117.250 1.032 o
6 1 1 136.515 142.233 12.417 215.128 o
6 1 2 2184.610 2111.260 40.337 9.904 o
6 1 3 359.109 343.502 24.036 64.639 o
6 1 4 19.674 15.184 15.721 241.176 o
6 1 5 338.907 350.520 25.556 60.920 o
6 1 6 518.841 543.180 44.725 23.950 o
6 1 7 20.861 23.854 28.410 77.046 o
6 2 0 94.147 97.237 10.578 307.703 o
6 2 1 110.862 88.687 11.524 269.110 o
6 2 2 1950.760 1889.320 37.615 11.699 o
6 2 3 1065.760 1107.370 38.122 20.145 o
6 2 4 1905.090 1966.820 42.452 10.951 o
6 2 5 3.499 0.203 17.466 207.596 o
6 2 6 781.093 837.108 35.739 26.431 o
6 2 7 309.636 267.479 28.413 56.019 o
6 3 0 2610.090 2479.760 42.739 7.812 o
6 3 1 19.555 15.111 10.412 507.544 o
6 3 2 1509.530 1544.040 34.925 15.820 o
6 3 3 2255.630 2310.760 47.328 8.550 o
6 3 4 24.347 35.897 14.440 270.735 o
6 3 5 1110.680 1116.210 35.942 20.718 o
6 3 6 424.898 396.775 25.097 56.681 o
6 3 7 94.537 72.208 26.325 81.804 o
6 4 0 373.556 394.416 19.475 77.302 o
6 4 1 2737.460 2826.840 51.531 6.497 o
6 4 2 596.303 610.052 32.199 35.058 o
6 4 3 749.752 760.241 25.027 38.065 o
6 4 4 260.621 248.886 18.693 101.031 o
6 4 5 117.397 110.207 21.638 109.083 o
6 4 6 146.885 79.378 30.242 61.261 o
6 5 0 2370.450 2391.810 46.409 8.222 o
6 5 1 4.615 6.745 9.216 708.911 o
6 5 2 190.076 193.242 16.433 134.994 o
6 5 3 1584.600 1600.140 33.961 15.343 o
6 5 4 243.577 234.265 13.994 139.377 o
6 5 5 1470.910 1497.280 33.767 16.613 o
6 5 6 8.454 16.673 30.251 68.915 o
6 6 0 349.028 364.278 19.224 81.883 o
6 6 1 1769.050 1842.770 49.388 10.552 o
6 6 2 66.118 58.986 39.038 40.211 o
6 6 3 1477.150 1499.240 66.479 8.945 o
6 6 4 66.557 -9.381 35.526 48.882 o
6 6 5 71.544 8.349 43.256 33.225 o
6 7 0 14.694 4.998 22.676 121.501 o
6 7 1 141.933 99.040 34.026 49.526 o
6 7 2 36.099 76.936 38.244 42.223 o
6 7 3 1135.080 1096.800 63.891 10.828 o
6 7 4 6.873 -9.296 43.083 34.294 o
6 8 0 260.155 234.694 22.390 82.101 o
6 8 1 1455.620 1746.640 126.788 3.362 o
6 8 2 76.080 125.051 40.470 36.873 o
7 0 0 1256.610 1174.000 40.008 17.429 o
7 0 2 450.127 456.427 46.889 23.218 o
7 0 4 3543.170 3626.510 131.211 2.265 o
7 0 6 765.970 801.137 74.091 9.690 o
7 1 0 6422.410 6302.770 93.600 1.637 o
7 1 1 170.704 166.330 14.518 164.457 o
7 1 2 4125.990 4295.970 80.579 3.062 o
7 1 3 4.887 10.801 16.028 242.208 o
7 1 4 186.925 147.782 22.375 93.391 o
7 1 5 126.806 85.196 25.588 82.944 o
7 1 6 438.563 428.445 29.267 46.204 o
7 1 7 99.373 110.342 36.721 43.933 o
7 2 0 479.179 449.380 19.176 67.689 o
7 2 1 671.919 592.317 23.042 45.932 o
7 2 2 438.598 412.232 23.275 60.292 o
7 2 3 16.037 4.037 16.162 233.971 o
7 2 4 1611.660 1604.190 41.205 13.409 o
7 2 5 115.218 80.240 23.412 97.781 o
7 2 6 534.632 485.974 32.436 37.480 o
7 3 0 2461.920 2419.830 46.602 7.930 o
7 3 1 370.227 403.977 25.777 57.381 o
7 3 2 1222.420 1278.890 49.266 14.126 o
7 3 3 289.823 289.554 24.529 68.921 o
7 3 4 126.900 131.543 18.304 136.791 o
7 3 5 1026.150 1010.990 39.716 20.173 o
7 3 6 58.439 104.685 24.031 98.062 o
7 4 0 74.772 69.960 13.331 255.069 o
7 4 1 2223.580 2281.730 50.591 8.319 o
7 4 2 844.167 794.116 37.864 24.320 o
7 4 3 978.189 986.122 33.043 24.622 o
7 4 4 617.068 585.224 30.677 36.807 o
7 4 5 15.236 3.786 22.373 124.756 o
7 4 6 58.597 27.244 22.645 113.987 o
7 5 0 8.491 27.529 16.903 212.749 o
7 5 1 51.588 50.025 14.600 242.560 o
7 5 2 1080.420 1109.300 38.648 19.748 o
7 5 3 243.338 234.973 17.293 113.716 o
7 5 4 47.229 53.781 21.805 121.838 o
7 5 5 837.566 850.880 33.322 27.404 o
7 6 0 64.363 38.822 14.573 238.873 o
7 6 1 1280.700 1276.320 35.911 18.377 o
7 6 2 213.543 201.251 52.649 21.294 o
7 6 3 391.993 404.784 47.275 23.603 o
7 6 4 15.123 20.275 40.455 38.606 o
7 7 0 270.349 255.846 16.174 115.009 o
7 7 1 46.936 9.400 39.574 39.893 o
7 7 2 28.505 2.873 40.161 39.095 o
7 7 3 530.731 474.859 49.160 20.870 o
7 8 0 2.520 16.069 29.365 73.423 o
7 8 1 810.681 752.474 63.352 12.427 o
8 0 0 1308.830 1267.250 51.984 12.959 o
8 0 2 78.408 75.693 22.097 112.885 o
8 0 4 1174.240 1167.590 101.601 5.209 o
8 0 6 1303.920 1372.440 113.101 4.227 o
8 1 0 3350.370 3346.500 61.394 4.692 o
8 1 1 25.346 30.343 15.964 227.168 o
8 1 2 3480.780 3492.730 62.181 4.439 o
8 1 3 0.912 12.083 17.975 194.818 o
8 1 4 887.726 916.239 42.111 20.578 o
8 1 5 2.513 31.393 22.634 121.789 o
8 1 6 19.509 59.779 29.443 70.993 o
8 2 0 649.883 651.183 32.027 33.717 o
8 2 1 1839.140 1905.540 46.332 10.696 o
8 2 2 94.567 79.790 16.020 184.257 o
8 2 3 342.253 298.121 25.869 61.178 o
8 2 4 861.853 832.654 35.144 25.803 o
8 2 5 16.830 0.105 22.210 126.589 o
8 2 6 588.131 569.383 37.244 29.830 o
8 3 0 1496.590 1510.390 47.659 12.684 o
8 3 1 4.847 21.305 14.596 286.265 o
8 3 2 1449.630 1449.230 40.630 14.942 o
8 3 3 35.408 49.953 19.764 148.488 o
8 3 4 183.460 148.895 26.964 70.319 o
8 3 5 255.594 255.438 24.792 71.265 o
8 3 6 13.850 21.241 26.423 89.386 o
8 4 0 649.009 649.413 25.855 41.618 o
8 4 1 1405.940 1524.580 38.842 15.496 o
8 4 2 23.934 16.061 15.232 252.737 o
8 4 3 785.427 778.119 32.063 29.911 o
8 4 4 695.276 641.606 35.471 29.379 o
8 4 5 127.647 117.105 24.974 85.034 o
8 5 0 37.257 22.422 14.883 252.466 o
8 5 1 76.809 63.876 16.685 182.227 o
8 5 2 40.348 30.156 19.478 153.670 o
8 5 3 200.873 211.313 19.828 104.360 o
8 5 4 264.592 222.853 21.219 88.027 o
8 6 0 7.411 40.539 16.956 209.057 o
8 6 1 1820.600 1848.300 41.243 11.770 o
8 6 2 40.914 32.441 12.050 350.324 o
8 6 3 480.472 413.116 39.938 29.633 o
8 6 4 68.016 57.043 48.787 26.111 o
8 7 0 17.080 61.488 25.669 92.513 o
8 7 1 68.745 56.534 35.247 48.852 o
8 7 2 262.354 258.831 47.487 25.092 o
9 0 0 4091.290 4025.340 96.365 2.778 o
9 0 2 14.771 28.606 28.083 79.041 o
9 0 4 713.114 715.393 64.201 12.510 o
9 0 6 715.944 612.121 59.667 14.240 o
9 1 0 3137.250 3126.440 67.258 4.790 o
9 1 1 23.059 12.206 16.524 218.757 o
9 1 2 3053.690 3172.070 64.775 4.983 o
9 1 3 79.617 64.093 23.400 102.690 o
9 1 4 776.267 798.928 59.286 13.806 o
9 1 5 11.028 22.783 28.459 77.411 o
9 1 6 30.805 57.902 40.774 37.505 o
9 2 0 1601.150 1576.770 38.436 14.205 o
9 2 1 483.077 510.219 23.788 54.279 o
9 2 2 11.354 7.970 17.801 195.342 o
9 2 3 775.284 675.162 41.087 23.482 o
9 2 4 482.330 470.455 28.284 45.947 o
9 2 5 52.908 85.766 26.339 84.327 o
9 3 0 1447.390 1463.310 37.716 15.753 o
9 3 1 376.807 409.895 25.697 57.133 o
9 3 2 1272.550 1271.220 47.967 14.287 o
9 3 3 213.967 197.965 28.342 62.151 o
9 3 4 351.131 271.290 24.904 64.456 o
9 3 5 165.429 126.261 33.539 49.735 o
9 4 0 445.677 414.536 22.026 63.192 o
9 4 1 1911.760 1968.010 45.858 10.387 o
9 4 2 50.636 38.393 19.284 152.925 o
9 4 3 689.580 655.694 34.398 30.405 o
9 4 4 95.066 145.480 26.829 76.581 o
9 5 0 854.318 900.247 35.987 24.853 o
9 5 1 367.870 350.432 22.131 70.090 o
9 5 2 78.854 69.013 21.782 116.136 o
9 5 3 499.756 428.895 23.671 55.694 o
9 5 4 90.625 55.561 25.128 89.883 o
9 6 0 9.395 41.589 18.846 170.392 o
9 6 1 1164.650 1219.930 119.280 3.944 o
9 6 2 23.865 -21.503 25.310 97.287 o
9 6 3 895.630 837.044 44.199 19.701 o
9 7 0 21.137 1.794 18.303 182.791 o
9 7 1 305.475 267.887 30.773 50.032 o
10 0 0 1731.870 1579.350 95.063 5.185 o
10 0 2 841.316 1058.080 76.499 8.846 o
10 0 4 152.037 94.025 37.593 41.183 o
10 1 0 9.342 24.806 17.804 192.852 o
10 1 1 134.067 134.117 25.476 81.111 o
10 1 2 2859.030 3029.130 97.079 3.703 o
10 1 3 90.439 82.119 23.604 98.966 o
10 1 4 1299.100 1217.220 52.805 12.883 o
10 1 5 81.308 64.489 34.783 49.656 o
10 2 0 2761.250 2742.150 59.496 5.989 o
10 2 1 355.022 342.909 23.659 66.111 o
10 2 2 170.495 166.815 24.958 79.741 o
10 2 3 302.805 309.918 26.982 59.508 o
10 2 4 318.101 288.288 28.411 55.229 o
10 2 5 156.928 133.153 31.468 55.750 o
10 3 0 175.524 172.368 19.746 111.328 o
10 3 1 502.012 508.142 26.490 47.984 o
10 3 2 1369.320 1461.330 48.470 13.188 o
10 3 3 4.121 -17.974 24.590 105.061 o
10 3 4 486.935 428.121 30.501 42.470 o
10 4 0 279.779 282.823 23.807 72.557 o
10 4 1 971.453 1078.070 41.240 19.596 o
10 4 2 33.447 27.113 22.769 116.289 o
10 4 3 1281.770 1347.870 51.361 13.071 o
10 4 4 10.541 -27.326 25.090 100.287 o
10 5 0 51.817 50.909 22.152 117.921 o
10 5 1 923.001 966.768 43.366 19.393 o
10 5 2 559.612 521.176 31.051 38.453 o
10 5 3 1.961 29.744 24.308 106.057 o
10 6 0 4.566 -13.168 20.089 156.972 o
10 6 1 1096.190 1162.730 44.220 16.985 o
10 6 2 25.064 -2.158 27.608 81.988 o
11 0 0 2357.450 2556.490 90.343 4.576 o
11 0 2 254.466 268.384 51.001 22.106 o
11 0 4 22.066 -13.080 51.073 24.329 o
11 1 0 1.240 14.895 20.512 149.679 o
11 1 1 738.420 774.524 42.259 22.541 o
11 1 2 212.003 210.882 26.713 67.841 o
11 1 3 38.957 9.618 26.397 88.012 o
11 1 4 1233.680 1202.080 55.252 12.514 o
11 2 0 2208.300 2309.200 66.862 6.662 o
11 2 1 29.686 -3.928 19.970 152.720 o
11 2 2 857.869 889.050 41.730 21.192 o
11 2 3 339.735 376.221 31.427 45.761 o
11 2 4 16.153 -18.038 29.136 74.260 o
11 3 0 5.850 11.993 19.575 163.306 o
11 3 1 682.784 716.033 32.681 31.733 o
11 3 2 318.373 324.661 27.509 56.913 o
11 3 3 30.512 19.691 28.797 74.610 o
11 4 0 222.951 259.937 38.266 37.098 o
11 4 1 43.064 37.818 22.230 119.416 o
11 4 2 16.590 59.343 24.472 101.497 o
11 4 3 751.030 873.606 46.380 19.494 o
11 5 0 39.812 21.047 21.623 127.613 o
11 5 1 1262.510 1297.410 44.496 15.375 o
11 5 2 34.751 85.068 25.610 90.342 o
11 6 0 0.409 -24.898 25.476 98.269 o
12 0 0 2556.490 2734.800 86.782 4.535 o
12 0 2 717.720 764.169 50.838 17.735 o
12 1 0 428.582 427.436 29.852 45.401 o
12 1 1 45.102 32.865 23.555 107.289 o
12 1 2 381.781 379.399 30.232 46.888 o
12 1 3 264.620 208.463 39.535 34.833 o
12 2 0 657.683 690.075 34.198 30.860 o
12 2 1 35.195 8.681 25.371 95.364 o
12 2 2 625.409 620.199 36.584 29.544 o
12 2 3 106.451 66.592 34.768 48.998 o
12 3 0 107.357 93.649 23.649 96.260 o
12 3 1 1119.240 1179.080 69.096 9.634 o
12 3 2 191.522 161.123 28.596 63.237 o
12 3 3 123.887 35.947 35.145 47.972 o
12 4 0 557.409 552.629 31.020 38.166 o
12 4 1 87.835 54.533 31.342 60.278 o
12 4 2 39.466 21.714 27.494 80.933 o
12 5 0 19.669 10.614 25.340 96.954 o
13 0 0 1128.180 1139.710 63.680 10.837 o
13 0 2 1054.380 1132.260 119.600 3.983 o
13 1 0 328.464 312.323 29.471 51.607 o
13 1 1 3.335 -30.556 25.941 94.518 o
13 1 2 839.933 773.143 39.442 23.401 o
13 2 0 1086.560 1076.620 42.559 18.058 o
13 2 1 0.161 60.645 27.752 80.799 o
13 2 2 233.281 213.381 33.039 47.735 o
13 3 0 170.985 163.950 30.876 56.471 o
13 3 1 378.110 405.771 35.604 37.024 o
13 4 0 568.005 567.120 35.135 32.501 o
14 0 0 1305.470 1543.600 127.314 3.420 o
14 1 0 711.560 705.114 38.140 26.312 o
14 1 1 101.075 68.382 32.512 55.615 o
14 2 0 894.761 866.091 41.592 21.037 o
;
_olex2_submission_special_instructions 'No special instructions were received'
loop_
_space_group_symop_id
_space_group_symop_operation_xyz
1 x,y,z
2 -x,y+1/2,-z+1/2
3 -x,-y,-z
4 x,-y-1/2,z-1/2
loop_
_atom_site_label
_atom_site_type_symbol
_atom_site_fract_x
_atom_site_fract_y
_atom_site_fract_z
_atom_site_U_iso_or_equiv
_atom_site_adp_type
_atom_site_occupancy
_atom_site_refinement_flags_posn
Br1 Br 0.45682(3) 0.20988(4) 0.56170(5) 0.02182(12) Uani 1.000000 .
C1 C 0.1845(3) 0.7529(4) 0.6430(4) 0.0192(7) Uani 1.000000 .
C2 C 0.2045(3) 0.5562(4) 0.6335(4) 0.0166(7) Uani 1.000000 .
C3 C 0.1205(3) 0.4401(4) 0.6635(4) 0.0195(7) Uani 1.000000 .
H3 H 0.0509(3) 0.4828(4) 0.6892(4) 0.0234(8) Uiso 1.000000 R
C4 C 0.1405(3) 0.2614(4) 0.6551(5) 0.0207(7) Uani 1.000000 .
H4 H 0.0824(3) 0.1818(4) 0.6725(5) 0.0248(8) Uiso 1.000000 R
C5 C 0.3180(3) 0.3086(4) 0.5988(4) 0.0160(6) Uani 1.000000 .
C6 C 0.3057(3) 0.4902(4) 0.5985(4) 0.0166(7) Uani 1.000000 .
H6 H 0.3641(3) 0.5664(4) 0.5753(4) 0.0200(8) Uiso 1.000000 R
N1 N 0.2385(2) 0.1946(3) 0.6234(4) 0.0185(6) Uani 1.000000 .
O1 O 0.2684(2) 0.8449(3) 0.5986(4) 0.0254(6) Uani 1.000000 .
H1 H 0.2552(17) 0.9532(3) 0.606(5) 0.0380(8) Uiso 1.000000 GR
O2 O 0.1016(2) 0.8137(3) 0.6875(4) 0.0293(6) Uani 1.000000 .
loop_
_atom_site_aniso_label
_atom_site_aniso_U_11
_atom_site_aniso_U_22
_atom_site_aniso_U_33
_atom_site_aniso_U_12
_atom_site_aniso_U_13
_atom_site_aniso_U_23
Br1 0.02102(19) 0.01986(18) 0.02654(18) 0.00611(14) 0.00943(13) -0.00090(15)
C1 0.0192(17) 0.0159(16) 0.0223(16) -0.0005(12) 0.0042(14) -0.0002(13)
C2 0.0188(17) 0.0113(15) 0.0199(16) 0.0006(12) 0.0047(13) 0.0002(12)
C3 0.0155(16) 0.0183(16) 0.0256(17) 0.0007(13) 0.0063(14) 0.0014(13)
C4 0.0198(17) 0.0168(16) 0.0264(17) -0.0041(13) 0.0071(14) 0.0027(13)
C5 0.0170(16) 0.0157(15) 0.0158(15) -0.0004(13) 0.0045(12) -0.0017(12)
C6 0.0181(17) 0.0124(15) 0.0194(16) -0.0027(13) 0.0040(13) 0.0002(13)
N1 0.0211(15) 0.0146(14) 0.0201(13) 0.0011(11) 0.0054(11) 0.0014(11)
O1 0.0243(13) 0.0095(11) 0.0451(15) -0.0004(10) 0.0137(12) 0.0005(11)
O2 0.0245(14) 0.0188(13) 0.0491(16) 0.0047(10) 0.0181(12) -0.0007(11)
loop_
_atom_type_symbol
_atom_type_scat_dispersion_real
_atom_type_scat_dispersion_imag
_atom_type_scat_Cromer_Mann_a1
_atom_type_scat_Cromer_Mann_a2
_atom_type_scat_Cromer_Mann_a3
_atom_type_scat_Cromer_Mann_a4
_atom_type_scat_Cromer_Mann_b1
_atom_type_scat_Cromer_Mann_b2
_atom_type_scat_Cromer_Mann_b3
_atom_type_scat_Cromer_Mann_b4
_atom_type_scat_Cromer_Mann_c
_atom_type_scat_source
_atom_type_scat_dispersion_source
H 0.00000 0.00000 0.49300 0.32291 0.14019 0.04081 10.51090 26.12570 3.14236
57.79970 0.0030380000826
'International Tables Volume C Table 6.1.1.4 (pp. 500-502)'
'Henke, Gullikson and Davis, At. Data and Nucl. Data Tables, 1993, 54, 2'
C 0.00347 0.00161 2.31000 1.02000 1.58860 0.86500 20.84390 10.20750 0.56870
51.65120 0.215599998832
'International Tables Volume C Table 6.1.1.4 (pp. 500-502)'
'Henke, Gullikson and Davis, At. Data and Nucl. Data Tables, 1993, 54, 2'
Br -0.28346 2.55990 17.17890 5.23580 5.63770 3.98510 2.17230 16.57960 0.26090
41.43280 2.95569992065
'International Tables Volume C Table 6.1.1.4 (pp. 500-502)'
'Henke, Gullikson and Davis, At. Data and Nucl. Data Tables, 1993, 54, 2'
O 0.01158 0.00611 3.04850 2.28680 1.54630 0.86700 13.27710 5.70110 0.32390
32.90890 0.250800013542
'International Tables Volume C Table 6.1.1.4 (pp. 500-502)'
'Henke, Gullikson and Davis, At. Data and Nucl. Data Tables, 1993, 54, 2'
N 0.00653 0.00323 12.21260 3.13220 2.01250 1.16630 0.00570 9.89330 28.99750
0.58260 -11.5290002823
'International Tables Volume C Table 6.1.1.4 (pp. 500-502)'
'Henke, Gullikson and Davis, At. Data and Nucl. Data Tables, 1993, 54, 2'
loop_
_geom_angle_atom_site_label_1
_geom_angle_atom_site_label_2
_geom_angle_atom_site_label_3
_geom_angle
_geom_angle_site_symmetry_1
_geom_angle_site_symmetry_3
O1 C1 C2 111.8(3) . .
O2 C1 C2 122.5(3) . .
O2 C1 O1 125.7(3) . .
C3 C2 C1 119.3(3) . .
C6 C2 C1 121.1(3) . .
C6 C2 C3 119.6(3) . .
H3 C3 C2 120.81(19) . .
C4 C3 C2 118.4(3) . .
C4 C3 H3 120.81(19) . .
H4 C4 C3 118.51(19) . .
N1 C4 C3 123.0(3) . .
N1 C4 H4 118.51(18) . .
C6 C5 Br1 119.2(2) . .
N1 C5 Br1 116.2(2) . .
N1 C5 C6 124.6(3) . .
C5 C6 C2 117.1(3) . .
H6 C6 C2 121.47(18) . .
H6 C6 C5 121.47(19) . .
C5 N1 C4 117.3(3) . .
H1 O1 C1 109.5 . .
loop_
_geom_bond_atom_site_label_1
_geom_bond_atom_site_label_2
_geom_bond_distance
_geom_bond_site_symmetry_2
Br1 C5 1.895(3) .
C1 C2 1.513(4) .
C1 O1 1.321(4) .
C1 O2 1.203(4) .
C2 C3 1.389(4) .
C2 C6 1.387(4) .
C3 H3 0.9500 .
C3 C4 1.379(4) .
C4 H4 0.9500 .
C4 N1 1.344(4) .
C5 C6 1.384(4) .
C5 N1 1.326(4) .
C6 H6 0.9500 .
O1 H1 0.8400 .
loop_
_refln_index_h
_refln_index_k
_refln_index_l
_refln_F_squared_meas
_refln_F_squared_sigma
0 0 1 0 0.9
0 0 -1 0.6 0.9
0 0 -1 -0.3 0.8
0 0 1 1 0.9
0 0 -2 582.24 24
0 0 2 618.44 24
0 0 2 624.04 24.1
0 0 -2 623.14 24.1
0 0 -3 0.3 2.4
0 0 -3 -1.3 2.3
0 0 3 -0.3 2.3
0 0 3 -0.6 2.3
0 0 4 775.02 31.6
0 0 -4 763.72 31.5
0 0 4 743.33 31.3
0 0 -4 806.12 31.7
0 0 -5 -0.2 4.1
0 0 5 2.2 3.9
0 0 5 2.6 4.1
0 0 6 209.98 14
0 0 -6 208.28 13.4
0 0 -6 199.38 14
0 0 6 197.28 13.6
0 0 -7 5 6.8
0 0 -7 1.7 6.2
0 0 -8 121.69 14.5
0 0 8 109.69 12.4
0 0 8 103.59 12.2
0 0 -8 141.69 15.8
0 0 -9 1 10.5
0 0 9 -6.4 10.5
0 0 9 10.3 11.4
0 -1 0 3.4 0.6
0 -1 0 3.7 0.6
0 1 1 5.5 0.8
0 1 -1 6.1 1.6
0 1 -1 7.9 1.6
0 -1 -1 6 0.8
0 -1 -1 5.2 0.9
0 -1 1 8.3 1.6
0 -1 1 7 1.6
0 1 2 889.11 33.7
0 1 -2 881.71 34.3
0 1 2 875.01 33.6
0 1 -2 863.51 34.3
0 -1 -2 867.31 33.7
0 -1 -2 908.41 33.7
0 -1 2 884.51 34.3
0 -1 2 874.91 34.3
0 1 3 71.99 5.2
0 1 3 74.49 5.3
0 1 -3 79.49 6.2
0 1 -3 80.49 6.2
0 -1 -3 73.89 5.1
0 -1 3 81.19 6.1
0 -1 3 85.69 6.2
0 -1 -3 80.39 5.4
0 1 4 1145.29 44.4
0 1 4 1129.09 44.3
0 1 -4 1118.59 45.1
0 1 -4 1139.49 45.1
0 -1 4 1151.48 45.2
0 -1 -4 1105.69 44.4
0 -1 4 1112.69 45
0 -1 -4 1145.29 44.5
0 1 5 -0.1 3.8
0 1 -5 -0.9 4.6
0 1 5 4 3.9
0 -1 -5 3.1 4
0 -1 5 -4.1 4
0 -1 5 2.7 4.4
0 1 6 161.58 12
0 1 6 151.28 11.3
0 1 -6 177.38 13.3
0 1 -6 166.48 13
0 -1 -6 179.98 12.2
0 -1 -6 159.58 11.6
0 1 7 33 7.4
0 1 -7 19.2 7.7
0 1 -7 27.5 8.3
0 -1 -7 40 7.7
0 -1 7 31.1 8.1
0 -1 -7 27.4 7.3
0 1 -8 -3.1 8
0 1 -8 14.8 9.9
0 1 8 3 7.9
0 -1 8 1.1 8.6
0 -1 -8 1.8 8.2
0 -1 -8 10.5 7.8
0 1 9 -11.5 10
0 1 9 -2.8 10.5
0 1 -9 14 11.3
0 -1 9 -11.1 16.2
0 -1 -9 5.2 10.5
0 -1 9 13.6 11.7
0 2 0 2978.5 110.09
0 -2 0 2899.41 109.99
0 -2 0 2976.5 110.09
0 2 1 14.7 1.4
0 2 -1 14.3 2.3
0 2 1 14.1 1.1
0 2 -1 14.4 2.2
0 -2 -1 15 1.3
0 -2 1 14.3 2.3
0 -2 -1 12.5 1.5
0 -2 1 14.5 2.2
0 2 -2 420.16 18
0 2 -2 462.05 18.2
0 2 2 427.36 16.6
0 -2 -2 367.86 16.9
0 -2 -2 436.46 16.7
0 -2 2 440.06 18.1
0 -2 2 440.46 18
0 2 3 156.18 7.6
0 2 -3 156.68 9.3
0 2 -3 153.88 9.2
0 2 3 165.88 7.7
0 -2 -3 158.68 7.7
0 -2 3 158.18 9.2
0 -2 3 152.48 9.2
0 -2 -3 157.38 7.7
0 2 -4 22.5 4.8
0 2 4 21.2 3.4
0 2 4 16.9 3.4
0 2 -4 18.8 4.7
0 -2 -4 19.7 3.4
0 -2 4 25.7 4.9
0 -2 4 16.5 4.6
0 -2 -4 21.9 3.4
0 2 -5 128.09 10.6
0 2 5 123.99 8.6
0 2 5 106.39 8.5
0 -2 5 119.49 10.2
0 -2 5 120.69 10.4
0 -2 -5 104.89 8.5
0 2 6 118.39 10.2
0 2 -6 113.09 12.3
0 2 -6 135.79 12.3
0 2 6 113.69 10.1
0 -2 -6 110.09 10.1
0 -2 -6 116.39 10.2
0 -2 6 100.29 11.7
0 -2 6 113.29 11.9
0 2 -7 -3.9 7.3
0 2 -7 4.1 7.9
0 2 7 -0.5 5.8
0 -2 -7 7.1 6.2
0 -2 7 -8.9 7
0 -2 7 -0.1 7.5
0 -2 -7 5 6.4
0 2 -8 91.19 13
0 2 8 114.09 11.9
0 2 8 100.19 11.3
0 2 -8 112.99 14.1
0 -2 -8 136.79 14.8
0 -2 8 138.79 17
0 -2 8 152.78 18.1
0 -2 -8 106.69 11.8
0 3 0 -1.4 1
0 3 0 0.3 1.7
0 -3 0 2.7 1.8
0 -3 0 0.6 1.4
0 3 1 1694.93 64.09
0 3 1 1649.63 64.19
0 3 -1 1780.82 65.49
0 -3 1 1775.02 65.49
0 -3 1 1716.13 65.49
0 -3 -1 1718.63 64.39
0 3 -2 538.35 21.9
0 3 2 483.35 19.8
0 3 2 518.15 19.7
0 3 -2 512.75 21.8
0 -3 2 527.45 21.8
0 -3 2 529.25 22
0 -3 -2 535.35 20
0 -3 -2 523.15 19.8
0 3 -3 15.8 4
0 3 3 14.3 2
0 3 -3 14.3 4.1
0 3 3 13.6 2.2
0 -3 -3 12.7 3.4
0 -3 -3 15.2 2.2
0 -3 3 15 4.4
0 -3 3 9.5 3.8
0 3 4 501.95 22.9
0 3 4 574.84 23
0 3 -4 586.24 25.6
0 3 -4 593.04 25.5
0 -3 4 573.74 25.5
0 -3 -4 567.94 23.2
0 -3 -4 597.44 23.2
0 -3 4 580.04 25.4
0 3 5 76.39 7.2
0 3 5 74.79 7
0 3 -5 72.29 8.6
0 -3 5 64.59 8.1
0 -3 5 91.59 10.4
0 -3 -5 71.69 7.2
0 3 6 56.19 6.4
0 3 -6 49.2 8.7
0 3 6 67.99 8.5
0 3 -6 45 8.5
0 -3 6 55.59 8.8
0 -3 -6 58.09 6.6
0 -3 6 49.5 8.7
0 -3 -6 47.9 6.4
0 3 -7 76.59 11.6
0 3 -7 82.29 11.2
0 3 7 101.89 11.3
0 -3 7 76.59 11.1
0 -3 7 84.99 11.6
0 -3 -7 91.09 10.9
0 -3 -7 90.99 11
0 3 8 -3.5 7.4
0 3 8 -4.5 7.4
0 3 -8 -5.7 9.5
0 -3 -8 -0.9 7.4
0 -3 8 0.2 10.4
0 -3 8 -10.8 9.8
0 4 0 826.32 32.1
0 -4 0 823.62 31.6
0 -4 0 793.12 32
0 4 1 15.8 2
0 4 -1 14.9 3.4
0 4 -1 15.4 3.1
0 4 1 16.7 1.7
0 -4 1 21 3.2
0 -4 -1 14.8 2.2
0 -4 1 13.3 3.3
0 -4 -1 17 1.8
0 4 -2 88.99 7.1
0 -4 2 92.89 7.4
0 -4 -2 94.39 3.8
0 -4 2 91.89 7.6
0 4 3 361.16 14.3
0 4 -3 370.26 18
0 4 3 353.56 14.4
0 4 -3 390.46 18
0 -4 3 363.76 18
0 -4 -3 374.56 14.7
0 -4 3 423.66 18.2
0 -4 -3 382.46 15
0 4 4 17.9 3
0 4 4 18 2.6
0 4 -4 21.5 5.9
0 4 -4 17.9 5.8
0 -4 4 23.6 6.1
0 -4 -4 20.6 2.9
0 -4 4 20.8 5.6
0 -4 -4 18.2 2.8
0 4 -5 248.98 17.5
0 4 -5 295.77 17
0 4 5 280.97 13.1
0 -4 -5 265.87 13.5
0 -4 -5 327.17 13.4
0 -4 5 270.77 17.1
0 -4 5 295.47 17.6
0 4 6 21.2 5.3
0 4 -6 7.4 7.9
0 4 6 16 4.7
0 -4 -6 17.4 4.9
0 -4 -6 10.3 4.5
0 -4 6 22.9 8
0 -4 6 19 8.5
0 4 7 32.9 6.4
0 4 -7 31.7 10
0 4 7 29.6 7.8
0 -4 -7 29.9 6.4
0 -4 7 33.5 10.6
0 -4 7 35.4 10.1
0 4 8 32.2 8.1
0 4 -8 16.5 11.3
0 4 8 14.6 7.4
0 -4 8 52.69 13.2
0 -4 -8 18.1 8
0 -4 8 43 12.4
0 5 0 -0.2 3
0 -5 0 -0.7 3.1
0 -5 0 -0.2 2.2
0 5 -1 703.73 28.9
0 5 -1 713.43 29.6
0 5 1 710.13 27.1
0 5 1 704.33 27.4
0 -5 1 713.23 29
0 -5 -1 719.13 27.4
0 -5 -1 707.33 28.1
0 -5 1 734.03 29.5
0 5 -2 103.29 9.3
0 5 -2 106.89 8.4
0 -5 2 90.19 8.3
0 -5 2 110.09 7.6
0 5 -3 26 5.6
0 -5 3 22.3 5.4
0 -5 3 31.2 6.2
0 5 -4 42.9 7.4
0 -5 -4 27.9 3.2
0 -5 4 31.7 6.6
0 -5 4 16.7 6.5
0 5 -5 22.7 7.6
0 5 5 6 2.1
0 5 5 9.4 2.8
0 -5 -5 7.8 3.2
0 -5 5 10.6 7.6
0 -5 5 -1.1 6.5
0 5 6 25.1 4.1
0 5 6 27.9 4.9
0 5 -6 24.9 9.1
0 -5 6 27.2 9.4
0 -5 6 33.5 9.2
0 -5 -6 30.7 4.8
0 5 7 92.19 9.5
0 5 -7 70.69 12.5
0 5 7 86.69 10.6
0 -5 -7 111.59 10.4
0 -5 7 99.39 13.3
0 -5 7 107.69 13.9
0 6 0 9.2 4.1
0 -6 0 14.6 3.2
0 -6 0 6.6 4.1
0 6 -1 48.9 6.3
0 6 1 53.99 3.9
0 6 -1 52.89 6.7
0 6 1 52.39 3.5
0 -6 1 57.09 6.5
0 -6 -1 57.49 5.5
0 -6 -1 48.6 4.1
0 6 -2 1.6 4.4
0 6 -2 -2.8 5.1
0 -6 2 5.3 5
0 -6 2 0.8 4.3
0 6 -3 483.55 23.9
0 6 -3 528.45 25.2
0 -6 3 516.85 24.5
0 -6 3 505.25 24.5
0 6 -4 12.3 6.7
0 -6 4 5.6 6.3
0 -6 4 4.7 6.9
0 6 -5 258.87 17.8
0 -6 5 238.38 17.6
0 -6 5 264.97 19.1
0 6 -6 32.6 10.3
0 6 -6 28.6 11.2
0 -6 6 21.2 9.5
0 -6 6 19 10.5
0 6 -7 3.7 11
0 6 -7 1.7 16.7
0 -6 7 11.9 11.6
0 -6 -7 10.5 4.1
0 -6 -7 4.9 6.1
0 -6 7 31.9 13.4
0 7 0 0.9 3.6
0 7 0 4.3 4.5
0 -7 0 -2.1 5.4
0 7 -1 284.77 14.2
0 7 -1 285.27 16.1
0 7 1 274.07 10.7
0 7 1 256.47 10.7
0 -7 1 267.97 14.5
0 -7 -1 283.47 11.9
0 -7 -1 294.07 12.8
0 -7 1 288.87 16.2
0 7 -2 14 6.8
0 7 -2 11.1 5.2
0 -7 2 8.7 6.2
0 7 -3 87.19 11
0 -7 3 85.59 10.1
0 -7 3 64.59 8.8
0 7 -4 20.9 9.5
0 -7 4 19.6 7.7
0 -7 4 11.3 8.8
0 7 -5 18.3 11
0 7 -5 31.5 9.3
0 -7 5 20.9 9.1
0 -7 5 8.1 10.5
0 7 -6 11.6 10.6
0 7 -6 -3.9 14.4
0 -7 6 10.5 10.6
0 -7 6 12.8 12.3
0 8 0 148.59 8.9
0 8 0 151.78 10.9
0 -8 0 117.99 13.9
0 -8 0 140.29 9.4
0 8 -1 41.5 6.1
0 8 -1 46.5 8
0 -8 1 47.7 6.5
0 -8 1 42.9 7.9
0 -8 -1 47.2 4.7
0 8 -2 6.4 6.9
0 8 -2 16.9 5.9
0 -8 2 12.3 6
0 -8 2 13 7.6
0 8 -3 218.58 19.2
0 8 -3 239.58 16
0 -8 3 242.78 19.1
0 -8 3 216.38 16.2
0 8 -4 0.9 10.9
0 -8 4 19.8 8.8
0 -8 4 -8.7 9.9
0 9 0 -1.4 3.8
0 -9 0 -1.1 6.1
0 -9 1 68.39 7.8
0 -9 1 58.59 9.8
0 9 -2 66.39 11.3
0 9 -2 73.29 8.8
0 -9 2 79.49 9.5
0 -9 2 82.99 12
-1 0 9 15.3 11
-1 0 9 -11.5 9.9
1 0 -9 14 10.2
1 0 -9 -18.5 10.4
-1 0 8 172.88 15.7
1 0 -8 170.38 15.4
-1 0 8 167.68 16
1 0 -8 165.08 16.5
1 0 -7 -9.5 6.3
1 0 -7 -9.9 5.8
-1 0 6 258.97 15.5
1 0 -6 293.27 15.8
1 0 -6 264.17 15.8
-1 0 6 273.47 16
-1 0 5 -2.7 3.8
-1 0 5 1 4
1 0 -5 -0.9 4
1 0 -4 13.6 3.6
-1 0 4 12.4 3.7
-1 0 4 12.6 3.6
1 0 -4 12.5 3.6
1 0 -3 1 2.3
1 0 -3 -0.3 2.4
-1 0 3 -1.2 2.3
-1 0 3 0.2 2.3
1 0 -2 471.85 19.2
1 0 -2 494.55 19.2
-1 0 2 487.75 19.2
-1 0 2 466.65 19.1
1 0 -1 0.5 1
-1 0 1 1 1
-1 0 1 1.6 1.1
1 0 -1 -0.2 1
-1 0 -1 -0.1 1.3
1 0 1 1.5 1.3
1 0 1 -0.6 1.2
-1 0 -1 -0.7 1.2
-1 0 -2 9956.3 370.96
1 0 2 9999 370.96
1 0 3 4 2.7
-1 0 -3 -0.5 2.4
-1 0 -3 -3.5 2.4
1 0 3 0.8 2.5
1 0 4 111.89 8.1
-1 0 -4 114.49 8.2
1 0 4 122.19 8.2
-1 0 -4 117.19 8.4
-1 0 -5 -0.4 4.4
1 0 5 2.2 4.2
1 0 5 0.8 4.3
1 0 6 533.55 32.2
1 0 6 707.73 29.7
-1 0 -6 693.93 29.7
-1 0 -6 663.13 29.4
-1 0 -7 -4.9 6.5
-1 0 -7 0.4 6.9
1 0 8 187.98 17.8
1 0 8 190.48 17
-1 0 -8 156.18 16.2
-1 1 9 -10.3 10.1
1 1 -9 14.8 11.8
-1 1 9 1.6 10.2
1 1 -9 13.9 10.7
-1 -1 9 8 11.4
-1 -1 9 23.2 11.7
1 -1 -9 15 10.4
-1 1 8 8.1 7.8
1 1 -8 14.5 8.6
1 1 -8 6.1 9
-1 -1 8 5.2 8.3
1 -1 -8 12 11.2
1 -1 -8 10.7 7.8
1 1 -7 22.4 8.1
-1 1 7 8.1 6.3
1 1 -7 12.7 7.1
-1 -1 7 10 7
1 -1 -7 16.6 6.8
1 -1 -7 16 6.5
1 1 -6 119.89 11.2
1 1 -6 124.99 11.8
-1 1 6 108.29 10
-1 1 6 131.49 10.8
-1 -1 6 162.08 12.4
1 -1 -6 135.89 11.2
1 -1 -6 119.39 10.3
-1 1 5 33.8 4.9
-1 1 5 33 5.2
1 1 -5 27.4 5.8
1 -1 -5 32.6 5.3
-1 -1 5 37.4 5.7
-1 -1 5 40.2 6
-1 1 4 749.92 30.4
1 1 -4 742.33 31
1 1 -4 741.43 31
-1 1 4 755.82 30.4
1 -1 -4 755.82 30.4
-1 -1 4 754.92 31
-1 -1 4 786.42 31.2
1 -1 -4 722.63 30.4
-1 1 3 10.3 2.5
1 1 -3 6.4 2.8
1 1 -3 8 3
-1 1 3 9.2 2.5
1 -1 -3 7.5 2.4
-1 -1 3 9.7 3.1
-1 -1 3 8 2.9
1 -1 -3 5.2 2.4
-1 1 2 1761.52 65.69
-1 1 2 1710.83 65.59
1 1 -2 1739.03 66.19
1 1 -2 1747.43 66.09
1 -1 -2 1721.23 65.69
-1 -1 2 1755.62 66.19
-1 -1 2 1764.42 66.19
1 -1 -2 1743.43 65.69
-1 1 1 262.97 10.6
-1 1 1 259.37 10.5
1 1 -1 273.77 10.8
1 1 -1 267.27 10.8
1 -1 -1 255.47 10.6
-1 -1 1 263.17 10.8
1 -1 -1 260.57 10.6
-1 -1 1 270.47 10.8
1 1 0 149.79 6
-1 1 0 151.28 6.8
-1 1 0 149.39 6.7
-1 -1 0 151.98 6
-1 -1 0 148.59 6
1 -1 0 153.88 6.7
1 -1 0 143.69 6.7
-1 1 -1 21.3 2.6
-1 1 -1 21.2 2.6
1 1 1 25.6 2.1
1 -1 1 27 3
-1 -1 -1 26.4 2.1
-1 -1 -1 25.1 1.9
1 -1 1 26.2 3.1
1 1 2 433.36 17.5
1 1 2 440.16 17.5
-1 1 -2 425.26 18.2
-1 1 -2 459.35 18.4
-1 -1 -2 426.86 17.5
1 -1 2 460.85 18.3
-1 -1 -2 439.86 17.5
1 -1 2 428.46 18.3
1 1 3 -0.9 2.2
-1 1 -3 1.8 3
1 1 3 -0.9 2.1
-1 1 -3 -1.3 2.9
-1 -1 -3 -3.6 2.1
1 -1 3 2.7 2.9
1 -1 3 1.9 2.8
-1 -1 -3 0.4 2.2
1 1 4 863.91 34.7
-1 1 -4 887.51 35.5
1 1 4 856.01 34.6
-1 1 -4 816.82 35.3
-1 -1 -4 848.02 34.6
-1 -1 -4 922.81 34.9
1 -1 4 873.71 35.5
1 -1 4 845.32 35.4
1 1 5 7.4 4.2
-1 1 -5 2.3 4.8
-1 1 -5 10 4.7
1 1 5 4.6 3.9
1 -1 5 9.8 4.9
1 -1 5 2.2 4.8
-1 -1 -5 -0.7 4
-1 1 -6 374.06 20.3
-1 1 -6 373.46 20.4
1 1 6 405.16 19.6
-1 -1 -6 383.16 19.3
1 -1 6 389.96 21.2
-1 -1 -6 368.86 19.2
1 1 7 2.5 6.2
-1 1 -7 9 7.4
-1 -1 -7 7.5 6.7
1 -1 7 0.2 7.2
1 1 8 13.5 8.5
-1 1 -8 3.8 8.7
-1 -1 -8 6.4 8.4
1 -1 8 6.6 9.1
1 2 -9 10.6 11.7
-1 2 9 -1.3 10
-1 -2 9 22.1 12.3
-1 2 8 142.39 15.3
1 2 -8 183.38 17
1 2 -8 159.88 18.9
-1 2 8 138.69 15.1
1 -2 -8 137.89 14.7
1 -2 -8 151.28 15.6
-1 -2 8 148.79 17.4
-1 -2 8 152.98 18.3
1 2 -7 33.2 8.4
-1 2 7 34.4 7.1
1 2 -7 32.5 9.1
-1 -2 7 38.5 8.8
1 -2 -7 19.5 9.3
1 -2 -7 28.3 7.1
-1 -2 7 18.3 8.3
-1 2 6 246.58 14.2
1 2 -6 248.88 16
-1 2 6 245.78 14.2
1 2 -6 260.97 16.2
1 -2 -6 247.38 14.4
1 -2 -6 257.37 14.5
-1 -2 6 238.58 16.2
1 2 -5 95.89 9.6
-1 2 5 83.99 7.6
-1 2 5 88.79 7.4
1 2 -5 64.99 7.5
-1 -2 5 80.59 9.2
1 -2 -5 86.29 7.7
-1 -2 5 78.99 9.1
-1 2 4 4.3 2.8
1 2 -4 9.6 4.2
1 2 -4 10.8 4.2
-1 2 4 4.7 3
1 -2 -4 6.3 3.1
1 -2 -4 6.9 2.9
-1 -2 4 6.5 4.1
-1 -2 4 7.2 3.9
1 2 -3 259.87 12.8
-1 2 3 266.47 11.5
1 2 -3 261.37 12.8
-1 2 3 271.97 11.7
1 -2 -3 254.27 11.5
1 -2 -3 269.77 11.6
-1 -2 3 260.77 12.7
-1 -2 3 258.87 12.7
1 2 -2 104.69 6.5
-1 2 2 108.39 5.3
1 2 -2 109.59 6.5
-1 -2 2 113.59 6.6
1 -2 -2 103.29 5.4
1 -2 -2 113.59 5.5
-1 -2 2 110.09 6.6
1 2 -1 113.89 5.8
-1 2 1 107.39 5.3
1 2 -1 117.69 5.8
1 -2 -1 104.49 5.5
-1 -2 1 110.89 5.6
1 -2 -1 114.59 5.5
-1 -2 1 115.59 5.8
-1 2 0 976.4 35.6
-1 2 0 911.11 35.7
1 2 0 910.51 34.9
-1 -2 0 934.01 34.9
1 -2 0 988.3 35.7
1 -2 0 938.71 35.7
-1 -2 0 833.12 34.9
-1 2 -1 231.18 10.3
-1 2 -1 228.08 10.4
1 -2 1 217.68 10.2
1 -2 1 227.58 10.4
-1 2 -2 1913.31 70.59
1 2 2 1784.62 68.99
1 -2 2 1853.61 70.59
-1 -2 -2 1800.02 68.99
1 -2 2 1870.31 70.59
-1 2 -3 53.09 6.2
-1 2 -3 46.7 5.2
1 2 3 48.9 4.3
1 2 3 53.29 4.1
-1 -2 -3 38.9 4.2
-1 -2 -3 46.5 4.2
1 -2 3 47.4 5.2
1 -2 3 54.09 6.2
-1 2 -4 30.7 5.6
1 2 4 37.8 4.2
-1 2 -4 38.1 5.8
1 2 4 42.2 5.3
1 -2 4 38.2 5.7
1 -2 4 35.9 5.7
-1 -2 -4 34.6 4.2
-1 -2 -4 38.2 4.3
1 2 5 92.49 7.9
-1 2 -5 90.59 10.3
1 2 5 88.59 7.8
-1 -2 -5 88.59 8.1
1 -2 5 86.59 9.9
1 2 6 125.99 11.2
-1 2 -6 114.79 12.8
-1 2 -6 133.79 13.2
1 2 6 129.89 10.8
-1 -2 -6 131.69 10.7
-1 -2 -6 133.69 11
1 -2 6 132.29 13.2
1 -2 6 131.59 13.5
-1 2 -7 35.1 8.8
1 2 7 29.5 6.8
-1 -2 -7 24.3 7.4
1 -2 7 32.2 8.8
1 -2 7 32 10.7
-1 2 -8 88.49 12.8
1 2 8 72.89 10.1
1 2 8 87.89 11
1 -2 8 101.29 13.8
1 -2 8 107.19 13.8
-1 -2 -8 84.89 11
1 3 -8 -3.7 10.2
-1 3 8 11.3 7.5
-1 3 8 -11.7 6.9
1 3 -8 12 9.5
1 -3 -8 -1.2 7.5
-1 -3 8 1 10
-1 -3 8 -21 9.1
1 -3 -8 -5.4 6.7
-1 3 7 88.29 11.1
1 3 -7 71.89 10.8
1 3 -7 61.59 11
-1 -3 7 103.89 11.8
1 -3 -7 93.79 11.2
1 -3 -7 98.29 11
-1 -3 7 92.89 11.5
-1 3 6 40.1 6
1 3 -6 34.2 7.8
-1 3 6 33.6 5.6
1 3 -6 34.8 8.3
1 -3 -6 44.8 6
1 -3 -6 41.2 6.1
-1 -3 6 41.1 8.4
-1 -3 6 44.9 8.3
1 3 -5 82.89 10.1
-1 3 5 76.19 7.1
-1 3 5 79.19 7.4
1 -3 -5 87.09 7.3
-1 -3 5 76.69 8.4
-1 -3 5 88.89 10.3
-1 3 4 207.48 10.3
-1 3 4 215.38 10.2
1 3 -4 210.98 12.6
1 3 -4 208.98 12.3
1 -3 -4 196.98 10.2
1 -3 -4 211.58 10.3
-1 -3 4 205.78 12.6
-1 -3 4 216.38 12.4
-1 3 3 -1.5 1.8
1 3 -3 1.6 3.5
1 3 -3 4.4 3.6
1 -3 -3 2.3 2
-1 -3 3 1.2 3.2
1 -3 -3 1.5 2
-1 -3 3 1.2 3.4
1 3 -2 856.31 32.7
-1 3 2 800.02 31.1
1 3 -2 793.62 32.5
1 -3 -2 841.52 31.6
-1 -3 2 826.12 32.6
-1 -3 2 782.22 32.5
-1 3 1 6 1.9
1 3 -1 5.2 2.2
1 3 -1 4.3 2.1
-1 -3 1 6.1 2.2
1 -3 -1 4.1 2.1
-1 -3 1 5 2.2
1 -3 -1 4.2 1.8
-1 3 0 179.68 8.9
-1 3 0 185.28 8.4
-1 -3 0 166.68 7.8
-1 -3 0 181.08 7.6
1 -3 0 177.88 8.9
-1 3 -1 1498.05 57.29
-1 3 -1 1479.15 57.09
1 -3 1 1479.45 57.09
1 -3 1 1496.35 57.29
-1 3 -2 154.38 9.1
-1 -3 -2 160.68 6.3
1 -3 2 164.48 9.6
-1 -3 -2 160.18 6.4
1 -3 2 165.98 9.2
-1 3 -3 714.23 30.2
1 3 3 713.43 27.6
1 3 3 724.63 27.7
-1 -3 -3 724.53 27.7
1 -3 3 711.23 30.2
1 -3 3 719.73 30.2
-1 3 -4 467.65 22.2
1 3 4 470.75 19.6
1 -3 4 447.76 22.3
-1 -3 -4 460.25 19.5
1 -3 4 532.95 22.2
-1 3 -5 35.9 7.5
1 3 5 62.79 6.6
1 3 5 42.3 4.9
1 -3 5 41.3 7.4
1 -3 5 53.99 7.9
1 3 6 214.78 12.9
1 3 6 206.48 12.8
1 -3 6 211.48 16.5
1 -3 6 207.28 16.1
-1 -3 -6 214.48 12.9
-1 3 -7 83.79 11.8
1 3 7 101.29 11.5
-1 -3 -7 100.99 11.4
1 -3 7 87.39 12.1
1 -3 7 117.09 13
-1 3 -8 16.2 10.6
1 3 8 -6.5 7.7
1 3 8 7 7.7
-1 -3 -8 6.8 7.9
1 -3 8 10.5 10.6
1 -3 8 10 11.4
-1 4 8 42.6 8.9
1 4 -8 46.6 11.5
1 4 -8 40.8 13.2
-1 4 8 60.79 8.8
-1 -4 8 46.8 12.5
-1 -4 8 50.79 13.3
1 -4 -8 66.69 9.3
1 -4 -8 55.89 9
1 4 -7 30.1 9.7
1 4 -7 3.4 8.9
-1 4 7 14.4 6.4
1 -4 -7 6.9 5.8
-1 -4 7 11.2 8.7
1 -4 -7 5.8 5.8
-1 -4 7 22 9.3
1 4 -6 34.4 8.6
1 4 -6 44 9
-1 4 6 49.7 5.7
-1 4 6 54.59 6.4
-1 -4 6 55.19 9.1
-1 -4 6 62.29 9.4
1 -4 -6 42.2 5.8
1 -4 -6 42.8 5.8
-1 4 5 277.77 13.2
1 4 -5 243.48 17.1
1 4 -5 289.37 16.2
-1 -4 5 276.57 17.4
1 -4 -5 321.77 13.4
1 -4 -5 275.87 13.6
-1 -4 5 274.27 17.1
-1 4 4 -1.3 2.8
1 4 -4 -3.5 4.7
1 4 -4 1.6 4.6
-1 4 4 1.8 2.3
-1 -4 4 9.4 5.2
1 -4 -4 0.8 2.5
-1 -4 4 1.3 4.6
1 4 -3 576.24 25.1
-1 4 3 579.84 22.5
1 4 -3 562.04 25.1
-1 4 3 544.65 23
1 -4 -3 583.74 22.8
1 -4 -3 585.74 23.2
-1 -4 3 595.44 25.4
-1 -4 3 622.04 25.4
1 4 -2 8.6 3.5
-1 4 2 14.5 1.8
-1 4 2 15.1 2.2
1 4 -2 11.8 3.4
-1 -4 2 13.6 3.5
-1 -4 2 19.7 4
1 -4 -2 11.4 1.9
1 -4 -2 18.5 2.5
1 4 -1 185.88 9.3
1 4 -1 196.28 9.2
-1 4 1 184.18 9
1 -4 -1 164.38 9.5
-1 -4 1 186.58 9.4
-1 -4 1 190.28 9.2
1 4 0 201.28 8.8
-1 4 0 197.48 9.2
-1 4 0 189.28 10.1
1 -4 0 191.18 10.1
-1 -4 0 194.98 8.5
-1 -4 0 172.08 8.9
1 -4 0 189.68 9.3
-1 4 -1 103.29 7
-1 4 -1 92.29 7.5
1 -4 1 99.89 6.9
1 -4 1 87.89 7.2
-1 4 -2 537.95 22.9
-1 4 -2 531.45 23.3
1 -4 2 529.85 23.2
1 -4 2 508.95 22.8
-1 4 -3 206.58 12.3
1 -4 3 195.38 11.6
-1 -4 -3 196.98 7.7
-1 -4 -3 190.98 7.7
1 -4 3 195.48 12.3
-1 4 -4 0.9 5.1
1 4 4 11.9 2.3
1 4 4 9 2.2
1 -4 4 2.3 5.5
1 -4 4 11.5 5.4
-1 -4 -4 4.6 2.2
-1 4 -5 245.58 17
1 4 5 248.68 12.3
1 4 5 248.58 12.3
1 -4 5 262.57 17
-1 -4 -5 290.47 12.3
1 -4 5 250.97 16.8
1 4 6 84.69 8.3
-1 4 -6 74.49 10.8
1 -4 6 71.39 10.5
1 -4 6 84.69 10.9
-1 -4 -6 55.09 6.4
-1 4 -7 56.19 11.1
1 4 7 47.5 7.1
1 -4 7 17.3 10.1
-1 -4 -7 46.2 7.4
-1 -4 -7 53.09 7.6
1 -4 7 48.1 11.9
1 4 8 18.3 8.3
-1 4 -8 4 11.6
-1 4 -8 -15.2 13.5
1 4 8 13.8 7.8
-1 -4 -8 11 8.5
1 -4 8 40.4 12.9
-1 -4 -8 7.3 7.5
1 -4 8 24.2 13.6
-1 5 7 187.48 15.2
1 5 -7 208.38 19.6
-1 5 7 178.38 12.3
-1 -5 7 220.48 18.8
-1 -5 7 188.48 19.9
1 -5 -7 192.28 13.3
1 -5 -7 183.28 13.2
-1 5 6 2.9 4.8
-1 5 6 6.1 3.7
1 5 -6 1.1 8.1
-1 -5 6 3.1 7.8
1 -5 -6 -2 4.1
-1 -5 6 2.6 8.3
1 -5 -6 2.3 6.6
-1 5 5 72.49 5.7
-1 5 5 72.69 7
1 -5 -5 68.39 6.2
-1 -5 5 76.99 9.8
-1 -5 5 82.29 9.8
-1 5 4 96.09 5.6
1 5 -4 87.39 10.4
1 5 -4 101.09 11.1
-1 5 4 89.59 4.8
1 -5 -4 78.69 6.3
-1 -5 4 91.89 10.4
1 -5 -4 90.49 5.5
-1 -5 4 93.09 10.7
-1 5 3 69.19 3.3
-1 5 3 72.89 3.5
1 5 -3 65.59 7.4
1 5 -3 73.99 8
-1 -5 3 55.89 6.8
1 -5 -3 72.59 4.3
1 -5 -3 67.59 4.8
-1 -5 3 68.99 8.8
-1 5 2 24.6 2.7
1 5 -2 18.7 4.1
-1 5 2 22.3 2.5
-1 -5 2 22.8 4.7
1 -5 -2 26.5 3.2
1 5 -1 234.38 11.6
-1 5 1 249.97 11.6
-1 5 1 230.08 11
1 -5 -1 253.87 11
-1 -5 1 240.98 11.7
-1 -5 1 255.47 12.3
-1 5 0 34.5 4.9
-1 5 0 34.5 3.9
1 5 0 33.2 3.7
1 5 0 29.8 4.3
1 -5 0 33.3 3.9
-1 -5 0 34.6 3.9
1 -5 0 37.3 4.9
-1 5 -1 725.13 30.6
-1 5 -1 734.73 29.9
-1 -5 -1 711.43 27.4
-1 -5 -1 722.93 27.7
1 -5 1 768.22 30.1
1 -5 1 716.43 30.5
-1 5 -2 10.3 4.4
-1 5 -2 2.1 4.6
1 -5 2 6.5 4.8
-1 5 -3 265.37 14.9
-1 5 -3 272.97 16.1
1 -5 3 256.17 14.9
1 -5 3 261.47 15.7
1 -5 4 63.09 8.7
1 -5 4 62.29 8.6
-1 5 -5 11.6 7.8
-1 5 -5 9.1 9
1 -5 5 15.8 8.1
-1 -5 -5 14.9 2.9
1 -5 5 10.7 7.1
-1 -5 -5 13 2.8
-1 5 -6 12.7 9.5
-1 5 -6 19.2 10.2
1 5 6 11.5 3.6
1 5 6 9.3 3.8
-1 -5 -6 16.3 4.4
1 -5 6 6.6 9.1
1 -5 6 19.6 8.8
-1 -5 -6 15.7 4.2
1 5 7 48.2 7.6
-1 5 -7 40.7 12.9
1 5 7 45.9 6.6
-1 5 -7 52.29 12.4
1 -5 7 40.2 12.4
-1 -5 -7 46.8 7.1
-1 -5 -7 49.6 6.5
1 -5 7 64.09 12.5
-1 6 7 29.6 4.1
1 6 -7 30.7 11.8
-1 -6 7 2.9 12.2
-1 -6 7 43.8 12.2
1 6 -6 -0.9 8.6
-1 -6 6 5.6 9.6
-1 -6 6 1.2 8.3
1 6 -5 98.69 12.7
-1 -6 5 119.49 15
1 -6 -5 105.69 5.9
-1 -6 5 104.39 11.4
1 6 -4 78.09 9
-1 -6 4 79.69 9.7
-1 -6 4 62.29 8.8
1 6 -3 426.16 20.4
-1 -6 3 414.56 20.5
-1 -6 3 418.66 21.3
-1 6 2 13.7 1.6
-1 6 2 11.4 1.1
1 6 -2 18 4.7
1 6 -2 16.5 5.6
1 -6 -2 13.2 2.2
-1 -6 2 6.3 4.9
-1 -6 2 15.7 4.6
1 -6 -2 11.4 2.2
1 6 -1 359.36 16
1 6 -1 359.26 17
-1 6 1 356.86 15.7
-1 6 1 355.66 14.9
-1 -6 1 342.77 16.9
1 -6 -1 351.96 15.2
-1 -6 1 366.36 15.9
1 -6 -1 331.57 16.7
-1 6 0 2.5 3.1
-1 6 0 1.2 4.3
1 6 0 -0.8 2.3
1 6 0 2.3 3.3
1 -6 0 1.8 4.5
1 -6 0 1.2 3.1
-1 -6 0 1.3 2.4
-1 6 -1 18.4 5.6
-1 6 -1 25.4 4.7
-1 -6 -1 18.2 2
-1 -6 -1 21.5 2.5
1 -6 1 11.8 5.4
-1 6 -2 5.1 5.7
-1 6 -2 8.8 5.1
1 -6 2 0.6 5.3
1 -6 2 3.7 4.8
-1 6 -3 225.98 14.9
-1 6 -3 231.18 15.7
1 -6 3 231.48 15.4
-1 6 -4 0.1 6.1
1 -6 4 1.7 6.6
1 -6 4 -4.9 6.9
-1 6 -5 291.17 20.7
1 -6 5 286.17 19.2
1 -6 5 250.47 23
-1 6 -6 -13.8 9.2
-1 6 -6 -3.5 11
1 -6 6 8.6 9.1
1 -6 6 -7.7 10.2
1 7 -6 9.9 12.8
1 7 -6 -14 9.5
-1 -7 6 -13.1 9.7
-1 -7 6 -2.6 11.8
1 7 -5 74.49 12.5
1 7 -5 85.09 11.2
-1 -7 5 69.79 14.3
-1 -7 5 87.99 11.7
1 7 -4 6.7 6.4
1 7 -4 5.3 8.7
-1 -7 4 1.6 8
-1 -7 4 -2.3 6.7
1 7 -3 14.5 5.7
-1 -7 3 -7.7 6.5
-1 -7 3 9 6.2
1 7 -2 36.5 7.2
1 7 -2 40.4 6.1
-1 -7 2 43.7 6.6
1 -7 -2 40.4 3.4
-1 -7 2 39.6 7.2
1 -7 -2 43.5 3.5
-1 7 1 369.96 15.4
-1 7 1 352.86 16
1 7 -1 371.06 16.9
1 7 -1 346.17 18.2
-1 -7 1 384.26 17.2
1 -7 -1 370.26 17.3
-1 -7 1 359.06 18.3
-1 7 0 7 5.4
1 7 0 3.4 3.9
1 7 0 1.1 2.7
-1 7 0 16.5 3.9
1 -7 0 6.4 5.8
-1 -7 0 4.9 4.5
1 -7 0 0.5 3.7
-1 7 -1 337.97 21.5
-1 7 -1 386.96 17.8
1 -7 1 372.96 19.7
1 -7 1 358.36 18
-1 7 -2 13.1 5.6
-1 7 -2 7.9 6.8
1 -7 2 4.1 6.8
1 -7 2 -3.3 5.1
-1 7 -3 68.89 9.1
1 -7 3 58.69 8.9
1 -7 3 68.79 10.1
-1 7 -4 10.8 9.3
1 -7 4 27 8.2
1 -7 4 16 9.2
-1 7 -5 -3.6 10.8
-1 7 -5 -18.2 9.6
1 -7 5 -3.4 10.7
1 -7 5 -5.3 8.8
1 8 -4 17.3 7.9
1 8 -4 6.2 10.6
-1 -8 4 2.6 7.9
-1 -8 4 17.5 10.1
1 8 -3 235.18 18.1
1 8 -3 203.48 14.9
-1 -8 3 215.78 17.9
-1 -8 3 191.18 15.2
1 8 -2 -8.4 5
-1 -8 2 -2.2 5.6
-1 -8 2 3.9 7
-1 8 1 148.69 8.1
-1 8 1 154.18 7.9
1 8 -1 164.68 12.9
1 -8 -1 183.78 8.8
-1 -8 1 145.39 13
-1 -8 1 119.39 13.6
1 -8 -1 152.98 10.2
-1 8 0 18.7 10.8
1 8 0 23.4 4.2
1 8 0 27.9 3.7
-1 -8 0 28.5 4.2
1 -8 0 32.1 5.3
1 -8 0 19.8 7.3
-1 -8 0 21.9 5.4
-1 8 -1 2.5 7.9
-1 8 -1 5.7 5.2
1 -8 1 1.1 5.2
1 -8 1 3.8 6.9
-1 8 -2 118.99 12.1
1 -8 2 93.69 10
1 -8 2 78.89 11
-1 8 -3 105.29 13.3
-1 8 -3 130.09 13.8
1 -8 3 136.79 16.9
1 -8 3 146.39 14.9
-1 8 -4 5.6 11.4
1 -8 4 -13.9 8.1
1 -8 4 12.9 11.5
1 9 -2 121.59 11.9
1 9 -2 94.89 11.4
-1 -9 2 83.09 9.5
-1 -9 2 98.49 11.8
1 9 -1 56.89 7
-1 -9 1 63.19 7.3
-1 -9 1 56.19 10.4
1 -9 -1 57.09 7
1 -9 -1 66.69 6.7
-1 9 0 27.3 6.6
-1 9 0 30.1 5.5
-1 -9 0 31 5.7
1 -9 0 33 5.8
-1 -9 0 38.7 4.6
-1 9 -1 81.19 10.8
-1 9 -1 66.69 8.1
1 -9 1 68.79 11
1 -9 1 85.69 8.8
-1 9 -2 14.8 7.6
-1 9 -2 30.3 11.3
1 -9 2 21.1 10.6
1 -9 2 9.9 7.5
2 0 -9 -8.1 9.4
-2 0 9 -2.9 10.8
-2 0 9 -6.9 10.2
2 0 -9 -10.9 10.7
-2 0 8 164.38 15.6
2 0 -8 162.58 17.4
-2 0 8 110.19 13.6
2 0 -8 148.19 15.6
2 0 -7 0.2 6.6
2 0 -7 -3.8 5.8
-2 0 6 371.76 19.2
2 0 -6 374.36 18.9
-2 0 6 375.06 19.2
2 0 -6 360.06 19.1
2 0 -5 3.3 4.3
-2 0 5 -1.6 3.9
-2 0 5 1.4 3.9
2 0 -4 212.18 11.1
-2 0 4 210.78 11.2
-2 0 4 204.48 11.1
2 0 -4 213.78 11.5
-2 0 3 0.8 2.4
-2 0 3 -0.9 2.3
2 0 -3 1.2 2.4
2 0 -3 1.6 2.6
2 0 -2 450.35 18.2
2 0 -2 445.16 18.3
-2 0 2 451.25 18.2
-2 0 2 443.96 18.2
-2 0 1 -0.4 1.5
2 0 -1 -0.3 1.5
2 0 -1 0.4 1.5
-2 0 1 -0.1 1.5
2 0 0 9.7 2
2 0 0 10.6 2
-2 0 0 9.1 1.9
-2 0 0 9.9 2
-2 0 -1 0.7 1.8
2 0 1 -0.6 1.8
2 0 1 0.6 2
-2 0 -1 1.4 2
2 0 2 338.27 14.6
-2 0 -2 333.67 14.6
2 0 2 341.97 14.6
-2 0 -2 338.97 14.7
-2 0 -3 -0.6 2.7
2 0 3 -1.1 2.7
2 0 3 -1.4 2.7
2 0 4 2410.86 92.19
2 0 4 2382.86 92.19
-2 0 -4 2416.76 92.29
2 0 5 -0.4 4.4
2 0 5 1.5 4.5
2 0 6 4.7 5.9
-2 0 -6 -2.5 5.9
2 0 6 8.4 6.1
2 0 7 2 5.8
-2 0 -7 4.8 7.3
2 0 8 443.86 26.1
2 0 8 393.76 24.7
-2 0 -8 431.26 26
-2 1 9 6.6 11.1
2 1 -9 9.5 12.1
2 1 -9 -3.7 10.1
-2 1 9 12.1 10.6
-2 -1 9 -8.9 10.6
-2 -1 9 27.5 11.7
2 -1 -9 31.1 10.7
2 -1 -9 -0.8 11.8
-2 1 8 22.7 8
2 1 -8 27.8 9
2 1 -8 31.8 9.8
2 -1 -8 38.4 9.4
-2 -1 8 34.2 9.3
2 -1 -8 31.9 8.8
-2 1 7 31.8 7.5
2 1 -7 27.2 7.7
2 1 -7 22.1 8.3
2 -1 -7 35.2 7.6
-2 -1 7 48 8.6
2 -1 -7 28.6 7.4
2 1 -6 19.7 6.6
-2 1 6 26.4 5.8
-2 1 6 26.8 5.9
2 1 -6 21.3 6.3
-2 -1 6 10.5 5.8
2 -1 -6 13.5 5.4
2 -1 -6 22.9 5.8
2 1 -5 9.9 4.6
-2 1 5 7.5 4.2
-2 1 5 6.1 4.1
2 -1 -5 3.7 4.2
-2 -1 5 2 4.3
-2 -1 5 8.1 4.5
-2 1 4 823.32 33.2
2 1 -4 784.02 33.7
-2 1 4 831.72 33.3
2 1 -4 868.81 33.9
-2 -1 4 811.42 33.7
2 -1 -4 808.62 33.2
-2 -1 4 841.72 33.8
2 -1 -4 828.02 33.3
-2 1 3 1.8 2.3
2 1 -3 5.3 2.9
-2 1 3 5.2 2.5
2 1 -3 0.6 2.7
-2 -1 3 0.1 2.7
-2 -1 3 -0.1 2.7
2 -1 -3 3.3 2.3
2 -1 -3 2.8 2.5
-2 1 2 1432.66 54.99
2 1 -2 1443.86 55.19
2 1 -2 1499.85 55.29
-2 1 2 1424.06 54.89
2 -1 -2 1428.76 54.89
-2 -1 2 1413.26 55.19
-2 -1 2 1487.45 55.29
2 -1 -2 1429.16 54.99
2 1 -1 56.69 3.7
-2 1 1 52.19 4.1
-2 1 1 51.39 3.8
2 1 -1 57.89 3.8
2 -1 -1 58.79 4
-2 -1 1 53.49 3.7
-2 -1 1 57.29 3.7
2 -1 -1 57.49 4
-2 1 0 952.6 36.6
2 1 0 981.5 35.9
2 1 0 958.3 35.8
-2 1 0 889.81 36.5
-2 -1 0 988.8 35.8
2 -1 0 894.91 36.5
-2 -1 0 965.2 35.9
2 -1 0 905.91 36.6
-2 1 -1 229.58 10.4
2 1 1 237.48 9.5
-2 1 -1 219.58 10.3
2 1 1 203.78 9.5
2 -1 1 239.08 10.5
2 -1 1 226.38 10.3
-2 -1 -1 219.38 9.6
-2 -1 -1 194.98 9.5
-2 1 -2 106.49 7.1
-2 1 -2 116.39 7.2
2 1 2 112.29 6.1
2 1 2 118.99 6.3
-2 -1 -2 118.69 6.2
2 -1 2 115.19 7.1
2 -1 2 100.79 7
-2 -1 -2 109.69 6.2
-2 1 -3 9.1 3.7
2 1 3 13.3 3.1
2 1 3 12.3 3
-2 -1 -3 13.7 3
2 -1 3 12.3 3.6
2 -1 3 13.5 3.7
2 1 4 646.94 27.2
2 1 4 634.44 27.2
-2 1 -4 641.14 28
2 -1 4 643.14 28.1
2 -1 4 678.23 28.3
-2 -1 -4 673.53 27.3
2 1 5 8.9 4.5
-2 1 -5 6 5.4
2 1 5 11.1 4.7
2 -1 5 8.9 5.2
2 -1 5 5.5 5.1
2 1 6 410.16 21.4
2 1 6 466.75 22.1
-2 -1 -6 433.76 21.9
2 1 7 -5.6 6.4
2 1 7 10.6 6.3
-2 1 -7 7.2 7.9
-2 -1 -7 9.7 7.2
2 -1 7 6.2 8
-2 1 -8 40.9 11.7
-2 1 -8 38.1 10.9
2 1 8 30.9 10.2
-2 -1 -8 60.59 11.4
2 -1 8 54.79 11.9
-2 -1 -8 51.79 10.3
2 -1 8 73.69 11.7
2 2 -9 80.29 13.6
-2 2 9 50.89 11.4
2 2 -9 67.89 14.7
2 -2 -9 45.2 11.9
-2 -2 9 40.4 12.7
-2 -2 9 64.69 15.4
2 -2 -9 80.29 11.7
2 2 -8 132.69 16.8
-2 2 8 116.39 14.7
-2 2 8 142.49 15.4
2 2 -8 135.09 15.5
-2 -2 8 139.79 17.5
-2 -2 8 116.79 13.5
2 -2 -8 109.79 12
2 -2 -8 139.09 14
-2 2 7 12.9 6.3
2 2 -7 7.5 7.7
2 2 -7 5.9 7.2
-2 -2 7 1.6 7
2 -2 -7 12.3 6.8
2 -2 -7 5.4 6.3
-2 -2 7 0.5 7
2 2 -6 377.36 20.2
-2 2 6 356.86 18.6
2 2 -6 380.56 20.7
-2 2 6 392.16 18.9
-2 -2 6 361.56 20.1
-2 -2 6 400.16 20.8
2 -2 -6 380.86 18.8
2 -2 -6 375.36 19
2 2 -5 289.17 15.9
-2 2 5 282.27 14.3
-2 2 5 283.77 14.6
-2 -2 5 299.87 15.6
2 -2 -5 278.77 14.6
2 -2 -5 328.37 14.4
-2 -2 5 276.47 15.7
-2 2 4 178.38 9.6
2 2 -4 179.08 11.1
2 2 -4 188.18 10.9
-2 2 4 190.48 9.9
2 -2 -4 163.38 9.6
-2 -2 4 186.38 10.9
2 -2 -4 176.68 9.6
-2 -2 4 179.78 10.8
2 2 -3 293.37 13.9
-2 2 3 292.47 12.9
-2 2 3 292.07 13.1
2 2 -3 298.77 14
2 -2 -3 304.47 13.1
-2 -2 3 276.87 13.8
2 -2 -3 303.27 13.1
-2 -2 3 288.67 13.9
2 2 -2 267.07 12
-2 2 2 270.37 11.4
-2 2 2 272.07 11.8
2 2 -2 267.87 12.2
2 -2 -2 260.57 11.5
-2 -2 2 268.97 12.1
2 -2 -2 264.77 11.6
-2 -2 2 259.67 12
-2 2 1 218.88 10.7
2 2 -1 243.98 10.3
2 2 -1 248.48 10.3
-2 2 1 242.58 10.7
2 -2 -1 239.88 10.8
-2 -2 1 234.08 10.3
-2 -2 1 245.58 10.3
2 -2 -1 225.08 10.7
-2 2 0 654.63 27.2
2 2 0 674.73 25.9
-2 2 0 700.93 27.1
-2 -2 0 667.53 25.9
2 -2 0 667.23 27.2
-2 -2 0 676.63 25.9
2 -2 0 706.33 27.2
2 2 1 10.9 1.5
-2 2 -1 8 2.8
2 2 1 8.2 1.3
-2 2 -1 8.8 3
-2 -2 -1 8.3 1.4
-2 -2 -1 10.4 1.6
2 -2 1 7 2.8
-2 2 -2 613.94 25.6
2 2 2 602.84 24
-2 2 -2 641.54 25.6
2 -2 2 607.64 25.5
-2 -2 -2 594.34 24
-2 -2 -2 626.84 23.9
2 -2 2 615.44 25.5
-2 2 -3 289.97 14.2
2 2 3 277.37 12.2
-2 2 -3 276.57 14.3
2 2 3 275.97 12.4
2 -2 3 291.67 14.3
-2 -2 -3 276.17 12.5
-2 -2 -3 284.37 12.3
2 -2 3 259.37 14.1
2 2 4 389.26 17.6
-2 2 -4 411.66 19.5
2 2 4 393.56 17.5
2 -2 4 390.36 19.3
2 -2 4 386.66 19.4
-2 -2 -4 419.66 17.7
-2 2 -5 76.99 8.6
2 2 5 78.59 7.8
2 2 5 73.79 8
-2 -2 -5 62.49 6.6
2 -2 5 72.19 8.4
2 -2 5 66.29 8.4
-2 2 -6 14.5 9
2 2 6 8.9 6.6
2 2 6 11.7 5.6
-2 -2 -6 26.1 6
2 -2 6 16.5 7.2
2 -2 6 10.3 7
2 2 7 24.5 7.4
-2 2 -7 26.4 9.3
2 2 7 2.6 7
-2 2 -7 23.4 9.5
-2 -2 -7 28.6 8
2 -2 7 21.1 9.2
-2 -2 -7 21.2 7
-2 2 -8 94.19 14.1
2 2 8 95.99 11.2
-2 2 -8 96.79 14.6
2 2 8 134.69 16.2
2 -2 8 104.99 14.2
2 -2 8 92.29 14.2
-2 -2 -8 96.29 11.6
-2 -2 -8 104.19 12.9
-2 3 8 32.4 8.4
-2 3 8 10.9 7.6
2 3 -8 21.5 9.8
2 3 -8 15.6 10.7
2 -3 -8 26.6 8.2
2 -3 -8 15.3 8.2
-2 -3 8 21.3 10.1
-2 -3 8 22 10.5
-2 3 7 133.49 12.4
2 3 -7 139.69 15.2
2 3 -7 156.48 15.7
-2 -3 7 147.09 15.1
2 -3 -7 137.09 12.3
2 -3 -7 135.39 12.3
-2 -3 7 124.69 15.3
2 3 -6 53.79 8.2
2 3 -6 38.4 8.3
-2 3 6 40.9 6.1
-2 3 6 53.69 6.2
2 -3 -6 42.4 6.3
2 -3 -6 47.6 6.1
-2 -3 6 48.6 8.1
2 3 -5 78.79 10.2
-2 3 5 92.89 8
-2 3 5 88.59 7.7
2 -3 -5 84.59 7.8
-2 -3 5 100.09 10.4
-2 -3 5 79.39 10
2 3 -4 309.27 15.7
2 3 -4 306.17 15.8
-2 3 4 304.97 13.8
-2 3 4 312.87 14.2
-2 -3 4 282.17 15.5
-2 -3 4 309.07 15.7
2 -3 -4 307.17 13.9
2 -3 -4 300.57 14
2 3 -3 4.9 3.5
2 3 -3 7.6 3.7
-2 3 3 4 2.6
-2 3 3 3 2.2
-2 -3 3 6.7 3.5
2 -3 -3 5.4 2.5
-2 -3 3 1.8 3.4
2 -3 -3 5.3 2.4
-2 3 2 261.77 11.4
2 3 -2 268.17 12.4
-2 3 2 261.57 11.9
2 3 -2 265.87 12.5
-2 -3 2 265.07 12.4
2 -3 -2 264.57 11.6
-2 -3 2 266.87 12.5
2 -3 -2 254.17 11.9
-2 3 1 177.68 9.1
2 3 -1 178.68 8.5
-2 3 1 178.08 8.9
2 3 -1 185.28 8.5
-2 -3 1 177.58 8.5
2 -3 -1 180.98 9.1
-2 -3 1 177.08 8.5
2 -3 -1 163.18 9.3
-2 3 0 383.06 16.2
2 3 0 389.66 14.9
-2 3 0 364.66 16.6
-2 -3 0 335.47 15.2
-2 -3 0 380.96 14.9
2 -3 0 386.26 16.8
2 -3 0 391.26 16.4
-2 3 -1 51.59 5.2
-2 3 -1 46.2 5.6
-2 -3 -1 43 2.1
-2 -3 -1 38 2.4
2 -3 1 46.1 5.6
-2 3 -2 2.5 3.6
2 3 2 1.2 0.7
-2 3 -2 1.8 3.3
2 3 2 0.7 0.7
-2 -3 -2 0.9 1
2 -3 2 5.2 3.8
-2 -3 -2 0.6 1.2
2 -3 2 3.7 3.5
2 3 3 486.25 19.1
-2 3 -3 482.35 22.3
-2 3 -3 490.75 22.1
2 3 3 479.05 19.4
2 -3 3 470.05 22
2 -3 3 496.05 22.2
-2 -3 -3 485.25 19.3
-2 -3 -3 489.65 19.6
-2 3 -4 239.28 15.4
2 3 4 273.47 12.4
-2 3 -4 251.67 15.2
-2 -3 -4 271.67 12.6
-2 -3 -4 262.17 12.1
2 -3 4 269.97 15.5
2 3 5 120.59 9
-2 3 -5 115.89 12
2 3 5 117.79 8.5
-2 3 -5 123.49 12.8
2 -3 5 130.69 12.3
2 -3 5 116.49 12.3
-2 -3 -5 111.89 9
-2 3 -6 199.08 16.8
2 3 6 203.98 13
-2 3 -6 233.88 17.9
2 -3 6 213.78 17
-2 -3 -6 207.88 13.5
-2 -3 -6 225.48 13.4
2 -3 6 218.28 25.7
-2 3 -7 57.19 10.9
-2 3 -7 66.49 12.2
2 3 7 51.99 7.8
-2 -3 -7 62.79 8.6
2 -3 7 71.49 11.7
2 -3 7 54.89 11.4
-2 -3 -7 50.69 8.5
-2 3 -8 6.4 11.3
2 3 8 29.1 8.9
2 3 8 30.9 9.1
-2 3 -8 42.2 13.7
2 -3 8 37.9 13.3
2 -3 8 58.39 13.5
-2 -3 -8 17.9 8.7
-2 -3 -8 38.7 9.8
2 4 -8 7.8 12.2
-2 4 8 5.8 7.7
2 4 -8 -5.5 10.2
-2 4 8 10 7.6
2 -4 -8 14.8 7.8
-2 -4 8 20.4 10.3
2 -4 -8 19.7 8
-2 -4 8 4.3 11.4
2 4 -7 -3.7 7.9
-2 4 7 4.7 6.1
2 4 -7 19.6 9.6
-2 -4 7 16.8 8.8
2 -4 -7 15.8 6.1
-2 -4 7 -5.8 8.2
2 -4 -7 2.5 6
-2 4 6 150.48 10.3
2 4 -6 140.79 13.6
-2 4 6 137.19 10.9
2 4 -6 174.48 14.9
2 -4 -6 135.19 10.5
2 -4 -6 149.79 10.8
-2 -4 6 142.99 13.9
-2 -4 6 126.69 14
-2 4 5 213.88 11.4
-2 4 5 226.28 12.2
2 4 -5 215.38 15.1
2 -4 -5 205.98 11.7
-2 -4 5 221.68 14.6
-2 -4 5 231.58 14.9
-2 4 4 42.9 5.1
2 4 -4 48.8 6.4
2 4 -4 46.5 6.7
-2 -4 4 47.7 6.6
2 -4 -4 46.2 5.5
2 -4 -4 58.89 6
-2 -4 4 56.59 6.9
2 4 -3 711.83 29.3
2 4 -3 687.63 29
-2 4 3 676.23 27
2 -4 -3 669.03 27.8
2 -4 -3 681.33 27.3
-2 -4 3 690.13 29.2
-2 -4 3 703.93 29.1
-2 4 2 116.89 6.3
2 4 -2 116.09 7.6
2 4 -2 110.79 7.8
-2 -4 2 113.59 7.4
2 -4 -2 114.89 7.2
-2 -4 2 101.79 7.5
2 -4 -2 111.59 6.6
-2 4 1 532.15 22.6
2 4 -1 553.34 21.9
2 4 -1 518.25 21.9
-2 4 1 560.44 22.1
2 -4 -1 559.34 22.3
2 -4 -1 500.15 22.8
-2 -4 1 561.64 21.9
-2 -4 1 517.75 21.9
-2 4 0 150.98 9.6
2 4 0 139.49 7
-2 4 0 157.08 8.7
2 4 0 158.38 7.1
2 -4 0 153.38 9.7
-2 -4 0 145.89 7
-2 4 -1 3.9 3.4
-2 4 -1 1.9 3.6
2 -4 1 -0.7 3.6
2 -4 1 3.7 3.2
-2 4 -2 134.19 9.8
-2 4 -2 138.09 9.8
2 -4 2 135.29 9.9
2 -4 2 137.89 9.5
-2 4 -3 313.27 17
-2 4 -3 322.27 16.6
-2 -4 -3 307.47 11.8
2 -4 3 309.97 16.7
-2 -4 -3 302.77 11.8
-2 4 -4 160.68 13.3
2 4 4 145.79 7
2 4 4 133.29 7.2
-2 -4 -4 148.19 7.3
-2 -4 -4 148.09 7.8
2 -4 4 142.69 12.3
2 -4 4 158.38 12.7
2 4 5 202.58 10.8
2 4 5 206.78 11.2
-2 4 -5 214.98 16.7
-2 4 -5 198.68 15.8
-2 -4 -5 257.07 10.8
2 -4 5 212.68 16.4
2 -4 5 214.28 24
-2 4 -6 6 8.1
-2 4 -6 11.8 9.3
2 4 6 -2.3 4.5
-2 -4 -6 2.5 4.5
2 -4 6 14.9 8.6
-2 -4 -6 -2.2 4.8
2 -4 6 -7.7 8.5
-2 4 -7 74.09 13.3
-2 4 -7 66.79 12.5
2 4 7 71.39 8.1
-2 -4 -7 70.29 8.6
2 -4 7 87.49 13.2
2 -4 7 53.39 12.4
-2 -4 -7 62.39 8
2 5 -7 268.67 21.9
2 5 -7 269.27 21.5
2 -5 -7 274.87 15.9
2 -5 -7 263.57 16.3
-2 -5 7 311.37 21
-2 -5 7 261.77 21.8
2 5 -6 5.2 7.7
2 5 -6 15.6 8.6
-2 5 6 -3.4 3.9
2 -5 -6 10.3 4.9
2 -5 -6 10.1 4.8
-2 -5 6 1.3 7.3
-2 -5 6 1.1 8.1
2 5 -5 312.47 16.8
-2 5 5 261.27 14.2
-2 5 5 269.57 12.9
-2 -5 5 274.57 17.6
-2 -5 5 268.47 17.6
2 5 -4 15.1 7.2
-2 5 4 4.4 2.5
-2 5 4 6.5 3.6
2 5 -4 9.8 5.3
2 -5 -4 8.3 3.1
2 -5 -4 6.9 3.6
-2 -5 4 6.2 5.4
-2 -5 4 6.1 5.6
-2 5 3 -1.3 2
2 5 -3 2.4 4.6
2 5 -3 2.4 4.2
-2 5 3 -0.6 2.7
-2 -5 3 -1.9 4.2
2 -5 -3 0.5 2.4
-2 -5 3 0.1 4.1
2 -5 -3 3.4 3
-2 5 2 130.29 6.9
2 5 -2 120.59 9
-2 5 2 112.49 8.6
2 5 -2 122.99 8.3
2 -5 -2 114.39 7.6
-2 -5 2 129.89 8.9
2 5 -1 533.65 21.8
2 5 -1 528.95 22.1
-2 5 1 556.54 21.9
-2 5 1 518.65 22.7
-2 -5 1 544.25 22
-2 -5 1 528.55 22.2
2 -5 -1 493.85 23.1
-2 5 0 3.2 3.2
-2 5 0 4.8 4.3
2 5 0 2.8 1.9
2 5 0 3.3 2.3
2 -5 0 5.5 4.2
-2 -5 0 3 2.4
2 -5 0 -2.8 2.9
-2 -5 0 4.8 2
-2 5 -1 411.56 20.2
-2 5 -1 449.76 19.6
2 -5 1 431.36 19.6
2 -5 1 430.26 20.5
-2 5 -2 1.4 4.8
-2 5 -2 -2.6 4.1
2 -5 2 1.5 4.9
-2 5 -3 276.67 16.2
-2 5 -3 279.77 17.2
2 -5 3 307.97 17.3
2 -5 3 284.87 16.4
2 -5 4 20.4 7.3
-2 5 -5 5 7.6
-2 5 -5 15.5 8.5
-2 -5 -5 10.7 2.6
2 -5 5 15.8 8.8
2 -5 5 5.2 7.6
-2 -5 -5 13.1 2.8
2 5 6 25.6 3.9
-2 5 -6 21.3 10.3
2 5 6 20.9 3.4
-2 5 -6 11.9 10.2
2 -5 6 18.8 10.3
-2 -5 -6 24.3 4.2
2 -5 6 13.5 9
-2 -5 -6 26.4 4.9
-2 5 -7 53.29 14.5
-2 5 -7 17.2 12.4
2 5 7 41.7 6
2 -5 7 47.5 12.7
-2 -5 -7 46.7 6.6
2 -5 7 58.19 13.5
-2 -5 -7 44.3 7.1
-2 6 7 0.2 6
-2 6 7 4.4 5.5
2 6 -7 11.5 11.1
-2 -6 7 4.1 10.2
2 -6 -7 -0.4 6.5
2 -6 -7 -10.6 5.2
-2 -6 7 -0.7 11.7
-2 6 6 59.89 5.9
2 6 -6 67.29 12.3
2 6 -6 71.09 11.8
-2 6 6 73.69 7.8
2 -6 -6 71.99 7.5
-2 -6 6 79.19 11.2
-2 -6 6 51.79 11.4
2 -6 -6 48.7 6.5
-2 6 5 280.17 11.9
-2 6 5 293.27 12.4
2 6 -5 302.47 17.7
-2 -6 5 278.57 19.6
2 -6 -5 279.27 13
-2 -6 5 291.27 18.5
-2 6 4 2.3 1.7
2 6 -4 -0.7 5.6
-2 6 4 0.2 2
2 -6 -4 3 3.2
2 -6 -4 1.8 2.4
-2 -6 4 1.4 6.1
-2 -6 4 -6.1 6.1
-2 6 3 301.57 12.3
-2 6 3 306.57 12.5
2 6 -3 273.47 17.1
2 6 -3 296.47 15.7
-2 -6 3 298.57 16.8
2 -6 -3 303.27 12.9
-2 -6 3 284.67 16.5
2 -6 -3 311.57 13.4
-2 6 2 126.59 6.9
-2 6 2 124.19 7
2 6 -2 113.79 8.9
-2 -6 2 107.09 9.6
2 -6 -2 116.19 7.7
-2 -6 2 107.29 9.1
-2 6 1 282.77 14.2
2 6 -1 267.87 12.9
-2 -6 1 268.07 13.7
2 -6 -1 275.17 13.1
2 -6 -1 261.77 14.9
2 6 0 23.1 2.9
-2 6 0 26.1 6
2 6 0 28.6 3.7
-2 6 0 28.4 4.6
2 -6 0 32.4 6.2
-2 -6 0 30.5 3.3
-2 -6 0 32.6 3.9
-2 6 -1 43.4 7.3
-2 6 -1 53.19 6.3
2 -6 1 60.89 7.8
2 -6 1 54.19 6.7
-2 6 -2 3.4 5.1
2 -6 2 12.2 6.3
2 -6 2 2.3 5.2
-2 6 -3 192.18 15.1
-2 6 -3 159.38 13.1
2 -6 3 170.58 15.1
2 -6 3 160.18 13.4
2 -6 4 4.5 7.9
2 -6 4 12.3 7.4
-2 6 -5 223.78 19.1
-2 6 -5 193.48 21.3
2 -6 5 182.88 17.2
2 -6 5 201.98 19.4
-2 6 -6 -10.2 10.7
-2 6 -6 -13.6 11.7
2 -6 6 -4.3 11
2 -6 6 -2.5 9.4
2 7 -6 11.6 10.5
-2 -7 6 9.2 9.8
-2 -7 6 -13.7 11
2 7 -5 91.89 11.1
-2 -7 5 98.99 12.5
-2 -7 5 96.09 11.5
2 7 -4 7.9 6.2
-2 -7 4 -0.8 6.7
-2 -7 4 -8.8 7.1
2 7 -3 4.5 5.8
-2 -7 3 11.1 6.9
2 -7 -3 10.5 2.3
-2 -7 3 14 6
2 -7 -3 9.9 2.5
-2 7 2 2.3 2.5
-2 7 2 0.3 2.4
2 7 -2 5.3 4.4
2 7 -2 3.4 5.7
-2 -7 2 -0.4 5.4
-2 -7 2 -2.3 4.5
2 -7 -2 -3.2 3
2 7 -1 148.69 10.4
2 7 -1 145.49 10.8
-2 7 1 169.88 10.6
2 -7 -1 138.29 11.7
-2 -7 1 147.59 11
-2 -7 1 151.68 9.7
-2 7 0 35.1 5.4
-2 7 0 30.7 7
2 7 0 39.4 4.4
2 7 0 34.7 4.2
2 -7 0 42.6 5.9
-2 -7 0 28.8 4.7
2 -7 0 36.4 7.4
-2 -7 0 52.49 5
-2 7 -1 527.45 23.6
-2 7 -1 506.55 25.7
2 -7 1 505.95 25.6
2 -7 1 520.15 24.3
-2 7 -2 5.6 5.8
2 -7 2 -8 6.8
2 -7 2 -0.6 8.2
-2 7 -3 186.68 14.8
-2 7 -3 196.68 17
2 -7 3 220.98 16.1
2 -7 3 202.78 17.8
-2 7 -4 21.9 8.9
-2 7 -4 14.2 9.8
2 -7 4 5.5 8.1
2 -7 4 14.3 9.8
-2 7 -5 -12.6 11.2
-2 7 -5 19.8 10.6
2 -7 5 -7 9.3
2 -7 5 22.4 12.3
2 8 -4 15 10.9
2 8 -4 29 8.5
-2 -8 4 24.7 10
-2 -8 4 7.8 7.6
2 8 -3 108.29 12.1
2 8 -3 131.69 15.4
-2 -8 3 103.99 12.5
-2 -8 3 127.29 14.8
2 8 -2 -4.1 5.3
2 -8 -2 1.9 3.2
-2 -8 2 1.8 5.2
-2 -8 2 -11 6.4
-2 8 1 143.29 10.1
-2 8 1 142.09 9.2
2 -8 -1 132.59 16.6
2 -8 -1 158.28 10
-2 -8 1 129.79 12.3
-2 -8 1 145.29 10.3
-2 8 0 32.2 7.6
2 8 0 30.9 3.2
-2 8 0 20.7 5.3
2 8 0 30.4 3.5
-2 -8 0 23.9 4.7
2 -8 0 27.3 5.8
2 -8 0 20.3 8.1
-2 8 -1 9.9 5.9
2 -8 1 12.6 8.2
2 -8 1 22.9 6.6
-2 8 -2 30.9 9.8
-2 8 -2 21.6 7.4
2 -8 2 11 9.2
2 -8 2 19.9 7.5
-2 8 -3 54.19 9.6
-2 8 -3 41 11.1
2 -8 3 31.9 8.7
2 -8 3 32.9 10.8
-2 8 -4 36.3 13.2
-2 8 -4 50.19 11.5
2 -8 4 38.7 16.2
2 -8 4 16.6 9.9
2 9 -2 2.6 8.2
2 9 -2 10.8 6.4
2 -9 -2 8.5 1.8
-2 -9 2 -7.2 7.9
-2 -9 2 13.6 6.7
-2 9 1 82.19 7.5
2 9 -1 61.19 8.2
2 9 -1 109.89 9.1
-2 -9 1 57.79 10.8
-2 -9 1 100.09 9.7
2 -9 -1 92.69 10.8
2 -9 -1 90.09 9.3
2 -9 0 32 9.4
2 -9 0 49.5 7
-2 -9 0 47.2 5.8
-2 -9 0 32.4 3.4
-2 9 -1 66.79 11.6
-2 9 -1 83.79 9.4
2 -9 1 73.39 11.9
2 -9 1 95.09 9.6
-2 9 -2 6 10.7
-2 9 -2 -6 8.2
2 -9 2 4.7 7.9
2 -9 2 -15.1 10.6
-3 0 9 1.8 11.2
3 0 -9 -2 9.7
-3 0 9 -10.7 9.6
3 0 -9 -5.9 11
-3 0 8 221.08 18.2
3 0 -8 176.78 16.4
-3 0 8 146.09 15.2
3 0 -7 -11.6 5.9
3 0 -7 -1.4 6.5
3 0 -6 507.45 24.1
3 0 -6 515.85 24.5
-3 0 6 494.05 23.9
-3 0 6 522.25 24.4
3 0 -5 1.4 4.3
-3 0 5 3 4.2
-3 0 5 5.3 4.2
3 0 -4 197.88 11
-3 0 4 195.98 10.8
3 0 -4 188.78 10.7
-3 0 4 197.18 10.9
3 0 -3 0.1 2.4
-3 0 3 -0.7 2.7
-3 0 3 1.8 2.6
3 0 -3 1.2 2.9
-3 0 2 3 2.3
-3 0 2 1.2 2.3
3 0 -2 1.9 2.3
3 0 -2 1 2.3
3 0 -1 2.4 2.2
-3 0 1 0 1.9
3 0 -1 1.2 1.9
-3 0 1 3.8 2.1
3 0 0 1683.03 63.29
-3 0 0 1659.23 63.29
-3 0 0 1617.14 63.19
3 0 0 1670.73 63.29
-3 0 -1 1.3 2.5
3 0 1 -2.5 2.4
-3 0 -1 1.7 2.6
3 0 1 -0.1 2.3
-3 0 -2 316.17 14.2
3 0 2 303.07 14.1
-3 0 -2 304.27 14.2
-3 0 -3 0.5 3.3
-3 0 -3 -0.5 3.2
3 0 3 -0.3 3.3
3 0 3 -2.7 3
3 0 4 58.99 6.6
-3 0 -4 63.49 7.7
3 0 4 42.2 6
-3 0 -4 51.89 6.4
3 0 5 4 5.2
-3 0 -5 4.4 5.4
3 0 5 3.8 5.2
-3 0 -5 -2 4.9
3 0 6 270.57 16.7
-3 0 -6 290.37 17.7
-3 0 -6 235.68 16.9
-3 0 -7 -8.7 7.4
3 0 7 8.3 7.4
-3 0 -7 9.5 8.4
-3 0 -8 15.5 11.4
3 0 8 30.5 11.2
3 0 8 19 10.5
-3 0 -8 -3.2 10.1
3 1 -9 14.2 10.6
3 1 -9 7.7 12.2
-3 1 9 8.9 11.7
-3 1 9 -2.1 9.6
-3 -1 9 -0.5 11.3
3 -1 -9 -10.5 9.6
-3 -1 9 10.6 10.9
3 -1 -9 -1.5 10.5
3 1 -8 92.49 11.7
-3 1 8 79.39 10.6
3 1 -8 68.89 11.9
3 -1 -8 90.69 10.8
-3 -1 8 92.49 11.7
3 -1 -8 71.89 11.2
-3 -1 8 80.89 11.9
3 1 -7 31.2 8.1
3 1 -7 43.5 8.9
-3 1 7 39.7 8.1
3 -1 -7 50.39 8.1
-3 -1 7 40.1 8.3
3 -1 -7 32.5 7.3
-3 -1 7 37.7 8.2
3 1 -6 -4.5 5.1
-3 1 6 3.1 5.1
3 1 -6 11.8 6.2
-3 1 6 5.9 5
3 -1 -6 4.6 5.4
-3 -1 6 4.2 5.3
3 -1 -6 -1.6 4.7
-3 1 5 83.79 8
-3 1 5 84.19 8.4
3 1 -5 94.29 9.2
-3 -1 5 84.39 9.1
3 -1 -5 97.69 8.8
-3 -1 5 89.89 8.7
3 -1 -5 71.29 7.2
-3 1 4 375.26 17.3
-3 1 4 385.06 17.2
3 1 -4 385.46 17.6
3 1 -4 379.36 17.7
3 -1 -4 379.26 17.2
-3 -1 4 367.96 17.5
-3 -1 4 379.96 17.7
3 -1 -4 374.66 17
3 1 -3 4.2 3.2
3 1 -3 2.8 2.8
-3 1 3 3.7 2.7
-3 1 3 2.4 2.7
-3 -1 3 4 3.1
3 -1 -3 2.6 2.8
3 -1 -3 3.2 2.6
-3 -1 3 2.9 2.8
3 1 -2 1677.23 64.79
3 1 -2 1712.53 64.79
-3 1 2 1726.33 64.79
-3 1 2 1707.63 64.69
3 -1 -2 1680.73 64.69
-3 -1 2 1687.43 64.79
3 -1 -2 1718.83 64.79
-3 -1 2 1667.93 64.69
-3 1 1 41.4 4.3
-3 1 1 46.3 4.5
3 1 -1 43.8 3.9
3 1 -1 51.19 4.1
3 -1 -1 47.5 4.4
3 -1 -1 46.4 4.6
-3 -1 1 43.2 3.8
-3 -1 1 39 3.8
3 1 0 922.61 34.8
3 1 0 905.21 34.7
-3 1 0 846.72 35.4
-3 1 0 856.81 35.4
3 -1 0 879.21 35.5
-3 -1 0 953.4 34.7
-3 -1 0 925.51 34.8
3 -1 0 870.01 35.5
3 1 1 75.39 5.7
3 1 1 85.39 5.6
-3 1 -1 79.19 6.2
-3 1 -1 91.39 6.4
-3 -1 -1 74.39 5.7
-3 -1 -1 71.89 5.4
3 -1 1 92.79 6.6
3 -1 1 76.69 6.1
-3 1 -2 72.19 6.5
3 1 2 58.29 5.3
-3 1 -2 68.89 6.4
3 -1 2 67.89 6.3
-3 -1 -2 71.69 5.6
-3 -1 -2 62.89 5.6
-3 1 -3 72.39 7.7
-3 1 -3 81.19 7.4
3 1 3 72.19 6.3
3 1 3 76.09 6.5
3 -1 3 70.49 7.3
-3 -1 -3 73.89 6.5
-3 -1 -3 67.19 6.6
3 -1 3 82.89 7.5
3 1 4 344.97 16.9
3 1 4 348.67 16.6
-3 1 -4 358.06 17.9
-3 1 -4 356.26 17.7
3 -1 4 363.06 17.9
-3 -1 -4 336.17 16.7
-3 -1 -4 341.97 17
3 -1 4 364.06 18.1
-3 1 -5 -8.1 5
3 1 5 -2.9 4.4
3 1 5 0.6 4.7
-3 1 -5 3.8 5.6
3 -1 5 7.7 5.9
-3 -1 -5 0.5 4.9
-3 -1 -5 7.3 5.1
3 -1 5 -5.3 5.1
3 1 6 411.36 20.7
3 1 6 396.16 21.2
-3 1 -6 401.76 22.7
-3 1 -6 384.36 22.4
-3 -1 -6 415.06 21.5
3 1 7 5 7.5
-3 1 -7 12.7 8.8
3 1 7 20.2 7.7
-3 -1 -7 12.4 8
-3 -1 -7 22.2 8.5
3 -1 7 16.2 9.2
-3 1 -8 124.49 15.2
-3 1 -8 90.39 13.7
3 1 8 80.09 12.5
3 -1 8 67.49 13.1
3 -1 8 116.79 15.2
-3 -1 -8 109.89 13.9
-3 -1 -8 86.79 12.3
3 2 -9 13.5 11.4
-3 2 9 17.6 10.4
3 2 -9 15.3 12.6
3 -2 -9 24.2 11.1
3 -2 -9 18.9 10.1
-3 -2 9 13.5 12.6
-3 -2 9 21.1 11.8
3 2 -8 91.39 11.9
3 2 -8 78.29 12.5
-3 2 8 106.59 12.2
-3 2 8 76.39 10.4
3 -2 -8 76.49 10.8
-3 -2 8 68.79 11.5
3 -2 -8 77.09 10.3
-3 -2 8 89.79 12.1
3 2 -7 100.09 12.6
-3 2 7 98.19 12.4
3 2 -7 72.09 10.7
-3 -2 7 91.89 15.4
3 -2 -7 98.69 11.6
-3 -2 7 102.29 13
3 -2 -7 107.49 11.9
3 2 -6 418.76 21.9
-3 2 6 405.86 20.5
-3 2 6 426.66 20.3
3 2 -6 435.56 21.7
-3 -2 6 380.36 21.3
-3 -2 6 417.76 22.1
3 -2 -6 427.86 20.6
3 -2 -6 414.86 20.5
3 2 -5 -1.6 4.6
-3 2 5 0.6 3.9
-3 2 5 -7.6 3.4
3 -2 -5 1.7 4
-3 -2 5 0.5 4.8
-3 2 4 360.16 16.3
-3 2 4 368.76 16.5
3 2 -4 350.66 17.4
3 2 -4 370.16 17.3
-3 -2 4 378.96 17.5
-3 -2 4 355.46 17.2
3 -2 -4 366.16 16.5
3 -2 -4 344.17 16.4
3 2 -3 927.91 37.5
-3 2 3 966.8 37.2
3 2 -3 950.2 37.5
-3 2 3 911.01 36.8
3 -2 -3 942.61 37
-3 -2 3 927.41 37.5
-3 -2 3 937.81 37.5
3 -2 -3 931.61 37
3 2 -2 1.4 2.6
-3 2 2 1.3 2.5
3 2 -2 1.6 2.5
-3 2 2 2.7 2.4
-3 -2 2 2.5 2.5
3 -2 -2 3 2.5
-3 -2 2 1.8 2.4
3 -2 -2 2.3 2.4
3 2 -1 417.36 16.5
-3 2 1 406.56 17.4
-3 2 1 389.66 17.4
3 2 -1 403.26 16.6
3 -2 -1 388.36 17.4
3 -2 -1 385.66 17.3
-3 -2 1 401.76 16.5
-3 -2 1 412.96 16.6
-3 2 0 1032.1 42.5
-3 2 0 1058.29 42.4
3 2 0 1104.69 41.2
3 2 0 1085.39 41.1
-3 -2 0 1088.59 41.1
3 -2 0 1127.69 42.7
3 -2 0 1015.6 42.5
-3 -2 0 1093.29 41.2
-3 2 -1 36.1 4.5
3 2 1 32.8 3.5
-3 2 -1 35.5 4.5
-3 -2 -1 34.1 3.7
-3 -2 -1 29.4 3.8
3 -2 1 31.5 4.4
3 -2 1 30.6 4.5
3 2 2 703.03 29
-3 2 -2 753.82 30.7
-3 2 -2 753.92 30.7
-3 -2 -2 691.03 29.1
3 -2 2 739.53 30.6
-3 -2 -2 769.72 29
3 -2 2 741.43 30.5
3 2 3 12.3 3
3 2 3 10.8 3.1
-3 2 -3 16.2 4.8
-3 2 -3 16.8 4.6
-3 -2 -3 13.2 3.1
3 -2 3 12.5 4.7
3 -2 3 18.5 4.7
-3 -2 -3 15.1 3.5
-3 2 -4 205.18 11.4
3 2 4 161.08 9.7
3 2 4 159.38 10
-3 2 -4 163.18 12.2
3 -2 4 159.68 12.2
-3 -2 -4 154.08 9.8
-3 -2 -4 166.48 10.2
3 -2 4 177.28 12.2
-3 2 -5 162.68 13.4
3 2 5 163.78 11.3
-3 2 -5 163.58 13.7
3 2 5 172.98 11.1
-3 -2 -5 167.08 11.3
-3 -2 -5 177.68 11.6
3 -2 5 152.98 13.2
-3 2 -6 12.5 8.5
3 2 6 21 6
3 2 6 14.6 6.2
-3 2 -6 9.8 8
3 -2 6 10.5 7.7
3 -2 6 12.3 7.8
-3 -2 -6 11.6 6.5
3 2 7 47 8.4
3 2 7 24.4 7.9
-3 2 -7 35 10.1
-3 2 -7 43.9 10.8
3 -2 7 42.9 11
-3 -2 -7 28.2 8.3
-3 -2 -7 25.2 8
3 -2 7 39.3 10.4
3 2 8 42.4 10.4
-3 2 -8 -5.5 11.3
3 2 8 30.2 9.5
-3 2 -8 20.5 12.9
-3 -2 -8 34.5 10.1
3 -2 8 43 13.1
-3 -2 -8 32.8 10.5
3 -2 8 53.59 13.3
3 3 -8 46.9 12.2
-3 3 8 50.19 8.8
3 3 -8 35.9 10.3
-3 3 8 33.3 8.8
3 -3 -8 45.2 9.1
-3 -3 8 53.89 11.3
-3 -3 8 60.19 11.8
3 -3 -8 37.9 9.5
-3 3 7 229.98 15.4
3 3 -7 257.27 19
3 3 -7 214.08 17.2
3 -3 -7 211.38 14.7
-3 -3 7 232.58 17.4
3 -3 -7 229.48 15.2
-3 -3 7 218.18 17.9
-3 3 6 -2.4 4.8
3 3 -6 -7.8 6.1
3 3 -6 1.9 6.4
-3 -3 6 2.9 6.4
3 -3 -6 6.3 4.8
3 -3 -6 2.3 4.9
-3 3 5 219.48 12.2
3 3 -5 245.88 14.8
-3 3 5 243.88 12.7
3 3 -5 189.28 13.4
3 -3 -5 246.88 12.7
3 -3 -5 191.08 12
-3 -3 5 234.88 14.2
-3 -3 5 238.28 14.7
3 3 -4 364.86 17.6
-3 3 4 352.06 16.6
-3 3 4 345.67 16.1
3 3 -4 346.47 17.7
-3 -3 4 414.96 17.5
3 -3 -4 347.07 16.3
3 -3 -4 351.76 16.5
-3 -3 4 363.36 17.9
-3 3 3 4.4 3.2
-3 3 3 3 2.6
3 3 -3 3.1 3.4
3 3 -3 3.3 3.6
-3 -3 3 2.2 3.3
3 -3 -3 4.4 2.8
3 -3 -3 2.2 2.7
-3 -3 3 -0.7 3.4
3 3 -2 684.73 27.3
3 3 -2 666.13 27.4
-3 3 2 633.94 27.5
-3 3 2 685.53 27.1
3 -3 -2 662.73 27.5
-3 -3 2 679.03 27.4
3 -3 -2 670.63 27.3
-3 -3 2 695.53 27.4
-3 3 1 106.89 7.6
-3 3 1 93.29 7.4
3 3 -1 119.59 6.4
3 3 -1 108.89 6.3
3 -3 -1 106.19 8.1
-3 -3 1 115.89 6.4
3 -3 -1 88.49 7.3
-3 -3 1 111.99 6.3
-3 3 0 88.79 7.2
3 3 0 86.79 4.9
-3 3 0 83.39 7.7
3 -3 0 84.69 7.8
-3 -3 0 91.09 5.1
-3 -3 0 88.29 4.9
3 -3 0 92.49 7.2
3 3 1 454.55 17.5
3 3 1 442.46 17.9
-3 3 -1 464.75 20.1
-3 3 -1 447.76 20.4
-3 -3 -1 460.75 17.6
3 -3 1 440.36 20.2
-3 -3 -1 423.16 18
3 -3 1 475.35 20.3
-3 3 -2 11.6 4.6
-3 3 -2 9.4 4.2
3 3 2 6.5 1.7
3 3 2 8.7 1.9
-3 -3 -2 9.6 1.9
-3 -3 -2 9 2.1
3 -3 2 7.5 4.3
3 -3 2 6.5 4
3 3 3 53.99 5.1
-3 3 -3 47.9 6.5
3 3 3 39.6 4.5
-3 3 -3 51.59 6.7
3 -3 3 46.5 6.7
-3 -3 -3 46.9 4.6
3 -3 3 58.19 7
-3 3 -4 81.39 10.5
3 3 4 87.29 7.2
-3 -3 -4 76.09 6.7
3 -3 4 92.39 10.5
-3 -3 -4 77.39 7.3
-3 3 -5 67.69 9.4
3 3 5 63.49 8.1
-3 3 -5 66.19 9.5
3 3 5 55.39 6
-3 -3 -5 68.89 8.4
3 -3 5 57.89 9.4
3 3 6 145.19 11.5
3 3 6 139.09 12
-3 3 -6 168.38 17.1
-3 3 -6 158.58 15.7
-3 -3 -6 165.48 13.3
3 -3 6 158.28 16.2
-3 -3 -6 138.89 12.2
3 -3 6 142.99 16.6
-3 3 -7 5.2 9.6
3 3 7 29 7
3 3 7 7.4 6.4
-3 3 -7 -2.3 10.4
-3 -3 -7 2.2 6.7
3 -3 7 -0.5 9.9
-3 -3 -7 -5.6 6.9
3 -3 7 -10.6 9.9
3 3 8 31.4 9.4
-3 3 -8 28.8 13.4
-3 3 -8 71.19 15.6
3 3 8 44.1 10.4
-3 -3 -8 52.39 10.9
3 -3 8 31.4 13.8
-3 -3 -8 37.5 9.8
3 -3 8 20.7 14.1
3 4 -8 24.2 10.6
-3 4 8 19.4 8.5
3 4 -8 -15.2 11.4
-3 4 8 38.4 8.6
-3 -4 8 26.9 10.6
3 -4 -8 22.5 8.1
-3 -4 8 27.8 11.7
3 -4 -8 22.9 8.8
3 4 -7 40.1 10
-3 4 7 35.9 7.3
3 4 -7 43.6 10.4
-3 -4 7 40.4 10.3
-3 -4 7 39.2 9.6
3 -4 -7 37 7.4
3 -4 -7 22.1 6.8
-3 4 6 44 7.1
-3 4 6 49.1 7.3
3 4 -6 50.99 9.4
3 4 -6 52.29 9.1
-3 -4 6 52.39 9.5
-3 -4 6 58.99 8.8
3 -4 -6 39.1 6.4
3 -4 -6 54.79 6.8
3 4 -5 22.1 6.8
-3 4 5 21.3 4.5
-3 4 5 30.6 5.5
-3 -4 5 21.7 6.6
-3 -4 5 27.2 7
3 -4 -5 22.2 4.7
-3 4 4 154.18 10.1
-3 4 4 151.28 9
3 4 -4 157.68 11.4
3 4 -4 141.49 10.9
3 -4 -4 160.08 9.3
3 -4 -4 158.28 9.7
-3 -4 4 150.38 11.6
-3 -4 4 163.78 11.2
3 4 -3 743.13 30.6
-3 4 3 683.63 30.1
-3 4 3 724.83 29.3
3 4 -3 745.53 30.8
-3 -4 3 784.12 30.6
3 -4 -3 733.33 30.2
-3 -4 3 744.73 30.7
3 -4 -3 708.83 29.5
-3 4 2 3.8 3.4
3 4 -2 8.6 3.5
-3 4 2 1.9 2.8
3 4 -2 6 3.2
-3 -4 2 6.6 3.2
-3 -4 2 6.9 3.4
3 -4 -2 8.7 3.3
3 -4 -2 2.8 3.2
3 4 -1 738.53 29.1
3 4 -1 730.13 28.9
-3 4 1 735.23 30
-3 4 1 709.33 30.4
-3 -4 1 730.13 29
3 -4 -1 749.23 30.2
3 -4 -1 709.23 30.7
-3 4 0 307.77 14.5
3 4 0 304.87 12.4
-3 4 0 283.07 15.3
3 4 0 247.08 13.6
3 -4 0 291.07 15.4
3 -4 0 328.57 15
-3 -4 0 313.17 12.6
-3 4 -1 134.39 10.3
-3 4 -1 155.58 9.9
-3 -4 -1 143.59 5.9
3 -4 1 142.49 10.3
-3 -4 -1 128.29 6.3
-3 4 -2 196.48 12.8
-3 4 -2 199.18 12.6
3 -4 2 186.68 13
3 -4 2 236.28 12.3
-3 4 -3 61.59 8
-3 4 -3 75.19 8.6
3 -4 3 76.69 8.5
-3 -4 -3 77.19 4.1
-3 -4 -3 79.89 4.5
3 4 4 35.9 4.1
3 4 4 30.7 3.5
-3 4 -4 23.3 9
3 -4 4 34.3 7.5
-3 -4 -4 33.1 4
3 -4 4 38.9 7.9
-3 -4 -4 37.6 4.5
-3 4 -5 292.67 19.8
3 4 5 274.07 13.9
3 4 5 287.87 13.3
-3 4 -5 291.87 19
3 -4 5 275.97 19.3
3 -4 5 272.87 18.8
3 4 6 1.9 7
-3 4 -6 25.8 10.1
-3 4 -6 16.9 9.3
3 -4 6 20.6 9.3
3 -4 6 3.8 8.7
-3 -4 -6 6.4 5.7
-3 -4 -6 17.1 5.2
-3 4 -7 88.09 14.7
-3 4 -7 85.59 13.9
3 4 7 67.89 9
-3 -4 -7 68.49 9.2
3 -4 7 69.59 13.4
3 -4 7 64.49 13.4
-3 -4 -7 66.69 8.4
3 5 -7 211.18 19.4
3 5 -7 211.58 20.1
-3 5 7 204.48 15.9
-3 -5 7 224.68 19.4
-3 -5 7 222.28 20.2
3 -5 -7 220.88 14.7
3 -5 -7 207.78 15.1
3 5 -6 49.7 10.2
-3 5 6 51.49 7.3
3 5 -6 59.79 10
-3 5 6 71.39 8.5
3 -5 -6 55.89 6.7
-3 -5 6 53.09 10.2
3 -5 -6 55.09 7.2
-3 -5 6 57.09 9.5
-3 5 5 511.55 21.3
-3 -5 5 495.05 24.7
-3 -5 5 478.75 25.2
3 -5 -5 499.75 22.6
3 -5 -5 487.55 21.6
-3 5 4 7.5 3.3
3 5 -4 7.5 5.6
3 5 -4 5 5.1
-3 -5 4 5.2 5.6
-3 -5 4 5.5 5.1
3 -5 -4 -1.5 3.3
-3 5 3 113.09 7.4
3 5 -3 121.39 9.2
3 5 -3 121.59 10.1
-3 -5 3 118.99 10.1
-3 -5 3 105.89 9.4
3 -5 -3 116.59 7.9
3 -5 -3 118.89 8.9
3 5 -2 0.9 3.4
-3 5 2 1.3 3.4
-3 5 2 7.4 3.4
3 5 -2 2.8 3.8
-3 -5 2 0.7 3.5
3 -5 -2 9.4 3.9
3 -5 -2 7.7 3.8
3 5 -1 161.88 9
-3 5 1 151.68 10.9
3 5 -1 161.08 8.7
-3 5 1 150.58 9.7
3 -5 -1 144.59 11.2
-3 -5 1 160.48 8.8
3 -5 -1 173.78 10.1
-3 -5 1 153.58 8.9
-3 5 0 82.59 7.7
3 5 0 81.69 5.1
-3 5 0 78.79 9.5
-3 -5 0 77.79 5.3
-3 -5 0 88.39 5.6
3 -5 0 78.99 9.3
-3 5 -1 865.91 38.1
-3 5 -1 925.41 37.3
3 -5 1 908.31 38.2
-3 5 -2 6.8 5.6
-3 5 -2 -0.1 4.7
3 -5 2 7.8 5.6
3 -5 2 3.8 4.9
-3 5 -3 266.97 16.4
3 -5 3 246.98 16
3 -5 3 268.97 17.3
-3 5 -4 9 7.3
3 -5 4 22.2 7.6
3 -5 4 23.6 8.2
-3 5 -5 13.6 9.5
3 -5 5 22.6 8.9
3 -5 5 31.2 9.5
-3 -5 -5 21 2.9
-3 -5 -5 18.6 3.1
-3 5 -6 11 10.9
3 5 6 5.8 3.2
3 5 6 5.1 3.1
-3 5 -6 12.5 10.1
-3 -5 -6 10.9 4.6
3 -5 6 -8.5 10.1
3 -5 6 4.2 9.4
-3 -5 -6 7.6 3.9
3 5 7 3.4 7.9
-3 5 -7 28.1 12.8
3 5 7 2.4 5.1
-3 5 -7 20.5 14
-3 -5 -7 9.7 6.3
-3 -5 -7 17.6 5.9
3 -5 7 15.6 13
3 -5 7 3.3 12
-3 6 7 54.99 8.6
3 6 -7 76.49 13
3 6 -7 74.29 14.3
3 -6 -7 71.89 9.2
-3 -6 7 102.59 13.4
-3 -6 7 95.39 14.5
3 6 -6 7.3 9.3
-3 6 6 -2.6 5.5
-3 -6 6 1.5 9.2
-3 -6 6 -0.8 7.9
3 -6 -6 -2.6 5.5
-3 6 5 50.29 6
-3 6 5 46.7 6
-3 -6 5 39.7 9.2
-3 -6 5 47 8.5
3 -6 -5 36.4 6
3 -6 -5 43.8 5.4
-3 6 4 89.69 6.8
-3 6 4 100.19 8.1
3 6 -4 88.09 10.7
-3 -6 4 102.99 11.5
3 -6 -4 97.19 7.3
3 -6 -4 100.99 7.5
-3 -6 4 87.79 10
3 6 -3 851.01 36.4
3 6 -3 872.51 35.7
-3 6 3 859.01 34.1
-3 6 3 843.42 33.5
3 -6 -3 828.22 34.4
-3 -6 3 849.61 36.3
-3 -6 3 851.91 36
3 6 -2 0.7 4
3 6 -2 12 4.9
-3 6 2 7.3 3.7
3 -6 -2 5.6 4.4
-3 -6 2 6.8 4.1
-3 -6 2 9.2 4.7
-3 6 1 332.37 17.4
-3 6 1 326.87 15.9
3 6 -1 334.07 15
-3 -6 1 335.07 15.8
-3 -6 1 343.17 15
3 -6 -1 324.97 18.1
-3 6 0 122.79 9.5
3 6 0 122.09 7
-3 6 0 110.79 11.8
3 6 0 116.49 6.4
-3 -6 0 120.09 7.3
3 -6 0 106.49 11.7
-3 -6 0 128.89 6.8
3 -6 0 116.89 9.7
-3 6 -1 18.2 5.4
-3 6 -1 26.8 7
3 -6 1 21.2 6.7
3 -6 1 18 5.9
-3 6 -2 23.3 7.3
-3 6 -2 34 6.8
3 -6 2 25.6 7.6
3 -6 2 34.2 7
-3 6 -3 9.8 7
3 -6 3 16.6 7.9
3 -6 3 15 7.2
-3 6 -4 10.6 8
3 -6 4 4.2 8.6
3 -6 4 12 7.9
-3 6 -5 182.88 19
-3 6 -5 145.89 16.2
3 -6 5 172.98 18.9
3 -6 5 164.68 17
-3 6 -6 21.2 13.8
-3 6 -6 5 11.7
3 -6 6 -9.5 12.1
3 -6 6 7.1 11.2
3 7 -6 -16.2 10.8
3 7 -6 4.5 10.3
3 -7 -6 -10.3 5.4
-3 -7 6 -1.4 11
-3 -7 6 3.7 9.4
3 -7 -6 3.5 3.9
3 7 -5 236.08 19.9
3 -7 -5 245.08 12.1
3 -7 -5 224.18 11.2
-3 -7 5 230.58 19.5
-3 -7 5 195.98 17.9
3 7 -4 -5.2 5.9
-3 7 4 2.5 2
3 7 -4 -6 7.3
-3 7 4 6.4 2.6
-3 -7 4 4.3 6.8
-3 -7 4 -0.9 7.5
3 -7 -4 1.4 3.2
-3 7 3 29.1 3.5
3 7 -3 19.5 6.3
-3 7 3 29.7 3.8
-3 -7 3 24.9 6.8
-3 -7 3 18.4 7
3 -7 -3 25.3 4.1
-3 7 2 12.1 4.5
3 7 -2 9.2 4.9
-3 7 2 12.6 4.1
-3 -7 2 4 4.7
3 -7 -2 8.5 7.3
-3 -7 2 11.1 5.5
-3 7 1 36.9 6.4
-3 7 1 37.4 5.3
3 7 -1 51.49 5.9
-3 -7 1 36.3 5.7
3 -7 -1 35.1 7.3
-3 -7 1 35.2 4.7
3 -7 -1 25.3 5.3
3 7 0 0.9 2.5
3 7 0 0.5 2.1
-3 7 0 2.7 7.5
-3 7 0 3.2 4.9
3 -7 0 -0.9 4.8
3 -7 0 -3.6 6.6
-3 -7 0 2.6 3.3
-3 -7 0 0.2 2.5
-3 7 -1 281.97 18.8
-3 7 -1 282.37 16.4
3 -7 1 283.17 18.9
3 -7 1 306.57 17.1
-3 7 -2 15.8 6.7
3 -7 2 7.6 7.1
3 -7 2 22.9 8.5
-3 7 -3 305.57 21.8
3 -7 3 308.97 20.5
3 -7 3 311.47 21.8
-3 7 -4 -14.9 8.5
-3 7 -4 -16.7 9.9
3 -7 4 -2 8.2
-3 7 -5 30.9 12
-3 7 -5 14.3 12.9
3 -7 5 34.9 13.2
3 -7 5 17.9 10.9
3 8 -4 -20 7.7
-3 -8 4 10.1 7.9
-3 -8 4 -0.2 9.3
3 8 -3 200.28 16.5
3 8 -3 146.79 13.5
-3 -8 3 147.59 13.7
3 -8 -3 168.18 9.1
-3 -8 3 160.88 15.6
3 -8 -3 152.38 9
-3 8 2 8.9 3.9
-3 8 2 6.8 3.8
3 8 -2 5.1 5.2
3 -8 -2 2.3 4.9
3 -8 -2 -0.1 4.2
-3 -8 2 3.4 6.4
-3 -8 2 -2.3 5
3 8 -1 98.19 12.1
3 8 -1 100.59 8.7
-3 8 1 106.79 11.3
3 -8 -1 102.69 12.8
-3 -8 1 103.09 8.8
3 -8 -1 81.59 9.7
-3 8 0 18.8 6
3 -8 0 19.4 6.2
3 -8 0 13.1 8.3
-3 -8 0 17.8 3.8
-3 8 -1 15.9 6.8
-3 8 -1 41.3 9.4
3 -8 1 21.2 9.1
3 -8 1 28.5 7.8
-3 8 -2 35.4 8.4
-3 8 -2 22.5 10.7
3 -8 2 41 8.4
3 -8 2 31.5 10.5
-3 8 -3 -6.2 10.7
3 -8 3 -6.6 10.3
3 -8 3 10.9 8.5
-3 8 -4 4.4 10.9
-3 8 -4 9.2 13
3 -8 4 18 13
3 -8 4 25.8 10.9
3 9 -2 75.99 10.1
-3 9 2 95.29 5.7
-3 9 2 72.99 6.3
3 9 -2 56.69 10
-3 -9 2 71.09 8.5
-3 -9 2 80.79 10.4
3 -9 -2 78.29 8.6
3 9 -1 18.9 8.1
3 9 -1 41.2 5.4
-3 9 1 44.1 6.3
-3 -9 1 48.8 6.2
-3 -9 1 32.5 7.4
3 -9 -1 33 6.2
-3 9 0 19.8 8.9
-3 9 0 -14.4 5.7
3 -9 0 20.4 9.8
3 -9 0 3.1 6.5
-3 9 -1 147.39 15.3
-3 9 -1 115.09 14.1
3 -9 1 124.69 14.4
3 -9 1 118.69 14.8
4 0 -9 4 9.8
-4 0 9 9.9 10.4
-4 0 9 -18.7 11.3
4 0 -9 8.6 11.5
-4 0 8 116.19 14.6
-4 0 8 104.19 12.9
4 0 -8 75.59 11.1
4 0 -8 95.39 12.4
4 0 -7 -6.4 6.5
4 0 -7 -7.4 6
-4 0 6 767.32 34.8
4 0 -6 793.02 34.4
4 0 -6 818.32 34.7
-4 0 6 781.82 34.6
4 0 -5 -1.8 4.5
-4 0 5 4 4.4
-4 0 5 -2.1 4.3
-4 0 4 825.82 35
-4 0 4 862.31 35.3
4 0 -4 872.51 35.2
4 0 -4 877.91 35.4
-4 0 3 2.2 2.9
4 0 -3 -1.7 3
4 0 -3 -0.9 2.7
-4 0 3 0 3
-4 0 2 21.2 3.5
4 0 -2 23.6 3.7
4 0 -2 24.2 3.6
-4 0 2 25.9 3.8
-4 0 1 0.6 2.4
-4 0 1 -0.7 2.4
4 0 -1 -1.3 2.2
4 0 -1 1.2 2.5
4 0 0 306.67 14.2
4 0 0 312.87 14.2
-4 0 0 288.97 14
-4 0 0 301.87 14
4 0 1 -1.8 3
-4 0 -1 -4.1 2.9
4 0 1 -0.2 2.9
-4 0 -1 1.4 2.9
4 0 2 1626.74 60.69
-4 0 -2 1577.14 60.59
4 0 2 1502.05 60.19
-4 0 -2 1485.75 60.19
-4 0 -3 1 3.8
-4 0 -3 -4.3 3.7
4 0 3 5.1 4.1
4 0 3 0 3.6
4 0 4 236.18 13.8
4 0 4 233.08 14.2
-4 0 -4 235.78 13.9
4 0 5 2.4 6.3
4 0 5 -0.6 5.8
-4 0 -5 -1.9 5.6
-4 0 -5 -1.8 5.5
-4 0 -6 10.4 7.4
-4 0 -6 11.2 7.4
4 0 6 6.6 6.8
-4 0 -7 0.5 8.7
4 0 7 11.9 8.6
-4 0 -7 12.4 9.3
-4 0 -8 -16.5 11.6
4 0 8 14 11.6
-4 0 -8 -5.1 10.8
4 0 8 -9.2 10.8
4 1 -9 -0.8 10.3
-4 1 9 7.4 14.2
-4 1 9 -7.4 9.6
4 1 -9 10.8 12.5
-4 -1 9 -11.2 10.4
4 -1 -9 -7.3 10.6
-4 -1 9 -10.2 11.5
4 -1 -9 10.5 9.8
-4 1 8 247.38 17.9
4 1 -8 268.47 19.5
-4 1 8 227.18 18.5
4 1 -8 257.17 19.9
4 -1 -8 203.58 18.2
-4 -1 8 264.77 19.9
-4 -1 8 254.67 19.2
4 -1 -8 251.57 17.8
4 1 -7 -1 8.8
-4 1 7 16.5 6.6
4 1 -7 6.6 7.1
-4 -1 7 7 7
4 -1 -7 2 6.1
-4 -1 7 3.4 6.6
4 -1 -7 2.8 6.7
4 1 -6 14.4 6.4
-4 1 6 8.5 5.7
-4 1 6 11 6.7
4 1 -6 15.7 6.2
-4 -1 6 20.7 6.1
4 -1 -6 12.6 6.1
-4 -1 6 7.1 6.1
4 -1 -6 14 5.5
-4 1 5 124.09 10
-4 1 5 136.79 9.8
4 1 -5 132.49 10.6
4 1 -5 108.39 9.3
-4 -1 5 131.79 10.4
4 -1 -5 110.29 9.7
-4 -1 5 136.69 10.2
-4 1 4 234.68 12.8
4 1 -4 253.77 13.3
-4 1 4 253.77 13.3
4 1 -4 250.07 13.6
-4 -1 4 264.77 13.7
4 -1 -4 252.57 12.9
-4 -1 4 248.38 13.3
4 -1 -4 261.27 13.2
-4 1 3 132.69 8.6
-4 1 3 129.19 8.3
4 1 -3 138.39 8.5
4 1 -3 136.49 8.7
-4 -1 3 128.59 8.5
4 -1 -3 141.69 8.4
4 -1 -3 143.29 8.3
-4 -1 3 129.59 8.5
-4 1 2 1047.2 41
4 1 -2 1028.1 40.9
-4 1 2 1042.1 41.1
4 1 -2 1041.4 40.9
4 -1 -2 1031.9 41
4 -1 -2 1021 41.1
-4 -1 2 1070.09 41.1
-4 -1 2 1058.69 41
-4 1 1 51.79 5.6
-4 1 1 58.39 5.7
4 1 -1 58.09 4.9
4 1 -1 57.99 4.9
-4 -1 1 54.59 4.9
-4 -1 1 55.39 5
4 -1 -1 58.79 5.5
4 -1 -1 59.79 5.9
4 1 0 1149.29 42.2
-4 1 0 1020.1 42.8
-4 1 0 1063.69 42.9
4 1 0 1089.19 42.2
-4 -1 0 1140.19 42.2
-4 -1 0 1092.99 42.2
4 -1 0 1052.29 42.9
4 -1 0 1016.4 42.9
-4 1 -1 145.19 9.1
-4 1 -1 145.79 9.2
4 1 1 136.99 8.6
4 1 1 137.49 8.3
4 -1 1 124.69 8.8
4 -1 1 149.88 9.5
-4 -1 -1 124.29 7.9
-4 -1 -1 136.89 8.3
-4 1 -2 96.49 8.2
4 1 2 106.89 7.8
4 1 2 97.39 7.6
-4 1 -2 123.09 8.9
4 -1 2 107.69 8.7
-4 -1 -2 109.59 7.9
-4 -1 -2 100.49 7.2
4 -1 2 103.49 8.3
4 1 3 53.79 6.9
-4 1 -3 63.99 7.7
4 1 3 57.89 7
-4 1 -3 50.39 6.5
4 -1 3 54.09 6.6
-4 -1 -3 60.09 6.5
4 -1 3 60.99 7.7
-4 -1 -3 53.29 6.8
4 1 4 33.9 5.7
-4 1 -4 41.6 6.9
4 1 4 52.09 6.3
4 -1 4 38 6.5
4 -1 4 40.7 7
-4 -1 -4 41.8 6.2
4 1 5 6.4 5.5
-4 1 -5 18 6.7
-4 1 -5 21.6 7
4 1 5 20.9 5.9
-4 -1 -5 8.9 5.8
4 -1 5 26.1 7.4
-4 -1 -5 4.7 5.5
-4 1 -6 267.17 19.2
4 1 6 260.07 17
-4 1 -6 263.47 19.1
-4 -1 -6 259.47 17.9
-4 -1 -6 272.47 17.8
-4 1 -7 5 9.1
4 1 7 -2 7.7
4 1 7 1.4 7.7
-4 1 -7 -2.3 9.2
4 -1 7 -6.4 8
-4 -1 -7 -0.6 8.1
4 -1 7 -8.5 8.8
-4 -1 -7 0.4 8.5
-4 1 -8 79.19 14.7
4 1 8 98.29 13.8
-4 1 -8 83.99 15.1
-4 -1 -8 102.19 14.2
4 -1 8 66.79 14.5
4 -1 8 90.19 14.8
-4 -1 -8 63.49 13.6
-4 2 9 13.2 10.3
4 2 -9 11.1 11.2
-4 2 9 -6.2 10.2
4 2 -9 -5.9 12.6
-4 -2 9 8.9 12.1
4 -2 -9 4.9 9.5
4 -2 -9 14.7 11.3
-4 -2 9 1.5 12.1
-4 2 8 44.6 9.2
4 2 -8 59.49 11.8
4 2 -8 57.89 10.5
4 -2 -8 47.6 9.7
-4 -2 8 42 11
4 -2 -8 34.2 9.1
-4 -2 8 56.79 11.2
4 2 -7 19.1 8.5
-4 2 7 13.9 6.5
4 2 -7 21.6 8.1
4 -2 -7 11.5 6.9
4 -2 -7 12.1 6.5
-4 -2 7 7.6 7.7
-4 2 6 374.96 19.3
4 2 -6 357.56 20.4
4 2 -6 373.66 20.3
4 -2 -6 407.96 19.5
-4 -2 6 359.16 20.2
-4 -2 6 380.16 21.2
4 -2 -6 366.36 19.4
4 2 -5 68.69 7
4 2 -5 57.49 7.4
-4 2 5 50.69 6.2
-4 2 5 69.39 8.4
4 -2 -5 69.39 8.2
-4 -2 5 63.19 7.4
4 2 -4 603.14 26.2
-4 2 4 569.94 25.3
-4 2 4 601.04 25.9
4 2 -4 624.54 26.6
4 -2 -4 580.34 25.6
-4 -2 4 623.74 26.5
-4 -2 4 627.94 26.5
4 -2 -4 609.94 25.7
-4 2 3 8.5 3.2
-4 2 3 9 3.5
4 2 -3 10.2 3.8
4 2 -3 7.1 3.5
-4 -2 3 10.8 3.6
4 -2 -3 5.5 3.3
4 -2 -3 9.9 3.3
-4 -2 3 9.9 3.7
4 2 -2 56.59 5.3
-4 2 2 52.69 5.6
-4 2 2 48.7 6.1
4 2 -2 51.59 5.7
-4 -2 2 53.59 5.6
4 -2 -2 65.69 6.2
-4 -2 2 56.39 5.7
4 -2 -2 60.79 5.9
-4 2 1 1292.97 51.39
-4 2 1 1310.07 51.39
4 2 -1 1323.17 50.39
4 2 -1 1368.26 50.49
4 -2 -1 1267.77 51.49
-4 -2 1 1305.97 50.29
4 -2 -1 1247.58 51.29
-4 -2 1 1337.37 50.39
4 2 0 215.58 9.6
4 2 0 193.98 9.7
-4 2 0 191.08 11.3
-4 2 0 191.98 11.1
-4 -2 0 208.18 9.6
4 -2 0 184.98 11.4
-4 -2 0 212.08 9.8
4 -2 0 185.98 11.3
4 2 1 176.48 9.7
-4 2 -1 211.78 11.3
4 2 1 189.48 9.3
-4 2 -1 187.28 11.1
4 -2 1 196.38 11.3
-4 -2 -1 170.78 9.6
4 -2 1 175.98 10.9
-4 -2 -1 181.88 9.4
4 2 2 1010.9 41.1
-4 2 -2 1043.2 42.6
-4 2 -2 1090.39 42.8
-4 -2 -2 997.9 41.1
4 -2 2 1026.5 42.5
-4 -2 -2 1101.69 41.3
-4 2 -3 6.3 5.1
-4 2 -3 16.2 5.4
4 2 3 10.6 3.7
4 2 3 13.9 3.8
-4 -2 -3 11.2 3.7
-4 -2 -3 9.4 3.8
4 -2 3 11.9 5.4
4 -2 3 8.2 4.8
4 2 4 330.17 15.9
-4 2 -4 333.37 18.5
4 2 4 324.87 16.2
4 -2 4 332.27 18.2
-4 -2 -4 308.97 16.2
4 -2 4 321.87 18
-4 2 -5 33.5 7.8
-4 2 -5 42.4 8.4
4 2 5 48.6 6.8
4 2 5 39.5 6
-4 -2 -5 35.7 6.3
-4 -2 -5 40.1 6.6
4 -2 5 55.09 8.7
4 -2 5 26.9 7.9
-4 2 -6 3.2 8.2
4 2 6 6.8 6.3
-4 2 -6 3.8 7.9
4 2 6 10.3 7.6
-4 -2 -6 12.6 7
4 -2 6 -1.9 7.9
4 -2 6 5.3 8.6
-4 -2 -6 7.9 6.7
4 2 7 49.3 9
-4 2 -7 45.8 11.5
-4 2 -7 57.59 11.8
4 2 7 69.29 10
4 -2 7 47 12.1
-4 -2 -7 56.49 10.1
-4 -2 -7 47 9.7
4 -2 7 75.69 12.6
4 2 8 7.6 9.6
-4 2 -8 16.2 13.8
4 2 8 5.2 10.3
-4 2 -8 20.5 13.3
-4 -2 -8 -3.6 10.9
-4 -2 -8 -9.5 9.9
4 -2 8 26.9 14.2
4 3 -8 66.29 13.2
4 3 -8 55.69 11.5
-4 3 8 79.49 10.1
-4 3 8 52.89 10.4
4 -3 -8 57.89 10.1
-4 -3 8 94.99 13
4 -3 -8 59.29 9.7
-4 -3 8 72.59 12
4 3 -7 46.3 10.1
-4 3 7 38.1 8.1
4 3 -7 38.7 9.6
4 -3 -7 44.7 7.7
-4 -3 7 42.2 9.4
-4 -3 7 57.39 9.9
4 -3 -7 49.9 7.9
4 3 -6 7.3 6.8
4 3 -6 23 7.5
-4 3 6 14.7 5.5
-4 3 6 10.4 5.5
4 -3 -6 15 5.7
4 -3 -6 14 5.7
-4 -3 6 15.2 7.9
-4 3 5 616.34 26.3
-4 3 5 647.54 27
4 3 -5 586.64 27.9
4 -3 -5 583.84 26.5
4 -3 -5 620.74 26.5
-4 -3 5 613.34 27.9
-4 -3 5 591.74 27.7
-4 3 4 64.79 6.9
4 3 -4 72.79 8.5
-4 3 4 70.39 7.5
4 3 -4 78.19 8.3
4 -3 -4 76.09 7.5
-4 -3 4 80.39 8.5
4 -3 -4 81.59 7.6
-4 3 3 221.58 11.9
4 3 -3 220.08 11.7
4 3 -3 205.68 11.7
-4 3 3 202.88 10.9
4 -3 -3 208.88 11.5
-4 -3 3 228.98 12.1
-4 -3 3 218.58 11.7
4 -3 -3 200.58 11.3
-4 3 2 721.93 32
-4 3 2 813.32 31.9
4 3 -2 796.52 31.5
4 3 -2 784.62 31.5
-4 -3 2 792.32 31.5
4 -3 -2 799.72 32.1
4 -3 -2 762.62 32.1
-4 -3 2 762.92 31.4
4 3 -1 141.09 7.8
-4 3 1 135.79 9.5
-4 3 1 140.19 9.6
4 3 -1 146.99 7.9
-4 -3 1 145.89 7.9
4 -3 -1 146.99 9.9
-4 -3 1 152.08 8
4 -3 -1 127.99 9.1
4 3 0 528.65 22.1
-4 3 0 533.45 24.4
4 3 0 578.54 22.4
-4 3 0 584.14 24.4
4 -3 0 541.25 24.4
-4 -3 0 564.04 22.2
-4 -3 0 554.84 22.4
4 -3 0 546.35 24.7
-4 3 -1 402.06 18.4
4 3 1 382.26 15.6
-4 3 -1 378.06 18.6
4 -3 1 420.66 18.7
-4 -3 -1 355.46 16.3
4 -3 1 347.07 18.3
-4 -3 -1 379.26 15.7
-4 3 -2 5.2 4.6
4 3 2 0.3 2.4
-4 3 -2 0.8 4.5
-4 -3 -2 -0.1 2.9
-4 -3 -2 1.8 2.5
4 -3 2 2.8 4.7
4 3 3 320.67 15.2
-4 3 -3 326.57 18
-4 3 -3 334.57 18.2
-4 -3 -3 310.07 15.3
4 -3 3 327.77 18.2
4 -3 3 403.66 18
-4 -3 -3 340.17 14.9
-4 3 -4 34.8 8
-4 3 -4 38 7.7
4 3 4 36.6 5.1
4 -3 4 56.69 8.4
-4 -3 -4 39.4 5.4
4 -3 4 36.8 7.9
-4 3 -5 -6.8 7.6
-4 3 -5 14.7 9
4 3 5 13 5.3
4 3 5 9.3 4.5
-4 -3 -5 6.6 5.1
-4 -3 -5 9.4 4.8
4 -3 5 10.8 8.2
4 -3 5 7.7 7.3
4 3 6 63.89 7.8
-4 3 -6 84.39 12.2
4 3 6 75.89 8.6
-4 3 -6 89.19 11.8
4 -3 6 93.79 13.1
-4 -3 -6 86.19 10.7
-4 -3 -6 55.99 8.3
4 -3 6 78.19 11.8
-4 3 -7 -2.4 10.1
4 3 7 -4 7.7
-4 3 -7 -17.5 11
4 3 7 -6.5 6.4
-4 -3 -7 -4.9 7.9
-4 -3 -7 2.9 7
4 -3 7 -5.5 10.3
4 -3 7 -3.9 10.7
4 4 -8 29.9 12.8
-4 4 8 31.6 8.5
4 4 -8 42.2 11.9
-4 4 8 40.2 9.6
-4 -4 8 29.7 12.5
4 -4 -8 21.1 9.2
4 -4 -8 25 8.5
-4 -4 8 15 10.8
4 4 -7 118.29 13.7
-4 4 7 137.39 13.5
4 4 -7 143.89 16.2
4 -4 -7 143.49 13
4 -4 -7 157.88 13.3
-4 -4 7 112.59 12.8
-4 -4 7 131.39 16
4 4 -6 86.99 10.5
4 4 -6 84.09 10.5
-4 4 6 85.19 9.3
-4 4 6 59.59 8.2
4 -4 -6 96.09 10.1
-4 -4 6 78.79 9.9
-4 -4 6 75.59 10.4
-4 4 5 -1 3.9
-4 4 5 5.7 5.1
4 4 -5 0.5 7.3
4 -4 -5 -2.5 4.1
-4 -4 5 -2.3 5.5
-4 -4 5 -9.2 5.4
4 -4 -5 -3.8 4.2
4 4 -4 42.5 6.6
4 4 -4 38.9 6.4
-4 4 4 36.6 5
-4 4 4 46.4 6
-4 -4 4 47.8 6.7
-4 -4 4 38.7 6.3
4 -4 -4 37.9 5.1
4 4 -3 259.77 14.1
-4 4 3 276.87 14.2
4 4 -3 252.97 13.5
-4 4 3 253.17 12.8
4 -4 -3 253.27 13.1
4 -4 -3 244.98 13.7
-4 -4 3 260.17 13.9
4 4 -2 42.4 5
-4 4 2 38.8 5.6
4 4 -2 36.4 4.7
-4 4 2 44.8 5.3
-4 -4 2 35.7 4.6
-4 -4 2 33 4.6
4 -4 -2 43 5.5
4 -4 -2 31.7 5.4
4 4 -1 1007.8 38.7
-4 4 1 986 40.1
4 4 -1 981.4 38.7
-4 4 1 947.81 40.5
-4 -4 1 1026.5 38.8
4 -4 -1 1014.4 40.4
4 -4 -1 923.21 40.7
-4 -4 1 992.9 38.7
-4 4 0 10.7 5
4 4 0 13.2 2.5
-4 4 0 17.5 4.9
-4 -4 0 15.8 2.7
-4 -4 0 15.4 2.7
4 -4 0 11 4.5
4 -4 0 22 5.7
4 4 1 259.37 12
-4 4 -1 305.57 15.3
4 4 1 277.37 11.4
-4 4 -1 280.47 15.7
-4 -4 -1 281.47 12.4
4 -4 1 282.37 15.7
-4 -4 -1 285.57 11.7
-4 4 -2 276.67 16.2
4 4 2 277.37 11.1
4 4 2 281.77 11.1
-4 4 -2 298.87 16
4 -4 2 277.27 16.5
-4 -4 -2 279.07 11.6
-4 -4 -2 287.87 11.8
-4 4 -3 6.5 5.5
-4 4 -3 -1.5 5.7
4 4 3 -0.3 1.8
4 4 3 1.8 1.9
-4 -4 -3 -1 2.3
-4 -4 -3 -1.9 2
4 -4 3 4.6 5.7
4 -4 3 -1 5.8
-4 4 -4 67.19 10.1
4 4 4 87.59 6.1
4 4 4 82.89 6.9
-4 4 -4 87.29 10.3
4 -4 4 87.49 10.5
-4 -4 -4 79.79 7.5
-4 -4 -4 92.09 6.7
4 -4 4 93.49 10.8
4 4 5 154.48 10.4
-4 4 -5 108.59 13.3
4 4 5 143.59 9.4
-4 4 -5 157.18 15.6
4 -4 5 133.59 15.6
-4 -4 -5 141.09 9.5
4 -4 5 162.28 17
-4 4 -6 5.3 10.3
-4 4 -6 13.1 9.6
4 4 6 -2.5 5.5
4 -4 6 -0.7 9.2
-4 -4 -6 -0.5 5.9
4 -4 6 19 10.4
-4 -4 -6 3.6 7.2
-4 4 -7 128.39 16.2
-4 4 -7 136.49 17.7
4 4 7 143.89 14
4 -4 7 82.39 15.6
4 -4 7 109.49 15.8
-4 -4 -7 122.89 14.3
-4 -4 -7 124.69 12.8
4 5 -7 12.6 10.9
-4 5 7 47.9 7
4 5 -7 38.2 11.3
-4 5 7 31.3 8.3
-4 -5 7 24.7 11
4 -5 -7 14.6 7.3
4 -5 -7 22.8 7.4
-4 -5 7 34.4 10
4 5 -6 5.4 8.4
-4 5 6 5.2 6.4
4 5 -6 -4.5 7.6
-4 5 6 2.2 4.8
4 -5 -6 2.3 5.4
4 -5 -6 -4.9 5.4
-4 -5 6 -14 7.4
-4 -5 6 -4.6 7.3
-4 5 5 467.95 23.8
-4 5 5 515.45 22.3
4 -5 -5 508.95 22.6
-4 -5 5 496.85 25
4 -5 -5 514.75 23.7
-4 -5 5 525.65 25.5
4 5 -4 242.88 15.3
4 5 -4 229.68 14.8
-4 5 4 219.08 13.9
-4 5 4 241.78 12.4
4 -5 -4 243.78 13.7
4 -5 -4 232.58 12.5
-4 -5 4 219.98 15
-4 -5 4 216.18 14.8
-4 5 3 405.56 20.1
4 5 -3 432.26 20.2
4 5 -3 417.96 20.6
-4 5 3 442.26 19.1
4 -5 -3 411.36 19.3
-4 -5 3 437.06 20.5
-4 -5 3 439.16 20.2
4 5 -2 21.5 4.7
-4 5 2 33.6 5.6
4 5 -2 42.7 5.1
-4 5 2 37.5 5.5
4 -5 -2 38.4 5.8
-4 -5 2 35.8 5.1
4 5 -1 3.3 3.1
4 5 -1 -3.9 2.6
-4 5 1 6.1 5.4
-4 5 1 -0.2 4.1
-4 -5 1 5.6 3.1
4 -5 -1 -0.4 5.2
-4 -5 1 4.5 3.3
4 5 0 -1.2 2.2
-4 5 0 7.8 5.7
4 5 0 2.1 2.4
-4 5 0 -9 4.1
-4 -5 0 0.9 2.8
4 -5 0 9.3 5.8
-4 -5 0 5.3 2.4
-4 5 -1 465.35 23.4
-4 5 -1 489.75 22.8
-4 -5 -1 494.85 18.6
-4 -5 -1 476.55 19
4 -5 1 455.05 23.3
-4 5 -2 13.1 6
-4 5 -2 17.7 6.9
4 -5 2 13.9 6
4 -5 2 17.5 6.8
-4 5 -3 695.13 29.6
4 -5 3 605.34 29.9
4 -5 3 552.24 36.1
-4 5 -4 4.4 8.4
-4 5 -4 27.1 8.5
4 -5 4 28.5 8.5
4 -5 4 16.8 8.2
-4 5 -5 55.79 11.6
-4 5 -5 48.2 11.4
-4 -5 -5 60.19 4.2
4 -5 5 52.59 11.4
-4 -5 -5 44.6 4.6
4 -5 5 44.6 10.8
4 5 6 21.2 3.6
4 5 6 24.9 3.8
-4 5 -6 -2.8 11
-4 5 -6 22.2 12.3
4 -5 6 21 11.5
4 -5 6 26.9 12.1
-4 -5 -6 20.8 4.7
-4 -5 -6 18.9 5.5
4 6 -7 9.5 13.8
4 6 -7 43.3 13.6
-4 -6 7 61.89 12.4
4 -6 -7 51.79 9.2
-4 -6 7 39.4 13.2
4 -6 -7 46.9 8
-4 6 6 -1.1 4.9
4 6 -6 -3.9 10.9
4 6 -6 4.6 9.2
4 -6 -6 3.6 5.6
-4 -6 6 21.7 8.6
-4 -6 6 4.6 9.4
4 -6 -6 -5.4 6.4
4 6 -5 20.7 8.1
-4 -6 5 8.3 7.2
-4 -6 5 -2.8 7.5
4 -6 -5 9.8 4.9
4 -6 -5 10.9 6
4 6 -4 28.2 6.7
-4 6 4 22.9 4.4
4 -6 -4 13.1 5.5
-4 -6 4 15.5 6.3
4 -6 -4 12.1 4.6
-4 -6 4 14.7 6.9
-4 6 3 278.97 14.5
4 6 -3 271.07 15.9
-4 6 3 270.97 13.6
4 6 -3 260.07 15
4 -6 -3 263.77 14.9
-4 -6 3 274.47 15.8
4 -6 -3 263.07 14.2
-4 -6 3 260.77 15.8
-4 6 2 76.09 9
4 6 -2 87.89 9.1
-4 6 2 91.29 9.1
4 6 -2 84.39 8.3
-4 -6 2 85.99 9
4 -6 -2 84.29 9.3
4 -6 -2 85.29 9.9
-4 -6 2 81.49 8.4
-4 6 1 1181.18 47.1
-4 6 1 1142.79 48.3
4 6 -1 1166.98 45.9
4 6 -1 1152.38 45.6
4 -6 -1 1136.19 48.8
4 -6 -1 1220.28 47.7
-4 6 0 10.7 5.5
-4 6 0 -1 6.7
4 6 0 8.6 2.7
-4 -6 0 7.3 3
4 -6 0 19.4 7.2
-4 -6 0 8.8 2.8
-4 6 -1 133.29 11.9
-4 6 -1 109.79 13.3
4 -6 1 145.79 13.1
4 -6 1 145.29 11.8
-4 6 -2 66.69 10.2
-4 6 -2 68.49 8.9
4 -6 2 79.09 9.6
4 -6 2 65.39 9.8
4 -6 3 25 8.3
4 -6 3 28.1 9.2
-4 6 -4 12.7 9.2
-4 6 -4 12.1 10.1
4 -6 4 13.5 8.6
4 -6 4 13.2 9.7
-4 6 -5 82.09 13.3
-4 6 -5 87.49 14.4
4 -6 5 94.49 13.4
4 -6 5 61.59 13.1
-4 6 -6 15.3 14.8
-4 6 -6 27.1 13.4
4 -6 6 26 12.2
4 -6 6 5.5 13.2
-4 7 6 -1.8 5.5
4 7 -6 12.7 12.1
4 7 -6 -2.2 11.6
-4 -7 6 -20.6 10.7
4 -7 -6 0.2 6.4
-4 -7 6 3.3 9.4
4 -7 -6 -2.6 5.3
4 7 -5 217.38 19.3
-4 7 5 220.28 12.3
-4 -7 5 222.18 17.5
4 -7 -5 227.88 12.7
-4 -7 5 176.58 18.9
-4 7 4 6.9 3.8
4 7 -4 -4.5 6.4
4 7 -4 -1.9 7.8
-4 7 4 4.5 4.3
-4 -7 4 -3.3 6.3
4 -7 -4 -0.6 5
-4 -7 4 4.9 7.6
4 -7 -4 3.5 5.2
-4 7 3 124.59 14.3
-4 7 3 171.48 10.3
4 7 -3 171.38 12.9
-4 -7 3 156.18 12.9
-4 -7 3 146.09 13.6
4 -7 -3 186.88 12
4 -7 -3 180.08 11.4
4 7 -2 14.2 5.9
-4 7 2 7.3 5.1
-4 7 2 11.6 4.8
4 7 -2 7.8 4.8
4 -7 -2 19.6 6.3
-4 -7 2 6.1 5.4
-4 -7 2 7.5 7.6
-4 7 1 14.5 5.4
-4 7 1 7.1 6.4
4 -7 -1 10.5 7.5
-4 -7 1 13.7 4.8
-4 -7 1 8.7 4
-4 7 0 10.1 5.8
4 7 0 15.6 2.5
-4 7 0 16.9 7.7
4 7 0 15.4 2.5
4 -7 0 17.2 6.6
4 -7 0 16.7 8.1
-4 -7 0 15.5 3.5
-4 7 -1 194.68 14.4
4 -7 1 194.78 17.6
4 -7 1 181.58 14.6
-4 7 -2 10.3 8.5
-4 7 -2 -0.6 6.9
4 -7 2 -6.5 8.2
4 -7 2 -5.5 7
-4 7 -3 170.38 19.3
4 -7 3 190.48 17.3
4 -7 3 153.28 18
-4 7 -4 20 12.3
-4 7 -4 22.1 11.6
4 -7 4 -6 11
4 -7 4 -6.4 8.9
-4 7 -5 70.69 14.8
-4 7 -5 55.19 18
4 -7 5 73.69 13.9
4 -7 5 78.19 15.5
-4 8 4 94.59 6.2
-4 8 4 93.39 5.9
4 8 -4 78.19 10.9
-4 -8 4 81.39 11.9
-4 -8 4 90.19 10.5
4 -8 -4 94.69 8.6
-4 8 3 211.98 12
4 8 -3 230.98 15.4
-4 -8 3 226.38 15.5
-4 -8 3 239.78 17.3
4 -8 -3 223.58 13.1
4 8 -2 1.7 5.1
-4 8 2 3 5.2
-4 -8 2 1 6.2
4 -8 -2 7.7 6.3
4 -8 -2 1.6 5.5
-4 -8 2 0 5.3
4 8 -1 216.68 14.8
-4 8 1 222.18 14.2
4 8 -1 233.58 12.4
4 -8 -1 242.58 18
-4 -8 1 213.68 17.3
-4 -8 1 235.48 12.9
4 -8 -1 243.68 15.3
-4 8 0 9.3 6.5
-4 8 0 18.7 8.4
-4 -8 0 6 2.9
4 -8 0 6.7 6.6
4 -8 0 -10.6 8.5
-4 8 -1 14.4 9.7
-4 8 -1 23.3 7.5
4 -8 1 35.4 11
4 -8 1 26.2 8
-4 8 -2 33.2 11.8
-4 8 -2 41.3 9.7
4 -8 2 24.5 11.1
4 -8 2 35.9 9.1
-4 8 -3 5.8 9.2
-4 8 -3 10.3 12.7
4 -8 3 -7 11.6
4 -8 3 6.9 9.7
4 9 -2 93.19 10.5
4 9 -1 7.2 4.2
-4 9 1 -0.1 7.5
4 -9 -1 1.6 6.7
-4 -9 1 2.8 4.8
-4 -9 1 7.3 6.2
4 -9 -1 -4.4 8.6
-4 9 0 61.19 11.7
-4 9 0 61.49 8.8
4 -9 0 54.99 9.6
4 -9 0 48.1 12.1
-5 0 9 11.1 11
-5 0 9 -1.4 12.6
5 0 -9 -6.2 11.6
5 0 -9 -23.8 9.3
-5 0 8 20 9
-5 0 8 24.6 10.5
5 0 -8 21.7 9.9
5 0 -8 24.5 8.6
5 0 -7 4.2 6.7
-5 0 7 -7.4 6.8
5 0 -7 1.4 6.9
-5 0 6 531.75 23.1
5 0 -6 416.76 23.2
5 0 -6 466.25 23
-5 0 5 1.5 4.7
5 0 -5 16.6 4.5
-5 0 5 3 4.6
5 0 -5 3.3 4.8
-5 0 4 1475.25 57.19
5 0 -4 1445.06 57.09
5 0 -4 1419.56 56.89
-5 0 4 1430.96 56.89
5 0 -3 -3 2.9
5 0 -3 1.6 3.6
-5 0 3 -0.8 3.2
-5 0 3 0.1 3.4
5 0 -2 584.14 24.5
-5 0 2 593.04 24.4
5 0 -2 573.64 24.3
-5 0 2 561.24 24.4
5 0 -1 1.7 2.9
-5 0 1 -2.5 2.9
5 0 -1 2.7 3.1
-5 0 1 3.1 3.1
-5 0 0 561.94 24
5 0 0 561.54 24
5 0 0 560.44 24
-5 0 0 535.05 23.8
5 0 1 0.5 3.7
-5 0 -1 0.8 3.5
5 0 1 6.3 3.9
-5 0 -1 -1.5 3.4
-5 0 -2 632.84 27.8
-5 0 -2 659.83 28.2
5 0 2 616.24 27.7
5 0 2 673.33 28.3
-5 0 -3 -2.4 4.1
5 0 3 -4.2 4.1
-5 0 -3 -1 4.5
-5 0 -4 693.63 31.2
5 0 4 686.53 30.9
-5 0 -4 675.33 31
5 0 4 714.63 31.3
5 0 5 0.6 6.5
-5 0 -5 5.1 6.8
5 0 5 -6.7 5.5
-5 0 -5 1.9 6.6
5 0 6 30 7.6
-5 0 -6 43.5 9.4
-5 0 -6 34.4 9.4
5 0 7 5.4 9.5
-5 0 -7 -7.7 9.5
5 0 7 20.8 10.2
-5 0 -7 1.2 10.1
5 1 -9 -13.6 11.7
5 1 -9 0 10.3
-5 1 9 11.9 11.3
-5 1 9 -17 10.9
-5 -1 9 3.4 11.2
-5 -1 9 -9.2 12.1
5 -1 -9 -1.6 11
5 -1 -9 12.9 10
5 1 -8 143.39 16.5
-5 1 8 147.79 16.4
5 1 -8 131.69 14.4
-5 1 8 163.68 16
5 -1 -8 159.88 16.9
-5 -1 8 158.68 16.8
5 -1 -8 132.59 14.7
-5 -1 8 153.08 17.8
5 1 -7 1.2 7.6
5 1 -7 1.6 6.6
5 -1 -7 9.3 7.3
-5 -1 7 -1.3 7
5 -1 -7 -0.7 6.2
-5 -1 7 6.2 7.8
5 1 -6 206.58 15
5 1 -6 204.88 14.3
-5 1 6 214.78 14
-5 -1 6 190.28 14.5
5 -1 -6 204.18 13.7
5 -1 -6 220.48 14.7
-5 1 5 5.3 4.7
-5 1 5 7.5 4.8
5 1 -5 7.4 5.2
-5 -1 5 6.9 4.9
5 -1 -5 11.4 5
5 1 -4 105.69 9.4
-5 1 4 120.89 8.9
-5 1 4 106.69 8.6
5 1 -4 98.69 8.9
5 -1 -4 106.99 8.8
-5 -1 4 112.79 9.3
5 -1 -4 109.09 8.5
-5 -1 4 113.89 9.3
5 1 -3 229.58 12.3
5 1 -3 223.78 11.9
-5 1 3 211.58 11.9
-5 1 3 221.38 12
-5 -1 3 228.68 12.2
5 -1 -3 218.18 12.1
5 -1 -3 231.18 12.1
-5 -1 3 229.78 12.1
-5 1 2 1020.9 41.9
5 1 -2 1086.09 41.9
-5 1 2 1059.29 42.2
5 1 -2 1027.9 41.8
5 -1 -2 1054.79 42.2
5 -1 -2 1058.89 42.1
-5 -1 2 1072.99 41.9
-5 -1 2 1045.4 41.8
-5 1 1 100.69 8
-5 1 1 103.79 7.9
5 1 -1 109.99 7.5
5 1 -1 106.29 7.1
5 -1 -1 94.89 7.7
5 -1 -1 107.29 8.4
-5 -1 1 96.89 7
-5 -1 1 103.09 7.2
5 1 0 923.31 37.2
-5 1 0 921.11 38
-5 1 0 920.01 38
5 1 0 903.41 37.3
5 -1 0 947.91 38.2
-5 -1 0 965.7 37.3
-5 -1 0 928.91 37.3
5 -1 0 912.61 38.1
-5 1 -1 78.69 8.1
-5 1 -1 90.29 8.4
5 1 1 82.29 7.9
5 1 1 89.79 7.6
5 -1 1 93.69 8.5
5 -1 1 78.39 8.1
-5 -1 -1 87.59 7.9
-5 -1 -1 73.89 7
5 1 2 190.38 11.6
-5 1 -2 199.78 12.3
5 1 2 173.18 11.1
-5 1 -2 186.58 11.8
5 -1 2 185.58 12.3
-5 -1 -2 182.28 11.2
-5 -1 -2 182.98 11.6
5 -1 2 186.98 11.7
-5 1 -3 109.39 10.1
5 1 3 111.79 9.3
-5 1 -3 118.39 10.4
-5 -1 -3 114.59 9.1
-5 -1 -3 101.39 9.7
5 -1 3 100.49 9.8
5 1 4 23.1 5.8
-5 1 -4 15.7 6.4
5 1 4 12.4 5.9
-5 1 -4 12 6.2
-5 -1 -4 10.9 5.5
-5 -1 -4 20.3 5.6
5 -1 4 16.7 6.1
5 -1 4 15.4 6.7
5 1 5 10.7 6.3
-5 1 -5 15.8 7.7
5 1 5 12.7 6.4
-5 -1 -5 19.2 7
-5 -1 -5 17.4 6.7
-5 1 -6 87.99 11.8
5 1 6 82.49 10.6
-5 1 -6 83.79 11.8
-5 -1 -6 90.49 11.2
-5 -1 -6 78.89 10.8
5 -1 6 106.29 13.2
-5 1 -7 18.9 11.1
5 1 7 -1.7 8.9
-5 1 -7 -3.7 9.9
-5 -1 -7 -3.9 9.4
-5 -1 -7 -1.2 8.6
5 -1 7 6.8 16.6
5 -1 7 17.9 9.9
5 2 -9 -9.8 13
-5 2 9 22.8 11.6
5 2 -9 33.3 12.1
-5 2 9 29.7 11.8
5 -2 -9 36.2 10.7
5 -2 -9 22.8 13.7
-5 -2 9 19.3 14.3
-5 -2 9 -6.2 12.3
5 2 -8 7.8 10.5
-5 2 8 15.1 8.3
5 2 -8 7.5 8.8
5 -2 -8 8.1 8.9
-5 -2 8 6.7 9.8
-5 -2 8 22.9 10.4
5 -2 -8 9.3 8.2
5 2 -7 17.5 8.3
-5 2 7 20.9 7.7
5 2 -7 19.9 8.3
-5 2 7 4 6.1
-5 -2 7 25.8 8.7
5 -2 -7 15.1 7.4
-5 -2 7 19.8 8.3
5 -2 -7 22 7.1
-5 2 6 289.37 16.3
5 2 -6 260.37 17.1
-5 2 6 264.17 16.5
5 -2 -6 261.77 16.3
5 -2 -6 264.17 16
-5 -2 6 276.47 17.5
-5 2 5 6.3 4.9
-5 2 5 4.3 4.6
5 2 -5 1 5.5
5 -2 -5 -2.4 4.5
-5 -2 5 6.4 5.7
5 -2 -5 2.2 4.3
5 2 -4 683.63 29.4
5 2 -4 671.23 29.6
-5 2 4 680.53 28.9
-5 2 4 704.73 29.4
-5 -2 4 710.23 29.6
5 -2 -4 680.43 29.1
-5 -2 4 676.23 29.6
5 -2 -4 675.63 29
5 2 -3 2.2 3.6
-5 2 3 -0.6 3.6
5 2 -3 2.6 3.4
-5 2 3 5.2 3.6
-5 -2 3 4.7 3.7
-5 -2 3 6.3 3.8
5 -2 -3 4.4 3.6
5 -2 -3 0.7 3.6
5 2 -2 330.67 15.5
5 2 -2 356.56 15.8
-5 2 2 352.36 16.4
-5 2 2 334.87 16.5
-5 -2 2 342.57 15.6
5 -2 -2 326.77 16.4
-5 -2 2 329.67 15.6
5 -2 -2 339.47 16.3
5 2 -1 19.4 3.5
-5 2 1 14.2 4.5
5 2 -1 18.2 3.4
-5 2 1 18.1 4.5
-5 -2 1 18.3 3.5
5 -2 -1 22.9 4.9
5 -2 -1 13.3 4.1
-5 -2 1 19.5 3.6
5 2 0 76.19 6.2
5 2 0 77.19 6.4
-5 2 0 86.29 8.3
-5 2 0 66.79 7.9
5 -2 0 83.29 8.5
5 -2 0 70.79 7.9
-5 -2 0 71.09 6.4
-5 -2 0 73.59 6.3
-5 2 -1 702.43 30
-5 2 -1 679.03 29.8
5 2 1 697.23 28.3
5 2 1 690.03 28.8
5 -2 1 722.03 30.3
-5 -2 -1 695.43 28.3
-5 -2 -1 687.43 28.8
5 -2 1 648.44 29.9
-5 2 -2 463.05 21.3
-5 2 -2 422.36 21
5 2 2 417.86 19.4
5 2 2 433.86 19.7
-5 -2 -2 411.56 19.3
-5 -2 -2 442.06 19.8
5 -2 2 463.05 21.5
5 -2 2 418.46 20.9
-5 2 -3 24.9 6.4
5 2 3 21.2 4.8
5 2 3 31.6 5.1
5 -2 3 18.5 5.8
-5 -2 -3 21.3 4.8
5 -2 3 14.6 6.2
-5 -2 -3 22.7 5
5 2 4 518.35 24.1
5 2 4 528.25 23.7
-5 2 -4 525.85 26.1
-5 2 -4 523.75 26.1
-5 -2 -4 481.25 23.8
-5 -2 -4 600.44 23.9
5 -2 4 494.75 25.6
5 2 5 52.29 9.3
5 2 5 39.5 7.1
-5 2 -5 46.8 9.5
-5 2 -5 57.89 9.8
5 -2 5 46.4 9.1
-5 -2 -5 60.09 8.1
-5 -2 -5 54.69 7.9
5 -2 5 57.69 10.2
-5 2 -6 31.9 10.5
5 2 6 44.8 8
-5 2 -6 53.59 11.5
-5 -2 -6 44 8.5
5 -2 6 80.79 16.6
5 -2 6 44.1 10.1
-5 -2 -6 57.59 9.3
5 2 7 30.5 9.3
-5 2 -7 35.4 12.6
5 2 7 29.8 9.6
-5 2 -7 14.1 11.9
-5 -2 -7 20.4 9.7
-5 -2 -7 30.9 9.8
5 -2 7 42.4 13
5 -2 7 5.8 11.1
5 3 -8 92.69 13.7
-5 3 8 73.59 11.1
5 3 -8 88.19 13
-5 3 8 97.79 12
5 -3 -8 73.09 10.5
-5 -3 8 89.59 13
5 -3 -8 83.69 11.4
-5 -3 8 68.39 12.8
5 3 -7 25.1 9.4
-5 3 7 30.3 7.9
-5 3 7 53.39 7.9
5 3 -7 27.4 9.1
-5 -3 7 31 9.3
5 -3 -7 16.2 7.6
5 -3 -7 31 7.7
-5 -3 7 27.4 8.9
5 3 -6 46.8 8.5
-5 3 6 50.79 7.1
5 3 -6 41.8 8.7
-5 3 6 52.79 8
-5 -3 6 42.1 10.1
-5 -3 6 50.99 9.9
5 -3 -6 51.69 7.5
-5 3 5 160.28 11
5 3 -5 164.18 12.7
-5 3 5 153.18 11.5
-5 -3 5 155.18 12.4
-5 -3 5 161.18 12.7
5 -3 -5 146.99 11.4
5 -3 -5 168.58 11.7
5 3 -4 24.5 5.8
-5 3 4 33.9 5.2
-5 3 4 29.8 5.5
5 3 -4 28.3 5.5
5 -3 -4 30.6 5.3
-5 -3 4 31.5 5.9
5 3 -3 819.22 34.4
5 3 -3 822.32 34.3
-5 3 3 803.32 34.7
-5 3 3 860.71 34.4
-5 -3 3 858.31 34.5
5 -3 -3 858.61 34.9
-5 -3 3 805.62 34.4
5 -3 -3 845.32 34.6
5 3 -2 319.07 14.7
-5 3 2 303.17 15.9
5 3 -2 313.47 14.9
-5 3 2 328.77 16
5 -3 -2 296.97 15.8
-5 -3 2 295.57 14.7
5 -3 -2 316.77 16.2
-5 -3 2 311.67 14.7
5 3 -1 60.19 5.7
5 3 -1 52.09 5.7
-5 3 1 58.89 6.9
-5 3 1 50.09 6.4
5 -3 -1 50.99 6.8
-5 -3 1 55.89 5.6
-5 -3 1 55.79 5.7
5 -3 -1 48.6 6.2
-5 3 0 654.33 29.3
5 3 0 671.83 26.6
5 3 0 655.93 26.9
-5 3 0 650.03 28.8
-5 -3 0 664.13 27
5 -3 0 644.44 29.3
-5 -3 0 690.53 26.7
5 -3 0 645.14 29
5 3 1 403.66 17.7
-5 3 -1 369.06 19.6
-5 3 -1 404.16 19.8
5 3 1 408.26 16.9
5 -3 1 399.36 19.8
5 -3 1 378.56 19.7
-5 -3 -1 374.36 17.6
-5 -3 -1 400.06 17
5 3 2 154.98 9
5 3 2 171.38 9.2
-5 3 -2 159.18 12.1
-5 3 -2 142.69 11.8
-5 -3 -2 149.99 9.2
-5 -3 -2 154.18 9.6
5 -3 2 142.49 11.9
-5 3 -3 340.67 20.2
5 3 3 389.06 17.1
5 3 3 366.96 17.6
5 -3 3 433.36 20.3
5 -3 3 374.26 20.4
-5 -3 -3 384.36 17.5
-5 -3 -3 362.46 17.6
-5 3 -4 43.7 8.7
5 3 4 42 5.4
5 3 4 44 6
-5 3 -4 40 8.9
-5 -3 -4 35.7 5.9
5 -3 4 53.79 8.9
5 -3 4 39.4 9.1
-5 3 -5 115.19 14.7
-5 3 -5 103.19 12.5
5 3 5 100.89 10
5 3 5 98.89 10.9
-5 -3 -5 125.29 10.7
-5 -3 -5 112.69 11.2
5 -3 5 97.49 12
5 3 6 65.99 8.3
-5 3 -6 70.59 12.9
-5 3 -6 60.29 12.2
5 -3 6 75.99 12.3
-5 -3 -6 78.59 9.6
5 -3 6 88.99 14.4
-5 -3 -6 74.89 9.3
-5 3 -7 8.3 12.4
5 3 7 3 7.5
5 3 7 -2.7 8.5
-5 3 -7 -6.7 12.3
-5 -3 -7 4.5 8.1
-5 -3 -7 -3.7 8.5
5 -3 7 3.8 12
5 -3 7 -2 11.8
5 4 -8 -17.6 10.2
-5 4 8 12.1 9.5
-5 4 8 -2.5 8
5 4 -8 -4.4 11.9
5 -4 -8 5.9 8.4
-5 -4 8 9.1 11.4
-5 -4 8 12.7 10.6
5 -4 -8 5.9 9.1
5 4 -7 94.49 12.5
-5 4 7 86.39 10.2
-5 4 7 77.09 9.1
5 4 -7 95.49 12.7
-5 -4 7 97.69 12
5 -4 -7 101.89 12.2
5 -4 -7 90.89 10.3
-5 -4 7 88.19 12.2
5 4 -6 173.08 16
-5 4 6 173.48 13.6
5 4 -6 166.78 15.2
-5 4 6 166.68 13.3
5 -4 -6 149.99 12.8
-5 -4 6 160.98 14.8
-5 -4 6 166.28 15.3
5 -4 -6 168.18 13
-5 4 5 33.1 7.2
-5 4 5 44.7 7.1
5 -4 -5 46 6.8
-5 -4 5 45.3 7.9
5 -4 -5 32.1 6
-5 4 4 143.19 9.9
-5 4 4 132.89 11.1
5 4 -4 130.99 10.7
5 4 -4 133.99 11.5
-5 -4 4 130.89 11.4
5 -4 -4 117.99 10.5
-5 -4 4 133.79 10.9
5 -4 -4 134.79 10.1
-5 4 3 118.89 9.3
5 4 -3 106.79 9.1
-5 4 3 102.29 9.9
5 4 -3 115.19 9.5
-5 -4 3 115.49 9.2
5 -4 -3 108.39 9.3
-5 4 2 2.2 4.5
-5 4 2 -2 4.3
5 4 -2 1.4 3.3
5 4 -2 1.6 3.6
-5 -4 2 6.2 3.3
-5 -4 2 1.8 3.7
5 -4 -2 11.4 4.3
5 -4 -2 -0.5 4.5
5 4 -1 546.75 22.1
-5 4 1 498.45 24.4
-5 4 1 495.35 23.9
5 4 -1 520.45 21.9
-5 -4 1 516.65 21.9
5 -4 -1 528.35 25.1
5 -4 -1 541.25 24.4
-5 -4 1 519.95 22
5 4 0 13.1 3
-5 4 0 7.9 5.1
5 4 0 14 3
-5 4 0 11.6 5.6
-5 -4 0 5.8 2.9
-5 -4 0 9.4 2.9
5 -4 0 21 6.2
5 4 1 508.25 22.6
-5 4 -1 522.45 25.7
-5 4 -1 550.64 25.5
5 4 1 559.24 21.7
-5 -4 -1 565.04 22.8
5 -4 1 543.25 26
-5 4 -2 44.7 7.8
-5 4 -2 59.59 8
5 4 2 50.99 4.6
-5 -4 -2 56.39 5.2
-5 -4 -2 44.2 5.5
5 -4 2 50.29 8.2
5 4 3 15 3.2
-5 4 -3 14.3 8.7
5 4 3 11.8 2.9
5 -4 3 17.5 7.1
-5 -4 -3 9.8 3.2
5 -4 3 17.7 7.5
-5 -4 -3 11.4 3.6
-5 4 -4 124.39 14.2
5 4 4 124.59 8
-5 4 -4 128.19 14.6
5 4 4 115.29 8.8
5 -4 4 89.29 14.2
5 -4 4 109.79 15
5 4 5 42.3 6.3
5 4 5 56.29 7.9
-5 4 -5 45.9 10.8
-5 4 -5 36.2 10.5
-5 -4 -5 42.1 6
5 -4 5 40.1 10.1
5 -4 5 65.19 11.8
-5 -4 -5 36 6.7
-5 4 -6 15 11.2
-5 4 -6 22.3 12.5
5 4 6 18.3 6.9
5 -4 6 28.3 11.5
-5 -4 -6 14.9 7.1
5 -4 6 16.4 12.3
-5 -4 -6 10.9 6
5 4 7 42.4 11
-5 4 -7 96.59 15.7
5 4 7 70.09 10.2
5 -4 7 88.89 16.7
-5 -4 -7 61.69 9.2
5 5 -7 23.6 11.2
5 5 -7 38.1 11.3
-5 5 7 36.7 9
-5 5 7 21.8 7.6
-5 -5 7 35.7 11.3
5 -5 -7 30.1 7.9
-5 -5 7 19.4 9.9
5 -5 -7 28.7 8
-5 5 6 47.8 8.9
5 5 -6 70.39 10.7
5 5 -6 58.99 10.6
5 -5 -6 58.59 7.7
-5 -5 6 48.9 9.5
5 -5 -6 53.09 8.3
-5 -5 6 57.79 10.3
-5 5 5 124.69 10.1
-5 5 5 101.49 12.1
-5 -5 5 116.99 13.1
5 -5 -5 112.29 10.4
5 -5 -5 116.49 11.9
-5 -5 5 112.39 12.2
-5 5 4 -1.3 5.5
5 5 -4 3.9 5.5
-5 5 4 -0.6 4.2
5 5 -4 4.2 5.8
5 -5 -4 5.3 5.3
5 -5 -4 -4.1 4.2
-5 -5 4 -11.2 5.2
5 5 -3 583.04 26
-5 5 3 563.04 26.3
-5 5 3 596.34 25.3
5 5 -3 593.04 25.6
-5 -5 3 572.14 25.7
5 -5 -3 535.85 26.2
-5 -5 3 571.64 25.7
5 -5 -3 566.04 25.6
-5 5 2 410.46 20.8
-5 5 2 420.46 20.9
5 5 -2 402.76 19.2
5 5 -2 423.16 19.6
-5 -5 2 412.76 19.5
5 -5 -2 443.46 20.8
5 -5 -2 431.36 21.5
-5 -5 2 463.75 19.5
-5 5 1 124.49 11.1
5 5 -1 138.69 8.6
5 5 -1 123.79 8.7
-5 5 1 122.29 12.2
5 -5 -1 106.49 12.9
5 -5 -1 172.78 11.3
-5 -5 1 119.29 8.7
-5 -5 1 156.08 8.6
-5 5 0 49.3 8.4
5 5 0 50.19 5.2
-5 5 0 68.79 7.9
5 5 0 40.1 6
-5 -5 0 52.19 5.7
5 -5 0 50.49 7.5
5 -5 0 41 8.2
-5 -5 0 40.5 4.8
5 5 1 165.18 8.1
5 5 1 169.68 7.5
-5 5 -1 185.88 13.4
-5 5 -1 147.59 13.6
5 -5 1 174.88 14
-5 -5 -1 166.68 8
-5 -5 -1 168.18 9
-5 5 -2 17.9 7
-5 -5 -2 13.2 2.1
5 -5 2 17.1 7
-5 -5 -2 18.1 1.9
5 -5 2 21.8 7.5
-5 5 -3 503.85 25.5
5 -5 3 491.15 26.5
-5 -5 -3 472.65 18.6
-5 -5 -3 474.05 18.6
5 -5 3 521.75 26.2
-5 5 -4 10.2 8.5
-5 5 -4 -0.6 8.6
5 -5 4 3.6 8.7
-5 -5 -4 0.7 2.4
-5 -5 -4 -0.1 2.2
5 -5 4 -5 7.5
-5 5 -5 228.48 20.9
-5 5 -5 201.78 21.7
-5 -5 -5 230.18 12.4
5 -5 5 249.28 21.5
5 -5 5 232.28 20.5
-5 -5 -5 277.27 11.6
-5 5 -6 -13.7 12.8
5 5 6 4.2 4.2
-5 5 -6 11.7 12.2
5 5 6 10.2 4
5 -5 6 -17.1 11.2
5 -5 6 -15.2 12
-5 -5 -6 12.1 5.9
-5 6 7 42.9 10.1
-5 6 7 67.49 8.6
5 6 -7 67.49 13.9
-5 -6 7 53.99 12.6
-5 -6 7 59.29 13.7
5 -6 -7 64.09 9.1
5 -6 -7 60.29 10
5 6 -6 -0.6 15.2
5 6 -6 2.4 9.6
-5 6 6 -1 7.5
5 -6 -6 0.6 5.9
-5 -6 6 6.7 8.2
5 -6 -6 10.7 7.5
-5 -6 6 2.3 9.5
5 6 -5 -2.2 7.7
-5 6 5 -5.3 6.4
-5 6 5 0.9 4.9
5 -6 -5 3.8 5.4
5 -6 -5 1.8 6.4
-5 -6 5 6.1 8.1
-5 -6 5 6.4 7.5
-5 6 4 5.9 4.8
5 6 -4 1.2 5.8
-5 6 4 -3.3 5.9
5 6 -4 -7.8 8.5
5 -6 -4 6.1 5.9
-5 -6 4 5.2 6.8
-5 -6 4 10.4 6.4
5 -6 -4 5.5 4.9
-5 6 3 34.8 6.9
5 6 -3 38.4 6.3
5 6 -3 35.3 6.7
-5 6 3 36.2 6.1
-5 -6 3 26.7 7.5
5 -6 -3 42.8 7.1
5 -6 -3 38.4 6.5
-5 -6 3 40.9 7.2
-5 6 2 34.6 6.8
5 6 -2 39.8 6.1
-5 6 2 37.3 6.8
5 6 -2 37.3 5.7
-5 -6 2 44.2 6
5 -6 -2 46.9 7.1
5 -6 -2 48.8 7.8
-5 -6 2 44 6.1
5 6 -1 439.46 19
-5 6 1 355.86 25.1
-5 6 1 436.16 21.5
5 6 -1 435.56 19.3
5 -6 -1 415.26 23.5
5 -6 -1 438.76 22
-5 -6 1 490.25 19.1
-5 -6 1 395.96 19.2
-5 6 0 35.6 7
5 6 0 33.8 4.1
-5 6 0 36 8.8
5 6 0 40 4.9
5 -6 0 50.49 9.4
-5 -6 0 36 4.2
-5 -6 0 30.2 4.1
-5 6 -1 787.62 33.7
-5 6 -1 759.32 34.7
-5 -6 -1 755.52 27.9
5 -6 1 691.43 34
5 -6 1 692.93 34.5
-5 -6 -1 729.13 28.1
-5 6 -2 19 7.6
5 -6 2 22.1 8.4
5 -6 2 6.7 7.4
-5 6 -3 4.7 8.3
5 -6 3 15.1 8.4
5 -6 3 1.5 8.6
-5 6 -4 8.5 12.1
-5 6 -4 24 11.2
5 -6 4 38.2 10.5
5 -6 4 20.7 10.8
-5 6 -5 132.29 17.2
-5 6 -5 133.49 16.5
5 -6 5 131.09 16.7
5 -6 5 176.28 19.9
5 7 -5 136.09 14.5
-5 7 5 157.98 16.2
-5 -7 5 148.49 17.7
-5 -7 5 153.88 15.6
5 -7 -5 156.98 12.3
5 -7 -5 162.18 14.3
-5 7 4 8.6 5
5 7 -4 3.9 6.7
5 7 -4 4.2 8.3
-5 -7 4 4 6.6
-5 -7 4 -3.9 7.4
5 -7 -4 8.6 5.4
5 -7 -4 2.5 6.1
-5 7 3 172.18 13
5 7 -3 167.88 13
-5 7 3 149.29 11.9
5 -7 -3 183.58 13.1
5 -7 -3 178.08 13.9
-5 -7 3 178.98 13.3
-5 -7 3 174.18 14.1
5 7 -2 5.5 4.8
-5 7 2 2.4 5.6
-5 7 2 0.9 5.7
5 7 -2 -6.6 5.2
5 -7 -2 -0.9 6.7
-5 -7 2 -5.4 5
-5 -7 2 -1.8 4.7
5 -7 -2 5.4 6.2
-5 7 1 18.4 6.5
-5 7 1 19 8.4
-5 -7 1 18.6 4.5
5 -7 -1 -1.7 7.8
-5 -7 1 19.4 5.2
5 7 0 9.6 2.9
5 7 0 12.1 2.5
-5 7 0 9.3 6.4
5 -7 0 29.6 9.9
-5 -7 0 6.3 3.4
-5 -7 0 6.1 3.3
5 -7 0 8.5 7
-5 7 -1 158.28 16.9
-5 7 -1 140.99 14.1
5 -7 1 115.89 13.7
5 -7 1 130.89 14
-5 7 -2 24.8 9.9
5 -7 2 8.5 9.4
5 -7 2 -2.1 8
-5 7 -3 186.98 18
-5 7 -3 205.58 21.6
5 -7 3 211.38 18
5 -7 3 171.78 25.6
-5 7 -4 -4.1 11.4
-5 7 -4 2.5 12.4
5 -7 4 7.1 10.5
5 -7 4 -5.6 11.8
5 8 -4 14.9 8.2
5 8 -4 20.9 10.3
-5 8 4 20.5 5.8
-5 -8 4 9.9 8
5 -8 -4 26.4 10.8
-5 -8 4 24.4 9.9
5 -8 -4 19.7 6.9
5 8 -3 71.49 8.8
-5 -8 3 69.89 9.9
-5 -8 3 66.99 8.6
5 -8 -3 68.59 8.3
-5 8 2 90.29 11
5 8 -2 112.99 10.6
-5 -8 2 99.79 11
5 -8 -2 77.09 10.2
-5 -8 2 73.59 9
-5 8 1 328.07 18.8
5 8 -1 342.57 16
-5 8 1 374.16 21.4
5 -8 -1 333.37 22.5
-5 -8 1 327.97 17.3
5 -8 -1 310.27 19.6
-5 8 0 7.8 7.2
-5 8 0 -0.2 9.3
-5 -8 0 -2.9 3.1
5 -8 0 12.3 7.5
-5 -8 0 0.3 2.4
5 -8 0 4.1 10.1
-5 8 -1 133.79 15.6
-5 8 -1 126.39 15
5 -8 1 124.89 15.2
5 -8 1 118.19 15.2
-5 8 -2 28.4 12.6
5 -8 2 18.2 12.5
5 -8 2 24.9 9.8
-5 8 -3 -10.9 13.8
-5 8 -3 -1.6 11
5 -8 3 -16.4 13.2
5 -8 3 8.5 10.8
6 0 -9 -4.9 11.7
-6 0 9 -14.2 11.2
6 0 -9 2.6 10
-6 0 9 -10.4 11.3
-6 0 8 11.3 9.1
6 0 -8 4.5 9.3
6 0 -8 19.9 8.6
-6 0 8 -3.7 9.1
6 0 -7 -1.3 9.1
6 0 -7 -2.8 6.5
-6 0 7 -9.2 6.8
-6 0 6 357.76 18.3
-6 0 6 324.57 18.6
6 0 -6 317.77 18.9
6 0 -6 320.47 18.7
6 0 -5 6.5 5.5
6 0 -5 -4.8 4.6
-6 0 5 0 5
-6 0 5 -3.3 4.9
-6 0 4 877.31 36
6 0 -4 873.71 35.9
-6 0 4 806.32 35.7
6 0 -4 864.61 36
6 0 -3 -3.5 3.9
-6 0 3 0.6 4
6 0 -3 -4 3.5
-6 0 3 -1.8 3.9
-6 0 2 1140.79 44.8
-6 0 2 1101.29 44.8
6 0 -2 1106.09 44.7
6 0 -2 1111.49 44.9
-6 0 1 0.4 3.6
6 0 -1 0 3.5
6 0 -1 -6.3 3.5
-6 0 1 0.1 3.4
-6 0 0 51.09 6.1
6 0 0 50.59 6.1
-6 0 0 44.9 5.9
6 0 0 42.6 6
6 0 1 0.4 4.4
-6 0 -1 0.5 4.1
6 0 1 2.1 4.2
-6 0 -1 -0.4 4.1
-6 0 -2 789.22 34.1
6 0 2 819.42 34.6
-6 0 -2 795.62 34.4
6 0 2 778.32 33.9
-6 0 -3 1.2 5.1
-6 0 -3 16.6 5.5
6 0 3 -3.8 4.6
6 0 4 438.86 22.7
-6 0 -4 438.86 22.9
-6 0 -4 438.56 22.7
6 0 4 414.66 24.1
-6 0 -5 -4.3 7.4
6 0 5 -9.1 7.1
-6 0 -5 0.6 6.9
-6 0 -6 156.78 17.8
-6 0 -6 148.19 16.2
6 0 6 153.38 16.6
6 0 7 -2.2 11.1
6 0 7 -19.7 9.9
-6 0 -7 3.4 11.4
-6 1 9 15.3 12.5
-6 1 9 -0.6 13
6 1 -9 -7.2 10.3
6 1 -9 -4.1 12.4
6 -1 -9 0.2 11.2
-6 -1 9 -5.5 12.3
6 -1 -9 -9.5 9.6
-6 -1 9 15.7 13.5
6 1 -8 252.57 19.5
6 1 -8 292.27 21.4
-6 1 8 290.47 20.2
-6 1 8 254.07 19.7
-6 -1 8 245.18 21.8
6 -1 -8 250.37 20.6
-6 -1 8 232.58 20.3
6 -1 -8 255.47 19.3
6 1 -7 2.9 8
6 1 -7 -6.4 6.8
-6 -1 7 10 7.8
6 -1 -7 -7.7 7.1
6 -1 -7 0 6.3
-6 -1 7 -4.3 8.9
-6 1 6 162.58 12.6
6 1 -6 143.19 12.9
6 1 -6 128.89 13
6 -1 -6 117.39 12.6
-6 -1 6 92.99 12.3
6 -1 -6 91.99 14.4
-6 -1 6 130.59 12.7
-6 1 5 13.1 5.2
6 1 -5 -2.6 5.4
-6 1 5 2.4 5
6 -1 -5 1.3 4.5
6 -1 -5 0.9 5.2
-6 -1 5 -5.9 5.1
6 1 -4 16.6 4.9
-6 1 4 17.4 5
-6 1 4 19.4 4.9
6 1 -4 10.2 5.1
-6 -1 4 7.8 4.9
-6 -1 4 9.9 4.9
6 -1 -4 15.4 5.2
-6 1 3 7.5 4.2
6 1 -3 0.3 3.5
6 1 -3 11.3 4.4
-6 1 3 7.8 4.1
6 -1 -3 2.6 4.2
-6 -1 3 3.6 4.1
6 -1 -3 1.8 3.8
-6 -1 3 1 4.1
-6 1 2 681.63 30.2
6 1 -2 715.43 30
-6 1 2 725.53 30.4
6 1 -2 708.23 29.9
-6 -1 2 719.73 30
-6 -1 2 743.43 30.1
6 -1 -2 731.23 30.4
6 -1 -2 710.23 30.6
-6 1 1 154.88 10.4
-6 1 1 147.29 10.5
6 1 -1 156.08 9.7
6 1 -1 139.49 9.3
-6 -1 1 161.38 9.7
6 -1 -1 148.29 10.6
6 -1 -1 155.28 10.3
-6 -1 1 140.89 9.4
-6 1 0 1253.67 50.39
6 1 0 1278.87 49.6
6 1 0 1212.68 49.5
-6 1 0 1242.48 50.29
6 -1 0 1222.88 50.39
6 -1 0 1228.58 50.29
-6 -1 0 1218.28 49.5
-6 -1 0 1289.37 49.6
6 1 1 25 5.4
6 1 1 21.1 4.9
-6 1 -1 22.9 5.6
-6 1 -1 22.4 5.6
6 -1 1 17.9 5.6
6 -1 1 21.2 5.4
-6 -1 -1 20.6 4.9
-6 -1 -1 19.1 5.1
6 1 2 340.17 17.4
-6 1 -2 313.97 17.8
-6 1 -2 310.27 17.2
6 1 2 290.37 16.5
6 -1 2 323.37 17.9
6 -1 2 309.97 17.1
-6 -1 -2 330.97 16.6
-6 -1 -2 321.27 17.1
6 1 3 53.59 7.1
-6 1 -3 57.79 7.8
-6 -1 -3 48.2 6.7
6 -1 3 47 7.5
-6 1 -4 -2.9 6.4
6 1 4 9.6 6.5
-6 1 -4 4.5 6.4
6 1 4 0.1 5.7
-6 -1 -4 7.2 5.9
6 -1 4 -2.9 7
-6 -1 -4 0 6.2
6 1 5 44.7 8.7
-6 1 -5 59.39 10.1
6 1 5 51.99 10.1
-6 1 -5 50.29 10
-6 -1 -5 57.79 9.1
-6 -1 -5 51.39 8.9
6 1 6 82.49 10.9
6 1 6 93.69 11.9
-6 1 -6 77.99 12.4
-6 -1 -6 56.39 10.8
-6 -1 -6 81.99 11.2
6 -1 6 44.1 11
6 -1 6 117.59 14.7
-6 1 -7 -4.2 10.9
6 1 7 9.1 10.9
-6 1 -7 15.5 12.2
-6 -1 -7 12 10.8
-6 -1 -7 6.9 11
6 -1 7 -15.7 10.9
6 -1 7 2.6 13.1
6 2 -8 13.7 10.9
-6 2 8 0 8.4
-6 2 8 -6 9.4
6 2 -8 12.7 8.9
-6 -2 8 7.1 9.9
6 -2 -8 -4.4 8.8
-6 -2 8 5.4 10.1
6 -2 -8 -4.7 7.6
6 2 -7 65.39 10.5
6 2 -7 62.89 10
-6 2 7 107.89 11.4
6 -2 -7 59.09 9.2
-6 -2 7 68.79 10.4
6 -2 -7 64.19 9.6
-6 -2 7 64.79 10.8
6 2 -6 148.09 14.2
6 2 -6 143.09 13.1
-6 2 6 156.48 12.9
-6 2 6 137.99 11.8
6 -2 -6 141.39 12.6
-6 -2 6 162.08 14.1
-6 -2 6 149.39 13.8
6 -2 -6 155.28 12.7
-6 2 5 11 5.5
6 2 -5 12.9 6
-6 2 5 3.5 4.9
-6 -2 5 2.3 5.5
6 -2 -5 10.9 5.2
-6 -2 5 7.6 5.8
6 -2 -5 5.8 5.5
-6 2 4 506.35 23.9
-6 2 4 540.65 23.9
6 2 -4 526.85 23.9
6 2 -4 517.75 24.1
-6 -2 4 521.85 24
6 -2 -4 522.55 23.9
-6 2 3 138.39 10.3
-6 2 3 129.89 10.1
6 2 -3 150.18 9.9
6 2 -3 141.59 9.9
6 -2 -3 147.29 10.1
-6 -2 3 140.19 9.8
6 -2 -3 149.59 10.8
-6 -2 3 142.09 10.2
-6 2 2 506.65 22.6
6 2 -2 472.75 21.6
-6 2 2 468.35 22.4
6 2 -2 506.05 21.6
-6 -2 2 503.45 21.7
6 -2 -2 499.55 22.7
-6 -2 2 479.85 21.5
6 -2 -2 471.55 22.4
6 2 -1 33.3 4.8
-6 2 1 35.3 6
6 2 -1 38.9 4.8
-6 2 1 33.4 6
-6 -2 1 33 4.8
6 -2 -1 32.7 6.3
-6 -2 1 38.4 5.1
6 -2 -1 34.4 5.7
-6 2 0 13.2 5.4
6 2 0 8.1 3.8
6 2 0 16.8 3.9
-6 2 0 13 5.3
-6 -2 0 13.8 4
6 -2 0 12.5 5.2
-6 -2 0 21.9 4.2
6 -2 0 10 5.5
6 2 1 16.5 4.4
-6 2 -1 8.2 5.3
6 2 1 15.7 4.9
-6 2 -1 14.9 5.7
6 -2 1 10.2 5.6
6 -2 1 14.7 5.8
-6 -2 -1 14.7 4.3
-6 -2 -1 10.3 4.2
6 2 2 286.07 15.6
-6 2 -2 295.17 17
-6 2 -2 282.67 16.6
6 2 2 273.97 15
6 -2 2 309.37 17.4
6 -2 2 270.87 16.5
-6 -2 -2 271.97 15.5
-6 -2 -2 287.97 15.1
-6 2 -3 166.08 13.7
-6 2 -3 190.98 14.2
6 2 3 160.58 11.7
-6 -2 -3 160.88 11.8
6 -2 3 157.28 13.4
6 2 4 287.77 16.9
6 2 4 308.57 16.7
-6 2 -4 295.07 19.3
-6 2 -4 297.07 19.2
6 -2 4 297.77 19.5
6 -2 4 282.17 19.5
-6 -2 -4 311.27 17.5
-6 -2 -4 284.77 17
-6 2 -5 3.7 15.2
6 2 5 8.3 6.6
6 2 5 7.6 6.7
-6 2 -5 -4.6 8.3
6 -2 5 5 9.4
-6 -2 -5 -8.7 6.3
-6 -2 -5 3.4 6.3
6 -2 5 -12.7 7.3
6 2 6 114.09 13.9
6 2 6 122.49 15
-6 2 -6 103.59 14.3
-6 2 -6 127.99 14.8
-6 -2 -6 124.69 15.2
-6 -2 -6 122.69 15.1
6 -2 6 159.68 17.7
6 -2 6 135.79 16.8
-6 2 -7 47.9 14.3
6 2 7 36.6 11.3
6 2 7 10.9 9.3
-6 2 -7 35.9 13.5
-6 -2 -7 43.5 11.2
-6 -2 -7 49.8 11.4
6 -2 7 52.89 13.7
6 -2 7 47.8 16.1
6 3 -8 84.89 12.9
6 3 -8 101.59 14.9
-6 3 8 81.19 11.2
-6 -3 8 107.59 14.3
6 -3 -8 100.19 12.5
6 -3 -8 93.89 11.6
-6 -3 8 65.49 13.2
6 3 -7 17.9 8.9
-6 3 7 13.6 8
6 3 -7 20.6 9.4
-6 3 7 15.7 7.4
6 -3 -7 12.4 7.8
-6 -3 7 17.3 9.1
-6 -3 7 23.1 9.3
6 -3 -7 16.4 7.3
6 3 -6 73.69 10.3
-6 3 6 92.59 9.9
6 3 -6 79.39 9.8
-6 -3 6 84.69 10.5
6 -3 -6 79.39 9.1
6 -3 -6 106.39 11.4
-6 -3 6 60.79 9.7
6 3 -5 133.49 12.8
6 3 -5 153.18 12
-6 3 5 150.48 11.6
-6 -3 5 171.18 12.9
-6 -3 5 152.48 13
6 -3 -5 159.18 12.1
6 -3 -5 169.88 12.2
6 3 -4 -1.5 4.9
-6 3 4 3.2 4.5
6 3 -4 8.4 4.9
-6 3 4 1 4.8
6 -3 -4 -2.5 4.5
6 -3 -4 -0.7 4.2
-6 -3 4 3.1 5.2
-6 -3 4 1.6 4.5
-6 3 3 169.68 11.4
-6 3 3 175.38 12.5
6 3 -3 178.08 11
6 3 -3 165.78 11.1
6 -3 -3 179.68 11.7
-6 -3 3 162.88 11.4
-6 3 2 243.08 14.7
6 3 -2 238.68 13.1
6 3 -2 254.77 13.1
-6 3 2 250.77 14.3
6 -3 -2 239.08 14.6
6 -3 -2 248.18 14.5
-6 -3 2 235.28 12.9
-6 -3 2 239.68 13
6 3 -1 484.75 20.4
6 3 -1 462.45 20.3
-6 3 1 417.36 21.9
-6 3 1 450.35 22.4
-6 -3 1 480.85 20.3
6 -3 -1 446.76 22.1
-6 -3 1 492.05 20.6
6 -3 -1 450.55 23
-6 3 0 394.66 19.9
-6 3 0 365.56 19.2
6 3 0 395.36 17
6 3 0 349.27 17.1
6 -3 0 356.26 19.8
6 -3 0 375.36 19.5
-6 -3 0 373.46 17.3
-6 -3 0 372.76 16.9
-6 3 -1 5.4 5.4
6 3 1 2.8 3.5
-6 3 -1 0.1 5
6 3 1 3.9 4.1
6 -3 1 -2.1 5.3
-6 -3 -1 1.2 3.8
-6 -3 -1 3.7 3.4
-6 3 -2 206.58 15.3
6 3 2 224.58 13
-6 3 -2 236.78 15.4
6 3 2 233.88 12.7
6 -3 2 241.58 15.9
-6 -3 -2 235.68 13.5
-6 -3 -2 242.28 12.8
6 3 3 346.07 17.4
6 3 3 369.16 17.1
-6 3 -3 334.57 20.3
-6 3 -3 355.86 20.5
-6 -3 -3 344.37 17.4
6 -3 3 348.87 20.5
6 -3 3 326.97 20.1
6 3 4 6.6 5.5
6 3 4 14.4 5.2
-6 3 -4 5.9 8
-6 3 -4 -1.9 7.9
6 -3 4 11.8 8.8
-6 -3 -4 1 4.9
6 -3 4 1.8 7.4
-6 -3 -4 3.2 5.2
6 3 5 167.78 13.1
-6 3 -5 180.08 18.1
6 3 5 147.09 13.5
-6 3 -5 189.38 17.9
-6 -3 -5 173.08 14
6 -3 5 172.08 17.3
-6 -3 -5 160.78 13.8
6 -3 5 162.98 18.4
-6 3 -6 53.89 12.4
6 3 6 61.99 9
-6 3 -6 63.59 13.2
6 3 6 67.39 9.2
6 -3 6 47.6 12.9
6 -3 6 75.39 15
-6 -3 -6 54.19 9.1
-6 -3 -6 50.29 9.5
6 3 7 18.4 9.9
6 3 7 9.5 8.5
-6 3 -7 15.3 14.4
-6 3 -7 21.7 14.3
-6 -3 -7 6.3 10.1
6 -3 7 -11.6 15.8
-6 -3 -7 7.9 9.3
6 -3 7 18.8 14.9
6 4 -8 -1 11.9
-6 4 8 -8.9 9.6
6 4 -8 1.9 10.5
-6 4 8 8.3 9
-6 -4 8 1.3 10.8
-6 -4 8 2.2 11.6
6 -4 -8 -6.1 8.8
6 -4 -8 -6.1 8.9
6 4 -7 81.09 12.3
6 4 -7 51.69 10.9
-6 4 7 69.39 9.1
-6 4 7 55.29 9.7
6 -4 -7 37 8.9
-6 -4 7 67.19 11.2
6 -4 -7 46.5 9.3
-6 -4 7 61.59 11.4
6 4 -6 58.39 9.9
6 4 -6 58.29 9.7
-6 4 6 69.79 9.3
6 -4 -6 61.79 8.7
6 -4 -6 56.09 8
-6 -4 6 51.29 9.7
-6 -4 6 56.89 9.4
-6 4 5 30.2 6.1
-6 4 5 27.9 6.9
-6 -4 5 38.3 8
6 -4 -5 30.3 6.7
6 -4 -5 23.8 8.6
-6 -4 5 31 7.5
-6 4 4 307.97 16.3
6 4 -4 284.97 19.2
6 4 -4 291.07 16.9
-6 4 4 318.97 17.7
-6 -4 4 317.57 17.1
-6 -4 4 293.07 17.1
6 -4 -4 322.37 16.9
6 -4 -4 301.27 17.2
-6 4 3 2.1 5.7
6 4 -3 11.4 5.2
-6 4 3 8.7 4.9
6 4 -3 7.3 4.4
6 -4 -3 11.7 5.6
-6 -4 3 10.5 4.8
6 -4 -3 5.2 5.2
-6 -4 3 15.9 5.3
6 4 -2 82.19 7.9
-6 4 2 101.89 10.4
6 4 -2 79.69 8.4
-6 4 2 86.99 9.8
6 -4 -2 94.99 10.4
-6 -4 2 84.29 8.2
6 4 -1 363.86 16.7
-6 4 1 352.46 18.9
-6 4 1 352.36 20.1
6 4 -1 368.96 16.6
6 -4 -1 353.76 20.3
-6 -4 1 352.76 16.7
-6 -4 1 358.46 16.5
-6 4 0 68.09 8.5
6 4 0 61.39 6.3
6 4 0 56.89 6.7
-6 4 0 48.4 8.2
-6 -4 0 54.59 6.2
-6 -4 0 69.09 6.8
6 -4 0 47.8 8.4
-6 4 -1 426.86 22
6 4 1 430.36 18.2
-6 4 -1 403.56 22.3
6 -4 1 460.85 22.9
-6 -4 -1 429.96 19.4
-6 -4 -1 416.66 18.4
6 -4 1 408.76 22.4
6 4 2 93.09 7.1
-6 4 -2 69.79 10
-6 4 -2 119.79 10.9
6 -4 2 85.79 10.2
-6 -4 -2 89.69 8.3
-6 -4 -2 86.29 8.2
-6 4 -3 100.99 11.7
6 4 3 99.19 8.8
-6 4 -3 139.39 14.3
6 4 3 121.79 8.7
6 -4 3 108.79 13.8
-6 -4 -3 118.89 8.3
-6 -4 -3 114.49 12.5
6 -4 3 108.99 13
-6 4 -4 26 11.8
-6 4 -4 41 10
6 4 4 34.7 5.8
6 -4 4 51.89 10.8
-6 -4 -4 37.3 6.2
-6 -4 -4 33.4 5.4
6 -4 4 43.6 9.8
-6 4 -5 15.5 10.4
6 4 5 10.5 6.2
-6 4 -5 11 10.6
-6 -4 -5 19.8 9.7
6 -4 5 26.1 11.4
6 -4 5 17.1 10.3
-6 -4 -5 19.3 6.7
-6 4 -6 34.1 12.6
-6 4 -6 -11.2 12.8
-6 -4 -6 7.6 7.6
6 -4 6 14.1 12.4
-6 -4 -6 17.2 6.9
6 -4 6 7.9 13.1
-6 5 7 51.19 10.4
6 5 -7 33.1 12.1
6 5 -7 35.7 11.2
-6 5 7 35.8 8.4
6 -5 -7 49.3 9.7
-6 -5 7 49.8 11.1
-6 -5 7 75.69 12.8
6 -5 -7 56.49 9.4
-6 5 6 17.7 5.8
-6 5 6 -4.8 7.9
6 5 -6 17.1 9.1
6 5 -6 2.6 8.2
-6 -5 6 -2.7 8.3
6 -5 -6 -2.2 7
-6 -5 6 10.5 8.2
6 -5 -6 0 6.3
6 5 -5 258.27 14.9
-6 5 5 239.68 16.2
-6 5 5 197.48 16
6 -5 -5 220.88 15.7
-6 -5 5 208.18 16.6
6 -5 -5 206.18 14.3
-6 -5 5 187.58 15.3
6 5 -4 16.4 6.3
-6 5 4 28.6 7.5
-6 5 4 36.8 6.2
6 5 -4 29.9 10.4
6 -5 -4 25.6 7.1
6 -5 -4 21.5 6
-6 -5 4 21.7 6.6
-6 -5 4 32.1 7.2
-6 5 3 130.19 11.4
6 5 -3 103.19 11.4
-6 5 3 110.29 12.1
6 5 -3 138.49 10.4
6 -5 -3 121.59 12.3
-6 -5 3 120.79 11
-6 -5 3 127.69 11.2
6 -5 -3 147.69 12.2
6 5 -2 -3.3 4.1
6 5 -2 3.8 4
-6 5 2 0.2 5.6
-6 5 2 1.3 5.8
6 -5 -2 0 6.4
6 -5 -2 -0.6 5.8
-6 -5 2 -1.5 4.5
-6 -5 2 1.9 4.2
-6 5 1 233.88 15.4
-6 5 1 229.08 17
6 5 -1 231.88 12.4
6 5 -1 242.38 12.6
-6 -5 1 227.08 12.4
6 -5 -1 248.98 17.5
6 -5 -1 212.68 15.2
6 5 0 378.46 16.1
-6 5 0 328.87 23.3
-6 5 0 360.16 19.6
-6 -5 0 374.36 16.7
-6 -5 0 332.87 16
6 -5 0 362.56 20.1
6 -5 0 368.36 21.3
6 5 1 2.3 2.5
-6 5 -1 8.7 6.4
6 5 1 0.4 3.4
-6 -5 -1 -0.3 2.8
6 -5 1 -2.3 6.5
6 -5 1 -1.5 7.1
-6 -5 -1 0.3 3.6
6 5 2 29 2.9
6 5 2 26.3 2.7
6 -5 2 35.6 8.9
6 -5 2 14.3 7.7
-6 -5 -2 37.2 4.5
-6 -5 -2 28.2 4
-6 5 -3 242.58 18.8
6 5 3 225.58 9.3
-6 5 -3 243.48 19.4
6 -5 3 252.17 18.8
6 -5 3 237.38 21.7
-6 -5 -3 244.48 11.1
-6 -5 -3 252.77 11.1
-6 5 -4 35.8 10.8
-6 5 -4 29.9 10.7
6 5 4 34 3.2
6 5 4 41.7 3.7
-6 -5 -4 29.5 4.3
6 -5 4 29 10.7
6 -5 4 24.8 10.5
-6 5 -5 208.78 21.7
6 5 5 228.98 10.5
6 5 5 213.58 10.8
-6 5 -5 259.17 24.1
6 -5 5 215.28 22.2
6 -5 5 219.98 21.9
-6 -5 -5 226.28 11.9
-6 -5 -5 234.38 12.9
-6 5 -6 -15.1 14.4
-6 5 -6 -4.9 13.2
6 5 6 -4.1 4.6
6 -5 6 29.7 14.3
-6 -5 -6 12.8 5.6
-6 -5 -6 3.2 6.4
6 -5 6 -5.8 13.3
-6 6 6 12.5 6.7
-6 6 6 9.6 8.6
6 6 -6 0.3 9.8
-6 -6 6 19.8 8.9
-6 -6 6 1.6 9.7
6 -6 -6 -0.7 6.8
6 -6 -6 10.1 8.2
6 6 -5 29.8 9.2
-6 6 5 20.2 8.1
-6 -6 5 18 7.6
6 -6 -5 26.7 8.1
6 -6 -5 24 6.8
-6 -6 5 32.5 9.4
-6 6 4 2.6 5.5
6 6 -4 17.9 7
6 6 -4 -1.4 6
-6 6 4 12.1 7.2
-6 -6 4 8 6.6
-6 -6 4 1.8 6.9
6 -6 -4 -5.6 6.6
6 -6 -4 -5.1 5.5
6 6 -3 51.39 7.1
-6 6 3 43.4 8
-6 6 3 47.9 7.4
-6 -6 3 57.09 7.8
6 -6 -3 62.19 8.4
6 -6 -3 31.9 10.6
-6 -6 3 62.99 7.6
6 6 -2 6.7 6.1
-6 6 2 16.7 6.9
6 6 -2 7.7 4.7
-6 6 2 -1 6.4
-6 -6 2 2.6 4.9
-6 -6 2 3 4.9
6 -6 -2 9.1 7.7
6 6 -1 199.58 11.3
-6 6 1 188.58 14.8
-6 6 1 171.68 16.1
6 6 -1 187.68 11.4
6 -6 -1 195.48 17.2
-6 -6 1 190.08 11.4
-6 -6 1 188.18 11.4
-6 6 0 49.3 10.3
-6 6 0 65.69 9.1
6 6 0 54.99 6.1
6 6 0 59.39 7
6 -6 0 54.69 10.4
-6 -6 0 48.7 5.8
6 -6 0 50.19 9.3
-6 6 -1 296.57 18.7
-6 -6 -1 280.17 12.1
-6 -6 -1 266.57 12.9
6 -6 1 271.67 20.5
6 -6 2 10.2 8.8
6 -6 2 7.7 7.9
-6 6 -3 227.28 20.2
-6 6 -3 203.38 19.9
6 -6 3 233.48 20.9
6 -6 3 235.98 19.2
-6 6 -4 6.1 11.4
-6 6 -4 -2.3 10.9
6 -6 4 -7.5 10.9
6 -6 4 -1.6 9.8
-6 6 -5 5.8 12.9
-6 6 -5 -1 13.8
6 -6 5 -9 12.9
6 -6 5 8.9 12.6
-6 7 5 255.57 14.9
6 7 -5 234.18 19.8
-6 7 5 209.18 16.9
-6 -7 5 219.68 19.6
6 -7 -5 227.38 15.5
6 -7 -5 216.38 17.8
-6 -7 5 212.98 18.1
6 7 -4 4.1 6.9
-6 7 4 -7.5 6.8
-6 7 4 -2.1 5.8
6 7 -4 2.2 8.2
-6 -7 4 -2 6.6
-6 -7 4 -4.8 7.4
6 -7 -4 -1.3 6.1
6 -7 -4 -1.3 7.4
6 7 -3 231.98 15.6
6 7 -3 218.78 14.7
-6 7 3 194.78 15.7
6 -7 -3 212.78 16.4
-6 -7 3 221.68 15.1
-6 -7 3 221.28 15.7
6 -7 -3 195.28 16
-6 7 2 25.8 7.5
6 7 -2 26.3 6
6 7 -2 12.2 6.1
6 -7 -2 33.2 9.4
6 -7 -2 16.6 8
-6 -7 2 26.1 5.9
-6 -7 2 21.5 6.2
-6 7 1 30.8 7.9
6 7 -1 31.7 5.5
-6 -7 1 35.3 5.6
6 -7 -1 33.3 10.5
-6 -7 1 24.6 5.6
6 -7 -1 21.8 8.1
-6 7 0 20.6 9.2
6 7 0 -0.8 3.2
-6 7 0 -11.3 6.8
-6 -7 0 0.9 3.5
6 -7 0 1.3 9.4
-6 7 -1 26.1 8.8
-6 7 -1 0.9 9.6
6 -7 1 10.2 10.4
6 -7 1 20.5 8.7
-6 7 -2 25.3 11.3
-6 7 -2 -1.9 8.7
6 -7 2 19.4 9.8
6 -7 2 6.7 10.6
-6 7 -3 163.18 17.9
-6 7 -3 193.18 24.5
6 -7 3 161.48 19.2
6 -7 3 152.48 17.4
-6 7 -4 10 12.8
-6 7 -4 10.1 16.5
6 -7 4 -15.1 11.2
6 -7 4 -6.1 12.9
-6 8 4 -0.1 6.4
6 8 -4 9.9 7.7
6 8 -4 5.3 10.1
-6 -8 4 8.9 8
-6 -8 4 -1.6 9.7
6 -8 -4 -1.7 6.8
6 -8 -4 -6.4 7.5
-6 8 3 6.3 6.9
6 8 -3 5.2 6.9
6 8 -3 11.6 8.1
-6 8 3 -0.1 7
-6 -8 3 14.2 8.2
-6 -8 3 4.7 7.1
6 -8 -3 7.2 7.6
6 -8 -3 6.6 7.8
6 8 -2 12.5 6.1
-6 8 2 9.7 8.1
-6 8 2 -0.5 6.9
-6 -8 2 5.9 6
6 -8 -2 15 9.4
-6 -8 2 14.4 7
6 8 -1 155.58 10.7
-6 8 1 175.58 15.7
-6 8 1 120.19 14.1
-6 -8 1 161.38 11.6
-6 -8 1 155.18 11.8
6 -8 -1 159.08 19.7
-6 8 0 26.8 12.2
-6 8 0 35 8.9
6 -8 0 50.49 9.9
-6 -8 0 34.1 3.5
6 -8 0 26.9 12.1
-6 8 -1 229.08 24.6
-6 8 -1 302.27 20.1
6 -8 1 277.27 25.9
6 -8 1 218.18 20.9
-6 8 -2 21.6 14.3
-6 8 -2 11.5 10.7
6 -8 2 11.1 10.7
6 -8 2 36.8 14.8
-7 0 8 60.09 12.3
7 0 -8 24.7 10.9
7 0 -8 59.89 10.6
-7 0 8 57.59 11.4
7 0 -7 3 7
-7 0 7 -7.3 7.6
7 0 -7 8 8.3
-7 0 7 -10.3 7.3
-7 0 6 43.4 8
-7 0 6 47.2 8.5
7 0 -6 32 8.3
7 0 -5 4.6 6
7 0 -5 2.6 5.2
-7 0 5 -2 5.4
-7 0 4 961.7 39.2
7 0 -4 959.7 39.3
-7 0 4 977.3 39.3
7 0 -4 809.82 38.4
-7 0 3 1.3 4.2
7 0 -3 -2.5 4.4
-7 0 3 -0.8 4.4
7 0 -3 6.7 4.5
-7 0 2 751.32 31.3
-7 0 2 714.83 31.1
7 0 -2 714.33 31.3
7 0 -2 720.03 31
-7 0 1 3.4 3.9
-7 0 1 -6.8 3.9
7 0 -1 -2.8 4.3
7 0 -1 3.4 4.1
-7 0 0 176.58 12.1
7 0 0 182.88 12.1
7 0 0 168.28 12
-7 0 0 178.88 12
7 0 1 -4.7 5
-7 0 -1 4.5 4.9
-7 0 -1 2.1 4.9
7 0 1 -2.4 4.7
7 0 2 81.09 10.2
-7 0 -2 54.49 7.8
7 0 2 72.09 8.8
-7 0 -3 0.3 6.3
-7 0 -3 -2.6 5.5
7 0 3 1.2 5.8
7 0 4 547.85 28.3
-7 0 -4 544.45 27.6
-7 0 -5 -2.1 8.4
7 0 5 3.4 6.7
-7 0 -5 -7.8 7.7
-7 0 -6 101.89 14
7 0 6 138.19 15.9
7 0 6 102.39 13.5
-7 0 -6 143.39 17.7
-7 0 -7 -17.8 12.4
7 0 7 -6.8 11.8
-7 0 -7 -0.8 12.4
7 0 7 -12.1 13.5
7 1 -8 333.67 23
-7 1 8 377.56 24.2
7 1 -8 340.07 24.6
7 -1 -8 369.16 24.1
-7 -1 8 375.86 25.2
7 -1 -8 365.26 23.5
-7 -1 8 391.56 24.6
-7 1 7 35.1 9.5
7 1 -7 14.8 8.8
7 1 -7 17.9 8
-7 -1 7 23.1 9
-7 -1 7 26.1 9
7 -1 -7 29.5 8.7
7 -1 -7 6.2 7.2
7 1 -6 447.46 27.9
-7 -1 6 505.35 25.1
-7 -1 6 487.05 25.4
7 -1 -6 491.65 24.7
7 -1 -6 484.55 24.6
-7 1 5 10.8 5.8
-7 1 5 5.7 5.9
7 1 -5 9.1 5.7
7 1 -5 14.3 6.5
7 -1 -5 7.1 6
7 -1 -5 11.4 5.6
-7 -1 5 10.4 6.2
-7 -1 5 14.8 6.2
7 1 -4 3.6 5.3
-7 1 4 -6.2 4.5
-7 1 4 -1.1 4.8
-7 -1 4 -3.3 5
7 -1 -4 0.6 5.2
-7 1 3 5.6 4.8
-7 1 3 -0.7 4.5
7 1 -3 -3.1 4
7 1 -3 -0.4 4.4
-7 -1 3 -1.3 4.4
7 -1 -3 9.7 4.8
-7 -1 3 2.8 4.3
7 -1 -3 3.4 4.8
7 1 -2 163.68 10.6
-7 1 2 154.18 11.2
-7 1 2 142.89 10.9
7 1 -2 150.78 10.5
-7 -1 2 141.89 10.3
-7 -1 2 143.89 10.5
7 -1 -2 154.08 11
7 -1 -2 160.38 11.5
-7 1 1 1 4.1
-7 1 1 -1.5 4.8
7 1 -1 2 4.1
7 1 -1 -2.2 3.5
7 -1 -1 1.9 4
-7 -1 1 0.2 3.8
-7 -1 1 4.5 4.2
7 -1 -1 2.7 5
-7 1 0 941.91 40.2
7 1 0 947.11 39.5
7 1 0 958.6 39.4
-7 1 0 966.9 40.3
-7 -1 0 930.71 39.3
7 -1 0 973.2 40.4
-7 -1 0 928.91 39.5
7 -1 0 945.31 40.4
7 1 1 25.4 6.3
7 1 1 23.7 5.8
-7 1 -1 22.1 6.3
-7 1 -1 22.2 6.6
-7 -1 -1 23.1 5.7
7 -1 1 25.1 6.1
7 -1 1 27.2 6.8
-7 -1 -1 29.9 6.1
-7 1 -2 625.14 29.7
7 1 2 649.54 29.3
7 1 2 669.93 29.9
7 -1 2 617.94 29.7
7 -1 2 670.63 30.6
-7 -1 -2 646.34 29.2
7 1 3 3.2 5.6
-7 1 -3 -0.8 6.2
-7 1 -3 2.7 6
-7 -1 -3 6.3 6.4
-7 -1 -3 3.1 5.7
7 -1 3 -4.4 5.7
-7 1 -4 18.6 8.1
-7 1 -4 29 11
7 1 4 19.2 7.2
7 1 4 31.3 8.4
-7 -1 -4 19.3 9
-7 -1 -4 16.8 7.3
-7 1 -5 3.1 9
7 1 5 -10.3 10.2
7 1 5 15.8 8.6
-7 1 -5 26.1 9.8
-7 -1 -5 21.9 8.7
7 -1 5 11.5 10.1
-7 -1 -5 19.4 8.9
-7 1 -6 80.09 13.3
7 1 6 50.69 11.3
-7 1 -6 44.2 12.2
7 1 6 60.19 11.8
-7 -1 -6 66.39 12.3
-7 -1 -6 81.49 12.5
7 -1 6 65.19 16
7 -1 6 55.79 11.8
7 1 7 9.3 12
-7 1 -7 26.4 13.9
-7 1 -7 2.9 13.5
7 -1 7 49.8 24.4
-7 -1 -7 28.1 12.8
-7 -1 -7 13 12
7 -1 7 0.9 15.2
7 2 -8 5.6 9.3
7 2 -8 15.4 11.1
-7 2 8 -3.1 9.9
-7 2 8 9.3 8.9
7 -2 -8 4.2 8.2
7 -2 -8 -6.6 16
-7 -2 8 5.6 10.2
-7 -2 8 -4.2 10.2
-7 2 7 86.89 10.5
7 2 -7 121.09 14.1
7 2 -7 113.49 13
7 -2 -7 101.39 11.9
-7 -2 7 96.99 12.2
-7 -2 7 95.69 12.3
7 -2 -7 93.99 10.9
7 2 -6 84.39 11.3
7 2 -6 94.29 11.1
7 -2 -6 79.79 9.8
7 -2 -6 111.49 11.5
-7 -2 6 77.49 10.6
-7 -2 6 91.09 10.7
7 2 -5 45.7 7.4
-7 2 5 59.69 9.2
7 2 -5 49.5 11.6
-7 2 5 65.79 8.4
-7 -2 5 63.29 8.3
7 -2 -5 59.99 7.8
-7 -2 5 45.2 8.1
7 -2 -5 60.19 8.1
7 2 -4 492.65 23.2
7 2 -4 476.95 23.3
-7 2 4 499.95 23.1
-7 2 4 470.65 23.2
7 -2 -4 489.75 23.4
7 -2 -4 490.85 23.4
-7 -2 4 495.55 23.3
-7 -2 4 474.55 23.1
7 2 -3 -0.6 4.7
-7 2 3 0.7 4.8
7 2 -3 -1.5 4.2
-7 2 3 -1.5 4.8
-7 -2 3 2.4 4.4
7 -2 -3 2.2 5.1
-7 2 2 434.46 20.8
7 2 -2 417.56 19.7
7 2 -2 426.96 19.6
-7 2 2 397.26 20.8
-7 -2 2 434.46 19.6
7 -2 -2 385.36 20.3
-7 -2 2 411.46 19.7
7 -2 -2 391.56 20.9
-7 2 1 342.37 18.1
-7 2 1 338.07 18.3
7 2 -1 331.07 16.6
7 2 -1 315.47 16.6
7 -2 -1 351.56 18.7
7 -2 -1 317.47 17.8
-7 -2 1 344.77 16.7
-7 -2 1 334.57 16.7
-7 2 0 65.89 8.5
-7 2 0 67.59 8.4
7 2 0 70.69 8.2
7 2 0 76.59 7.8
7 -2 0 63.99 8.2
7 -2 0 60.39 8.1
-7 -2 0 66.09 8.1
-7 -2 0 66.79 8.1
-7 2 -1 73.49 9.1
7 2 1 85.09 9.3
-7 2 -1 94.49 10.9
7 2 1 86.19 9.1
-7 -2 -1 87.89 9.5
7 -2 1 85.49 11
7 -2 1 98.49 11
-7 -2 -1 100.79 9.4
-7 2 -2 71.19 8.9
7 2 2 54.99 7.1
7 2 2 61.29 7.8
-7 -2 -2 58.79 7.2
7 -2 2 66.69 8.7
7 2 3 -3.4 5.4
-7 2 -3 1.8 6.3
-7 2 -3 2.2 7.2
-7 -2 -3 1.2 5.7
-7 -2 -3 1.8 5.2
7 -2 3 0.6 6.7
-7 2 -4 242.18 19.3
7 2 4 230.98 16.4
-7 2 -4 222.38 18.2
7 2 4 255.97 16.7
7 -2 4 258.77 18.3
-7 -2 -4 243.28 16.1
7 -2 4 223.58 19.1
-7 -2 -4 246.98 17.2
7 2 5 11.2 8.2
-7 2 -5 11.2 9.9
-7 2 -5 1.6 9.1
7 -2 5 -7.8 16.9
-7 -2 -5 15.3 8.2
7 -2 5 18.8 9.8
-7 -2 -5 24.1 8.3
7 2 6 66.79 11.1
7 2 6 71.59 10.8
-7 2 -6 56.89 13.3
-7 2 -6 61.49 13.6
7 -2 6 83.89 13.8
-7 -2 -6 52.19 10.8
-7 -2 -6 95.99 12.5
7 -2 6 86.09 16.2
7 3 -8 104.69 15.8
7 3 -8 157.98 18.1
-7 3 8 139.79 17.1
7 -3 -8 129.09 14.4
-7 -3 8 164.58 18.9
7 -3 -8 111.69 13.1
-7 -3 8 124.89 15.7
-7 3 7 -10.9 7.2
7 3 -7 -2.5 8.9
7 3 -7 -0.6 8.1
-7 -3 7 -4 8.7
7 -3 -7 6.2 7.9
7 -3 -7 3.7 7.4
-7 -3 7 -4.1 8.3
7 3 -6 124.69 14.2
-7 3 6 174.68 14.4
7 3 -6 139.19 14.9
-7 -3 6 161.78 15.1
7 -3 -6 128.89 13.7
-7 -3 6 140.79 14.5
7 -3 -6 149.59 13.9
-7 3 5 112.69 11.4
-7 3 5 112.39 11.5
7 3 -5 112.59 11.6
7 3 -5 99.69 12.7
-7 -3 5 129.19 12.6
7 -3 -5 105.79 11.8
7 3 -4 2 4.8
7 3 -4 4.6 6
-7 3 4 6.3 5.4
-7 3 4 8.8 5.9
7 -3 -4 3.6 5.4
-7 -3 4 14.7 5.9
7 -3 -4 3.2 5.5
-7 -3 4 16 5.8
7 3 -3 283.57 15.6
-7 3 3 273.07 16.4
-7 3 3 311.17 16.5
7 3 -3 291.47 15.5
-7 -3 3 287.27 15.6
-7 -3 3 278.37 15.7
7 -3 -3 264.57 16.2
7 -3 -3 277.77 16.5
-7 3 2 92.69 11.1
7 3 -2 85.99 8.5
-7 3 2 91.89 10.6
7 3 -2 102.19 8.5
-7 -3 2 83.09 8.3
7 -3 -2 92.99 11
7 -3 -2 82.59 8.7
7 3 -1 62.99 7.6
-7 3 1 52.19 8.2
-7 3 1 51.69 7.7
7 3 -1 45.3 5.7
7 -3 -1 51.69 8.4
-7 -3 1 49.6 5.9
-7 3 0 368.86 19.8
-7 3 0 368.86 20.6
7 3 0 389.26 17.6
7 3 0 358.36 17.7
-7 -3 0 364.36 17.3
-7 -3 0 329.17 17.4
7 -3 0 371.26 20.7
7 3 1 71.79 8.9
7 3 1 76.19 8.1
-7 3 -1 56.19 8.6
-7 3 -1 60.29 8.8
-7 -3 -1 45.5 5.9
7 -3 1 55.59 8.8
-7 3 -2 244.78 15.5
7 3 2 196.88 12.3
7 3 2 181.58 13
-7 3 -2 175.28 15.1
-7 -3 -2 174.88 12.1
7 -3 2 196.48 16
7 -3 2 171.78 15.2
7 3 3 35.2 6.7
-7 3 -3 37.4 9.4
-7 -3 -3 48.4 7.2
-7 -3 -3 48.4 7
7 3 4 14.2 6.2
7 3 4 25 6.8
-7 3 -4 22.3 9.8
-7 3 -4 25.2 9.4
7 -3 4 23.8 12.8
-7 -3 -4 22.6 7
7 -3 4 18.3 9.4
-7 -3 -4 10.6 6.4
-7 3 -5 183.88 19.6
7 3 5 140.29 13.8
-7 3 -5 159.98 18.5
7 -3 5 130.49 15.2
-7 -3 -5 146.39 14.7
7 -3 5 158.38 17.5
-7 -3 -5 156.28 14.2
-7 3 -6 11.1 12.9
7 3 6 11.7 7.8
7 3 6 16.5 9.1
-7 3 -6 27.3 12.7
-7 -3 -6 12.1 9.3
7 -3 6 26.4 12.6
7 -3 6 27.2 14.8
-7 -3 -6 4.2 8.7
7 4 -7 291.97 22.1
-7 4 7 271.97 18.9
-7 4 7 274.27 20.4
7 4 -7 252.67 20.8
-7 -4 7 292.57 21.1
-7 -4 7 290.17 22.6
7 -4 -7 286.97 19.7
7 -4 -7 311.27 20.4
7 4 -6 15.7 8.7
-7 4 6 30.9 6.9
-7 4 6 18.2 8
7 4 -6 28.4 12.2
7 -4 -6 10.2 7.3
7 -4 -6 16.2 7.4
-7 -4 6 25.1 8.9
-7 -4 6 22.8 8.2
-7 4 5 37.4 8.1
7 -4 -5 41.8 7.9
7 -4 -5 45.2 8
-7 -4 5 40.3 8.1
-7 -4 5 51.19 8.9
-7 4 4 163.68 12.2
7 4 -4 154.78 12.4
-7 4 4 144.89 14
-7 -4 4 151.88 12.7
7 -4 -4 173.48 13.5
7 -4 -4 155.08 13.2
7 4 -3 10.3 5
-7 4 3 -7.9 5.9
7 4 -3 7.4 5.4
-7 4 3 11.7 6.2
-7 -4 3 3.5 5.2
7 -4 -3 0.3 5.6
-7 -4 3 7 5.2
7 -4 -3 10.8 6.3
7 4 -2 290.47 14.8
7 4 -2 268.77 14.8
-7 4 2 266.07 17
-7 4 2 270.37 17.2
-7 -4 2 290.47 15.1
7 -4 -2 245.88 17.2
7 -4 -2 289.87 17.5
-7 -4 2 263.37 14.8
-7 4 1 128.39 13.5
7 4 -1 147.29 10.4
7 4 -1 161.78 10.5
-7 4 1 155.68 13.3
7 -4 -1 164.18 13.3
-7 -4 1 159.28 10.2
-7 -4 1 167.28 10.5
7 -4 -1 158.38 15.2
-7 4 0 7.5 6.9
7 4 0 15 4.6
7 4 0 6.7 4.2
-7 4 0 18.8 7.3
-7 -4 0 6 4
7 -4 0 9 6.5
7 -4 0 14.5 7.4
7 4 1 358.66 17.6
-7 4 -1 307.17 23.1
7 4 1 356.76 16.3
-7 -4 -1 346.37 16.4
7 -4 1 340.37 20.7
7 -4 1 323.37 20.8
7 4 2 125.89 9.3
7 4 2 119.69 10.9
-7 4 -2 80.19 11.5
-7 4 -2 109.39 13.8
7 -4 2 115.09 14.1
-7 -4 -2 135.59 9.7
7 4 3 154.28 11
-7 4 -3 141.29 16.6
-7 4 -3 149.59 16
-7 -4 -3 153.88 11.1
7 -4 3 143.99 17.3
7 -4 3 119.49 13.4
-7 -4 -3 157.28 11.5
-7 4 -4 100.49 13.7
7 4 4 82.69 12.5
-7 4 -4 84.69 12.9
7 -4 4 79.79 12.8
-7 -4 -4 83.59 10.3
7 -4 4 86.09 13.7
-7 -4 -4 96.39 11
-7 4 -5 4.2 11.9
7 4 5 2.2 9.2
-7 4 -5 -1.5 11.4
-7 -4 -5 4.7 6.9
7 -4 5 -15.1 11.4
7 -4 5 -11.5 10.9
-7 -4 -5 10.7 6.4
-7 4 -6 -14.3 13.2
7 4 6 11.9 8.6
-7 4 -6 22.5 13.5
7 4 6 3.8 7.1
7 -4 6 -0.6 13
-7 -4 -6 -5.3 7.5
-7 -4 -6 12.9 8.7
7 -4 6 0.7 14.9
7 5 -7 -1.4 9.9
-7 5 7 11.3 10.1
7 5 -7 9.3 11.5
-7 5 7 15.5 8.5
7 -5 -7 -12.3 8.3
-7 -5 7 5.8 10
7 -5 -7 15.8 9.1
-7 -5 7 3.5 11.1
-7 5 6 -6 8.4
7 5 -6 -0.1 9
-7 5 6 4 6.8
-7 -5 6 23.4 8.7
7 -5 -6 -4.6 7.5
-7 -5 6 -10.2 8.4
7 -5 -6 -7.5 7.1
-7 5 5 256.17 18.8
7 5 -5 317.17 18.1
-7 -5 5 281.77 18
-7 -5 5 265.87 19.1
7 -5 -5 269.67 18.7
7 -5 -5 271.57 17.7
-7 5 4 26.7 8.5
7 5 -4 29.6 7
-7 5 4 45.6 8.8
-7 -5 4 24.4 7.6
7 -5 -4 33.3 8.2
7 -5 -4 42.5 8.1
-7 -5 4 20 7.2
-7 5 3 364.06 21.3
-7 5 3 379.26 20.9
7 5 -3 378.86 20
7 5 -3 387.56 19.6
-7 -5 3 379.86 19.9
7 -5 -3 396.66 22
7 5 -2 -2.8 5.6
-7 5 2 4.3 6.9
-7 5 2 10.2 7.1
7 5 -2 4.8 4.5
-7 -5 2 8.7 4.9
7 -5 -2 -6.9 7.2
-7 -5 2 6.3 4.7
7 -5 -2 -3.3 6.6
7 5 -1 32.8 5.5
-7 5 1 38.6 8.1
-7 5 1 27.3 8.6
7 5 -1 33.9 5.5
7 -5 -1 26.6 8.1
7 -5 -1 35 9.4
-7 -5 1 23.5 5
-7 -5 1 28.8 5.3
7 5 0 0 3.7
7 5 0 9.8 4.2
-7 5 0 6.6 7
7 -5 0 11.8 8.3
-7 -5 0 -1.4 3.7
-7 5 -1 12.4 6.9
7 5 1 7 3.6
7 5 1 3.4 4.7
7 -5 1 13.9 8.6
7 -5 1 7.3 7.7
-7 -5 -1 5.4 5.5
7 5 2 164.48 9.3
-7 5 -2 158.58 15.8
7 -5 2 164.08 16.8
-7 -5 -2 173.68 9.8
7 5 3 47.1 5.6
7 5 3 31.2 3.9
-7 5 -3 24.3 10.5
7 -5 3 35.2 10.4
-7 -5 -3 32.2 4.8
7 -5 3 30.8 10.3
7 5 4 8.5 3.9
-7 5 -4 2.5 10.6
-7 5 -4 -19 9.4
7 5 4 14.8 3.8
7 -5 4 12.6 11
-7 -5 -4 4.7 4.4
-7 -5 -4 6.1 4.6
7 -5 4 27.9 10.9
7 5 5 133.49 9.2
-7 5 -5 116.99 17
-7 5 -5 103.99 17
7 -5 5 119.99 16.8
7 -5 5 125.99 17.3
-7 -5 -5 112.39 12.5
-7 -5 -5 146.29 11.4
-7 6 6 9.8 9.7
7 6 -6 35.8 11.3
7 6 -6 16.3 11.1
-7 6 6 13.9 7.8
-7 -6 6 26.1 9.6
7 -6 -6 9.9 9.4
-7 -6 6 2.3 10.5
7 -6 -6 7.7 8.1
-7 6 5 71.99 11
7 6 -5 60.19 11
-7 6 5 73.99 9
-7 -6 5 52.09 9.5
7 -6 -5 66.69 9.6
-7 -6 5 72.29 11.3
7 -6 -5 70.59 10.4
7 6 -4 4.8 6.3
-7 6 4 8.3 8.5
7 6 -4 9.6 7.8
-7 6 4 -2.9 6.4
7 -6 -4 2.3 7.8
-7 -6 4 -4.6 7.1
7 -6 -4 -2.6 7.1
-7 -6 4 7.9 7.1
-7 6 3 1.2 7.5
7 6 -3 9.3 5.6
-7 -6 3 11.8 6.7
7 -6 -3 -5.8 7.7
7 -6 -3 7.6 7.3
-7 -6 3 -1.6 5.5
7 6 -2 3.1 5.2
-7 6 2 -4.7 6.7
7 6 -2 1.6 5
7 -6 -2 -4.8 8.1
-7 -6 2 0.2 5.2
7 -6 -2 -11.3 8
-7 -6 2 1 5.4
7 6 -1 234.68 13.5
7 6 -1 243.48 13.7
-7 6 1 249.08 17.8
7 -6 -1 222.68 20.5
-7 -6 1 257.97 14
-7 -6 1 219.38 13.5
7 -6 -1 258.27 17.6
7 6 0 1.8 4.6
-7 6 0 11.3 7.9
7 6 0 7.6 3.9
-7 -6 0 4.5 4.4
7 -6 0 5.9 8.2
7 -6 0 6.2 9.1
7 6 1 189.28 9.2
7 6 1 204.78 10
-7 -6 -1 184.38 10.1
7 -6 1 181.28 19.7
-7 6 -2 -3.9 10.3
-7 6 -2 56.29 11.2
7 -6 2 30.8 9.8
-7 -6 -2 31.2 3.9
7 -6 2 12.6 14.4
-7 6 -3 81.29 13.6
-7 6 -3 51.89 12.8
7 -6 3 43.9 12.4
7 -6 3 58.09 11.8
-7 6 -4 10.3 12.5
-7 6 -4 -15.1 12.4
7 -6 4 12.7 11.6
7 -6 4 3.7 12.3
-7 7 5 116.39 13.4
7 7 -5 74.79 12.9
-7 7 5 93.59 12.2
-7 -7 5 74.39 12.7
7 -7 -5 83.59 12.1
7 -7 -5 82.59 10.3
-7 -7 5 97.79 12.4
-7 7 4 29.6 8.1
7 7 -4 20.2 7.9
-7 7 4 11.8 8.5
7 7 -4 28.3 9.8
7 -7 -4 9.9 8.2
-7 -7 4 19.7 8.8
7 -7 -4 14.8 9
-7 -7 4 23.8 8.2
-7 7 3 333.87 21.5
7 7 -3 342.67 20.4
7 7 -3 341.37 19.4
-7 7 3 360.76 21.1
-7 -7 3 339.77 19.7
-7 -7 3 342.07 20.3
7 -7 -3 356.86 22
7 -7 -3 373.26 22.6
7 7 -2 4.4 5.7
-7 7 2 3.1 8.2
-7 7 2 6.1 8.4
7 -7 -2 7.4 8.3
-7 -7 2 0.1 6.1
-7 -7 2 1.8 5.4
7 -7 -2 -14 9.4
-7 7 1 89.99 12.8
-7 7 1 112.69 14.3
7 7 -1 98.89 9.9
7 -7 -1 99.89 14.2
7 -7 -1 102.79 12.3
-7 -7 1 110.39 10.7
-7 7 0 40.6 9.7
-7 7 0 57.39 12.4
7 7 0 42.3 5.2
7 7 0 32.2 4.2
7 -7 0 31.6 11.7
-7 -7 0 36.2 5.6
-7 -7 0 40 5.2
-7 7 -1 7.4 11.2
7 -7 1 0 8.9
7 -7 1 -2.9 11.5
-7 7 -2 1.3 10.3
-7 7 -2 -7.7 11.9
7 -7 2 22.4 12.2
7 -7 2 -10.5 9.1
-7 7 -3 71.09 15.8
-7 7 -3 56.39 14.1
7 -7 3 80.99 15.6
7 -7 3 74.79 14
-7 8 3 3.3 8.4
-7 8 3 13.3 8.7
7 8 -3 4.4 8.6
7 8 -3 4.5 7.5
7 -8 -3 0.5 9.7
-7 -8 3 1.7 7
-7 -8 3 -2.2 8.5
7 -8 -3 9.8 9.2
-7 8 2 18.9 9
7 8 -2 15 6.7
-7 8 2 -2.1 9.9
7 8 -2 14.5 7.2
-7 -8 2 -7 7
-7 -8 2 17.1 6.9
7 -8 -2 12.6 11.1
-7 8 1 83.09 11.4
7 8 -1 61.59 7
-7 8 1 55.19 12.7
-7 -8 1 61.39 7.6
7 -8 -1 41.6 14
-7 -8 1 61.39 7.6
-7 8 0 15.8 10.2
-7 8 0 -2 13
7 -8 0 -7.6 9.2
7 -8 0 16 13.6
-7 -8 0 -0.4 3.2
-7 8 -1 129.79 17.1
7 -8 1 94.69 13.8
7 -8 1 118.69 18.1
8 0 -8 23.4 11.4
-8 0 8 37.3 12.5
8 0 -8 18.6 9.5
-8 0 8 32 11.1
8 0 -7 8.1 7.6
-8 0 7 -0.2 9.1
8 0 -7 4.4 8.7
-8 0 7 4.7 8
-8 0 6 8.7 7.8
8 0 -6 5.2 6.5
-8 0 6 -2.6 6.5
-8 0 5 4.7 5.9
8 0 -5 3.3 6.3
8 0 -5 -0.7 5.7
8 0 -4 324.07 17
8 0 -4 295.87 17.4
-8 0 4 271.87 17
8 0 -3 -6 5
-8 0 3 1.8 5.2
-8 0 2 1151.68 48.1
8 0 -2 1160.38 48.3
-8 0 2 1171.48 48.1
8 0 -2 1182.98 48
-8 0 1 -3.5 4.9
8 0 -1 0.4 5.4
8 0 -1 -1.2 4.5
-8 0 1 -3.6 4.6
8 0 0 187.18 13.2
8 0 0 186.88 13.7
-8 0 0 198.38 13.8
8 0 1 0.9 5.6
8 0 1 -4.2 5.7
-8 0 -1 4.2 5.7
8 0 2 9.9 6.9
-8 0 -2 14.2 6.5
8 0 2 6.5 6.1
-8 0 -2 15.7 7.3
-8 0 -3 4.8 7.5
-8 0 -3 1.4 6.7
8 0 3 -11.1 7
-8 0 -4 160.58 15.8
-8 0 -4 191.18 17.3
-8 0 -5 -5.1 9.2
-8 0 -5 6.8 9.6
8 0 5 14.6 9.2
8 0 6 187.68 21.9
-8 0 -6 232.28 21.9
-8 0 -6 152.28 25.1
8 0 6 225.68 22.9
8 1 -8 28.5 9.9
-8 1 8 52.99 11.2
-8 1 8 37.7 12.3
8 1 -8 29.5 11.9
8 -1 -8 30 10
-8 -1 8 28.8 11.4
-8 -1 8 13.4 10.9
8 -1 -8 29 11.5
-8 1 7 0.1 7.7
8 1 -7 5.3 7.8
8 1 -7 -9.3 8.5
-8 1 7 -6.8 8.3
8 -1 -7 -5.5 7.3
8 -1 -7 3.3 8.5
-8 -1 7 -5.7 8.5
-8 -1 7 10.3 8.6
-8 1 6 724.73 34.3
8 1 -6 701.23 34.2
8 1 -6 728.63 33.8
-8 -1 6 752.82 34.1
8 -1 -6 709.93 33.7
8 -1 -6 733.23 34
-8 1 5 77.69 9.3
8 1 -5 76.59 9.1
8 1 -5 75.29 10.8
8 -1 -5 86.99 10.9
-8 -1 5 85.79 9.8
-8 -1 5 83.29 9.7
8 -1 -5 85.89 9.9
8 1 -4 413.36 22
-8 1 4 426.16 21.7
-8 1 4 487.65 21.7
-8 -1 4 398.96 21.5
8 -1 -4 425.66 21.9
-8 -1 4 421.16 21.7
8 -1 -4 416.86 21.9
-8 1 3 36.9 7
8 1 -3 37.1 6.3
8 1 -3 34.4 6.6
-8 1 3 24.8 6.3
-8 -1 3 33 6.6
-8 -1 3 13.7 6.1
8 -1 -3 40.1 7.2
8 1 -2 180.68 12.1
-8 1 2 158.98 12.7
-8 1 2 187.78 13.2
8 1 -2 175.18 12.7
8 -1 -2 176.78 13.1
8 -1 -2 193.98 12.8
-8 -1 2 165.58 12.2
-8 1 1 0.1 5.3
8 1 -1 4.6 4.9
8 1 -1 2.4 4.5
-8 1 1 2.1 5.2
8 -1 -1 0.5 4.9
-8 -1 1 6.6 5
8 -1 -1 5.4 5.7
8 1 0 501.35 24.1
8 1 0 488.05 24.1
-8 1 0 561.84 24.6
-8 1 0 516.35 24.9
-8 -1 0 476.95 23.9
8 -1 0 495.65 25.1
8 -1 0 479.45 24.6
8 1 1 12.6 6
-8 1 -1 -1.2 6
8 1 1 3 5.6
-8 -1 -1 2 5.4
8 -1 1 5.9 6.1
8 -1 1 5.6 6.4
-8 1 -2 487.65 26.3
8 1 2 564.54 26.8
8 1 2 527.45 25.9
-8 1 -2 519.05 26.9
8 -1 2 542.45 27.4
-8 -1 -2 552.84 26.7
-8 -1 -2 502.35 25.7
8 -1 2 506.45 26.3
8 1 3 4.5 6.7
-8 1 -3 5 8.2
8 1 3 -0.3 6.9
-8 1 -3 3.6 7.2
-8 -1 -3 8.7 7.4
-8 -1 -3 -9.5 5.7
8 -1 3 5.1 10
-8 1 -4 158.28 16
-8 1 -4 150.78 16.6
8 1 4 146.39 15.9
-8 -1 -4 124.39 14.8
8 -1 4 110.79 14.1
-8 -1 -4 135.19 15.5
8 1 5 1 8.7
-8 1 -5 2.2 9.9
8 1 5 10.9 9.7
-8 1 -5 -8 9.7
-8 -1 -5 7.6 9.1
8 -1 5 7.4 11.8
8 -1 5 8.9 9
-8 -1 -5 8.3 10.1
8 1 6 16.6 11
-8 1 -6 10.3 12
-8 1 -6 9.7 12.1
8 -1 6 -10.8 10.8
-8 -1 -6 6.8 11.4
-8 -1 -6 17.7 11.1
8 -1 6 14.8 15
-8 2 8 56.79 21.3
-8 2 8 42.7 11.5
8 2 -8 87.69 12.4
8 2 -8 75.99 14.2
8 -2 -8 43.6 10.7
8 -2 -8 97.99 13.8
-8 -2 8 42.8 12.6
-8 -2 8 76.29 13.5
-8 2 7 90.99 11
8 2 -7 65.09 10.9
8 2 -7 74.49 12.3
-8 2 7 76.69 11.8
8 -2 -7 77.29 11.6
-8 -2 7 99.99 12.3
8 -2 -7 72.19 10.6
-8 -2 7 87.39 12.2
8 2 -6 33.1 9.3
8 2 -6 47.3 9.1
8 -2 -6 48.8 9.4
-8 -2 6 61.79 9.8
8 -2 -6 43.7 8.4
-8 -2 6 52.79 9.8
8 2 -5 125.49 12.6
8 2 -5 146.29 13.7
-8 -2 5 128.19 14.7
-8 -2 5 139.29 13.3
8 -2 -5 102.19 15.8
8 -2 -5 140.89 13.3
8 2 -4 415.76 21.8
-8 2 4 396.66 21.6
-8 2 4 392.36 23.2
8 -2 -4 422.96 21.8
8 -2 -4 412.66 21.9
-8 -2 4 428.56 21.5
-8 -2 4 432.16 21.5
8 2 -3 7.2 5.3
-8 2 3 5.4 5.6
8 2 -3 6.8 5.1
-8 2 3 4.1 5.7
8 -2 -3 9.1 5.7
-8 -2 3 8.7 5.3
-8 -2 3 10.7 5.7
8 -2 -3 6.3 6.3
-8 2 2 554.54 26.3
-8 2 2 542.35 26.3
8 2 -2 580.84 25.2
8 2 -2 582.04 25.1
-8 -2 2 544.05 25.1
8 -2 -2 474.65 25.6
8 -2 -2 542.35 26.9
-8 2 1 45.6 7.9
8 2 -1 44.5 6.5
8 2 -1 45.3 6.8
-8 2 1 43.6 7.7
8 -2 -1 52.29 8.3
-8 -2 1 43.7 6.7
-8 2 0 98.69 12.1
8 2 0 105.49 10.4
8 2 0 85.99 10
-8 -2 0 111.59 10.4
8 -2 0 83.49 10.4
-8 2 -1 277.67 18
8 2 1 268.77 17
8 2 1 285.77 16.7
8 -2 1 271.47 18.2
-8 -2 -1 316.27 16.4
-8 -2 -1 290.97 16.5
-8 2 -2 9.8 7.2
-8 2 -2 5.8 7.6
8 2 2 10.5 6
8 2 2 10.8 6.8
-8 -2 -2 4.8 5.8
8 -2 2 7 7.1
8 -2 2 31.5 8.1
-8 -2 -2 14.7 6.9
-8 2 -3 42.3 9.6
8 2 3 53.59 8.3
-8 -2 -3 43.6 8.7
8 -2 3 32.9 9.1
-8 -2 -3 44.8 8.1
8 2 4 119.79 12.4
-8 2 -4 104.09 14.1
-8 2 -4 119.89 13.6
8 -2 4 138.29 15.7
8 -2 4 116.79 13.3
-8 -2 -4 135.79 14.3
-8 -2 -4 143.19 15.5
-8 2 -5 -4.9 10.1
8 2 5 1.7 8.9
8 2 5 -12.2 7.6
-8 2 -5 1.8 10.2
-8 -2 -5 11.3 9.3
8 -2 5 -0.6 9.9
8 -2 5 4.3 13.3
-8 -2 -5 2.3 8.9
8 2 6 81.89 13.2
-8 2 -6 68.19 15.4
8 2 6 92.99 13.2
-8 2 -6 78.89 15.5
-8 -2 -6 82.59 13.1
8 -2 6 64.99 14.8
8 -2 6 136.19 20.1
-8 -2 -6 76.89 12.9
8 3 -8 63.19 12.1
-8 3 8 47.8 12.1
8 3 -8 36.7 13.8
-8 3 8 30.5 11.1
-8 -3 8 26.1 11.9
8 -3 -8 36.6 10.7
8 -3 -8 25.6 18.6
-8 -3 8 20.7 12.7
8 3 -7 24.6 9.3
-8 3 7 3.1 8.1
8 3 -7 -2.2 10.2
8 -3 -7 -2.5 7.9
8 -3 -7 -7.1 8.5
-8 -3 7 -9.1 9.6
-8 -3 7 4.1 8.8
8 3 -6 230.18 19.2
-8 3 6 268.07 17.7
8 3 -6 268.47 18.5
8 -3 -6 246.78 18.2
-8 -3 6 270.47 19.1
8 -3 -6 253.07 18.6
-8 -3 6 259.97 18.8
8 3 -5 22.9 7.9
8 3 -5 39.3 7.7
-8 3 5 29.1 8.1
-8 -3 5 26 8.1
-8 -3 5 28.1 7.8
8 -3 -5 36.7 7.7
8 -3 -5 32.5 7.9
-8 3 4 77.59 9.6
8 -3 -4 60.39 9.1
8 -3 -4 86.39 10.9
-8 -3 4 57.39 8.6
-8 -3 4 86.29 10.7
-8 3 3 267.87 16.8
-8 3 3 237.08 16.3
8 3 -3 250.17 15.2
8 3 -3 255.47 15.4
8 -3 -3 238.78 16.6
-8 -3 3 251.47 15.6
8 -3 -3 255.77 17.4
-8 -3 3 269.47 15.3
8 3 -2 81.09 9.8
8 3 -2 66.09 8.3
-8 3 2 72.49 9.5
-8 3 2 59.29 8.9
-8 -3 2 69.99 8.7
-8 -3 2 84.79 9.6
8 -3 -2 58.29 9.4
8 -3 -2 65.19 8.7
-8 3 1 231.38 16.6
8 3 -1 207.68 13.2
-8 3 1 219.88 16
8 3 -1 210.28 13.4
8 -3 -1 203.58 15.3
8 -3 -1 227.58 16.6
-8 -3 1 223.18 13.5
-8 -3 1 220.58 13.1
-8 3 0 200.68 16.8
8 3 0 237.48 14
8 3 0 205.78 13.7
8 -3 0 215.78 17
8 -3 0 246.88 16.8
-8 -3 0 251.67 13.5
-8 -3 0 218.18 13.5
-8 3 -1 5 7.3
8 3 1 2.9 5.6
8 3 1 4.5 5.1
8 -3 1 2.1 7.3
-8 -3 -1 1.4 4.7
8 -3 1 6.7 7.4
-8 -3 -1 1.2 5.3
8 3 2 218.78 14.2
-8 3 -2 233.18 18.4
8 3 2 209.38 15.2
8 -3 2 195.48 19.3
-8 -3 -2 226.58 14.3
-8 -3 -2 228.28 15.8
8 -3 2 202.28 18.6
8 3 3 12.9 6.7
-8 3 -3 12.7 9.1
-8 3 -3 3.3 8.2
-8 -3 -3 5 6.1
8 -3 3 11.8 8.3
-8 -3 -3 1.1 6.7
-8 3 -4 43.6 11.8
-8 3 -4 15.6 10.3
8 3 4 27.9 8
-8 -3 -4 19.7 7.4
8 -3 4 7.8 9.4
-8 -3 -4 13.1 7.7
8 -3 4 31.9 12
-8 3 -5 42.8 12.9
-8 3 -5 26.1 12.1
8 3 5 38 9.4
8 3 5 42 8.9
-8 -3 -5 32 9.2
8 -3 5 68.19 15.3
8 -3 5 20.9 11.9
-8 -3 -5 34.8 9.2
8 3 6 9.3 8.8
-8 3 -6 -4.1 14.2
-8 3 -6 5.2 13.3
8 3 6 10.7 10.2
8 -3 6 -0.7 16.2
-8 -3 -6 4.3 9.9
8 -3 6 -2.7 14.6
-8 -3 -6 -1.8 9.4
8 4 -7 174.88 20.9
8 4 -7 211.88 19.2
-8 4 7 160.28 16.8
-8 -4 7 166.38 19.4
8 -4 -7 178.08 18.3
8 -4 -7 153.38 16.7
-8 -4 7 202.28 18.6
-8 4 6 7.5 7.2
8 4 -6 -0.7 8.7
-8 4 6 13.4 8.8
8 4 -6 14 8.7
-8 -4 6 15.3 8.2
8 -4 -6 6.5 7.4
8 -4 -6 9.9 8.1
-8 -4 6 -7.1 8.6
8 4 -5 351.06 21.2
-8 4 5 366.36 22.5
8 -4 -5 394.36 21.8
8 -4 -5 354.96 22
-8 -4 5 383.96 21.4
-8 -4 5 385.96 21.9
8 4 -4 77.39 8.9
-8 4 4 72.09 10.5
-8 -4 4 72.19 9.2
-8 -4 4 89.09 11.2
8 -4 -4 74.59 9.9
8 -4 -4 79.79 10.1
8 4 -3 -1 4.9
-8 4 3 5.1 7
-8 4 3 8.2 6.9
8 4 -3 1.3 5.9
-8 -4 3 0.5 6.1
8 -4 -3 -3.6 7.2
8 -4 -3 -4.2 10.3
-8 -4 3 0.6 5.6
-8 4 2 161.18 14.3
8 4 -2 178.98 12
8 4 -2 147.59 13.4
-8 4 2 173.28 15.8
8 -4 -2 133.89 15.4
-8 -4 2 161.48 11.7
8 -4 -2 155.28 14
-8 -4 2 157.88 12
8 4 -1 177.38 12
8 4 -1 182.68 12.4
-8 4 1 180.58 15.3
8 -4 -1 180.98 17.1
8 -4 -1 167.28 15
-8 -4 1 175.48 12
-8 -4 1 188.88 12.5
8 4 0 109.79 9.9
-8 4 0 122.69 12.3
8 4 0 97.79 10
-8 4 0 94.59 13.5
-8 -4 0 94.59 9.3
-8 -4 0 76.59 9.5
8 -4 0 80.19 11.5
8 -4 0 98.09 11.6
-8 4 -1 231.98 18.3
-8 4 -1 199.58 17.5
8 4 1 246.48 13.6
8 4 1 231.98 14.8
8 -4 1 203.98 18.6
-8 -4 -1 224.38 13.5
-8 -4 -1 242.38 14.7
-8 4 -2 0.3 8.6
8 4 2 2.2 4.9
8 4 2 1.5 5.6
-8 4 -2 6 8.3
-8 -4 -2 -3.5 5.9
8 -4 2 10.8 10.4
8 -4 2 9.1 9.1
-8 -4 -2 -0.2 5.1
-8 4 -3 120.09 13.9
8 4 3 113.79 10.9
-8 4 -3 100.09 13.9
-8 -4 -3 118.29 11.5
8 -4 3 123.49 14.7
8 -4 3 117.19 13.7
-8 -4 -3 124.09 12.3
8 4 4 122.39 11.5
-8 4 -4 93.59 14.7
-8 4 -4 84.79 14.1
8 4 4 83.39 9.4
-8 -4 -4 107.79 12
-8 -4 -4 101.09 12.2
8 -4 4 71.29 13.4
8 -4 4 78.39 15
8 4 5 6.1 6.7
8 4 5 35.5 8.2
-8 4 -5 23.7 13.6
-8 4 -5 30.3 13.7
-8 -4 -5 16.7 8.1
8 -4 5 24.2 13.2
8 -4 5 16.6 13.7
-8 -4 -5 -5.3 7.4
-8 5 7 -4.6 11
8 5 -7 15.8 10.6
-8 5 7 -2.5 8.6
8 -5 -7 3 9.6
8 -5 -7 6.7 9.8
-8 -5 7 -9.6 11.5
-8 -5 7 18.7 11.1
8 5 -6 34.6 9.7
-8 5 6 32.5 10.5
8 5 -6 27.4 10.8
-8 5 6 39.3 9.1
-8 -5 6 29.6 9.7
-8 -5 6 15.6 10.4
8 -5 -6 28.5 9.4
8 -5 -6 29.5 9.2
8 5 -5 98.59 11.4
-8 5 5 97.09 11
8 5 -5 120.59 15.1
-8 5 5 95.19 12.3
8 -5 -5 113.49 14.1
8 -5 -5 118.39 15
-8 -5 5 89.09 11.7
-8 -5 5 135.19 14.6
8 5 -4 4.3 6.4
-8 5 4 6.6 6.4
8 5 -4 18.4 7
-8 5 4 -5.4 7.8
8 -5 -4 -11 7.5
8 -5 -4 5.2 7.8
-8 -5 4 -1.9 6.9
-8 -5 4 3 6.7
-8 5 3 472.85 26.6
8 5 -3 530.35 24.7
-8 -5 3 487.75 24.7
8 -5 -3 542.25 27.6
8 -5 -3 521.05 27
-8 -5 3 489.45 24.7
8 5 -2 80.69 10.6
8 5 -2 99.09 10.1
-8 5 2 114.99 12.6
8 -5 -2 121.49 14.4
-8 -5 2 92.89 10.6
8 -5 -2 76.99 11.8
8 5 -1 263.57 15.1
-8 5 1 281.47 18.3
8 -5 -1 251.27 20.2
-8 -5 1 255.17 15.2
-8 -5 1 245.28 14.7
8 -5 -1 275.27 18.8
8 5 0 3.4 4.6
8 5 0 2.1 4.9
8 -5 0 -1.3 8.8
8 -5 0 -0.3 7.7
-8 -5 0 8.3 5.2
-8 -5 0 4.9 4.8
8 5 1 9.3 4.6
-8 5 -1 4.9 8.3
-8 -5 -1 12 4.9
8 -5 1 14.4 9.5
-8 -5 -1 11.6 5.8
8 -5 1 3.8 8.4
8 5 2 0.9 4.3
-8 5 -2 10.7 10.1
-8 5 -2 -1.7 9.3
8 -5 2 5.8 10
-8 -5 -2 9 5.7
-8 5 -3 43.6 12.2
8 5 3 31.8 5.3
8 5 3 29.3 5.1
-8 5 -3 18.4 11.6
8 -5 3 10.3 10.6
-8 -5 -3 34.1 6
8 -5 3 37.7 11.5
-8 -5 -3 37.6 6.5
-8 5 -4 44.7 13.6
-8 5 -4 19.7 12.6
8 5 4 37.3 5.4
8 -5 4 19.2 12.6
-8 -5 -4 34.5 6.7
8 -5 4 30.7 12.4
-8 -5 -4 32.1 7.7
8 6 -6 1.8 9.4
8 6 -6 4.8 11.8
-8 6 6 3.7 8.3
-8 6 6 1.1 11.2
-8 -6 6 2.2 11.1
8 -6 -6 16.8 10.6
-8 -6 6 -15.5 9.7
8 -6 -6 4.3 9.6
-8 6 5 172.88 15.8
-8 6 5 133.49 14.4
8 6 -5 146.29 16
8 6 -5 156.48 17
-8 -6 5 135.69 17
-8 -6 5 167.98 16.7
8 -6 -5 158.48 17.8
8 -6 -5 170.28 16.6
8 6 -4 22.6 8.8
8 6 -4 25.4 7.3
-8 6 4 24.1 8.2
-8 6 4 22 9.8
-8 -6 4 15 7.8
-8 -6 4 24.5 8.8
8 -6 -4 3.9 8.7
8 -6 -4 21.2 9.1
-8 6 3 3.4 8.2
-8 6 3 5 8.5
8 6 -3 -1.1 5.9
8 6 -3 17.1 6.7
-8 -6 3 -3.9 6.7
8 -6 -3 -4 9
-8 -6 3 -5.7 6.4
8 -6 -3 -9 7.9
-8 6 2 12.2 8.8
-8 6 2 0.5 8.7
8 6 -2 6.8 5.6
8 -6 -2 -3.4 8
-8 -6 2 3.4 5.7
8 -6 -2 5.2 9.5
-8 -6 2 5.6 5.9
8 6 -1 107.79 10.7
8 6 -1 101.59 10.7
-8 6 1 113.19 13.7
-8 6 1 122.49 15.4
8 -6 -1 129.19 15.1
8 -6 -1 102.19 12.8
-8 -6 1 93.69 10.2
-8 -6 1 89.39 10.5
8 6 0 8.3 4.9
-8 6 0 -1.3 9.5
8 -6 0 4.1 8.6
8 -6 0 18.4 11.1
-8 -6 0 8.2 5.3
-8 -6 0 1.6 4.8
8 6 1 279.17 13.4
-8 6 -1 283.17 20.9
-8 6 -1 262.57 22.1
8 6 1 268.07 14.2
8 -6 1 318.27 23.4
-8 -6 -1 278.67 15.7
-8 -6 -1 274.17 13.9
8 6 2 5.6 1.9
-8 6 -2 -9.6 10.5
8 6 2 5.3 2.2
-8 -6 -2 4.7 3.7
8 -6 2 -2.3 10.8
-8 -6 -2 10.1 4.2
8 -6 2 7.8 10.1
-8 6 -3 72.99 14.9
-8 6 -3 50.79 14.6
8 -6 3 92.89 15.3
8 -6 3 48.6 13.4
-8 -6 -3 67.99 5.7
-8 -6 -3 53.79 4.6
-8 6 -4 13.1 18
-8 6 -4 1.7 13.6
8 -6 4 7.9 13.6
8 -6 4 13.1 14.7
8 7 -4 30 10.2
-8 7 4 22.5 9.1
8 7 -4 -2.4 7.8
-8 7 4 41.8 10.9
-8 -7 4 17.8 8.1
-8 -7 4 26.6 10
8 -7 -4 23.3 10.1
8 -7 -4 33.9 10.4
8 7 -3 191.88 15.7
-8 7 3 201.98 19
-8 7 3 214.78 19.1
8 7 -3 176.18 16.6
8 -7 -3 236.98 20.6
8 -7 -3 188.98 19
-8 -7 3 193.78 16.5
-8 -7 3 169.38 15.3
-8 7 2 -3.5 9.2
-8 7 2 15.8 10.3
8 7 -2 24.3 6.9
8 7 -2 12.6 6.6
-8 -7 2 9.7 6.8
8 -7 -2 18.5 9.5
-8 -7 2 11.3 6.7
8 -7 -2 30.8 12.2
-8 7 1 197.98 19.1
8 7 -1 221.68 16
-8 7 1 220.58 22.1
-8 -7 1 231.38 14.6
8 -7 -1 241.18 22.9
8 -7 -1 232.68 19.9
-8 -7 1 214.28 14.9
8 7 0 5.9 6.1
8 7 0 5.8 5.3
-8 7 0 8.8 12
-8 7 0 39.8 10
-8 -7 0 14.5 8.7
8 -7 0 -1.9 12.4
-8 -7 0 -2.8 4.8
-8 7 -1 -10.7 12
-8 7 -1 9.2 11.2
8 -7 1 23.7 15.5
-8 -7 -1 10.2 3.2
-8 7 -2 29.4 12.9
-8 7 -2 29.4 14.3
8 -7 2 27.7 14.5
8 -7 2 58.09 13
8 8 -1 40.8 7.3
-8 8 1 50.19 14.7
9 0 -8 56.99 13.7
-9 0 8 98.59 13.9
-9 0 8 69.29 13.8
9 0 -8 53.19 11.9
9 0 -7 9.9 8.5
-9 0 7 -8.3 9.5
-9 0 7 0.2 8.7
9 0 -7 4 9.2
9 0 -6 1.7 8.1
-9 0 6 -12.4 7.3
9 0 -6 4.6 7.5
-9 0 5 4.4 7
-9 0 5 4 7
9 0 -4 220.28 15.5
-9 0 4 206.68 14.8
9 0 -4 173.08 14.6
-9 0 4 192.08 14.9
-9 0 3 6 6.1
-9 0 3 -3.6 5.9
9 0 -3 -5.2 5.5
-9 0 2 455.55 24
9 0 -2 460.25 24.3
-9 0 2 497.45 23.7
9 0 -2 509.65 23.7
-9 0 1 -5 5.8
9 0 -1 0.4 5.5
9 0 -1 3.2 5.9
9 0 0 594.54 28.9
-9 0 0 598.14 28.8
-9 0 0 625.04 29.3
9 0 0 606.64 29.1
-9 0 -1 5.3 6.6
9 0 1 0.6 6.9
9 0 1 11.3 6.7
-9 0 -1 -11.4 6.4
-9 0 -2 0.5 7.3
9 0 2 2.5 7.6
-9 0 -2 9.7 7.1
-9 0 -3 8.1 7.9
-9 0 -3 -10.5 7.9
-9 0 -4 101.99 13.2
-9 0 -4 113.69 14.2
-9 0 -5 0.6 10.7
9 0 5 -10.6 12.5
9 0 5 0.7 10.5
-9 0 -5 13.5 11.6
9 0 6 131.99 32.1
-9 0 -6 76.89 15.6
9 0 6 91.29 16.3
-9 0 -6 92.29 16.8
9 1 -8 29.1 12.9
9 1 -8 37.3 11.4
-9 1 8 63.89 14.1
-9 1 8 38 12.1
9 -1 -8 41.8 11.5
9 -1 -8 43.8 12.7
-9 -1 8 75.49 14.2
-9 -1 8 37.8 12.9
9 1 -7 32.4 11.1
-9 1 7 39.9 11.4
9 1 -7 38.6 9.8
-9 1 7 60.29 10.7
9 -1 -7 48.7 11.1
-9 -1 7 63.29 11.4
-9 -1 7 39.4 11
9 -1 -7 65.49 10.7
9 1 -6 88.39 10.8
9 1 -6 85.19 11.5
-9 1 6 100.99 12.2
-9 1 6 82.09 10.6
9 -1 -6 64.69 10
-9 -1 6 86.29 11.5
9 -1 -6 85.49 11.8
-9 -1 6 84.09 11.3
-9 1 5 1.4 6.8
-9 1 5 11.2 7
9 1 -5 -0.6 6.9
9 1 -5 16.5 8
-9 -1 5 3.8 7.1
9 -1 -5 11.1 7.8
-9 -1 5 10 8.4
9 -1 -5 7.5 7
-9 1 4 647.14 30.8
9 1 -4 666.53 30.5
-9 -1 4 651.03 30.5
9 -1 -4 655.03 31.1
9 -1 -4 663.63 30.7
-9 -1 4 643.34 30.8
-9 1 3 167.38 13.6
9 1 -3 188.08 13.9
-9 1 3 176.28 14.7
9 1 -3 207.48 13
9 -1 -3 175.98 14.5
9 -1 -3 164.78 13.7
-9 -1 3 178.28 13.6
-9 -1 3 164.78 13.5
9 1 -2 111.89 11.6
9 1 -2 104.29 10.8
-9 1 2 106.09 12.1
9 -1 -2 95.49 12
-9 -1 2 118.19 12.1
9 -1 -2 149.39 11.6
-9 -1 2 124.89 11.1
-9 1 1 28.3 7.9
9 1 -1 32.2 7.2
9 1 -1 34 6.9
-9 -1 1 35.9 7.3
9 -1 -1 38.6 8.3
-9 -1 1 28.8 6.8
-9 1 0 494.55 25
-9 1 0 513.05 24.9
9 1 0 451.55 23.3
9 1 0 477.95 23.7
9 -1 0 377.66 23.6
-9 -1 0 474.65 23.6
9 -1 0 493.65 25.1
-9 -1 0 468.65 23.6
9 1 1 1.9 6.3
-9 1 -1 4.6 7
9 1 1 -5.3 6.2
-9 1 -1 8.7 7.3
-9 -1 -1 -4 6.1
9 -1 1 3.2 7.1
-9 -1 -1 5.5 6.4
9 1 2 466.65 25.8
-9 1 -2 483.45 25.9
9 1 2 460.85 25.1
-9 1 -2 473.15 26.8
-9 -1 -2 490.55 25.1
9 -1 2 453.45 25.6
-9 -1 -2 512.75 26.5
-9 1 -3 8.8 9
-9 1 -3 7.1 8.6
9 1 3 3.5 8.2
-9 -1 -3 5.1 7.5
9 -1 3 19.7 9.9
-9 -1 -3 16.4 9.2
-9 1 -4 92.99 20.7
9 1 4 138.49 14.8
9 1 4 134.59 15.7
-9 1 -4 130.59 15.2
-9 -1 -4 91.39 12
-9 -1 -4 90.29 13.8
9 -1 4 144.39 16.1
9 1 5 5.2 10.4
-9 1 -5 -9.8 10.9
-9 1 -5 -9.8 10.9
9 -1 5 37.9 18.5
-9 -1 -5 5.2 10.6
-9 -1 -5 1 10.8
9 -1 5 8.5 11.2
9 1 6 -15.8 12.5
9 1 6 36.2 14.2
-9 1 -6 18.4 14.3
-9 1 -6 -3.1 14
-9 -1 -6 -4.2 12.8
9 -1 6 21.6 17.1
-9 -1 -6 14.7 13.3
9 2 -8 57.59 12.6
-9 2 8 69.49 13.5
-9 2 8 100.89 15
9 2 -8 102.09 15.5
9 -2 -8 73.69 13.8
-9 -2 8 85.39 15
-9 -2 8 79.09 14.2
9 -2 -8 75.69 12.4
9 2 -7 -3.8 8.7
-9 2 7 16.9 9.1
-9 2 7 20.2 10.5
9 2 -7 26.5 11.5
9 -2 -7 22.7 10.1
-9 -2 7 25.8 10.7
-9 -2 7 37.7 10.9
9 -2 -7 16.2 8.6
9 2 -6 27.5 9.6
-9 2 6 28.9 9
9 2 -6 14.9 8.2
-9 -2 6 14.9 8.6
-9 -2 6 25.6 9.1
9 -2 -6 14.2 9.1
9 -2 -6 13.4 7.8
9 2 -5 113.59 13.3
-9 2 5 131.99 13.1
9 2 -5 99.09 11.4
-9 -2 5 122.79 14.5
-9 -2 5 126.19 14.1
9 -2 -5 118.49 13.4
9 -2 -5 100.39 11.8
-9 2 4 275.87 20.6
9 2 -4 296.07 18.2
-9 -2 4 282.17 19.8
-9 -2 4 296.97 18.2
9 -2 -4 306.47 19
9 -2 -4 273.77 22.3
-9 2 3 74.99 12
9 2 -3 80.09 9.1
9 -2 -3 85.89 10.4
-9 -2 3 91.79 10.8
-9 -2 3 101.09 11.1
9 -2 -3 100.89 11.9
9 2 -2 637.24 28.1
-9 2 2 578.84 29.5
9 2 -2 622.54 28.3
9 -2 -2 603.04 30
9 -2 -2 594.34 29.1
-9 -2 2 602.04 28.3
-9 -2 2 616.84 28.2
-9 2 1 23.4 7.1
-9 2 1 7.6 7
9 2 -1 16.9 6.2
9 2 -1 13.9 5.8
-9 -2 1 12.6 6
9 -2 -1 7.8 6.7
-9 -2 1 7.8 5.9
9 -2 -1 8.5 7.6
-9 2 0 246.98 17.3
9 2 0 217.68 15.1
-9 2 0 225.48 17.4
9 2 0 254.77 15.8
9 -2 0 231.98 17.1
-9 -2 0 227.68 15.4
-9 -2 0 239.58 15.7
9 -2 0 254.87 17.9
9 2 1 72.59 10.4
9 2 1 74.29 9.5
-9 2 -1 76.49 11
-9 2 -1 71.19 10.2
-9 -2 -1 77.59 9.1
-9 -2 -1 70.29 9.3
9 -2 1 90.99 11.2
9 -2 1 81.89 11.1
-9 2 -2 -7 11.7
9 2 2 2.3 6.6
-9 2 -2 3.4 8
9 2 2 -2.2 7.2
9 -2 2 0.7 8.4
-9 -2 -2 8.6 6.8
9 -2 2 0.9 7.5
-9 -2 -2 -0.6 7
-9 2 -3 96.09 12.6
-9 2 -3 88.09 13.1
-9 -2 -3 119.39 20
-9 -2 -3 111.59 13.5
9 -2 3 99.99 12.9
9 2 4 73.29 11.7
9 2 4 72.59 10.6
-9 2 -4 49.6 12.8
-9 2 -4 69.29 12.7
9 -2 4 75.79 14.4
-9 -2 -4 76.19 11.3
9 -2 4 75.19 12.5
-9 -2 -4 65.99 11.5
-9 2 -5 14.6 12.4
9 2 5 9.6 10.1
9 2 5 20 10.2
-9 2 -5 -1.8 11.9
-9 -2 -5 12.2 9.8
9 -2 5 20.4 12.1
-9 -2 -5 16.9 10.5
9 -2 5 10 15.3
-9 3 7 27.9 10.1
9 3 -7 3.2 9.3
9 3 -7 18.6 11.6
-9 3 7 24.4 11.2
-9 -3 7 13 10.3
9 -3 -7 37.7 9.9
-9 -3 7 28.6 11.6
-9 3 6 87.79 10.9
-9 3 6 102.09 12.6
9 3 -6 95.19 12.5
9 3 -6 74.99 11.2
9 -3 -6 85.59 11.9
9 -3 -6 77.79 10.8
-9 -3 6 94.09 12.4
-9 -3 6 86.69 11.9
9 3 -5 59.69 10.6
9 3 -5 67.49 9.3
9 -3 -5 43.4 9.1
9 -3 -5 43.4 9.4
-9 -3 5 64.39 9.7
9 -3 -4 211.28 16.9
-9 -3 4 245.88 16.2
9 -3 -4 200.38 16.7
-9 -3 4 199.48 16.1
9 3 -3 186.58 13.7
-9 -3 3 153.78 13.1
9 -3 -3 118.79 18.5
-9 -3 3 171.88 19.6
9 -3 -3 178.18 15.5
9 3 -2 -8.1 6.4
-9 3 2 3.8 7.3
9 3 -2 -2.1 5.1
-9 3 2 15 6.9
9 -3 -2 -15.8 6
9 -3 -2 -0.7 7.4
-9 -3 2 0.4 5.6
-9 -3 2 7.4 5.8
9 3 -1 226.78 14.4
-9 3 1 185.38 23.5
9 3 -1 213.08 15.2
-9 -3 1 236.48 14.5
9 -3 -1 206.78 17.8
-9 -3 1 223.88 14.6
9 -3 -1 211.48 16.6
9 3 0 217.58 14.6
-9 3 0 214.18 16.8
9 3 0 212.48 14.6
-9 3 0 194.18 19.3
9 -3 0 227.98 18.3
-9 -3 0 216.18 14.4
9 -3 0 261.17 18.4
-9 -3 0 217.08 14.7
9 3 1 65.99 8.9
-9 3 -1 62.69 10.4
-9 3 -1 59.39 11
-9 -3 -1 61.79 8.2
9 -3 1 52.69 10.3
-9 -3 -1 63.59 9
9 3 2 195.58 14.9
-9 3 -2 134.19 18.2
-9 3 -2 210.38 18
9 3 2 204.58 15.8
9 -3 2 160.68 20.1
9 -3 2 189.98 17.8
-9 -3 -2 179.78 20.6
-9 -3 -2 206.98 14.9
-9 3 -3 9.5 10.3
-9 3 -3 29.1 10.7
9 -3 3 36 10.6
-9 -3 -3 36.2 9.2
-9 -3 -3 32.5 7.9
9 3 4 43.7 9.7
-9 3 -4 29.2 12.3
-9 3 -4 23 11.8
9 3 4 49.3 8.9
-9 -3 -4 24.4 8.8
9 -3 4 38.5 12.4
9 -3 4 51.19 14.1
-9 -3 -4 49.9 10.2
9 3 5 29.6 10.1
-9 3 -5 7 12.8
-9 3 -5 -13.3 13
9 3 5 27.6 10.4
9 -3 5 18.8 13.5
-9 -3 -5 29.5 10
-9 -3 -5 9.9 9.9
9 -3 5 42.6 16.4
9 4 -7 72.39 12.5
9 4 -7 45.6 13.4
-9 4 7 78.59 12
-9 -4 7 41.1 11.5
-9 -4 7 63.29 13.8
9 -4 -7 58.19 12.2
9 -4 -7 47.7 11.3
9 4 -6 23.6 10.3
9 4 -6 1.3 8.5
-9 4 6 -10.8 7.7
9 -4 -6 -2.2 8.4
-9 -4 6 6.8 8.6
9 -4 -6 0.3 9.2
-9 -4 6 -4.6 9.5
-9 4 5 228.58 17.4
9 4 -5 260.87 17.6
-9 -4 5 259.67 18.3
9 -4 -5 230.18 17.9
9 -4 -5 229.58 18.3
-9 -4 4 29.7 8.1
9 -4 -4 22.4 8.6
-9 -4 4 28.9 7.7
9 -4 -4 15.3 9
9 4 -3 232.58 15.5
-9 4 3 290.57 17.7
-9 -4 3 219.78 16
9 -4 -3 209.68 17.2
9 -4 -3 224.78 19.4
-9 -4 3 244.08 16.2
9 4 -2 104.39 11.6
9 4 -2 108.19 11.1
9 -4 -2 99.49 11.7
-9 -4 2 105.39 11.8
9 -4 -2 102.19 12.8
9 4 -1 87.39 10.3
9 4 -1 61.69 8.1
9 -4 -1 48 10.1
9 -4 -1 60.69 11.4
-9 -4 1 58.99 7.8
-9 -4 1 60.39 8
-9 4 0 54.39 10.6
-9 4 0 49.3 11.2
9 4 0 63.99 9.4
9 4 0 60.09 8.2
9 -4 0 76.69 11.2
9 -4 0 66.49 11.7
-9 -4 0 60.59 7.6
-9 -4 0 63.69 8.1
-9 4 -1 303.47 22
-9 4 -1 298.87 21.8
9 4 1 294.07 18
9 4 1 283.07 17.2
9 -4 1 236.48 24.2
-9 -4 -1 322.37 18.2
9 -4 1 301.07 21.8
-9 -4 -1 300.77 16.9
9 4 2 2.5 6
-9 4 -2 2.6 9.9
9 4 2 9.8 7.1
-9 4 -2 -2.9 9.2
-9 -4 -2 7.5 6
9 -4 2 3.2 9.3
9 -4 2 18.4 10.2
-9 4 -3 85.89 13.7
-9 4 -3 88.39 14.3
9 4 3 95.69 11.7
-9 -4 -3 100.89 12.5
-9 -4 -3 92.79 10.6
9 -4 3 127.09 15
9 4 4 14 7.4
-9 4 -4 24.2 13.3
-9 4 -4 12.1 12
9 4 4 38.3 8.3
-9 -4 -4 15.2 7.8
9 -4 4 16.2 13.2
9 -4 4 43.2 13.2
-9 -4 -4 6.5 8.6
9 5 -6 15.3 11.2
9 5 -6 5.6 9.4
-9 5 6 22.6 9.4
-9 -5 6 21 9.8
-9 -5 6 22.4 11.1
9 -5 -6 27.1 12.9
9 -5 -6 11.8 10.2
-9 5 5 52.69 9.9
9 5 -5 55.09 10.8
-9 5 5 47.1 11.2
9 5 -5 43 9.4
9 -5 -5 24 9.9
-9 -5 5 30.2 9.2
9 -5 -5 47.4 10.7
-9 5 4 13.1 9.8
-9 5 4 11.4 8.6
9 5 -4 1.5 7.5
-9 -5 4 7.5 8.1
9 -5 -4 27.3 10.1
-9 -5 4 5.6 7.5
9 -5 -4 12.3 8.6
9 5 -3 309.37 18.5
-9 5 3 360.76 21.7
-9 5 3 292.17 22
9 -5 -3 257.47 21.1
-9 -5 3 322.07 19.2
9 -5 -3 284.07 21.9
-9 -5 3 333.77 19.2
-9 5 2 0 7.6
9 5 -2 1.2 5.6
9 -5 -2 8.1 8.1
-9 -5 2 1.3 5.9
9 -5 -2 2.1 10.1
-9 -5 2 -7.9 5.9
9 5 -1 405.46 20.6
9 5 -1 393.96 20.8
-9 5 1 408.16 23.9
9 -5 -1 434.96 26.5
-9 -5 1 401.96 21.1
-9 -5 1 377.96 20.3
9 -5 -1 390.16 24.3
-9 5 0 132.59 14.5
9 5 0 158.38 12.7
9 5 0 119.59 11.6
9 -5 0 147.09 16.1
-9 -5 0 122.69 11.4
9 -5 0 134.29 15.6
-9 5 -1 42.6 11.1
-9 5 -1 62.29 12
9 5 1 49.6 8
9 5 1 51.79 7.1
9 -5 1 44.2 11.4
-9 -5 -1 60.49 13
-9 -5 -1 56.39 7.2
9 -5 1 49.99 12.3
9 5 2 10.1 5.6
-9 5 -2 16.4 11.5
-9 5 -2 25.9 11.6
9 -5 2 10.9 11
-9 -5 -2 1.6 10.5
-9 -5 -2 4.4 5.9
-9 5 -3 74.49 14.7
9 5 3 52.39 7.5
9 5 3 71.99 7.6
-9 5 -3 75.99 14.8
-9 -5 -3 49.8 10.2
-9 -5 -3 63.19 8.3
9 -5 3 69.09 14.2
9 -5 3 68.89 13.7
9 5 4 17.8 6.2
-9 5 -4 18.8 14.1
-9 5 -4 -5.3 14
9 -5 4 -6.9 13.7
-9 -5 -4 8 6.6
9 -5 4 6.8 13.6
9 6 -5 232.18 19.5
9 6 -5 252.37 22
-9 6 5 218.08 21.8
-9 6 5 241.28 20.2
9 -6 -5 298.57 22.3
-9 -6 5 254.27 20
9 -6 -5 267.37 21.7
-9 6 4 6.6 10.3
9 6 -4 -0.6 8.4
-9 6 4 -0.8 9.3
9 -6 -4 10.6 9.5
-9 -6 4 7.2 7.8
-9 -6 4 0 8.6
9 -6 -4 -1.8 10
-9 6 3 70.09 11.9
9 6 -3 48.9 9.3
9 6 -3 52.39 8.4
-9 6 3 55.69 12.1
-9 -6 3 45.5 9
-9 -6 3 44.2 9.2
9 -6 -3 67.99 12.9
9 -6 -3 62.19 11.3
9 6 -2 5.3 6.2
9 6 -2 27.2 6.8
-9 6 2 -0.1 10.3
-9 -6 2 1.9 6.4
9 -6 -2 5.8 11.4
9 -6 -2 4.9 9
-9 -6 2 10.8 6.8
-9 6 1 58.09 12.8
9 6 -1 62.99 8.4
9 -6 -1 61.39 12.1
-9 -6 1 69.59 8.7
9 -6 -1 88.19 14.7
-9 -6 1 44.4 7.6
-9 6 0 3.4 11.3
-9 6 0 6.5 10
9 6 0 -2.6 5.5
9 -6 0 12.5 12.9
-9 -6 0 9.2 5.7
-9 -6 0 4.8 6.1
9 -6 0 17.3 10.2
-9 6 -1 136.99 27.5
9 6 1 172.38 13
-9 6 -1 236.78 21.8
9 -6 1 170.38 18.8
9 6 2 2.3 4.2
-9 6 -2 -2.6 12.6
-9 6 -2 -1.4 12.2
9 -6 2 -30 12
-9 -6 -2 0.1 4.7
-9 6 -3 149.88 19.6
-9 6 -3 131.99 18.1
9 -6 3 108.79 18.3
9 -6 3 112.79 17.4
-9 -6 -3 125.19 9.7
9 7 -3 167.38 16.1
9 7 -3 181.88 17.5
-9 7 3 220.78 21
-9 7 3 174.88 21.2
9 -7 -3 232.98 20.6
9 -7 -3 164.28 18.4
-9 -7 3 168.28 16.9
-9 -7 3 123.99 15.7
9 7 -2 16.2 8.2
9 7 -2 8.6 7.2
-9 7 2 20.9 12.1
9 -7 -2 36.2 11.7
-9 -7 2 18.9 7.9
9 -7 -2 1.2 19.7
-9 -7 2 8.8 7.5
-9 7 1 151.08 17.4
9 -7 -1 155.08 18.8
-9 -7 1 128.39 14.2
-9 -7 1 158.58 13.5
9 -7 -1 154.98 16.6
-9 7 0 -2.8 11.3
9 7 0 1.8 5
9 7 0 -3.1 6
-9 7 0 -8.2 13.1
-9 -7 0 -4.5 6.7
-9 -7 0 6.8 6.4
9 -7 0 14.9 16.9
-9 7 -1 18.2 15.1
-9 7 -1 36.4 14.2
9 -7 1 43.1 15.5
-9 -7 -1 43.6 5.5
10 0 -8 148.19 17.5
10 0 -8 127.09 15.8
-10 0 8 150.18 17.7
-10 0 8 123.19 16.9
10 0 -7 -2.7 10.4
10 0 -7 7.1 9.1
-10 0 7 4.9 10.4
-10 0 7 -2.5 9.9
-10 0 6 18.6 9.1
-10 0 6 14.6 9.3
10 0 -6 26.1 9.1
10 0 -6 36.1 10.4
-10 0 5 -9.9 7.3
-10 0 5 -0.4 8.6
10 0 -5 10.9 8.7
10 0 -5 8 7.5
-10 0 4 175.18 15.7
10 0 -4 203.48 16.5
-10 0 4 188.48 15.7
10 0 -4 196.58 15.6
-10 0 3 1.2 7.1
10 0 -3 -10.3 5.9
-10 0 3 2 6.6
10 0 -2 492.25 24.1
-10 0 2 469.85 24.9
10 0 -2 460.35 25.5
-10 0 2 456.05 24.5
-10 0 1 14.5 7.2
10 0 -1 10.2 12.7
-10 0 1 8.5 7
-10 0 0 262.07 17.9
10 0 0 197.58 16.3
10 0 0 226.08 17.2
-10 0 0 260.77 17.7
10 0 1 -5.6 7.2
-10 0 -1 -1.7 7.4
-10 0 -2 152.18 16
-10 0 -2 166.38 16.6
-10 0 -3 -7 8.6
-10 0 -3 -17 9.1
-10 0 -4 3 11.3
10 0 4 27.8 11.1
10 0 4 7.6 11.4
-10 0 -4 18 11.5
-10 0 -5 3.6 12.4
10 0 5 2.8 15.8
-10 0 -5 -9.6 11.9
10 0 5 1.9 11.9
-10 1 8 99.49 16.2
10 1 -8 72.89 14
10 1 -8 84.29 16.1
10 -1 -8 116.89 16.3
10 -1 -8 105.39 14.4
-10 -1 8 143.29 16.9
-10 -1 8 80.69 15.7
10 1 -7 9.2 11.3
-10 1 7 13.5 10.1
10 1 -7 -10.5 8.7
-10 1 7 7.2 10.8
10 -1 -7 -3.9 10.4
-10 -1 7 20.8 10.5
10 -1 -7 -8.9 8.5
-10 -1 7 6 10.4
10 1 -6 238.28 20.1
-10 1 6 211.18 20
-10 1 6 254.77 19.8
10 1 -6 240.58 19.4
-10 -1 6 250.97 19.5
-10 -1 6 203.98 18.6
10 -1 -6 213.28 18.2
10 -1 -6 256.67 19.9
10 1 -5 41.1 9.7
-10 1 5 28.1 8.8
10 1 -5 35.7 9.1
-10 1 5 47.1 9.7
10 -1 -5 36.9 9.8
-10 -1 5 39.1 9.5
10 -1 -5 36.4 8.9
-10 -1 5 48.5 9.4
10 1 -4 43.3 8.7
10 1 -4 56.29 9.6
-10 1 4 55.99 9.7
-10 1 4 45.6 9.2
-10 -1 4 39.4 10.6
-10 1 3 14.2 7.7
10 1 -3 22.4 7.8
-10 1 3 11.8 13.5
-10 -1 3 17.7 7.5
10 -1 -3 14.7 8.1
-10 -1 3 19.8 7.6
10 -1 -3 26.3 8.1
10 1 -2 166.58 16
10 1 -2 187.88 13.7
-10 1 2 160.68 14.9
-10 1 2 177.88 15.6
-10 -1 2 180.48 14.4
10 -1 -2 187.88 16
10 -1 -2 160.78 14.6
-10 -1 2 183.78 14.8
-10 1 1 175.98 15.4
10 1 -1 169.68 13.9
-10 1 1 189.38 16.3
10 -1 -1 191.18 16
-10 -1 1 185.98 14.5
-10 -1 1 170.08 14.5
10 -1 -1 159.58 14.7
-10 1 0 14.2 7.9
10 1 0 6.1 6.7
-10 1 0 6.5 7.4
-10 -1 0 2.6 6.4
10 -1 0 1.9 7.9
-10 -1 0 -1 6.7
10 -1 0 -2.9 7.1
-10 1 -1 25 9
10 1 1 24.1 8.5
-10 -1 -1 17.2 7.9
10 -1 1 30.4 9.3
10 -1 1 5 8.4
10 1 2 484.15 26.9
-10 1 -2 424.66 26.3
-10 1 -2 432.96 25.7
10 -1 2 480.45 27.9
-10 -1 -2 448.06 24.9
-10 -1 -2 514.25 27.2
10 -1 2 378.66 29.5
-10 1 -3 14.4 10.2
10 1 3 16.3 8.6
10 1 3 11.7 10.1
-10 1 -3 5.7 9.5
-10 -1 -3 18.9 9.3
10 -1 3 12.5 11.1
-10 -1 -3 11.1 9.9
10 -1 3 5.8 13.8
-10 1 -4 170.68 21.5
-10 1 -4 186.88 20.6
10 1 4 186.58 19.7
10 -1 4 176.58 21.1
-10 -1 -4 207.68 19.2
10 -1 4 173.18 30.5
-10 -1 -4 166.08 19.3
10 1 5 -13.2 11.4
-10 1 -5 8.4 13.3
-10 1 -5 -1.2 12.9
10 -1 5 22.7 13.4
-10 -1 -5 5.6 12.8
-10 -1 -5 17.9 12
10 -1 5 39.1 18.1
-10 2 7 40.4 11.1
10 2 -7 22.9 10.4
-10 2 7 19.5 11.6
10 2 -7 56.49 12.8
-10 -2 7 22.9 11
10 -2 -7 22.4 10.1
-10 -2 7 33.9 11.7
10 -2 -7 19.4 11.5
10 2 -6 23.5 9.4
-10 2 6 25.7 12.2
10 2 -6 30.8 10.3
-10 2 6 21.9 9.6
-10 -2 6 33.6 10.2
10 -2 -6 37.9 9.4
10 -2 -6 33.7 10.6
-10 -2 6 12.2 8.9
-10 2 5 28.9 15.7
-10 2 5 39.4 9.9
10 2 -5 35.6 9.5
-10 -2 5 48.9 10.1
-10 -2 5 33.8 9.2
10 -2 -5 44.9 9.3
10 -2 -5 38.7 17.3
10 2 -4 26.8 7.8
-10 2 4 6.9 7.6
-10 2 4 9.7 8.1
10 2 -4 13 8.1
-10 -2 4 7.1 7.2
10 -2 -4 14.9 7.8
10 -2 -4 15.7 8.7
-10 -2 4 26 8.1
-10 2 3 84.99 11.2
-10 2 3 71.59 10.7
10 -2 -3 68.49 10.7
-10 -2 3 65.99 10.5
-10 -2 3 65.09 9.2
-10 2 2 490.15 26.3
10 2 -2 453.65 24.2
-10 2 2 499.15 26.7
10 -2 -2 491.95 27.1
-10 -2 2 493.25 24.9
10 -2 -2 495.65 26.2
-10 -2 2 487.05 27.4
10 2 -1 6.2 6.5
10 2 -1 6.9 6.1
-10 2 1 10.5 13.9
-10 2 1 8.5 7.9
10 -2 -1 8.8 7.7
10 -2 -1 9.6 8.8
-10 -2 1 3 6.3
-10 -2 1 8.9 6.7
10 2 0 415.06 22.2
-10 2 0 426.06 24.6
10 2 0 423.16 22
10 -2 0 392.26 26.7
10 -2 0 429.66 24.8
-10 -2 0 381.56 24.6
-10 -2 0 412.36 22.2
10 2 1 47.1 8.9
10 2 1 60.59 9.8
-10 2 -1 40.4 14
-10 2 -1 46 10.5
-10 -2 -1 60.69 9.1
-10 -2 -1 47.5 9.5
10 -2 1 35.7 10
10 -2 1 57.89 10.9
-10 2 -2 38.5 10.7
10 2 2 35.3 9.7
-10 2 -2 21.4 10.1
-10 -2 -2 13.3 8
-10 -2 -2 20.5 9.2
10 -2 2 16.9 10.1
10 -2 2 31 15.1
10 2 3 66.09 10.3
-10 2 -3 39.9 11.8
10 2 3 40.7 10.4
-10 2 -3 25.7 11
-10 -2 -3 43 9.4
10 -2 3 45.3 11.7
-10 -2 -3 46.8 11.3
10 2 4 22.5 10.2
-10 2 -4 37.7 12.9
10 2 4 25.9 10.4
-10 2 -4 41.5 13.5
10 -2 4 43.4 13
-10 -2 -4 54.09 11.4
10 -2 4 65.79 15.5
-10 -2 -4 50.69 12.4
10 2 5 12.6 11.9
-10 2 -5 22 14.3
10 2 5 36.4 13
-10 2 -5 17.2 14.5
-10 -2 -5 10.7 12.1
10 -2 5 28.3 15.1
-10 -2 -5 11.9 11.3
10 -2 5 27.1 18.7
-10 3 7 56.29 11.9
10 3 -7 59.19 11.6
10 3 -7 62.39 13.9
10 -3 -7 59.19 13.5
10 -3 -7 65.79 12
-10 -3 7 47.4 12.2
-10 -3 7 38.5 13.1
-10 3 6 108.29 13.4
10 3 -6 146.89 18.2
10 3 -6 167.58 18
-10 3 6 113.49 13.9
-10 -3 6 133.69 14.4
-10 -3 6 137.69 16.3
10 -3 -6 131.39 15.9
10 -3 -6 156.68 17.8
10 3 -5 3 8.4
-10 3 5 5 9.2
10 3 -5 -0.4 8.6
10 -3 -5 3.4 7.9
-10 -3 5 8.2 8.5
-10 -3 5 10.8 7.9
10 -3 -5 9.1 9.7
-10 3 4 75.29 11.9
10 3 -4 85.69 10.4
10 -3 -4 73.29 11.9
-10 -3 4 76.09 10.5
10 -3 -4 52.79 10.3
-10 -3 4 71.99 10
-10 3 3 209.28 18.5
10 -3 -3 196.18 18.2
10 -3 -3 202.78 16.9
-10 -3 3 203.18 15.4
-10 -3 3 199.28 15.6
10 3 -2 55.29 8.3
-10 3 2 43.9 9.9
10 3 -2 68.49 10.2
-10 3 2 49.4 10.2
10 -3 -2 48.1 9.8
-10 -3 2 43.2 8
10 -3 -2 40.1 10.7
-10 -3 2 45.5 8.4
10 3 -1 188.58 14.8
10 3 -1 210.68 15.6
-10 3 1 205.18 18.1
-10 3 1 229.88 18.4
-10 -3 1 223.68 15.7
-10 -3 1 192.88 14.8
10 -3 -1 199.98 18.5
10 -3 -1 224.98 18
-10 3 0 25.9 9.7
10 3 0 26.7 7.7
10 3 0 21.9 6.9
-10 3 0 29.7 9.9
-10 -3 0 30.2 7.9
-10 -3 0 20.4 7.3
10 -3 0 27.8 10.2
10 -3 0 26.3 10
-10 3 -1 75.69 13.3
10 3 1 67.69 9.8
10 3 1 81.39 11.9
-10 3 -1 83.89 12.4
10 -3 1 77.59 12.5
10 -3 1 68.59 12.1
-10 -3 -1 74.59 9.5
-10 -3 -1 82.69 10.6
10 3 2 205.48 17.9
-10 3 -2 230.28 20.7
-10 3 -2 219.58 20.8
10 -3 2 211.38 21.5
-10 -3 -2 210.88 18.4
-10 -3 -2 225.58 17
10 -3 2 236.58 20.3
10 3 3 10.9 8
-10 3 -3 -13.4 10.4
-10 3 -3 -0.8 10.6
10 -3 3 -4.2 10.2
-10 -3 -3 -4.8 7.9
-10 -3 -3 -6.5 8.6
-10 3 -4 59.99 14.8
10 3 4 53.99 10.8
10 3 4 83.49 12.1
-10 3 -4 70.59 15.7
10 -3 4 57.39 16.3
-10 -3 -4 63.19 12.4
10 -3 4 53.39 14.6
-10 -3 -4 61.19 10.9
-10 4 6 5 11.6
10 4 -6 -4 10.4
10 4 -6 16.9 10.2
-10 4 6 15.4 10.1
10 -4 -6 6 13.4
-10 -4 6 -5.2 10.5
-10 -4 6 6.3 9.4
10 -4 -6 1.2 9.1
10 4 -5 166.58 17
-10 4 5 143.49 15.8
10 4 -5 125.39 15.8
-10 4 5 134.79 16.3
10 -4 -5 135.89 14.4
10 -4 -5 124.49 15.1
-10 -4 5 130.29 15.1
-10 -4 5 146.19 17
10 4 -4 26.2 8.7
-10 4 4 47.7 11
-10 4 4 14.5 8.7
10 -4 -4 28.3 9.2
10 -4 -4 53.69 11.5
-10 -4 4 40.4 9.5
-10 -4 4 39 9
-10 4 3 131.79 14.5
10 4 -3 120.99 13.6
10 4 -3 118.19 13.3
-10 -4 3 129.39 14.5
10 -4 -3 84.69 12
10 -4 -3 119.79 14.9
-10 -4 3 134.19 14.1
-10 4 2 68.19 11.8
10 4 -2 54.59 8.3
10 -4 -2 54.19 10.6
10 -4 -2 51.89 11.5
-10 -4 2 47 8.7
-10 -4 2 48.3 8.6
10 4 -1 18.8 7
-10 4 1 38.9 10.2
10 -4 -1 34.1 11.5
-10 -4 1 16.3 6.9
10 -4 -1 33.1 9.7
-10 -4 1 34 7.7
10 4 0 31.2 7.6
-10 4 0 37.5 11.5
-10 4 0 47.9 11.9
10 -4 0 49.9 11.8
10 -4 0 42.3 10.8
-10 -4 0 47 8.2
-10 -4 0 42.9 8.1
10 4 1 171.78 15.3
-10 4 -1 170.88 19
-10 4 -1 163.88 18.9
-10 -4 -1 163.78 15.3
10 -4 1 138.29 15.9
10 -4 1 167.88 18.8
-10 -4 -1 159.68 14.1
10 4 2 -8.9 7.5
-10 4 -2 5 10.3
-10 4 -2 4.5 10.5
10 -4 2 11.1 11
-10 -4 -2 2.4 7.5
10 -4 2 4.3 10.8
-10 -4 -2 13.9 8.4
10 4 3 223.78 17.1
-10 4 -3 203.18 23.9
-10 4 -3 214.18 22.1
10 -4 3 161.98 18.9
-10 -4 -3 204.58 16.8
-10 -4 -3 197.38 17.8
10 4 4 -13.7 8.8
-10 4 -4 -13.8 13.7
10 4 4 -1.3 8.4
-10 4 -4 14.4 14.7
-10 -4 -4 3.9 9.7
-10 -4 -4 -3.2 8.9
10 -4 4 -13.8 13.8
10 -4 4 -4.5 14.9
10 5 -6 5.3 13.8
10 5 -6 41.9 11.3
-10 5 6 46.8 12.2
-10 -5 6 34.9 11.5
10 -5 -6 22.2 11.6
-10 -5 6 39.4 12.8
10 -5 -6 34.1 13.3
-10 5 5 17 10.3
10 5 -5 25.5 9.6
10 5 -5 2.3 10
10 -5 -5 16.8 10.4
10 -5 -5 5.4 10.9
-10 -5 5 22.1 9.3
-10 -5 5 22.9 10.5
-10 5 4 11.1 10.4
10 5 -4 3.5 9.1
-10 -5 4 15.2 8.4
10 -5 -4 7.2 9.6
-10 -5 4 12.7 8.9
10 -5 -4 7 11.5
10 5 -3 214.58 16.8
-10 5 3 233.08 20.6
10 5 -3 250.67 18.3
10 -5 -3 247.28 19.5
10 -5 -3 190.68 21.5
-10 -5 3 191.28 16.6
-10 -5 3 229.38 17.5
-10 5 2 2.4 9.4
10 5 -2 0.8 6.3
-10 5 2 14.5 10.1
10 5 -2 16.5 7.1
-10 -5 2 0 7.2
10 -5 -2 -1 11.1
-10 -5 2 3.1 6.6
10 -5 -2 2.9 8.9
10 5 -1 324.07 19.8
-10 5 1 385.56 24.5
-10 -5 1 325.87 19.9
-10 -5 1 373.46 20
10 -5 -1 353.36 24.5
10 5 0 -2.8 6.6
-10 5 0 41.9 15.6
-10 5 0 4.4 10.9
10 -5 0 2 11
10 -5 0 10.6 9.7
-10 -5 0 7.6 7.2
-10 -5 0 7.1 6.5
-10 5 -1 133.99 16.7
10 5 1 149.69 14.5
-10 5 -1 141.59 16.5
-10 -5 -1 152.48 15.3
10 -5 1 127.89 16.5
-10 -5 -1 173.18 13.4
10 -5 1 105.49 15.3
-10 5 -2 74.79 14.8
10 5 2 76.29 9.4
-10 5 -2 83.09 15.3
-10 -5 -2 78.39 10.1
10 -5 2 90.39 15.4
-10 -5 -2 75.09 9.3
10 5 3 20.7 7.4
-10 5 -3 -3.2 13.6
-10 5 -3 11.1 13.4
10 -5 3 -6.8 13.5
-10 -5 -3 -0.9 7.9
10 -5 3 -0.4 12.8
-10 -5 -3 2.8 7.5
10 6 -4 9.9 10.3
-10 6 4 -10.4 11
-10 -6 4 -2.2 8.4
10 -6 -4 1.9 12.6
-10 -6 4 18 10.5
10 -6 -4 34.8 11.5
10 6 -3 166.88 16.7
-10 6 3 165.78 17.4
10 6 -3 144.89 15.4
10 -6 -3 150.88 18.2
10 -6 -3 142.09 16.1
-10 -6 3 149.99 16.7
-10 -6 3 144.79 15.7
-10 6 2 -4.2 11.3
10 6 -2 -10 7.2
10 6 -2 10.4 7.7
-10 6 2 -5.4 10.9
10 -6 -2 2 10.2
-10 -6 2 10.1 8
10 -6 -2 6.8 13.1
-10 -6 2 5.9 7.6
10 6 -1 4.4 7.2
-10 6 1 1.3 11.7
-10 6 1 0.4 10.6
10 6 -1 -5.3 7.2
-10 -6 1 -6.2 6.8
-10 -6 1 8.5 7
10 -6 -1 0.4 13.3
10 -6 -1 -9 9.8
10 6 0 2.5 7.2
-10 6 0 -7.5 20.6
-10 6 0 0.6 12.3
10 6 0 -6.1 6.8
10 -6 0 3.4 11
-10 -6 0 1.6 6.4
10 -6 0 -12.5 12.6
-10 -6 0 -3.2 7
10 6 1 169.58 15.9
-10 6 -1 167.38 21.3
-10 6 -1 181.18 19.5
10 -6 1 168.78 19.5
-10 -6 -1 174.58 14
10 -6 1 179.78 21.7
-10 -6 -1 182.28 16
-10 6 -2 -8.8 14.8
-10 6 -2 -11.5 13.9
10 -6 2 10.5 14.6
-10 -6 -2 7.1 6.4
-10 -6 -2 -4 7
10 7 -2 -0.6 8.6
10 7 -2 18.5 8.7
-10 7 2 10.9 12.7
-10 7 2 -6.6 14.1
10 -7 -2 49.5 17.3
-10 -7 2 14.2 8.7
-10 -7 2 23.1 9.2
10 -7 -2 32 13.2
10 7 -1 149.49 15.6
-10 7 1 189.38 23.6
-10 7 1 164.38 20.9
10 7 -1 173.78 15.5
-10 -7 1 186.18 15.9
-10 -7 1 161.28 15.5
10 -7 -1 196.48 22.2
10 -7 -1 164.48 18.1
11 0 -7 -1.9 11.4
-11 0 7 3.7 11
-11 0 7 -6.9 10.7
11 0 -7 -1.4 10.1
11 0 -6 53.89 12.4
-11 0 6 61.19 11.9
11 0 -6 57.29 11.1
-11 0 6 46.1 11.5
11 0 -5 8.1 9.3
-11 0 5 -9.6 8.3
11 0 -5 -2.3 7.9
-11 0 5 -0.7 8.1
-11 0 4 7.2 8
11 0 -4 4.4 7.7
-11 0 4 4.5 8.1
11 0 -4 6.8 8.6
11 0 -3 1.7 8.2
-11 0 3 2.2 7.6
11 0 -3 2.7 7.7
-11 0 3 -3 7.8
11 0 -2 408.16 24
-11 0 2 404.46 24.1
11 0 -2 426.16 24.6
-11 0 2 412.96 26.1
-11 0 1 -11.1 6.9
11 0 -1 -1.9 6.9
-11 0 1 2.1 8.1
11 0 -1 9.5 8.2
11 0 0 385.86 23.3
-11 0 0 372.46 23.6
-11 0 0 396.06 23.8
11 0 1 -0.8 9
-11 0 -1 2.3 8.5
-11 0 -1 -7.8 8.2
-11 0 -2 49 11.1
-11 0 -2 45.4 11.3
11 0 2 21.4 11
-11 0 -3 -20.9 9.7
11 0 3 8.4 11.8
11 0 3 0.4 9.8
-11 0 -4 14.8 12.3
-11 0 -4 -6.7 12.5
11 0 4 -13.1 11.3
-11 1 7 0.2 11.6
11 1 -7 9 12.3
11 1 -7 16.8 10.3
-11 1 7 2.2 10.9
-11 -1 7 3.9 11.6
-11 -1 7 -6.1 10.5
11 -1 -7 -1 12
11 -1 -7 6.7 9.9
-11 1 6 333.97 24.9
-11 1 6 352.96 24.3
11 1 -6 328.17 23.2
11 1 -6 366.56 24.7
-11 -1 6 349.27 24.6
-11 -1 6 331.07 23.7
11 -1 -6 369.06 23.5
11 -1 -6 362.96 25.7
11 1 -5 -18.2 8.1
-11 1 5 -2 8.8
-11 1 5 1.6 9.4
11 1 -5 8.8 8.5
11 -1 -5 -3.7 8
11 -1 -5 -5.1 9.3
-11 -1 5 -5.2 8.5
-11 -1 5 5.4 8.5
11 1 -4 400.76 23.5
-11 1 4 365.96 23.6
-11 1 4 356.76 23.6
11 1 -4 381.36 25.7
-11 -1 4 377.66 22.8
11 -1 -4 365.26 23
-11 -1 4 408.36 23.6
11 -1 -4 356.36 23.9
-11 1 3 17.7 9.2
11 1 -3 21.6 8.3
11 1 -3 26.2 9
-11 -1 3 9.9 8.5
11 -1 -3 10 8.7
-11 -1 3 15.6 8.3
11 -1 -3 26.7 9.6
11 1 -2 -7.1 6.8
-11 1 2 -5.4 8
-11 1 2 10.8 14.7
11 -1 -2 -0.5 8.5
-11 -1 2 3.8 7.7
11 -1 -2 8.5 7.7
-11 -1 2 2.5 7
-11 1 1 20.6 10.5
-11 1 1 13 10
-11 -1 1 18.9 8
-11 -1 1 26.4 8.4
11 -1 -1 20.2 9
11 -1 -1 21 9
-11 1 0 13.4 10
-11 1 0 1.6 8.6
11 1 0 -12.9 7.2
11 -1 0 -3.2 8.7
-11 -1 0 4.8 7.2
-11 -1 0 6.4 7.7
11 -1 0 9.3 8.9
11 1 1 160.08 13.5
-11 1 -1 115.19 13.7
-11 1 -1 109.99 14.1
11 -1 1 99.89 13
-11 -1 -1 113.39 12.7
11 -1 1 96.59 13.6
-11 -1 -1 99.09 12.6
11 1 2 38.8 10.1
-11 1 -2 35.5 11.1
-11 1 -2 31.4 10.7
-11 -1 -2 34.9 10.6
11 -1 2 27.6 12.1
11 -1 2 23.4 10.2
-11 -1 -2 27.9 10.1
-11 1 -3 -5.2 10.5
11 1 3 6.8 9.7
-11 1 -3 -14.9 10.2
11 -1 3 -4.9 11.8
-11 -1 -3 8.9 9.8
-11 -1 -3 4 11
11 -1 3 15.1 11.1
-11 1 -4 215.68 22.7
11 1 4 190.08 21.5
11 1 4 193.18 19.2
-11 1 -4 153.98 18.9
-11 -1 -4 204.58 21
11 -1 4 132.39 17.7
-11 -1 -4 168.48 18.7
11 -1 4 189.48 24.3
11 2 -7 13.2 12.9
-11 2 7 7.1 11.6
11 2 -7 -9 9.9
-11 2 7 26.2 13
11 -2 -7 11.9 12.6
-11 -2 7 6.7 11.4
11 -2 -7 4.4 10.2
-11 -2 7 25.3 12.3
-11 2 6 27.3 11.2
11 2 -6 21.8 10.8
11 2 -6 21.5 10.2
-11 2 6 20.1 10.3
-11 -2 6 25.7 10.8
-11 -2 6 14.4 10
11 -2 -6 15.4 9.6
11 -2 -6 -10.3 10.4
-11 2 5 103.59 14.1
11 2 -5 97.99 12.5
-11 2 5 106.19 13.4
11 2 -5 121.09 13.9
11 -2 -5 118.09 14.2
11 -2 -5 85.29 12.1
-11 -2 5 96.09 12.4
-11 -2 5 137.89 16.3
11 2 -4 -0.4 7.9
-11 2 4 1.7 8.9
11 2 -4 23 9.1
11 -2 -4 25.3 10
-11 -2 4 -1.1 8.1
11 -2 -4 10.4 8.9
-11 -2 4 17.8 8.2
11 2 -3 44.7 9.1
-11 2 3 37.9 10.5
-11 2 3 49.1 10.8
-11 -2 3 45.6 9.6
-11 -2 3 49.5 9
11 -2 -3 39.4 10.6
11 -2 -3 39.5 10
-11 2 2 107.89 13
-11 2 2 84.69 14.2
-11 -2 2 90.39 11.2
11 -2 -2 112.69 13.6
11 -2 -2 103.19 12.4
-11 -2 2 93.89 11.1
-11 2 1 6.6 15.5
11 2 -1 17.7 7.7
-11 2 1 -1 8.9
11 -2 -1 9.4 9
-11 -2 1 5.6 7.6
11 -2 -1 -3 9.3
-11 -2 1 13.3 7.4
-11 2 0 385.26 23.7
-11 2 0 326.07 23.4
11 2 0 325.97 21.3
11 -2 0 316.17 22.9
-11 -2 0 360.56 21.9
11 -2 0 381.76 24.4
-11 -2 0 334.47 21.5
11 2 1 1.4 8.8
-11 2 -1 -1.9 9.3
11 2 1 -2 7
-11 2 -1 13.6 9.9
-11 -2 -1 -5.5 7.3
-11 -2 -1 0.9 8.4
11 -2 1 -2.9 9.9
11 -2 1 -5.9 9
-11 2 -2 146.29 16
11 2 2 113.79 13.7
-11 2 -2 90.89 14.3
11 2 2 153.98 17.2
-11 -2 -2 147.59 16.5
11 -2 2 128.09 15.2
-11 -2 -2 140.49 15.3
11 -2 2 145.19 17.2
-11 2 -3 50.89 13.1
11 2 3 80.79 12.9
11 2 3 57.29 11.5
-11 2 -3 46 13.1
-11 -2 -3 47.9 11.6
11 -2 3 50.79 13.5
-11 -2 -3 48.1 12.4
11 2 4 -13 11.4
-11 2 -4 -2.4 13.1
11 2 4 -9.8 10.9
-11 2 -4 2 13.9
11 -2 4 7.8 13.6
-11 -2 -4 9.3 12.4
11 -2 4 3.5 14.9
-11 -2 -4 -13.3 10.9
11 3 -6 158.38 18.7
-11 3 6 174.28 21.9
-11 3 6 136.79 15.9
11 3 -6 107.19 15.4
11 -3 -6 190.58 22.6
-11 -3 6 142.79 15.6
11 -3 -6 148.49 18.7
-11 -3 6 163.78 20.5
11 3 -5 6.5 10.2
-11 3 5 29.1 11.1
11 3 -5 30 9.9
11 -3 -5 10.9 9.3
-11 -3 5 26.3 9.4
11 -3 -5 30.5 12
-11 -3 5 26.5 10.2
-11 3 4 203.88 19.4
11 3 -4 198.18 17
-11 3 4 209.18 19.4
11 -3 -4 204.38 21.3
11 -3 -4 204.78 19
-11 -3 4 185.88 17.5
-11 3 3 20.6 10.4
-11 3 3 18.1 10.3
11 -3 -3 16.9 10.8
11 -3 -3 9.6 8.8
-11 -3 3 8 8
-11 -3 3 17.5 8.4
11 3 -2 18.3 7.1
-11 3 2 7.1 9.7
11 3 -2 28.5 7.8
-11 3 2 10.6 10
-11 -3 2 15 7.8
-11 -3 2 12.6 7.9
11 -3 -2 2.1 9.8
11 -3 -2 -0.9 8.3
-11 3 1 289.07 30.8
-11 3 1 242.38 20.9
11 3 -1 247.68 17.2
-11 -3 1 272.07 18.8
11 -3 -1 301.27 22.5
-11 -3 1 224.08 17.8
11 -3 -1 277.77 20.8
-11 3 0 -5.1 9.4
11 3 0 -2.2 7
11 3 0 -0.8 7.9
-11 3 0 13.5 10.3
-11 -3 0 7.1 7.5
11 -3 0 8 10.1
11 -3 0 -6.3 9.3
-11 -3 0 2.2 7.3
11 3 1 121.29 13.2
-11 3 -1 101.29 14.4
11 3 1 118.69 14.2
-11 3 -1 105.89 14.9
11 -3 1 102.69 14.4
-11 -3 -1 78.39 11.7
11 -3 1 102.39 14.6
-11 -3 -1 126.29 15
11 3 2 58.29 11.3
11 3 2 38 10
-11 3 -2 49.5 12.8
-11 3 -2 30.8 12.8
11 -3 2 35.9 12.5
-11 -3 -2 50.89 11.3
-11 -3 -2 57.89 10.6
11 -3 2 54.59 14
11 3 3 -4.4 9.3
-11 3 -3 -18.3 11.3
-11 3 -3 10.7 12.7
11 -3 3 7.4 12.4
-11 -3 -3 18.2 9.5
-11 -3 -3 4 10
-11 4 6 3.4 11.7
-11 4 6 -5.5 24.8
11 4 -6 -4.9 12.2
11 4 -6 21.3 11.4
-11 -4 6 -13.6 11.8
11 -4 -6 6.7 13
11 -4 -6 -1.8 11.1
-11 -4 6 22 10.8
11 4 -5 201.18 19.7
-11 4 5 180.88 22.8
11 4 -5 154.08 19.3
-11 4 5 182.88 21.2
11 -4 -5 178.98 21.4
-11 -4 5 191.28 19
11 -4 -5 172.78 20.1
-11 -4 5 220.88 19.2
-11 4 4 36.6 12.1
11 4 -4 37.5 10.5
-11 4 4 42.8 12.8
11 4 -4 20 9.2
-11 -4 4 34.1 9.6
-11 -4 4 40.6 12.3
11 -4 -4 22.6 9.9
11 -4 -4 24.8 12.8
-11 4 3 146.09 18
-11 4 3 143.29 16.1
11 4 -3 112.39 13
-11 -4 3 127.49 14.4
11 -4 -3 130.49 16.5
-11 -4 3 130.79 16
11 -4 -3 115.39 15.8
-11 4 2 88.09 14
11 4 -2 119.59 15
-11 4 2 122.89 15.5
11 4 -2 109.89 11.6
-11 -4 2 94.69 11.6
11 -4 -2 87.49 14.5
-11 -4 2 84.49 10.9
11 -4 -2 83.09 12.6
-11 4 1 1.2 10.5
-11 4 1 13 11.1
11 4 -1 16.4 7.9
11 4 -1 16.7 7.3
11 -4 -1 9.2 9.8
11 -4 -1 15.7 11.7
-11 -4 1 12.6 8.2
-11 -4 1 6.9 7.4
11 4 0 47.1 9.4
-11 4 0 62.39 13.6
-11 4 0 25.7 11.6
11 4 0 55.09 8.9
11 -4 0 24.6 11
-11 -4 0 15.5 8.4
11 -4 0 25.1 12.4
-11 -4 0 30 8.4
11 4 1 -1.9 8.7
-11 4 -1 19 11.9
-11 4 -1 -5.8 10.8
11 4 1 -1.2 7.7
11 -4 1 6.9 11.2
11 -4 1 13.7 11.8
-11 -4 -1 8.2 7.9
-11 -4 -1 11.2 9
11 4 2 -0.5 9
-11 4 -2 19.6 13
-11 4 -2 32.8 12.5
11 4 2 15.2 8.8
11 -4 2 -4.9 11.8
11 -4 2 2.1 12.7
-11 -4 -2 9.8 9.8
-11 -4 -2 2.7 8.1
11 4 3 145.49 17.6
-11 4 -3 114.79 18
-11 4 -3 129.19 18
-11 -4 -3 150.58 17.3
11 -4 3 94.59 17.7
-11 -4 -3 134.69 14.8
11 5 -5 13.7 12.4
11 5 -5 39.8 12.4
-11 5 5 7.1 13
-11 5 5 13.6 14.1
-11 -5 5 18.6 10.5
11 -5 -5 13.8 13.7
-11 -5 5 12.8 11.3
11 -5 -5 32.8 12.1
-11 5 4 23 12.6
11 5 -4 36.9 10.1
-11 5 4 34.2 12.7
11 5 -4 21.4 10.7
11 -5 -4 40.3 14.1
-11 -5 4 27.2 9.7
11 -5 -4 18.7 10.9
-11 -5 4 23.9 10.8
-11 5 3 35.4 13.3
11 5 -3 18.3 10
-11 5 3 14.9 12.5
11 -5 -3 3.3 13.2
-11 -5 3 32.9 9.1
-11 -5 3 -1.4 8.6
11 -5 -3 4.8 9.8
11 5 -2 9.1 8
-11 5 2 -2.5 13.2
11 5 -2 9.2 8.3
-11 5 2 9.3 12.1
-11 -5 2 12.7 8.7
11 -5 -2 -7.2 12.6
11 -5 -2 -2.9 10
-11 -5 2 -8.2 7.6
11 5 -1 301.97 19.9
-11 5 1 341.37 26.4
11 5 -1 318.47 20.6
-11 5 1 335.97 26.7
11 -5 -1 286.27 23.7
-11 -5 1 289.87 20
11 -5 -1 326.47 26.8
-11 -5 1 309.07 20.1
-11 5 0 3.1 11.6
11 5 0 7.6 8.5
11 5 0 2 8
-11 5 0 5.2 12
11 -5 0 1.1 10.9
-11 -5 0 6.2 7.5
11 -5 0 -7.7 12.4
-11 -5 0 4.1 7.5
11 5 1 214.18 17.1
11 5 1 174.18 17.4
-11 5 -1 188.38 20.1
-11 5 -1 216.98 23.8
11 -5 1 165.68 19.2
11 -5 1 195.28 23.7
-11 -5 -1 195.68 18.1
-11 -5 -1 203.98 16.3
11 5 2 10.4 8.5
11 5 2 11.9 8.8
-11 5 -2 11 14.3
-11 5 -2 21.5 13.8
11 -5 2 18.6 14.9
-11 -5 -2 15.1 9.4
-11 -5 -2 6.6 8.3
-11 6 3 186.38 22.1
11 6 -3 172.68 16
11 6 -3 155.28 17.3
-11 6 3 163.58 19.7
11 -6 -3 155.88 17.5
11 -6 -3 165.88 20.4
-11 -6 3 168.48 17.9
-11 -6 3 157.58 18.2
-11 6 2 19.4 14.2
11 6 -2 13.8 9.1
11 6 -2 33 9.9
-11 6 2 37.6 26.2
-11 -6 2 10.2 8.6
-11 -6 2 10.2 9.1
11 -6 -2 21.4 15.4
11 -6 -2 7.4 12.2
-11 6 1 -0.2 12.5
11 6 -1 16.4 9
11 6 -1 36.9 9.4
-11 6 1 11.9 13.8
11 -6 -1 22.1 15.3
-11 -6 1 17.2 8.5
11 -6 -1 26.2 12.7
-11 -6 1 6.2 8.2
-11 6 0 -24.5 14
-11 6 0 1 13.3
11 6 0 7.4 8.4
11 6 0 -1.8 8.2
-11 -6 0 -8.2 8.1
11 -6 0 -9.7 12.1
-11 -6 0 -11.3 7.4
11 -6 0 20.9 15.2
-12 0 7 -7.8 11.8
12 0 -7 7.8 11.6
-12 0 7 17.3 13
12 0 -7 7.4 13.1
-12 0 6 106.29 15
12 0 -6 117.79 14.7
12 0 -6 123.69 16.2
-12 0 6 160.88 19.8
-12 0 5 -2.2 9
-12 0 5 6.8 10.3
12 0 -5 -1.9 11
12 0 -5 3.5 8.9
-12 0 4 -6.3 9
12 0 -4 6.4 9.8
-12 0 4 3.9 9
12 0 -4 -11.5 8.4
-12 0 3 -0.8 8.6
12 0 -3 4 9
12 0 -3 -4.3 9.2
-12 0 3 9.5 9.2
12 0 -2 114.39 15.5
-12 0 2 113.39 13.3
-12 0 2 91.89 12.8
12 0 -2 123.39 14.3
12 0 -1 -8.3 8.9
-12 0 1 -8.2 8.3
12 0 -1 8.7 8.9
-12 0 1 12.7 9
-12 0 0 416.16 26.5
-12 0 0 423.36 25.9
12 0 0 375.16 26.7
12 0 0 426.26 25.5
-12 0 -1 12.2 9.7
-12 0 -1 -4.9 9.3
12 0 1 4.3 9.3
12 0 1 -1 10
12 0 2 130.29 17.1
-12 0 -2 105.89 14.6
-12 0 -2 113.39 15.1
12 0 2 112.39 14.8
-12 0 -3 -16.6 11.1
12 0 3 -26.9 15.4
-12 0 -3 -7 11.9
12 0 3 -2.3 11.4
12 1 -6 101.69 15.5
12 1 -6 75.89 13.1
-12 1 6 100.99 15.1
-12 1 6 92.79 14.7
12 -1 -6 102.59 13.9
12 -1 -6 108.89 16.1
-12 -1 6 98.69 15
-12 -1 6 101.59 14.6
-12 1 5 -1.9 10.2
12 1 -5 -2.2 9.4
-12 1 5 6.8 10.4
12 1 -5 -0.2 10.3
12 -1 -5 6.4 9.5
12 -1 -5 15.7 11.1
-12 -1 5 16.8 9.8
-12 -1 5 0.8 9.8
12 1 -4 538.45 29.8
-12 1 4 495.35 30.4
12 1 -4 522.35 30.3
-12 1 4 551.94 30.4
12 -1 -4 527.45 30.8
-12 -1 4 564.14 29.6
-12 -1 4 498.05 28.8
12 -1 -4 533.65 30.3
12 1 -3 0.1 9.3
-12 1 3 -6.4 8.8
12 1 -3 -1.6 11.4
-12 1 3 -7 9.4
-12 -1 3 0 8.1
12 -1 -3 7.3 10.5
-12 -1 3 18.5 9.3
12 -1 -3 19.4 9.9
-12 1 2 245.98 20.6
-12 1 2 208.88 19.4
12 1 -2 240.38 18.7
-12 -1 2 208.08 18.7
12 -1 -2 215.28 19.5
12 -1 -2 231.88 20.9
-12 1 1 -9.5 8.9
12 1 -1 0.5 7.9
-12 1 1 3.6 9.2
-12 -1 1 -9.6 8.4
-12 -1 1 11.9 8.3
12 -1 -1 1.3 9.7
12 -1 -1 -2.7 8.7
-12 1 0 74.89 12.4
-12 1 0 57.19 12.2
12 1 0 45.6 10.9
-12 -1 0 63.19 11.3
12 -1 0 62.69 12.5
12 -1 0 73.39 13
-12 -1 0 68.49 11.4
12 1 1 3.9 10.2
-12 1 -1 -2.2 10.3
12 1 1 11.2 9.5
-12 1 -1 11.8 10.1
12 -1 1 -11 10.4
-12 -1 -1 15 10.1
12 -1 1 3.8 10.3
-12 -1 -1 6 9.5
-12 1 -2 65.79 13
12 1 2 76.09 13.7
-12 1 -2 38.3 12.3
12 1 2 60.19 12.4
-12 -1 -2 63.89 13
-12 -1 -2 42.5 12
12 -1 2 40.5 12.5
12 -1 2 51.19 14.7
12 1 3 18.5 12.5
-12 1 -3 15 13.1
-12 1 -3 34.6 13.3
12 1 3 64.29 14.8
-12 -1 -3 41.4 13.5
12 -1 3 19.1 14.7
12 -1 3 17 13.1
-12 2 6 97.99 15.1
12 2 -6 122.59 15
12 2 -6 109.19 16
-12 2 6 131.39 16.5
12 -2 -6 98.39 14.4
-12 -2 6 99.49 14.6
12 -2 -6 116.39 16.6
-12 -2 6 106.69 15.4
12 2 -5 34 11.2
12 2 -5 36.1 12.4
-12 2 5 48.5 12.4
-12 2 5 48.8 12.6
-12 -2 5 53.79 12
12 -2 -5 39.4 11.8
12 -2 -5 41.2 12.9
-12 -2 5 26.6 10.4
-12 2 4 17.3 11.3
12 2 -4 7.8 8.8
-12 2 4 5.5 10.5
12 2 -4 -5.1 9.5
12 -2 -4 1.3 10.4
-12 -2 4 -3.7 9.3
-12 -2 4 0.7 8.6
12 -2 -4 -7 9
12 2 -3 136.89 17
-12 2 3 165.38 20.1
-12 2 3 118.29 15.1
12 2 -3 114.89 15.5
12 -2 -3 154.98 17.3
-12 -2 3 129.69 16.4
12 -2 -3 131.39 15.7
-12 -2 3 124.39 15.3
12 2 -2 100.19 12.3
-12 2 2 93.39 13.9
-12 2 2 110.29 14.5
12 -2 -2 114.49 13.9
12 -2 -2 122.19 15.4
-12 -2 2 112.39 13.2
-12 -2 2 101.19 12.2
-12 2 1 5 10.6
12 2 -1 -10.7 7.5
-12 2 1 0.1 9.7
12 -2 -1 9 10.2
12 -2 -1 7.9 10.5
-12 -2 1 -7.6 8.5
-12 -2 1 1.1 7.8
12 2 0 94.09 12.5
-12 2 0 107.69 14.3
-12 2 0 102.19 14.3
12 -2 0 112.79 15.1
12 -2 0 108.49 14.7
-12 -2 0 95.89 12.4
-12 -2 0 108.69 12.9
-12 2 -1 -3.5 10.5
-12 2 -1 -12.8 10.2
12 2 1 -0.2 9.4
12 -2 1 2 11.1
12 -2 1 -0.4 10.6
-12 -2 -1 10.6 9.5
-12 -2 -1 12.3 9.8
12 2 2 86.39 13.6
-12 2 -2 121.39 16
-12 2 -2 102.19 15.2
-12 -2 -2 84.29 13.5
12 -2 2 95.99 15.2
12 -2 2 68.69 15.8
-12 -2 -2 84.89 13.5
-12 2 -3 14.5 13.2
-12 2 -3 -13.1 13
12 2 3 13.4 12
-12 -2 -3 17.5 12.1
12 -2 3 -3.4 13.4
-12 -2 -3 28.4 11.9
-12 3 6 18.8 14.8
-12 3 6 0 14.9
12 3 -6 -5.8 13
12 3 -6 21.7 11.9
-12 -3 6 10.1 12.4
12 -3 -6 11.5 14.4
12 -3 -6 3.1 11.3
-12 -3 6 13.8 11.8
12 3 -5 52.89 12.7
12 3 -5 16.3 10.9
-12 3 5 40.7 13.9
-12 3 5 39.4 12.6
-12 -3 5 36.9 11.8
12 -3 -5 19.1 13.5
-12 -3 5 44.3 11.2
12 -3 -5 40.2 12.1
12 3 -4 232.18 21
-12 3 4 234.28 22.1
-12 3 4 214.58 22.5
-12 -3 4 194.08 18.6
12 -3 -4 186.48 19.9
-12 -3 4 242.38 20.2
12 -3 -4 237.38 24.2
-12 3 3 23.3 12.2
12 3 -3 2.7 9
-12 3 3 -3.6 11.6
12 3 -3 9.9 9.8
-12 -3 3 12.2 9.7
-12 -3 3 1.5 7.8
12 -3 -3 -3 9.5
12 -3 -3 3.1 11.6
-12 3 2 138.19 16.3
12 3 -2 113.29 13.7
-12 3 2 123.29 15.6
12 -3 -2 106.19 15.8
-12 -3 2 143.39 16.8
12 -3 -2 101.89 14.2
-12 -3 2 126.99 15.9
-12 3 1 45.2 13.2
12 3 -1 73.99 11.7
-12 3 1 49.8 13.3
12 -3 -1 54.89 13.3
-12 -3 1 67.29 10.8
12 -3 -1 45.1 11.9
-12 -3 1 43.4 10.8
12 3 0 36.5 9.9
12 3 0 6.8 9.5
-12 3 0 2 10.5
-12 3 0 12.1 11.5
-12 -3 0 -0.8 8.1
12 -3 0 21.6 12
-12 -3 0 16.9 9.4
12 -3 0 16.8 11.6
-12 3 -1 233.78 22
12 3 1 158.68 19.1
-12 3 -1 144.19 17.9
12 3 1 165.28 18.8
-12 -3 -1 178.68 18.8
-12 -3 -1 159.08 17.8
12 -3 1 228.38 22.2
12 -3 1 148.49 18.2
12 3 2 22.7 10.9
-12 3 -2 27.4 13.9
12 3 2 21.6 11.2
-12 3 -2 7.9 13
-12 -3 -2 26.2 10.8
12 -3 2 32.8 14.3
-12 -3 -2 15.3 10.9
12 -3 2 45.4 14.8
-12 3 -3 -3.7 14.1
12 3 3 6.3 11.4
-12 3 -3 -0.8 14.9
-12 -3 -3 17.4 11.8
12 -3 3 11.7 15.6
-12 -3 -3 0.3 11.8
-12 4 5 101.19 18.4
12 4 -5 83.19 15
12 4 -5 103.69 14.7
-12 4 5 85.69 16
12 -4 -5 147.39 18.9
-12 -4 5 103.99 14.2
-12 -4 5 126.09 15.7
12 -4 -5 83.99 14.5
12 4 -4 -10.3 10.3
-12 4 4 23.3 13.2
12 4 -4 1.7 9.5
-12 4 4 0.3 13.3
12 -4 -4 -24.7 9.7
12 -4 -4 6.6 13.5
-12 -4 4 -6.1 9.2
-12 -4 4 -7.3 10.1
12 4 -3 206.78 19.2
-12 4 3 216.28 24.2
-12 4 3 205.58 23.8
12 4 -3 201.78 19
12 -4 -3 255.77 24.7
12 -4 -3 207.08 20.7
-12 -4 3 214.98 19
-12 -4 3 216.58 19.2
-12 4 2 70.99 14.8
-12 4 2 131.59 17.3
12 4 -2 102.69 13
-12 -4 2 95.89 11.8
12 -4 -2 76.79 15.7
-12 -4 2 94.49 12.1
12 -4 -2 70.59 13.2
-12 4 1 46.7 13.1
12 4 -1 40.8 11
-12 4 1 40.8 13.3
12 4 -1 30.9 9.3
-12 -4 1 30.4 9.8
-12 -4 1 29.5 9.2
12 -4 -1 44.6 12.9
12 -4 -1 28.4 13.9
12 4 0 76.29 12.2
12 4 0 67.19 11.3
-12 4 0 88.69 15.5
-12 4 0 94.59 16.3
-12 -4 0 87.79 11.7
12 -4 0 76.99 14.2
-12 -4 0 87.49 11.8
12 -4 0 90.79 16
-12 4 -1 12.8 12.8
-12 4 -1 -11.9 12.8
12 4 1 7.2 9.7
12 4 1 29.6 10
12 -4 1 30.2 13.2
12 -4 1 -20.5 12.4
-12 -4 -1 6.3 10
-12 -4 -1 8.4 9.7
12 4 2 -0.4 10.4
12 4 2 21 10.9
-12 4 -2 4.8 13
-12 4 -2 -0.6 14.4
-12 -4 -2 -0.4 10.3
12 -4 2 -14.8 13.6
12 -4 2 9 14
-12 -4 -2 4.8 10
12 5 -4 7.5 12.1
-12 5 4 25.6 14.4
-12 5 4 6.4 17.3
12 5 -4 22.1 11.1
-12 -5 4 -4.8 10
12 -5 -4 -2.1 15.4
-12 -5 4 3 11.5
12 -5 -4 10.8 12.3
12 5 -3 -4.9 10.8
-12 5 3 2.1 13.9
-12 5 3 -15.9 13.9
12 -5 -3 4.9 15.2
12 -5 -3 -2.8 11.6
-12 -5 3 -0.2 10.5
-12 -5 3 1.2 9.4
-12 5 2 10 14
12 5 -2 15.9 9.6
-12 5 2 4.3 13.3
12 5 -2 -1.8 9.9
12 -5 -2 0.1 12.1
12 -5 -2 -9 14.4
-12 -5 2 3.7 9.1
-12 -5 2 12.4 9.9
12 5 -1 86.09 12.2
-12 5 1 66.39 15.6
-12 5 1 56.19 15.8
12 5 -1 81.59 11.3
-12 -5 1 53.59 10.5
-12 -5 1 74.19 11.6
12 -5 -1 70.19 14.7
12 -5 -1 71.69 17
12 5 0 -7.9 9.5
-12 5 0 22.9 14.7
-12 5 0 -16.9 13
12 5 0 2.9 9.7
12 -5 0 8.2 15.2
-12 -5 0 -1.6 8.4
12 -5 0 -1.7 12.8
-12 -5 0 11.2 9.2
-13 0 6 227.88 23.8
-13 0 6 167.38 19.7
13 0 -6 266.47 25.7
13 0 -6 174.78 21.5
-13 0 5 1.9 11.3
13 0 -5 1.2 12.3
13 0 -5 0.2 10.8
-13 0 5 -5.5 10.8
13 0 -4 30 11.7
13 0 -4 34.4 12.3
-13 0 4 32.2 12.2
-13 0 4 43.9 11.4
-13 0 3 -1.5 10.1
13 0 -3 19.8 11.7
-13 0 3 7.5 10.6
13 0 -3 -2.1 9.8
-13 0 2 104.79 14.1
13 0 -2 78.39 13.8
13 0 -2 88.99 13.4
-13 0 2 92.39 13.8
13 0 -1 1.1 10
-13 0 1 -8.1 9
13 0 -1 -14.7 9.6
-13 0 1 1.5 9.9
-13 0 0 184.88 20.5
-13 0 0 150.98 16.8
13 0 0 162.08 19.9
13 0 0 191.28 20.3
13 0 1 -2.5 11.4
-13 0 -1 -19.7 10.3
-13 0 -1 4.9 10.9
13 0 1 -9.4 11.1
13 0 2 135.89 17.4
-13 0 -2 196.08 22.5
-13 0 -2 148.19 18.2
13 0 2 212.78 24
-13 1 6 9.7 13.5
13 1 -6 15.2 14.3
13 1 -6 34.1 12.8
-13 1 6 15.7 14.6
-13 -1 6 58.59 13.7
-13 -1 6 31 14
13 -1 -6 51.89 15.7
13 -1 -6 22.9 12.6
-13 1 5 11.2 12.6
13 1 -5 8.3 10.8
-13 1 5 16.8 12.2
13 1 -5 6.7 12.1
13 -1 -5 7.3 10.8
-13 -1 5 16.5 12.2
-13 -1 5 30.7 11.4
13 -1 -5 -2.1 12.9
-13 1 4 217.98 22.9
13 1 -4 275.57 22.1
13 1 -4 276.77 23.2
-13 1 4 291.97 23.7
13 -1 -4 227.78 21.7
-13 -1 4 244.58 22.1
-13 -1 4 252.07 21.6
13 -1 -4 228.38 23.6
-13 1 3 -18.2 10.1
-13 1 3 -2.6 10.7
13 1 -3 15.3 11.4
13 1 -3 -5.4 9.8
-13 -1 3 6.3 9.8
13 -1 -3 13.1 11.7
13 -1 -3 23 10.9
-13 -1 3 9.4 9.6
13 1 -2 351.26 26.9
-13 1 2 325.57 24.7
-13 1 2 382.96 25.9
13 1 -2 345.27 24.9
13 -1 -2 300.97 24.1
13 -1 -2 331.77 26.1
-13 -1 2 390.56 25.8
-13 -1 2 397.96 24.4
13 1 -1 25 11.1
13 1 -1 15.1 9.9
-13 1 1 19.2 11.3
-13 1 1 6.7 10.3
-13 -1 1 6.6 9.6
13 -1 -1 20.6 11.6
-13 -1 1 18.8 10.6
13 -1 -1 18.6 11.6
-13 1 0 41.3 12.9
13 1 0 25.8 11.6
13 1 0 33 11.9
-13 1 0 51.69 12.7
-13 -1 0 33.7 11.8
-13 -1 0 65.89 12.1
13 -1 0 45.4 13.2
13 -1 0 61.49 14.4
-13 1 -1 16.9 11.4
13 1 1 -9.4 10.8
13 1 1 -4 11.1
-13 1 -1 3.3 11.6
13 -1 1 -0.1 11.6
-13 -1 -1 -15.9 10.3
13 -1 1 -13.3 11.6
-13 -1 -1 -12 10.3
13 1 2 100.89 15.6
-13 1 -2 106.49 16.5
13 1 2 124.89 17.8
-13 1 -2 121.69 17.1
13 -1 2 112.99 17.1
-13 -1 -2 122.99 15.9
13 -1 2 138.59 19.4
-13 -1 -2 103.69 15.9
-13 2 5 9.3 13.6
-13 2 5 4.4 13.2
13 2 -5 3.7 12.4
13 2 -5 13.3 11.8
-13 -2 5 10.9 11.1
13 -2 -5 -3.7 10.9
-13 -2 5 11.8 12.3
13 -2 -5 7.7 14
13 2 -4 21 11.8
13 2 -4 35.4 11.7
-13 2 4 25.7 13
-13 2 4 29.7 13.5
13 -2 -4 8 11.1
-13 -2 4 31.2 11.2
13 -2 -4 41.2 14.2
-13 -2 4 26.8 11.8
13 2 -3 64.19 13
13 2 -3 68.99 13.1
-13 2 3 36.6 13.7
-13 2 3 56.39 13.9
13 -2 -3 60.59 12.7
13 -2 -3 42.2 13.9
-13 -2 3 48.1 11.2
-13 -2 3 60.49 12.6
13 2 -2 96.39 13.9
13 2 -2 69.39 12.3
-13 2 2 88.79 14.9
-13 2 2 93.59 14.3
-13 -2 2 56.79 12.6
13 -2 -2 82.39 14
13 -2 -2 88.39 15.1
-13 -2 2 67.99 11.7
-13 2 1 101.99 15.1
13 2 -1 81.19 13.5
13 2 -1 67.89 12
-13 2 1 77.19 14.4
-13 -2 1 93.19 12.5
13 -2 -1 34.6 13
13 -2 -1 81.29 14.7
-13 2 0 160.68 19.7
13 2 0 190.78 18.6
-13 2 0 164.88 21.1
13 2 0 159.38 16.5
13 -2 0 176.68 19.4
13 -2 0 159.48 18.6
-13 -2 0 156.28 17.4
-13 -2 0 129.89 15.6
-13 2 -1 9.1 12.6
-13 2 -1 37.3 13.2
13 2 1 -0.5 10.9
13 2 1 -6.5 11.1
-13 -2 -1 19 11.1
-13 -2 -1 12.5 11.2
13 -2 1 2.7 12.6
13 -2 1 2.6 12.6
-13 2 -2 30 14.8
-13 2 -2 27.8 14.6
13 2 2 31.7 13
13 2 2 22.2 13.3
-13 -2 -2 34.8 12.9
13 -2 2 40.3 15.4
13 -2 2 30.9 16.1
-13 -2 -2 39.7 13.5
-13 3 5 86.89 17.5
13 3 -5 64.19 17
13 3 -5 79.09 14
-13 3 5 84.19 19.9
13 -3 -5 60.69 17.5
13 -3 -5 48.7 14.1
-13 -3 5 64.19 14.6
-13 -3 5 70.09 14
-13 3 4 27.2 14.2
13 3 -4 44.5 12.7
-13 3 4 48.2 15.7
13 3 -4 24 12.3
13 -3 -4 56.59 16
-13 -3 4 30.3 11.4
-13 -3 4 59.69 13.3
13 -3 -4 37.5 13
-13 3 3 23.4 13.5
-13 3 3 13 12.6
13 3 -3 7.4 11.3
13 3 -3 -2.2 11.2
-13 -3 3 6.4 10.8
13 -3 -3 -6 13.1
13 -3 -3 -0.7 10.3
-13 -3 3 3.8 9.8
13 3 -2 138.69 15
13 3 -2 136.29 15.8
-13 3 2 152.58 18.1
-13 3 2 117.49 17.4
13 -3 -2 125.09 17.3
13 -3 -2 135.89 16.6
-13 -3 2 102.69 22.3
-13 -3 2 113.59 13.9
13 3 -1 31.1 11.6
-13 3 1 49.9 14.3
-13 3 1 47.8 14.3
13 -3 -1 35.5 13
-13 -3 1 22.1 10
13 -3 -1 31.7 13.7
-13 -3 1 34.7 12
-13 3 0 10.6 13.3
-13 3 0 26.6 13.6
13 3 0 28.9 11.6
-13 -3 0 39.2 11.5
13 -3 0 23 12.8
-13 -3 0 16.7 10.5
13 -3 0 24.9 14.1
-13 3 -1 76.89 15.4
13 3 1 56.79 13.6
-13 3 -1 48.1 14.9
-13 -3 -1 59.09 12.5
-13 -3 -1 75.29 13.2
13 -3 1 35.5 14.8
13 -3 1 55.89 15.9
13 4 -4 11.5 21.3
-13 4 4 2.2 14.8
13 4 -4 -10.1 11.3
-13 -4 4 5.2 12.3
13 -4 -4 6.2 12.6
-13 -4 4 11.5 11.4
13 -4 -4 5.4 16.3
13 4 -3 185.38 21.9
-13 4 3 208.78 21.6
13 4 -3 205.88 22.8
-13 4 3 154.28 20.3
-13 -4 3 163.18 20.5
13 -4 -3 172.78 22
-13 -4 3 167.38 17.5
13 -4 -3 180.48 21.7
-13 4 2 29.7 15.2
13 4 -2 18.7 11.9
-13 4 2 26.3 15.3
-13 -4 2 28.6 11.7
13 -4 -2 37.3 15.8
-13 -4 2 20.5 10.4
13 -4 -2 33.4 13
-13 4 1 108.89 17.8
-13 4 1 100.39 17.2
13 4 -1 87.79 14.3
-13 -4 1 108.79 13.2
13 -4 -1 110.79 18.3
-13 -4 1 91.19 13.9
13 -4 -1 95.29 16.2
-13 4 0 78.49 17.3
-13 4 0 81.49 17.7
13 4 0 83.19 13.4
13 4 0 76.39 13.1
13 -4 0 93.09 16.7
13 -4 0 107.19 18.1
-13 -4 0 77.79 13.7
-13 -4 0 87.99 13.1
-14 0 5 -1.5 12.7
-14 0 5 -9.8 13
14 0 -5 11.9 14.9
14 0 -5 -26 12.6
14 0 -4 119.19 17.5
-14 0 4 112.09 16.8
-14 0 4 112.19 16.5
14 0 -4 125.99 16.8
14 0 -3 -22 11.3
-14 0 3 -7.1 11.2
-14 0 3 -12.6 12
14 0 -3 -28.1 12.1
14 0 -2 8.9 12.7
14 0 -2 14.6 11.6
-14 0 2 6 11.1
-14 0 2 6.5 12.3
-14 0 1 3.4 12.2
-14 0 1 14.9 12
14 0 -1 19.2 12.9
14 0 -1 -28.5 11.5
-14 0 0 223.78 24.5
14 0 0 191.98 24.1
-14 0 0 287.57 24.2
14 0 0 203.88 23.6
14 0 1 -16.3 13
-14 0 -1 4.6 13.2
14 0 1 -21.5 14.1
-14 0 -1 17.6 12.8
14 1 -4 135.79 18.2
-14 1 4 137.39 18
14 1 -4 171.68 21.7
-14 1 4 158.38 19
14 -1 -4 133.59 19
-14 -1 4 116.49 16.9
14 -1 -4 156.38 17.8
-14 -1 4 126.99 16.8
-14 1 3 25.8 12.8
14 1 -3 1.1 12.6
14 1 -3 14.8 12.1
-14 1 3 5.8 13
-14 -1 3 4.8 11.8
14 -1 -3 -28.1 12.1
-14 -1 3 -2.6 11
14 -1 -3 5.2 11.9
-14 1 2 245.78 25.2
-14 1 2 247.98 22.9
14 1 -2 207.08 21.9
14 1 -2 250.87 24.4
14 -1 -2 242.18 24.9
14 -1 -2 237.58 24
-14 -1 2 258.57 23.1
-14 -1 2 230.08 23.3
14 1 -1 -7.8 11.2
-14 1 1 -1 11.8
-14 1 1 -3.8 11.7
14 1 -1 -12.8 11.4
14 -1 -1 11.2 13.5
-14 -1 1 -6.7 10.1
14 -1 -1 -6.5 12.6
-14 -1 1 -0.8 11.8
-14 1 0 95.09 16
14 1 0 141.79 17.7
14 1 0 81.79 15.1
-14 1 0 86.59 16
14 -1 0 121.89 18.8
-14 -1 0 102.39 15.8
14 -1 0 99.09 16.7
-14 -1 0 110.29 14.9
-14 1 -1 24.8 14.1
14 1 1 5.5 14.8
-14 1 -1 19.2 13.4
14 1 1 23.3 14.1
14 -1 1 15.1 14.1
-14 -1 -1 -6.8 12.3
14 -1 1 17.1 17.2
-14 -1 -1 -10 12.4
14 2 -4 33.7 14.2
14 2 -4 14.7 15
-14 2 4 36.1 15.6
-14 2 4 35.2 15.2
14 -2 -4 28 13.3
-14 -2 4 3.6 11.7
-14 -2 4 28.8 13.8
14 -2 -4 49 16.3
-14 2 3 25.8 14.4
-14 2 3 13.6 13.8
14 2 -3 27.6 12.9
14 2 -3 27.3 13.4
-14 -2 3 34.5 13.2
14 -2 -3 -1.2 14
-14 -2 3 14.2 11.4
14 -2 -3 32.8 12.8
-14 2 2 -4.7 12.4
14 2 -2 -3.3 12.1
-14 2 2 -18.1 12.2
14 2 -2 -6 11.2
14 -2 -2 4.5 12.3
14 -2 -2 11.6 14.1
-14 -2 2 11.6 12.2
-14 -2 2 2.6 10.5
-14 2 1 34.3 14
14 2 -1 27.3 13
-14 2 1 81.59 15.4
14 -2 -1 18.2 13.7
-14 -2 1 14.1 11
14 -2 -1 13.8 14.1
-14 -2 1 35.7 13.1
-14 2 0 112.69 17.2
-14 2 0 125.59 18.2
14 2 0 156.68 17.9
14 2 0 163.58 20.4
-14 -2 0 125.59 15.9
14 -2 0 107.29 18.4
-14 -2 0 116.89 16.5
14 -2 0 125.79 18.3
14 3 -3 19 12.8
-14 3 3 3.3 14.5
14 3 -3 24.8 16.1
-14 3 3 6.9 15.7
14 -3 -3 25.5 13.9
-14 -3 3 15.7 13.3
14 -3 -3 21 16.2
-14 -3 3 5.2 11.5
-14 3 2 19 15.7
-14 3 2 24.4 15.6
14 3 -2 61.99 22.8
14 3 -2 28.8 14.3
14 -3 -2 50.69 14.9
14 -3 -2 28.6 16.1
-14 -3 2 48.6 13.6
-14 -3 2 22.6 11.4
-14 3 1 13 14.1
14 3 -1 17.4 11.6
-14 3 1 4.8 14.2
14 3 -1 25.8 13.3
14 -3 -1 -10.4 13.5
14 -3 -1 -6 14.3
-14 -3 1 22 11.8
-14 -3 1 -3.9 12.1
