#------------------------------------------------------------------------------
#$Date: 2022-04-26 12:23:46 +0300 (Tue, 26 Apr 2022) $
#$Revision: 274684 $
#$URL: file:///home/coder/svn-repositories/cod/cif/8/10/50/8105070.cif $
#------------------------------------------------------------------------------
#
# This file is available in the Crystallography Open Database (COD),
# http://www.crystallography.net/
#
# All data on this site have been placed in the public domain by the
# contributors.
#
data_8105070
loop_
_publ_author_name
'Du, Chao-Jun'
'Wang, Zong-Dong'
'Zhu, Da-Feng'
'Zhu, Yuan-Liang'
'Zeng, Yan'
_publ_section_title
;
 Crystal structure of 3-iodophthalic acid, C8H5IO4
;
_journal_issue                   1
_journal_name_full
'Zeitschrift f\"ur Kristallographie - New Crystal Structures'
_journal_page_first              243
_journal_page_last               244
_journal_paper_doi               10.1515/ncrs-2019-0598
_journal_volume                  235
_journal_year                    2019
_chemical_formula_moiety         'C8 H5 I O4'
_chemical_formula_sum            'C8 H5 I O4'
_chemical_formula_weight         292.03
_space_group_crystal_system      triclinic
_space_group_IT_number           2
_space_group_name_Hall           '-P 1'
_space_group_name_H-M_alt        'P -1'
_symmetry_Int_Tables_number      2
_atom_sites_solution_primary     dual
_cell_angle_alpha                99.906(3)
_cell_angle_beta                 97.718(3)
_cell_angle_gamma                105.651(3)
_cell_formula_units_Z            2
_cell_length_a                   4.5570(3)
_cell_length_b                   7.7720(5)
_cell_length_c                   12.7660(8)
_cell_measurement_reflns_used    4885
_cell_measurement_temperature    150(2)
_cell_measurement_theta_max      26.355
_cell_measurement_theta_min      2.914
_cell_volume                     421.02(5)
_computing_cell_refinement       'SAINT v8.37A (Bruker, 2015) [1]'
_computing_data_reduction        'SAINT v8.37A (Bruker, 2015) [1]'
_computing_molecular_graphics    'Olex2 (Dolomanov et al., 2009) [4]'
_computing_publication_material  'Olex2 (Dolomanov et al., 2009) [4]'
_computing_structure_refinement  'olex2.refine (Bourhis et al., 2015) [3]'
_computing_structure_solution    'ShelXT (Sheldrick, 2015) [2]'
_diffrn_ambient_temperature      149.99
_diffrn_measured_fraction_theta_full 0.9988
_diffrn_measured_fraction_theta_max 0.9988
_diffrn_measurement_device       'Bruker APEX-II diffractometer'
_diffrn_measurement_device_type  'Bruker APEX-II CCD'
_diffrn_measurement_method       '\f and \w scans'
_diffrn_radiation_monochromator  graphite
_diffrn_radiation_type           'Mo K\a'
_diffrn_radiation_wavelength     0.71073
_diffrn_reflns_av_R_equivalents  0.0388
_diffrn_reflns_av_unetI/netI     0.0292
_diffrn_reflns_limit_h_max       5
_diffrn_reflns_limit_h_min       -5
_diffrn_reflns_limit_k_max       9
_diffrn_reflns_limit_k_min       -9
_diffrn_reflns_limit_l_max       15
_diffrn_reflns_limit_l_min       -15
_diffrn_reflns_number            8356
_diffrn_reflns_theta_full        26.3992
_diffrn_reflns_theta_max         26.40
_diffrn_reflns_theta_min         2.79
_exptl_absorpt_coefficient_mu    3.779
_exptl_absorpt_correction_T_max  0.7454
_exptl_absorpt_correction_T_min  0.6141
_exptl_absorpt_correction_type   multi-scan
_exptl_absorpt_process_details
;
SADABS-2016/2 (Bruker,2016/2) was used for absorption correction.
wR2(int) was 0.0736 before and 0.0524 after correction.
The Ratio of minimum to maximum transmission is 0.8239.
The \l/2 correction factor is Not present.
;
_exptl_crystal_colour            colorless
_exptl_crystal_density_diffrn    2.3034
_exptl_crystal_description       needle
_exptl_crystal_F_000             275.3329
_exptl_crystal_size_max          0.35
_exptl_crystal_size_mid          0.2
_exptl_crystal_size_min          0.1
_refine_diff_density_max         0.4738
_refine_diff_density_min         -0.5887
_refine_diff_density_rms         0.1394
_refine_ls_d_res_high            0.7993
_refine_ls_d_res_low             7.3034
_refine_ls_goodness_of_fit_ref   1.0509
_refine_ls_hydrogen_treatment    constr
_refine_ls_matrix_type           full
_refine_ls_number_constraints    10
_refine_ls_number_parameters     120
_refine_ls_number_reflns         1724
_refine_ls_number_restraints     0
_refine_ls_restrained_S_all      1.0509
_refine_ls_R_factor_all          0.0244
_refine_ls_R_factor_gt           0.0191
_refine_ls_shift/su_max          0.0000
_refine_ls_shift/su_mean         0.0000
_refine_ls_structure_factor_coef Fsqd
_refine_ls_weighting_details
'w=1/[\s^2^(Fo^2^)+(0.0171P)^2^+0.2727P] where P=(Fo^2^+2Fc^2^)/3'
_refine_ls_weighting_scheme      calc
_refine_ls_wR_factor_gt          0.0410
_refine_ls_wR_factor_ref         0.0433
_reflns_Friedel_coverage         0.0
_reflns_limit_h_max              5
_reflns_limit_h_min              -5
_reflns_limit_k_max              9
_reflns_limit_k_min              -9
_reflns_limit_l_max              15
_reflns_limit_l_min              0
_reflns_number_gt                1565
_reflns_number_total             1724
_reflns_threshold_expression     I>=2u(I)
_iucr_refine_instructions_details
;
TITL 1_a.res in P-1
CELL 0.71073 4.557 7.772 12.766 99.906 97.718 105.651
ZERR 2 0.0003 0.0005 0.0008 0.003 0.003 0.003
LATT 1
SFAC C H O I
UNIT 16 10 8 2

L.S. 10
PLAN  20
SIZE 0.35 0.2 0.1
TEMP -123.16
ACTA 
BOND $H
FMAP 2
AFIX 
WGHT 0.017114 0.272684
FVAR 0.750313
REM <olex2.extras>
REM <HklSrc "%.\\1.hkl">
REM </olex2.extras>

C1    1     0.40014  0.23858  0.25370  11.00000  0.00952  0.01146  0.01205 =
 0.00497  0.00195  0.00419 
C2    1     0.27553  0.29627  0.34360  11.00000  0.01168  0.01258  0.01128 =
 0.00411  0.00153  0.00287 
C3    1     0.27393  0.47667  0.37195  11.00000  0.02036  0.01463  0.01360 =
 0.00268  0.00672  0.00627 
AFIX 43
H3    2     0.18476  0.51397  0.43174  11.00000 -1.20000 
AFIX 0
C4    1     0.40226  0.60254  0.31316  11.00000  0.02608  0.00968  0.02070 =
 0.00300  0.00435  0.00680 
AFIX 43
H4    2     0.40294  0.72616  0.33335  11.00000 -1.20000 
AFIX 0
C5    1     0.52911  0.54875  0.22532  11.00000  0.02015  0.01353  0.01460 =
 0.00660  0.00232  0.00267 
AFIX 43
H5    2     0.61877  0.63536  0.18556  11.00000 -1.20000 
AFIX 0
C6    1     0.52494  0.36724  0.19538  11.00000  0.01196  0.01681  0.00972 =
 0.00310  0.00293  0.00263 
C7    1     0.40058  0.04420  0.21796  11.00000  0.01532  0.01328  0.00765 =
 0.00550  0.00709  0.00403 
C8    1     0.15243  0.16402  0.41049  11.00000  0.01151  0.01279  0.01081 =
 0.00083  0.00137  0.00243 
I1    4     0.69137  0.29139  0.05408  11.00000  0.02229  0.02095  0.01516 =
 0.00763  0.01006  0.00656 
O1    3     0.13120 -0.08042  0.16793  11.00000  0.01128  0.01569  0.01979 =
 0.00032  0.00447  0.00639 
AFIX 147
H1    2    -0.01478 -0.03492  0.17425  11.00000 -1.50000 
AFIX 0
O2    3     0.63513 -0.00012  0.22628  11.00000  0.01342  0.01897  0.02211 =
 0.00699  0.00796  0.00939 
O3    3    -0.02100  0.21874  0.47517  11.00000  0.02654  0.01417  0.02104 =
 0.00850  0.01550  0.01021 
AFIX 147
H3a   2    -0.07300  0.14233  0.51364  11.00000 -1.50000 
AFIX 0
O4    3     0.21272  0.01936  0.40536  11.00000  0.02258  0.01468  0.01786 =
 0.00879  0.01109  0.00940 
HKLF 4

END
Q1 1 0.466667 0.24 0.025 11 0.05 0.47
Q4 1 0.533333 0.12 -0.025 11 0.05 0.45
Q7 1 0.333333 0.4 0.375 11 0.05 0.42
Q8 1 0.266667 0.52 0.325 11 0.05 0.42
Q13 1 0.666667 0.2 0.25 11 0.05 0.41
Q11 1 0.333333 -0.24 0.125 11 0.05 0.41
Q12 1 0 0.4 0.65 11 0.05 0.41
Q19 1 -0.266667 0.4 0.375 11 0.05 0.4
Q17 1 -0.2 -0.12 0.025 11 0.05 0.4
Q16 1 0.466667 0.28 0.225 11 0.05 0.4
Q24 1 0.533333 0.28 -0.05 11 0.05 0.39
Q25 1 0.066667 0.68 0.275 11 0.05 0.39
Q26 1 0.133333 0.2 0.05 11 0.05 0.39
Q32 1 0.133333 0.16 0.175 11 0.05 0.38
Q33 1 0.4 0.28 0.3 11 0.05 0.38
Q28 1 0.733333 0.88 0.375 11 0.05 0.38
Q29 1 1.266667 0.48 0.075 11 0.05 0.38
Q36 1 0.533333 0 0.425 11 0.05 0.37
Q39 1 0.666667 0.16 0.325 11 0.05 0.36
Q40 1 0.6 -0.16 0.175 11 0.05 0.36

  REM The information below was added by Olex2.
  REM
  REM R1 = 0.0191 for 1565 Fo > 4sig(Fo) and 0.0244 for all 1724 data
  REM 120 parameters refined using 0 restraints
  REM Highest difference peak 0.4738, deepest hole -0.5887
  REM Mean Shift 0.0000, Max Shift 0.0000.

  REM +++ Tabular Listing of Refinement Information +++
  REM R1_all = 0.0244
  REM R1_gt = 0.0191
  REM wR_ref = 0.0433
  REM GOOF = 1.0509
  REM Shift_max = 0.0000
  REM Shift_mean = 0.0000
  REM Reflections_all = 1724
  REM Reflections_gt = 1565
  REM Parameters = 120
  REM Hole = -0.5887
  REM Peak = 0.4738
  REM Flack = n/a

  
;
_cod_data_source_file            suppl_ncrs-2019-0598_suppl.cif
_cod_data_source_block           1
_cod_database_code               8105070
_olex2_refinement_description
;
1. Fixed Uiso
 At 1.2 times of:
  All C(H) groups
 At 1.5 times of:
  All O(H) groups
2.a Aromatic/amide H refined with riding coordinates:
 C5(H5), C4(H4), C3(H3)
2.b Idealised tetrahedral OH refined as rotating group:
 O1(H1), O3(H3a)
;
_iucr_refine_fcf_details
;
data_1
_computing_structure_refinement   'olex2.refine (Bourhis et al., 2015)'
_shelx_refln_list_code            4
loop_
  _space_group_symop_id
  _space_group_symop_operation_xyz
  1  x,y,z
  2  -x,-y,-z

_space_group_crystal_system       triclinic
_space_group_IT_number            2
_space_group_name_H-M_alt         'P -1'
_space_group_name_Hall            '-P 1'
_symmetry_space_group_name_H-M    'P -1'
_symmetry_space_group_name_Hall   '-P 1'
_symmetry_Int_Tables_number       2
_cell_length_a                    4.5570(3)
_cell_length_b                    7.7720(5)
_cell_length_c                    12.7660(8)
_cell_angle_alpha                 99.906(3)
_cell_angle_beta                  97.718(3)
_cell_angle_gamma                 105.651(3)
_cell_volume                      421.02(5)
loop_
  _refln_index_h
  _refln_index_k
  _refln_index_l
  _refln_F_squared_calc
  _refln_F_squared_meas
  _refln_F_squared_sigma
  _refln_F_squared_weight
  _refln_observed_status
-5 -2 2 475.237 432.819 29.358 30.357 o
-5 -2 3 636.062 662.217 33.092 22.885 o
-5 -2 4 24.026 27.908 19.048 86.161 o
-5 -2 5 58.632 68.478 23.648 55.214 o
-5 -1 1 123.500 122.094 18.169 86.589 o
-5 -1 2 204.222 200.464 20.704 64.246 o
-5 -1 3 1226.930 1245.290 36.716 14.966 o
-5 -1 4 941.960 937.400 33.369 19.565 o
-5 -1 5 101.430 85.244 18.664 84.486 o
-5 -1 6 1165.270 1133.580 49.401 10.131 o
-5 -1 7 1008.640 1000.390 35.707 17.268 o
-5 -1 8 193.479 221.790 34.649 25.137 o
-5 0 1 793.634 801.906 35.412 19.235 o
-5 0 2 490.802 487.102 23.418 42.378 o
-5 0 3 99.968 99.339 14.868 126.882 o
-5 0 4 233.571 196.255 21.118 61.224 o
-5 0 5 100.153 99.836 15.268 121.040 o
-5 0 6 282.347 281.561 21.356 57.291 o
-5 0 7 642.653 658.449 28.227 29.069 o
-5 0 8 902.020 878.426 30.283 22.846 o
-5 0 9 1312.630 1302.510 36.377 14.604 o
-5 1 1 560.178 591.773 25.999 34.383 o
-5 1 2 578.897 597.163 24.111 37.894 o
-5 1 3 836.588 877.811 30.163 23.548 o
-5 1 4 1069.970 1074.690 30.044 20.816 o
-5 1 5 1106.960 1155.590 29.131 20.908 o
-5 1 6 387.859 367.422 17.666 69.510 o
-5 1 7 0.293 14.068 12.241 210.802 o
-5 1 8 24.260 8.863 12.537 196.117 o
-5 1 9 242.704 216.003 20.910 61.649 o
-5 2 1 156.116 177.287 17.352 90.193 o
-5 2 2 11.188 1.379 13.513 172.479 o
-5 2 3 52.637 20.534 11.623 216.741 o
-5 2 4 477.579 474.836 23.328 43.027 o
-5 2 5 212.803 200.519 13.456 127.115 o
-5 2 6 814.464 857.462 29.751 24.287 o
-5 2 7 1668.560 1672.620 37.027 12.058 o
-5 2 8 1385.850 1324.570 37.159 13.862 o
-5 2 9 362.856 328.301 20.893 56.066 o
-5 3 1 718.012 746.909 26.319 30.465 o
-5 3 2 1529.720 1501.100 35.633 13.499 o
-5 3 3 1068.390 1063.170 26.449 24.079 o
-5 3 4 495.061 511.264 18.673 57.065 o
-5 3 5 4.831 -7.160 10.236 301.661 o
-5 3 6 81.112 67.113 12.851 169.799 o
-5 3 7 39.375 35.156 12.566 188.952 o
-5 3 8 356.690 298.737 18.840 66.361 o
-5 4 1 26.668 4.861 13.204 177.318 o
-5 4 2 100.773 95.936 7.223 388.216 o
-5 4 3 149.873 150.592 12.148 163.357 o
-5 4 4 759.527 799.993 38.561 17.019 o
-5 4 5 1379.580 1321.360 31.552 16.702 o
-5 4 6 1037.330 1062.070 35.096 17.349 o
-5 4 7 677.728 705.625 25.679 32.358 o
-5 4 8 221.153 225.490 17.189 85.985 o
-5 5 1 251.570 255.346 31.532 29.457 o
-5 5 2 404.338 417.345 37.047 20.792 o
-5 5 3 246.056 257.616 28.562 35.324 o
-5 5 4 28.184 30.905 12.900 182.542 o
-5 5 5 0.264 -1.663 8.946 397.996 o
-5 5 6 197.688 179.885 17.921 82.950 o
-5 6 1 99.294 70.808 23.140 56.680 o
-5 6 2 144.128 169.879 24.370 49.614 o
-5 6 3 1148.510 1117.460 79.303 4.567 o
-5 6 4 967.149 858.394 65.900 6.571 o
-4 -4 1 303.666 290.781 28.167 35.364 o
-4 -4 2 293.945 313.685 27.761 36.256 o
-4 -4 3 103.356 82.096 18.733 83.897 o
-4 -4 4 164.899 126.054 19.893 71.795 o
-4 -4 5 617.733 610.328 53.945 9.995 o
-4 -4 6 420.842 394.763 25.176 40.041 o
-4 -4 7 651.032 605.724 36.729 19.424 o
-4 -4 8 816.772 795.649 38.439 16.860 o
-4 -3 1 658.854 614.681 36.164 19.857 o
-4 -3 2 684.643 697.827 40.988 15.880 o
-4 -3 3 890.569 896.788 35.941 18.021 o
-4 -3 4 1448.790 1426.040 40.364 12.116 o
-4 -3 5 595.179 578.300 28.474 29.695 o
-4 -3 6 370.807 379.707 25.584 39.969 o
-4 -3 7 33.432 -0.611 16.909 109.094 o
-4 -3 8 187.217 149.221 20.218 68.501 o
-4 -3 9 268.044 269.215 23.110 50.722 o
-4 -3 10 620.874 601.495 46.349 13.135 o
-4 -2 1 351.065 328.570 22.726 49.434 o
-4 -2 2 74.396 71.207 19.021 83.133 o
-4 -2 3 435.548 420.348 25.958 37.697 o
-4 -2 4 351.887 328.647 21.660 53.326 o
-4 -2 5 1655.230 1653.310 45.217 9.665 o
-4 -2 6 668.939 688.602 59.529 8.254 o
-4 -2 7 1847.790 1789.270 49.658 8.082 o
-4 -2 8 1285.060 1298.160 33.339 16.344 o
-4 -2 9 816.235 800.811 27.759 26.909 o
-4 -2 10 75.308 87.978 15.104 126.635 o
-4 -2 11 1.181 13.192 15.110 138.741 o
-4 -1 1 765.066 726.349 20.044 41.253 o
-4 -1 2 2690.680 2606.980 80.652 3.424 o
-4 -1 3 1434.940 1450.860 39.889 12.299 o
-4 -1 4 917.462 911.810 27.602 25.354 o
-4 -1 5 68.957 57.229 14.750 134.741 o
-4 -1 6 374.654 357.032 20.921 55.133 o
-4 -1 7 59.382 56.495 12.238 191.184 o
-4 -1 8 923.512 919.070 28.820 23.946 o
-4 -1 9 1535.840 1568.220 38.955 12.073 o
-4 -1 10 1851.250 1928.680 42.130 9.604 o
-4 -1 11 1387.190 1436.300 37.552 13.449 o
-4 -1 12 527.767 529.783 23.425 41.144 o
-4 0 1 415.488 392.395 16.493 73.789 o
-4 0 2 97.164 93.338 9.685 259.886 o
-4 0 3 1071.370 1009.050 41.562 13.637 o
-4 0 4 1782.460 1767.290 44.256 9.461 o
-4 0 5 2805.190 2857.800 44.268 6.295 o
-4 0 6 1057.290 1037.130 28.076 22.798 o
-4 0 7 1190.350 1201.280 30.594 18.981 o
-4 0 8 543.802 567.290 21.130 46.460 o
-4 0 9 35.956 31.308 10.519 264.747 o
-4 0 10 29.749 30.254 11.011 245.803 o
-4 0 11 527.265 554.844 21.571 45.799 o
-4 0 12 813.554 808.948 25.311 30.205 o
-4 1 1 2583.270 2569.660 40.017 7.495 o
-4 1 2 330.396 359.891 14.259 96.579 o
-4 1 3 84.286 92.762 10.196 245.280 o
-4 1 4 0.228 7.877 11.460 241.265 o
-4 1 5 29.396 41.295 7.772 456.474 o
-4 1 6 625.652 635.669 18.523 50.551 o
-4 1 7 1345.740 1378.710 29.958 17.642 o
-4 1 8 1679.680 1729.690 34.496 12.772 o
-4 1 9 1495.740 1526.230 30.951 15.679 o
-4 1 10 1655.810 1616.460 35.188 12.870 o
-4 1 11 590.181 591.095 26.345 33.297 o
-4 1 12 397.333 354.113 22.672 48.188 o
-4 2 1 1166.450 1173.560 23.249 25.308 o
-4 2 2 1458.970 1513.350 41.887 11.398 o
-4 2 3 2367.620 2301.220 49.768 6.741 o
-4 2 4 1827.040 1828.010 32.582 12.558 o
-4 2 5 1688.500 1702.770 29.933 14.504 o
-4 2 6 361.794 405.306 15.207 84.915 o
-4 2 7 393.659 412.880 17.895 66.929 o
-4 2 8 4.022 -0.250 10.180 305.413 o
-4 2 9 352.505 352.991 18.340 67.962 o
-4 2 10 679.520 693.203 26.406 31.220 o
-4 2 11 611.165 612.559 29.974 27.130 o
-4 2 12 871.839 878.139 33.493 20.124 o
-4 3 1 132.560 140.851 10.068 221.897 o
-4 3 2 140.562 140.124 9.970 222.146 o
-4 3 3 0.606 0.744 7.896 509.701 o
-4 3 4 568.649 578.822 15.583 64.431 o
-4 3 5 845.938 859.814 21.187 35.701 o
-4 3 6 1593.210 1607.920 31.671 14.574 o
-4 3 7 717.150 754.203 22.558 36.903 o
-4 3 8 2774.650 2741.690 52.723 5.523 o
-4 3 9 1227.090 1149.610 30.649 18.864 o
-4 3 10 309.117 309.034 19.240 66.064 o
-4 3 11 8.808 10.529 19.462 83.572 o
-4 4 1 3178.570 3218.840 67.457 3.792 o
-4 4 2 1186.950 1196.730 19.003 28.959 o
-4 4 3 1266.100 1281.800 24.164 22.701 o
-4 4 4 857.821 872.024 22.975 32.490 o
-4 4 5 597.783 614.496 20.385 46.412 o
-4 4 6 8.151 25.678 9.935 310.697 o
-4 4 7 165.994 169.500 12.271 155.980 o
-4 4 8 139.485 131.971 16.773 98.310 o
-4 4 9 554.875 531.667 26.579 33.787 o
-4 4 10 841.262 893.887 30.525 23.062 o
-4 4 11 1416.960 1338.190 38.707 13.041 o
-4 5 1 17.346 22.725 13.289 175.182 o
-4 5 2 1303.260 1322.100 42.425 11.985 o
-4 5 3 15.708 12.982 4.478 1319.430 o
-4 5 4 637.400 652.626 15.392 59.797 o
-4 5 5 1419.410 1427.000 26.695 18.830 o
-4 5 6 1917.270 1921.900 45.709 8.635 o
-4 5 7 1485.690 1498.880 40.029 11.986 o
-4 5 8 241.882 202.046 15.105 104.222 o
-4 5 9 7.917 2.681 14.752 145.328 o
-4 5 10 54.478 47.063 18.939 85.297 o
-4 6 1 1594.320 1505.340 49.165 8.950 o
-4 6 2 550.041 516.810 29.966 28.204 o
-4 6 3 257.661 227.326 21.195 59.609 o
-4 6 4 225.399 161.867 14.430 115.419 o
-4 6 5 40.566 36.288 6.457 603.510 o
-4 6 6 15.731 26.514 10.505 275.369 o
-4 6 7 236.256 271.359 20.881 61.098 o
-4 6 8 1114.740 1142.360 38.085 14.985 o
-4 7 1 66.162 49.013 18.209 91.286 o
-4 7 2 351.457 336.782 26.710 37.802 o
-4 7 3 847.770 773.505 102.297 2.927 o
-4 7 4 1219.850 1251.820 55.156 8.341 o
-4 7 5 846.368 874.504 29.739 23.924 o
-4 7 6 459.856 457.035 18.359 60.839 o
-4 8 1 382.473 337.627 28.740 33.002 o
-4 8 2 23.784 0.705 27.177 42.892 o
-4 8 3 5.162 -51.128 20.304 77.131 o
-3 -6 1 16.402 18.983 23.505 57.193 o
-3 -6 2 39.702 32.772 24.607 51.731 o
-3 -6 3 274.105 260.881 28.506 35.122 o
-3 -6 4 396.469 392.420 26.548 37.134 o
-3 -6 5 705.431 688.177 26.914 30.110 o
-3 -6 6 1268.540 1187.000 32.572 17.221 o
-3 -6 7 667.541 690.825 29.455 26.889 o
-3 -6 8 776.702 741.237 40.954 15.493 o
-3 -5 1 567.346 605.715 37.276 19.360 o
-3 -5 2 829.796 851.561 38.020 16.962 o
-3 -5 3 846.728 828.256 37.970 16.972 o
-3 -5 4 198.584 233.797 14.925 108.750 o
-3 -5 5 56.433 70.420 11.395 215.927 o
-3 -5 6 335.278 345.505 21.686 53.454 o
-3 -5 7 631.159 583.968 41.703 15.794 o
-3 -5 8 559.700 588.136 29.445 28.530 o
-3 -5 9 1018.930 1021.790 38.753 15.290 o
-3 -5 10 1163.500 1130.520 42.119 12.865 o
-3 -5 11 1080.460 993.759 43.888 12.564 o
-3 -4 1 144.475 158.451 21.763 61.196 o
-3 -4 2 789.616 904.345 41.245 14.980 o
-3 -4 3 645.961 640.676 19.857 46.090 o
-3 -4 4 1741.520 1836.270 59.912 6.382 o
-3 -4 5 1994.690 2011.080 56.443 6.500 o
-3 -4 6 1372.250 1335.550 36.219 14.328 o
-3 -4 7 564.876 602.975 29.557 28.234 o
-3 -4 8 361.795 370.237 21.741 52.162 o
-3 -4 9 4.749 1.550 15.217 137.038 o
-3 -4 10 240.547 226.933 25.293 44.242 o
-3 -4 11 767.904 755.024 35.857 19.145 o
-3 -4 12 295.851 287.430 31.837 28.490 o
-3 -3 1 1183.280 1219.040 31.038 18.664 o
-3 -3 2 485.093 515.721 16.064 68.547 o
-3 -3 3 74.786 68.939 13.033 166.622 o
-3 -3 4 18.133 -1.678 10.974 257.521 o
-3 -3 5 474.431 467.185 23.685 42.217 o
-3 -3 6 1280.290 1280.760 37.707 14.158 o
-3 -3 7 1313.660 1361.580 46.554 10.458 o
-3 -3 8 2056.260 2066.740 40.065 9.348 o
-3 -3 9 1644.760 1743.950 47.512 9.005 o
-3 -3 10 1497.800 1528.930 42.001 11.216 o
-3 -3 11 821.972 818.938 27.857 26.620 o
-3 -3 12 47.142 65.273 18.178 92.175 o
-3 -3 13 24.933 24.940 17.304 104.019 o
-3 -2 1 1111.370 1125.040 20.857 28.869 o
-3 -2 2 1252.040 1240.610 24.581 22.750 o
-3 -2 3 3436.650 3403.040 58.607 4.083 o
-3 -2 4 2357.860 2366.510 51.012 6.533 o
-3 -2 5 1854.310 1876.740 39.004 10.470 o
-3 -2 6 1271.060 1209.430 62.264 6.816 o
-3 -2 7 220.194 202.715 13.201 129.461 o
-3 -2 8 5.916 8.052 8.594 421.165 o
-3 -2 9 404.580 411.918 18.247 64.719 o
-3 -2 10 718.850 750.841 24.460 33.440 o
-3 -2 11 1881.780 1879.170 44.247 9.088 o
-3 -2 12 1848.090 1889.760 46.187 8.717 o
-3 -2 13 1427.460 1410.770 42.414 11.469 o
-3 -2 14 961.867 964.399 39.804 15.046 o
-3 -1 1 163.815 145.883 8.937 244.765 o
-3 -1 2 2.825 -5.384 5.779 939.887 o
-3 -1 3 46.750 44.087 10.618 253.237 o
-3 -1 4 1441.720 1446.040 29.960 16.765 o
-3 -1 5 1570.690 1633.560 32.570 14.249 o
-3 -1 6 3899.720 3942.850 59.455 3.506 o
-3 -1 7 2120.910 2203.900 55.761 6.315 o
-3 -1 8 1039.480 1060.230 29.885 21.260 o
-3 -1 9 3823.990 4046.910 97.003 2.136 o
-3 -1 10 162.325 160.915 14.569 120.690 o
-3 -1 11 13.071 30.464 11.141 246.341 o
-3 -1 12 198.512 181.175 17.671 84.834 o
-3 -1 13 488.088 531.150 28.188 31.697 o
-3 -1 14 419.526 433.540 19.838 56.720 o
-3 0 1 2629.900 2542.900 34.333 8.237 o
-3 0 2 4431.800 4487.050 55.339 3.163 o
-3 0 3 1875.910 1944.580 32.064 12.249 o
-3 0 4 2718.020 2658.660 94.471 2.703 o
-3 0 5 35.342 36.488 9.820 299.153 o
-3 0 6 21.295 11.190 6.668 644.617 o
-3 0 7 622.929 638.758 18.267 51.360 o
-3 0 8 341.102 348.698 15.642 85.457 o
-3 0 9 1425.710 1433.840 34.079 14.835 o
-3 0 10 2742.010 2783.080 47.053 6.141 o
-3 0 11 2192.990 2266.190 41.054 8.544 o
-3 0 12 1888.600 1850.560 45.648 8.790 o
-3 0 13 420.703 374.019 24.414 42.237 o
-3 0 14 109.448 90.973 22.942 57.157 o
-3 1 1 27.660 36.016 4.884 982.795 o
-3 1 2 1125.840 1161.330 18.956 30.394 o
-3 1 3 2763.390 2803.500 39.417 6.975 o
-3 1 4 1238.840 1189.070 22.649 24.826 o
-3 1 5 3698.510 3608.690 49.156 4.331 o
-3 1 6 3338.760 3441.470 47.846 4.872 o
-3 1 7 3092.740 3209.610 45.941 5.460 o
-3 1 8 439.062 451.975 19.380 57.523 o
-3 1 9 84.410 68.090 11.393 208.093 o
-3 1 10 1.764 3.237 13.255 180.764 o
-3 1 11 173.611 159.586 17.694 86.725 o
-3 1 12 790.390 782.198 32.190 22.246 o
-3 1 13 828.624 743.971 33.794 20.589 o
-3 1 14 1599.670 1578.410 57.015 7.198 o
-3 2 1 3569.230 3481.150 68.455 3.419 o
-3 2 2 3550.760 3556.720 44.026 4.826 o
-3 2 3 101.167 81.723 5.743 518.857 o
-3 2 4 3.080 4.909 4.839 1305.050 o
-3 2 5 93.764 82.600 7.657 372.522 o
-3 2 6 336.062 350.665 12.639 111.149 o
-3 2 7 1412.100 1379.980 27.667 18.500 o
-3 2 8 1659.130 1693.380 45.625 9.501 o
-3 2 9 3013.870 3038.570 62.934 4.272 o
-3 2 10 2624.330 2472.100 56.221 5.493 o
-3 2 11 792.137 785.916 29.409 25.232 o
-3 2 12 215.997 191.041 18.322 78.700 o
-3 2 13 41.430 21.880 22.970 59.298 o
-3 3 1 956.697 947.329 14.152 43.862 o
-3 3 2 1423.110 1459.320 19.980 22.866 o
-3 3 3 3117.360 3148.950 42.684 5.753 o
-3 3 4 4358.260 4372.440 66.743 2.841 o
-3 3 5 2893.310 3002.200 45.502 5.921 o
-3 3 6 589.427 607.875 24.485 36.811 o
-3 3 7 283.818 281.690 17.368 79.218 o
-3 3 8 0.335 -3.667 8.373 454.216 o
-3 3 9 84.194 39.089 12.844 172.061 o
-3 3 10 841.445 810.228 26.112 28.694 o
-3 3 11 1008.050 1011.620 31.237 20.572 o
-3 3 12 1350.840 1345.420 44.017 11.229 o
-3 3 13 1134.140 1056.850 37.205 15.576 o
-3 4 1 491.028 479.471 21.436 48.154 o
-3 4 2 382.476 392.788 8.076 148.887 o
-3 4 3 335.565 342.796 11.076 128.360 o
-3 4 4 41.456 54.619 6.770 540.707 o
-3 4 5 405.920 412.761 16.784 72.138 o
-3 4 6 1596.960 1609.910 30.111 15.218 o
-3 4 7 3120.350 3161.310 55.590 4.672 o
-3 4 8 2123.520 2138.740 39.962 9.095 o
-3 4 9 706.488 665.423 28.672 27.676 o
-3 4 10 623.170 601.313 24.886 35.479 o
-3 4 11 89.570 99.191 18.105 89.621 o
-3 4 12 51.164 25.964 16.594 110.836 o
-3 5 1 2105.140 2077.320 51.285 7.101 o
-3 5 2 4508.780 4549.320 68.315 2.681 o
-3 5 3 3013.380 3016.840 43.901 5.890 o
-3 5 4 8.121 3.412 8.468 433.550 o
-3 5 5 1237.760 1285.730 30.859 18.165 o
-3 5 6 233.278 227.885 11.091 157.916 o
-3 5 7 17.971 11.273 9.366 346.081 o
-3 5 8 245.523 207.301 15.555 99.199 o
-3 5 9 1065.990 1058.790 33.229 18.471 o
-3 5 10 773.956 738.796 28.381 26.930 o
-3 5 11 622.786 522.163 28.259 30.041 o
-3 6 1 15.451 22.433 11.332 239.005 o
-3 6 2 4.103 7.241 4.048 1790.980 o
-3 6 3 489.815 505.762 14.205 78.004 o
-3 6 4 1034.030 1005.550 25.933 25.308 o
-3 6 5 1241.240 1290.120 28.638 19.599 o
-3 6 6 1946.100 1916.490 38.394 10.281 o
-3 6 7 533.250 518.401 26.252 34.834 o
-3 6 8 871.761 855.089 29.783 23.732 o
-3 6 9 239.207 222.341 19.602 68.699 o
-3 6 10 0.440 -22.532 16.986 110.426 o
-3 7 1 1530.370 1539.110 45.096 10.149 o
-3 7 2 289.829 281.074 14.493 102.027 o
-3 7 3 717.103 737.315 16.649 50.748 o
-3 7 4 258.169 244.335 17.344 81.975 o
-3 7 5 28.264 30.345 10.626 263.279 o
-3 7 6 31.247 13.435 11.006 248.571 o
-3 7 7 337.914 328.948 16.133 82.898 o
-3 7 8 661.224 632.308 21.814 40.972 o
-3 8 1 28.130 43.225 10.800 252.922 o
-3 8 2 738.898 790.961 24.166 33.279 o
-3 8 3 914.892 952.393 21.615 32.790 o
-3 8 4 599.557 566.547 24.351 37.280 o
-3 8 5 411.499 404.931 23.866 43.645 o
-3 9 1 499.569 479.050 20.995 49.316 o
-3 9 2 233.524 218.180 22.965 52.683 o
-2 -7 1 315.076 287.762 26.757 38.549 o
-2 -7 2 235.570 276.757 25.891 42.128 o
-2 -7 3 3.913 16.948 19.866 80.299 o
-2 -7 4 112.751 110.110 11.561 189.905 o
-2 -7 5 555.062 523.451 21.067 46.929 o
-2 -7 6 721.906 682.121 40.967 15.789 o
-2 -7 7 585.313 585.803 39.006 17.890 o
-2 -7 8 833.626 913.578 52.194 10.037 o
-2 -7 9 1275.420 1295.920 37.907 14.052 o
-2 -6 1 2587.090 2681.860 63.469 4.721 o
-2 -6 2 820.537 854.548 36.826 17.849 o
-2 -6 3 631.764 626.863 20.061 46.154 o
-2 -6 4 1196.270 1214.890 47.764 10.509 o
-2 -6 5 997.884 1027.530 27.857 23.639 o
-2 -6 6 407.884 395.228 20.488 55.183 o
-2 -6 7 5.783 -3.026 13.947 162.959 o
-2 -6 8 653.628 584.588 34.326 21.730 o
-2 -6 9 308.663 278.883 24.698 44.414 o
-2 -6 10 805.225 917.199 42.242 14.343 o
-2 -6 11 762.557 707.355 42.530 14.661 o
-2 -6 12 1650.070 1539.180 57.897 6.999 o
-2 -5 1 1.898 14.922 17.022 109.350 o
-2 -5 2 250.216 240.465 18.292 75.921 o
-2 -5 3 465.650 480.577 15.956 71.172 o
-2 -5 4 755.839 734.391 21.257 38.859 o
-2 -5 5 1096.260 1097.510 33.868 17.723 o
-2 -5 6 1536.250 1535.520 40.537 11.576 o
-2 -5 7 3311.140 3318.310 80.834 2.992 o
-2 -5 8 1436.200 1484.090 44.964 10.500 o
-2 -5 9 371.070 372.489 24.962 41.671 o
-2 -5 10 193.955 169.565 20.803 64.576 o
-2 -5 11 19.577 9.674 19.193 85.475 o
-2 -5 12 119.840 153.718 28.610 37.089 o
-2 -5 13 588.012 574.576 37.312 19.304 o
-2 -4 1 2011.880 2003.690 55.519 6.623 o
-2 -4 2 2076.680 2178.820 53.453 6.727 o
-2 -4 3 2915.940 3053.570 53.652 5.095 o
-2 -4 4 336.820 330.057 17.909 71.664 o
-2 -4 5 121.455 110.334 11.908 179.079 o
-2 -4 6 370.772 400.534 31.819 27.506 o
-2 -4 7 456.333 429.046 26.404 36.313 o
-2 -4 8 1024.710 1048.880 40.754 14.134 o
-2 -4 9 1518.060 1543.690 33.332 14.422 o
-2 -4 10 2813.850 2833.020 64.882 4.361 o
-2 -4 11 1854.700 1879.190 41.681 9.771 o
-2 -4 12 914.193 916.953 30.477 22.387 o
-2 -4 13 320.654 246.246 19.937 63.262 o
-2 -4 14 434.721 436.907 29.374 30.732 o
-2 -3 1 872.813 892.201 21.933 33.645 o
-2 -3 2 1338.270 1380.800 29.032 18.239 o
-2 -3 3 1001.310 955.070 23.314 29.052 o
-2 -3 4 2486.030 2451.120 44.276 7.197 o
-2 -3 5 4222.410 4248.940 85.832 2.315 o
-2 -3 6 4416.830 3308.620 279.651 0.379 o
-2 -3 7 1418.440 1507.690 49.443 9.228 o
-2 -3 8 333.576 338.174 14.993 91.305 o
-2 -3 9 4.988 0.094 9.289 365.467 o
-2 -3 10 83.001 83.762 11.577 200.751 o
-2 -3 11 422.917 404.378 20.222 55.578 o
-2 -3 12 1211.080 1201.820 34.646 16.285 o
-2 -3 13 1641.670 1686.790 59.064 6.718 o
-2 -3 14 1067.630 1143.180 50.681 9.909 o
-2 -3 15 1940.410 1787.110 85.556 3.589 o
-2 -2 1 7707.250 7769.330 103.392 1.052 o
-2 -2 2 315.457 280.801 11.622 130.090 o
-2 -2 3 92.531 70.827 7.126 418.403 o
-2 -2 4 17.887 12.749 5.809 833.723 o
-2 -2 5 419.881 428.425 19.962 56.301 o
-2 -2 6 687.481 713.850 30.617 25.111 o
-2 -2 7 3193.820 3268.670 60.994 4.176 o
-2 -2 8 5639.970 5506.990 110.113 1.397 o
-2 -2 9 1005.670 1005.240 26.061 25.508 o
-2 -2 10 2541.420 2566.950 58.853 5.256 o
-2 -2 11 1681.350 1728.040 54.103 7.529 o
-2 -2 12 577.611 556.790 30.290 27.277 o
-2 -2 13 16.756 -3.589 15.724 127.323 o
-2 -2 14 299.279 284.005 30.281 31.170 o
-2 -2 15 291.338 294.764 24.058 46.624 o
-2 -1 1 1152.890 1085.290 19.919 29.532 o
-2 -1 2 3837.410 3771.780 58.516 3.651 o
-2 -1 3 5304.050 5304.890 71.885 2.146 o
-2 -1 4 5807.170 5989.980 88.318 1.636 o
-2 -1 5 3950.500 4108.940 58.487 3.462 o
-2 -1 6 999.008 1048.500 25.851 25.553 o
-2 -1 7 397.324 412.047 24.154 43.041 o
-2 -1 8 350.554 363.248 16.008 81.753 o
-2 -1 9 413.925 409.501 25.388 39.502 o
-2 -1 10 149.487 127.061 18.344 83.622 o
-2 -1 11 3637.370 3429.650 88.282 2.551 o
-2 -1 12 1446.460 1374.270 38.403 12.981 o
-2 -1 13 2715.150 2686.370 60.706 4.853 o
-2 -1 14 1242.190 1221.270 38.963 13.846 o
-2 -1 15 278.403 316.916 38.709 19.887 o
-2 0 1 324.398 298.764 7.115 192.037 o
-2 0 2 53.995 46.645 4.157 992.377 o
-2 0 3 14.325 18.225 4.544 1275.990 o
-2 0 4 1631.570 1697.430 27.434 15.901 o
-2 0 5 1747.870 1672.550 27.861 15.068 o
-2 0 6 6377.920 6440.340 95.849 1.390 o
-2 0 7 2887.920 2816.050 53.727 5.251 o
-2 0 8 4070.460 3989.740 193.145 0.738 o
-2 0 9 1816.890 1836.970 78.882 4.143 o
-2 0 10 1018.000 1008.780 27.182 24.194 o
-2 0 11 99.748 58.477 14.583 133.764 o
-2 0 12 143.057 111.563 19.491 75.668 o
-2 0 13 126.336 148.828 22.570 57.826 o
-2 0 14 818.311 841.263 57.425 8.561 o
-2 0 15 742.778 699.903 42.740 14.615 o
-2 1 1 7626.960 7590.520 79.871 1.253 o
-2 1 2 5414.210 5365.170 65.726 2.225 o
-2 1 3 7927.120 8085.350 101.699 1.023 o
-2 1 4 2084.990 2083.680 29.242 11.821 o
-2 1 5 19.603 6.742 4.128 1497.620 o
-2 1 6 414.419 447.280 10.986 110.025 o
-2 1 7 404.984 450.059 31.940 26.864 o
-2 1 8 453.716 477.021 24.608 40.152 o
-2 1 9 2352.480 2338.410 52.409 6.373 o
-2 1 10 1669.830 1870.310 124.433 1.893 o
-2 1 11 2970.900 3089.160 78.746 3.294 o
-2 1 12 2373.700 2286.440 67.960 4.641 o
-2 1 13 689.105 673.579 37.960 18.063 o
-2 1 14 125.252 142.958 25.102 47.506 o
-2 1 15 63.209 18.507 30.731 33.260 o
-2 2 1 491.810 496.385 9.890 104.969 o
-2 2 2 450.579 450.754 8.992 121.088 o
-2 2 3 1578.090 1568.320 24.541 18.129 o
-2 2 4 5805.430 5988.290 79.999 1.763 o
-2 2 5 3164.450 3104.060 45.906 5.438 o
-2 2 6 4331.370 4450.490 70.305 2.717 o
-2 2 7 3377.330 3430.570 65.089 3.733 o
-2 2 8 1017.360 1007.010 30.550 21.094 o
-2 2 9 131.900 152.629 17.326 92.733 o
-2 2 10 43.037 17.977 14.874 137.938 o
-2 2 11 20.445 16.331 21.527 67.994 o
-2 2 12 749.460 717.609 49.731 11.244 o
-2 2 13 973.361 983.977 43.657 12.999 o
-2 2 14 1280.220 1281.890 67.629 5.898 o
-2 3 1 3306.100 3209.330 37.315 5.876 o
-2 3 2 3508.000 3493.530 48.681 4.606 o
-2 3 3 670.928 660.397 12.659 67.423 o
-2 3 4 560.505 563.855 12.264 80.496 o
-2 3 5 88.003 77.538 5.561 568.542 o
-2 3 6 398.171 374.667 17.074 72.014 o
-2 3 7 1125.210 1170.810 27.787 21.770 o
-2 3 8 1733.950 1751.530 42.832 9.974 o
-2 3 9 3049.300 3178.390 65.563 4.013 o
-2 3 10 1613.550 1638.240 52.587 8.012 o
-2 3 11 1831.030 1999.040 158.085 1.201 o
-2 3 12 175.672 183.777 23.511 52.186 o
-2 3 13 123.347 130.275 24.908 48.341 o
-2 3 14 2.226 33.398 31.846 31.319 o
-2 4 1 807.392 833.583 12.900 54.570 o
-2 4 2 2374.180 2397.790 32.456 9.472 o
-2 4 3 3239.290 3236.580 42.534 5.530 o
-2 4 4 6084.110 6092.120 75.916 1.744 o
-2 4 5 1473.010 1494.970 24.768 19.212 o
-2 4 6 934.249 956.801 22.122 31.682 o
-2 4 7 781.839 782.121 17.519 45.582 o
-2 4 8 195.304 190.442 17.386 87.063 o
-2 4 9 12.508 24.271 15.913 123.637 o
-2 4 10 360.808 363.310 23.378 46.633 o
-2 4 11 542.124 514.887 28.252 31.041 o
-2 4 12 1253.640 1241.070 41.854 12.500 o
-2 4 13 671.989 552.413 33.158 22.948 o
-2 5 1 1618.250 1615.950 24.674 17.549 o
-2 5 2 585.193 563.897 14.216 69.647 o
-2 5 3 105.429 109.567 7.044 388.252 o
-2 5 4 389.600 373.994 13.873 93.589 o
-2 5 5 1368.260 1444.540 27.250 18.842 o
-2 5 6 64.326 73.184 8.799 328.277 o
-2 5 7 3208.950 3332.910 65.324 3.864 o
-2 5 8 1818.120 1877.800 52.883 7.434 o
-2 5 9 1258.690 1349.710 73.969 5.051 o
-2 5 10 520.327 488.274 39.248 18.156 o
-2 5 11 37.867 41.011 17.584 99.523 o
-2 5 12 60.300 59.097 24.215 52.787 o
-2 6 1 1338.780 1361.910 25.599 20.516 o
-2 6 2 2837.670 3007.770 101.676 2.347 o
-2 6 3 1679.270 1650.180 35.266 12.671 o
-2 6 4 1347.420 1326.560 29.000 18.393 o
-2 6 5 438.603 446.082 16.136 72.825 o
-2 6 6 135.147 143.130 11.007 193.979 o
-2 6 7 113.969 88.358 15.580 116.008 o
-2 6 8 179.357 168.614 15.051 112.416 o
-2 6 9 141.964 138.239 12.463 159.764 o
-2 6 10 1135.480 1137.500 43.414 12.388 o
-2 7 1 26.048 10.524 6.539 656.119 o
-2 7 2 14.900 11.213 7.681 507.630 o
-2 7 3 306.052 335.991 18.737 68.318 o
-2 7 4 250.405 258.817 15.437 97.727 o
-2 7 5 1691.360 1638.060 49.605 8.528 o
-2 7 6 1118.850 1130.720 47.339 10.929 o
-2 7 7 643.235 651.511 29.007 27.963 o
-2 7 8 602.454 618.850 26.992 31.790 o
-2 8 1 1072.910 1081.210 41.686 13.448 o
-2 8 2 635.693 681.557 22.961 38.453 o
-2 8 3 725.752 758.926 28.639 27.007 o
-2 8 4 75.141 75.771 16.970 102.747 o
-2 8 5 53.189 46.790 14.982 133.279 o
-2 8 6 0.084 0.980 31.125 32.895 o
-2 9 1 40.461 47.224 12.659 184.840 o
-2 9 2 179.978 181.096 16.420 97.076 o
-2 9 3 648.435 621.829 28.210 29.240 o
-1 -8 1 859.775 843.794 44.554 13.106 o
-1 -8 2 530.757 539.077 35.166 21.748 o
-1 -8 3 705.369 733.562 29.112 26.737 o
-1 -8 4 279.358 260.699 15.547 94.282 o
-1 -8 5 64.693 60.222 15.529 122.796 o
-1 -8 6 154.071 151.419 15.512 110.182 o
-1 -8 7 710.438 739.631 35.196 20.083 o
-1 -8 8 111.361 86.566 19.304 78.912 o
-1 -8 9 1071.930 1098.350 38.804 14.875 o
-1 -7 1 78.140 101.751 12.601 172.842 o
-1 -7 2 1000.090 1004.930 23.869 28.037 o
-1 -7 3 738.336 788.094 31.208 23.666 o
-1 -7 4 1358.270 1405.930 31.522 16.587 o
-1 -7 5 1459.870 1513.120 40.114 12.020 o
-1 -7 6 1224.420 1190.040 47.196 10.663 o
-1 -7 7 531.049 483.214 25.988 35.667 o
-1 -7 8 45.595 50.099 15.055 132.723 o
-1 -7 9 7.458 10.191 15.003 140.160 o
-1 -7 10 163.894 168.718 20.347 68.223 o
-1 -7 11 622.579 596.385 37.283 19.110 o
-1 -7 12 974.913 1072.120 118.616 2.177 o
-1 -6 1 2186.650 2005.970 57.516 6.115 o
-1 -6 2 1608.570 1621.380 30.671 14.877 o
-1 -6 3 647.158 646.179 26.207 32.332 o
-1 -6 4 62.060 60.793 13.436 160.611 o
-1 -6 5 179.318 170.024 15.624 105.799 o
-1 -6 6 738.021 709.016 29.041 26.618 o
-1 -6 7 1652.530 1697.460 47.934 8.936 o
-1 -6 8 2554.950 2575.940 101.779 2.455 o
-1 -6 9 1848.080 1761.400 54.521 7.182 o
-1 -6 10 562.750 630.434 43.199 14.991 o
-1 -6 11 701.938 726.325 37.295 18.399 o
-1 -6 12 85.822 54.639 21.346 66.693 o
-1 -6 13 0.357 -14.004 24.361 53.700 o
-1 -5 1 846.089 851.834 20.218 37.469 o
-1 -5 2 4184.800 4232.980 60.789 3.184 o
-1 -5 3 3078.890 3152.310 47.921 5.344 o
-1 -5 4 1943.780 1991.550 38.020 10.266 o
-1 -5 5 1447.420 1440.780 30.897 16.257 o
-1 -5 6 487.552 511.172 38.935 18.499 o
-1 -5 7 130.916 108.852 19.378 77.048 o
-1 -5 8 66.609 61.460 26.111 45.483 o
-1 -5 9 1456.400 1356.310 59.230 7.099 o
-1 -5 10 1156.920 1186.000 30.330 19.474 o
-1 -5 11 860.736 839.621 42.771 14.006 o
-1 -5 12 1915.590 1851.080 62.077 5.880 o
-1 -5 13 1315.320 1447.930 70.105 5.470 o
-1 -5 14 1153.730 1203.010 64.089 6.602 o
-1 -4 1 40.035 32.354 4.351 1078.310 o
-1 -4 2 9.714 6.498 3.892 1818.810 o
-1 -4 3 284.381 291.503 12.196 126.963 o
-1 -4 4 1106.140 1097.470 28.196 21.945 o
-1 -4 5 3591.010 3687.550 101.333 2.111 o
-1 -4 6 2056.370 1951.380 60.227 5.929 o
-1 -4 7 4176.690 4173.840 77.436 2.603 o
-1 -4 8 2112.010 2110.330 47.634 7.679 o
-1 -4 9 1990.990 2021.660 66.249 5.218 o
-1 -4 10 375.654 413.758 36.192 21.831 o
-1 -4 11 0.070 14.005 13.983 161.926 o
-1 -4 12 361.810 328.285 24.561 43.371 o
-1 -4 13 472.673 538.022 47.734 12.826 o
-1 -4 14 469.138 483.089 29.379 30.123 o
-1 -4 15 850.430 850.062 61.382 7.568 o
-1 -3 1 3852.620 3790.060 52.422 3.938 o
-1 -3 2 7495.740 7572.780 98.782 1.123 o
-1 -3 3 2720.900 2723.420 50.725 5.811 o
-1 -3 4 864.476 795.706 21.759 35.010 o
-1 -3 5 806.636 853.528 19.020 40.651 o
-1 -3 6 40.440 31.803 7.929 433.504 o
-1 -3 7 700.831 724.366 22.985 36.690 o
-1 -3 8 2030.700 2085.980 63.201 5.511 o
-1 -3 9 1578.690 1628.370 40.286 11.369 o
-1 -3 10 2874.120 3011.780 113.782 1.963 o
-1 -3 11 2304.270 2434.470 66.302 4.792 o
-1 -3 12 2263.630 2222.400 54.661 6.269 o
-1 -3 13 913.915 949.098 37.734 16.537 o
-1 -3 14 62.608 51.754 20.896 70.238 o
-1 -3 15 11.551 20.790 23.353 58.009 o
-1 -2 1 417.644 418.132 11.025 111.207 o
-1 -2 2 569.540 564.609 14.159 70.858 o
-1 -2 3 9500.020 9732.840 154.230 0.598 o
-1 -2 4 1292.140 1172.890 23.837 23.279 o
-1 -2 5 4595.990 4498.900 77.393 2.390 o
-1 -2 6 7116.530 7194.150 143.868 0.848 o
-1 -2 7 3849.290 3991.600 83.671 2.548 o
-1 -2 8 1985.940 2027.430 61.330 5.818 o
-1 -2 9 35.082 34.756 13.370 168.947 o
-1 -2 10 831.583 962.695 67.078 6.423 o
-1 -2 11 24.368 20.614 10.842 256.995 o
-1 -2 12 541.131 535.766 25.084 36.996 o
-1 -2 13 2183.780 2075.160 48.688 7.400 o
-1 -2 14 2582.410 2541.470 57.312 5.386 o
-1 -2 15 1361.450 1402.140 47.306 10.065 o
-1 -1 1 6203.600 6014.120 77.795 1.698 o
-1 -1 2 2961.540 3052.220 55.600 4.882 o
-1 -1 3 2231.430 2377.410 41.015 8.329 o
-1 -1 4 244.450 252.687 11.188 151.427 o
-1 -1 5 239.021 228.092 12.407 135.999 o
-1 -1 6 953.460 1011.210 25.309 26.943 o
-1 -1 7 1851.100 1836.320 39.611 10.379 o
-1 -1 8 4120.400 4310.990 79.168 2.542 o
-1 -1 9 6333.710 6392.420 98.905 1.366 o
-1 -1 10 2126.360 2175.490 42.934 8.449 o
-1 -1 11 927.108 915.817 27.439 25.408 o
-1 -1 12 1201.170 1215.590 37.774 14.609 o
-1 -1 13 22.534 23.551 12.316 201.632 o
-1 -1 14 33.777 50.849 18.530 89.889 o
-1 -1 15 504.421 511.322 57.987 8.913 o
-1 0 1 1821.540 1817.930 23.348 15.841 o
-1 0 2 3397.660 3480.130 50.360 4.615 o
-1 0 3 5311.770 5013.910 93.348 1.762 o
-1 0 4 11654.400 11485.600 179.565 0.426 o
-1 0 5 9785.390 10195.900 185.039 0.485 o
-1 0 6 941.268 966.626 24.775 28.032 o
-1 0 7 173.545 159.652 16.393 98.626 o
-1 0 8 90.449 72.837 7.611 383.629 o
-1 0 9 30.376 31.090 7.551 485.505 o
-1 0 10 836.832 894.635 26.855 27.258 o
-1 0 11 1864.190 1866.960 50.391 7.837 o
-1 0 12 2530.400 2624.720 65.043 4.652 o
-1 0 13 2166.200 2195.080 59.142 5.818 o
-1 0 14 749.528 704.395 39.400 16.681 o
-1 0 15 816.664 890.187 46.839 12.116 o
-1 1 1 3490.680 3405.290 38.347 5.379 o
-1 1 2 14.140 16.764 2.275 3413.140 o
-1 1 3 64.417 80.619 6.225 538.263 o
-1 1 4 9.458 9.634 5.296 1039.070 o
-1 1 5 3249.270 3329.820 59.985 4.174 o
-1 1 6 5805.010 5866.680 99.994 1.481 o
-1 1 7 3828.990 3736.340 69.887 3.142 o
-1 1 8 5910.440 6117.710 107.610 1.346 o
-1 1 9 1085.780 1226.480 54.419 8.742 o
-1 1 10 1114.390 1140.350 41.893 13.113 o
-1 1 11 87.663 93.412 18.746 84.272 o
-1 1 12 174.426 155.631 20.302 68.347 o
-1 1 13 184.487 193.214 22.617 55.631 o
-1 1 14 898.385 862.617 44.207 13.136 o
-1 1 15 592.234 550.888 37.046 19.576 o
-1 2 1 8914.820 8250.280 179.272 0.563 o
-1 2 2 6926.810 6584.060 92.521 1.327 o
-1 2 3 10534.500 10351.400 144.731 0.570 o
-1 2 4 1604.940 1602.770 34.663 13.320 o
-1 2 5 690.947 690.722 20.470 42.654 o
-1 2 6 28.215 22.946 4.266 1243.950 o
-1 2 7 120.637 138.040 12.470 163.735 o
-1 2 8 375.869 358.229 25.710 39.741 o
-1 2 9 2357.240 2449.040 62.961 5.071 o
-1 2 10 1922.190 1975.280 49.943 7.726 o
-1 2 11 1645.820 1727.610 48.772 8.721 o
-1 2 12 1469.810 1567.170 71.103 5.202 o
-1 2 13 1405.470 1485.410 51.350 8.785 o
-1 2 14 193.839 162.285 28.201 37.270 o
-1 3 1 20.602 10.920 2.423 2980.060 o
-1 3 2 2.125 1.862 3.092 3150.410 o
-1 3 3 279.061 241.173 9.032 182.111 o
-1 3 4 5347.560 5415.330 80.488 1.945 o
-1 3 5 4400.980 4467.120 78.700 2.427 o
-1 3 6 5494.390 5428.310 95.132 1.650 o
-1 3 7 1139.440 1164.950 49.088 10.253 o
-1 3 8 1043.710 1066.550 25.637 25.142 o
-1 3 9 728.056 765.451 23.585 34.689 o
-1 3 10 148.622 168.760 21.160 64.105 o
-1 3 11 90.873 67.766 21.743 64.070 o
-1 3 12 198.503 207.672 24.353 48.295 o
-1 3 13 842.015 862.179 54.628 9.301 o
-1 3 14 578.826 492.568 46.580 13.234 o
-1 4 1 3448.240 3213.330 44.089 5.150 o
-1 4 2 2747.570 2752.520 48.816 5.961 o
-1 4 3 848.330 826.110 17.801 42.310 o
-1 4 4 1060.770 1079.300 22.562 28.120 o
-1 4 5 158.774 163.038 11.896 165.377 o
-1 4 6 995.997 992.507 24.391 27.569 o
-1 4 7 705.938 734.310 27.174 29.417 o
-1 4 8 724.103 751.747 28.351 27.446 o
-1 4 9 2070.740 2076.180 53.249 6.841 o
-1 4 10 1771.520 1770.810 62.476 6.008 o
-1 4 11 1125.250 1184.550 61.809 7.056 o
-1 4 12 265.936 276.450 30.838 30.478 o
-1 4 13 100.083 95.118 29.891 34.526 o
-1 5 1 54.254 55.802 5.525 687.808 o
-1 5 2 2062.620 2092.640 36.315 10.143 o
-1 5 3 3174.070 3152.590 58.141 4.438 o
-1 5 4 2833.770 2811.980 47.078 5.983 o
-1 5 5 2401.100 2347.350 42.109 7.799 o
-1 5 6 785.285 781.348 22.444 35.511 o
-1 5 7 163.217 157.275 12.305 157.016 o
-1 5 8 1091.260 1060.140 36.762 16.029 o
-1 5 9 49.067 27.042 11.099 235.936 o
-1 5 10 64.871 64.823 14.548 138.232 o
-1 5 11 388.506 444.716 29.640 30.701 o
-1 6 1 1378.480 1402.010 32.809 15.799 o
-1 6 2 464.435 483.415 16.476 68.578 o
-1 6 3 239.492 243.870 14.840 105.212 o
-1 6 4 82.219 71.027 11.601 201.977 o
-1 6 5 272.435 280.385 21.249 58.085 o
-1 6 6 840.606 838.515 25.114 29.888 o
-1 6 7 1164.570 1123.940 29.731 20.098 o
-1 6 8 911.888 909.833 31.146 21.804 o
-1 6 9 1143.260 1187.520 39.066 14.262 o
-1 6 10 208.972 201.256 16.869 90.205 o
-1 7 1 1756.840 1743.790 34.776 12.321 o
-1 7 2 2400.840 2319.380 61.422 5.251 o
-1 7 3 529.344 560.690 23.704 40.120 o
-1 7 4 1192.350 1196.940 34.468 16.505 o
-1 7 5 371.011 374.319 23.247 46.702 o
-1 7 6 477.503 470.440 30.483 28.334 o
-1 7 7 0.456 -11.613 19.301 85.534 o
-1 7 8 1.398 -17.880 44.696 15.952 o
-1 8 1 375.720 328.758 26.254 38.611 o
-1 8 2 8.810 -2.623 11.316 245.814 o
-1 8 3 88.020 71.712 13.845 147.412 o
-1 8 4 225.665 224.294 20.760 62.835 o
-1 8 5 1009.150 993.013 34.259 18.291 o
-1 8 6 438.864 459.393 28.666 31.825 o
-1 9 1 373.635 390.050 21.359 52.972 o
-1 9 2 786.232 807.882 30.894 23.518 o
0 -9 1 266.422 216.693 27.973 36.681 o
0 -9 2 703.141 666.492 43.023 14.625 o
0 -9 3 1089.330 1123.650 40.050 14.108 o
0 -9 4 468.398 497.232 56.889 9.282 o
0 -9 5 313.468 303.254 42.049 16.945 o
0 -9 6 77.611 86.031 19.718 77.240 o
0 -9 7 19.535 -23.641 16.483 115.773 o
0 -8 1 14.931 12.086 11.229 245.222 o
0 -8 2 24.504 29.697 9.516 325.532 o
0 -8 3 385.821 409.347 13.184 97.604 o
0 -8 4 495.256 495.735 23.235 42.676 o
0 -8 5 1048.180 1020.190 34.929 17.517 o
0 -8 6 1403.820 1400.080 39.973 12.467 o
0 -8 7 800.508 867.753 29.529 24.617 o
0 -8 8 1090.040 1062.910 32.920 18.522 o
0 -8 9 98.612 96.332 21.993 62.107 o
0 -8 10 348.130 327.004 24.837 42.842 o
0 -7 1 1904.380 1913.330 34.472 11.489 o
0 -7 2 667.332 663.518 17.996 50.160 o
0 -7 3 2381.560 2431.050 39.862 8.116 o
0 -7 4 235.804 235.337 14.060 114.560 o
0 -7 5 1.577 0.081 9.588 345.605 o
0 -7 6 215.219 205.060 15.684 100.579 o
0 -7 7 443.631 388.161 22.240 48.035 o
0 -7 8 664.381 685.238 24.994 33.915 o
0 -7 9 1252.910 1237.270 33.984 16.335 o
0 -7 10 1072.330 1051.690 36.719 16.168 o
0 -7 11 1693.940 1770.300 50.279 8.251 o
0 -7 12 666.141 657.812 33.530 22.225 o
0 -6 1 301.553 330.946 12.291 120.559 o
0 -6 2 467.282 498.659 16.982 65.644 o
0 -6 3 1843.640 1859.870 31.037 12.909 o
0 -6 4 5035.940 4948.020 77.472 2.167 o
0 -6 5 447.743 459.069 19.071 58.314 o
0 -6 6 2615.700 2642.080 52.841 5.768 o
0 -6 7 1447.570 1461.150 36.050 13.778 o
0 -6 8 437.856 423.796 19.489 57.643 o
0 -6 9 5.151 -0.825 13.203 181.858 o
0 -6 10 383.423 359.605 29.148 32.086 o
0 -6 11 595.320 578.277 36.440 20.039 o
0 -6 12 433.905 550.927 43.529 15.255 o
0 -6 13 1061.810 1070.080 41.895 13.406 o
0 -6 14 1128.010 1097.280 48.489 10.547 o
0 -5 1 3085.880 3091.450 50.189 5.180 o
0 -5 2 1948.120 1989.570 31.101 12.120 o
0 -5 3 425.882 420.995 11.334 107.360 o
0 -5 4 512.221 508.440 17.057 62.894 o
0 -5 5 930.439 958.380 28.357 24.163 o
0 -5 6 533.523 551.554 21.793 45.060 o
0 -5 7 1721.020 1731.880 39.242 11.061 o
0 -5 8 2125.650 2132.850 48.913 7.413 o
0 -5 9 3654.810 3629.080 71.326 3.195 o
0 -5 10 2269.570 2211.880 59.393 5.667 o
0 -5 11 342.902 408.938 37.918 20.219 o
0 -5 12 117.087 109.138 18.389 85.404 o
0 -5 13 31.040 3.789 17.637 100.479 o
0 -5 14 214.586 190.837 23.791 50.200 o
0 -4 1 1833.280 1814.800 27.733 14.196 o
0 -4 2 3336.170 3216.870 44.772 5.237 o
0 -4 3 3273.140 3147.300 49.402 4.996 o
0 -4 4 6623.150 6773.270 110.292 1.179 o
0 -4 5 3774.400 3796.440 66.868 3.289 o
0 -4 6 747.961 745.803 21.477 38.466 o
0 -4 7 4.031 9.120 8.897 394.838 o
0 -4 8 0.803 0.267 7.412 578.340 o
0 -4 9 574.189 556.597 22.999 40.938 o
0 -4 10 692.067 661.348 38.494 17.668 o
0 -4 11 2141.430 2297.690 85.049 3.449 o
0 -4 12 2063.390 2119.550 77.499 4.063 o
0 -4 13 1619.940 1597.640 124.411 1.911 o
0 -4 14 852.184 790.859 49.701 10.992 o
0 -4 15 307.098 173.516 37.712 21.052 o
0 -3 1 579.990 535.581 10.535 88.862 o
0 -3 2 371.969 369.183 8.405 150.234 o
0 -3 3 118.093 115.016 5.739 462.741 o
0 -3 4 1649.840 1718.110 33.261 13.382 o
0 -3 5 2006.580 1975.890 38.256 10.038 o
0 -3 6 2716.450 2534.830 55.538 5.425 o
0 -3 7 7042.870 7218.710 138.846 0.886 o
0 -3 8 3846.090 4065.100 74.572 2.864 o
0 -3 9 1998.360 2053.650 40.976 9.318 o
0 -3 10 294.853 278.053 16.488 84.936 o
0 -3 11 60.882 48.974 14.841 134.638 o
0 -3 12 136.901 123.079 17.067 95.860 o
0 -3 13 68.324 43.781 18.088 92.475 o
0 -3 14 773.093 695.600 36.122 19.060 o
0 -3 15 1305.910 1308.100 46.674 10.502 o
0 -2 1 5716.170 5570.740 70.934 1.994 o
0 -2 2 18729.100 16857.400 229.464 0.207 o
0 -2 3 6630.060 6489.520 102.749 1.273 o
0 -2 4 3542.000 3514.510 68.597 3.418 o
0 -2 5 723.483 798.167 19.914 41.679 o
0 -2 6 582.836 620.962 18.717 51.689 o
0 -2 7 13.003 4.607 5.509 961.196 o
0 -2 8 1157.420 1167.850 27.089 22.055 o
0 -2 9 2334.790 2341.550 49.889 6.744 o
0 -2 10 5179.870 5000.450 82.585 2.005 o
0 -2 11 1923.890 1913.530 47.322 8.293 o
0 -2 12 569.752 596.157 26.097 34.019 o
0 -2 13 1796.040 1746.380 44.452 9.405 o
0 -2 14 551.346 580.423 32.270 24.773 o
0 -2 15 0.533 -3.845 20.812 73.567 o
0 -1 1 838.260 877.442 13.491 50.880 o
0 -1 2 423.917 437.542 10.213 115.940 o
0 -1 3 1761.440 1751.930 31.395 13.445 o
0 -1 4 4866.050 4969.460 81.567 2.121 o
0 -1 5 13421.600 13415.400 187.689 0.348 o
0 -1 6 3908.790 3861.220 60.987 3.457 o
0 -1 7 3772.400 3743.260 60.898 3.589 o
0 -1 8 1063.990 1082.770 25.931 24.521 o
0 -1 9 496.142 537.250 23.075 42.632 o
0 -1 10 0.292 -11.648 8.966 396.203 o
0 -1 11 564.275 565.479 23.521 39.809 o
0 -1 12 362.081 350.266 22.654 49.153 o
0 -1 13 771.593 816.833 31.270 23.204 o
0 -1 14 2195.910 2214.930 62.043 5.429 o
0 -1 15 788.796 800.553 49.965 11.003 o
0 0 2 805.607 747.782 12.178 58.608 o
0 0 3 662.160 654.902 12.479 68.822 o
0 0 4 682.137 680.956 13.860 61.992 o
0 0 5 682.118 731.901 15.413 55.811 o
0 0 6 1187.130 1236.370 22.853 25.003 o
0 0 7 4364.240 4629.930 73.171 2.575 o
0 0 8 3138.960 3200.300 55.315 4.656 o
0 0 9 2832.780 2918.440 59.002 4.786 o
0 0 10 2062.560 2282.280 65.007 5.187 o
0 0 11 2398.340 2496.790 58.692 5.459 o
0 0 12 435.228 429.656 49.275 12.252 o
0 0 13 55.036 37.411 19.366 81.899 o
0 0 14 0.030 17.282 21.500 68.711 o
0 0 15 157.723 109.181 27.358 40.194 o
0 1 0 12.842 11.455 1.442 5795.270 o
0 1 1 5601.940 5384.220 83.965 1.820 o
0 1 2 2894.960 2915.850 48.528 5.678 o
0 1 3 13964.000 13497.400 209.029 0.309 o
0 1 4 4372.910 4427.840 66.315 2.835 o
0 1 5 4057.550 4048.600 62.777 3.232 o
0 1 6 4265.960 4398.270 69.117 2.797 o
0 1 7 447.317 426.759 16.067 73.255 o
0 1 8 2.223 -5.107 9.925 322.225 o
0 1 9 0.607 8.883 10.078 311.011 o
0 1 10 812.600 804.130 31.733 22.447 o
0 1 11 573.145 656.210 32.715 23.788 o
0 1 12 1800.760 1928.260 54.760 7.088 o
0 1 13 1102.160 1087.370 45.002 11.906 o
0 1 14 1639.120 1545.770 56.562 7.252 o
0 2 0 2692.410 2602.670 34.883 7.930 o
0 2 1 2436.800 2474.270 37.377 8.339 o
0 2 2 1213.240 1173.970 23.957 24.089 o
0 2 3 110.747 105.765 7.651 347.277 o
0 2 4 117.112 102.493 8.384 304.744 o
0 2 5 2860.890 2920.170 55.007 5.106 o
0 2 6 2222.450 2262.530 40.876 8.511 o
0 2 7 3530.250 3613.430 60.875 3.802 o
0 2 8 2827.030 2848.780 51.704 5.496 o
0 2 9 2386.640 2450.940 48.435 6.780 o
0 2 10 822.689 870.069 31.010 22.828 o
0 2 11 38.246 37.965 12.962 178.201 o
0 2 12 70.296 54.077 20.598 71.912 o
0 2 13 0.319 1.799 22.853 61.001 o
0 2 14 128.051 82.004 28.009 38.918 o
0 3 0 4749.410 4886.600 64.440 2.614 o
0 3 1 9118.910 9465.780 132.959 0.706 o
0 3 2 2814.610 2740.360 47.688 5.997 o
0 3 3 3428.790 3351.420 65.416 3.706 o
0 3 4 3061.970 3096.970 57.543 4.608 o
0 3 5 2141.990 2149.690 44.752 8.101 o
0 3 6 64.328 61.592 12.188 190.827 o
0 3 7 13.817 16.046 8.049 463.124 o
0 3 8 583.311 584.130 25.695 34.677 o
0 3 9 195.033 209.899 16.653 92.762 o
0 3 10 1128.430 1147.420 33.756 17.454 o
0 3 11 1982.870 1927.740 47.095 8.206 o
0 3 12 1154.970 1178.300 39.085 14.224 o
0 3 13 367.431 363.341 34.263 24.274 o
0 4 0 2967.790 3127.360 44.451 5.824 o
0 4 1 26.580 31.363 5.685 792.220 o
0 4 2 47.177 45.642 6.529 569.229 o
0 4 3 298.828 255.127 12.421 124.758 o
0 4 4 1635.220 1679.740 46.148 9.438 o
0 4 5 1988.340 1973.630 44.154 8.750 o
0 4 6 4289.660 4232.000 80.344 2.459 o
0 4 7 2328.360 2445.620 66.334 4.766 o
0 4 8 124.697 122.961 16.985 97.507 o
0 4 9 220.767 226.063 17.553 83.153 o
0 4 10 629.469 672.896 30.541 25.916 o
0 4 11 2.256 -19.997 16.835 112.288 o
0 4 12 135.093 98.442 29.018 36.220 o
0 5 0 1654.630 1627.170 30.752 14.570 o
0 5 1 3928.350 3877.890 81.039 2.631 o
0 5 2 1636.000 1721.940 74.138 4.713 o
0 5 3 1742.020 1781.660 40.426 10.570 o
0 5 4 220.724 218.987 15.355 102.813 o
0 5 5 82.373 85.303 14.676 132.723 o
0 5 6 0.938 3.879 8.911 398.740 o
0 5 7 562.109 529.120 41.148 16.493 o
0 5 8 809.436 804.356 42.053 14.621 o
0 5 9 646.705 655.493 38.708 17.715 o
0 5 10 1457.200 1383.970 69.970 5.413 o
0 5 11 236.781 259.471 33.052 27.089 o
0 6 0 2.145 8.704 6.924 648.662 o
0 6 1 12.346 -0.363 9.142 371.262 o
0 6 2 647.755 677.087 24.801 34.605 o
0 6 3 1867.170 1764.550 47.608 8.498 o
0 6 4 2048.820 2010.770 56.024 6.494 o
0 6 6 384.095 364.067 28.244 33.821 o
0 6 7 452.126 496.971 35.989 21.441 o
0 6 8 295.840 258.161 26.209 40.463 o
0 6 9 29.102 21.338 14.435 147.693 o
0 7 0 1354.010 1383.930 48.715 9.688 o
0 7 1 535.931 521.849 28.995 29.836 o
0 7 2 794.129 728.830 33.859 20.807 o
0 7 3 132.071 122.285 20.020 72.304 o
0 7 4 13.617 13.436 18.951 87.824 o
0 7 5 12.408 -4.501 17.137 107.696 o
0 7 6 713.188 647.076 46.785 12.661 o
0 7 7 531.442 475.009 32.552 24.970 o
0 8 0 154.852 150.512 14.357 125.062 o
0 8 1 731.978 763.240 29.725 25.549 o
0 8 2 925.451 906.864 33.039 20.048 o
0 8 3 806.228 785.873 39.039 16.520 o
0 8 4 277.151 280.033 26.797 39.030 o
0 8 5 333.543 318.067 44.350 15.264 o
0 9 0 319.896 327.471 23.120 48.814 o
1 -9 0 1106.600 1097.910 33.258 18.070 o
1 -9 1 343.655 323.853 17.927 71.373 o
1 -9 2 198.912 173.677 14.685 114.548 o
1 -9 3 15.096 11.487 9.426 343.809 o
1 -9 4 99.493 90.879 16.811 102.251 o
1 -9 5 347.281 397.296 25.379 40.749 o
1 -9 6 315.007 322.315 18.957 67.033 o
1 -9 7 627.216 628.455 28.136 29.561 o
1 -9 8 970.819 954.295 33.215 19.441 o
1 -8 0 474.296 505.257 24.408 40.005 o
1 -8 1 764.637 782.429 26.083 29.945 o
1 -8 2 748.128 760.420 27.015 28.956 o
1 -8 3 1535.430 1552.310 30.453 15.599 o
1 -8 4 1264.320 1293.450 34.146 16.026 o
1 -8 5 674.267 706.499 26.289 31.391 o
1 -8 6 196.734 172.445 15.304 107.646 o
1 -8 7 0.163 -11.217 10.513 288.295 o
1 -8 8 144.069 148.398 14.756 120.906 o
1 -8 9 226.844 248.229 17.959 79.215 o
1 -8 10 910.027 880.950 32.459 20.742 o
1 -8 11 285.280 291.837 20.982 58.712 o
1 -7 0 300.140 340.133 22.805 50.245 o
1 -7 1 112.804 107.368 7.193 372.284 o
1 -7 2 120.324 116.308 7.497 343.475 o
1 -7 3 257.673 269.227 12.409 129.915 o
1 -7 4 91.294 77.995 10.134 247.843 o
1 -7 5 2851.530 2912.070 56.315 5.004 o
1 -7 6 1736.410 1741.400 35.351 12.219 o
1 -7 7 1209.240 1277.770 33.104 16.985 o
1 -7 8 994.197 981.010 30.353 21.562 o
1 -7 9 712.072 711.342 39.558 16.710 o
1 -7 10 327.268 319.443 21.164 56.180 o
1 -7 11 25.947 32.868 14.005 156.168 o
1 -7 12 86.439 76.998 16.487 107.469 o
1 -6 0 1829.800 1823.740 29.085 13.721 o
1 -6 1 2203.530 2208.900 34.220 9.970 o
1 -6 2 2854.050 2895.040 39.099 6.753 o
1 -6 3 1602.460 1688.780 36.299 12.539 o
1 -6 4 1336.320 1356.640 30.227 17.626 o
1 -6 5 154.751 142.764 11.769 171.091 o
1 -6 6 1115.210 1122.440 25.230 24.383 o
1 -6 7 1.499 -4.375 7.756 527.452 o
1 -6 8 1110.230 1131.040 27.852 22.043 o
1 -6 9 1020.260 1051.730 28.620 22.583 o
1 -6 10 1572.470 1505.450 57.242 7.238 o
1 -6 11 2104.600 2117.960 43.321 8.489 o
1 -6 12 764.224 763.054 29.396 25.635 o
1 -6 13 239.957 256.142 22.618 53.466 o
1 -5 0 35.137 38.286 4.180 1149.760 o
1 -5 1 505.390 487.429 10.577 99.260 o
1 -5 2 207.481 195.771 7.943 243.769 o
1 -5 3 2175.620 2202.080 35.870 9.717 o
1 -5 4 3407.440 3360.690 52.331 4.532 o
1 -5 5 3863.860 3837.100 59.546 3.561 o
1 -5 6 2554.060 2614.210 44.080 6.950 o
1 -5 7 1156.380 1212.060 29.746 19.802 o
1 -5 8 973.698 950.705 23.015 29.886 o
1 -5 9 0.676 0.460 7.781 525.021 o
1 -5 10 7.014 24.853 12.951 186.045 o
1 -5 11 506.104 480.050 38.530 18.829 o
1 -5 12 719.588 677.483 33.875 21.452 o
1 -5 13 664.430 655.444 42.827 14.875 o
1 -5 14 1188.020 1183.520 82.242 4.250 o
1 -4 0 4746.580 4637.790 56.632 2.900 o
1 -4 1 8354.070 8545.130 108.880 0.913 o
1 -4 2 545.377 500.619 12.902 80.989 o
1 -4 3 678.893 687.207 13.007 64.891 o
1 -4 4 47.233 40.833 4.802 886.540 o
1 -4 5 42.444 43.179 5.413 768.544 o
1 -4 6 1601.630 1631.180 33.950 13.547 o
1 -4 7 1953.870 1913.340 40.934 9.636 o
1 -4 8 1984.240 2050.410 53.325 6.975 o
1 -4 9 2743.030 2731.970 57.453 5.103 o
1 -4 10 2660.250 2650.360 54.005 5.583 o
1 -4 11 786.908 755.899 31.460 23.126 o
1 -4 12 258.899 250.436 24.013 47.880 o
1 -4 13 0.591 -20.424 19.608 82.873 o
1 -4 14 25.009 35.244 20.598 73.730 o
1 -3 0 9.897 3.163 2.253 4440.120 o
1 -3 1 3326.430 3311.300 48.040 4.945 o
1 -3 2 5953.350 5895.890 109.753 1.329 o
1 -3 3 4953.930 4775.750 76.581 2.242 o
1 -3 4 5460.220 5472.370 78.995 1.934 o
1 -3 5 4936.930 4942.180 74.073 2.280 o
1 -3 6 1023.920 974.254 22.046 30.126 o
1 -3 7 43.546 33.557 7.286 493.971 o
1 -3 8 73.266 79.104 10.701 233.183 o
1 -3 9 303.585 307.125 17.489 76.582 o
1 -3 10 507.403 523.815 22.113 45.153 o
1 -3 11 1714.740 1681.910 44.906 9.567 o
1 -3 12 1944.600 1971.560 59.584 6.128 o
1 -3 13 1300.760 1278.310 39.891 13.095 o
1 -3 14 420.730 430.531 31.290 27.779 o
1 -3 15 800.549 714.760 39.483 16.395 o
1 -2 0 2461.520 2396.430 37.962 8.279 o
1 -2 1 1423.460 1466.300 17.355 24.541 o
1 -2 2 403.256 422.506 10.067 121.553 o
1 -2 3 2.246 3.648 3.013 3245.490 o
1 -2 4 1948.690 1917.110 32.293 11.930 o
1 -2 5 1584.580 1578.270 29.353 15.727 o
1 -2 6 5101.060 5091.080 78.266 2.107 o
1 -2 7 2061.590 2018.810 38.302 9.798 o
1 -2 8 4973.420 4949.700 79.457 2.141 o
1 -2 9 2205.700 2296.620 45.265 7.730 o
1 -2 10 512.143 493.485 22.265 44.975 o
1 -2 11 211.624 219.961 21.517 59.583 o
1 -2 12 216.416 210.767 20.205 66.368 o
1 -2 13 74.103 65.615 16.980 103.065 o
1 -2 14 48.694 68.468 24.892 50.145 o
1 -2 15 990.541 940.404 58.377 8.066 o
1 -1 0 1222.880 1193.810 16.888 30.438 o
1 -1 1 13087.900 11660.500 235.645 0.302 o
1 -1 2 13850.000 12738.800 147.895 0.405 o
1 -1 3 4397.220 4276.590 57.702 3.163 o
1 -1 4 2490.950 2467.380 36.893 8.291 o
1 -1 5 495.491 495.247 13.567 81.504 o
1 -1 6 327.176 346.605 13.319 105.890 o
1 -1 7 330.733 351.616 13.964 99.451 o
1 -1 8 93.472 106.176 10.436 230.361 o
1 -1 9 2039.930 2062.470 42.416 8.890 o
1 -1 10 2060.070 2101.550 49.719 7.417 o
1 -1 11 2314.600 2455.820 76.364 3.930 o
1 -1 12 1439.230 1468.350 68.163 5.635 o
1 -1 13 361.460 384.276 28.416 33.620 o
1 -1 14 375.684 353.854 37.225 20.887 o
1 -1 15 106.787 43.697 57.907 9.433 o
1 0 0 3015.440 3116.960 37.792 6.396 o
1 0 1 3301.210 3370.800 38.363 5.676 o
1 0 2 12366.200 12052.400 166.738 0.424 o
1 0 3 236.036 214.131 8.931 202.405 o
1 0 4 2479.460 2383.560 36.203 8.539 o
1 0 5 5027.230 5035.210 70.114 2.327 o
1 0 6 4745.090 4708.260 73.990 2.392 o
1 0 7 4985.590 5061.760 80.463 2.097 o
1 0 8 774.555 775.521 23.335 34.209 o
1 0 9 88.760 86.511 15.930 113.809 o
1 0 10 29.112 19.715 15.866 123.053 o
1 0 11 0.333 3.858 13.349 178.447 o
1 0 12 208.363 225.973 25.945 42.781 o
1 0 13 1099.820 1138.940 47.983 10.737 o
1 0 14 775.339 662.414 42.009 14.996 o
1 1 0 9289.150 8801.960 111.881 0.809 o
1 1 1 8316.220 8238.920 115.784 0.890 o
1 1 2 5989.320 5974.960 96.976 1.481 o
1 1 3 89.452 52.340 7.922 372.669 o
1 1 4 1008.350 1036.540 22.194 29.691 o
1 1 5 80.702 91.419 13.917 145.711 o
1 1 6 8.237 11.736 6.421 727.394 o
1 1 7 1025.510 975.203 31.069 20.718 o
1 1 8 3679.660 3767.670 65.407 3.420 o
1 1 9 2075.660 2040.390 48.850 7.594 o
1 1 10 1390.010 1358.140 48.498 9.701 o
1 1 11 1114.690 1067.260 61.812 7.124 o
1 1 12 241.026 229.986 20.679 62.636 o
1 1 13 222.099 170.966 22.790 54.237 o
1 1 14 3.577 12.463 29.217 37.258 o
1 2 0 768.955 765.855 12.302 59.746 o
1 2 1 143.260 117.172 6.688 367.477 o
1 2 2 1997.660 2008.540 34.117 11.056 o
1 2 3 6743.730 6813.970 112.806 1.139 o
1 2 4 4356.440 4359.820 77.392 2.502 o
1 2 5 3126.850 3275.410 55.520 4.617 o
1 2 6 1297.320 1360.370 37.487 14.017 o
1 2 7 407.619 432.817 25.063 40.227 o
1 2 8 356.122 367.243 19.173 63.280 o
1 2 9 1.809 -3.273 14.603 149.220 o
1 2 10 167.772 178.025 20.620 66.335 o
1 2 11 689.223 665.836 37.248 18.647 o
1 2 12 917.020 860.806 38.117 16.478 o
1 2 13 512.779 455.957 32.373 25.414 o
1 3 0 5197.370 5010.490 74.962 2.162 o
1 3 1 1368.370 1420.650 31.613 16.431 o
1 3 2 524.012 527.036 11.680 88.452 o
1 3 3 0.845 9.081 3.962 1911.150 o
1 3 4 93.005 93.024 11.894 188.191 o
1 3 5 374.729 331.042 27.941 34.759 o
1 3 6 2010.950 2091.090 48.168 7.789 o
1 3 7 2654.870 2632.690 60.643 4.939 o
1 3 8 1516.660 1560.890 61.012 6.603 o
1 3 9 1003.380 1048.980 34.996 17.644 o
1 3 10 112.125 101.694 17.633 92.644 o
1 3 11 576.932 594.928 58.245 8.730 o
1 3 12 169.674 157.412 28.577 36.640 o
1 4 0 1202.030 1163.480 29.436 19.858 o
1 4 1 3269.580 3332.360 64.655 3.864 o
1 4 2 5066.760 5147.240 105.517 1.584 o
1 4 3 1287.490 1266.090 22.884 23.557 o
1 4 4 875.424 877.291 20.123 36.694 o
1 4 5 1071.650 1105.540 24.891 25.328 o
1 4 6 482.859 489.978 28.684 31.124 o
1 4 7 261.113 256.042 21.596 57.234 o
1 4 8 313.723 305.703 21.098 57.090 o
1 4 9 771.498 751.545 33.543 21.177 o
1 4 10 167.483 149.374 27.168 40.356 o
1 4 11 339.598 356.208 30.273 30.486 o
1 5 0 381.114 396.407 24.511 42.509 o
1 5 1 261.538 266.436 17.228 81.963 o
1 5 2 275.991 255.476 39.952 18.850 o
1 5 3 435.933 476.814 35.071 22.576 o
1 5 4 835.019 869.869 25.104 29.759 o
1 5 5 1765.570 1854.830 56.111 6.956 o
1 5 6 829.254 803.858 25.201 30.175 o
1 5 7 706.014 719.585 29.120 26.792 o
1 5 8 698.368 691.040 26.256 31.216 o
1 5 9 204.321 212.382 18.043 80.776 o
1 6 0 1286.470 1203.350 51.120 9.318 o
1 6 1 1228.640 1190.800 51.873 9.223 o
1 6 2 483.220 454.152 29.974 29.153 o
1 6 3 1219.530 1216.240 74.062 5.098 o
1 6 4 674.944 738.113 38.376 17.663 o
1 6 5 73.395 73.493 19.269 81.118 o
1 6 6 72.126 53.752 21.171 68.175 o
1 6 7 137.992 159.785 26.487 42.647 o
1 6 8 172.264 178.441 30.866 31.582 o
1 7 0 304.271 287.229 25.605 41.764 o
1 7 1 171.489 124.735 19.264 75.753 o
1 7 2 425.553 428.920 33.587 24.559 o
1 7 3 340.137 331.418 26.031 39.697 o
1 7 4 902.851 919.380 43.301 13.480 o
1 7 5 486.004 520.297 35.151 22.076 o
1 8 0 361.789 347.619 21.757 52.413 o
1 8 1 579.675 567.491 55.733 9.485 o
1 8 2 481.042 484.238 33.137 24.562 o
2 -9 0 35.690 45.127 14.706 140.212 o
2 -9 1 21.999 27.121 11.230 240.100 o
2 -9 2 700.697 704.358 19.425 44.699 o
2 -9 3 451.190 470.125 17.876 63.034 o
2 -9 4 751.485 769.267 23.574 34.260 o
2 -9 5 772.686 781.562 26.910 28.664 o
2 -9 6 599.137 610.716 26.485 32.776 o
2 -9 7 411.366 403.179 22.893 46.567 o
2 -8 0 1700.290 1659.390 32.391 13.607 o
2 -8 1 468.254 488.668 19.092 56.900 o
2 -8 2 419.566 432.663 14.828 82.122 o
2 -8 3 30.192 34.008 7.038 545.718 o
2 -8 4 4.407 5.694 7.372 572.541 o
2 -8 5 391.254 374.388 16.629 74.950 o
2 -8 6 387.071 421.563 21.056 53.248 o
2 -8 7 741.589 779.155 37.108 18.220 o
2 -8 8 881.335 909.997 32.469 20.836 o
2 -8 9 923.812 890.627 27.647 25.350 o
2 -8 10 715.764 635.805 26.855 30.406 o
2 -7 0 996.469 973.097 23.806 28.390 o
2 -7 1 1483.180 1495.140 27.421 17.655 o
2 -7 2 843.085 854.487 17.761 42.133 o
2 -7 3 1703.190 1750.070 27.170 15.380 o
2 -7 4 1077.080 1127.160 23.677 26.356 o
2 -7 5 1462.400 1443.720 34.122 14.604 o
2 -7 6 1223.500 1259.880 26.022 21.811 o
2 -7 7 197.773 180.580 15.394 106.189 o
2 -7 8 203.072 163.637 13.834 125.608 o
2 -7 9 41.098 48.136 11.927 206.094 o
2 -7 10 223.225 210.820 15.638 100.119 o
2 -7 11 727.307 730.076 28.223 27.704 o
2 -6 0 1760.330 1788.610 25.762 15.445 o
2 -6 1 134.296 144.717 7.201 335.576 o
2 -6 2 25.886 24.235 3.627 1573.990 o
2 -6 3 274.074 266.629 8.022 199.178 o
2 -6 4 436.562 445.838 11.889 100.276 o
2 -6 5 538.750 536.812 18.431 55.793 o
2 -6 6 2581.890 2513.590 56.424 5.495 o
2 -6 7 3108.940 3074.970 62.909 4.187 o
2 -6 8 428.721 407.963 17.775 65.974 o
2 -6 9 1219.660 1198.830 28.475 20.271 o
2 -6 10 47.091 45.796 13.590 160.926 o
2 -6 11 69.179 78.175 13.985 147.013 o
2 -6 12 1.890 17.957 19.268 85.391 o
2 -5 0 1859.990 1832.870 27.106 14.210 o
2 -5 1 1857.550 1755.840 28.622 13.914 o
2 -5 2 4498.360 4568.050 62.131 2.876 o
2 -5 3 2543.110 2601.670 33.858 8.457 o
2 -5 4 1337.460 1346.440 22.031 23.143 o
2 -5 5 10.103 5.870 4.979 1172.440 o
2 -5 6 14.680 16.050 6.522 681.968 o
2 -5 7 81.055 67.436 15.029 128.282 o
2 -5 8 568.201 581.735 30.933 26.361 o
2 -5 9 850.816 858.549 25.109 29.608 o
2 -5 10 2109.250 2080.470 44.496 8.292 o
2 -5 11 905.194 928.534 28.659 24.248 o
2 -5 12 1061.580 1032.420 32.326 19.248 o
2 -5 13 279.421 268.252 21.696 56.097 o
2 -4 0 35.470 31.541 6.354 636.992 o
2 -4 1 24.934 16.233 5.964 763.928 o
2 -4 2 56.599 41.048 7.265 471.685 o
2 -4 3 2724.600 2718.150 37.078 7.433 o
2 -4 4 1728.530 1638.100 28.136 15.180 o
2 -4 5 4912.230 4929.820 74.548 2.279 o
2 -4 6 2413.330 2400.900 37.989 8.387 o
2 -4 7 1972.260 1963.950 37.728 10.293 o
2 -4 8 213.190 206.887 13.420 127.125 o
2 -4 9 91.398 101.091 10.878 217.171 o
2 -4 10 61.821 55.380 12.260 190.145 o
2 -4 11 207.405 208.929 15.772 100.186 o
2 -4 12 567.910 594.733 29.483 28.355 o
2 -4 13 691.429 599.423 30.955 25.170 o
2 -3 0 5844.690 5660.860 137.939 1.048 o
2 -3 1 5191.290 5099.070 84.996 1.940 o
2 -3 2 2606.960 2640.580 37.325 7.746 o
2 -3 3 214.783 203.120 6.456 284.031 o
2 -3 4 0.222 -1.079 3.804 2196.060 o
2 -3 5 59.103 61.557 5.912 608.899 o
2 -3 6 570.494 596.106 16.073 61.956 o
2 -3 7 2124.070 2164.390 40.698 8.909 o
2 -3 8 2148.410 2193.830 38.977 9.158 o
2 -3 9 1192.790 1150.040 27.733 21.286 o
2 -3 10 1941.500 2006.540 49.983 7.657 o
2 -3 11 862.047 849.460 34.755 19.230 o
2 -3 12 465.084 470.318 31.134 27.465 o
2 -3 13 4.773 -22.971 18.459 93.304 o
2 -3 14 106.142 83.231 23.814 53.404 o
2 -2 0 8.775 16.098 2.103 4238.360 o
2 -2 1 1520.750 1429.240 17.868 23.161 o
2 -2 2 2214.800 2165.110 29.697 11.003 o
2 -2 3 6689.010 6756.240 82.467 1.460 o
2 -2 4 5487.050 5438.320 68.696 2.128 o
2 -2 5 2331.990 2292.790 33.921 9.491 o
2 -2 6 789.857 800.946 17.697 44.638 o
2 -2 7 593.631 607.564 23.813 38.168 o
2 -2 8 0.299 1.846 8.402 450.036 o
2 -2 9 0.530 6.743 9.721 334.747 o
2 -2 10 492.638 540.475 55.323 9.732 o
2 -2 11 834.179 899.385 41.423 14.729 o
2 -2 12 943.279 989.317 56.018 8.688 o
2 -2 13 1499.710 1552.590 53.676 8.030 o
2 -2 14 266.078 292.520 66.789 6.993 o
2 -1 0 2041.640 1920.030 22.156 14.425 o
2 -1 1 418.905 381.320 7.889 143.944 o
2 -1 2 2302.050 2416.410 28.866 10.364 o
2 -1 3 25.503 18.640 3.954 1440.730 o
2 -1 4 1338.000 1399.250 22.931 22.183 o
2 -1 5 1023.150 1017.820 19.446 33.124 o
2 -1 6 2158.560 2207.390 34.263 10.110 o
2 -1 7 2052.750 2090.390 41.292 9.061 o
2 -1 8 2907.560 2937.360 50.149 5.492 o
2 -1 9 1140.210 1106.960 37.305 15.375 o
2 -1 10 877.805 890.407 38.948 16.054 o
2 -1 11 13.561 18.280 16.458 115.867 o
2 -1 12 11.658 0.322 19.667 81.944 o
2 -1 13 10.127 -6.008 24.211 54.203 o
2 0 0 2569.740 2610.280 32.532 8.574 o
2 0 1 4090.400 3998.080 50.797 3.743 o
2 0 2 6832.440 6932.420 84.746 1.394 o
2 0 3 7825.710 7934.920 96.826 1.076 o
2 0 4 28.302 16.019 4.938 1022.820 o
2 0 5 1374.660 1349.590 25.391 20.378 o
2 0 6 274.162 269.741 16.878 83.650 o
2 0 7 0.058 1.277 10.650 280.706 o
2 0 8 41.477 40.717 12.280 196.089 o
2 0 9 1351.330 1317.060 46.387 10.474 o
2 0 10 1123.350 1093.980 41.060 13.546 o
2 0 11 1056.860 1067.280 37.533 15.722 o
2 0 12 663.424 665.647 35.761 20.055 o
2 0 13 486.123 470.281 33.885 23.660 o
2 1 0 1082.590 1107.790 17.823 33.069 o
2 1 1 337.002 334.377 12.098 117.555 o
2 1 2 69.269 60.075 6.031 572.108 o
2 1 3 718.291 740.684 14.760 55.912 o
2 1 4 3313.850 3403.560 46.722 5.004 o
2 1 5 1428.810 1462.240 52.803 8.414 o
2 1 6 3313.280 3413.340 68.346 3.596 o
2 1 7 1023.050 1018.990 33.026 19.027 o
2 1 8 1235.910 1317.340 38.980 13.672 o
2 1 9 334.934 313.071 23.165 48.480 o
2 1 10 1.145 0.194 16.675 114.529 o
2 1 11 14.389 39.566 21.513 67.929 o
2 1 12 92.883 44.343 33.384 28.027 o
2 2 0 3442.780 3415.640 49.968 4.628 o
2 2 1 3717.830 3640.010 58.716 3.773 o
2 2 2 1131.070 1065.540 24.302 25.428 o
2 2 3 1722.420 1723.940 37.957 11.465 o
2 2 4 595.953 625.398 26.837 32.100 o
2 2 5 10.633 1.297 5.606 951.657 o
2 2 6 0.878 -17.606 10.772 274.312 o
2 2 7 536.222 555.625 32.528 24.663 o
2 2 8 929.469 917.281 32.587 20.365 o
2 2 9 1177.120 1165.640 38.571 14.416 o
2 2 10 1002.420 1009.400 39.726 14.839 o
2 2 11 356.878 362.250 29.004 32.631 o
2 3 0 42.721 29.714 11.251 231.838 o
2 3 1 66.939 53.682 8.391 359.739 o
2 3 2 1922.150 1909.650 49.189 7.928 o
2 3 3 1985.690 1969.230 39.085 9.910 o
2 3 4 2291.930 2284.990 44.655 7.673 o
2 3 5 739.308 736.003 22.060 37.603 o
2 3 6 1014.700 1059.840 27.995 23.178 o
2 3 7 649.592 641.532 24.652 35.152 o
2 3 8 171.710 181.545 16.459 97.294 o
2 3 9 22.567 2.850 25.629 48.195 o
2 3 10 138.141 88.596 23.469 54.175 o
2 4 0 1854.920 1832.960 43.900 9.290 o
2 4 1 1160.820 1185.620 34.035 16.975 o
2 4 2 711.225 711.176 29.185 26.697 o
2 4 3 114.786 119.740 11.393 192.562 o
2 4 4 36.584 28.056 10.421 269.791 o
2 4 5 111.745 113.414 18.036 88.624 o
2 4 6 422.636 420.098 20.017 56.132 o
2 4 7 970.399 979.035 30.698 21.459 o
2 4 8 670.673 696.833 28.926 27.542 o
2 4 9 775.004 763.732 37.783 17.588 o
2 5 0 1582.840 1584.600 43.857 10.316 o
2 5 1 986.985 968.012 35.054 17.927 o
2 5 2 861.871 937.258 35.540 18.366 o
2 5 3 818.972 861.254 36.249 18.270 o
2 5 4 1032.840 1008.940 40.542 14.287 o
2 5 5 418.463 388.283 48.657 12.609 o
2 5 6 311.569 347.817 27.902 35.513 o
2 5 7 11.369 -5.781 25.195 50.043 o
2 6 0 228.789 242.893 21.790 57.485 o
2 6 1 39.903 21.140 27.969 40.253 o
2 6 2 50.887 26.396 18.998 85.420 o
2 6 3 72.899 77.439 20.755 70.409 o
2 6 4 71.754 30.662 22.914 58.817 o
2 6 5 675.940 607.511 58.171 8.644 o
2 7 0 912.965 896.915 44.490 12.913 o
2 7 1 343.668 303.053 29.175 32.751 o
2 7 2 766.853 756.514 45.107 13.205 o
3 -9 0 307.252 323.406 25.641 41.321 o
3 -9 1 636.181 655.817 35.655 20.332 o
3 -9 2 827.212 786.946 47.860 11.776 o
3 -9 3 802.479 870.446 42.443 14.319 o
3 -9 4 29.402 29.351 38.021 21.922 o
3 -9 5 4.035 22.407 23.201 58.904 o
3 -8 0 3.074 -7.030 18.733 90.681 o
3 -8 1 64.431 63.231 19.382 80.828 o
3 -8 2 515.006 447.408 25.350 37.586 o
3 -8 3 228.602 233.703 18.584 75.222 o
3 -8 4 985.123 935.438 41.267 14.216 o
3 -8 5 977.700 1002.330 47.374 11.392 o
3 -8 6 926.631 873.001 43.157 13.550 o
3 -8 7 298.775 291.461 24.223 45.971 o
3 -8 8 186.610 168.742 21.918 59.109 o
3 -7 0 1336.950 1356.270 41.696 12.102 o
3 -7 1 2447.920 2467.960 53.000 6.079 o
3 -7 2 193.218 181.834 15.866 101.541 o
3 -7 3 6.608 -0.471 13.237 180.644 o
3 -7 4 11.884 -19.354 13.274 178.676 o
3 -7 5 104.670 125.677 19.407 77.599 o
3 -7 6 44.749 40.837 17.488 100.155 o
3 -7 7 910.911 958.456 39.350 15.527 o
3 -7 8 2080.290 2083.620 35.096 10.388 o
3 -7 9 363.085 361.923 21.823 51.934 o
3 -7 10 248.033 194.995 17.217 85.037 o
3 -6 0 349.016 336.872 37.454 20.807 o
3 -6 1 245.371 220.829 15.475 99.400 o
3 -6 2 2424.170 2353.350 56.222 5.791 o
3 -6 3 1812.100 1805.150 50.573 7.947 o
3 -6 4 1468.970 1408.590 44.607 10.625 o
3 -6 5 697.463 744.963 32.846 22.407 o
3 -6 6 399.331 417.709 14.586 85.800 o
3 -6 7 350.113 365.777 23.044 47.934 o
3 -6 8 60.196 57.534 9.745 284.129 o
3 -6 9 416.691 431.729 25.096 39.994 o
3 -6 10 46.843 56.966 14.701 138.246 o
3 -6 11 658.495 640.828 30.439 25.928 o
3 -5 0 826.964 824.354 29.486 24.620 o
3 -5 1 27.946 19.795 9.230 345.459 o
3 -5 2 106.506 98.543 11.236 202.079 o
3 -5 3 25.120 20.727 18.534 91.028 o
3 -5 4 482.740 475.584 27.332 33.705 o
3 -5 5 1229.200 1256.770 35.343 15.654 o
3 -5 6 1620.440 1626.200 32.014 14.240 o
3 -5 7 1002.280 1062.870 26.529 24.730 o
3 -5 8 1218.810 1213.500 32.922 17.232 o
3 -5 9 888.290 891.611 25.138 28.814 o
3 -5 10 130.936 110.857 13.816 139.011 o
3 -5 11 51.060 35.401 14.368 145.158 o
3 -4 0 2835.390 2811.400 63.355 4.472 o
3 -4 1 3226.090 3231.610 61.002 4.164 o
3 -4 2 1507.380 1438.760 33.726 14.569 o
3 -4 3 1966.810 1992.830 33.831 11.277 o
3 -4 4 1727.310 1723.670 25.297 16.070 o
3 -4 5 88.253 84.252 6.458 471.364 o
3 -4 6 62.864 62.824 12.505 182.465 o
3 -4 7 188.863 171.407 12.183 153.110 o
3 -4 8 181.562 177.494 12.919 141.307 o
3 -4 9 831.203 815.508 27.435 27.062 o
3 -4 10 594.938 627.242 24.857 35.792 o
3 -4 11 860.668 871.844 39.690 15.701 o
3 -4 12 1065.270 1068.120 36.232 16.459 o
3 -3 0 189.013 198.186 5.800 329.185 o
3 -3 1 32.658 38.394 3.119 1634.050 o
3 -3 2 291.021 294.261 8.041 188.259 o
3 -3 3 1145.730 1134.960 25.015 24.159 o
3 -3 4 1677.660 1705.990 27.811 15.418 o
3 -3 5 1938.220 1957.820 44.031 8.911 o
3 -3 6 1752.450 1788.190 32.332 13.072 o
3 -3 7 2099.160 2182.970 38.871 9.330 o
3 -3 8 354.572 378.357 21.274 54.027 o
3 -3 9 10.833 16.885 12.627 195.552 o
3 -3 10 0.017 -4.326 12.482 204.558 o
3 -3 11 32.579 18.118 14.758 141.269 o
3 -3 12 197.832 169.373 21.224 62.225 o
3 -2 0 3538.070 3469.470 46.452 4.732 o
3 -2 1 1627.020 1611.130 34.264 13.355 o
3 -2 2 2553.110 2514.830 33.443 8.611 o
3 -2 3 533.633 541.151 12.650 81.634 o
3 -2 4 366.065 375.618 12.509 107.280 o
3 -2 5 75.787 88.879 8.114 355.794 o
3 -2 6 296.308 284.840 13.542 110.586 o
3 -2 7 353.018 360.049 20.975 55.540 o
3 -2 8 1098.180 1083.850 30.446 20.232 o
3 -2 9 1616.840 1569.600 54.423 7.681 o
3 -2 10 781.551 751.938 27.435 28.019 o
3 -2 11 490.759 437.996 31.845 26.368 o
3 -2 12 151.303 135.471 21.722 61.538 o
3 -1 0 35.703 30.544 5.058 905.723 o
3 -1 1 1217.360 1234.470 23.311 24.237 o
3 -1 2 644.120 626.024 15.149 60.969 o
3 -1 3 1646.670 1612.130 47.232 9.212 o
3 -1 4 5186.060 5364.740 70.126 2.212 o
3 -1 5 2399.040 2443.400 37.875 8.389 o
3 -1 6 106.136 114.051 10.169 233.432 o
3 -1 7 232.341 232.769 13.624 120.349 o
3 -1 8 134.059 108.397 14.584 126.709 o
3 -1 9 67.249 61.319 12.782 174.701 o
3 -1 10 186.742 154.471 18.124 82.666 o
3 -1 11 544.415 550.715 28.750 29.982 o
3 0 0 2244.110 2208.190 30.731 10.580 o
3 0 1 1132.520 1120.240 23.492 25.859 o
3 0 2 178.259 168.274 11.969 159.425 o
3 0 3 257.068 244.088 11.223 149.215 o
3 0 4 30.293 32.642 6.646 602.216 o
3 0 5 1304.840 1319.940 25.483 21.120 o
3 0 6 473.306 517.165 19.665 54.065 o
3 0 7 1780.330 1758.420 35.667 11.909 o
3 0 8 969.895 916.423 46.072 12.037 o
3 0 9 428.849 428.984 21.722 49.591 o
3 0 10 668.816 698.647 36.855 18.990 o
3 0 11 61.104 69.903 18.433 88.918 o
3 1 0 817.663 829.032 16.993 44.865 o
3 1 1 2283.650 2309.960 39.407 8.574 o
3 1 2 3230.010 3233.970 51.340 4.847 o
3 1 3 1858.350 1878.680 38.794 10.510 o
3 1 4 705.568 735.945 23.658 35.221 o
3 1 5 566.486 576.428 17.740 56.393 o
3 1 6 85.159 105.887 10.683 224.886 o
3 1 7 197.420 164.343 12.675 143.780 o
3 1 8 154.020 123.564 13.958 132.731 o
3 1 9 217.500 227.891 21.640 58.715 o
3 1 10 656.340 630.717 26.545 31.739 o
3 2 0 1198.690 1231.360 29.375 19.659 o
3 2 1 13.357 7.643 8.970 381.153 o
3 2 2 45.423 11.818 14.253 149.750 o
3 2 3 305.056 299.255 20.276 61.213 o
3 2 4 694.388 738.190 29.879 25.843 o
3 2 5 1677.200 1664.510 39.974 11.090 o
3 2 6 981.515 968.398 29.705 22.311 o
3 2 7 208.094 222.140 18.415 77.663 o
3 2 8 762.330 785.113 24.217 32.856 o
3 2 9 232.367 193.557 38.431 20.550 o
3 3 0 2082.690 2130.230 58.433 6.040 o
3 3 1 1758.370 1757.530 38.959 10.981 o
3 3 2 475.249 493.861 23.065 43.589 o
3 3 3 991.034 991.543 30.294 21.597 o
3 3 4 291.451 305.544 26.601 39.151 o
3 3 5 90.480 73.809 14.298 138.744 o
3 3 6 80.829 47.018 15.458 122.893 o
3 3 7 57.681 86.744 20.216 74.396 o
3 3 8 279.104 288.726 24.218 46.404 o
3 4 0 190.488 165.119 19.387 73.233 o
3 4 1 57.107 21.748 16.059 117.668 o
3 4 2 794.477 846.987 65.371 6.799 o
3 4 3 672.312 638.337 28.364 28.642 o
3 4 4 695.535 640.518 28.412 28.299 o
3 4 5 425.636 434.642 24.580 41.132 o
3 4 6 377.619 394.428 25.750 39.321 o
3 5 0 889.583 886.376 40.636 15.000 o
3 5 1 1200.370 1181.030 46.123 11.104 o
3 5 2 78.353 99.957 22.330 60.811 o
3 5 3 85.811 62.700 30.300 33.864 o
3 5 4 9.943 -26.706 35.251 25.612 o
3 6 0 91.176 38.987 26.557 43.842 o
3 6 1 1014.610 963.161 51.688 9.852 o
4 -8 0 684.857 684.541 43.222 14.538 o
4 -8 1 584.833 564.442 48.351 12.290 o
4 -8 2 745.551 670.549 54.620 9.566 o
4 -8 3 737.542 769.192 43.927 13.872 o
4 -8 4 60.926 69.000 22.592 60.256 o
4 -8 5 60.247 31.263 29.309 36.485 o
4 -7 0 99.177 68.386 19.332 79.618 o
4 -7 1 51.173 41.039 18.409 90.390 o
4 -7 2 79.822 91.999 41.107 18.587 o
4 -7 3 887.895 890.147 81.791 4.449 o
4 -7 4 573.485 611.308 55.042 9.687 o
4 -7 5 495.968 495.645 35.214 22.023 o
4 -7 6 895.131 888.163 45.759 12.397 o
4 -7 7 238.293 183.060 31.415 30.039 o
4 -6 0 1134.600 1134.790 41.388 13.283 o
4 -6 1 1233.920 1265.270 54.039 8.584 o
4 -6 2 328.391 320.735 33.567 25.565 o
4 -6 3 319.021 328.609 25.826 40.588 o
4 -6 4 47.664 35.779 17.904 95.707 o
4 -6 5 13.958 48.584 27.477 41.821 o
4 -6 6 116.032 132.547 23.091 55.852 o
4 -6 7 297.344 309.885 26.559 39.143 o
4 -6 8 578.661 514.794 29.613 28.459 o
4 -5 0 473.637 484.915 32.767 25.084 o
4 -5 1 409.748 480.407 27.279 34.745 o
4 -5 2 1019.460 1065.120 38.761 15.190 o
4 -5 3 689.607 706.077 32.157 23.347 o
4 -5 4 1566.940 1530.650 49.427 8.915 o
4 -5 5 1155.390 1175.450 30.543 19.371 o
4 -5 6 275.484 293.615 16.859 82.954 o
4 -5 7 12.044 8.827 7.892 488.041 o
4 -5 8 0.176 -3.848 11.127 257.371 o
4 -5 9 2.610 -28.239 13.264 180.664 o
4 -4 0 729.192 739.875 25.216 32.099 o
4 -4 1 501.342 520.728 13.372 81.139 o
4 -4 2 3.108 9.105 10.268 298.306 o
4 -4 3 16.665 26.986 6.027 760.224 o
4 -4 4 5.944 0.596 5.995 859.492 o
4 -4 5 473.313 505.066 16.028 69.677 o
4 -4 6 1332.940 1337.130 32.098 16.638 o
4 -4 7 853.908 895.819 25.679 28.542 o
4 -4 8 811.087 838.262 27.890 26.593 o
4 -4 9 274.475 253.597 16.881 84.119 o
4 -3 0 993.714 1021.000 21.218 31.303 o
4 -3 1 1899.540 1804.620 58.707 6.403 o
4 -3 2 2087.500 2090.400 67.729 4.953 o
4 -3 3 1258.150 1327.720 26.791 20.588 o
4 -3 4 421.748 437.326 16.632 71.394 o
4 -3 5 168.719 165.799 12.545 150.789 o
4 -3 6 104.795 104.624 10.998 208.689 o
4 -3 7 1.721 6.932 11.492 239.612 o
4 -3 8 75.368 65.427 13.023 167.063 o
4 -3 9 642.118 655.305 26.557 31.745 o
4 -2 0 28.104 27.798 7.339 516.316 o
4 -2 1 10.239 -1.566 7.226 589.249 o
4 -2 2 4.356 6.674 7.766 516.358 o
4 -2 3 206.476 213.453 13.037 132.983 o
4 -2 4 1138.650 1146.920 26.165 23.139 o
4 -2 5 1154.130 1229.080 26.382 22.370 o
4 -2 6 1517.430 1533.670 33.879 14.214 o
4 -2 7 364.349 368.879 17.909 69.334 o
4 -2 8 147.663 139.856 24.714 48.546 o
4 -2 9 255.646 230.267 18.129 76.990 o
4 -1 0 3203.070 3297.010 52.071 4.787 o
4 -1 1 881.696 873.616 34.853 18.963 o
4 -1 2 711.322 694.123 21.222 40.416 o
4 -1 3 135.038 136.234 12.765 155.282 o
4 -1 4 632.506 609.676 27.256 31.014 o
4 -1 5 245.636 199.854 15.755 97.588 o
4 -1 6 415.837 388.242 18.313 64.427 o
4 -1 7 693.382 669.635 24.293 34.845 o
4 -1 8 138.783 149.911 17.093 94.583 o
4 -1 9 397.645 424.025 24.148 42.934 o
4 0 0 0.230 -4.118 10.520 287.860 o
4 0 1 181.510 197.840 13.266 134.359 o
4 0 2 958.431 1061.020 30.264 21.605 o
4 0 3 1269.470 1267.160 38.249 13.976 o
4 0 4 615.288 629.558 26.847 31.795 o
4 0 5 1044.660 1062.350 34.811 17.497 o
4 0 6 577.594 577.894 29.107 28.909 o
4 0 7 63.827 67.125 14.305 142.557 o
4 0 8 154.684 127.202 17.108 94.136 o
4 1 0 604.181 630.585 24.566 36.190 o
4 1 1 747.334 762.010 27.473 28.315 o
4 1 2 679.235 667.446 26.993 30.460 o
4 1 3 70.304 67.048 14.275 142.250 o
4 1 4 81.039 58.213 18.241 89.943 o
4 1 5 168.324 172.532 24.507 48.637 o
4 1 6 291.662 302.050 21.817 54.765 o
4 1 7 569.877 535.040 30.173 27.620 o
4 2 0 264.979 238.587 18.320 75.042 o
4 2 1 723.421 706.684 29.176 26.605 o
4 2 2 1059.670 1130.160 35.694 16.660 o
4 2 3 485.156 473.645 24.285 40.403 o
4 2 4 683.254 657.516 37.913 18.163 o
4 2 5 292.224 273.965 21.758 55.390 o
4 2 6 157.856 111.724 23.295 54.253 o
4 3 0 467.900 454.628 29.324 30.378 o
4 3 1 178.649 114.213 18.983 77.647 o
4 3 2 0.810 -14.452 16.177 121.723 o
4 3 3 102.665 84.027 23.075 56.761 o
4 3 4 90.663 119.887 24.897 49.019 o
4 4 0 504.945 504.834 52.526 10.726 o
4 4 1 340.159 269.269 30.396 30.657 o
5 -6 0 162.698 158.671 25.004 47.091 o
5 -6 1 8.200 -1.613 47.782 13.950 o
5 -6 2 49.232 67.750 48.484 13.467 o
5 -6 3 364.930 373.215 45.225 14.585 o
5 -5 0 2180.340 2129.210 113.665 2.142 o
5 -5 1 688.739 770.209 109.588 2.580 o
5 -5 2 162.624 203.276 37.665 21.597 o
5 -5 3 151.968 179.576 61.282 8.372 o
5 -5 4 0.209 -7.070 34.718 26.442 o
5 -5 5 38.866 29.929 25.824 47.076 o
5 -4 0 21.820 -14.476 11.546 232.066 o
5 -4 1 584.069 675.466 59.916 8.240 o
5 -4 2 454.647 462.485 28.106 32.659 o
5 -4 3 981.890 982.974 36.967 16.626 o
5 -4 4 447.709 455.034 24.189 41.542 o
5 -4 5 299.572 308.460 21.883 54.189 o
5 -3 0 359.533 360.280 26.278 38.560 o
5 -3 1 593.305 577.938 20.889 45.656 o
5 -3 2 52.106 44.514 16.294 113.936 o
5 -3 3 7.330 -20.177 17.070 108.872 o
5 -3 4 54.250 28.901 14.745 138.267 o
5 -3 5 161.343 126.888 24.542 49.050 o
5 -2 0 437.437 484.129 23.485 43.354 o
5 -2 1 1252.910 1237.730 33.821 16.427 o
5 -2 2 691.618 701.036 25.588 32.339 o
5 -2 3 439.314 447.293 23.046 44.961 o
5 -2 4 365.060 341.913 23.449 46.547 o
5 -2 5 141.940 87.002 17.648 91.154 o
5 -1 0 442.538 391.849 20.410 54.418 o
5 -1 1 22.363 17.138 19.619 81.582 o
5 -1 2 90.467 89.266 15.274 122.469 o
5 -1 3 55.303 67.130 19.432 80.732 o
5 -1 4 342.489 317.546 21.351 54.978 o
5 0 0 513.593 510.605 25.674 36.387 o
5 0 1 793.948 789.795 31.307 23.091 o
5 0 2 389.335 379.142 22.463 48.772 o
5 0 3 263.485 249.729 29.483 33.218 o
5 1 0 51.303 69.797 18.098 92.600 o
5 1 1 4.888 36.714 27.091 43.175 o
;
_olex2_submission_special_instructions 'No special instructions were received'
loop_
_space_group_symop_id
_space_group_symop_operation_xyz
1 x,y,z
2 -x,-y,-z
loop_
_atom_site_label
_atom_site_type_symbol
_atom_site_fract_x
_atom_site_fract_y
_atom_site_fract_z
_atom_site_U_iso_or_equiv
_atom_site_adp_type
_atom_site_occupancy
_atom_site_refinement_flags_posn
C1 C 0.4001(6) 0.2386(3) 0.2537(2) 0.0105(5) Uani 1.000000 .
C2 C 0.2755(6) 0.2963(4) 0.3436(2) 0.0119(5) Uani 1.000000 .
C3 C 0.2739(6) 0.4767(4) 0.3720(2) 0.0157(6) Uani 1.000000 .
H3 H 0.1848(6) 0.5140(4) 0.4317(2) 0.0188(7) Uiso 1.000000 R
C4 C 0.4023(7) 0.6025(4) 0.3132(2) 0.0186(6) Uani 1.000000 .
H4 H 0.4029(7) 0.7262(4) 0.3334(2) 0.0223(7) Uiso 1.000000 R
C5 C 0.5291(6) 0.5487(4) 0.2253(2) 0.0162(6) Uani 1.000000 .
H5 H 0.6188(6) 0.6354(4) 0.1856(2) 0.0195(7) Uiso 1.000000 R
C6 C 0.5249(6) 0.3672(4) 0.1954(2) 0.0131(5) Uani 1.000000 .
C7 C 0.4006(6) 0.0442(4) 0.2180(2) 0.0113(5) Uani 1.000000 .
C8 C 0.1524(6) 0.1640(4) 0.4105(2) 0.0122(5) Uani 1.000000 .
I1 I 0.69137(4) 0.29139(3) 0.054076(16) 0.01835(7) Uani 1.000000 .
O1 O 0.1312(4) -0.0804(2) 0.16793(16) 0.0154(4) Uani 1.000000 .
H1 H -0.0148(9) -0.0349(15) 0.174(2) 0.0231(6) Uiso 1.000000 GR
O2 O 0.6351(4) -0.0001(3) 0.22628(17) 0.0165(4) Uani 1.000000 .
O3 O -0.0210(5) 0.2187(3) 0.47517(17) 0.0181(4) Uani 1.000000 .
H3a H -0.073(7) 0.142(2) 0.514(2) 0.0271(6) Uiso 1.000000 GR
O4 O 0.2127(4) 0.0194(2) 0.40536(16) 0.0162(4) Uani 1.000000 .
loop_
_atom_site_aniso_label
_atom_site_aniso_U_11
_atom_site_aniso_U_22
_atom_site_aniso_U_33
_atom_site_aniso_U_12
_atom_site_aniso_U_13
_atom_site_aniso_U_23
C1 0.0095(12) 0.0115(12) 0.0121(14) 0.0042(10) 0.0019(10) 0.0050(10)
C2 0.0117(12) 0.0126(13) 0.0113(14) 0.0029(10) 0.0015(10) 0.0041(11)
C3 0.0204(14) 0.0146(13) 0.0136(15) 0.0063(11) 0.0067(11) 0.0027(11)
C4 0.0261(15) 0.0097(13) 0.0207(17) 0.0068(12) 0.0044(12) 0.0030(12)
C5 0.0202(14) 0.0135(13) 0.0146(15) 0.0027(11) 0.0023(11) 0.0066(11)
C6 0.0120(12) 0.0168(13) 0.0097(14) 0.0026(11) 0.0029(10) 0.0031(11)
C7 0.0153(13) 0.0133(13) 0.0077(14) 0.0040(11) 0.0071(10) 0.0055(11)
C8 0.0115(12) 0.0128(13) 0.0108(14) 0.0024(10) 0.0014(10) 0.0008(11)
I1 0.02229(11) 0.02095(11) 0.01516(11) 0.00656(8) 0.01006(7) 0.00763(7)
O1 0.0113(9) 0.0157(10) 0.0198(11) 0.0064(8) 0.0045(8) 0.0003(8)
O2 0.0134(9) 0.0190(10) 0.0221(12) 0.0094(8) 0.0080(8) 0.0070(9)
O3 0.0265(11) 0.0142(10) 0.0210(12) 0.0102(9) 0.0155(9) 0.0085(9)
O4 0.0226(10) 0.0147(10) 0.0179(11) 0.0094(8) 0.0111(8) 0.0088(8)
loop_
_atom_type_symbol
_atom_type_scat_dispersion_real
_atom_type_scat_dispersion_imag
_atom_type_scat_Cromer_Mann_a1
_atom_type_scat_Cromer_Mann_a2
_atom_type_scat_Cromer_Mann_a3
_atom_type_scat_Cromer_Mann_a4
_atom_type_scat_Cromer_Mann_b1
_atom_type_scat_Cromer_Mann_b2
_atom_type_scat_Cromer_Mann_b3
_atom_type_scat_Cromer_Mann_b4
_atom_type_scat_Cromer_Mann_c
_atom_type_scat_source
_atom_type_scat_dispersion_source
I -0.41187 1.83264 20.14720 18.99490 7.51380 2.27350 4.34700 0.38140 27.76600
66.87760 4.07119989395
'International Tables Volume C Table 6.1.1.4 (pp. 500-502)'
'Henke, Gullikson and Davis, At. Data and Nucl. Data Tables, 1993, 54, 2'
H 0.00000 0.00000 0.49300 0.32291 0.14019 0.04081 10.51090 26.12570 3.14236
57.79970 0.0030380000826
'International Tables Volume C Table 6.1.1.4 (pp. 500-502)'
'Henke, Gullikson and Davis, At. Data and Nucl. Data Tables, 1993, 54, 2'
C 0.00347 0.00161 2.31000 1.02000 1.58860 0.86500 20.84390 10.20750 0.56870
51.65120 0.215599998832
'International Tables Volume C Table 6.1.1.4 (pp. 500-502)'
'Henke, Gullikson and Davis, At. Data and Nucl. Data Tables, 1993, 54, 2'
O 0.01158 0.00611 3.04850 2.28680 1.54630 0.86700 13.27710 5.70110 0.32390
32.90890 0.250800013542
'International Tables Volume C Table 6.1.1.4 (pp. 500-502)'
'Henke, Gullikson and Davis, At. Data and Nucl. Data Tables, 1993, 54, 2'
loop_
_geom_angle_atom_site_label_1
_geom_angle_atom_site_label_2
_geom_angle_atom_site_label_3
_geom_angle
_geom_angle_site_symmetry_1
_geom_angle_site_symmetry_3
C6 C1 C2 118.3(2) . .
C7 C1 C2 122.5(2) . .
C7 C1 C6 119.1(2) . .
C3 C2 C1 120.4(2) . .
C8 C2 C1 119.7(2) . .
C8 C2 C3 119.9(2) . .
H3 C3 C2 119.93(16) . .
C4 C3 C2 120.1(3) . .
C4 C3 H3 119.93(16) . .
H4 C4 C3 119.88(16) . .
C5 C4 C3 120.2(3) . .
C5 C4 H4 119.88(16) . .
H5 C5 C4 120.15(16) . .
C6 C5 C4 119.7(3) . .
C6 C5 H5 120.15(16) . .
C5 C6 C1 121.2(3) . .
I1 C6 C1 121.2(2) . .
I1 C6 C5 117.5(2) . .
O1 C7 C1 117.8(2) . .
O2 C7 C1 122.6(2) . .
O2 C7 O1 119.4(2) . .
O3 C8 C2 113.9(2) . .
O4 C8 C2 122.2(2) . .
O4 C8 O3 123.9(3) . .
H1 O1 C7 109.5 . .
H3a O3 C8 109.5 . .
loop_
_geom_bond_atom_site_label_1
_geom_bond_atom_site_label_2
_geom_bond_distance
_geom_bond_site_symmetry_2
C1 C2 1.406(4) .
C1 C6 1.393(4) .
C1 C7 1.502(4) .
C2 C3 1.389(4) .
C2 C8 1.490(4) .
C3 H3 0.9500 .
C3 C4 1.387(4) .
C4 H4 0.9500 .
C4 C5 1.382(4) .
C5 H5 0.9500 .
C5 C6 1.391(4) .
C6 I1 2.102(3) .
C7 O1 1.337(3) .
C7 O2 1.205(3) .
C8 O3 1.313(3) .
C8 O4 1.221(3) .
O1 H1 0.8400 .
O3 H3a 0.8400 .
loop_
_refln_index_h
_refln_index_k
_refln_index_l
_refln_F_squared_meas
_refln_F_squared_sigma
-1 0 0 1697.53 56.39
-1 0 0 1759.72 56.59
-1 0 0 1746.73 56.79
1 0 0 1734.93 56.79
1 0 0 1767.92 56.59
1 0 0 1854.81 54.59
1 0 0 1704.93 56.39
-2 0 0 1434.66 52.19
-2 0 0 1509.55 52.19
-2 0 0 1416.26 51.49
-2 0 0 1520.65 55.29
2 0 0 1466.45 52.59
2 0 0 1422.46 51.79
2 0 0 1442.86 51.69
2 0 0 1529.95 48
-3 0 0 1292.07 49.8
-3 0 0 1305.67 53.89
-3 0 0 1217.58 49.7
-3 0 0 1220.28 48.9
3 0 0 1291.77 48.8
3 0 0 1230.38 43.4
3 0 0 1202.78 49.1
3 0 0 1186.48 49.7
-4 0 0 7.3 12.7
-4 0 0 -5 10.5
4 0 0 -15.4 11.3
4 0 0 6.6 13.6
-5 0 0 334.47 37.7
-5 0 0 289.17 30.9
-5 0 0 193.38 34
5 0 0 303.57 32.7
5 0 0 302.97 33
5 0 0 267.97 33.2
5 -1 0 245.08 30.5
5 -1 0 218.48 28.9
5 -1 0 221.98 29.6
-5 1 0 208.38 24.9
-5 1 0 222.98 24.9
-5 1 0 204.98 32.7
4 -1 0 1764.42 69.49
4 -1 0 1826.52 73.19
4 -1 0 1893.61 69.79
-4 1 0 1903.41 70.39
-4 1 0 1829.42 69.59
-4 1 0 1925.71 79.99
3 -1 0 9.7 6.5
3 -1 0 12 6.5
3 -1 0 24.7 9.2
-3 1 0 25.3 7.4
-3 1 0 16.1 6.8
-3 1 0 15 7.9
-3 1 0 20.8 11
2 -1 0 1100.09 38
2 -1 0 1040.2 37.7
2 -1 0 1088.19 42.1
2 -1 0 1046.1 37.8
2 -1 0 1045.5 40.8
-2 1 0 1078.59 37.8
-2 1 0 1098.99 38
-2 1 0 1150.68 39.6
-2 1 0 1081.39 43.2
-2 1 0 1073.19 40.8
1 -1 0 651.53 24.5
1 -1 0 716.33 23.6
1 -1 0 644.24 21.6
1 -1 0 620.94 25.5
-1 1 0 678.93 24.5
-1 1 0 722.83 23.9
-1 1 0 664.93 21.7
-1 1 0 649.24 25.8
-1 1 0 682.73 23.6
0 -1 0 6.3 1.6
0 -1 0 8.7 2.4
0 -1 0 5.8 2.3
0 1 0 9.2 2.5
0 1 0 3.3 1.5
0 1 0 6.5 2.5
-1 -1 0 5007.5 155.18
-1 -1 0 4859.21 154.88
-1 -1 0 4847.31 152.58
1 1 0 4900.21 152.68
1 1 0 5097.29 155.18
1 1 0 5015.6 155.28
-2 -1 0 652.73 28.8
-2 -1 0 614.14 28.5
-2 -1 0 596.54 26.4
2 1 0 615.34 28.5
2 1 0 630.44 21.1
2 1 0 644.14 29.1
2 1 0 610.34 26.7
-3 -1 0 480.45 26
-3 -1 0 472.05 28.2
-3 -1 0 499.05 28.3
3 1 0 425.16 28.1
3 1 0 454.95 26.8
3 1 0 464.15 18.6
3 1 0 467.05 26.8
-4 -1 0 323.07 34.2
-4 -1 0 378.46 29.9
4 1 0 363.56 30
4 1 0 378.86 30.2
4 1 0 310.47 30.9
-5 -1 0 16 23.3
-5 -1 0 52.59 26.1
-5 -1 0 28.8 28.7
5 1 0 42.6 22
5 1 0 45.3 25.2
5 1 0 51.49 26.1
5 -2 0 254.37 30.6
5 -2 0 278.47 27.8
5 -2 0 255.87 26.8
-5 2 0 334.17 40
-5 2 0 260.77 27.3
4 -2 0 26.1 8.2
4 -2 0 10.1 8.7
-4 2 0 5.3 14.7
-4 2 0 19.9 9
-4 2 0 11.5 8.6
3 -2 0 1966.4 71.69
3 -2 0 1963.5 73.99
3 -2 0 1974.4 65.49
3 -2 0 1965.8 65.69
-3 2 0 1950.9 65.19
-3 2 0 1968.2 69.59
-3 2 0 1865.21 74.89
2 -2 0 7.7 2.6
2 -2 0 9 5.7
2 -2 0 9.2 2.9
2 -2 0 10.1 7
-2 2 0 4.6 6.5
-2 2 0 14.9 6
-2 2 0 8.8 2.6
-2 2 0 10.1 2.8
-2 2 0 9.1 5.8
-2 2 0 7.6 5.1
1 -2 0 1350.26 41.6
1 -2 0 1331.47 44.9
1 -2 0 1449.85 45.4
1 -2 0 1301.27 41.7
-1 2 0 1256.27 41.2
-1 2 0 1286.87 41.5
-1 2 0 1436.96 45
-1 2 0 1391.16 45.2
0 -2 0 1443.96 48.9
0 -2 0 1433.56 48.8
0 -2 0 1532.45 46.7
0 2 0 1512.05 46.8
0 2 0 1440.96 48.9
0 2 0 1409.66 48.7
-1 -2 0 420.76 21.4
-1 -2 0 448.26 21.7
-1 -2 0 432.26 16.8
1 2 0 435.56 13.8
1 2 0 433.16 21.8
1 2 0 419.06 17
1 2 0 428.16 21.4
-2 -2 0 1937.71 70.59
-2 -2 0 1930.31 65.79
-2 -2 0 1911.21 70.39
2 2 0 1873.81 65.79
2 2 0 1968.6 71.19
2 2 0 1920.21 70.39
-3 -2 0 661.03 37.2
-3 -2 0 681.33 37.9
3 2 0 724.73 37.8
3 2 0 687.93 33.7
3 2 0 710.83 39
-4 -2 0 148.49 27.1
-4 -2 0 139.99 23.3
4 2 0 134.09 24.4
4 2 0 130.99 20.7
4 2 0 122.09 21.4
5 -3 0 182.58 24.7
-5 3 0 164.58 31.6
-5 3 0 196.08 23.4
-5 3 0 240.08 24.6
4 -3 0 558.14 48.7
4 -3 0 627.54 25.4
-4 3 0 563.24 24.6
-4 3 0 524.65 38.6
-4 3 0 567.44 24.6
-4 3 0 554.24 30.7
3 -3 0 114.79 14.6
3 -3 0 105.39 7.7
3 -3 0 118.69 7.6
3 -3 0 115.29 15.9
-3 3 0 104.19 6.9
-3 3 0 118.69 14
-3 3 0 109.19 16.1
-3 3 0 113.99 6.9
2 -3 0 3289.17 104.39
2 -3 0 2894.51 106.49
-2 3 0 3275.37 103.19
-2 3 0 3241.78 103.69
1 -3 0 1.1 3.2
1 -3 0 3.4 2.8
1 -3 0 -1.9 5.9
1 -3 0 4.9 2.9
-1 3 0 1.2 2.6
-1 3 0 1.3 4.4
-1 3 0 -0.4 4.5
0 -3 0 2776.62 90.19
0 -3 0 2779.52 86.69
0 -3 0 2738.63 89.99
0 3 0 2817.92 90.09
0 3 0 2667.53 89.89
0 3 0 2721.33 86.59
-1 -3 0 2808.52 88.29
-1 -3 0 2802.22 96.09
-1 -3 0 2835.42 96.09
1 3 0 2826.92 96.29
1 3 0 2832.62 95.89
-2 -3 0 22.3 9.2
-2 -3 0 4 9
2 3 0 25.3 10.6
-3 -3 0 1176.28 56.19
-3 -3 0 1208.48 56.89
3 3 0 1213.38 57.89
-4 -3 0 297.07 38
-4 -3 0 270.47 33.2
4 3 0 242.38 30
4 3 0 215.38 32.3
5 -4 0 -9.9 20.4
5 -4 0 -3.9 7.2
-5 4 0 -19.5 22.5
4 -4 0 427.66 14.7
4 -4 0 387.16 33.3
4 -4 0 405.96 15
4 -4 0 474.85 32.5
-4 4 0 383.96 25.7
3 -4 0 1631.74 65.19
3 -4 0 1602.44 61.39
-3 4 0 1520.05 59.19
2 -4 0 16.5 8.5
2 -4 0 14.4 6.4
-2 4 0 16 6.8
-2 4 0 24.1 7.4
1 -4 0 2594.14 84.39
1 -4 0 2638.94 84.29
1 -4 0 2590.04 83.19
-1 4 0 2538.45 83.99
-1 4 0 2580.14 85.79
-1 4 0 2691.43 84.59
-1 4 0 2638.24 84.29
0 -4 0 1780.62 58.79
0 -4 0 1805.22 63.09
0 -4 0 1747.33 62.69
0 4 0 1800.82 62.99
0 4 0 1735.23 62.69
0 4 0 1697.43 58.19
-1 -4 0 654.43 32.9
-1 -4 0 658.73 33.3
1 4 0 643.44 32.7
1 4 0 663.73 33.7
-2 -4 0 971.2 48.5
-2 -4 0 1021.1 49.7
2 4 0 1083.29 50.59
2 4 0 1049.7 49
-3 -4 0 68.39 22.2
-3 -4 0 110.99 22.7
3 4 0 97.49 23.1
3 4 0 87.09 19.8
-4 -4 0 223.98 37.6
-4 -4 0 315.47 38.8
4 4 0 237.68 36.4
4 4 0 351.06 45.5
5 -5 0 1198.68 63.99
4 -5 0 269.77 28.5
-4 5 0 275.27 24.2
3 -5 0 462.25 33.5
3 -5 0 471.25 27.7
-3 5 0 458.55 26.4
2 -5 0 1031.9 35.3
2 -5 0 1021.4 40.4
2 -5 0 1051.79 34.6
-2 5 0 1037.6 41.7
-2 5 0 1049.89 40.7
-2 5 0 1002 34
1 -5 0 23.9 6.9
1 -5 0 16.6 4.4
1 -5 0 25.6 6.8
-1 5 0 29.1 7.2
-1 5 0 11.6 6.8
-1 5 0 23.1 6.4
-1 5 0 21.8 6.9
0 -5 0 993.7 39.9
0 -5 0 879.11 39.4
0 5 0 875.91 39.3
0 5 0 920.31 34.5
0 5 0 901.91 39.7
-1 -5 0 242.68 23.2
-1 -5 0 173.78 21.2
1 5 0 219.78 22.5
1 5 0 246.48 22.1
-2 -5 0 854.91 49.5
-2 -5 0 905.71 50.49
2 5 0 896.61 48.4
2 5 0 909.11 49.2
-3 -5 0 465.45 46.6
-3 -5 0 572.34 45.8
3 5 0 486.95 48.3
3 5 0 459.45 42
5 -6 0 110.29 30.4
5 -6 0 56.39 25.7
-5 6 0 95.09 20.2
4 -6 0 683.53 46
4 -6 0 635.04 40.2
-4 6 0 610.64 36.5
3 -6 0 143.79 22.3
3 -6 0 178.38 19.6
-3 6 0 221.98 19.7
2 -6 0 1032.4 36.8
2 -6 0 1057.19 37.4
2 -6 0 998.5 39.7
-2 6 0 978.5 43.2
-2 6 0 999.5 35.6
-2 6 0 992.5 41
-2 6 0 975.7 36.6
1 -6 0 1018.7 41.7
1 -6 0 1030.6 35.3
-1 6 0 1013.3 39.6
-1 6 0 1001.9 41.4
-1 6 0 1040.8 42
-1 6 0 1054.19 42.1
0 -6 0 -1 9.2
0 -6 0 -5.8 8.9
0 6 0 13.1 7.2
0 6 0 8.4 9.1
0 6 0 8.1 10
-1 -6 0 686.53 40.6
-1 -6 0 668.03 40.8
-2 -6 0 91.79 21.9
-2 -6 0 142.49 24.4
2 6 0 154.38 26.5
2 6 0 151.88 26.2
-3 -6 0 -7.9 29.7
-3 -6 0 34.7 30.2
3 6 0 3.3 31.7
3 6 0 55.09 28.3
4 -7 0 45 24.9
4 -7 0 31.5 18.2
-4 7 0 40.5 16.2
3 -7 0 764.92 46.9
3 -7 0 756.82 38.7
-3 7 0 769.02 38
2 -7 0 529.75 26.5
-2 7 0 568.64 29.4
-2 7 0 548.55 25.3
-2 7 0 546.95 26.5
1 -7 0 204.98 20.2
1 -7 0 146.09 19.2
-1 7 0 208.88 20.6
-1 7 0 212.28 17.4
-1 7 0 160.18 20.5
0 -7 0 673.63 41.8
0 -7 0 841.62 44
0 7 0 791.02 32.6
0 7 0 789.22 41.5
-1 -7 0 131.29 23.1
-1 -7 0 184.88 27.6
1 7 0 168.48 24.8
-2 -7 0 492.15 47.7
-2 -7 0 488.45 51.59
2 7 0 473.55 51.39
2 7 0 556.24 49.99
4 -8 0 422.06 40.5
4 -8 0 398.26 52.39
-4 8 0 338.67 37.4
3 -8 0 -15.2 13.4
3 -8 0 -18.8 21.5
-3 8 0 14.7 12.2
2 -8 0 947.41 38
2 -8 0 985.4 41.9
2 -8 0 916.81 40.9
-2 8 0 897.41 41.9
-2 8 0 917.01 41.6
1 -8 0 302.97 28.5
1 -8 0 252.87 27
-1 8 0 315.07 27.7
-1 8 0 269.97 21.4
0 -8 0 96.99 20.9
0 -8 0 98.89 22
0 8 0 72.69 12.7
0 8 0 76.99 22.3
0 8 0 88.89 19.1
-1 -8 0 182.68 30
-1 -8 0 182.28 32.4
1 8 0 215.88 32.3
1 8 0 184.98 19.3
1 8 0 224.18 32.3
3 -9 0 183.28 21.8
3 -9 0 178.38 34.9
-3 9 0 182.28 23.1
2 -9 0 16.3 14.6
2 -9 0 29.9 15.2
-2 9 0 29.8 13.4
1 -9 0 609.64 43.2
1 -9 0 529.75 41.1
-1 9 0 671.03 44.2
-1 9 0 645.14 33
-1 9 0 607.64 41.2
0 -9 0 203.98 31.7
0 -9 0 150.08 29.2
0 9 0 193.38 19
0 9 0 167.08 32.2
0 9 -1 152.38 30.3
0 9 -1 23.5 28.5
0 9 -1 125.09 14.8
0 -9 1 120.09 25.9
0 -9 1 145.59 29.7
-1 9 -1 183.58 24.2
-1 9 -1 190.88 25
-1 9 -1 168.88 17.7
1 -9 1 182.38 24.4
1 -9 1 195.48 24.7
-2 9 -1 18.4 13.5
2 -9 1 5.7 10.2
2 -9 1 24.7 14.1
2 -9 1 15.8 14.3
-3 9 -1 355.36 29
3 -9 1 402.86 51.29
3 -9 1 371.26 33.1
1 8 -1 434.56 65.19
1 8 -1 475.95 47.9
-1 -8 1 508.15 45.7
-1 -8 1 454.45 47.7
0 8 -1 0.1 9.8
0 8 -1 0.8 17.4
0 8 -1 12.3 16.3
0 -8 1 9.5 17.2
0 -8 1 15.1 15.5
-1 8 -1 466.95 31.7
-1 8 -1 433.26 24.6
1 -8 1 418.96 31.7
1 -8 1 444.66 31.7
-2 8 -1 272.87 22.3
-2 8 -1 296.87 21.9
2 -8 1 266.27 20.6
2 -8 1 263.57 21.3
-3 8 -1 37.1 14.1
3 -8 1 51.89 15.7
3 -8 1 7.1 22.8
4 -8 1 288.87 41
4 -8 1 337.27 36.4
2 7 -1 127.69 27.9
2 7 -1 186.48 32.8
-2 -7 1 187.98 32.1
-2 -7 1 142.79 28.6
1 7 -1 27.9 17.8
1 7 -1 60.79 9.4
-1 -7 1 58.99 18.2
-1 -7 1 70.59 20.5
0 7 -1 1109.69 39.9
0 7 -1 1061.89 43.3
0 7 -1 1018.6 49.4
0 7 -1 1120.69 56.39
0 -7 1 1035.8 50.59
0 -7 1 1105.29 51.39
-1 7 -1 52.89 12
-1 7 -1 69.29 11.2
-1 7 -1 46 12.2
-1 7 -1 59.39 12.5
1 -7 1 60.39 12.3
1 -7 1 62.19 7.1
1 -7 1 61.99 12.4
-2 7 -1 816.32 36.4
-2 7 -1 851.71 33.3
2 -7 1 867.31 33.2
2 -7 1 844.02 34
2 -7 1 819.72 36.1
-3 7 -1 1359.16 58.19
-3 7 -1 1359.16 56.99
3 -7 1 1413.86 57.69
3 -7 1 1435.06 67.49
-4 7 -1 12 14.6
4 -7 1 33.6 18.2
4 -7 1 27.7 25
3 6 -1 -24.6 24.8
3 6 -1 11.6 27
-3 -6 1 19.2 27
-3 -6 1 40 27.3
2 6 -1 1461.75 71.49
2 6 -1 1513.75 71.09
-2 -6 1 1526.15 71.29
-2 -6 1 1535.65 71.99
1 6 -1 1097.79 52.49
-1 -6 1 1171.18 54.59
-1 -6 1 1115.59 62.59
0 6 -1 176.58 19.5
0 6 -1 184.58 19.6
0 6 -1 199.68 13.1
0 6 -1 187.38 14.8
0 -6 1 174.28 19.4
0 -6 1 174.08 19.6
-1 6 -1 1231.68 45.2
-1 6 -1 1190.58 47.5
-1 6 -1 1287.07 48
-1 6 -1 1193.48 47.7
1 -6 1 1252.27 47.8
1 -6 1 1190.68 42.9
1 -6 1 1353.86 47.4
-2 6 -1 75.99 11.5
-2 6 -1 88.29 8.8
-2 6 -1 74.99 12
2 -6 1 86.09 8.9
2 -6 1 79.69 10.7
2 -6 1 75.99 9.1
-3 6 -1 133.09 16.8
-3 6 -1 101.79 15.9
3 -6 1 131.39 16.6
3 -6 1 130.19 22.1
-4 6 -1 671.93 38.4
4 -6 1 788.12 50.49
4 -6 1 699.43 42.3
5 -6 1 -24.6 24
5 -6 1 29.2 30.5
3 5 -1 408.36 41.7
3 5 -1 346.37 38.1
-3 -5 1 314.87 38.6
-3 -5 1 294.47 34.4
2 5 -1 2.8 15.1
2 5 -1 13 12.4
1 5 -1 460.45 19.8
1 5 -1 467.75 30.1
1 5 -1 548.45 30.8
-1 -5 1 465.95 30.2
-1 -5 1 448.06 29.4
-1 -5 1 487.35 17.8
0 5 -1 1726.93 59.49
0 5 -1 1762.22 64.19
0 5 -1 1725.63 64.19
0 -5 1 1760.12 64.39
0 -5 1 1728.63 64.09
-1 5 -1 253.67 16.6
-1 5 -1 293.47 15.6
-1 5 -1 279.67 16.1
-1 5 -1 266.47 15.9
1 -5 1 275.37 16
1 -5 1 276.47 14.3
1 -5 1 269.57 16.1
-2 5 -1 963.5 38.6
-2 5 -1 971 40.6
2 -5 1 971 39.2
2 -5 1 983.1 32.3
2 -5 1 1031.3 32.2
-3 5 -1 15.8 9.7
-3 5 -1 12.6 10
3 -5 1 0.1 9.5
3 -5 1 18.5 13.7
-4 5 -1 275.97 22.3
4 -5 1 277.27 27.8
4 -5 1 246.58 32.7
5 -5 1 505.55 50.19
5 -5 1 382.16 36.9
4 4 -1 150.98 30.2
4 4 -1 133.09 33.4
-4 -4 1 202.08 31.6
-4 -4 1 150.08 31.9
3 4 -1 104.49 20.8
3 4 -1 79.09 21.8
-3 -4 1 77.69 21.1
2 4 -1 1088.69 52.29
2 4 -1 1280.17 52.19
-2 -4 1 1046.6 51.29
-2 -4 1 1120.59 51.39
-2 -4 1 1095.79 41.7
1 4 -1 2.1 8.5
1 4 -1 18.1 4.3
1 4 -1 17 8.2
-1 -4 1 21.2 4.1
-1 -4 1 21.5 9.1
-1 -4 1 22.4 9
0 4 -1 1012.1 36.6
0 4 -1 1004.1 39.8
0 4 -1 1048.7 34.5
0 4 -1 1040.2 40.1
0 -4 1 1009.2 39.9
0 -4 1 1006.8 39.7
-1 4 -1 5013.8 150.18
-1 4 -1 4737.33 149.49
-1 4 -1 4805.22 151.88
1 -4 1 4842.52 150.08
1 -4 1 4671.53 149.49
1 -4 1 4781.32 149.79
-2 4 -1 9.5 6.4
-2 4 -1 6 6.3
2 -4 1 6.9 6
2 -4 1 16.8 9.4
-3 4 -1 1816.52 66.59
-3 4 -1 1787.92 66.49
3 -4 1 1793.92 73.19
3 -4 1 1876.11 69.09
4 -4 1 288.77 11.6
4 -4 1 273.17 27.6
4 -4 1 291.47 32.8
4 -4 1 300.27 11.2
-5 4 -1 297.47 38.9
5 -4 1 434.06 19.7
5 -4 1 352.06 19.8
5 -4 1 311.37 34
4 3 -1 338.57 41
4 3 -1 324.27 36.6
-4 -3 1 377.56 41.7
-4 -3 1 345.67 44.9
3 3 -1 694.23 46.7
3 3 -1 742.73 40.6
-3 -3 1 676.53 39.2
-3 -3 1 679.43 40.8
-3 -3 1 652.93 32.3
2 3 -1 505.05 29
2 3 -1 501.55 29.2
-2 -3 1 505.25 23
-2 -3 1 509.35 29.7
-2 -3 1 488.05 29.2
1 3 -1 2163.48 75.19
1 3 -1 2108.49 75.09
1 3 -1 2154.68 66.89
-1 -3 1 2186.58 75.29
-1 -3 1 2051.09 74.49
-1 -3 1 2129.39 68.39
0 3 -1 277.37 15.6
0 3 -1 318.87 13.8
0 3 -1 312.07 12
0 3 -1 293.07 16
0 -3 1 292.67 15.6
0 -3 1 298.17 15.6
-1 3 -1 1798.42 58.69
-1 3 -1 1915.31 62.09
-1 3 -1 1929.41 60.89
1 -3 1 1873.81 62.09
1 -3 1 1807.12 58.89
-2 3 -1 2899.31 94.19
-2 3 -1 2891.71 94.09
2 -3 1 2783.22 99.19
2 -3 1 2897.31 95.59
-3 3 -1 19.2 3.9
-3 3 -1 27.6 8
-3 3 -1 16.2 11.3
-3 3 -1 16.5 3.3
-3 3 -1 25.4 8
3 -3 1 23.9 4.2
3 -3 1 27.3 9.9
3 -3 1 23.7 4.3
3 -3 1 24.3 12.2
-4 3 -1 1065.09 38
-4 3 -1 1032.3 54.59
-4 3 -1 1052.99 38.5
4 -3 1 889.51 40.6
-5 3 -1 299.57 24.2
-5 3 -1 298.07 27.8
-5 3 -1 330.67 41.5
5 -3 1 335.27 25.2
5 -3 1 332.87 26.3
5 -3 1 382.96 39.9
4 2 -1 175.08 23.9
4 2 -1 187.18 26.3
-4 -2 1 179.98 27.6
-4 -2 1 196.48 25
3 2 -1 638.94 32
3 2 -1 607.34 35.9
3 2 -1 656.73 21.9
3 2 -1 618.44 34.9
-3 -2 1 631.24 35.3
-3 -2 1 620.14 31.5
-3 -2 1 620.44 35.7
2 2 -1 4338.87 139.89
2 2 -1 4485.85 144.29
2 2 -1 4429.16 144.49
-2 -2 1 4348.46 139.49
-2 -2 1 4269.47 143.59
-2 -2 1 4370.26 143.99
1 2 -1 221.18 15.1
1 2 -1 240.18 14.5
-1 -2 1 221.78 11.5
-1 -2 1 251.87 14.8
-1 -2 1 245.98 14.6
0 2 -1 3287.17 98.89
0 2 -1 3000.4 98.49
0 2 -1 3229.48 95.49
0 2 -1 3140.69 97.09
0 -2 1 3002 98.39
0 -2 1 3130.79 98.69
-1 2 -1 868.11 29
-1 2 -1 846.52 29.7
-1 2 -1 787.32 25.7
-1 2 -1 803.12 25.5
1 -2 1 799.82 25.8
1 -2 1 837.82 29.3
1 -2 1 823.12 32
1 -2 1 849.41 26.2
-2 2 -1 810.22 30.7
-2 2 -1 810.42 31.3
-2 2 -1 820.82 27.2
-2 2 -1 745.53 35.5
-2 2 -1 811.32 27.5
2 -2 1 791.72 35.8
2 -2 1 801.52 27.5
2 -2 1 815.52 27.6
2 -2 1 804.32 33
-3 2 -1 806.32 43.2
-3 2 -1 832.02 33.9
-3 2 -1 921.31 34.3
3 -2 1 945.91 34.8
3 -2 1 964.7 44
3 -2 1 943.81 39.9
3 -2 1 914.41 34.5
-4 2 -1 -0.9 16.2
-4 2 -1 1.4 8.7
-4 2 -1 -7.8 8.4
4 -2 1 10.2 8.7
4 -2 1 -6.5 7.9
-5 2 -1 596.04 53.19
-5 2 -1 732.33 39.9
5 -2 1 711.03 44.1
5 -2 1 692.83 39.8
5 -2 1 700.03 39.8
5 1 -1 63.99 24.6
5 1 -1 60.39 25.9
5 1 -1 80.39 22.9
-5 -1 1 88.69 23.7
-5 -1 1 44.6 28.7
-5 -1 1 61.29 25.7
4 1 -1 432.96 31.8
4 1 -1 413.36 31.4
4 1 -1 400.86 32.7
4 1 -1 406.06 22.6
-4 -1 1 404.96 35.3
-4 -1 1 403.46 29.7
-4 -1 1 401.36 31.3
3 1 -1 69.59 13.4
3 1 -1 86.29 13
3 1 -1 91.89 10.6
-3 -1 1 71.99 12.5
-3 -1 1 77.89 13.3
-3 -1 1 84.29 11.9
2 1 -1 639.94 28.5
2 1 -1 595.44 26.5
2 1 -1 589.84 27.6
-2 -1 1 614.34 28.1
-2 -1 1 637.34 26.5
-2 -1 1 584.84 27.8
1 1 -1 3436.36 107.89
1 1 -1 3326.07 106.09
1 1 -1 3384.06 107.89
-1 -1 1 3342.17 105.99
-1 -1 1 3398.66 107.99
-1 -1 1 3427.96 107.89
0 1 -1 486.35 17.4
0 1 -1 485.85 17.5
0 -1 1 491.25 17.4
0 -1 1 519.75 15.5
0 -1 1 477.35 17.4
-1 1 -1 6898.91 199.68
-1 1 -1 6479.35 198.48
-1 1 -1 6044.7 202.68
1 -1 1 6495.25 198.58
1 -1 1 6367.76 198.48
1 -1 1 6206.98 202.88
1 -1 1 7276.27 199.78
-2 1 -1 214.98 12.6
-2 1 -1 217.08 12.3
-2 1 -1 235.38 16.6
-2 1 -1 212.98 12
2 -1 1 201.88 12.3
2 -1 1 209.08 14.8
2 -1 1 217.68 12.6
2 -1 1 215.48 17.3
2 -1 1 213.68 12.5
-3 1 -1 710.13 31.2
-3 1 -1 705.43 30.5
-3 1 -1 704.83 38
3 -1 1 685.23 33.8
3 -1 1 696.83 30.9
3 -1 1 668.43 30.3
-4 1 -1 418.56 41.8
-4 1 -1 509.15 30
4 -1 1 508.95 33.8
4 -1 1 534.85 30.6
4 -1 1 446.36 28.8
-5 1 -1 52.49 24.5
-5 1 -1 -25.8 17.4
-5 1 -1 -11.8 16.7
5 -1 1 48.6 18.9
5 -1 1 6.5 16.1
5 -1 1 3.3 21.7
5 0 -1 373.56 40.4
5 0 -1 406.36 40.1
5 0 -1 499.75 36.6
-5 0 1 467.15 45.7
-5 0 1 421.16 40.2
-5 0 1 501.65 40.2
4 0 -1 208.78 22.7
4 0 -1 233.78 27.3
4 0 -1 216.18 24.5
-4 0 1 230.18 28
-4 0 1 190.98 24.1
-4 0 1 236.48 23.2
-4 0 1 227.88 23.6
3 0 -1 1394.26 49.9
3 0 -1 1473.45 55.29
3 0 -1 1393.16 55.09
3 0 -1 1416.46 54.39
-3 0 1 1459.45 54.99
-3 0 1 1418.96 54.49
-3 0 1 1411.56 55.09
-3 0 1 1496.35 59.39
2 0 -1 160.98 12.3
2 0 -1 172.88 12.2
2 0 -1 179.38 9.9
2 0 -1 158.98 11.9
-2 0 1 158.48 11.4
-2 0 1 164.78 12.4
-2 0 1 161.88 12.4
-2 0 1 177.58 12.9
-2 0 1 173.08 14.1
1 0 -1 996.1 35.1
1 0 -1 1021.4 34.9
1 0 -1 1013.5 34.8
-1 0 1 1000.2 35.1
-1 0 1 1072.09 33.7
-1 0 1 1011.9 34.9
-1 0 1 1040.7 35
-1 0 -1 1844.12 61.39
-1 0 -1 1934.01 61.89
-1 0 -1 1873.91 63.49
-1 0 -1 1917.01 58.79
1 0 1 1853.61 61.39
1 0 1 1861.01 61.59
1 0 1 1911.11 61.69
1 0 1 1969.9 58.89
-2 0 -1 2345.77 76.49
-2 0 -1 2178.08 79.09
-2 0 -1 2150.38 75.39
2 0 1 2297.27 71.09
2 0 1 2280.57 76.29
2 0 1 2255.67 75.99
2 0 1 2226.28 75.99
-3 0 -1 618.64 30.8
-3 0 -1 653.83 31.1
3 0 1 595.64 30.6
3 0 1 647.04 25.7
3 0 1 628.24 30.9
-4 0 -1 134.69 23.7
-4 0 -1 123.69 18.2
-4 0 -1 97.19 16.7
4 0 1 104.89 17.2
4 0 1 113.89 18.7
4 0 1 99.99 17.4
-5 0 -1 471.95 45.3
-5 0 -1 446.86 39
-5 0 -1 403.06 49
5 0 1 438.16 41.2
5 0 1 478.55 44.4
5 0 1 416.76 42.2
5 -1 -1 368.06 33.4
5 -1 -1 299.67 38.2
5 -1 -1 309.57 31.4
-5 1 1 352.86 32.1
-5 1 1 274.77 35.8
-5 1 1 359.46 33.3
4 -1 -1 1447.16 62.09
4 -1 -1 1449.85 56.99
4 -1 -1 1481.35 58.19
-4 1 1 1363.06 64.69
-4 1 1 1393.66 57.29
-4 1 1 1467.35 57.29
-4 1 1 1507.15 62.09
3 -1 -1 26.8 7.6
3 -1 -1 8.6 8.2
3 -1 -1 13.1 6.1
-3 1 1 23.2 9.9
-3 1 1 29.8 8.7
-3 1 1 31.2 8.8
-3 1 1 19 7
-3 1 1 12.1 6.6
2 -1 -1 4197.78 133.49
2 -1 -1 4177.58 133.79
2 -1 -1 4210.98 136.49
2 -1 -1 4531.55 133.89
-2 1 1 4272.97 133.59
-2 1 1 4185.48 138.09
-2 1 1 4374.46 134.79
-2 1 1 4271.27 133.69
-2 1 1 4203.68 136.49
1 -1 -1 1887.51 60.09
1 -1 -1 1924.61 59.99
1 -1 -1 1876.91 61.79
1 -1 -1 1906.51 61.69
-1 1 1 1855.31 61.69
-1 1 1 1956.2 61.99
-1 1 1 2022 61.29
-1 1 1 1898.41 60.09
0 -1 -1 3033.4 94.59
0 -1 -1 2950.3 94.39
0 1 1 3129.29 94.69
0 1 1 3006.7 94.49
-1 -1 -1 4617.94 146.19
-1 -1 -1 4552.74 146.29
1 1 1 4538.75 143.29
1 1 1 4741.93 146.49
1 1 1 4736.63 146.59
-2 -1 -1 187.48 15.7
-2 -1 -1 183.38 15.7
2 1 1 191.18 16.3
2 1 1 178.18 15.3
2 1 1 197.38 13.6
-3 -1 -1 1273.17 57.39
-3 -1 -1 1349.77 54.59
-3 -1 -1 1298.37 53.99
3 1 1 1226.68 53.79
3 1 1 1351.66 54.49
3 1 1 1294.27 52.19
-4 -1 -1 431.06 38.4
-4 -1 -1 414.46 34.2
4 1 1 456.15 34.7
4 1 1 412.06 34.5
4 1 1 429.26 32
-5 -1 -1 -6.6 24.6
-5 -1 -1 19.3 26.9
-5 -1 -1 -9.7 25.4
5 1 1 -11.8 21.9
5 1 1 84.29 27.5
5 1 1 70.19 33.6
5 -2 -1 90.09 24.5
5 -2 -1 88.29 16.3
-5 2 1 128.89 27.4
-5 2 1 100.59 16.4
4 -2 -1 739.03 31
4 -2 -1 659.23 31.5
-4 2 1 601.74 34.8
-4 2 1 665.83 33.9
-4 2 1 661.13 30.9
-4 2 1 643.74 30.8
-4 2 1 597.54 41.6
3 -2 -1 2026.4 65.69
3 -2 -1 1986.4 72.09
-3 2 1 2038 72.29
-3 2 1 2082.59 69.59
-3 2 1 1726.03 64.89
-3 2 1 1980.1 65.39
-3 2 1 1847.32 73.59
2 -2 -1 287.07 12.1
2 -2 -1 292.97 17.2
2 -2 -1 269.67 15.6
-2 2 1 279.17 15.7
-2 2 1 271.77 17.1
-2 2 1 269.57 12.1
-2 2 1 287.27 16.6
1 -2 -1 4374.16 141.69
1 -2 -1 4640.64 143.19
1 -2 -1 4400.36 142.19
1 -2 -1 5269.67 144.19
-1 2 1 4822.12 143.39
-1 2 1 4362.36 145.19
-1 2 1 4517.75 141.59
0 -2 -1 1412.46 44.7
0 -2 -1 1386.96 47.6
0 -2 -1 1428.56 48
0 2 1 1382.66 47.6
0 2 1 1349.36 47.6
-1 -2 -1 55.19 9
-1 -2 -1 57.59 9.1
1 2 1 63.69 9.2
1 2 1 71.99 6.5
1 2 1 71.99 9.7
-2 -2 -1 2010.2 74.99
-2 -2 -1 2026.4 74.89
2 2 1 2098.29 74.99
2 2 1 2047.5 69.79
2 2 1 2061.89 75.39
-3 -2 -1 20.6 11.7
-3 -2 -1 -5.7 13.2
3 2 1 9.5 8.8
3 2 1 -12.3 11.5
3 2 1 6.7 11
-4 -2 -1 395.26 37.1
-4 -2 -1 418.96 40.7
4 2 1 382.46 38.9
4 2 1 397.16 32.7
4 2 1 396.36 35.8
5 -3 -1 399.66 34.9
5 -3 -1 443.46 29.5
-5 3 1 413.66 28.7
-5 3 1 405.16 45.4
-5 3 1 424.66 33.6
4 -3 -1 75.59 16.1
-4 3 1 70.99 9
-4 3 1 93.49 11.7
-4 3 1 68.49 14.8
-4 3 1 86.99 18.1
3 -3 -1 528.95 21
3 -3 -1 514.15 20.3
3 -3 -1 542.55 30.2
3 -3 -1 518.75 27.7
-3 3 1 555.74 19.9
-3 3 1 535.45 27.8
-3 3 1 534.55 20.6
-3 3 1 565.84 30.4
-3 3 1 503.75 26.7
2 -3 -1 1736.03 64.49
2 -3 -1 1854.51 56.89
2 -3 -1 1782.32 62.69
2 -3 -1 1781.92 56.49
-2 3 1 1835.22 55.89
-2 3 1 1742.83 55.79
-2 3 1 1877.11 62.49
-2 3 1 1833.62 63.09
1 -3 -1 6.2 3.8
1 -3 -1 4.8 3.4
1 -3 -1 8.1 5.2
1 -3 -1 3.2 3.7
-1 3 1 5.8 3.7
-1 3 1 6.7 5
-1 3 1 7.9 3.6
-1 3 1 7.2 3.5
0 -3 -1 5309.17 168.38
0 -3 -1 5228.58 167.98
0 -3 -1 5459.65 164.08
0 3 1 5260.47 168.28
0 3 1 5373.86 168.28
-1 -3 -1 815.72 35.9
-1 -3 -1 792.22 35.7
1 3 1 783.72 35.8
1 3 1 806.52 35
-2 -3 -1 22.5 11.4
-2 -3 -1 24.6 10
2 3 1 31.2 11.3
2 3 1 35.3 7.2
-3 -3 -1 979.8 51.49
-3 -3 -1 934.11 49.9
3 3 1 1047.2 51.19
3 3 1 1001.8 42.7
3 3 1 974 51.99
-4 -3 -1 76.89 22.9
-4 -3 -1 35.1 24.3
-4 -3 -1 65.89 24.7
4 3 1 73.79 26.8
4 3 1 67.79 21.7
5 -4 -1 7.1 8.2
5 -4 -1 -13.6 21.3
-5 4 1 15.3 12.1
-5 4 1 -15.5 22.7
4 -4 -1 1769.42 57.59
4 -4 -1 2009.7 76.79
4 -4 -1 1828.82 73.69
4 -4 -1 1769.72 58.69
-4 4 1 1731.73 69.99
3 -4 -1 274.27 22.9
3 -4 -1 254.17 20.6
-3 4 1 279.77 19.6
2 -4 -1 455.35 25.4
2 -4 -1 470.35 17.4
2 -4 -1 475.85 18
2 -4 -1 478.55 22.7
-2 4 1 468.35 16.8
-2 4 1 473.35 16.6
-2 4 1 451.25 22.9
1 -4 -1 1813.02 58.69
1 -4 -1 1836.52 61.49
1 -4 -1 1805.32 61.29
-1 4 1 1811.92 61.19
-1 4 1 1856.01 61.49
-1 4 1 1727.33 60.79
0 -4 -1 22.8 7.3
0 -4 -1 17.5 7.3
0 -4 -1 20.9 7.1
0 4 1 19.2 7.6
0 4 1 8.6 6.6
-1 -4 -1 1958.2 70.89
-1 -4 -1 1772.12 70.49
1 4 1 1915.71 71.59
1 4 1 1849.61 70.59
-2 -4 -1 662.43 39.6
-2 -4 -1 659.13 36.8
2 4 1 672.23 37.2
2 4 1 676.63 40
-3 -4 -1 39.6 21
-3 -4 -1 13.9 18.7
3 4 1 1.7 15.4
3 4 1 -0.9 18.6
-4 -4 -1 146.49 35.1
-4 -4 -1 135.99 34.3
4 4 1 182.98 38.2
4 4 1 141.49 30.6
5 -5 -1 150.38 28.1
-5 5 1 138.99 22.9
4 -5 -1 10.5 16.7
4 -5 -1 20.4 11.5
-4 5 1 6.4 12.2
3 -5 -1 1175.68 53.79
3 -5 -1 1200.98 48.9
-3 5 1 1132.29 47.9
2 -5 -1 903.01 33.7
2 -5 -1 935.81 36.5
2 -5 -1 904.91 32.5
-2 5 1 861.91 33
-2 5 1 933.61 37.7
-2 5 1 924.41 31.9
1 -5 -1 22.3 7.2
1 -5 -1 21.2 6.7
1 -5 -1 31.3 4.7
-1 5 1 27.5 7.4
-1 5 1 48.1 9
-1 5 1 33.1 7.6
0 -5 -1 2227.18 79.29
0 5 1 2122.79 78.49
0 5 1 2197.98 79.29
-1 -5 -1 157.98 20.8
-1 -5 -1 157.58 19.3
1 5 1 141.39 18.5
1 5 1 143.39 19.2
-2 -5 -1 508.75 39.3
-2 -5 -1 566.04 39.2
2 5 1 538.25 39.2
2 5 1 563.64 40.2
-3 -5 -1 604.94 50.79
-3 -5 -1 714.03 53.09
3 5 1 682.63 53.69
3 5 1 654.83 50.39
5 -6 -1 40.6 28.2
5 -6 -1 40 25.7
-5 6 1 39.3 17.9
4 -6 -1 782.42 57.19
4 -6 -1 850.81 45.5
-4 6 1 878.71 44
3 -6 -1 11.6 14.8
3 -6 -1 10.3 10.1
-3 6 1 15.6 9.9
2 -6 -1 750.72 32.3
2 -6 -1 808.82 32.1
-2 6 1 740.53 34.4
-2 6 1 764.22 32.8
-2 6 1 762.72 30
1 -6 -1 760.82 35.2
1 -6 -1 876.81 35.1
-1 6 1 761.32 32.9
-1 6 1 759.62 35.1
-1 6 1 778.22 35.5
0 -6 -1 0 10.2
0 -6 -1 4.4 10.4
0 6 1 -0.2 9.7
0 6 1 -5.3 11
-1 -6 -1 674.63 41.4
-1 -6 -1 666.13 41.2
-2 -6 -1 -37.2 18.3
-2 -6 -1 11.2 20.1
2 6 1 19.6 21.9
2 6 1 63.49 21.8
-3 -6 -1 515.55 59.49
-3 -6 -1 611.94 57.69
3 6 1 479.55 54.69
3 6 1 549.95 61.59
4 -7 -1 49.99 21.9
4 -7 -1 15.7 18.3
-4 7 1 22 15
3 -7 -1 843.62 41.3
3 -7 -1 917.01 50.99
-3 7 1 853.31 41.5
2 -7 -1 0.2 7.5
2 -7 -1 10.9 8.6
2 -7 -1 5.4 8.3
-2 7 1 12.9 9.9
-2 7 1 2.5 7.5
1 -7 -1 1006.1 44.7
1 -7 -1 952 44.4
-1 7 1 918.01 43.8
-1 7 1 1007.2 41
-1 7 1 1016.7 45.4
0 -7 -1 317.87 29.9
0 -7 -1 268.17 28.4
0 7 1 311.77 20.2
0 7 1 248.38 28.6
-1 -7 -1 73.69 20.4
-1 -7 -1 65.69 23.1
1 7 1 80.19 22.6
1 7 1 59.09 21
-2 -7 -1 174.98 34.9
-2 -7 -1 166.28 31.1
2 7 1 164.28 32
2 7 1 177.88 33.8
4 -8 -1 211.18 28.3
4 -8 -1 169.98 32.3
-4 8 1 182.28 24.9
3 -8 -1 -11.4 21.7
3 -8 -1 21.9 4.1
3 -8 -1 21.5 14.6
3 -8 -1 35 5.9
-3 8 1 15.2 13.5
2 -8 -1 567.04 32.1
-2 8 1 586.24 33
-2 8 1 700.13 45.6
-2 8 1 615.74 32.1
1 -8 -1 175.28 21.2
1 -8 -1 165.68 21.5
-1 8 1 167.18 19.5
-1 8 1 240.38 26.7
0 -8 -1 462.05 37.5
0 -8 -1 439.06 38.6
0 8 1 416.06 25.7
0 8 1 412.36 38.5
-1 -8 -1 283.77 36.1
-1 -8 -1 373.66 47
1 8 1 384.26 46.9
1 8 1 256.77 35.6
3 -9 -1 229.68 37.2
3 -9 -1 254.77 16.4
3 -9 -1 290.07 17.8
-3 9 1 276.27 29.3
2 -9 -1 -0.5 16.8
2 -9 -1 28.7 15.6
-2 9 1 31.9 14.3
-2 9 1 40.1 15.9
-2 9 1 31.1 17.7
1 -9 -1 199.68 27.9
1 -9 -1 213.58 27.7
-1 9 1 197.98 22.9
-1 9 1 237.98 28.3
-1 9 1 251.67 29.2
0 9 -2 363.56 42.3
0 -9 2 367.76 39.1
0 -9 2 396.56 45.1
-1 9 -2 86.69 14.2
-1 9 -2 107.39 19.9
-1 9 -2 97.19 20.6
1 -9 2 98.29 20.9
1 -9 2 105.99 20
-2 9 -2 378.06 28.1
-2 9 -2 386.26 31
-2 9 -2 410.26 27.5
-2 9 -2 422.56 27.2
2 -9 2 349.07 37.9
2 -9 2 394.36 28.8
2 -9 2 401.96 26
-3 9 -2 466.45 31.5
3 -9 2 375.06 41.4
3 -9 2 465.95 52.59
1 8 -2 332.27 40.7
1 8 -2 239.78 32.2
-1 -8 2 326.67 42.6
-1 -8 2 324.97 38.2
0 8 -2 27.5 11.7
0 8 -2 12 8.7
0 8 -2 -1.5 16.8
0 8 -2 24.8 15.9
0 -8 2 21 17.8
0 -8 2 16 16.5
-1 8 -2 354.06 27.9
-1 8 -2 406.76 23.1
-1 8 -2 470.85 30.6
1 -8 2 489.95 31
1 -8 2 426.26 19.6
1 -8 2 425.86 29.9
-2 8 -2 245.58 21.2
-2 8 -2 230.98 23.3
-2 8 -2 241.28 18.6
-2 8 -2 262.77 19.9
2 -8 2 261.17 21.4
2 -8 2 214.18 19.3
-3 8 -2 267.47 26.3
-3 8 -2 248.98 23
3 -8 2 268.37 34.6
3 -8 2 193.28 36.8
4 -8 2 371.86 41.2
4 -8 2 384.36 46.2
2 7 -2 156.38 29.2
2 7 -2 178.78 31.6
-2 -7 2 171.08 29.1
-2 -7 2 103.69 27.2
1 7 -2 573.24 26.7
1 7 -2 544.05 39.5
1 7 -2 543.85 20.8
-1 -7 2 603.74 42.1
-1 -7 2 608.54 40.2
0 7 -2 371.46 18.2
0 7 -2 395.26 27.9
0 7 -2 387.56 22.8
0 7 -2 358.46 30
0 -7 2 346.27 29.3
0 -7 2 368.86 28.4
-1 7 -2 66.59 12.7
-1 7 -2 72.49 10.4
-1 7 -2 81.79 13.2
-1 7 -2 60.59 11.9
1 -7 2 52.39 11.6
1 -7 2 59.29 12
1 -7 2 61.79 8.6
-2 7 -2 429.36 31
-2 7 -2 474.35 26
-2 7 -2 504.05 22.1
-2 7 -2 496.85 21.8
2 -7 2 466.35 22.9
2 -7 2 481.95 26.5
-3 7 -2 92.39 16.5
-3 7 -2 103.79 16
3 -7 2 105.49 17.4
3 -7 2 111.69 24.6
-4 7 -2 25.5 15.7
4 -7 2 37.1 19.7
4 -7 2 108.99 29.3
3 6 -2 10.5 29.2
3 6 -2 25.1 26.2
-3 -6 2 21.3 26.8
-3 -6 2 15.9 29
2 6 -2 481.95 46.6
2 6 -2 414.26 40.3
-2 -6 2 526.15 40.4
-2 -6 2 488.55 39.6
1 6 -2 928.71 30.7
1 6 -2 921.41 35
-1 -6 2 899.51 31.4
-1 -6 2 888.31 46.5
0 6 -2 264.77 18
0 6 -2 260.77 22.9
0 6 -2 272.97 21.6
0 -6 2 301.47 23.5
0 -6 2 307.17 22.4
-1 6 -2 1550.34 59.79
-1 6 -2 1563.34 58.59
-1 6 -2 1605.64 58.89
-1 6 -2 1621.64 55.89
1 -6 2 1663.93 56.39
1 -6 2 1743.93 59.29
1 -6 2 1642.04 59.19
-2 6 -2 10.1 4.2
-2 6 -2 15.7 4.1
-2 6 -2 12.9 8.7
-2 6 -2 19.3 10
2 -6 2 15.7 5
2 -6 2 4.4 8.1
2 -6 2 15.5 4.7
-3 6 -2 1289.37 53.29
-3 6 -2 1333.77 55.49
3 -6 2 1353.06 55.79
-4 6 -2 206.28 20.9
4 -6 2 162.58 23.5
4 -6 2 144.09 27.7
5 -6 2 68.69 33.8
5 -6 2 14.1 26.6
3 5 -2 502.75 42.4
3 5 -2 416.96 41.9
-3 -5 2 505.45 43.6
-3 -5 2 484.75 43.4
2 5 -2 107.39 20.7
2 5 -2 144.09 8.9
2 5 -2 88.99 18.6
-2 -5 2 108.09 22.8
-2 -5 2 150.08 13.4
-2 -5 2 122.29 21.3
1 5 -2 2403.36 77.59
1 5 -2 2377.56 87.99
1 5 -2 2469.85 88.39
-1 -5 2 2372.06 87.79
-1 -5 2 2326.47 87.59
-1 -5 2 2349.76 76.59
0 5 -2 1103.29 44.9
0 5 -2 1118.49 41.3
0 5 -2 1119.49 45.5
0 5 -2 1133.99 37.5
0 -5 2 1107.09 45
0 -5 2 1131.59 45.1
-1 5 -2 108.59 11.1
-1 5 -2 125.09 10.4
-1 5 -2 100.79 10.7
-1 5 -2 105.19 11.9
1 -5 2 105.29 11.1
1 -5 2 110.69 10.7
-2 5 -2 2527.65 86.29
-2 5 -2 2567.14 88.69
2 -5 2 2622.44 88.19
2 -5 2 2502.15 79.39
2 -5 2 2630.94 79.89
2 -5 2 2580.24 94.49
-3 5 -2 52.39 11.8
-3 5 -2 55.29 11.1
3 -5 2 68.29 17.7
3 -5 2 50.79 12.4
-4 5 -2 580.94 34.1
4 -5 2 599.04 36.5
4 -5 2 630.74 45.2
5 -5 2 111.29 33.3
5 -5 2 116.49 27.5
4 4 -2 164.58 32.6
4 4 -2 167.08 29.6
-4 -4 2 210.08 32.2
-4 -4 2 157.78 30.9
3 4 -2 450.75 39.8
3 4 -2 463.65 37.5
-3 -4 2 476.45 39.3
-3 -4 2 574.74 27.7
-3 -4 2 479.05 43.9
2 4 -2 1204.98 54.69
2 4 -2 1416.26 54.39
2 4 -2 1183.58 39.9
-2 -4 2 1137.99 53.79
-2 -4 2 1246.68 54.89
-2 -4 2 1185.88 45.3
1 4 -2 2.6 4.1
1 4 -2 3.3 6.9
1 4 -2 2.4 5.9
-1 -4 2 -4.5 7.9
-1 -4 2 2.4 3.8
-1 -4 2 19.7 8.5
0 4 -2 1803.32 63.49
0 4 -2 1748.43 63.29
0 4 -2 1907.41 57.09
0 4 -2 1793.32 60.49
0 -4 2 1843.62 63.69
0 -4 2 1737.63 63.29
-1 4 -2 262.77 16.1
-1 4 -2 275.07 13.9
1 -4 2 287.57 14.3
1 -4 2 295.87 14.1
-2 4 -2 19.3 7.5
-2 4 -2 28.7 8
2 -4 2 13.3 10.5
2 -4 2 27 7.6
-3 4 -2 784.22 35.4
-3 4 -2 814.92 36.3
3 -4 2 811.82 42.4
3 -4 2 832.22 38.9
4 -4 2 21.2 18.9
4 -4 2 3.4 4.9
4 -4 2 -1.6 13.5
-5 4 -2 259.17 37.6
5 -4 2 304.07 35.1
5 -4 2 242.78 20.1
4 3 -2 413.76 41.6
4 3 -2 398.06 37.5
-4 -3 2 362.56 41.2
3 3 -2 274.47 27.2
3 3 -2 285.07 29.4
3 3 -2 275.77 11.4
-3 -3 2 264.07 27.8
-3 -3 2 347.97 20.7
-3 -3 2 292.07 26.9
2 3 -2 801.12 38.7
2 3 -2 798.22 38
-2 -3 2 723.43 37.3
-2 -3 2 801.52 38.3
-2 -3 2 764.82 31.9
1 3 -2 4381.66 129.49
1 3 -2 4052.79 138.39
1 3 -2 4275.07 138.89
-1 -3 2 4344.67 139.19
-1 -3 2 4186.88 133.39
-1 -3 2 4311.07 138.89
0 3 -2 207.28 13.1
0 3 -2 201.18 11.4
0 3 -2 211.58 8.4
0 3 -2 208.38 13.5
0 -3 2 207.58 13.1
0 -3 2 207.38 13.3
-1 3 -2 3416.86 105.89
-1 3 -2 3314.57 102.89
-1 3 -2 3511.85 104.39
1 -3 2 3013.2 104.09
1 -3 2 3302.27 102.89
-2 3 -2 1509.55 52.89
-2 3 -2 1496.55 52.89
2 -3 2 1495.35 46.5
2 -3 2 1496.75 54.59
2 -3 2 1418.56 58.59
2 -3 2 1485.35 46.6
-3 3 -2 153.58 14.7
-3 3 -2 147.19 20
-3 3 -2 175.68 9.9
-3 3 -2 176.48 11.3
3 -3 2 150.98 15.9
3 -3 2 151.58 10.3
3 -3 2 173.28 11
3 -3 2 166.98 22.4
-4 3 -2 1208.88 43.4
-4 3 -2 998.8 65.99
-4 3 -2 1181.08 44.1
4 -3 2 1226.68 58.79
-5 3 -2 71.39 26.9
-5 3 -2 19.7 12.6
5 -3 2 39.7 23.6
5 -3 2 0.3 12.6
5 -3 2 25.7 13.4
5 2 -2 268.37 37.4
5 2 -2 224.48 33.5
-5 -2 2 221.68 34.8
-5 -2 2 231.08 40.9
-5 -2 2 271.97 39.8
4 2 -2 49.3 9.4
4 2 -2 1.1 15.3
4 2 -2 32 17.9
-4 -2 2 57.99 16.4
3 2 -2 688.43 26.2
3 2 -2 712.83 37.1
3 2 -2 718.23 38.7
-3 -2 2 683.43 37.4
-3 -2 2 697.03 37.1
-3 -2 2 700.13 32.8
2 2 -2 146.29 13.9
2 2 -2 152.98 14.7
-2 -2 2 167.98 16.2
-2 -2 2 157.88 15.8
-2 -2 2 164.78 13.2
1 2 -2 321.67 11.6
1 2 -2 299.27 17.1
1 2 -2 324.77 17.9
-1 -2 2 344.07 18.4
-1 -2 2 293.67 17.3
0 2 -2 9491.25 289.67
0 2 -2 9393.56 289.67
0 -2 2 9162.18 289.47
0 -2 2 9349.56 289.67
0 -2 2 9999 285.87
-1 2 -2 234.58 10.8
-1 2 -2 247.78 12.4
1 -2 2 243.48 10.4
1 -2 2 245.18 12.8
1 -2 2 202.58 12.3
1 -2 2 252.47 16.1
-2 2 -2 1235.38 43.4
-2 2 -2 1222.78 40.8
-2 2 -2 1239.28 50.09
2 -2 2 1216.88 41.3
2 -2 2 1181.38 41.1
2 -2 2 1180.88 49.7
2 -2 2 1256.77 46.4
-3 2 -2 1373.06 49.9
-3 2 -2 1441.96 50.69
-3 2 -2 1565.44 61.09
-3 2 -2 1404.16 51.19
3 -2 2 1436.06 50.59
3 -2 2 1362.16 60.39
3 -2 2 1329.27 55.59
3 -2 2 1412.46 50.49
-4 2 -2 -3.7 9
-4 2 -2 16.3 9.8
4 -2 2 -5.1 8.6
4 -2 2 1 15.9
4 -2 2 10.6 9.1
-5 2 -2 373.96 32.5
-5 2 -2 404.86 46.6
-5 2 -2 362.76 32.4
5 -2 2 409.26 42.3
5 -2 2 394.86 32
5 -2 2 427.66 32.9
5 1 -2 118.39 28
5 1 -2 105.59 24.2
-5 -1 2 99.29 26.3
-5 -1 2 131.69 23.9
-5 -1 2 95.89 29.1
4 1 -2 1470.05 64.29
4 1 -2 1582.14 64.09
-4 -1 2 1216.58 73.29
-4 -1 2 1524.15 63.39
-4 -1 2 1438.06 66.89
3 1 -2 -4.3 8.2
3 1 -2 -6.2 7.3
3 1 -2 -6.3 8.6
-3 -1 2 -1.8 7.8
-3 -1 2 -0.9 8.9
-3 -1 2 1.2 7.4
2 1 -2 2146.79 73.99
2 1 -2 2167.08 74.29
-2 -1 2 2127.19 73.99
-2 -1 2 2126.69 72.49
-2 -1 2 2046.3 73.59
1 1 -2 1934.61 55.89
1 1 -2 1656.73 57.89
1 1 -2 1696.33 57.99
-1 -1 2 1643.34 57.69
-1 -1 2 1741.63 53.59
-1 -1 2 1638.04 57.89
-1 -1 2 1660.03 56.49
0 1 -2 242.38 11.6
0 1 -2 264.17 11.6
0 -1 2 243.18 11.4
0 -1 2 234.08 11.4
-1 1 -2 7279.97 219.48
-1 1 -2 7040.8 218.88
-1 1 -2 7056.59 223.18
-1 1 -2 7459.65 218.98
1 -1 2 7339.37 219.28
1 -1 2 7056.39 219.28
1 -1 2 6924.51 223.08
-2 1 -2 1364.16 47.6
-2 1 -2 1354.36 46.1
-2 1 -2 1393.66 53.79
-2 1 -2 1338.27 47.8
2 -1 2 1356.36 53.69
2 -1 2 1323.37 47.6
2 -1 2 1414.86 46.6
2 -1 2 1344.17 47.7
2 -1 2 1353.06 49.8
-3 1 -2 358.16 18.3
-3 1 -2 314.77 20.7
-3 1 -2 378.46 21.5
3 -1 2 350.16 21.2
3 -1 2 368.36 23.9
3 -1 2 341.87 20.9
-4 1 -2 388.36 27.2
-4 1 -2 407.06 35.8
-4 1 -2 330.87 26.8
4 -1 2 440.26 28.3
4 -1 2 372.16 27.6
4 -1 2 404.36 31.4
-5 1 -2 54.99 20.4
-5 1 -2 83.29 29.7
-5 1 -2 50.09 19
5 -1 2 15.7 23.6
5 -1 2 42.2 18.5
5 -1 2 61.29 20
5 0 -2 263.77 29.9
5 0 -2 258.37 32.2
5 0 -2 273.17 34.5
-5 0 2 281.37 35.9
-5 0 2 236.48 27.4
-5 0 2 344.87 37.2
4 0 -2 42.4 14.3
4 0 -2 63.29 14.5
4 0 -2 73.29 16.5
-4 0 2 58.79 14.4
-4 0 2 31.6 13.4
-4 0 2 43.5 12.6
-4 0 2 45.4 16.6
3 0 -2 2489.55 87.79
3 0 -2 2477.05 87.49
3 0 -2 2512.75 89.29
-3 0 2 2503.15 90.79
-3 0 2 2479.55 88.49
-3 0 2 2589.44 88.09
-3 0 2 2548.84 87.79
-3 0 2 2596.14 85.49
2 0 -2 18.5 5.8
2 0 -2 27.3 6.9
2 0 -2 26.6 6.5
-2 0 2 37.7 6.4
-2 0 2 21.9 6.3
-2 0 2 25.9 5.7
-2 0 2 17.5 6
1 0 -2 1966.8 63.79
-1 0 2 1936.41 63.99
-1 0 2 1946.21 63.69
-1 0 2 1915.31 63.69
-1 0 2 2023.7 61.89
0 0 -2 439.06 17.7
0 0 -2 421.76 15.5
0 0 -2 400.16 17.4
0 0 2 403.76 17.5
0 0 2 419.26 15.5
0 0 2 439.86 17.7
-1 0 -2 7005.3 209.88
-1 0 -2 6828.72 211.38
-1 0 -2 6660.03 209.28
1 0 2 6677.83 209.48
1 0 2 6743.93 209.48
-2 0 -2 3903.61 120.99
-2 0 -2 3975.8 126.99
-2 0 -2 3879.61 130.29
-2 0 -2 3896.21 126.39
2 0 2 3902.11 126.59
2 0 2 3898.51 126.39
2 0 2 3860.61 126.49
-3 0 -2 87.59 12.8
-3 0 -2 105.49 14
3 0 2 91.39 13.4
3 0 2 94.19 13.8
-4 0 -2 591.14 43.9
-4 0 -2 581.04 36.6
4 0 2 596.04 37.6
4 0 2 617.34 37.9
4 0 2 599.24 35.9
-5 0 -2 222.58 30.9
-5 0 -2 205.98 31
-5 0 -2 230.88 34.9
5 0 2 195.88 31
5 0 2 217.78 30.3
5 0 2 208.38 28.7
5 -1 -2 272.67 32.9
5 -1 -2 345.67 32.7
5 -1 -2 358.66 31.7
-5 1 2 309.37 39.9
-5 1 2 323.17 30.8
-5 1 2 379.26 33.5
4 -1 -2 190.68 18.3
4 -1 -2 174.88 20.1
4 -1 -2 211.78 24.5
-4 1 2 208.08 20.2
-4 1 2 209.28 22.5
-4 1 2 199.68 25.7
-4 1 2 222.58 20.2
3 -1 -2 635.54 28.8
3 -1 -2 655.73 29.7
3 -1 -2 678.23 32.8
-3 1 2 690.23 28.9
-3 1 2 676.93 29.3
-3 1 2 663.53 33.8
-3 1 2 614.14 30.7
-3 1 2 612.04 28.7
2 -1 -2 3027.8 96.79
2 -1 -2 3014 99.29
-2 1 2 3050.49 96.79
-2 1 2 3154.38 97.49
-2 1 2 2973.5 96.69
-2 1 2 2842.42 98.89
-2 1 2 3059.29 99.49
1 -1 -2 8.7 2.9
1 -1 -2 8.2 3.8
1 -1 -2 7.1 3.8
-1 1 2 11 3.7
-1 1 2 12.5 4.1
-1 1 2 8.4 3
-1 1 2 5.5 4.2
-1 1 2 14.6 4.4
0 -1 -2 1640.14 54.59
0 -1 -2 1693.53 54.89
0 1 2 1636.54 54.59
0 1 2 1593.64 54.49
-1 -1 -2 3361.56 109.29
-1 -1 -2 3314.47 108.89
1 1 2 3389.56 109.19
1 1 2 3388.56 109.39
-2 -1 -2 38.4 9.1
-2 -1 -2 36.4 9
-2 -1 -2 16.7 7.6
2 1 2 33.2 7.2
2 1 2 30.6 8.2
2 1 2 44.8 9.6
-3 -1 -2 1831.22 70.99
-3 -1 -2 1847.32 73.89
-3 -1 -2 1740.33 69.89
3 1 2 1812.02 68.29
3 1 2 1812.92 70.69
3 1 2 1879.91 71.39
-4 -1 -2 396.26 34.3
-4 -1 -2 361.86 34.7
4 1 2 401.36 34.5
4 1 2 373.66 31.3
4 1 2 335.87 35.6
5 -2 -2 1.8 12.5
5 -2 -2 18 20.7
-5 2 2 -9.5 12.6
-5 2 2 -1.3 21.1
4 -2 -2 802.22 36.6
-4 2 2 812.72 39.6
-4 2 2 794.82 43.5
-4 2 2 981.8 45.5
-4 2 2 841.32 36.9
-4 2 2 881.71 37
3 -2 -2 2003 73.59
3 -2 -2 1972.7 67.79
3 -2 -2 2002.7 67.49
-3 2 2 1982.4 74.59
-3 2 2 2009.8 73.09
-3 2 2 2036.7 67.49
-3 2 2 2008.5 67.59
-3 2 2 1998.6 70.59
2 -2 -2 254.77 13.3
2 -2 -2 261.87 15.4
2 -2 -2 232.58 12.3
2 -2 -2 251.07 16
-2 2 2 281.57 16.2
-2 2 2 244.98 15.4
-2 2 2 257.47 13.3
-2 2 2 252.67 14.2
1 -2 -2 3578.54 116.79
1 -2 -2 3703.03 116.39
-1 2 2 3585.84 116.69
-1 2 2 3835.42 116.09
-1 2 2 3812.32 116.39
0 -2 -2 639.74 26.9
0 -2 -2 664.33 27
0 2 2 679.23 27.1
0 2 2 659.43 26.9
-1 -2 -2 1077.99 44
-1 -2 -2 1111.39 44.4
1 2 2 1153.38 44.6
1 2 2 1150.08 38.5
1 2 2 1151.48 44.3
-2 -2 -2 619.04 32.2
-2 -2 -2 588.84 31.7
2 2 2 607.74 26.8
2 2 2 592.94 32
2 2 2 587.04 31.4
-3 -2 -2 30.3 14.6
3 2 2 9 13.2
3 2 2 12 10
3 2 2 -17.6 10.4
-4 -2 -2 657.83 50.09
-4 -2 -2 582.94 45.8
-4 -2 -2 626.04 46
4 2 2 671.73 39.9
4 2 2 627.34 44.7
5 -3 -2 829.12 39.9
5 -3 -2 817.02 51.69
-5 3 2 842.52 45.2
-5 3 2 900.71 53.79
-5 3 2 846.22 39.3
4 -3 -2 86.79 17.5
4 -3 -2 66.09 14.2
-4 3 2 82.99 18.3
-4 3 2 62.19 10.9
-4 3 2 96.69 12.8
-4 3 2 77.09 12.9
3 -3 -2 821.02 31.4
3 -3 -2 856.31 37.5
3 -3 -2 786.82 30
3 -3 -2 818.82 38
-3 3 2 887.41 37.8
-3 3 2 870.51 37.4
-3 3 2 807.32 31.1
-3 3 2 784.32 29.6
-3 3 2 797.62 35.7
2 -3 -2 1992.9 68.49
2 -3 -2 2027.5 63.69
2 -3 -2 1995.5 67.79
-2 3 2 1719.43 64.39
-2 3 2 1989.2 63.49
-2 3 2 1982.7 67.69
-2 3 2 2035.3 67.49
1 -3 -2 3 4.3
1 -3 -2 0.5 4.3
-1 3 2 3 4.3
-1 3 2 -0.9 4.2
-1 3 2 0.1 3
0 -3 -2 1594.74 50.99
0 -3 -2 1497.95 55.19
0 -3 -2 1549.94 55.69
0 3 2 1443.66 55.09
0 3 2 1608.14 55.89
-1 -3 -2 280.87 20.8
-1 -3 -2 289.37 21
-1 -3 -2 301.27 11.4
1 3 2 318.77 19.9
1 3 2 292.17 12.8
1 3 2 288.67 21.2
-2 -3 -2 998.4 48.7
-2 -3 -2 1068.99 48.6
2 3 2 1209.28 48.7
2 3 2 1040.4 40.1
2 3 2 1049.79 49.2
-3 -3 -2 326.77 31.5
-3 -3 -2 238.88 30.7
3 3 2 287.37 29.5
3 3 2 265.57 23.2
3 3 2 264.47 34.2
-4 -3 -2 -10 24.9
-4 -3 -2 -32.7 23
-4 -3 -2 -19.1 23.9
4 3 2 0.3 18.3
4 3 2 17.3 24.3
4 3 2 -6.1 21.7
5 -4 -2 56.29 9.7
5 -4 -2 60.09 24
5 -4 -2 68.79 11.4
-5 4 2 55.09 18.7
-5 4 2 55.89 7.2
-5 4 2 35 7.4
4 -4 -2 681.03 25.6
4 -4 -2 715.03 40.4
4 -4 -2 651.73 27.5
4 -4 -2 642.34 39.5
-4 4 2 654.63 22.8
-4 4 2 694.73 36
-4 4 2 687.93 22.7
3 -4 -2 234.08 11.5
3 -4 -2 220.58 19.8
3 -4 -2 222.08 10.7
3 -4 -2 248.18 20.6
-3 4 2 209.78 17.9
-3 4 2 227.08 9.2
-3 4 2 201.98 8.9
2 -4 -2 1294.47 46.7
2 -4 -2 1370.36 49.7
2 -4 -2 1319.87 51.29
-2 4 2 1351.76 46.5
-2 4 2 1412.86 50.39
-2 4 2 1324.57 45.3
-2 4 2 1379.56 49.5
1 -4 -2 1539.75 54.69
1 -4 -2 1551.54 55.19
-1 4 2 1552.24 55.19
-1 4 2 1554.84 54.79
0 -4 -2 17.3 8.2
0 -4 -2 21.8 8.2
0 -4 -2 36.7 8.1
0 4 2 23.9 8.3
0 4 2 22.9 8.3
-1 -4 -2 2913.41 102.89
1 4 2 2904.41 103.19
1 4 2 2875.31 102.59
-2 -4 -2 414.16 33.5
-2 -4 -2 401.46 31.2
2 4 2 379.66 30.5
2 4 2 410.36 37.5
-3 -4 -2 406.36 41.1
-3 -4 -2 587.14 44
3 4 2 409.76 38.7
3 4 2 483.95 43.2
5 -5 -2 234.78 32
-5 5 2 235.08 27.5
4 -5 -2 772.72 43.8
4 -5 -2 755.62 42.5
-4 5 2 710.73 38.4
3 -5 -2 2521.15 90.69
3 -5 -2 2573.74 93.29
3 -5 -2 2627.14 79.49
3 -5 -2 2567.34 79.39
-3 5 2 2490.95 90.29
2 -5 -2 322.17 18.8
2 -5 -2 288.67 17.8
2 -5 -2 322.77 17
-2 5 2 318.97 16.3
-2 5 2 335.07 20.4
1 -5 -2 1157.58 45.7
1 -5 -2 1160.38 46
-1 5 2 1211.08 45
-1 5 2 1212.68 46
-1 5 2 1144.09 45.9
0 -5 -2 1102.09 43.2
0 -5 -2 958.4 42.9
0 5 2 912.21 42.3
0 5 2 881.11 42.3
-1 -5 -2 118.19 18.2
-1 -5 -2 114.99 18.6
1 5 2 184.78 20.1
-2 -5 -2 517.95 40.3
-2 -5 -2 540.85 39.6
2 5 2 578.24 40.7
2 5 2 463.25 39.5
-3 -5 -2 42.6 24
-3 -5 -2 59.09 25.6
3 5 2 75.39 26.6
3 5 2 49.9 24.6
5 -6 -2 100.79 27.1
5 -6 -2 88.69 27.8
-5 6 2 95.99 19.4
4 -6 -2 257.67 29.4
4 -6 -2 307.17 32.2
-4 6 2 303.07 26.8
3 -6 -2 1.5 3.3
3 -6 -2 14.7 14
3 -6 -2 7.7 10.4
3 -6 -2 2.2 3.6
-3 6 2 6.1 10.4
2 -6 -2 1598.74 59.29
2 -6 -2 1881.51 61.09
-2 6 2 1676.23 62.99
-2 6 2 1596.54 58.79
1 -6 -2 274.47 22
1 -6 -2 246.68 20.9
-1 6 2 284.37 19
-1 6 2 272.47 21.5
-1 6 2 277.17 20.7
0 -6 -2 403.66 28.5
0 -6 -2 395.46 28.9
0 6 2 350.56 26.4
0 6 2 375.86 28.1
-1 -6 -2 252.27 29
-1 -6 -2 279.07 30.9
1 6 2 236.38 28
-2 -6 -2 -12.6 22.5
-2 -6 -2 4.8 20.8
2 6 2 30.3 19.1
2 6 2 36 23.6
4 -7 -2 216.68 30.3
4 -7 -2 185.28 25.5
-4 7 2 172.98 23.6
3 -7 -2 137.69 22.8
3 -7 -2 142.29 18
3 -7 -2 166.98 11.5
-3 7 2 161.78 20.2
2 -7 -2 4 9.3
2 -7 -2 7.5 10
-2 7 2 4.2 9.8
-2 7 2 11.5 9.1
-2 7 2 4 10.3
1 -7 -2 1302.57 55.39
1 -7 -2 1092.79 64.49
-1 7 2 1369.16 56.29
-1 7 2 1319.17 51.49
-1 7 2 1358.56 55.59
0 -7 -2 373.86 32.4
0 -7 -2 419.96 33.9
0 7 2 433.76 32.8
-1 -7 -2 246.98 31.1
-1 -7 -2 254.07 29.9
1 7 2 172.28 28.2
1 7 2 285.17 35.3
-2 -7 -2 420.56 52.59
-2 -7 -2 471.55 55.19
2 7 2 375.56 45.2
2 7 2 444.06 51.89
4 -8 -2 -18.4 25.8
-4 8 2 12.2 16.2
3 -8 -2 453.05 43.8
3 -8 -2 439.16 22.1
3 -8 -2 452.75 23.4
-3 8 2 439.66 31.5
2 -8 -2 350.56 27.1
2 -8 -2 435.26 31.2
-2 8 2 383.96 28.5
-2 8 2 395.06 28.2
-2 8 2 350.76 29.8
1 -8 -2 8.3 15.7
1 -8 -2 4.5 15.8
-1 8 2 -9.5 15
-1 8 2 -3.5 11.2
-1 8 2 -5.9 15.5
0 -8 -2 512.45 41.2
0 -8 -2 475.85 42.1
0 8 2 488.35 42.4
0 8 2 533.95 29.1
-1 -8 -2 268.57 35.9
-1 -8 -2 279.17 38.4
1 8 2 245.88 38.1
1 8 2 291.97 37
3 -9 -2 122.09 14.1
3 -9 -2 126.59 32.4
2 -9 -2 84.09 21.1
2 -9 -2 107.19 19
-2 9 2 118.29 20.5
-2 9 2 60.99 19.6
-2 9 2 113.99 19.2
1 -9 -2 463.15 42.6
1 -9 -2 451.55 42.9
-1 9 2 388.76 41.4
-1 9 2 474.95 42.8
-1 9 2 471.35 30.4
0 9 -3 629.74 36.5
0 9 -3 604.54 49.6
0 -9 3 669.23 51.09
0 -9 3 628.24 48.4
-1 9 -3 -18.4 16.4
-1 9 -3 10 12.7
1 -9 3 11.3 7.5
1 -9 3 8.7 16.1
1 -9 3 13.7 15.9
-2 9 -3 268.77 24
-2 9 -3 285.77 27.2
-2 9 -3 253.87 24.1
-2 9 -3 253.27 23.5
2 -9 3 262.67 25.1
2 -9 3 266.27 24.5
-3 9 -3 505.45 36.3
3 -9 3 472.55 56.39
3 -9 3 479.85 38.4
1 8 -3 410.96 41.9
1 8 -3 437.96 43.5
1 8 -3 404.96 25.7
-1 -8 3 420.56 44.8
-1 -8 3 404.96 40.4
0 8 -3 204.98 27.4
0 8 -3 254.17 22.5
0 8 -3 239.18 31.6
0 -8 3 234.88 29.8
0 -8 3 242.78 29.4
0 -8 3 225.98 9.3
-1 8 -3 931.91 49.99
-1 8 -3 856.91 41.6
-1 8 -3 905.81 43.3
1 -8 3 852.81 35.1
1 -8 3 896.31 43.3
1 -8 3 818.52 42.8
-2 8 -3 25.8 9.2
-2 8 -3 25.8 9
-2 8 -3 16.8 11.5
-2 8 -3 12.6 12.1
2 -8 3 25 15
2 -8 3 -0.7 8.6
2 -8 3 33.3 11.8
-3 8 -3 129.39 20.3
-3 8 -3 138.19 18.7
3 -8 3 126.99 19.3
3 -8 3 129.09 29.3
-4 8 -3 415.66 34.8
4 -8 3 435.76 56.29
4 -8 3 457.75 45
2 7 -3 17.8 24.4
2 7 -3 33.3 22.2
-2 -7 3 9.5 22.9
-2 -7 3 -19.3 20.5
1 7 -3 526.85 36.8
1 7 -3 431.46 23.7
-1 -7 3 424.36 18.5
-1 -7 3 475.05 37.8
-1 -7 3 414.06 36
0 7 -3 1405.36 59.69
0 7 -3 1347.27 52.59
0 7 -3 1334.67 45.4
0 7 -3 1397.16 58.69
0 -7 3 1351.56 59.29
0 -7 3 1400.96 59.39
-1 7 -3 150.78 13.8
-1 7 -3 148.89 18.6
-1 7 -3 149.19 18
-1 7 -3 156.98 17.8
1 -7 3 145.79 18.3
1 -7 3 157.08 17.9
-2 7 -3 951.2 36.2
-2 7 -3 935.11 40.1
-2 7 -3 933.31 45
-2 7 -3 981 36.2
2 -7 3 972.6 42.8
2 -7 3 1093.39 36.9
2 -7 3 986.4 37.6
-3 7 -3 -19.8 9.7
-3 7 -3 5 11
3 -7 3 14.4 20.1
3 -7 3 11.9 15.1
-4 7 -3 490.05 34.7
4 -7 3 385.26 48.6
4 -7 3 569.54 40.8
3 6 -3 117.79 33
3 6 -3 145.19 30.5
-3 -6 3 174.58 31.4
-3 -6 3 134.09 33.8
2 6 -3 312.07 36.1
2 6 -3 369.66 17.7
-2 -6 3 306.37 33.8
-2 -6 3 353.26 20.7
-2 -6 3 361.36 37.3
1 6 -3 422.26 28.6
1 6 -3 346.57 19.7
-1 -6 3 357.56 17.8
-1 -6 3 343.47 29.9
0 6 -3 1042.2 46.3
0 6 -3 1076.99 46.1
0 6 -3 1049.4 35.1
0 6 -3 1012.7 41.4
0 -6 3 1055.09 46.3
0 -6 3 1050.09 45.8
-1 6 -3 918.81 38.5
-1 6 -3 937.01 35.5
-1 6 -3 907.31 39.9
1 -6 3 930.21 38.6
1 -6 3 1045.5 38.3
-2 6 -3 142.29 9.5
-2 6 -3 149.09 15.6
-2 6 -3 147.99 10.1
-2 6 -3 169.28 18.5
2 -6 3 158.68 16.5
2 -6 3 153.18 11.3
2 -6 3 148.59 10.2
-3 6 -3 1038.2 46.7
3 -6 3 1014.5 55.69
3 -6 3 994.3 47
-4 6 -3 177.78 21.8
4 -6 3 219.28 32.5
4 -6 3 169.48 24.4
5 -6 3 176.98 40.2
5 -6 3 227.38 32.9
3 5 -3 488.25 43.3
3 5 -3 481.45 42.2
-3 -5 3 460.05 43.8
-3 -5 3 432.66 41.8
2 5 -3 265.47 29.3
2 5 -3 288.67 14.7
2 5 -3 244.38 27.4
-2 -5 3 270.07 18.2
-2 -5 3 265.87 33.2
-2 -5 3 229.68 27.3
1 5 -3 1715.73 60.09
1 5 -3 1896.81 70.29
1 5 -3 1751.22 69.29
-1 -5 3 1745.53 60.29
-1 -5 3 1801.42 69.99
-1 -5 3 1757.62 69.49
0 5 -3 238.68 18.1
0 5 -3 232.08 10.6
0 5 -3 233.28 18.5
0 5 -3 242.48 15.9
0 -5 3 230.78 18.2
0 -5 3 252.47 19.2
-1 5 -3 1259.47 43.5
-1 5 -3 1258.87 45.1
-1 5 -3 1246.58 47.2
1 -5 3 1203.08 45
1 -5 3 1227.88 45.2
-2 5 -3 1452.15 55.39
-2 5 -3 1483.35 45.9
-2 5 -3 1461.85 53.59
-2 5 -3 1438.66 46.1
2 -5 3 1481.05 47.4
2 -5 3 1455.75 61.89
2 -5 3 1471.65 48.4
-3 5 -3 4 9.8
3 -5 3 32.6 11.5
3 -5 3 -4 15.1
-4 5 -3 398.46 27.8
4 -5 3 409.56 30.2
4 -5 3 373.56 38.9
5 -5 3 66.69 27.4
5 -5 3 135.69 35.3
4 4 -3 -2.5 27.9
4 4 -3 51.69 25.2
-4 -4 3 49.99 27
-4 -4 3 52.19 17.9
-4 -4 3 72.29 24.7
3 4 -3 360.86 14.4
3 4 -3 330.97 33.3
3 4 -3 351.16 34.2
-3 -4 3 372.06 40.3
-3 -4 3 388.76 35.2
2 4 -3 1742.93 70.19
2 4 -3 1779.72 68.89
-2 -4 3 1674.53 60.99
-2 -4 3 1742.43 69.89
-2 -4 3 1663.03 69.19
1 4 -3 185.98 17.5
1 4 -3 168.28 11.5
1 4 -3 150.18 16.8
-1 -4 3 137.89 16.9
-1 -4 3 166.58 16.7
0 4 -3 1801.42 60.39
0 4 -3 1721.43 62.49
0 4 -3 1781.42 62.69
0 -4 3 1805.82 62.99
0 -4 3 1744.53 62.49
-1 4 -3 400.66 17.4
-1 4 -3 370.76 19.7
-1 4 -3 393.06 17.8
-1 4 -3 398.96 17.6
1 -4 3 370.56 17.5
1 -4 3 381.56 17.9
-2 4 -3 1489.35 47.5
-2 4 -3 1453.55 55.79
-2 4 -3 1565.74 47.6
2 -4 3 1600.34 49.3
2 -4 3 1514.85 48.7
2 -4 3 1535.15 62.49
-3 4 -3 1101.99 45.7
3 -4 3 1113.59 49.2
3 -4 3 1124.29 55.39
3 -4 3 1130.69 36
3 -4 3 1128.59 36.1
-4 4 -3 10.7 3.4
-4 4 -3 14.3 2.5
-4 4 -3 35.4 16.7
4 -4 3 14.3 7.1
4 -4 3 13.1 5.6
4 -4 3 14.8 13.8
4 -4 3 44.4 21.1
-5 4 -3 497.65 52.19
-5 4 -3 532.05 24.5
-5 4 -3 536.65 22.4
5 -4 3 597.24 30.1
5 -4 3 623.84 49.3
4 3 -3 536.55 45
4 3 -3 508.55 41.7
-4 -3 3 491.65 34.3
-4 -3 3 489.45 43.7
3 3 -3 51.59 14.6
3 3 -3 29.4 14.6
-3 -3 3 36.1 14.1
-3 -3 3 35.8 15.5
2 3 -3 552.14 30.8
2 3 -3 559.04 31.3
-2 -3 3 479.65 29.8
-2 -3 3 554.04 25.4
-2 -3 3 531.75 30.8
1 3 -3 1608.94 57.59
1 3 -3 1508.05 56.89
-1 -3 3 1517.35 56.99
-1 -3 3 1494.95 56.99
0 3 -3 55.39 7.9
0 3 -3 64.09 8.3
0 -3 3 60.69 8.1
0 -3 3 66.09 5.1
0 -3 3 75.39 9.3
-1 3 -3 2707.43 87.79
-1 3 -3 2680.53 85.89
1 -3 3 2682.53 85.39
1 -3 3 2684.63 85.89
-2 3 -3 111.09 7.4
-2 3 -3 115.69 10.4
-2 3 -3 112.39 8.1
2 -3 3 114.19 8.6
2 -3 3 122.19 14.8
2 -3 3 116.89 8.2
-3 3 -3 675.73 25.1
-3 3 -3 636.34 29.9
-3 3 -3 633.74 26.9
3 -3 3 666.73 34.1
3 -3 3 529.05 30.9
3 -3 3 606.84 39
3 -3 3 666.03 27
-4 3 -3 752.82 32.1
-4 3 -3 726.93 35.9
-4 3 -3 758.72 49.5
4 -3 3 767.82 33
4 -3 3 726.63 33
4 -3 3 759.62 49.7
-5 3 -3 -34.2 25.1
5 -3 3 -14 13.4
5 -3 3 -17.2 13.5
5 -3 3 23.9 22.9
5 2 -3 378.76 48.6
5 2 -3 332.27 44.4
-5 -2 3 369.06 49.2
-5 -2 3 414.36 51.79
-5 -2 3 433.36 42
-5 -2 3 285.97 40.9
4 2 -3 238.08 31.5
4 2 -3 230.28 28.6
-4 -2 3 269.37 29.5
-4 -2 3 203.98 27.7
3 2 -3 1894.81 74.99
3 2 -3 1985.5 75.09
-3 -2 3 1937.41 74.69
-3 -2 3 1875.81 74.29
-3 -2 3 1886.11 70.19
2 2 -3 31.6 9.1
2 2 -3 36.4 8.9
-2 -2 3 37.5 9.4
-2 -2 3 52.19 10.4
-2 -2 3 39.6 7.7
1 2 -3 5619.24 173.88
1 2 -3 5403.26 173.48
-1 -2 3 5594.54 174.08
-1 -2 3 5288.57 173.18
0 2 -3 3746.63 115.89
0 2 -3 3576.04 115.49
0 -2 3 3569.14 115.59
0 -2 3 3715.63 115.79
-1 2 -3 4.8 3.5
-1 2 -3 -0.1 4.5
-1 2 -3 0.9 3.9
1 -2 3 2.7 4.3
1 -2 3 -0.3 6.5
1 -2 3 2.8 3.7
-2 2 -3 3862.41 119.99
-2 2 -3 3786.22 120.99
-2 2 -3 3772.92 121.19
-2 2 -3 3792.12 128.89
2 -2 3 3704.13 128.59
2 -2 3 3894.11 120.99
2 -2 3 3793.52 120.29
-3 2 -3 281.17 17.8
-3 2 -3 303.97 25.2
-3 2 -3 308.17 18.3
-3 2 -3 293.07 18.7
3 -2 3 327.07 21.8
3 -2 3 335.67 28.6
3 -2 3 306.87 18.5
3 -2 3 301.77 18.6
-4 2 -3 118.79 25.2
-4 2 -3 121.39 15.3
-4 2 -3 126.39 15.4
4 -2 3 109.59 15
4 -2 3 123.09 15.7
-5 2 -3 280.67 32.1
-5 2 -3 221.18 24.8
-5 2 -3 304.47 39.9
5 -2 3 229.38 25.5
5 -2 3 233.78 30.2
5 -2 3 273.27 32.3
5 1 -3 702.43 50.69
5 1 -3 598.14 48
-5 -1 3 717.23 50.09
-5 -1 3 718.53 54.69
-5 -1 3 792.92 48.2
-5 -1 3 653.53 47.4
4 1 -3 744.53 42.9
4 1 -3 847.02 44.9
-4 -1 3 860.91 43.8
-4 -1 3 807.82 47.1
3 1 -3 17.2 10.2
-3 -1 3 29.7 10.8
-3 -1 3 27.8 10.1
2 1 -3 3062.79 100.69
2 1 -3 2919.61 100.19
-2 -1 3 3106.19 94.99
-2 -1 3 2938.71 98.89
-2 -1 3 2861.21 99.79
-2 -1 3 3005.2 100.59
1 1 -3 1340.67 47.5
-1 -1 3 1363.76 42.8
-1 -1 3 1313.97 47.3
-1 -1 3 1328.37 47.7
0 1 -3 1011.7 35.5
0 1 -3 1002 35.4
0 -1 3 988.6 35.4
0 -1 3 940.71 35.1
-1 1 -3 2430.16 81.79
-1 1 -3 2399.46 78.29
-1 1 -3 2436.36 78.99
1 -1 3 2387.86 78.49
1 -1 3 2439.46 78.79
1 -1 3 2348.17 81.29
-2 1 -3 19.5 6.2
-2 1 -3 2.6 4.5
-2 1 -3 14.2 5.9
-2 1 -3 3 6.6
2 -1 3 13 5.6
2 -1 3 10.1 9.1
2 -1 3 12.4 5.7
-3 1 -3 877.61 38.7
-3 1 -3 900.31 38.7
-3 1 -3 935.61 34.9
-3 1 -3 1077.09 47.3
3 -1 3 735.13 37.3
3 -1 3 941.81 41.6
3 -1 3 893.11 38.5
-4 1 -3 90.89 22.3
-4 1 -3 91.09 15.5
-4 1 -3 58.99 14.5
4 -1 3 71.89 15.5
4 -1 3 71.29 15.3
-5 1 -3 8.7 21.4
-5 1 -3 16.9 29.2
-5 1 -3 65.39 20.9
5 -1 3 8.6 23.1
5 -1 3 62.19 20.4
5 -1 3 53.39 20.9
5 0 -3 60.49 19.4
5 0 -3 72.59 22.3
-5 0 3 52.59 20.2
-5 0 3 83.29 25.2
-5 0 3 29.1 19.4
-5 0 3 42.9 18.5
4 0 -3 574.24 34.8
4 0 -3 442.96 47.5
-4 0 3 586.44 33
-4 0 3 622.44 39.1
-4 0 3 474.55 49.3
-4 0 3 584.44 34.9
3 0 -3 1039.5 44.8
3 0 -3 1151.78 44.5
-3 0 3 1153.78 45.5
-3 0 3 1077.59 41.8
-3 0 3 1014.8 46
-3 0 3 1084.49 45.1
-3 0 3 1125.59 45.3
2 0 -3 15.8 6.1
-2 0 3 16.5 6.3
-2 0 3 8.3 5.6
-2 0 3 7 5.2
-2 0 3 5.1 5.6
1 0 -3 2784.32 90.89
1 0 -3 2825.12 91.09
-1 0 3 2857.81 91.09
0 0 -3 355.06 18.3
0 0 -3 386.56 18.6
0 0 -3 374.26 15.3
0 0 3 374.96 15.6
0 0 3 354.16 18.2
0 0 3 360.76 18.3
-1 0 -3 115.09 11.9
-1 0 -3 125.99 11.3
-1 0 -3 122.99 11.2
1 0 3 122.99 11.1
1 0 3 114.69 10.8
-2 0 -3 4383.76 144.29
-2 0 -3 4494.85 148.39
-2 0 -3 4397.96 138.29
-2 0 -3 4564.34 145.29
2 0 3 4454.75 144.09
2 0 3 4478.15 144.89
2 0 3 4500.15 144.89
-3 0 -3 152.08 18.7
-3 0 -3 128.89 17.1
-3 0 -3 140.89 11.3
3 0 3 123.99 15.7
3 0 3 145.39 17
3 0 3 128.99 17.1
-4 0 -3 776.22 41.7
-4 0 -3 664.33 48.3
4 0 3 711.23 41.5
4 0 3 679.43 41.8
-5 0 -3 89.19 33
-5 0 -3 104.59 29.2
5 0 3 121.49 29.3
5 0 3 190.78 30.9
5 0 3 149.88 28.1
5 -1 -3 480.95 35.6
-5 1 3 476.05 44
-5 1 3 479.95 36.3
-5 1 3 527.05 40.2
-5 1 3 504.15 35.7
4 -1 -3 60.69 12.1
-4 1 3 58.29 13
-4 1 3 26.9 12.3
-4 1 3 57.19 11.8
-4 1 3 44.3 16.2
3 -1 -3 1583.04 57.59
3 -1 -3 1559.64 60.29
-3 1 3 1642.94 60.39
-3 1 3 1570.54 57.19
-3 1 3 1599.84 57.69
-3 1 3 1583.94 57.69
-3 1 3 1498.35 60.49
2 -1 -3 4576.94 143.89
2 -1 -3 4420.26 143.69
-2 1 3 4604.54 145.79
-2 1 3 4652.13 143.89
-2 1 3 4601.34 143.89
-2 1 3 4168.18 143.39
-2 1 3 4790.62 143.69
1 -1 -3 49.1 7.3
1 -1 -3 45.2 6.8
-1 1 3 41.6 6.7
-1 1 3 45.7 7.3
0 -1 -3 7559.04 235.28
0 -1 -3 7388.06 235.08
0 1 3 7868.41 235.68
0 1 3 7564.44 235.38
-1 -1 -3 14.8 6.8
-1 -1 -3 37 8
1 1 3 26.4 7.6
1 1 3 35.1 7.5
-2 -1 -3 429.76 24.8
-2 -1 -3 411.06 15.5
-2 -1 -3 423.76 25
-2 -1 -3 435.66 25.2
2 1 3 393.66 21.2
2 1 3 415.26 24.2
2 1 3 425.06 25.1
-3 -1 -3 1082.89 49.2
-3 -1 -3 1012.7 51.79
3 1 3 1114.69 49
3 1 3 1058.29 49.2
3 1 3 1014.4 45.6
-4 -1 -3 42.7 17.2
-4 -1 -3 38.2 18.8
4 1 3 31 17.7
4 1 3 53.39 17.7
4 1 3 22.5 18.6
5 -2 -3 -1.9 12.9
5 -2 -3 15.5 14.5
5 -2 -3 6.3 20.8
-5 2 3 10 21.7
-5 2 3 26.7 18.1
-5 2 3 15.2 14
4 -2 -3 1276.27 50.89
4 -2 -3 1339.77 50.79
-4 2 3 1349.07 51.19
-4 2 3 1313.67 53.09
-4 2 3 1109.19 59.99
-4 2 3 1370.76 50.99
-4 2 3 1211.88 56.49
3 -2 -3 36.9 7.6
3 -2 -3 45.1 9.5
3 -2 -3 44.9 7.4
-3 2 3 51.89 10.4
-3 2 3 45.4 8.1
-3 2 3 45.4 8
-3 2 3 56.39 10.6
2 -2 -3 865.31 32.9
2 -2 -3 880.31 32.6
2 -2 -3 893.91 34.1
-2 2 3 885.81 34.2
-2 2 3 878.11 33.9
-2 2 3 896.01 35.6
1 -2 -3 5628.94 182.28
1 -2 -3 5807.72 182.88
-1 2 3 5849.51 180.48
-1 2 3 5847.22 182.28
-1 2 3 5993.5 183.08
0 -2 -3 60.69 8.5
0 -2 -3 64.19 8.8
0 2 3 62.09 8.9
0 2 3 50.19 8.3
-1 -2 -3 3730.53 126.49
-1 -2 -3 3921.81 127.49
1 2 3 3719.63 126.69
1 2 3 3962.6 127.39
-2 -2 -3 1006.7 44.9
-2 -2 -3 975.3 44.5
2 2 3 949.21 38.3
2 2 3 956.9 44.4
-3 -2 -3 155.48 27.9
3 2 3 159.48 21.9
3 2 3 197.88 26.3
3 2 3 162.38 18.7
-4 -2 -3 308.97 38.8
-4 -2 -3 262.87 32.8
-4 -2 -3 315.77 38.8
4 2 3 228.78 28.9
4 2 3 248.78 32
4 2 3 252.17 33
5 -3 -3 589.04 41.1
5 -3 -3 608.14 32.7
5 -3 -3 554.84 33.5
-5 3 3 617.14 38.4
-5 3 3 624.54 33.7
-5 3 3 590.14 43.3
4 -3 -3 7.8 13
4 -3 -3 -1 8
-4 3 3 -6 8.9
-4 3 3 3 7.8
3 -3 -3 1789.72 61.99
3 -3 -3 1801.72 67.09
3 -3 -3 1826.32 64.59
3 -3 -3 1757.92 60.19
-3 3 3 1681.93 64.49
-3 3 3 1719.03 61.59
-3 3 3 1833.02 65.99
2 -3 -3 358.66 19
2 -3 -3 369.56 18.1
2 -3 -3 360.76 19.1
-2 3 3 372.46 19.6
-2 3 3 410.26 18.3
-2 3 3 364.66 18.3
-2 3 3 356.86 19.8
1 -3 -3 134.39 12.1
1 -3 -3 127.69 11.5
-1 3 3 136.89 9.3
-1 3 3 141.29 12.9
-1 3 3 138.59 12.2
0 -3 -3 1843.92 66.99
0 -3 -3 1814.12 67.09
0 3 3 1870.41 67.19
0 3 3 2010.1 67.99
-1 -3 -3 9.6 8.4
-1 -3 -3 13.3 9.4
-1 -3 -3 -2.4 3.8
1 3 3 7.1 3.6
1 3 3 5.4 8.6
1 3 3 5 8
-2 -3 -3 1131.09 51.89
-2 -3 -3 1020 50.49
2 3 3 1116.09 42.2
2 3 3 1123.19 51.39
2 3 3 1145.19 52.59
-3 -3 -3 514.95 40.8
-3 -3 -3 588.94 41.2
3 3 3 567.54 39.9
3 3 3 558.44 31.1
3 3 3 555.94 41.3
-4 -3 -3 66.69 30.5
-4 -3 -3 25.4 26.6
-4 -3 -3 115.09 30.6
4 3 3 8.4 23.2
4 3 3 44.9 21.3
4 3 3 23.4 29.9
5 -4 -3 74.69 11.2
5 -4 -3 69.19 24.2
5 -4 -3 93.49 14.4
-5 4 3 71.59 11.2
-5 4 3 105.59 13.8
4 -4 -3 764.42 28.8
4 -4 -3 678.73 31.5
4 -4 -3 751.92 41.5
-4 4 3 676.33 28.6
-4 4 3 716.53 36.8
-4 4 3 751.12 27.7
-4 4 3 684.23 46
3 -4 -3 212.28 14.6
3 -4 -3 200.08 12.1
3 -4 -3 182.18 18.9
3 -4 -3 197.88 18.4
-3 4 3 194.08 12
-3 4 3 202.48 12.5
-3 4 3 132.89 16.7
-3 4 3 173.78 17.1
2 -4 -3 1800.32 62.29
2 -4 -3 1781.42 63.29
2 -4 -3 1849.91 64.59
-2 4 3 1828.12 61.89
-2 4 3 1834.32 63.09
-2 4 3 1854.01 63.89
-2 4 3 1805.62 64.59
1 -4 -3 485.95 24.3
1 -4 -3 456.55 23.1
-1 4 3 469.85 23.6
-1 4 3 468.85 18.8
-1 4 3 440.76 23.8
0 -4 -3 145.09 15.8
0 -4 -3 143.09 14.4
0 -4 -3 151.08 16
0 4 3 144.59 16.1
0 4 3 133.09 16.1
-1 -4 -3 722.33 25.7
-1 -4 -3 795.42 37.8
-1 -4 -3 705.83 37.9
1 4 3 712.23 38.1
1 4 3 673.23 36.6
1 4 3 684.13 24.4
-2 -4 -3 71.39 18.6
-2 -4 -3 68.59 17.8
2 4 3 88.49 19.3
2 4 3 57.29 16.3
2 4 3 62.09 9.2
-3 -4 -3 349.67 41.5
-3 -4 -3 399.06 42.6
3 4 3 352.86 35.9
3 4 3 372.26 40.1
3 4 3 342.67 26.8
5 -5 -3 159.08 25
-5 5 3 133.19 21
4 -5 -3 10.8 14.3
4 -5 -3 7 3.9
4 -5 -3 7.5 14.4
4 -5 -3 6.4 3.9
-4 5 3 -5.5 12.4
-4 5 3 18.4 10.2
3 -5 -3 1777.22 65.59
3 -5 -3 1788.82 66.59
3 -5 -3 1663.03 56.89
3 -5 -3 1677.63 56.99
-3 5 3 1619.64 64.89
-3 5 3 1680.33 55.49
2 -5 -3 68.19 9.6
2 -5 -3 69.29 10.6
-2 5 3 64.19 9.2
-2 5 3 50.29 9.9
-2 5 3 61.59 9.2
-2 5 3 50.89 10
1 -5 -3 1757.92 65.09
1 -5 -3 1767.92 65.59
-1 5 3 1795.42 65.79
-1 5 3 1777.92 65.39
0 -5 -3 994.3 45.2
0 -5 -3 1012.8 46.1
0 5 3 969.7 44.9
0 5 3 1034.8 45.9
-1 -5 -3 313.87 27.6
-1 -5 -3 267.97 16.5
-1 -5 -3 279.77 28.3
1 5 3 188.88 26
-2 -5 -3 469.85 40.3
-2 -5 -3 514.75 41.3
2 5 3 489.15 40.3
2 5 3 462.75 41.4
-3 -5 -3 25.9 29.6
-3 -5 -3 77.89 28.8
3 5 3 -9.4 24.1
3 5 3 56.79 31
5 -6 -3 681.53 51.69
-5 6 3 592.24 40.4
4 -6 -3 119.49 20.9
4 -6 -3 144.59 21.4
-4 6 3 118.29 19.8
3 -6 -3 275.27 15.7
3 -6 -3 309.27 17
3 -6 -3 264.77 26.4
-3 6 3 286.27 14.3
-3 6 3 262.97 23.6
2 -6 -3 915.51 38.7
-2 6 3 941.61 41.1
-2 6 3 885.31 40.5
-2 6 3 967.4 38.7
1 -6 -3 144.39 17.2
1 -6 -3 136.89 16.6
-1 6 3 150.78 17.8
-1 6 3 117.49 15.5
0 -6 -3 923.41 55.99
0 -6 -3 1034.3 48.8
0 6 3 1031.8 48.2
0 6 3 957 49.5
-1 -6 -3 640.94 43.5
1 6 3 724.33 44
-2 -6 -3 44.3 22.8
-2 -6 -3 50.49 22.8
2 6 3 38.5 25.1
2 6 3 40.6 23
4 -7 -3 435.46 57.59
3 -7 -3 468.05 22.5
3 -7 -3 390.26 21.2
3 -7 -3 418.56 35.4
-3 7 3 408.86 19.3
-3 7 3 391.76 19.8
-3 7 3 418.36 29.5
2 -7 -3 204.78 22.2
2 -7 -3 186.88 20
-2 7 3 192.28 20
-2 7 3 168.08 22.6
1 -7 -3 326.27 27.3
1 -7 -3 266.67 28.8
-1 7 3 329.77 24
-1 7 3 322.67 27.4
0 -7 -3 49.6 19
0 -7 -3 77.69 19.7
0 7 3 75.49 19.9
-1 -7 -3 151.78 27.8
-1 -7 -3 193.58 31
1 7 3 208.98 29.5
1 7 3 186.78 29.2
4 -8 -3 -16.2 24
-4 8 3 -35.6 13
3 -8 -3 526.75 30.2
3 -8 -3 545.95 28.1
3 -8 -3 511.65 43.1
-3 8 3 565.74 26.3
-3 8 3 518.65 24.9
-3 8 3 526.35 35.5
2 -8 -3 443.36 30.7
2 -8 -3 364.26 33.6
-2 8 3 427.36 30.8
-2 8 3 459.75 34.3
1 -8 -3 24.6 18.3
1 -8 -3 48.6 19.2
-1 8 3 47.9 18.2
-1 8 3 44 14.5
-1 8 3 36.1 18.3
0 -8 -3 428.36 45.2
0 -8 -3 473.65 45.5
0 8 3 429.06 42
0 8 3 438.36 43.4
2 -9 -3 377.26 35
2 -9 -3 341.27 39.6
-2 9 3 367.76 39.8
-2 9 3 320.87 29.5
-2 9 3 350.86 37
0 9 -4 255.07 25.2
0 9 -4 337.27 41.7
0 -9 4 316.27 38.5
0 -9 4 176.58 45.3
-1 9 -4 13.2 16.9
-1 9 -4 80.19 16.4
1 -9 4 55.99 11.7
1 -9 4 44 18.3
1 -9 4 35.5 17.3
-2 9 -4 435.56 32.1
-2 9 -4 421.56 28.5
-2 9 -4 436.16 27.7
2 -9 4 460.25 29.3
2 -9 4 405.16 31.5
-3 9 -4 13.5 13.5
3 -9 4 77.19 34.2
3 -9 4 -10.6 17.5
1 8 -4 137.59 16.5
1 8 -4 155.68 29.2
1 8 -4 148.99 26.8
-1 -8 4 191.98 29.4
-1 -8 4 95.39 24.6
-1 -8 4 147.29 11.3
0 8 -4 312.77 31.9
0 8 -4 263.87 30.6
0 8 -4 265.87 24.6
0 -8 4 295.07 29.7
0 -8 4 257.47 31.5
-1 8 -4 714.83 38.1
-1 8 -4 762.42 38.4
1 -8 4 689.63 38.4
1 -8 4 742.23 38.9
-2 8 -4 14.3 9.2
-2 8 -4 9.4 9.3
-2 8 -4 -13.6 11.5
2 -8 4 12.4 11.7
2 -8 4 4.4 12.6
2 -8 4 -7.9 8.6
-3 8 -4 490.45 34.9
3 -8 4 533.05 51.69
3 -8 4 562.54 39
-4 8 -4 50.19 16.3
4 -8 4 17.4 24.4
4 -8 4 44.9 36.8
2 7 -4 86.39 25.5
2 7 -4 77.09 27
2 7 -4 60.79 10.6
-2 -7 4 50.79 10.9
-2 -7 4 58.59 25
-2 -7 4 69.29 23.7
1 7 -4 857.81 46.4
1 7 -4 781.22 34.7
-1 -7 4 784.72 47.6
-1 -7 4 793.42 46.5
-1 -7 4 767.32 32
0 7 -4 145.99 18.7
0 7 -4 124.79 18.7
0 7 -4 120.99 14.9
0 -7 4 125.69 18.1
0 -7 4 147.59 19.3
-1 7 -4 46.6 12.7
-1 7 -4 43.7 11.2
1 -7 4 36.1 10.4
1 -7 4 49.2 11.7
-2 7 -4 648.34 27.6
-2 7 -4 626.84 26.5
-2 7 -4 630.74 35.2
2 -7 4 654.63 28.7
2 -7 4 598.34 33.9
-3 7 -4 0.6 9
3 -7 4 -20.3 20.5
3 -7 4 -21.7 13.2
-4 7 -4 342.47 29.5
4 -7 4 290.77 36.8
4 -7 4 420.56 51.49
3 6 -4 238.78 35.1
3 6 -4 159.68 34.4
-3 -6 4 235.18 26.2
-3 -6 4 249.58 37.8
-3 -6 4 193.48 32.3
2 6 -4 742.33 46.5
2 6 -4 651.83 28.4
-2 -6 4 609.24 45.3
-2 -6 4 779.62 47.2
-2 -6 4 675.93 31.7
1 6 -4 32.7 8.8
-1 -6 4 37.4 14.8
0 6 -4 2871.31 98.79
0 6 -4 2743.53 98.19
0 6 -4 2796.02 94.29
0 -6 4 2842.62 98.79
0 -6 4 2666.73 97.79
-1 6 -4 777.92 33.9
-1 6 -4 751.52 35.1
-1 6 -4 768.02 33.6
1 -6 4 756.22 33.6
-2 6 -4 247.38 13.4
-2 6 -4 248.18 14.7
-2 6 -4 253.27 21.6
2 -6 4 276.27 33.3
2 -6 4 271.97 16
2 -6 4 233.08 13.9
-3 6 -4 813.32 40.5
3 -6 4 761.62 50.29
3 -6 4 791.62 41.5
-4 6 -4 18 13.5
4 -6 4 16.1 18.5
4 -6 4 30.1 26.4
3 5 -4 117.19 26.3
3 5 -4 163.38 26
3 5 -4 131.39 11.1
-3 -5 4 117.19 26.2
-3 -5 4 118.89 24.5
2 5 -4 405.06 32.7
2 5 -4 420.76 20.1
2 5 -4 417.56 33.7
-2 -5 4 418.16 23.6
-2 -5 4 385.96 33.4
1 5 -4 1100.89 41.8
1 5 -4 1118.49 49.7
1 5 -4 1184.88 50.39
-1 -5 4 1154.38 50.19
-1 -5 4 1050.19 49.1
0 5 -4 290.67 17.5
0 5 -4 280.57 19.9
0 5 -4 267.07 19.6
0 -5 4 303.87 20.2
-1 5 -4 1866.71 67.39
-1 5 -4 1916.01 65.19
-1 5 -4 1862.11 65.49
1 -5 4 1895.11 65.69
1 -5 4 1917.01 65.69
-2 5 -4 707.13 34.6
-2 5 -4 786.92 27.2
-2 5 -4 746.83 27.8
2 -5 4 765.72 27.9
2 -5 4 754.72 41.3
2 -5 4 762.52 29.5
-3 5 -4 253.27 22
3 -5 4 260.17 29.1
3 -5 4 301.37 32
-4 5 -4 842.22 42.2
4 -5 4 885.71 48.8
4 -5 4 862.81 56.79
5 -5 4 -2.2 30.1
5 -5 4 -5.5 25.7
4 4 -4 55.89 28.3
4 4 -4 69.59 26.6
-4 -4 4 88.39 27.5
-4 -4 4 65.69 27.4
-4 -4 4 72.49 19.4
3 4 -4 934.01 53.89
3 4 -4 1034 53.89
-3 -4 4 984.6 53.99
-3 -4 4 1118.29 44.1
2 4 -4 177.18 22.9
-2 -4 4 216.08 23
-2 -4 4 166.78 21.9
-2 -4 4 181.88 15.9
1 4 -4 637.94 31.9
1 4 -4 636.24 32
-1 -4 4 623.14 31.7
-1 -4 4 570.64 31.4
0 4 -4 3815.12 124.69
0 4 -4 3858.61 122.79
0 -4 4 3772.42 124.49
0 -4 4 3804.12 124.79
-1 4 -4 16.9 7
-1 4 -4 18 5.5
-1 4 -4 22.4 6
1 -4 4 21.5 6.1
1 -4 4 30.7 5.9
-2 4 -4 966.5 32.7
-2 4 -4 918.01 32.1
-2 4 -4 899.91 38.2
2 -4 4 854.81 44.1
2 -4 4 930.81 33.7
-3 4 -4 946.51 41.6
-3 4 -4 957.9 33.1
-3 4 -4 954 32.7
3 -4 4 1015.4 34.5
3 -4 4 926.61 51.69
3 -4 4 954.3 45.5
3 -4 4 998.6 35.2
-4 4 -4 0.1 11.5
-4 4 -4 6.3 6.8
-4 4 -4 1.2 5.6
4 -4 4 -4.3 17.8
4 -4 4 4.3 6.9
4 -4 4 -25.9 19.8
-5 4 -4 224.88 40.6
-5 4 -4 264.17 22.6
5 -4 4 262.17 22.6
5 -4 4 242.18 33.9
4 3 -4 857.71 52.59
4 3 -4 812.22 50.39
-4 -3 4 806.72 44.2
-4 -3 4 795.62 52.29
-4 -3 4 712.43 57.39
3 3 -4 -2.7 12.1
3 3 -4 14.2 12.7
-3 -3 4 -8.3 11.6
-3 -3 4 -6.4 13.2
2 3 -4 1418.66 57.19
2 3 -4 1318.17 56.19
-2 -3 4 1385.86 56.99
-2 -3 4 1365.46 56.49
-2 -3 4 1404.46 52.29
1 3 -4 435.06 24.5
1 3 -4 472.15 24.7
-1 -3 4 449.06 24.4
-1 -3 4 433.96 24.4
0 3 -4 969.6 37.4
0 3 -4 972 37.6
0 -3 4 982.5 37.5
0 -3 4 944.31 37.3
-1 3 -4 3004.8 98.39
-1 3 -4 3010.2 99.49
-1 3 -4 3088.59 100.59
1 -3 4 3103.59 99.69
1 -3 4 3190.18 99.09
-2 3 -4 1.9 4.3
-2 3 -4 0.9 4.3
2 -3 4 0.2 9.5
2 -3 4 -0.3 4.5
2 -3 4 -5.5 4.5
-3 3 -4 909.01 39.6
-3 3 -4 935.71 36.2
-3 3 -4 993.5 50.29
3 -3 4 963.9 44.7
3 -3 4 989.8 38.7
3 -3 4 955 50.49
3 -3 4 982.1 37.2
-4 3 -4 234.18 28.6
-4 3 -4 237.88 21.7
-4 3 -4 279.37 20.5
4 -3 4 242.78 21
4 -3 4 237.88 20.5
4 -3 4 210.28 31.1
-5 3 -4 19.5 28.1
-5 3 -4 -1.7 17.2
5 -3 4 21.6 15.3
5 -3 4 30.9 24.7
5 -3 4 16.1 15.9
5 2 -4 -24.6 23.3
5 2 -4 39.7 29.5
-5 -2 4 -6.5 21.3
-5 -2 4 21.1 28.1
-5 -2 4 27.3 26.1
-5 -2 4 56.09 30.5
4 2 -4 187.88 24.2
4 2 -4 170.48 25.4
-4 -2 4 206.78 24.8
-4 -2 4 171.08 23.3
3 2 -4 1341.87 57.19
3 2 -4 1351.86 57.99
-3 -2 4 1349.96 57.49
-3 -2 4 1283.97 57.09
2 2 -4 16.3 7.6
2 2 -4 6.3 7.8
-2 -2 4 3.6 7.9
-2 -2 4 11.6 7.7
-2 -2 4 -0.2 6.1
1 2 -4 614.84 29.1
-1 -2 4 664.93 29.6
-1 -2 4 684.33 22
-1 -2 4 654.43 29.3
0 2 -4 1961 66.59
0 2 -4 2014.3 67.19
0 -2 4 1959.9 66.89
-1 2 -4 1082.69 40.2
-1 2 -4 1045.7 39.6
1 -2 4 1101.29 40.2
1 -2 4 1025 40.1
1 -2 4 1144.89 43.5
-2 2 -4 3047.99 99.49
-2 2 -4 3037.3 101.09
-2 2 -4 3123.29 108.29
-2 2 -4 2995.3 99.59
2 -2 4 3023.5 107.99
2 -2 4 3092.79 100.09
2 -2 4 3111.69 100.99
-3 2 -4 215.88 17
-3 2 -4 201.58 25.1
-3 2 -4 200.88 17.7
-3 2 -4 211.38 15.4
3 -2 4 230.98 19
3 -2 4 234.68 26
3 -2 4 190.48 17
-4 2 -4 664.63 47.8
-4 2 -4 608.74 34.5
-4 2 -4 665.23 32.4
-4 2 -4 635.54 35.6
4 -2 4 658.73 36.3
4 -2 4 644.84 34.7
-5 2 -4 171.88 24.1
-5 2 -4 171.58 24.6
-5 2 -4 154.48 35.2
5 -2 4 239.38 26.3
5 -2 4 173.18 24.4
5 -2 4 223.88 33.8
5 1 -4 620.84 47.9
5 1 -4 540.15 45.4
-5 -1 4 495.95 42.3
-5 -1 4 511.55 45.4
-5 -1 4 495.85 45.6
-5 -1 4 485.05 50.79
4 1 -4 498.65 35.8
4 1 -4 498.55 35.2
-4 -1 4 564.64 32.4
-4 -1 4 517.45 34.2
-4 -1 4 461.75 36.6
3 1 -4 820.32 38.8
3 1 -4 806.42 39.6
-3 -1 4 818.72 33
-3 -1 4 829.62 39.5
-3 -1 4 792.42 39.1
2 1 -4 3383.06 112.79
-2 -1 4 3288.97 112.49
-2 -1 4 3337.77 111.69
-2 -1 4 3342.47 112.49
-2 -1 4 3489.15 106.79
1 1 -4 140.39 12.4
1 1 -4 126.49 12.5
-1 -1 4 151.68 12.8
-1 -1 4 148.49 12.7
0 1 -4 2800.52 91.89
0 1 -4 2792.42 91.79
0 -1 4 2755.02 91.69
0 -1 4 2841.62 91.99
-1 1 -4 1415.06 50.69
-1 1 -4 1458.25 52.49
-1 1 -4 1384.16 49.99
1 -1 4 1322.37 49.9
1 -1 4 1357.06 50.09
1 -1 4 1397.86 52.29
-2 1 -4 775.32 32.9
-2 1 -4 760.72 30
-2 1 -4 806.02 33.9
-2 1 -4 808.02 38.8
2 -1 4 769.22 38.8
2 -1 4 782.22 33.4
2 -1 4 817.72 33.9
-3 1 -4 2988.3 112.19
-3 1 -4 2964.1 98.49
-3 1 -4 3010.2 103.69
-3 1 -4 3157.18 104.89
3 -1 4 2981.7 103.79
3 -1 4 3096.89 104.09
3 -1 4 2932.81 105.39
-4 1 -4 356.46 38.7
-4 1 -4 344.87 28.9
4 -1 4 348.37 28.3
4 -1 4 326.87 29.7
-5 1 -4 156.78 27.4
-5 1 -4 170.58 28.8
-5 1 -4 186.48 37.5
5 -1 4 171.28 26.9
5 -1 4 213.38 28.6
5 -1 4 167.58 30.6
5 0 -4 97.29 20.8
-5 0 4 155.58 25.6
-5 0 4 114.39 23.1
-5 0 4 86.89 27.5
-5 0 4 77.39 20.9
4 0 -4 848.32 61.79
-4 0 4 1039.8 48.3
-4 0 4 1034.1 47.7
-4 0 4 978.9 48.9
-4 0 4 997.4 42.9
3 0 -4 1223.18 55.89
-3 0 4 1592.44 54.29
-3 0 4 1474.75 57.59
-3 0 4 1561.64 58.19
-3 0 4 1572.44 58.09
2 0 -4 915.11 38.2
2 0 -4 991.1 38.7
-2 0 4 960.2 38.5
-2 0 4 939.51 38.3
-2 0 4 971.3 38.6
-2 0 4 954.3 35.1
1 0 -4 6413.86 202.08
1 0 -4 6325.87 201.98
-1 0 4 6651.63 202.48
-1 0 4 6464.95 202.18
0 0 -4 381.56 20.8
0 0 -4 371.16 20.5
0 0 -4 390.66 16.9
0 0 4 368.36 16.8
0 0 4 411.66 20.7
0 0 4 377.46 20.6
-1 0 -4 1363.36 50.29
-1 0 -4 1301.77 49.4
-1 0 -4 1354.66 49.8
1 0 4 1315.57 50.59
1 0 4 1342.27 49.5
1 0 4 1371.26 49.99
-2 0 -4 2.8 4.6
-2 0 -4 10.1 7.6
-2 0 -4 15 9.5
-2 0 -4 13.7 8
2 0 4 11.3 7.1
2 0 4 6.6 7.4
-3 0 -4 21.4 6.5
-3 0 -4 11.6 13.3
-3 0 -4 22.6 10.9
-3 0 -4 22 11.4
3 0 4 0.9 10
3 0 4 32.9 11.6
3 0 4 16.1 10.8
-4 0 -4 323.47 38.4
-4 0 -4 349.96 31.4
-4 0 -4 368.36 34
4 0 4 370.36 32.9
4 0 4 349.57 33.4
5 -1 -4 598.34 40.7
5 -1 -4 620.84 39.9
-5 1 4 571.04 40.6
-5 1 4 585.14 38.1
-5 1 4 552.14 45.6
-5 1 4 693.93 45.3
4 -1 -4 -6.4 10
4 -1 -4 9.2 9.8
-4 1 4 22.5 10.2
-4 1 4 -6.6 9.4
3 -1 -4 649.64 30.7
3 -1 -4 671.43 31.6
-3 1 4 660.73 31.1
-3 1 4 686.13 30.4
-3 1 4 698.83 31.5
-3 1 4 645.44 32.2
2 -1 -4 1149.58 43.6
2 -1 -4 1195.58 44.3
-2 1 4 1197.08 44
-2 1 4 1174.68 45.3
-2 1 4 1151.98 41.5
-2 1 4 1151.18 43.9
-2 1 4 1191.08 42.6
1 -1 -4 0.7 5.7
1 -1 -4 7.1 6
-1 1 4 11.9 6.3
-1 1 4 2.6 5.9
0 -1 -4 2514.85 84.49
0 -1 -4 2489.25 84.39
0 -1 -4 2395.36 79.69
0 1 4 2511.05 84.49
0 1 4 2559.24 84.69
-1 -1 -4 602.94 27.6
-1 -1 -4 556.94 27.9
-1 -1 -4 558.04 28
1 1 4 594.64 28.1
1 1 4 601.24 28.1
-2 -1 -4 1903.01 72.69
-2 -1 -4 1869.51 71.39
-2 -1 -4 2020.3 72.89
-2 -1 -4 1882.61 61.19
2 1 4 1863.51 67.79
2 1 4 1920.31 72.29
2 1 4 1965 71.49
-3 -1 -4 438.76 31.3
-3 -1 -4 423.66 30.8
3 1 4 389.86 26.5
3 1 4 433.16 30
3 1 4 387.66 31.2
-4 -1 -4 20.6 19.9
-4 -1 -4 36.6 22.1
4 1 4 39.4 21.2
4 1 4 35.2 19.3
5 -2 -4 279.27 28.7
5 -2 -4 278.27 26.9
-5 2 4 233.88 26.4
-5 2 4 226.08 29
-5 2 4 301.07 26.9
4 -2 -4 1051.69 44.5
4 -2 -4 1061.89 43.9
-4 2 4 980.7 43.9
-4 2 4 1024.7 45.4
-4 2 4 1022.5 43.6
-4 2 4 1029.9 48.9
3 -2 -4 3.8 5.7
3 -2 -4 -2.1 6.3
-3 2 4 5.7 6.5
-3 2 4 0 6.8
-3 2 4 4.4 8.1
-3 2 4 5.3 7.4
2 -2 -4 3358.76 109.69
2 -2 -4 3421.66 111.09
-2 2 4 3239.58 110.59
-2 2 4 3362.26 111.09
-2 2 4 3382.36 109.79
-2 2 4 3453.75 109.69
1 -2 -4 853.91 36.4
1 -2 -4 881.61 36.8
-1 2 4 930.71 37.1
-1 2 4 940.01 37.3
0 -2 -4 66.19 9.9
0 -2 -4 56.09 9.3
0 2 4 56.09 9.3
0 2 4 51.59 9.3
-1 -2 -4 2428.76 86.99
-1 -2 -4 2470.35 87.49
1 2 4 2411.46 86.99
1 2 4 2505.35 87.09
-2 -2 -4 378.86 27.1
-2 -2 -4 348.17 12.4
-2 -2 -4 287.67 25.7
2 2 4 427.56 26.5
2 2 4 327.57 20.4
2 2 4 344.47 27.1
-3 -2 -4 404.36 36.1
-3 -2 -4 491.25 34.1
3 2 4 377.46 34.9
3 2 4 378.96 26.8
3 2 4 422.16 32.4
-4 -2 -4 398.56 43.3
-4 -2 -4 327.97 44
4 2 4 404.86 45.6
4 2 4 345.57 38.8
5 -3 -4 286.07 27.3
5 -3 -4 324.97 25.9
-5 3 4 306.27 34.7
-5 3 4 261.37 32.9
-5 3 4 288.47 26.8
-5 3 4 225.98 26.2
-5 3 4 297.17 24.9
4 -3 -4 309.17 20.6
4 -3 -4 310.57 22.9
-4 3 4 319.37 25.6
-4 3 4 376.66 26.9
-4 3 4 327.37 24.6
-4 3 4 332.77 21.1
-4 3 4 312.47 22.8
3 -3 -4 2501.25 84.99
3 -3 -4 2508.15 82.69
-3 3 4 2466.35 82.29
-3 3 4 2449.35 84.59
-3 3 4 2373.66 85.69
2 -3 -4 342.97 19
2 -3 -4 319.37 15.9
2 -3 -4 297.67 19.2
-2 3 4 322.17 18.4
-2 3 4 317.87 18.4
-2 3 4 324.67 19.1
-2 3 4 291.17 18.6
1 -3 -4 3045.7 101.89
1 -3 -4 3065.09 102.69
-1 3 4 3048.99 101.79
-1 3 4 3010.6 102.59
-1 3 4 3070.19 97.89
0 -3 -4 1743.43 64.89
0 -3 -4 1751.22 64.79
0 3 4 1717.23 64.59
0 3 4 1761.72 64.89
-1 -3 -4 56.69 12.8
-1 -3 -4 51.59 12.8
1 3 4 24.7 11.7
1 3 4 65.99 12.4
-2 -3 -4 1291.97 60.29
-2 -3 -4 1340.57 59.39
2 3 4 1317.17 58.19
2 3 4 1254.07 58.29
2 3 4 1244.48 48
-3 -3 -4 150.78 26.3
-3 -3 -4 89.19 24.8
3 3 4 175.88 26.2
3 3 4 199.08 21.8
3 3 4 186.78 25.3
-4 -3 -4 60.59 33.6
-4 -3 -4 108.59 35.1
-4 -3 -4 88.19 33.4
4 3 4 53.99 32.3
4 3 4 36.8 25.5
5 -4 -4 492.15 31.9
-5 4 4 414.46 38.6
-5 4 4 435.96 24.8
4 -4 -4 490.85 41.7
-4 4 4 489.55 25.6
-4 4 4 508.75 23.7
-4 4 4 473.45 33.2
-4 4 4 477.55 29
3 -4 -4 20.1 8.9
3 -4 -4 32.6 7.1
3 -4 -4 30.4 9
-3 4 4 33.2 8
-3 4 4 35 10.9
2 -4 -4 3393.16 111.39
2 -4 -4 3465.75 113.09
2 -4 -4 3378.16 113.99
-2 4 4 3389.16 112.39
-2 4 4 3540.05 114.69
-2 4 4 3406.46 112.49
-2 4 4 3433.56 113.59
1 -4 -4 588.74 29.6
1 -4 -4 631.64 30.1
-1 4 4 628.04 30.7
-1 4 4 589.94 29.6
-1 4 4 602.14 23.9
0 -4 -4 920.91 42.2
0 4 4 999.4 43.1
0 4 4 913.91 42.4
-1 -4 -4 491.15 32.6
-1 -4 -4 512.55 20.9
-1 -4 -4 461.15 32.2
1 4 4 489.35 19.3
1 4 4 493.65 33.1
-2 -4 -4 22.6 29.3
-2 -4 -4 11.3 17.1
2 4 4 7.1 7.4
2 4 4 39.4 18
2 4 4 13.9 17.9
-3 -4 -4 350.06 44.1
-3 -4 -4 410.26 42.3
-3 -4 -4 359.56 44
3 4 4 341.37 28.7
3 4 4 355.56 44.8
3 4 4 358.56 40.6
5 -5 -4 17.2 8.1
-5 5 4 17.8 16.4
4 -5 -4 377.76 20.4
4 -5 -4 412.16 28.8
-4 5 4 360.46 16.4
-4 5 4 357.76 28.2
-4 5 4 362.76 16.5
-4 5 4 334.17 30.7
3 -5 -4 3.6 9.7
-3 5 4 4.9 6.6
-3 5 4 -4.2 9.8
2 -5 -4 217.98 17.7
-2 5 4 194.88 18
-2 5 4 203.68 17.1
-2 5 4 204.08 19.1
-2 5 4 224.78 15.9
1 -5 -4 1597.14 61.59
1 -5 -4 1587.44 61.29
-1 5 4 1530.95 60.79
-1 5 4 1567.14 52.19
-1 5 4 1637.84 62.49
0 -5 -4 133.89 17.9
0 -5 -4 115.79 17
0 5 4 117.49 17
0 5 4 125.49 17.3
-1 -5 -4 510.25 35.5
-1 -5 -4 483.85 36
-1 -5 -4 456.85 23.1
1 5 4 491.05 34.4
1 5 4 544.25 37.2
-2 -5 -4 550.24 45.4
-2 -5 -4 556.44 46.3
2 5 4 534.95 43.5
2 5 4 629.74 47.7
-3 -5 -4 28.7 27.9
-3 -5 -4 -67.39 29.2
3 5 4 7.6 26.6
3 5 4 -33.8 30
-5 6 4 483.25 37.1
4 -6 -4 101.49 19.1
4 -6 -4 90.59 10.2
-4 6 4 80.39 18.9
3 -6 -4 539.35 33.6
-3 6 4 570.64 33.3
-3 6 4 584.74 25.9
-3 6 4 558.74 26.6
2 -6 -4 753.32 35.2
2 -6 -4 722.73 37.7
-2 6 4 730.33 35.3
-2 6 4 819.62 38.6
-2 6 4 706.03 36.1
1 -6 -4 47.7 13.6
1 -6 -4 44.7 12.9
-1 6 4 37 13.1
-1 6 4 29.1 12.7
0 -6 -4 1189.88 56.09
0 -6 -4 1104.39 53.99
0 6 4 1101.89 53.89
-1 -6 -4 466.25 38.5
-1 -6 -4 404.06 39.2
1 6 4 428.76 37.3
1 6 4 341.27 38.6
-2 -6 -4 36.2 26.9
-2 -6 -4 2.4 26.9
2 6 4 25.8 24.2
2 6 4 4.4 25.5
4 -7 -4 726.13 45.6
-4 7 4 685.13 42.4
3 -7 -4 118.49 15
3 -7 -4 112.69 20
-3 7 4 156.78 17.9
-3 7 4 166.68 21.6
-3 7 4 132.19 16
2 -7 -4 125.89 17.4
2 -7 -4 139.59 19.4
-2 7 4 140.39 19.5
-2 7 4 151.78 19.6
-2 7 4 173.98 22.1
1 -7 -4 672.73 39.3
1 -7 -4 696.63 41.5
-1 7 4 662.03 34.9
-1 7 4 668.13 40.6
0 -7 -4 -8 19.2
0 -7 -4 18.6 18.3
0 7 4 11.3 18
-1 -7 -4 540.35 51.59
-1 -7 -4 487.85 46.8
1 7 4 548.15 48
1 7 4 491.85 49
3 -8 -4 307.07 29.6
-3 8 4 318.37 30.6
-3 8 4 321.67 26.3
-3 8 4 324.67 24.5
2 -8 -4 26.4 16.2
2 -8 -4 15.3 17.9
-2 8 4 65.99 19.2
-2 8 4 63.19 16.3
-2 8 4 34.6 16.5
1 -8 -4 96.19 23.4
1 -8 -4 106.19 23.5
-1 8 4 142.49 24.8
-1 8 4 152.28 19.6
-1 8 4 101.79 22.5
0 -8 -4 129.89 29.9
0 -8 -4 141.99 30.3
0 8 4 139.59 30
0 8 4 200.58 30.5
0 9 -5 203.08 22.7
0 -9 5 122.59 25.1
0 -9 5 150.78 29.8
-1 9 -5 243.58 24.8
-1 9 -5 281.17 33.9
-1 9 -5 168.38 22.7
1 -9 5 244.08 23.4
1 -9 5 200.98 24.9
1 -9 5 207.78 24.2
-2 9 -5 507.95 30.6
-2 9 -5 414.76 28.7
-2 9 -5 407.56 32.7
2 -9 5 439.26 33.8
2 -9 5 414.86 30.1
-3 9 -5 -4.4 14.8
3 -9 5 43.7 22.9
3 -9 5 5.3 35.2
1 8 -5 19.6 12.7
1 8 -5 48.2 24.1
1 8 -5 -4.4 21.5
-1 -8 5 52.69 23.5
-1 -8 5 48.9 10.2
-1 -8 5 17.3 19.9
0 8 -5 553.64 38.3
0 8 -5 581.54 38.1
0 -8 5 600.04 41.6
0 -8 5 563.24 39.6
-1 8 -5 414.66 29.8
-1 8 -5 360.46 28.8
1 -8 5 385.86 29.2
1 -8 5 427.86 30.7
-2 8 -5 190.88 20.4
-2 8 -5 223.18 19.1
-2 8 -5 214.28 24.3
2 -8 5 224.38 19.9
2 -8 5 191.78 22.1
-3 8 -5 522.05 36.3
3 -8 5 619.14 55.59
3 -8 5 580.34 40.3
-4 8 -5 17.6 16.5
2 7 -5 308.57 21.7
2 7 -5 284.67 36
2 7 -5 253.27 35.1
-2 -7 5 280.57 36
-2 -7 5 311.77 23.6
-2 -7 5 273.27 34.6
1 7 -5 847.42 37.5
1 7 -5 897.41 49.4
-1 -7 5 857.61 50.09
-1 -7 5 806.72 47.6
0 7 -5 -0.3 9
0 7 -5 11.7 12
0 -7 5 -12.9 11.2
0 -7 5 2.7 11.9
-1 7 -5 1629.44 64.39
-1 7 -5 1687.73 63.19
1 -7 5 1604.74 62.79
1 -7 5 1633.54 63.29
-2 7 -5 844.12 34.8
-2 7 -5 809.32 32.7
-2 7 -5 742.53 40.6
2 -7 5 840.82 43.6
-3 7 -5 86.19 16.6
3 -7 5 62.79 17.7
3 -7 5 47.8 21.3
-4 7 -5 281.17 29
4 -7 5 258.27 40.8
4 -7 5 290.47 36.4
3 6 -5 434.86 52.89
3 6 -5 377.96 20.2
3 6 -5 339.97 44.9
-3 -6 5 416.76 46.7
-3 -6 5 414.86 30.9
-3 -6 5 345.27 42.3
2 6 -5 535.85 43.5
2 6 -5 579.04 27
-2 -6 5 619.74 43.7
-2 -6 5 620.64 43.1
-2 -6 5 552.44 30.1
1 6 -5 92.59 12.2
-1 -6 5 92.79 17.9
-1 -6 5 104.39 18
0 6 -5 281.27 20
0 6 -5 242.98 21.7
0 -6 5 263.97 23.4
0 -6 5 238.18 21.2
-1 6 -5 84.59 12.6
-1 6 -5 80.69 15.5
-1 6 -5 82.89 13.5
1 -6 5 73.39 12.1
-2 6 -5 244.48 25.5
-2 6 -5 287.67 16.3
-2 6 -5 302.47 18.3
2 -6 5 310.97 19.9
2 -6 5 316.67 17.1
2 -6 5 345.67 32
-3 6 -5 418.36 28.8
3 -6 5 443.46 36.7
3 -6 5 400.46 32
4 -6 5 38.1 28.2
4 -6 5 20.3 18.5
3 5 -5 22.9 8.4
3 5 -5 32.5 23.7
3 5 -5 34.6 21
-3 -5 5 21.9 23.2
-3 -5 5 57.69 22.3
-3 -5 5 60.99 13.2
2 5 -5 575.24 38.5
2 5 -5 664.03 41.3
-2 -5 5 631.04 46.5
-2 -5 5 609.44 31.2
1 5 -5 817.92 40.7
1 5 -5 799.52 40.8
1 5 -5 833.92 33.8
-1 -5 5 795.62 40.4
-1 -5 5 797.02 40.4
0 5 -5 560.34 28.6
0 5 -5 547.65 26.4
0 -5 5 507.45 28.1
-1 5 -5 2152.28 74.19
-1 5 -5 2182.08 74.89
-1 5 -5 2121.39 76.29
1 -5 5 2144.39 74.39
1 -5 5 2198.18 75.09
-2 5 -5 1 5.1
-2 5 -5 9.3 6.1
-2 5 -5 -7 8.3
2 -5 5 6.6 5
2 -5 5 3.9 11.6
3 -5 5 720.43 39.8
3 -5 5 695.73 26.3
3 -5 5 725.93 47.2
-4 5 -5 666.93 37.1
4 -5 5 652.83 45
4 -5 5 692.73 54.59
4 -5 5 656.03 23.4
-5 5 -5 21.3 15.9
5 -5 5 6.8 35.9
4 4 -5 295.97 37.9
4 4 -5 303.37 36.7
-4 -4 5 271.97 36.5
-4 -4 5 453.45 45.8
-4 -4 5 377.96 36.5
3 4 -5 1126.29 58.99
3 4 -5 1211.18 58.89
-3 -4 5 973 76.09
-3 -4 5 1163.88 49.5
-3 -4 5 1090.19 57.19
2 4 -5 56.59 14.7
-2 -4 5 67.39 14.6
-2 -4 5 60.59 14.2
-2 -4 5 62.59 11.2
1 4 -5 1972.6 75.99
1 4 -5 1987.7 76.09
-1 -4 5 2263.57 77.19
-1 -4 5 2059.99 76.39
0 4 -5 2169.88 75.39
0 4 -5 2130.79 75.39
0 -4 5 2096.69 75.09
0 -4 5 2150.68 75.29
-1 4 -5 27 7.3
-1 4 -5 24.1 7.2
-1 4 -5 28.6 6.7
1 -4 5 15.3 6.4
1 -4 5 24.7 6.6
-2 4 -5 2724.53 94.79
-2 4 -5 2762.22 90.69
2 -4 5 2690.13 91.39
2 -4 5 2856.41 90.89
2 -4 5 2847.11 103.09
-3 4 -5 46.4 8.1
-3 4 -5 42.7 7.4
-3 4 -5 53.89 12.3
3 -4 5 46.9 8.2
3 -4 5 63.49 16
3 -4 5 22.6 16.1
3 -4 5 52.09 8.8
-4 4 -5 278.67 18.1
-4 4 -5 292.37 21
-4 4 -5 271.27 24.3
4 -4 5 304.07 20.7
4 -4 5 281.27 21.7
4 -4 5 251.67 35.1
-5 4 -5 195.28 40.4
-5 4 -5 198.58 21.5
-5 4 -5 136.39 17.9
5 -4 5 207.08 25.3
5 -4 5 172.58 20.6
5 -4 5 126.69 27.6
4 3 -5 354.26 39.8
4 3 -5 341.97 36.2
-4 -3 5 315.77 36
-4 -3 5 306.77 39.2
-4 -3 5 311.97 30.5
3 3 -5 194.58 32.7
3 3 -5 242.98 28.9
-3 -3 5 282.87 27.7
-3 -3 5 275.07 27.2
-3 -3 5 275.97 23.5
2 3 -5 2232.38 87.29
2 3 -5 2556.74 87.79
-2 -3 5 2457.45 88.39
-2 -3 5 2387.96 83.89
-2 -3 5 2302.67 87.19
1 3 -5 484.75 26.1
-1 -3 5 456.05 26
-1 -3 5 456.95 25.8
-1 -3 5 494.55 15.3
0 3 -5 1100.09 43.2
0 3 -5 1121.99 42.9
0 -3 5 1116.29 43
0 -3 5 1110.69 43.2
-1 3 -5 2750.22 92.89
-1 3 -5 2751.02 91.59
1 -3 5 2707.93 92.59
1 -3 5 2878.11 97.29
1 -3 5 2826.92 92.19
-2 3 -5 42.8 7.5
-2 3 -5 22.2 7.9
-2 3 -5 23.9 7.4
2 -3 5 37.4 7.7
2 -3 5 36.6 8.1
2 -3 5 36.4 12.8
-3 3 -5 1079.79 53.89
-3 3 -5 1069.89 44.7
-3 3 -5 1044.3 42
-3 3 -5 1076.29 44.6
3 -3 5 1060.89 55.79
3 -3 5 1289.27 44.4
3 -3 5 954.2 59.29
3 -3 5 1111.99 43.3
-4 3 -5 75.09 24.4
-4 3 -5 85.89 15.9
-4 3 -5 92.29 15.3
4 -3 5 93.59 14.8
4 -3 5 95.49 26.6
4 -3 5 104.49 15.5
-5 3 -5 77.49 19.7
-5 3 -5 135.49 36.3
-5 3 -5 24.7 18.9
5 -3 5 93.39 19.3
5 -3 5 48.5 29.9
5 -3 5 47.8 19.8
5 2 -5 34.2 25.4
-5 -2 5 18.9 29.9
-5 -2 5 -4.2 25.6
-5 -2 5 64.89 33.8
-5 -2 5 78.59 24.7
4 2 -5 919.91 50.79
4 2 -5 906.71 52.29
-4 -2 5 945.91 52.49
-4 -2 5 947.21 48.4
3 2 -5 1076.59 49.4
3 2 -5 1084.59 50.39
-3 -2 5 1044.8 46.2
-3 -2 5 1065.29 49.6
-3 -2 5 1009.3 50.29
2 2 -5 197.28 19
-2 -2 5 257.67 19.8
-2 -2 5 242.88 19.7
-2 -2 5 256.97 18.3
1 2 -5 2441.76 86.89
1 2 -5 2592.04 87.29
-1 -2 5 2556.04 87.29
-1 -2 5 2537.05 87.09
0 2 -5 439.46 22.1
0 2 -5 444.46 22.6
0 -2 5 472.45 22.6
0 -2 5 439.96 22.4
-1 2 -5 862.21 36.2
-1 2 -5 892.61 36.4
1 -2 5 835.82 36.3
1 -2 5 924.01 39.2
1 -2 5 927.61 36.9
-2 2 -5 1249.97 47.3
-2 2 -5 1292.67 50.29
-2 2 -5 1306.47 48.6
-2 2 -5 1301.27 55.19
2 -2 5 1284.47 48.9
2 -2 5 1298.27 49.9
2 -2 5 1309.67 55.19
-3 2 -5 63.39 10.7
-3 2 -5 43.6 11.6
-3 2 -5 39.7 16.3
-3 2 -5 52.79 10.5
3 -2 5 37.7 17.4
3 -2 5 50.69 12.2
3 -2 5 42.6 10.6
-4 2 -5 725.63 39.6
-4 2 -5 649.74 33.4
-4 2 -5 694.13 39
-4 2 -5 745.03 46.8
4 -2 5 641.44 42.8
4 -2 5 682.03 39.1
4 -2 5 716.43 38.2
-5 2 -5 48.5 22.4
-5 2 -5 17.2 32.3
-5 2 -5 52.69 22.8
5 -2 5 89.89 22.7
5 -2 5 35.3 22
5 -2 5 23.1 28.3
5 1 -5 70.89 23
-5 -1 5 40.2 25.3
-5 -1 5 52.79 25.5
-5 -1 5 36.9 21.6
-5 -1 5 39.1 22.8
4 1 -5 27.3 13.9
-4 -1 5 20.1 14.4
-4 -1 5 48.6 14.9
3 1 -5 903.31 42.8
-3 -1 5 990.1 41.4
-3 -1 5 920.11 36.5
-3 -1 5 893.71 42.5
-3 -1 5 877.21 43
2 1 -5 2289.77 81.89
2 1 -5 2291.17 81.79
-2 -1 5 2318.07 82.19
-2 -1 5 2272.27 81.79
-2 -1 5 2395.76 81.69
-2 -1 5 2308.67 75.29
1 1 -5 135.79 11.8
1 1 -5 120.79 11.7
-1 -1 5 127.79 12.9
0 1 -5 7517.25 236.98
0 1 -5 7729.13 237.08
0 -1 5 7437.36 236.68
0 -1 5 7495.75 233.78
0 -1 5 7578.24 236.88
-1 1 -5 282.77 18.6
-1 1 -5 270.57 18.6
-1 1 -5 277.97 18.8
1 -1 5 305.47 19.9
1 -1 5 279.07 18.4
1 -1 5 257.27 18.1
-2 1 -5 574.04 25.1
-2 1 -5 579.64 29.3
-2 1 -5 595.94 29
-2 1 -5 552.04 32.4
2 -1 5 593.54 28.9
2 -1 5 522.75 30.9
2 -1 5 576.24 28.8
-3 1 -5 1436.96 57.39
-3 1 -5 1356.86 49.99
-3 1 -5 1387.26 64.09
-3 1 -5 1373.86 55.59
3 -1 5 1346.07 56.49
3 -1 5 1351.86 55.99
3 -1 5 1382.46 58.09
-4 1 -5 78.59 18.6
-4 1 -5 143.59 27.1
-4 1 -5 118.19 14.1
4 -1 5 133.19 21.6
4 -1 5 96.19 18.8
4 -1 5 101.19 18.9
5 0 -5 58.69 19.5
5 0 -5 41.7 21.3
-5 0 5 53.79 24.6
-5 0 5 76.89 22
-5 0 5 58.99 21.7
-5 0 5 45.5 18.7
4 0 -5 1601.24 67.19
4 0 -5 1564.54 66.29
-4 0 5 1545.95 61.09
-4 0 5 1590.74 65.69
-4 0 5 1703.13 65.59
-4 0 5 1580.54 67.89
-4 0 5 1675.33 68.69
3 0 -5 27.7 10.2
-3 0 5 31.6 8.7
-3 0 5 9.7 9.4
-3 0 5 11.3 8.5
2 0 -5 883.21 38.9
2 0 -5 923.81 38.8
-2 0 5 938.21 39.1
-2 0 5 956 39.6
-2 0 5 985.6 39.5
-2 0 5 955.2 35.2
1 0 -5 5879.91 182.78
1 0 -5 5602.54 182.18
-1 0 5 5950.6 182.88
-1 0 5 5506.25 181.88
0 0 -5 412.16 18.6
0 0 -5 405.46 22.4
0 0 -5 420.76 23.3
0 0 5 423.66 19.1
0 0 5 430.56 23.2
0 0 5 370.86 22.6
-1 0 -5 2790.82 96.39
-1 0 -5 2886.01 96.99
-1 0 -5 2819.62 96.19
1 0 5 2827.72 96.69
1 0 5 2693.13 96.39
1 0 5 2978.7 97.49
-2 0 -5 756.72 29.4
-2 0 -5 776.02 36.7
-2 0 -5 781.92 36.1
-2 0 -5 722.13 38
2 0 5 737.03 36.4
2 0 5 778.72 35.8
-3 0 -5 717.43 38.8
-3 0 -5 793.72 40.7
-3 0 -5 752.72 44.6
-3 0 -5 716.03 29.6
3 0 5 762.32 38.7
3 0 5 725.13 39.1
3 0 5 754.02 40
-4 0 -5 608.74 47.8
-4 0 -5 551.74 43.3
-4 0 -5 640.44 44.1
4 0 5 588.54 41
4 0 5 598.64 43.7
5 -1 -5 680.13 43.9
5 -1 -5 668.83 42
-5 1 5 652.43 38.3
-5 1 5 670.33 44.1
-5 1 5 628.34 44.9
-5 1 5 648.14 40.5
-5 1 5 557.74 54.99
4 -1 -5 31.8 12.5
4 -1 -5 1.5 11
-4 1 5 37 12.8
-4 1 5 21.2 11.2
-4 1 5 32.4 11.2
-4 1 5 13.7 13
-4 1 5 26.5 10.2
3 -1 -5 1852.21 72.49
3 -1 -5 2075.29 73.79
-3 1 5 2087.39 71.69
-3 1 5 2132.89 73.69
-3 1 5 2026.6 75.59
-3 1 5 2036.3 73.49
-3 1 5 1990.2 71.99
2 -1 -5 -2.3 5.3
2 -1 -5 -0.3 6.6
-2 1 5 4.7 6.6
-2 1 5 2.7 6.4
-2 1 5 7.1 6.3
-2 1 5 9.3 4.3
1 -1 -5 1885.81 67.39
1 -1 -5 1884.01 67.79
-1 1 5 1890.41 67.39
-1 1 5 1837.02 67.59
0 -1 -5 2288.37 74.59
0 -1 -5 2299.97 80.39
0 -1 -5 2332.27 80.49
0 1 5 2251.47 80.09
0 1 5 2220.08 80.09
-1 -1 -5 31.2 9.8
-1 -1 -5 38.5 10.1
-1 -1 -5 74.69 10.8
1 1 5 58.29 11.1
1 1 5 36.4 9.1
-2 -1 -5 886.21 41.1
-2 -1 -5 660.33 38
-2 -1 -5 768.72 39.3
-2 -1 -5 826.52 29.9
2 1 5 914.71 39.6
2 1 5 846.82 40.7
-3 -1 -5 339.57 32.3
-3 -1 -5 328.37 15.6
-3 -1 -5 336.07 29.4
3 1 5 306.27 25.4
3 1 5 344.57 30.8
3 1 5 285.87 28.9
-4 -1 -5 58.59 23.8
-4 -1 -5 144.39 29.4
-4 -1 -5 119.79 25.1
4 1 5 67.29 21.8
4 1 5 109.29 25.9
4 1 5 62.49 20.6
5 -2 -5 118.79 19.4
5 -2 -5 90.19 18.7
-5 2 5 112.49 20.1
-5 2 5 101.19 19.9
-5 2 5 119.19 20.5
-5 2 5 134.39 24.7
-5 2 5 114.59 18.6
4 -2 -5 957.2 42.4
4 -2 -5 965.4 43.8
-4 2 5 998.3 42.9
-4 2 5 993.3 48.3
-4 2 5 885.41 47.9
-4 2 5 962.9 43.3
-4 2 5 931.01 44.6
3 -2 -5 43.3 10
-3 2 5 44.6 9.3
-3 2 5 49.8 8.6
-3 2 5 41.3 10
-3 2 5 51.59 10.7
2 -2 -5 1748.33 64.39
2 -2 -5 1773.72 63.19
-2 2 5 1715.33 61.59
-2 2 5 1758.82 63.39
-2 2 5 1718.93 64.19
-2 2 5 1768.92 63.19
1 -2 -5 407.06 23.3
1 -2 -5 368.56 22.8
-1 2 5 391.16 23.1
-1 2 5 387.56 23
0 -2 -5 1671.63 62.19
0 -2 -5 1570.94 61.29
0 2 5 1644.24 61.79
0 2 5 1686.73 62.49
-1 -2 -5 1824.82 70.29
-1 -2 -5 1894.31 70.69
-1 -2 -5 1872.31 68.09
1 2 5 1827.02 70.09
1 2 5 1796.62 70.39
-2 -2 -5 -1 4.1
-2 -2 -5 1.7 11
-2 -2 -5 13.3 11.6
2 2 5 -16 9.8
2 2 5 2.9 7.4
2 2 5 8.9 12.3
-3 -2 -5 1023.1 52.79
-3 -2 -5 940.71 53.19
3 2 5 857.11 50.89
3 2 5 931.61 44.2
3 2 5 926.01 52.39
-4 -2 -5 172.18 32
-4 -2 -5 154.28 29.9
-4 -2 -5 170.38 34.5
4 2 5 178.78 33.6
4 2 5 124.79 24.9
4 2 5 134.29 28.5
5 -3 -5 -1.5 14.4
5 -3 -5 -1.4 12.1
-5 3 5 -15 13.4
-5 3 5 -1.8 12.7
-5 3 5 -0.7 16.9
-5 3 5 -3.1 17.7
4 -3 -5 486.05 27.3
4 -3 -5 461.45 29.3
-4 3 5 492.55 30.3
-4 3 5 481.25 29.8
-4 3 5 508.45 27
-4 3 5 462.75 32.7
3 -3 -5 1574.14 62.99
3 -3 -5 1813.22 60.99
-3 3 5 1712.43 61.09
-3 3 5 1631.24 63.29
-3 3 5 1687.63 64.59
-3 3 5 1692.13 63.79
2 -3 -5 41.8 5.3
2 -3 -5 23.9 9
2 -3 -5 53.79 10
-2 3 5 41.2 9.8
-2 3 5 47.3 8.9
-2 3 5 41.2 9.2
-2 3 5 51.89 10.4
1 -3 -5 2501.05 88.19
1 -3 -5 2477.05 88.89
-1 3 5 2549.15 89.19
-1 3 5 2531.15 88.19
0 -3 -5 1197.08 50.29
0 -3 -5 1153.18 49.99
0 3 5 1253.77 50.79
0 3 5 1233.68 50.49
-1 -3 -5 195.18 22.5
1 3 5 177.08 22
-2 -3 -5 359.06 33.2
-2 -3 -5 375.36 33.2
-2 -3 -5 450.45 30.6
2 3 5 421.36 23.5
2 3 5 437.16 34.2
2 3 5 414.46 32.7
-3 -3 -5 60.99 21.2
-3 -3 -5 40.9 22.4
-3 -3 -5 31.1 20.7
3 3 5 40.9 23.4
3 3 5 30.2 19.8
3 3 5 44.8 14.9
5 -4 -5 764.12 37
-5 4 5 711.33 35.2
-5 4 5 792.32 45.8
-5 4 5 742.83 39.5
-5 4 5 715.63 44.1
4 -4 -5 365.36 26.8
4 -4 -5 368.86 22.4
-4 4 5 322.77 24.9
-4 4 5 306.27 25.9
-4 4 5 354.76 30.1
3 -4 -5 243.68 20.7
3 -4 -5 231.68 16.3
-3 4 5 216.78 19.6
-3 4 5 237.38 20
2 -4 -5 855.81 38
2 -4 -5 821.52 32.4
2 -4 -5 942.41 38.2
-2 4 5 823.12 37.5
-2 4 5 793.02 37.7
-2 4 5 808.32 35
-2 4 5 845.22 37.5
1 -4 -5 78.29 13.2
-1 4 5 80.29 13.1
-1 4 5 92.79 9.7
-1 4 5 112.19 14.8
0 -4 -5 1113.99 49.8
0 -4 -5 1135.79 49.99
0 4 5 1036.5 49
0 4 5 1153.88 50.09
-1 -4 -5 626.54 26.9
-1 -4 -5 615.44 38.2
-1 -4 -5 633.24 38.7
1 4 5 608.84 37.3
1 4 5 623.04 24.7
-2 -4 -5 76.29 21.3
-2 -4 -5 55.79 20.8
2 4 5 45.5 19.8
2 4 5 107.69 21.2
2 4 5 45 9.9
-3 -4 -5 261.07 36.8
-3 -4 -5 207.98 34.9
-3 -4 -5 240.38 36
3 4 5 233.68 27.1
3 4 5 223.28 37.2
3 4 5 290.97 35.2
5 -5 -5 -4.6 12
-5 5 5 5.9 6.9
-5 5 5 -10.1 7.2
-5 5 5 -8.2 13.6
-5 5 5 22.5 20.9
4 -5 -5 803.92 34.4
4 -5 -5 761.22 37.2
-4 5 5 802.62 43.6
-4 5 5 835.62 33.2
-4 5 5 797.12 33.6
-4 5 5 810.32 43
3 -5 -5 726.83 34.4
3 -5 -5 666.73 32.9
3 -5 -5 698.93 32.9
-3 5 5 679.83 32.7
-3 5 5 724.03 33
-3 5 5 860.31 35.4
-3 5 5 691.63 36.8
2 -5 -5 845.12 40.1
2 -5 -5 834.92 38.1
-2 5 5 804.32 37.6
-2 5 5 814.72 39.4
-2 5 5 819.32 34.5
-2 5 5 762.02 36.6
1 -5 -5 1392.06 56.59
1 -5 -5 1291.07 54.99
-1 5 5 1337.07 45.4
-1 5 5 1238.98 54.49
-1 5 5 1337.27 56.39
0 -5 -5 39 13.9
0 -5 -5 45.6 15
0 5 5 56.59 14.1
-1 -5 -5 1061.39 55.09
1 5 5 1016.9 53.89
1 5 5 1054.49 55.19
-2 -5 -5 275.47 33.7
-2 -5 -5 132.79 30.1
2 5 5 187.98 32.6
2 5 5 235.08 30.4
4 -6 -5 -0.6 13.6
4 -6 -5 11.7 9.3
4 -6 -5 18 8.6
-4 6 5 26.5 16.2
-4 6 5 27 6.9
-4 6 5 30.7 8
-4 6 5 13.3 14.5
3 -6 -5 710.23 35.8
3 -6 -5 745.63 35.1
3 -6 -5 730.93 37.2
-3 6 5 750.52 34
-3 6 5 680.13 38.7
2 -6 -5 238.98 22.9
2 -6 -5 206.08 24.2
-2 6 5 269.07 22.2
-2 6 5 234.28 25.5
-2 6 5 264.87 17.8
-2 6 5 264.27 23.7
1 -6 -5 146.49 19.6
1 -6 -5 128.29 19.6
-1 6 5 164.38 21.1
-1 6 5 193.28 24.1
-1 -6 -5 43.7 20.5
-1 -6 -5 15.7 21.4
1 6 5 64.89 22.8
1 6 5 42.6 22.3
-2 -6 -5 449.16 50.89
-2 -6 -5 296.37 41.7
2 6 5 270.97 41
2 6 5 345.07 40.4
4 -7 -5 456.75 23.9
4 -7 -5 524.95 25
-4 7 5 495.15 36.8
3 -7 -5 22.5 15.9
3 -7 -5 12.5 13.5
3 -7 -5 16.8 12.2
-3 7 5 2.8 11.2
-3 7 5 38.1 16.2
2 -7 -5 890.11 45.2
2 -7 -5 848.22 48.3
-2 7 5 937.11 48.2
-2 7 5 994.7 45.5
1 -7 -5 223.48 29.4
1 -7 -5 184.58 24.2
-1 7 5 227.08 26.5
-1 7 5 209.68 25.4
0 -7 -5 -28.7 18
0 -7 -5 11.3 20.5
0 7 5 15.7 20.6
0 7 5 -4.5 18.5
-1 -7 -5 287.67 39.5
-1 -7 -5 352.36 45.9
1 7 5 263.07 37.7
1 7 5 275.87 36.9
3 -8 -5 197.48 24
3 -8 -5 242.08 28.8
3 -8 -5 224.68 26.8
-3 8 5 252.17 28.8
2 -8 -5 40.8 18.7
2 -8 -5 13.3 20.3
-2 8 5 36.6 20.5
-2 8 5 2.1 18.6
-2 8 5 37.7 16.9
1 -8 -5 534.55 48.3
1 -8 -5 570.74 44.9
-1 8 5 609.24 46.6
-1 8 5 562.54 46
-1 8 5 530.15 34.7
0 -8 -5 130.39 33.3
0 -8 -5 230.38 35.3
0 8 5 129.19 33.3
0 8 5 202.18 47.8
0 9 -6 48.5 15.3
0 -9 6 49.4 24.7
0 -9 6 47.5 21.3
-1 9 -6 177.08 23.8
-1 9 -6 198.08 25.4
-1 9 -6 191.48 23.6
1 -9 6 149.79 23.2
1 -9 6 186.28 23.5
-2 9 -6 332.27 27.2
-2 9 -6 337.77 29.9
2 -9 6 346.37 34.7
2 -9 6 359.46 28.9
1 8 -6 85.29 26
1 8 -6 86.79 16.2
-1 -8 6 79.69 22
-1 -8 6 106.89 27.6
-1 -8 6 77.59 15
0 8 -6 837.82 40.8
0 8 -6 770.12 46.8
0 -8 6 773.52 47.2
0 -8 6 749.73 46.2
-1 8 -6 100.29 17.2
-1 8 -6 114.99 18.1
1 -8 6 87.99 17.6
1 -8 6 81.69 16.2
-2 8 -6 234.38 21.4
-2 8 -6 212.28 25.2
2 -8 6 231.48 29.7
2 -8 6 257.27 21.2
-3 8 -6 485.65 35.5
3 -8 6 520.85 53.89
3 -8 6 480.15 42.4
2 7 -6 369.46 24.8
2 7 -6 444.46 48.5
2 7 -6 448.16 45.5
-2 -7 6 344.37 44.8
-2 -7 6 332.17 42
1 7 -6 679.33 33.8
1 7 -6 741.13 43.6
-1 -7 6 636.24 44
-1 -7 6 600.14 43.4
0 7 -6 108.99 18.4
0 7 -6 118.79 16.1
0 -7 6 118.89 18.7
0 -7 6 113.69 17.8
-1 7 -6 1020.2 44.1
-1 7 -6 1003.4 45.4
-1 7 -6 982.9 45.1
1 -7 6 915.31 43.3
1 -7 6 977.1 44.7
-2 7 -6 650.03 31.2
-2 7 -6 738.63 39.2
-2 7 -6 692.23 33.5
2 -7 6 754.52 38.5
2 -7 6 726.53 48.4
2 -7 6 719.93 31.8
-3 7 -6 15 13.6
3 -7 6 33.8 25.9
3 -7 6 25.9 17.1
-4 7 -6 480.25 36
4 -7 6 512.25 47
4 -7 6 529.95 59.49
3 6 -6 678.03 55.79
3 6 -6 714.13 60.19
3 6 -6 636.14 30
-3 -6 6 658.33 57.79
-3 -6 6 708.83 40.1
-3 -6 6 648.44 53.89
2 6 -6 218.68 18.9
2 6 -6 230.78 29.8
2 6 -6 227.18 29.2
-2 -6 6 227.58 29.7
-2 -6 6 213.88 27.9
1 6 -6 391.86 24
-1 -6 6 413.76 32.2
-1 -6 6 397.06 31
0 6 -6 1459.85 57.29
0 6 -6 1513.15 60.09
0 -6 6 1464.75 60.29
0 -6 6 1513.05 60.49
-1 6 -6 638.94 31.1
-1 6 -6 665.13 32.4
-1 6 -6 631.74 32.9
1 -6 6 590.54 30.4
1 -6 6 633.24 32.2
-2 6 -6 1361.16 58.29
-2 6 -6 1409.56 52.89
2 -6 6 1464.15 54.29
-3 6 -6 228.98 24.1
3 -6 6 230.08 32
3 -6 6 257.17 27.7
3 -6 6 234.18 13.3
3 -6 6 233.08 13.9
-4 6 -6 70.29 17.5
4 -6 6 62.39 23.9
4 -6 6 102.09 33.3
3 5 -6 176.68 30.2
3 5 -6 216.38 29
-3 -5 6 176.88 21.5
-3 -5 6 216.18 29.5
-3 -5 6 190.68 30
2 5 -6 884.81 48.1
2 5 -6 900.51 49.3
-2 -5 6 861.21 48.1
-2 -5 6 827.02 39.4
1 5 -6 244.88 23.6
-1 -5 6 332.27 26.2
-1 -5 6 282.17 24.3
0 5 -6 324.77 21.9
0 5 -6 299.17 22.3
0 5 -6 333.57 20.6
0 -5 6 274.17 21.8
-1 5 -6 1450.75 54.69
-1 5 -6 1478.25 56.79
-1 5 -6 1492.65 56.09
1 -5 6 1423.86 55.49
1 -5 6 1509.85 54.49
-2 5 -6 0.1 7.5
-2 5 -6 7 9.8
2 -5 6 8.2 8.5
2 -5 6 11.4 6.3
2 -5 6 22.5 12
-3 5 -6 960.8 42.9
-3 5 -6 907.01 33.8
-3 5 -6 907.91 33.8
3 -5 6 900.11 35.7
-4 5 -6 160.18 8.9
-4 5 -6 162.88 21
-4 5 -6 186.98 10
4 -5 6 124.69 25.3
4 -5 6 136.39 14.9
4 -5 6 136.69 32.8
4 4 -6 198.68 32.7
4 4 -6 201.78 34.9
-4 -4 6 222.08 32.3
-4 -4 6 272.17 34.3
-4 -4 6 209.58 26.6
3 4 -6 807.52 48.9
3 4 -6 698.93 46.1
-3 -4 6 773.52 40.2
-3 -4 6 716.93 47.2
-3 -4 6 750.42 47.2
2 4 -6 188.28 23.4
-2 -4 6 211.08 24
-2 -4 6 194.38 21.7
-2 -4 6 266.87 18.9
1 4 -6 1119.69 48
-1 -4 6 1076.69 47.9
0 4 -6 406.16 24.5
0 4 -6 415.16 23.9
0 -4 6 402.16 23.5
0 -4 6 454.75 24.9
-1 4 -6 915.41 38.2
-1 4 -6 891.01 37
-1 4 -6 957.8 39.1
1 -4 6 909.81 38.7
-2 4 -6 1360.06 50.69
-2 4 -6 1325.37 52.99
-2 4 -6 1388.26 50.09
2 -4 6 1370.16 50.59
2 -4 6 1299.47 50.99
2 -4 6 1362.16 61.19
-3 4 -6 26.3 11.4
-3 4 -6 27.3 8.2
3 -4 6 48.1 10.4
-4 4 -6 654.03 38
-4 4 -6 768.62 39.5
-4 4 -6 781.32 37
4 -4 6 761.52 37.6
4 -4 6 700.13 47.3
4 -4 6 823.12 58.39
4 -4 6 787.72 42.3
4 3 -6 237.58 29.7
-4 -3 6 206.38 29.5
-4 -3 6 179.58 28.8
-4 -3 6 222.98 27.4
3 3 -6 772.62 50.49
-3 -3 6 736.33 42.5
-3 -3 6 728.03 37.7
-3 -3 6 652.53 41.9
2 3 -6 1694.83 72.59
-2 -3 6 2009.7 73.99
1 3 -6 14.6 8.9
1 3 -6 8.1 8.4
-1 -3 6 23.9 9.4
-1 -3 6 26.1 9.1
0 3 -6 1425.56 53.79
0 3 -6 1435.36 54.39
0 -3 6 1420.16 54.29
-1 3 -6 574.84 27
-1 3 -6 490.45 26.7
1 -3 6 557.24 27
1 -3 6 567.74 30.7
1 -3 6 549.65 27.9
-2 3 -6 327.87 20.7
-2 3 -6 349.27 21.1
-2 3 -6 341.67 22.2
2 -3 6 336.67 21.6
2 -3 6 338.87 28.2
2 -3 6 319.67 21.3
-3 3 -6 1030.7 43.2
-3 3 -6 1021.5 44.6
-3 3 -6 1030.9 42.1
-3 3 -6 985 53.79
3 -3 6 976.4 43.9
3 -3 6 984.2 42.6
-4 3 -6 55.39 16
-4 3 -6 52.29 13.9
-4 3 -6 59.59 22.7
-4 3 -6 61.49 23.1
4 -3 6 47.8 19.8
4 -3 6 50.29 15.4
4 -3 6 61.19 14.7
4 -3 6 89.79 23.6
4 2 -6 456.35 36.1
-4 -2 6 375.56 35.5
-4 -2 6 326.27 31.3
3 2 -6 701.13 39.1
-3 -2 6 770.32 36.9
-3 -2 6 566.84 37.5
-3 -2 6 576.04 43
-3 -2 6 702.83 28.7
2 2 -6 330.57 24.7
2 2 -6 450.95 27.1
-2 -2 6 389.66 17.7
-2 -2 6 423.76 26.7
-2 -2 6 419.76 26.5
1 2 -6 4200.58 134.29
1 2 -6 3866.81 133.69
-1 -2 6 4171.38 134.49
-1 -2 6 3944.01 133.79
0 2 -6 364.96 21.1
0 2 -6 341.17 21.2
0 -2 6 345.17 20.9
0 -2 6 346.07 21.1
-1 2 -6 2903.11 98.19
-1 2 -6 2816.72 97.89
1 -2 6 2887.21 98.39
1 -2 6 2811.82 99.69
1 -2 6 2907.71 98.49
-2 2 -6 434.46 23.4
-2 2 -6 438.46 25.6
-2 2 -6 500.75 28.4
-2 2 -6 429.06 26
2 -2 6 447.26 25.4
2 -2 6 443.46 26.3
2 -2 6 475.15 31.5
-3 2 -6 170.28 21.3
-3 2 -6 154.48 16.6
-3 2 -6 163.38 19.9
-3 2 -6 143.19 22.9
3 -2 6 138.89 17.2
3 -2 6 185.88 19.9
3 -2 6 166.78 31.1
-4 2 -6 946.01 58.29
-4 2 -6 860.21 46.3
-4 2 -6 856.41 40
4 -2 6 828.42 45.3
4 -2 6 873.21 50.59
4 -2 6 845.92 45.4
5 1 -6 580.14 47.2
-5 -1 6 704.13 49.3
-5 -1 6 566.34 48.7
-5 -1 6 609.94 53.19
-5 -1 6 692.23 44.1
4 1 -6 191.38 23.6
4 1 -6 237.28 29.2
-4 -1 6 206.68 19.8
-4 -1 6 170.98 22.9
3 1 -6 2233.88 83.49
3 1 -6 2175.58 83.69
-3 -1 6 2226.08 82.99
-3 -1 6 2225.78 83.79
-3 -1 6 2253.67 83.69
-3 -1 6 2204.88 75.39
2 1 -6 646.34 31.1
2 1 -6 567.84 30
-2 -1 6 572.24 30.3
-2 -1 6 600.94 24.5
-2 -1 6 551.94 30.5
1 1 -6 568.44 28.7
1 1 -6 569.24 28.3
-1 -1 6 542.65 28.2
-1 -1 6 595.44 28.8
0 1 -6 2165.18 77.59
0 1 -6 2170.18 77.59
0 -1 6 2201.58 77.79
0 -1 6 2138.89 73.49
0 -1 6 2195.88 77.69
-1 1 -6 199.38 17.1
-1 1 -6 235.58 18.5
-1 1 -6 182.28 16.9
1 -1 6 197.48 18
1 -1 6 170.58 17.1
1 -1 6 178.98 17.3
-2 1 -6 1193.68 50.39
-2 1 -6 1165.68 50.49
-2 1 -6 1221.38 46.2
-2 1 -6 1288.17 54.29
2 -1 6 1333.97 50.69
2 -1 6 1262.77 51.39
2 -1 6 1226.68 55.39
-3 1 -6 67.29 10.6
-3 1 -6 68.39 19.4
-3 1 -6 38 13.2
-3 1 -6 70.19 15
3 -1 6 64.79 15.1
3 -1 6 68.59 15.1
-4 1 -6 173.28 31.3
-4 1 -6 246.98 32.7
-4 1 -6 216.68 19.9
-4 1 -6 239.48 31.4
4 -1 6 214.38 26.1
4 -1 6 212.58 27.7
4 -1 6 220.08 29.6
5 0 -6 186.18 26
5 0 -6 157.68 27.7
-5 0 6 176.88 28.2
-5 0 6 124.89 25.2
-5 0 6 129.29 27.7
4 0 -6 638.84 37
4 0 -6 557.14 36.7
-4 0 6 571.14 31.2
-4 0 6 542.55 37.1
-4 0 6 603.44 35.9
3 0 -6 2.5 9
3 0 -6 -5.4 9.2
-3 0 6 6.5 9.8
-3 0 6 2.9 9.1
-3 0 6 18.7 10.1
-3 0 6 13.1 8.3
2 0 -6 3608.14 121.89
2 0 -6 3601.54 121.59
-2 0 6 3678.93 121.79
-2 0 6 3643.24 116.69
-2 0 6 3593.94 121.59
1 0 -6 536.35 27.4
1 0 -6 559.24 28
-1 0 6 562.64 28.2
-1 0 6 516.55 28
0 0 -6 674.83 33.4
0 0 -6 707.83 28.3
0 0 -6 706.53 33.8
0 0 6 684.73 28.3
0 0 6 651.63 33.2
0 0 6 745.43 34
-1 0 -6 2631.04 91.89
-1 0 -6 2738.53 93.89
-1 0 -6 2718.73 93.59
1 0 6 2561.54 92.89
1 0 6 2597.04 93.49
-2 0 -6 141.29 18.9
-2 0 -6 148.09 18.8
-2 0 -6 155.88 18.5
2 0 6 161.48 19.9
-3 0 -6 252.67 27.3
-3 0 -6 293.17 33.3
-3 0 -6 317.17 29.2
-3 0 -6 305.47 17.9
3 0 6 308.87 30
3 0 6 241.18 26.7
-4 0 -6 309.67 37.1
-4 0 -6 368.26 36.4
4 0 6 298.97 35.1
4 0 6 339.17 38.1
4 0 6 301.97 36.7
5 -1 -6 198.68 24
5 -1 -6 201.88 26.5
-5 1 6 168.88 24.3
-5 1 6 212.98 28.8
-5 1 6 221.48 27.4
-5 1 6 227.78 25.5
-5 1 6 214.28 29.1
4 -1 -6 366.56 28.4
4 -1 -6 367.96 28
-4 1 6 350.26 29.7
-4 1 6 327.07 26.1
-4 1 6 374.36 28
-4 1 6 342.07 24
-4 1 6 383.76 30.6
3 -1 -6 1961.2 71.49
3 -1 -6 1903.71 72.29
-3 1 6 1884.31 69.09
-3 1 6 1919.01 72.29
-3 1 6 1977.3 68.39
-3 1 6 1929.41 73.79
-3 1 6 1981.7 71.99
2 -1 -6 234.28 18.3
2 -1 -6 257.07 19.3
-2 1 6 247.38 10.8
-2 1 6 268.47 19.2
-2 1 6 255.87 18.8
-2 1 6 258.07 16.5
-2 1 6 247.28 19.3
1 -1 -6 3234.48 112.29
1 -1 -6 3458.15 113.39
-1 1 6 3330.07 112.39
-1 1 6 3177.88 112.29
0 -1 -6 2440.86 81.59
0 -1 -6 2457.75 88.29
0 -1 -6 2500.85 88.79
0 1 6 2447.66 88.39
0 1 6 2537.35 88.69
-1 -1 -6 4.4 7.8
-1 -1 -6 10.9 9.6
-1 -1 -6 8.6 8.6
1 1 6 2.1 7.2
1 1 6 8.4 7.8
-2 -1 -6 2038.3 77.09
-2 -1 -6 1899.11 75.59
-2 -1 -6 1989 74.99
2 1 6 1770.12 75.19
2 1 6 1894.91 75.19
-3 -1 -6 82.99 19.8
-3 -1 -6 60.59 8.5
3 1 6 57.69 18.4
3 1 6 35.3 14.5
3 1 6 57.59 16.8
-4 -1 -6 203.28 34.3
-4 -1 -6 171.08 31.3
-4 -1 -6 158.08 30
4 1 6 193.28 29.3
4 1 6 138.29 26.1
4 1 6 153.28 31.4
5 -2 -6 485.25 38.3
5 -2 -6 504.15 35.7
-5 2 6 427.06 33.4
-5 2 6 591.74 40.1
-5 2 6 485.65 38.5
-5 2 6 428.16 40
-5 2 6 441.66 35.4
4 -2 -6 256.07 24.9
4 -2 -6 214.28 23
-4 2 6 232.38 23.6
-4 2 6 213.38 22.2
-4 2 6 186.88 21.1
-4 2 6 239.38 21.5
-4 2 6 249.78 22.9
3 -2 -6 200.58 20.4
-3 2 6 183.28 19.4
-3 2 6 219.88 18.7
-3 2 6 188.28 17.2
-3 2 6 203.38 13.3
-3 2 6 177.68 18.9
2 -2 -6 2442.46 89.09
2 -2 -6 2455.55 88.09
-2 2 6 2561.84 88.29
-2 2 6 2482.35 89.39
-2 2 6 2576.74 87.69
1 -2 -6 14.7 2.5
1 -2 -6 18.5 9.2
1 -2 -6 11.6 9
-1 2 6 2 8.2
-1 2 6 8.5 8.4
0 -2 -6 1215.98 52.59
0 -2 -6 1299.37 53.19
0 -2 -6 1271.87 46.3
0 2 6 1272.47 53.19
0 2 6 1306.87 53.19
-1 -2 -6 777.52 39.4
-1 -2 -6 732.53 36
-1 -2 -6 687.23 38.4
1 2 6 849.61 38.6
1 2 6 769.52 38.9
-2 -2 -6 -9.7 13
-2 -2 -6 -3.6 11.8
2 2 6 -14.2 11.4
2 2 6 -12.1 12.5
-3 -2 -6 535.95 42.5
-3 -2 -6 529.65 43.4
-3 -2 -6 522.35 42.4
3 2 6 572.54 41.7
3 2 6 565.84 44.5
3 2 6 542.65 34.2
-4 -2 -6 73.59 33.8
-4 -2 -6 98.19 32.7
4 2 6 53.19 33.2
4 2 6 25.2 23.1
4 2 6 77.99 28.6
5 -3 -6 46.2 17.8
5 -3 -6 50.29 15.9
-5 3 6 46.1 18.6
-5 3 6 32.8 20.8
-5 3 6 24.7 15.5
-5 3 6 24.8 19.5
4 -3 -6 912.31 44.2
4 -3 -6 973.5 42
-4 3 6 806.22 42.5
-4 3 6 899.31 47.5
-4 3 6 920.01 45.6
-4 3 6 903.31 41.2
3 -3 -6 393.56 22.3
3 -3 -6 307.57 24.7
-3 3 6 296.57 22.6
-3 3 6 346.47 25.8
-3 3 6 344.17 24.5
2 -3 -6 219.38 20.9
-2 3 6 200.28 19.2
-2 3 6 196.58 19.5
-2 3 6 223.48 17.7
1 -3 -6 3083.89 106.99
1 -3 -6 2961.8 106.99
-1 3 6 3024.9 106.79
-1 3 6 3148.39 107.69
0 -3 -6 29.9 12.4
0 3 6 27.9 11.7
0 3 6 43.6 11.6
-1 -3 -6 1149.89 54.09
-1 -3 -6 1171.48 54.79
1 3 6 1257.17 53.59
1 3 6 1118.79 54.49
-2 -3 -6 625.04 42.5
-2 -3 -6 583.24 41.9
-2 -3 -6 575.24 39.5
2 3 6 586.94 30.1
2 3 6 619.94 40.5
2 3 6 596.74 42.7
-3 -3 -6 2.4 22
-3 -3 -6 8 24.6
-3 -3 -6 42.1 23.1
3 3 6 11.6 24.7
3 3 6 38.7 22
3 3 6 45.9 16
5 -4 -6 631.44 35.4
5 -4 -6 553.44 40.1
-5 4 6 572.84 38.9
-5 4 6 624.24 45.6
4 -4 -6 18 10
4 -4 -6 17.9 13.3
-4 4 6 29.8 13.3
-4 4 6 20.6 10.6
-4 4 6 -13 11.7
3 -4 -6 940.91 41
3 -4 -6 862.61 42.2
-3 4 6 843.12 40.5
-3 4 6 927.71 42.5
-3 4 6 946.31 40.6
-3 4 6 907.11 42.5
2 -4 -6 533.35 21.7
2 -4 -6 615.44 30.8
2 -4 -6 494.55 30.8
-2 4 6 506.65 26.2
-2 4 6 536.75 31.1
-2 4 6 545.65 31.5
1 -4 -6 527.05 32.8
1 -4 -6 540.45 32.3
-1 4 6 558.44 33
-1 4 6 569.44 32.7
-1 4 6 580.24 25.3
0 -4 -6 2471.45 91.09
0 -4 -6 2380.56 90.59
0 4 6 2360.76 90.19
0 4 6 2313.77 89.99
-1 -4 -6 240.08 43.2
-1 -4 -6 274.47 30.4
1 4 6 273.37 30.6
1 4 6 292.87 29.5
-2 -4 -6 226.68 29.8
-2 -4 -6 249.97 31.3
-2 -4 -6 207.88 28.6
2 4 6 228.78 19.6
2 4 6 268.57 34.2
2 4 6 250.17 30.9
-3 -4 -6 259.27 37.6
-3 -4 -6 194.88 38.7
-3 -4 -6 249.38 38.3
3 4 6 197.78 38.2
3 4 6 228.98 29.6
3 4 6 181.38 33.8
5 -5 -6 82.39 18.4
5 -5 -6 91.49 15.6
-5 5 6 135.69 26.1
-5 5 6 146.49 23.7
-5 5 6 77.79 14.6
-5 5 6 97.69 13.9
4 -5 -6 1003.6 47.9
4 -5 -6 1102.09 46.4
-4 5 6 1152.68 54.39
-4 5 6 1072.89 52.29
3 -5 -6 128.09 14
3 -5 -6 160.68 20.9
3 -5 -6 121.69 15.7
-3 5 6 121.49 16
-3 5 6 123.19 17
-3 5 6 143.89 18.8
-3 5 6 105.99 15.8
2 -5 -6 37.8 13.2
2 -5 -6 39.3 12.8
-2 5 6 38.6 12.9
-2 5 6 46.1 13.3
-2 5 6 33.7 9.1
-2 5 6 54.09 13.9
1 -5 -6 422.76 32.3
1 -5 -6 447.96 32.3
-1 5 6 441.86 20.6
-1 5 6 449.66 31.7
-1 5 6 432.96 31.7
0 -5 -6 -5.8 14
0 -5 -6 -6.4 14.1
0 5 6 6.9 4
-1 -5 -6 416.86 37.7
-1 -5 -6 483.25 41.2
1 5 6 455.95 18
1 5 6 440.76 41.2
-2 -5 -6 168.28 33
-2 -5 -6 166.88 29.6
2 5 6 185.18 17.5
2 5 6 279.67 36.5
2 5 6 189.68 28.7
4 -6 -6 14.4 19.3
4 -6 -6 16.4 13.1
-4 6 6 41.7 17.7
-4 6 6 -10.5 16.2
-4 6 6 15.2 14.2
-4 6 6 14.4 11.1
3 -6 -6 1121.49 44.8
3 -6 -6 895.71 54.39
3 -6 -6 1132.29 48.7
-3 6 6 1064.49 47.8
-3 6 6 1065.59 48.2
-3 6 6 1133.99 51.89
-3 6 6 1070.29 47.3
2 -6 -6 79.39 16.5
2 -6 -6 78.99 18
-2 6 6 82.09 17.7
-2 6 6 85.89 11.2
-2 6 6 91.99 16.5
-2 6 6 44.8 15
1 -6 -6 480.25 37
1 -6 -6 478.95 34.9
-1 6 6 500.15 36.8
-1 6 6 459.25 19.2
0 -6 -6 200.18 27.6
0 -6 -6 206.88 28.4
0 6 6 207.58 26.7
-1 -6 -6 46.2 23.4
-1 -6 -6 21.8 22.9
1 6 6 9.6 25.6
1 6 6 42 23.7
4 -7 -6 291.57 28.7
4 -7 -6 218.28 23.6
4 -7 -6 273.17 24.8
-4 7 6 261.67 21.9
-4 7 6 242.38 26.8
-4 7 6 253.37 28.3
3 -7 -6 26.5 14.5
3 -7 -6 15.8 16.2
3 -7 -6 6.3 14.1
-3 7 6 -0.8 11.5
-3 7 6 -6.7 14.3
2 -7 -6 563.74 43.4
2 -7 -6 618.64 40.9
-2 7 6 686.73 40.8
-2 7 6 714.13 44.1
-2 7 6 588.54 36.9
1 -7 -6 289.77 36.2
1 -7 -6 255.77 32.6
-1 7 6 262.07 35
-1 7 6 252.47 33.8
0 -7 -6 412.86 42.2
0 -7 -6 398.66 44.6
0 7 6 295.67 40
0 7 6 333.37 43.4
2 -8 -6 -32.3 21
2 -8 -6 30.9 21.7
-2 8 6 -25.8 21.3
-2 8 6 32.4 22.7
1 -8 -6 255.17 34.1
1 -8 -6 236.58 33.5
-1 8 6 270.47 27.6
-1 8 6 264.47 35.9
0 9 -7 -42.4 24.7
0 9 -7 -2.5 13
0 -9 7 -10.5 21.1
0 -9 7 -8.3 23.5
-1 9 -7 350.06 36.2
-1 9 -7 353.66 30.5
-1 9 -7 420.46 39.6
1 -9 7 300.27 38.1
1 -9 7 332.77 34.9
-2 9 -7 229.08 27.5
-2 9 -7 241.28 30.8
2 -9 7 242.68 27.2
2 -9 7 208.88 40.4
2 -9 7 206.48 24.4
1 8 -7 431.26 31.1
1 8 -7 424.26 46.4
-1 -8 7 417.36 41.3
-1 -8 7 366.76 46.5
0 8 -7 546.15 38.8
0 8 -7 465.35 41.2
0 8 -7 465.85 31.9
0 -8 7 509.75 40.9
0 -8 7 458.95 35.7
-1 8 -7 -5.6 13.4
-1 8 -7 -13.6 15.2
-1 8 -7 -10.4 11.4
1 -8 7 2.3 14.5
1 -8 7 -3.9 12.7
-2 8 -7 355.36 29.7
-2 8 -7 446.06 32.7
2 -8 7 502.35 28.6
2 -8 7 385.96 46.4
2 -8 7 440.46 32.2
-3 8 -7 183.58 24.6
3 -8 7 168.28 11.1
3 -8 7 132.69 30.1
3 -8 7 124.69 26.4
2 7 -7 305.07 37
2 7 -7 365.96 25.1
-2 -7 7 381.86 46.3
-2 -7 7 234.68 32.9
-2 -7 7 318.27 29.7
1 7 -7 242.18 22.3
1 7 -7 309.07 33.5
-1 -7 7 267.27 34.5
-1 -7 7 291.97 32.8
0 7 -7 250.87 25.9
0 7 -7 206.28 23.2
0 -7 7 202.28 26.1
0 -7 7 210.68 25.3
-1 7 -7 743.83 38.6
-1 7 -7 694.43 36.5
-1 7 -7 730.33 38.4
1 -7 7 766.22 39.1
1 -7 7 640.24 42.4
-2 7 -7 100.89 15.9
-2 7 -7 86.99 16
2 -7 7 83.29 15.4
2 -7 7 127.89 16.9
-3 7 -7 475.05 35.5
3 -7 7 509.75 24.3
3 -7 7 582.24 23
3 -7 7 556.04 54.09
-4 7 -7 117.79 22
4 -7 7 57.79 29
4 -7 7 118.09 41.1
3 6 -7 394.36 25.9
3 6 -7 368.86 46.6
-3 -6 7 330.47 44.2
-3 -6 7 411.56 35.5
-3 -6 7 406.36 51.29
2 6 -7 -7.4 16.8
-2 -6 7 -0.7 12.4
-2 -6 7 4.1 17.9
-2 -6 7 -2.9 18.1
1 6 -7 950.7 42.5
-1 -6 7 965.2 49.5
-1 -6 7 952.6 49.3
0 6 -7 767.12 41
0 6 -7 832.62 41.5
0 6 -7 792.42 38.7
0 -6 7 912.21 42.8
0 -6 7 804.92 41.6
-1 6 -7 6.2 12.5
-1 6 -7 0.3 8.6
-1 6 -7 -14.9 10.1
1 -6 7 9.5 10.2
1 -6 7 -10.3 8.2
-2 6 -7 1778.82 69.39
-2 6 -7 1804.22 63.39
2 -6 7 1691.13 62.39
2 -6 7 1646.54 64.89
-3 6 -7 169.08 21.6
-3 6 -7 203.78 14.3
-3 6 -7 221.38 14.6
3 -6 7 215.38 17.8
3 -6 7 140.09 36.3
-4 6 -7 201.58 24.4
4 -6 7 134.29 29.6
4 -6 7 169.88 10.3
4 -6 7 206.18 39
3 5 -7 321.17 41
-3 -5 7 347.57 40.5
-3 -5 7 315.57 40.5
2 5 -7 1846.02 78.59
-2 -5 7 1921.71 79.39
-2 -5 7 1835.42 78.49
1 5 -7 31 16.9
1 5 -7 72.59 14.4
-1 -5 7 43.6 13.9
-1 -5 7 77.59 15.3
0 5 -7 952.9 43.8
0 5 -7 999.5 44.9
0 -5 7 1011.3 44.8
0 -5 7 936.01 43.3
-1 5 -7 667.73 33.9
-1 5 -7 680.53 32.4
-1 5 -7 713.13 34.7
1 -5 7 668.33 33.1
-2 5 -7 66.19 14.1
-2 5 -7 32.2 8.7
-2 5 -7 26.4 10.8
2 -5 7 24.9 10.5
-3 5 -7 594.94 28.2
-3 5 -7 615.04 28.6
-3 5 -7 583.14 34.7
3 -5 7 594.64 29.2
-4 5 -7 5.1 8.7
-4 5 -7 -1.8 14
-4 5 -7 1.1 9.1
4 -5 7 23.9 11.6
4 -5 7 0.7 21.2
4 -5 7 -24.4 27
4 -5 7 10.7 10.4
4 4 -7 336.97 44.5
-4 -4 7 393.76 50.69
-4 -4 7 320.57 39.6
-4 -4 7 328.87 35.2
3 4 -7 299.87 34.8
-3 -4 7 335.27 36.5
-3 -4 7 355.26 36.5
-3 -4 7 354.06 27.9
2 4 -7 246.68 25.5
-2 -4 7 241.88 26.6
-2 -4 7 235.98 25.2
1 4 -7 2319.67 87.19
1 4 -7 2352.16 86.89
-1 -4 7 2418.66 87.69
-1 -4 7 2306.27 86.99
0 4 -7 6.1 7.9
0 4 -7 -3.2 8.2
0 -4 7 20.5 7.1
0 -4 7 -4.9 7.9
-1 4 -7 1041.5 45.5
-1 4 -7 1086.19 44.2
1 -4 7 1088.39 49.3
1 -4 7 1092.29 45.8
-2 4 -7 1133.59 47.3
-2 4 -7 1071.09 45.4
-2 4 -7 1149.89 45.6
2 -4 7 1086.89 46.1
2 -4 7 1074.69 54.79
-3 4 -7 99.89 14.1
-3 4 -7 99.19 13.4
3 -4 7 94.29 13.8
3 -4 7 92.29 13.6
-4 4 -7 529.45 32.7
-4 4 -7 514.95 30.9
4 -4 7 524.15 33.7
4 -4 7 478.45 31.8
4 -4 7 449.86 42.7
4 -4 7 495.65 50.99
4 3 -7 -10.1 19.3
-4 -3 7 -0.1 16.2
-4 -3 7 -5.3 20.6
-4 -3 7 15.3 21.4
3 3 -7 791.22 45.1
-3 -3 7 680.43 39.5
-3 -3 7 784.12 45.4
-3 -3 7 819.72 45.3
2 3 -7 771.82 42.7
2 3 -7 886.51 41.8
-2 -3 7 943.81 41.5
-2 -3 7 797.42 42.7
-2 -3 7 831.52 29.8
1 3 -7 406.26 26.2
1 3 -7 384.96 25.5
-1 -3 7 429.66 25.2
-1 -3 7 407.16 26.7
0 3 -7 4053.79 135.59
0 3 -7 4001.8 134.79
0 -3 7 4134.89 135.79
-1 3 -7 19.8 9.9
-1 3 -7 25.2 9
1 -3 7 7.8 7.5
1 -3 7 19.8 9.6
1 -3 7 25.4 11
-2 3 -7 1257.07 51.09
-2 3 -7 1204.98 49.2
-2 3 -7 1199.18 49.5
2 -3 7 1201.68 50.19
2 -3 7 1233.48 57.39
-3 3 -7 1238.78 53.89
-3 3 -7 1186.18 50.69
-3 3 -7 1268.87 63.19
-3 3 -7 1294.07 51.69
3 -3 7 1140.09 51.09
3 -3 7 1252.27 53.69
-4 3 -7 10.1 12.5
-4 3 -7 -6.1 15.5
-4 3 -7 9 23.1
4 -3 7 -2.7 15.3
4 -3 7 -0.4 20.3
4 -3 7 12.2 14.5
4 2 -7 1025.1 58.49
4 2 -7 1029.2 54.99
-4 -2 7 1065.19 53.69
-4 -2 7 856.61 53.99
-4 -2 7 1038.6 56.69
3 2 -7 107.39 18.3
3 2 -7 81.39 17.1
-3 -2 7 118.09 17.4
-3 -2 7 113.39 19.4
-3 -2 7 127.69 13.2
2 2 -7 1860.91 72.19
-2 -2 7 1849.31 71.89
-2 -2 7 1827.32 61.19
-2 -2 7 1827.82 71.49
1 2 -7 2282.07 81.59
1 2 -7 2303.17 82.09
-1 -2 7 2152.08 81.09
0 2 -7 6.8 7.6
0 2 -7 0 8
0 -2 7 -5.2 6.4
0 -2 7 3.3 6.5
0 -2 7 8.4 6.6
-1 2 -7 1095.99 47.6
-1 2 -7 1173.58 48.6
1 -2 7 1141.59 48.4
1 -2 7 1135.79 48.5
1 -2 7 1134.69 48
-2 2 -7 358.56 21.3
-2 2 -7 248.98 26.6
-2 2 -7 357.66 25.3
-2 2 -7 333.27 25.3
2 -2 7 375.46 24.6
2 -2 7 329.57 28.1
-3 2 -7 205.68 27.6
-3 2 -7 183.78 22.8
-3 2 -7 221.58 25.3
-3 2 -7 166.58 19.2
3 -2 7 172.88 20.5
3 -2 7 286.87 31.9
3 -2 7 214.28 24.3
-4 2 -7 184.38 24.6
-4 2 -7 235.58 34.4
-4 2 -7 220.88 23.4
-4 2 -7 181.78 25.1
4 -2 7 187.18 28.3
4 -2 7 207.48 25.2
4 -2 7 239.88 30.1
5 1 -7 536.05 52.39
5 1 -7 534.05 46.6
-5 -1 7 511.65 50.79
-5 -1 7 577.44 48.2
-5 -1 7 547.45 48.4
-5 -1 7 649.93 49.7
4 1 -7 37.1 17.9
4 1 -7 53.79 16.6
-4 -1 7 21.9 12.7
-4 -1 7 21.3 11.1
3 1 -7 1221.58 54.79
3 1 -7 1138.49 54.69
-3 -1 7 1204.48 46.6
-3 -1 7 1324.07 55.69
-3 -1 7 1313.67 55.39
2 1 -7 289.07 19.9
2 1 -7 220.08 20.8
-2 -1 7 205.98 14.1
-2 -1 7 202.98 19.7
-2 -1 7 243.98 21.3
1 1 -7 1029.7 44.6
1 1 -7 998.9 44.4
-1 -1 7 1070.99 44.8
-1 -1 7 1033.7 44.6
0 1 -7 2157.18 78.19
0 1 -7 2174.58 77.89
0 -1 7 2085.49 72.69
0 -1 7 2130.29 78.09
0 -1 7 1985 76.89
-1 1 -7 214.48 18.5
-1 1 -7 207.28 20.2
-1 1 -7 171.38 19.3
1 -1 7 194.68 18.9
1 -1 7 191.08 19.9
1 -1 7 201.88 18.9
-2 1 -7 1143.79 50.89
-2 1 -7 1176.68 51.59
2 -1 7 1151.38 50.89
2 -1 7 1146.59 51.29
2 -1 7 1272.27 55.69
-3 1 -7 122.39 23.2
-3 1 -7 124.09 14.3
-3 1 -7 144.49 20.4
-3 1 -7 156.28 20.2
3 -1 7 105.69 19.1
3 -1 7 128.69 19.4
-4 1 -7 435.66 26.1
-4 1 -7 383.46 46.2
-4 1 -7 344.07 39.8
-4 1 -7 354.46 37.7
4 -1 7 344.97 39.5
4 -1 7 343.37 39.5
4 -1 7 333.77 35.5
5 0 -7 380.76 39.5
5 0 -7 386.06 44.6
-5 0 7 401.46 45.7
-5 0 7 360.86 40.9
-5 0 7 347.97 29.1
-5 0 7 371.16 42.3
4 0 -7 628.44 40.7
4 0 -7 690.93 40.4
-4 0 7 733.23 40.1
-4 0 7 653.43 39
-4 0 7 669.13 33.8
3 0 -7 365.66 26.1
3 0 -7 375.96 27.3
-3 0 7 347.47 21.1
-3 0 7 371.06 25.3
-3 0 7 363.46 26.3
-3 0 7 336.77 26.8
2 0 -7 1597.74 62.59
2 0 -7 1643.44 62.19
-2 0 7 1570.44 56.29
-2 0 7 1529.95 61.59
1 0 -7 104.29 13.9
1 0 -7 127.69 16.6
-1 0 7 63.79 12
-1 0 7 82.39 7.6
-1 0 7 83.39 13.3
0 0 -7 2651.73 93.89
0 0 -7 2553.74 93.39
0 0 7 2669.83 93.69
0 0 7 2527.75 93.19
0 0 7 2622.44 86.99
-1 0 -7 2926.11 102.49
-1 0 -7 2793.82 101.39
-1 0 -7 2873.41 99.19
1 0 7 2884.11 102.19
1 0 7 2765.72 101.29
-2 0 -7 23.3 11.5
-2 0 -7 -9.3 10.4
2 0 7 0.2 11.9
2 0 7 -7.7 8.8
-3 0 -7 1095.29 53.79
-3 0 -7 970.4 39
-3 0 -7 918.91 54.39
3 0 7 977.8 52.09
3 0 7 989.7 49.7
3 0 7 987.5 52.29
-4 0 -7 37.1 12.1
-4 0 -7 17.9 26.2
-4 0 -7 23.2 24.8
4 0 7 36.7 22.3
4 0 7 63.59 22.4
4 0 7 45.6 25.8
5 -1 -7 -14 17.1
5 -1 -7 12.2 21.5
-5 1 7 -3.1 19.8
-5 1 7 9.8 14.1
-5 1 7 1.8 20.3
-5 1 7 61.09 21.7
-5 1 7 -3.2 17.3
4 -1 -7 797.02 43.5
4 -1 -7 802.52 42.4
-4 1 7 833.02 39.6
-4 1 7 707.73 37.4
-4 1 7 734.63 44.1
-4 1 7 775.22 42.1
3 -1 -7 1877.71 70.29
3 -1 -7 1842.82 70.69
-3 1 7 1801.92 71.29
-3 1 7 1858.81 62.79
-3 1 7 1681.43 65.49
-3 1 7 1810.12 69.79
-3 1 7 1765.62 70.09
2 -1 -7 220.98 21.1
2 -1 -7 303.27 20.3
-2 1 7 214.28 21.1
-2 1 7 250.17 20.9
1 -1 -7 2113.79 79.09
1 -1 -7 2114.29 78.59
-1 1 7 2114.09 78.79
-1 1 7 2071.39 78.29
0 -1 -7 250.27 22.2
0 -1 -7 234.38 15.3
0 -1 -7 276.47 22.6
0 1 7 226.68 21.8
0 1 7 215.48 20.8
-1 -1 -7 554.14 29.2
-1 -1 -7 614.84 34.4
-1 -1 -7 561.04 33.1
1 1 7 466.35 31.3
1 1 7 539.75 33.9
-2 -1 -7 588.74 38.2
-2 -1 -7 565.34 36
2 1 7 571.34 38.2
2 1 7 570.04 36.5
-3 -1 -7 87.39 23.6
-3 -1 -7 93.09 10.5
-3 -1 -7 112.49 24.6
3 1 7 71.39 22.6
3 1 7 102.59 21.6
3 1 7 81.79 18.2
-4 -1 -7 313.87 58.79
-4 -1 -7 267.07 36.4
-4 -1 -7 298.37 38.7
4 1 7 336.67 41.1
4 1 7 366.46 47.5
4 1 7 233.48 37.3
5 -2 -7 968.6 53.09
5 -2 -7 901.11 49.3
-5 2 7 942.41 53.09
-5 2 7 930.11 47.9
-5 2 7 903.81 49.6
-5 2 7 1012 54.39
4 -2 -7 282.97 25.4
4 -2 -7 196.88 26.5
-4 2 7 225.68 29.4
-4 2 7 221.48 22.2
-4 2 7 252.67 24.4
-4 2 7 234.28 19.5
-4 2 7 185.58 23.9
3 -2 -7 780.12 40.1
3 -2 -7 828.92 38.8
-3 2 7 751.32 39.2
-3 2 7 766.02 37.3
-3 2 7 753.22 35.7
-3 2 7 781.12 38.3
2 -2 -7 1946.21 74.59
-2 2 7 1910.51 74.29
-2 2 7 1964.2 71.69
-2 2 7 1901.91 72.69
1 -2 -7 66.39 13.8
1 -2 -7 66.39 13.7
-1 2 7 85.29 14.3
-1 2 7 88.89 14.4
0 -2 -7 2030.5 78.49
0 -2 -7 2020.6 70.19
0 -2 -7 2079.89 78.69
0 2 7 2007.4 78.69
0 2 7 2034.9 78.29
-1 -2 -7 215.68 24.8
-1 -2 -7 236.38 21.4
1 2 7 281.57 22
1 2 7 219.08 25.2
-2 -2 -7 271.67 28
-2 -2 -7 372.66 33.7
-2 -2 -7 269.57 31.7
2 2 7 303.37 30.6
2 2 7 342.27 33
-3 -2 -7 111.79 26.6
-3 -2 -7 127.49 29
-3 -2 -7 133.29 26.3
3 2 7 139.09 28.5
3 2 7 133.09 25.2
3 2 7 110.49 20.2
5 -3 -7 30.6 16.4
5 -3 -7 8.2 18.3
-5 3 7 52.89 21
-5 3 7 16.7 19.9
-5 3 7 14.5 14.7
-5 3 7 2.3 16.1
4 -3 -7 384.46 32.6
4 -3 -7 483.85 30.1
-4 3 7 414.36 33.2
-4 3 7 399.16 28.8
-4 3 7 441.06 33.9
-4 3 7 409.26 29.2
3 -3 -7 135.99 18.5
3 -3 -7 167.78 18.6
-3 3 7 136.79 15.7
-3 3 7 190.18 23.5
-3 3 7 171.18 19.4
2 -3 -7 674.03 36.4
2 -3 -7 670.83 34.9
-2 3 7 635.54 34.6
-2 3 7 643.04 32.6
-2 3 7 675.73 36.9
1 -3 -7 601.14 35.5
1 -3 -7 629.44 24.4
1 -3 -7 789.82 35.7
-1 3 7 614.04 36.2
-1 3 7 636.34 36.2
0 -3 -7 13.7 7.6
0 -3 -7 10.9 12.6
0 -3 -7 13.3 11.9
0 3 7 11.6 10.9
0 3 7 -4.8 10.2
-1 -3 -7 1481.55 66.69
-1 -3 -7 1490.15 66.69
1 3 7 1424.06 74.39
1 3 7 1518.15 66.29
-2 -3 -7 358.36 33.2
-2 -3 -7 380.66 38.4
-2 -3 -7 359.96 39
2 3 7 363.26 36.1
2 3 7 344.67 25.7
2 3 7 377.76 38.7
-3 -3 -7 63.39 26.5
-3 -3 -7 45.7 26.4
-3 -3 -7 58.69 28.2
3 3 7 58.49 30.1
3 3 7 40.4 33.1
3 3 7 27.6 25.1
5 -4 -7 404.46 32.5
5 -4 -7 370.36 38
-5 4 7 371.36 32.9
-5 4 7 396.66 40.9
-5 4 7 420.06 38.1
-5 4 7 414.16 32.7
4 -4 -7 103.89 15.4
4 -4 -7 123.59 19.9
-4 4 7 96.79 19
-4 4 7 75.19 15.6
-4 4 7 76.79 15
-4 4 7 94.49 18.6
3 -4 -7 1777.42 69.59
3 -4 -7 1783.42 71.39
-3 4 7 1725.43 69.59
-3 4 7 1787.12 70.09
-3 4 7 1822.42 69.29
2 -4 -7 431.36 14.9
2 -4 -7 444.66 31.4
2 -4 -7 448.86 31
-2 4 7 426.86 31.3
-2 4 7 466.25 25.2
-2 4 7 436.76 29.8
1 -4 -7 414.36 30.8
1 -4 -7 382.96 30.3
-1 4 7 417.46 30.9
-1 4 7 435.66 30.4
0 -4 -7 1389.26 62.09
0 -4 -7 1295.37 62.19
0 4 7 1441.36 63.89
-1 -4 -7 131.49 24.6
-1 -4 -7 158.98 24.6
1 4 7 148.19 24.4
1 4 7 135.19 23.7
-2 -4 -7 566.24 47.9
-2 -4 -7 603.74 49.6
-2 -4 -7 602.94 44.2
2 4 7 518.85 30.3
2 4 7 541.55 49.6
2 4 7 502.35 44.8
4 -5 -7 790.92 44.6
4 -5 -7 857.81 41.7
-4 5 7 879.91 47.9
-4 5 7 876.61 41.3
-4 5 7 901.71 49.99
-4 5 7 735.13 46.2
3 -5 -7 19 13.9
3 -5 -7 -17.3 14.4
-3 5 7 0.8 11
-3 5 7 9.5 13.5
-3 5 7 15.4 13
-3 5 7 10.2 12.6
2 -5 -7 1799.72 74.49
-2 5 7 1839.32 75.29
-2 5 7 1889.71 68.49
-2 5 7 1970.5 76.79
1 -5 -7 105.09 19.5
1 -5 -7 89.79 18.4
-1 5 7 65.49 17.5
-1 5 7 83.69 20.5
-1 5 7 89.69 10.2
0 -5 -7 336.17 34.8
0 -5 -7 246.78 30.8
0 5 7 306.77 32
-1 -5 -7 363.66 42.4
-1 -5 -7 494.35 42.8
1 5 7 420.06 43.9
1 5 7 405.06 40.3
1 5 7 386.86 19.3
-2 -5 -7 -45.8 30.3
-2 -5 -7 21 25.2
-2 -5 -7 42.4 27.8
2 5 7 -29.3 22.1
2 5 7 10.8 11.1
2 5 7 -41 29.3
4 -6 -7 190.38 25.4
4 -6 -7 146.39 21.1
-4 6 7 130.99 23
-4 6 7 137.09 24.4
3 -6 -7 235.68 29.7
3 -6 -7 312.67 19.6
3 -6 -7 312.27 30.5
-3 6 7 321.47 26.9
-3 6 7 238.38 28.7
-3 6 7 274.07 27.4
2 -6 -7 70.99 18.6
2 -6 -7 61.09 18.5
-2 6 7 40.9 10.5
-2 6 7 50.49 17.5
-2 6 7 69.79 17
-2 6 7 -5.7 20.6
1 -6 -7 593.14 44.2
1 -6 -7 589.44 43
-1 6 7 659.63 25.9
-1 6 7 629.44 44.3
-1 6 7 634.14 44
0 -6 -7 302.47 38.2
0 -6 -7 292.97 36.4
0 6 7 317.47 37.5
0 6 7 212.98 29.7
-1 -6 -7 62.89 29.2
-1 -6 -7 89.59 29.4
1 6 7 101.49 28.9
1 6 7 103.99 32.1
3 -7 -7 180.28 23.6
3 -7 -7 190.68 22.9
3 -7 -7 199.58 24.9
-3 7 7 229.68 26.6
-3 7 7 143.49 24
-3 7 7 187.88 23.9
-3 7 7 150.38 22.9
2 -7 -7 331.07 38.7
2 -7 -7 395.76 37.4
-2 7 7 364.86 39.1
-2 7 7 334.07 38
-2 7 7 386.36 31.3
1 -7 -7 8.8 22
1 -7 -7 -37.2 20.5
-1 7 7 12.6 22.6
-1 7 7 -7.6 22
0 -7 -7 255.47 35
0 -7 -7 296.47 39.4
0 7 7 284.57 37.9
0 7 7 233.78 34.9
-1 9 -8 519.45 36.7
-1 9 -8 530.15 45.8
-1 9 -8 528.25 41.7
1 -9 8 564.04 44.9
1 -9 8 549.65 41.9
1 8 -8 47.9 27.7
1 8 -8 47 15.8
-1 -8 8 61.19 26.8
-1 -8 8 41 23.8
0 8 -8 594.34 35.9
0 8 -8 588.94 42.8
0 8 -8 631.54 45.4
0 -8 8 603.74 44.3
0 -8 8 578.34 41
-1 8 -8 77.09 17.6
-1 8 -8 87.69 20.8
-1 8 -8 61.49 17.2
1 -8 8 99.99 17.9
1 -8 8 84.59 20.2
-2 8 -8 523.65 35.7
2 -8 8 523.95 45.5
2 -8 8 486.75 31.9
2 -8 8 524.15 36.7
-3 8 -8 125.59 22.5
3 -8 8 120.29 38.1
3 -8 8 69.69 12
3 -8 8 99.29 12.9
2 7 -8 447.76 51.19
2 7 -8 427.16 49
-2 -7 8 490.75 49.3
-2 -7 8 607.34 49.7
-2 -7 8 537.85 38
1 7 -8 25.1 18.5
1 7 -8 38 13.5
1 7 -8 43.8 20.6
-1 -7 8 4.8 17.8
0 7 -8 377.66 30.2
0 7 -8 379.26 33.3
0 7 -8 415.36 28.5
0 -7 8 359.96 33.7
0 -7 8 381.96 32.6
-1 7 -8 546.65 34.1
-1 7 -8 522.85 32.9
1 -7 8 566.44 34
1 -7 8 574.54 35.9
-2 7 -8 109.79 18.4
-2 7 -8 86.99 13.7
-2 7 -8 81.99 17
2 -7 8 97.49 17.5
2 -7 8 73.19 26
-3 7 -8 1180.08 57.29
-3 7 -8 1211.98 42.5
-3 7 -8 1179.58 42
3 -7 8 1121.69 46.8
3 -7 8 1175.48 45.1
3 -7 8 1134.59 72.89
3 6 -8 403.86 49.6
-3 -6 8 377.26 50.79
-3 -6 8 444.76 54.19
-3 -6 8 429.46 36.6
2 6 -8 301.27 39.6
2 6 -8 353.46 39
-2 -6 8 345.07 38.7
-2 -6 8 311.17 37.4
1 6 -8 1563.44 64.59
-1 -6 8 1386.56 64.89
-1 -6 8 1383.96 65.29
0 6 -8 259.17 23.9
0 6 -8 186.88 24.1
0 6 -8 242.18 25.2
0 -6 8 259.77 24.1
0 -6 8 228.48 25.5
-1 6 -8 594.94 36.7
-1 6 -8 648.14 34.4
-1 6 -8 619.24 33.8
1 -6 8 650.13 34.3
1 -6 8 665.23 36.4
-2 6 -8 203.88 20.3
-2 6 -8 206.28 23.5
-2 6 -8 256.27 24.5
2 -6 8 244.38 24.4
2 -6 8 236.88 20.4
-3 6 -8 31.3 14.7
-3 6 -8 46.1 10.5
-3 6 -8 24 10.8
3 -6 8 23.6 10.3
3 -6 8 27.1 25.6
-4 6 -8 309.37 31.8
4 -6 8 299.07 21.7
4 -6 8 210.88 35.9
4 -6 8 297.57 46.8
3 5 -8 281.17 35.8
3 5 -8 314.37 41.4
-3 -5 8 392.86 41.6
-3 -5 8 335.37 31.9
-3 -5 8 325.07 37.4
2 5 -8 867.51 49.5
2 5 -8 801.42 55.69
-2 -5 8 814.82 48.4
-2 -5 8 849.12 49.8
-1 -5 8 34.6 14.7
0 5 -8 1144.99 52.39
0 5 -8 1201.58 51.69
0 -5 8 1158.78 51.69
0 -5 8 1292.97 53.89
-1 5 -8 562.04 30.4
-1 5 -8 524.45 29.7
-1 5 -8 535.75 32.5
1 -5 8 534.25 29.2
1 -5 8 584.34 40.8
1 -5 8 480.55 31.3
-2 5 -8 349.96 26.1
-2 5 -8 306.77 25.3
-2 5 -8 356.16 23.3
2 -5 8 231.88 30.5
2 -5 8 334.17 25.5
-3 5 -8 683.73 39.2
-3 5 -8 698.53 38.8
3 -5 8 674.43 35.3
3 -5 8 678.23 35.5
-4 5 -8 -4.8 12.6
-4 5 -8 7.6 14.8
-4 5 -8 4.3 12.3
4 -5 8 -12.3 31
4 -5 8 -1.4 13.9
4 -5 8 -18.8 23.6
4 4 -8 444.26 53.19
4 4 -8 464.75 49
-4 -4 8 413.36 51.49
-4 -4 8 454.35 40.6
-4 -4 8 453.35 51.19
3 4 -8 209.78 27.1
3 4 -8 181.98 26.7
-3 -4 8 168.08 27.6
-3 -4 8 224.98 28.1
-3 -4 8 241.28 27.4
2 4 -8 606.14 38
2 4 -8 538.15 38.4
-2 -4 8 619.84 38.1
1 4 -8 1176.38 52.69
1 4 -8 1103.59 52.89
-1 -4 8 1234.28 53.79
-1 -4 8 1231.48 53.69
0 4 -8 2.9 9.7
0 4 -8 -7.3 7.7
0 -4 8 -1.9 8.9
0 -4 8 7.1 7.6
-1 4 -8 1106.39 48.3
-1 4 -8 1101.79 49.4
1 -4 8 1278.07 48.8
1 -4 8 1090.99 51.79
1 -4 8 1166.98 50.49
-2 4 -8 96.39 14.8
-2 4 -8 101.79 16.5
-2 4 -8 113.99 16.2
2 -4 8 144.79 18.6
2 -4 8 95.79 23.8
2 -4 8 131.59 16.8
-3 4 -8 108.99 16.7
-3 4 -8 93.89 16.9
-3 4 -8 89.79 16
3 -4 8 98.39 15.8
3 -4 8 106.19 16
-4 4 -8 396.36 35.2
-4 4 -8 505.25 34.8
4 -4 8 499.65 36.2
4 -4 8 454.85 34
4 -4 8 470.35 45.6
4 -4 8 513.75 56.39
4 3 -8 44 25.7
4 3 -8 79.69 25.4
-4 -3 8 81.69 25.9
-4 -3 8 116.69 29
-4 -3 8 89.39 22.5
3 3 -8 1190.68 59.99
3 3 -8 1196.58 58.49
-3 -3 8 1157.98 42.8
-3 -3 8 1157.28 59.19
-3 -3 8 1174.58 58.19
-3 -3 8 1099.79 60.99
2 3 -8 181.18 22.8
2 3 -8 155.68 21.5
-2 -3 8 207.18 12.6
-2 -3 8 190.88 24.7
-2 -3 8 169.28 22.3
1 3 -8 1120.29 50.79
1 3 -8 1248.28 52.59
-1 -3 8 1151.38 51.69
0 3 -8 2317.97 83.99
0 3 -8 2320.87 84.39
0 -3 8 2341.27 83.89
0 -3 8 2166.78 83.59
-1 3 -8 48.4 11.2
-1 3 -8 36.3 11.8
1 -3 8 42.7 12.1
1 -3 8 48.9 13.4
-2 3 -8 1252.47 53.59
-2 3 -8 1236.08 51.29
-2 3 -8 1168.58 52.19
2 -3 8 1247.88 53.79
2 -3 8 1183.68 52.79
2 -3 8 1334.47 60.09
-3 3 -8 250.57 28
-3 3 -8 180.28 26
-3 3 -8 224.88 24.8
-3 3 -8 185.78 21.1
3 -3 8 223.38 24.9
-4 3 -8 48.5 26.5
-4 3 -8 29.4 15.3
-4 3 -8 54.69 20.8
-4 3 -8 33.9 18.2
4 -3 8 49.2 19.1
4 -3 8 21.1 17.8
4 -3 8 26.7 24.4
4 2 -8 722.23 50.29
4 2 -8 752.32 47.8
-4 -2 8 751.52 55.79
-4 -2 8 757.82 51.49
-4 -2 8 742.23 45.8
-4 -2 8 693.73 34.7
3 2 -8 -9.9 14.7
3 2 -8 12.9 13.8
-3 -2 8 -9.2 12.2
-3 -2 8 4 14
-3 -2 8 14.4 8.5
-3 -2 8 9 11.8
2 2 -8 3111.99 110.89
2 2 -8 3100.69 111.19
-2 -2 8 2754.52 109.09
-2 -2 8 3242.78 99.99
-2 -2 8 3219.78 111.89
1 2 -8 1213.38 50.99
1 2 -8 1088.99 49.1
-1 -2 8 1119.29 49.9
0 2 -8 678.03 35.3
0 2 -8 636.74 34.2
0 -2 8 655.53 31.7
0 -2 8 673.13 35.2
0 -2 8 644.24 34.5
-1 2 -8 2835.32 100.29
-1 2 -8 2890.31 100.69
1 -2 8 2574.54 98.89
1 -2 8 2777.42 99.79
1 -2 8 2839.92 100.49
-2 2 -8 10.3 11.3
-2 2 -8 -3.4 12.2
-2 2 -8 -3.4 11.3
2 -2 8 -9.1 12.7
2 -2 8 12.5 11.4
2 -2 8 -1.9 10.9
-3 2 -8 643.54 40.1
-3 2 -8 645.74 45.2
-3 2 -8 582.94 32
3 -2 8 612.74 39.6
3 -2 8 584.74 38.4
-4 2 -8 62.29 21.3
-4 2 -8 147.89 31.6
-4 2 -8 40.1 21.6
4 -2 8 78.49 22.5
4 -2 8 32.5 24.7
4 -2 8 94.69 22.1
5 1 -8 77.39 30.4
5 1 -8 69.59 26.7
-5 -1 8 144.19 27.4
-5 -1 8 171.28 29
-5 -1 8 98.29 35.1
4 1 -8 512.05 38.7
4 1 -8 500.85 41.2
-4 -1 8 563.74 39.7
-4 -1 8 507.05 28.4
-4 -1 8 507.55 38.7
3 1 -8 632.44 38
3 1 -8 579.64 37.5
-3 -1 8 574.34 27.8
-3 -1 8 613.04 34.6
2 1 -8 235.68 20.3
2 1 -8 216.88 21.7
-2 -1 8 194.88 15.2
-2 -1 8 191.38 21.6
-2 -1 8 180.68 20.7
1 1 -8 2456.25 89.19
1 1 -8 2419.16 89.19
-1 -1 8 2351.66 88.69
-1 -1 8 2478.15 89.49
0 1 -8 619.74 33.1
0 1 -8 609.44 34.3
0 -1 8 605.54 34.1
0 -1 8 610.34 29
0 -1 8 601.74 33.7
-1 1 -8 48.3 13
-1 1 -8 57.19 13.9
-1 1 -8 62.79 11.9
1 -1 8 50.29 13.5
1 -1 8 73.39 13.7
-2 1 -8 1626.34 68.39
-2 1 -8 1695.43 69.79
-2 1 -8 1612.84 69.09
2 -1 8 1661.03 68.49
2 -1 8 1755.72 71.69
2 -1 8 1569.74 67.69
-3 1 -8 48.5 20.2
-3 1 -8 73.39 12.8
-3 1 -8 34.6 17.5
3 -1 8 45.8 17.6
3 -1 8 76.59 18.6
-4 1 -8 74.49 15.6
-4 1 -8 86.69 30.5
-4 1 -8 58.79 25.7
4 -1 8 116.19 31.8
4 -1 8 59.29 23.7
4 -1 8 118.19 27.4
5 0 -8 600.84 52.79
5 0 -8 479.85 45.6
-5 0 8 459.85 45.8
-5 0 8 440.06 50.39
-5 0 8 495.85 53.49
-5 0 8 484.05 33
-5 0 8 502.85 46.5
4 0 -8 312.07 30.8
4 0 -8 313.97 32.7
-4 0 8 366.56 32.3
-4 0 8 327.67 32.8
-4 0 8 286.57 23.2
-4 0 8 324.77 27.4
3 0 -8 197.18 23.8
3 0 -8 229.68 23.4
-3 0 8 217.98 24.5
-3 0 8 189.98 22.7
-3 0 8 194.18 17.9
-3 0 8 147.49 19.7
2 0 -8 2003.7 82.29
2 0 -8 2339.47 84.89
-2 0 8 2371.66 84.79
1 0 -8 41.2 12.4
1 0 -8 42.3 11.6
-1 0 8 43.5 6.2
-1 0 8 34.9 12.1
-1 0 8 34.3 11.4
0 0 -8 1845.02 71.49
0 0 -8 1776.22 71.29
0 0 8 1788.92 63.79
0 0 8 1876.11 71.79
0 0 8 1719.13 70.89
-1 0 -8 422.16 30.4
-1 0 -8 430.26 30.1
-1 0 -8 454.35 27.2
1 0 8 417.66 30.6
1 0 8 449.95 29
-2 0 -8 9.5 13.4
-2 0 -8 19.9 12.9
2 0 8 21.3 15.1
2 0 8 42 14.2
-3 0 -8 521.65 27.6
-3 0 -8 372.86 37.7
-3 0 -8 596.54 44.5
3 0 8 522.05 41.2
3 0 8 539.75 41.6
-4 0 -8 63.69 32.7
-4 0 -8 118.89 30.7
-4 0 -8 104.39 29.6
-4 0 -8 65.19 13.7
4 0 8 64.29 26.5
4 0 8 33 26
4 0 8 46.8 45.7
5 -1 -8 -13.5 19.3
5 -1 -8 28.9 23.1
-5 1 8 -3.9 19.5
-5 1 8 -1.1 18.5
-5 1 8 24 17.9
-5 1 8 1.9 14.5
-5 1 8 1.9 21.9
4 -1 -8 978.9 49.4
4 -1 -8 972.8 50.59
-4 1 8 948.71 49.5
-4 1 8 1009.5 49.9
-4 1 8 955.3 44.7
-4 1 8 978.2 43
3 -1 -8 255.77 23.9
3 -1 -8 287.17 25.8
-3 1 8 219.58 22.9
-3 1 8 298.77 25.4
-3 1 8 222.98 19.4
-3 1 8 252.77 14.6
2 -1 -8 280.77 24.4
-2 1 8 266.07 23.8
-2 1 8 258.47 23.8
1 -1 -8 3359.96 120.49
1 -1 -8 3372.16 121.19
-1 1 8 3473.95 121.19
-1 1 8 3564.44 121.79
0 -1 -8 0.7 11
0 -1 -8 -6.8 5.8
0 -1 -8 -22.5 9.8
0 1 8 24.7 12.4
0 1 8 -1.7 9
-1 -1 -8 2066.89 78.69
-1 -1 -8 2151.98 83.79
-1 -1 -8 2193.38 82.29
1 1 8 2092.09 83.19
1 1 8 2100.79 84.09
-2 -1 -8 800.52 43.9
-2 -1 -8 719.53 42.6
2 1 8 739.93 43.7
2 1 8 696.93 45.5
-3 -1 -8 73.39 24.5
-3 -1 -8 44.6 21.8
-3 -1 -8 88.69 24.4
-3 -1 -8 72.59 11.9
3 1 8 88.39 26
3 1 8 41.9 21.3
5 -2 -8 730.43 45.6
5 -2 -8 746.33 50.59
-5 2 8 753.32 53.19
-5 2 8 765.82 52.79
-5 2 8 643.64 62.49
-5 2 8 786.92 47.4
4 -2 -8 -4.9 14.6
4 -2 -8 1.6 13.5
-4 2 8 -13.8 12.1
-4 2 8 -3.5 11.6
-4 2 8 20.7 12.9
3 -2 -8 901.51 47.5
3 -2 -8 993.5 46.2
-3 2 8 1017.1 47
-3 2 8 962.5 42.8
-3 2 8 861.41 49.6
2 -2 -8 568.14 34.2
2 -2 -8 522.55 34.2
-2 2 8 599.94 34.5
-2 2 8 572.34 34.7
1 -2 -8 221.58 24.4
-1 2 8 168.48 22.6
-1 2 8 209.98 22.2
0 -2 -8 1566.94 57.99
0 -2 -8 1687.63 66.59
0 -2 -8 1563.54 67.79
0 2 8 1629.84 66.99
0 2 8 1572.94 67.89
-1 -2 -8 205.08 20.7
-1 -2 -8 194.18 24.6
-1 -2 -8 238.88 26.9
1 2 8 209.18 25.3
1 2 8 185.28 24.6
-2 -2 -8 563.94 39.4
-2 -2 -8 515.75 42.1
-2 -2 -8 499.35 41.5
2 2 8 466.05 39.8
2 2 8 525.65 42.6
-3 -2 -8 453.05 48.3
-3 -2 -8 400.46 44.2
-3 -2 -8 459.05 49.99
-3 -2 -8 430.06 19.9
3 2 8 489.05 45.3
3 2 8 460.45 50.69
3 2 8 447.86 39.6
5 -3 -8 192.18 27.6
5 -3 -8 148.79 22.7
-5 3 8 160.48 24.6
-5 3 8 146.39 27.4
-5 3 8 173.98 25.3
-5 3 8 188.88 30.3
4 -3 -8 1474.35 64.09
4 -3 -8 1561.54 68.89
-4 3 8 1515.95 63.99
-4 3 8 1660.43 70.59
-4 3 8 1515.85 65.09
3 -3 -8 -6.7 13.5
3 -3 -8 9.6 11.4
-3 3 8 3.6 11.6
-3 3 8 11.2 13.6
-3 3 8 -12.5 10.8
-3 3 8 -13.6 9.8
2 -3 -8 1006.1 49.6
2 -3 -8 980.3 47.7
-2 3 8 971.6 48.4
-2 3 8 986.7 47.3
1 -3 -8 616.54 23.2
1 -3 -8 591.04 36.5
1 -3 -8 575.04 36.7
-1 3 8 560.04 36.8
-1 3 8 630.04 37.5
0 -3 -8 334.07 30.1
0 -3 -8 344.47 31.3
0 -3 -8 329.57 21.7
0 3 8 274.47 43.4
-1 -3 -8 894.91 43.7
-1 -3 -8 839.12 51.09
1 3 8 974.8 52.99
1 3 8 792.62 49.2
-2 -3 -8 90.99 24.5
-2 -3 -8 90.59 22.2
-2 -3 -8 114.99 27.2
2 3 8 134.69 28.1
2 3 8 101.29 17
2 3 8 79.59 23.1
-3 -3 -8 137.69 37.1
-3 -3 -8 208.68 38.7
-3 -3 -8 155.48 33.4
3 3 8 192.58 38.5
3 3 8 139.89 32.7
3 3 8 144.29 26
5 -4 -8 97.59 25.3
5 -4 -8 126.19 21.7
-5 4 8 120.39 22.6
-5 4 8 132.69 21.2
-5 4 8 120.29 25.6
-5 4 8 155.68 27.9
4 -4 -8 71.19 20.3
4 -4 -8 82.59 17.2
-4 4 8 103.49 20.2
-4 4 8 83.59 19.3
-4 4 8 0.1 21
-4 4 8 71.69 16.7
3 -4 -8 1166.98 54.49
3 -4 -8 1198.08 57.09
-3 4 8 1221.88 54.09
-3 4 8 1249.38 53.99
-3 4 8 1116.89 55.99
-3 4 8 1254.87 55.19
2 -4 -8 126.29 20
2 -4 -8 105.09 21
-2 4 8 95.49 19.3
-2 4 8 98.69 18.3
1 -4 -8 443.36 35.5
1 -4 -8 405.66 21.1
-1 4 8 445.76 33.6
0 -4 -8 101.79 20.4
0 -4 -8 49.2 12.6
0 -4 -8 82.19 19.3
0 4 8 58.39 24.2
0 4 8 49.99 17.6
-1 -4 -8 170.68 27.6
-1 -4 -8 165.28 27.9
-1 -4 -8 205.48 27.1
1 4 8 187.68 27.7
1 4 8 120.29 23.4
-2 -4 -8 381.96 40.4
-2 -4 -8 487.85 49.6
-2 -4 -8 357.76 42.7
2 4 8 407.16 43.6
2 4 8 385.46 29.6
2 4 8 337.37 43.2
4 -5 -8 103.09 18.6
4 -5 -8 109.59 22
-4 5 8 126.29 22.5
-4 5 8 115.79 21.8
-4 5 8 85.19 21
-4 5 8 131.79 19.9
3 -5 -8 117.29 19.5
3 -5 -8 137.39 21.9
-3 5 8 104.39 18.5
-3 5 8 115.19 18.4
-3 5 8 109.89 20.2
2 -5 -8 1082.99 54.89
2 -5 -8 998.7 54.19
2 -5 -8 981.3 35.7
-2 5 8 1045.2 53.29
-2 5 8 1182.78 45
1 -5 -8 557.94 41.5
1 -5 -8 623.04 42.7
-1 5 8 601.84 28.8
0 -5 -8 432.76 43.4
0 -5 -8 449.95 39.7
0 5 8 471.45 40.2
-1 -5 -8 390.56 47.3
-1 -5 -8 444.16 40.5
-1 -5 -8 333.67 43.9
1 5 8 324.27 43.4
1 5 8 396.36 47.6
1 5 8 394.36 22.2
4 -6 -8 674.53 41.7
4 -6 -8 645.94 44.2
-4 6 8 607.64 41.7
-4 6 8 557.84 46.2
-4 6 8 702.53 44
3 -6 -8 449.06 39.6
3 -6 -8 505.75 38.7
-3 6 8 493.25 37.7
-3 6 8 469.45 39.5
-3 6 8 482.55 33.2
2 -6 -8 83.49 22.8
2 -6 -8 103.19 21.9
-2 6 8 88.39 13.4
-2 6 8 78.89 21.1
-2 6 8 119.29 21.8
1 -6 -8 564.74 45.5
1 -6 -8 524.15 42.3
-1 6 8 466.05 43.4
-1 6 8 504.65 24.4
0 -6 -8 98.29 26.3
0 -6 -8 136.69 31.1
0 6 8 176.08 29.9
0 6 8 157.18 31.7
-1 -6 -8 82.69 31.6
-1 -6 -8 130.89 38.1
1 6 8 95.39 32.5
1 6 8 92.89 38.5
3 -7 -8 350.26 20.6
3 -7 -8 349.27 40.5
3 -7 -8 361.16 41.1
-3 7 8 346.57 33.1
-3 7 8 359.46 38.9
-3 7 8 381.26 41.7
-3 7 8 360.86 32.9
2 -7 -8 358.26 40.7
2 -7 -8 323.07 43
-2 7 8 417.86 45.2
-2 7 8 313.77 42
-2 7 8 363.46 24.2
-2 7 8 298.87 31.3
1 -7 -8 19.9 25.1
-1 7 8 -63.29 25.3
-1 7 8 13.5 25.9
1 8 -9 628.14 53.59
1 8 -9 582.64 37.9
1 8 -9 617.64 54.39
-1 -8 9 650.53 51.39
-1 -8 9 639.64 54.69
0 8 -9 65.99 17.1
0 8 -9 42.4 24.2
0 -8 9 84.39 25.2
0 -8 9 22.2 18.5
-1 8 -9 147.29 21.8
-1 8 -9 145.79 21.5
-1 8 -9 126.99 23.9
1 -8 9 117.39 24
1 -8 9 150.08 22.2
-2 8 -9 523.85 39.3
-2 8 -9 486.55 33
-2 8 -9 539.75 37.9
2 -8 9 487.15 34.2
2 -8 9 461.75 52.69
2 -8 9 492.45 39.2
2 7 -9 800.02 59.49
2 7 -9 687.43 40
2 7 -9 689.33 59.89
-2 -7 9 750.22 60.49
-2 -7 9 696.93 56.39
-2 -7 9 769.12 48.7
1 7 -9 -20.5 11.9
1 7 -9 -1.9 21.5
1 7 -9 29.3 19.9
-1 -7 9 19.1 18.5
-1 -7 9 19.4 20.9
0 7 -9 649.24 45.1
0 7 -9 705.43 41.7
0 7 -9 689.13 38.8
0 -7 9 709.83 46
0 -7 9 723.83 43.5
-1 7 -9 444.96 30.9
-1 7 -9 376.96 30.3
1 -7 9 343.27 29.9
1 -7 9 429.56 33.9
-2 7 -9 14.4 14
-2 7 -9 50.79 13.4
2 -7 9 24.4 13
2 -7 9 14.1 25.1
2 -7 9 17.6 15.8
-3 7 -9 191.08 24.7
-3 7 -9 180.78 20.3
-3 7 -9 233.18 23.2
3 -7 9 224.48 22.5
3 -7 9 200.88 26.3
3 -7 9 127.59 37.1
2 6 -9 139.79 28
2 6 -9 140.99 27.1
-2 -6 9 192.48 27.6
-2 -6 9 140.59 28.6
1 6 -9 1013.3 52.49
-1 -6 9 994.5 55.29
-1 -6 9 966.8 51.89
0 6 -9 -4.3 12
0 -6 9 3.4 14.5
0 -6 9 0.2 12.5
-1 6 -9 597.84 37.7
-1 6 -9 583.24 34.6
-1 6 -9 559.64 35.1
1 -6 9 595.84 35.4
1 -6 9 625.84 37.7
-2 6 -9 649.54 38.6
-2 6 -9 654.23 38.9
-2 6 -9 727.63 36.3
2 -6 9 692.33 37.5
2 -6 9 656.33 38.6
2 -6 9 639.34 48.9
-3 6 -9 225.38 26.9
-3 6 -9 237.78 24.9
3 -6 9 275.27 38
3 -6 9 247.28 27.5
3 5 -9 636.44 50.59
3 5 -9 611.54 53.49
-3 -5 9 547.95 48.8
-3 -5 9 521.25 50.99
-3 -5 9 556.24 42.4
2 5 -9 250.17 31.4
2 5 -9 216.08 28.4
-2 -5 9 196.08 26.1
-2 -5 9 175.48 27.3
-1 -5 9 795.22 43.8
-1 -5 9 728.53 44.1
0 5 -9 2068.89 79.39
0 5 -9 2039.6 80.49
0 -5 9 1988.3 80.79
0 -5 9 2072.19 80.59
-1 5 -9 2.9 8.3
-1 5 -9 0.9 10
-1 5 -9 0.5 14.2
1 -5 9 -4.2 10.1
1 -5 9 -9.9 12.9
1 -5 9 10.3 12.1
-2 5 -9 469.65 32.8
-2 5 -9 460.55 31.3
-2 5 -9 488.45 30.6
2 -5 9 476.65 32.4
2 -5 9 515.35 31.1
-3 5 -9 472.25 32.9
-3 5 -9 530.15 34.3
-3 5 -9 506.85 33.4
3 -5 9 480.55 33.4
3 -5 9 515.05 42.6
3 -5 9 509.85 33.8
-4 5 -9 -0.7 15
-4 5 -9 -25.1 15.5
4 -5 9 -12.6 16.6
4 -5 9 -37.8 28.2
4 -5 9 -16.8 16.5
4 -5 9 -8.2 36.1
3 4 -9 23.5 22.6
3 4 -9 4.1 19.4
-3 -4 9 -0.8 21.5
-3 -4 9 -22.7 15
-3 -4 9 10.7 20.4
2 4 -9 899.11 48.7
2 4 -9 864.91 49.6
-2 -4 9 822.72 47.4
-2 -4 9 867.81 49.4
-2 -4 9 876.41 29.4
1 4 -9 1046.4 60.09
-1 -4 9 1200.18 54.79
-1 -4 9 1142.59 53.49
0 4 -9 283.97 26
0 4 -9 299.37 24.9
0 -4 9 332.37 25.9
0 -4 9 334.27 26.9
-1 4 -9 1447.76 63.49
-1 4 -9 1622.24 63.49
1 -4 9 1518.35 64.29
1 -4 9 1476.75 65.49
1 -4 9 1606.04 63.79
-2 4 -9 62.89 17.1
-2 4 -9 63.19 15.6
-2 4 -9 41 14.1
2 -4 9 41.1 12.5
2 -4 9 61.89 16.8
2 -4 9 69.19 15.5
-3 4 -9 461.75 34.5
-3 4 -9 484.25 32.7
3 -4 9 467.35 39.7
3 -4 9 445.06 33.5
3 -4 9 435.16 33.5
-4 4 -9 131.19 23.1
-4 4 -9 141.19 21.8
-4 4 -9 148.59 23.9
4 -4 9 123.79 38.3
4 -4 9 103.29 31.5
4 -4 9 159.78 23.6
4 -4 9 152.08 23.2
4 3 -9 176.28 30.4
4 3 -9 126.89 29.7
-4 -3 9 156.08 31.4
-4 -3 9 151.68 24.2
-4 -3 9 137.19 32.1
3 3 -9 912.51 53.79
3 3 -9 1019.8 54.39
-3 -3 9 922.81 37.6
-3 -3 9 1083.69 52.49
-3 -3 9 945.41 54.99
-3 -3 9 1036.1 55.09
2 3 -9 -0.8 12.8
-2 -3 9 -4 16
-2 -3 9 -4.2 12.2
-2 -3 9 4.8 7.1
1 3 -9 975.4 44.4
1 3 -9 888.31 46.2
-1 -3 9 896.91 45.1
-1 -3 9 896.91 45.8
0 3 -9 1183.08 52.49
0 3 -9 1171.48 51.99
0 -3 9 1104.49 51.59
0 -3 9 1168.18 49.7
0 -3 9 1150.28 52.29
-1 3 -9 183.68 23.5
-1 3 -9 162.18 21.8
1 -3 9 156.08 20.2
1 -3 9 196.68 23.4
1 -3 9 167.18 21.7
-2 3 -9 680.93 38.7
-2 3 -9 649.83 35.1
-2 3 -9 649.54 38
2 -3 9 583.54 42.2
2 -3 9 643.24 37.4
2 -3 9 660.03 39.1
-3 3 -9 -3.9 15.8
-3 3 -9 26.5 14.2
3 -3 9 -1.6 14.3
3 -3 9 12.4 16
3 -3 9 15 22.2
-4 3 -9 385.16 31.7
-4 3 -9 433.16 43.4
-4 3 -9 297.57 42.3
-4 3 -9 385.86 40.2
4 -3 9 361.26 38.9
4 -3 9 352.66 45.9
4 -3 9 327.37 39.7
4 2 -9 406.16 40.4
4 2 -9 454.15 45.5
-4 -2 9 454.65 44.8
-4 -2 9 445.36 39.1
-4 -2 9 449.46 42.9
-4 -2 9 469.55 27.7
3 2 -9 247.28 28
3 2 -9 209.68 31.4
-3 -2 9 171.38 24
-3 -2 9 249.68 28
-3 -2 9 245.48 17.9
-3 -2 9 239.08 30.8
2 2 -9 565.04 36.5
2 2 -9 623.04 36.4
-2 -2 9 551.64 34.1
-2 -2 9 566.94 37
-2 -2 9 541.95 25.4
1 2 -9 27 10.4
1 2 -9 3.2 11.8
-1 -2 9 27.7 12.1
0 2 -9 1267.67 57.29
0 2 -9 1275.07 56.69
0 -2 9 1350.96 57.89
0 -2 9 1366.76 53.19
-1 2 -9 1277.77 57.09
-1 2 -9 1342.57 57.69
1 -2 9 1259.47 56.69
1 -2 9 1267.47 57.39
1 -2 9 1314.07 56.09
-2 2 -9 -2.8 12.5
-2 2 -9 13 13.2
-2 2 -9 4.9 13.8
2 -2 9 18.4 12.1
2 -2 9 -4.9 17.3
2 -2 9 -8.7 13.1
-3 2 -9 968.1 56.09
-3 2 -9 684.03 47.6
-3 2 -9 879.91 41.9
-3 2 -9 954.4 50.79
3 -2 9 923.51 50.69
3 -2 9 871.01 50.19
-4 2 -9 150.48 35.9
-4 2 -9 113.69 19.5
-4 2 -9 126.09 28.8
-4 2 -9 114.39 27.5
4 -2 9 150.48 27.2
4 -2 9 138.89 27.8
4 -2 9 123.89 31.3
4 1 -9 868.61 50.79
-4 -1 9 875.31 40.6
-4 -1 9 857.01 50.49
-4 -1 9 936.41 54.19
-4 -1 9 884.21 53.29
3 1 -9 2217.98 90.49
3 1 -9 2188.48 89.69
-3 -1 9 2220.08 79.19
-3 -1 9 2201.38 89.09
-3 -1 9 2539.15 89.49
2 1 -9 218.98 23.8
2 1 -9 233.98 25.9
-2 -1 9 238.88 24.7
1 1 -9 3708.43 126.99
1 1 -9 3557.14 126.89
-1 -1 9 3494.55 126.39
-1 -1 9 3685.63 126.99
-1 -1 9 3548.74 116.39
0 1 -9 336.07 25.3
0 1 -9 318.77 26.2
0 -1 9 274.67 19.5
0 -1 9 290.17 26.3
-1 1 -9 1173.98 54.19
-1 1 -9 1135.49 53.99
1 -1 9 1206.38 51.29
1 -1 9 1118.59 54.19
1 -1 9 1161.78 53.49
-2 1 -9 618.74 50.99
-2 1 -9 562.94 38.4
-2 1 -9 640.24 40.9
2 -1 9 666.53 40.6
-3 1 -9 44.2 19.3
-3 1 -9 51.79 21.1
-3 1 -9 48.4 20.7
-3 1 -9 22.3 12.3
3 -1 9 9.5 18.3
3 -1 9 42 20.2
-4 1 -9 231.78 37.3
-4 1 -9 263.47 26.2
-4 1 -9 235.98 37.4
4 -1 9 211.08 34.3
4 -1 9 240.98 32.9
4 -1 9 217.58 36.6
5 0 -9 635.44 78.19
5 0 -9 718.13 54.39
-5 0 9 619.64 60.09
-5 0 9 832.82 51.39
-5 0 9 731.03 42.8
-5 0 9 731.13 52.79
-5 0 9 747.43 55.69
4 0 -9 33.8 17
4 0 -9 26.9 19
-4 0 9 19.9 19.7
-4 0 9 32.4 12.3
-4 0 9 18.3 19.1
-4 0 9 -1 15.7
-4 0 9 -2.6 12.6
3 0 -9 771.02 44.9
3 0 -9 793.52 45
-3 0 9 824.72 43.6
-3 0 9 801.32 36.9
-3 0 9 845.42 46.3
2 0 -9 986.7 49.6
2 0 -9 1078.19 49.8
-2 0 9 919.51 48.6
-2 0 9 1135.69 50.89
1 0 -9 12.7 11.4
-1 0 9 16.7 5.6
-1 0 9 19.5 12.4
-1 0 9 21.7 10.4
0 0 -9 1606.94 68.69
0 0 -9 1664.63 68.99
0 0 9 1628.54 60.19
0 0 9 1675.13 69.29
-1 0 -9 21 15.4
-1 0 -9 65.69 15.2
-1 0 -9 48.5 12.7
1 0 9 71.29 16.5
1 0 9 26.5 12.6
-2 0 -9 787.52 45.3
2 0 9 699.73 45.5
2 0 9 731.63 44.9
-3 0 -9 224.48 22.3
-3 0 -9 288.27 38.9
-3 0 -9 229.18 30.7
-3 0 -9 246.68 32.1
3 0 9 278.07 34
3 0 9 205.58 29.9
5 -1 -9 151.38 31.2
5 -1 -9 116.19 25
-5 1 9 132.89 22.2
-5 1 9 106.29 27.9
-5 1 9 78.89 28
4 -1 -9 901.41 49.9
4 -1 -9 845.12 51.49
-4 1 9 833.72 41.8
-4 1 9 838.32 49.5
-4 1 9 837.42 37.2
-4 1 9 800.02 50.29
-4 1 9 960.4 49
3 -1 -9 42 17
3 -1 -9 28.3 15.1
-3 1 9 37.6 11.7
-3 1 9 44 13.8
-3 1 9 39.6 16
2 -1 -9 1331.57 58.89
2 -1 -9 1323.07 59.49
-2 1 9 1313.57 58.29
-2 1 9 1296.97 59.39
1 -1 -9 621.44 39.2
1 -1 -9 784.52 38.8
-1 1 9 682.93 39.3
-1 1 9 648.84 39
0 -1 -9 9.4 7.3
0 -1 -9 3.5 12.7
0 1 9 -1.2 12.8
-1 -1 -9 1101.69 56.19
-1 -1 -9 1165.88 50.59
1 1 9 1193.48 56.79
1 1 9 1125.29 57.29
-2 -1 -9 207.48 27.5
-2 -1 -9 177.28 26
2 1 9 170.38 23.8
2 1 9 136.89 27.6
-3 -1 -9 129.39 15
-3 -1 -9 79.89 27.6
-3 -1 -9 127.09 28.7
-3 -1 -9 192.68 32.3
3 1 9 52.69 22.5
3 1 9 134.29 30.7
3 1 9 140.49 28.2
5 -2 -9 182.98 29.8
5 -2 -9 140.99 25.6
-5 2 9 161.48 32.5
-5 2 9 201.48 26.3
-5 2 9 208.18 28.3
-5 2 9 198.08 32.7
4 -2 -9 213.68 27.4
4 -2 -9 216.88 26.9
-4 2 9 208.68 24.3
-4 2 9 190.98 26.5
-4 2 9 184.98 25.5
-4 2 9 178.68 22.3
3 -2 -9 1769.02 71.49
3 -2 -9 1719.23 72.79
-3 2 9 1690.53 66.29
-3 2 9 1660.83 73.59
2 -2 -9 71.29 17.2
2 -2 -9 96.49 16.9
-2 2 9 85.79 16.6
1 -2 -9 1326.87 62.09
1 -2 -9 1303.67 60.99
-1 2 9 1486.65 63.09
-1 2 9 1389.46 62.19
0 -2 -9 1393.96 64.09
0 -2 -9 1370.46 52.69
0 -2 -9 1391.16 63.99
0 2 9 1383.46 64.09
0 2 9 1364.56 62.79
-1 -2 -9 1.1 16.3
-1 -2 -9 7.6 15.7
1 2 9 -10.4 18.2
1 2 9 -6.8 15.9
-2 -2 -9 692.23 51.09
-2 -2 -9 647.14 44.4
-2 -2 -9 560.04 49.8
2 2 9 645.84 50.09
2 2 9 714.43 48.3
-3 -2 -9 7.9 28.3
-3 -2 -9 154.38 36.6
-3 -2 -9 106.59 12
-3 -2 -9 151.18 36.1
3 2 9 19.8 26.5
3 2 9 195.18 37.6
3 2 9 113.49 31
4 -3 -9 683.03 42.1
4 -3 -9 624.84 44.6
-4 3 9 610.04 38.9
-4 3 9 672.43 43.3
-4 3 9 652.53 40.4
-4 3 9 637.54 45.4
3 -3 -9 24.2 14.8
3 -3 -9 46.7 18.2
-3 3 9 17.1 14.4
-3 3 9 7.8 12.2
2 -3 -9 1816.92 75.89
-2 3 9 1720.13 69.49
-2 3 9 1827.32 75.49
-2 3 9 1801.12 74.99
1 -3 -9 410.46 17.9
1 -3 -9 444.26 35.2
1 -3 -9 425.36 33.8
-1 3 9 483.55 32.9
0 -3 -9 105.89 14
0 -3 -9 106.29 21.7
0 3 9 146.79 21.9
0 3 9 120.39 22
-1 -3 -9 626.54 47.5
-1 -3 -9 561.44 37.6
-1 -3 -9 643.44 46.5
1 3 9 557.34 44.6
1 3 9 572.04 46.6
-2 -3 -9 28 25.9
-2 -3 -9 -54.39 25.8
-2 -3 -9 8.2 21.6
2 3 9 -17.2 26.1
2 3 9 38.1 23.3
4 -4 -9 303.67 32.2
4 -4 -9 285.97 38
-4 4 9 287.67 32.2
-4 4 9 314.17 32.2
-4 4 9 299.67 33.7
3 -4 -9 331.27 33.5
3 -4 -9 382.06 36.1
-3 4 9 383.46 30.7
-3 4 9 390.66 29.9
2 -4 -9 4.1 16.1
2 -4 -9 18.9 15.4
-2 4 9 17.5 15.1
1 -4 -9 1199.78 43
1 -4 -9 1139.89 58.69
1 -4 -9 1135.99 59.59
0 -4 -9 137.09 25
0 -4 -9 129.29 16.7
0 -4 -9 100.39 24.8
0 4 9 141.59 24.1
0 4 9 116.19 24.2
-1 -4 -9 471.75 34.9
-1 -4 -9 419.46 46.6
-1 -4 -9 386.26 44
1 4 9 394.86 47
1 4 9 396.96 42.5
-2 -4 -9 445.26 54.09
-2 -4 -9 414.26 45.5
-2 -4 -9 397.56 47.6
2 4 9 443.96 34.7
2 4 9 340.57 41.8
2 4 9 548.55 58.89
4 -5 -9 2.9 21.5
4 -5 -9 22.8 17.4
-4 5 9 -25.5 20.2
-4 5 9 1.1 15.7
-4 5 9 3 19.9
3 -5 -9 573.44 39.6
3 -5 -9 614.54 45.8
-3 5 9 615.04 44.9
-3 5 9 593.04 38.9
-3 5 9 591.04 41.3
2 -5 -9 759.62 50.29
2 -5 -9 607.24 46.8
-2 5 9 886.81 36.8
-2 5 9 666.03 48.9
-2 5 9 717.03 45.8
1 -5 -9 29.1 20
1 -5 -9 11.4 20.2
1 -5 -9 13.4 10.2
-1 5 9 5 20.1
-1 5 9 17.2 10.8
0 -5 -9 374.46 46.6
0 -5 -9 370.06 41.9
0 5 9 376.36 42.2
0 5 9 354.16 44.1
-1 -5 -9 121.29 26.4
-1 -5 -9 91.29 30.4
-1 -5 -9 109.29 33.2
1 5 9 126.39 35.6
1 5 9 124.69 15
1 5 9 119.49 31.1
3 -6 -9 113.59 26.6
3 -6 -9 120.69 24.1
-3 6 9 137.59 23.8
-3 6 9 87.19 25.2
-3 6 9 144.99 24
2 -6 -9 62.99 8.3
2 -6 -9 78.79 9.4
2 -6 -9 99.69 24.2
2 -6 -9 76.99 25.3
-2 6 9 97.89 24.1
-2 6 9 113.39 26.6
1 -6 -9 695.73 54.69
-1 6 9 657.73 31
-1 6 9 674.13 53.79
-1 6 9 667.53 53.69
0 -6 -9 29.4 20.1
0 -6 -9 -22 25.8
0 -6 -9 2.3 30.3
0 6 9 -1 29.8
0 6 9 11.8 6.5
0 6 9 46.7 27.9
0 8 -10 178.58 31.4
0 8 -10 200.68 24.4
0 -8 10 203.88 31.5
0 -8 10 140.49 26.6
-1 8 -10 580.84 48.4
-1 8 -10 495.65 39.1
-1 8 -10 475.05 36.1
1 -8 10 449.06 39.7
1 -8 10 496.05 44.2
-2 8 -10 345.77 33.6
-2 8 -10 416.76 41.2
-2 8 -10 336.97 33.3
2 -8 10 388.16 34.1
2 -8 10 312.47 38.3
2 -8 10 326.07 46.8
1 7 -10 107.09 27.6
1 7 -10 62.29 17.3
-1 -7 10 121.79 25.2
-1 -7 10 94.69 26.8
0 7 -10 558.44 44
0 7 -10 585.44 37
0 -7 10 625.14 44.8
0 -7 10 598.34 41
-1 7 -10 148.09 20.6
-1 7 -10 176.88 25.6
-1 7 -10 158.88 22.4
1 -7 10 232.78 28.2
1 -7 10 190.38 25.8
-2 7 -10 115.39 22.7
-2 7 -10 118.99 19.7
-2 7 -10 132.79 21.1
2 -7 10 124.19 18.8
2 -7 10 109.79 31.3
2 -7 10 98.79 20.9
-3 7 -10 106.89 22.1
-3 7 -10 92.29 17.7
3 -7 10 138.89 19.1
3 -7 10 106.49 40.3
3 -7 10 78.19 22.1
2 6 -10 516.25 46
2 6 -10 512.65 50.49
-2 -6 10 559.44 48.9
-2 -6 10 476.05 45.4
1 6 -10 351.56 34.8
-1 -6 10 358.06 34
0 6 -10 153.68 22.6
0 6 -10 199.38 25.5
0 -6 10 251.57 32
0 -6 10 215.18 27.8
-1 6 -10 896.11 45
-1 6 -10 898.01 45.7
1 -6 10 879.01 45.1
1 -6 10 689.83 49.3
1 -6 10 813.52 47.9
-2 6 -10 26.3 14.3
-2 6 -10 11.6 13.7
2 -6 10 39.9 15.4
2 -6 10 8.5 15.5
2 -6 10 56.19 25.4
-3 6 -10 18 15.8
-3 6 -10 20.9 15.7
-3 6 -10 29.3 16.8
3 -6 10 36.6 17.5
3 -6 10 82.29 33.3
3 5 -10 609.44 52.09
3 5 -10 573.44 56.49
-3 -5 10 638.04 56.99
-3 -5 10 685.83 47.3
-3 -5 10 645.24 54.09
2 5 -10 127.19 26.3
2 5 -10 86.79 23.1
-2 -5 10 77.19 22.1
-2 -5 10 86.19 22.8
1 5 -10 630.24 41.6
-1 -5 10 722.93 43.1
-1 -5 10 650.33 43.3
-1 -5 10 666.13 23.7
0 5 -10 1256.27 57.19
0 -5 10 1243.58 57.89
0 -5 10 1235.08 58.69
-1 5 -10 8.8 12.3
-1 5 -10 5.8 15.4
1 -5 10 11.4 14.8
1 -5 10 33.3 17.1
-2 5 -10 1113.89 54.19
-2 5 -10 1218.88 54.49
2 -5 10 1210.18 54.99
2 -5 10 1191.48 55.09
2 -5 10 1095.19 62.49
-3 5 -10 53.19 18
-3 5 -10 57.69 19.1
-3 5 -10 80.89 18.1
3 -5 10 50.19 18.1
3 -5 10 69.59 18.6
3 -5 10 48.7 24.2
3 4 -10 189.58 30.6
3 4 -10 117.59 25
-3 -4 10 116.89 25.5
-3 -4 10 112.09 23.4
-3 -4 10 83.89 26
2 4 -10 1547.85 72.89
2 4 -10 1665.73 73.89
-2 -4 10 1535.95 71.89
-2 -4 10 1626.94 73.59
1 4 -10 270.47 26.4
1 4 -10 217.88 28.5
-1 -4 10 199.08 25.3
0 4 -10 368.56 29.3
0 -4 10 376.76 32.2
-1 4 -10 1505.75 65.69
-1 4 -10 1572.64 64.69
1 -4 10 1447.46 65.19
1 -4 10 1480.65 74.39
1 -4 10 1431.96 71.59
-2 4 -10 27.4 13.1
-2 4 -10 47.5 15.6
-2 4 -10 25 24.6
2 -4 10 19.3 15
2 -4 10 35 14.2
-3 4 -10 309.27 33.7
-3 4 -10 353.76 34.4
-3 4 -10 412.86 30.4
3 -4 10 341.17 43.9
3 -4 10 346.27 34.4
3 -4 10 316.57 32.7
4 3 -10 382.46 50.99
4 3 -10 425.96 46.5
-4 -3 10 290.37 41
-4 -3 10 318.27 40.6
-4 -3 10 277.47 38.6
3 3 -10 818.62 54.09
3 3 -10 889.81 53.19
-3 -3 10 916.01 53.99
-3 -3 10 849.22 54.19
-3 -3 10 827.12 49.4
2 3 -10 34.5 16.7
2 3 -10 53.29 17.8
-2 -3 10 25.7 16.2
-2 -3 10 40.3 19.7
-2 -3 10 57.59 9.8
1 3 -10 1819.52 70.69
-1 -3 10 1549.64 70.29
-1 -3 10 1697.43 71.79
0 3 -10 182.48 22.8
0 3 -10 155.38 21.3
0 -3 10 144.99 18.8
0 -3 10 143.99 19.9
0 -3 10 158.28 21.7
-1 3 -10 288.27 27.8
-1 3 -10 279.07 26.8
1 -3 10 321.57 27.6
1 -3 10 289.77 28.7
1 -3 10 292.57 28.4
-2 3 -10 1112.59 55.59
2 -3 10 1169.48 56.09
2 -3 10 1135.49 58.89
2 -3 10 1100.69 54.79
-3 3 -10 32.8 19.3
-3 3 -10 -3.3 13.2
-3 3 -10 -34.8 18.3
3 -3 10 -0.9 15.7
3 -3 10 7 18.2
3 -3 10 -16.9 23.8
4 2 -10 91.39 28.1
4 2 -10 67.39 23.8
-4 -2 10 30.8 14.2
-4 -2 10 30.3 26.2
-4 -2 10 44 22.9
-4 -2 10 48.1 20.1
3 2 -10 412.46 36.8
3 2 -10 446.26 39.8
-3 -2 10 456.15 38.9
-3 -2 10 445.56 36.7
-3 -2 10 399.66 35.2
-3 -2 10 402.56 24.3
2 2 -10 1411.06 65.19
2 2 -10 1477.65 66.89
-2 -2 10 1470.45 67.69
-2 -2 10 1422.36 65.39
1 2 -10 649.14 33.8
1 2 -10 460.05 34.6
-1 -2 10 493.05 34.8
-1 -2 10 518.35 35.9
0 2 -10 2631.04 104.49
0 2 -10 2869.01 105.59
0 -2 10 2855.91 99.29
0 -2 10 2900.31 105.79
0 -2 10 2801.62 105.09
-1 2 -10 246.48 31
-1 2 -10 276.27 27.7
1 -2 10 292.87 28.5
1 -2 10 264.57 25.4
1 -2 10 300.87 28.4
-2 2 -10 257.87 29.6
2 -2 10 337.97 33.1
2 -2 10 362.36 30.9
2 -2 10 226.68 30.6
-3 2 -10 375.86 39
-3 2 -10 431.76 43.3
-3 2 -10 431.46 41
-3 2 -10 429.76 30.4
3 -2 10 427.46 39.9
3 -2 10 435.16 37.9
4 1 -10 1098.79 60.09
4 1 -10 1069.39 63.39
-4 -1 10 1108.09 64.29
-4 -1 10 1089.79 56.89
-4 -1 10 1054.49 62.29
-4 -1 10 1089.09 47.5
3 1 -10 92.39 21.7
3 1 -10 82.19 20.1
-3 -1 10 82.09 19.3
-3 -1 10 82.99 19.8
-3 -1 10 100.19 14.1
2 1 -10 75.39 16.6
2 1 -10 68.19 16.9
-2 -1 10 69.89 21.1
1 1 -10 1193.98 57.49
1 1 -10 1279.17 56.19
-1 -1 10 1184.48 57.19
-1 -1 10 1219.58 46.3
-1 -1 10 1241.28 55.89
0 1 -10 -3.2 13.5
0 -1 10 -15.4 9.2
0 -1 10 -6.2 11.6
0 -1 10 -0.9 8.3
-1 1 -10 1177.68 56.69
1 -1 10 1211.88 58.09
1 -1 10 1128.99 56.19
1 -1 10 1208.98 53.29
-2 1 -10 520.65 36.7
2 -1 10 485.75 37.8
2 -1 10 494.25 39.6
-3 1 -10 93.19 28.1
-3 1 -10 91.49 17
-3 1 -10 76.49 24.7
3 -1 10 91.09 23.4
3 -1 10 73.29 26.6
4 0 -10 9 21.5
4 0 -10 0.7 17.4
-4 0 10 40.2 21.9
-4 0 10 4.2 13.1
-4 0 10 45.8 18.3
-4 0 10 12.9 18.8
-4 0 10 15.6 12.1
3 0 -10 1587.94 69.89
3 0 -10 1582.94 71.19
-3 0 10 1585.14 69.39
-3 0 10 1515.65 60.29
-3 0 10 1563.04 54.59
-3 0 10 1583.24 69.89
2 0 -10 579.34 38.9
2 0 -10 580.34 37
-2 0 10 565.44 21.2
-2 0 10 549.74 39.1
1 0 -10 478.15 36.1
1 0 -10 502.15 34.9
-1 0 10 516.05 22.3
-1 0 10 496.15 35.9
0 0 -10 1400.86 58.29
0 0 -10 1255.77 59.99
0 0 10 1199.98 58.79
0 0 10 1261.27 60.19
-1 0 -10 12.4 16.7
1 0 10 15.6 14.9
1 0 10 5.4 15
-2 0 -10 605.04 48.1
-2 0 -10 594.04 45.1
2 0 10 663.23 45.4
2 0 10 593.94 46.5
-3 0 -10 353.96 41.1
-3 0 -10 420.16 46.5
-3 0 -10 394.96 28.8
-3 0 -10 474.75 46.8
3 0 10 297.67 36.5
3 0 10 426.76 48.9
4 -1 -10 915.51 52.39
4 -1 -10 908.11 69.19
-4 1 10 900.41 53.69
-4 1 10 968.3 45.8
-4 1 10 964.7 56.69
-4 1 10 851.61 34.5
3 -1 -10 -20.3 13.7
3 -1 -10 -4.6 16.6
-3 1 10 6.8 10.5
-3 1 10 20 11.9
2 -1 -10 964.6 51.39
2 -1 -10 976 52.79
-2 1 10 1184.88 51.39
1 -1 -10 608.84 39.9
1 -1 -10 652.83 41.4
-1 1 10 663.93 41.3
0 -1 -10 475.65 35.5
0 -1 -10 471.15 36.8
0 1 10 450.15 36.6
0 1 10 412.36 34.2
-1 -1 -10 790.02 49.2
-1 -1 -10 753.62 45.4
1 1 10 751.72 47.5
-2 -1 -10 15.7 20.7
-2 -1 -10 -19 17.4
-2 -1 -10 -0.5 35
2 1 10 13.9 22.7
2 1 10 -4.4 18.4
-3 -1 -10 331.47 41.1
-3 -1 -10 381.66 44.5
-3 -1 -10 348.27 26.8
-3 -1 -10 311.07 41.1
3 1 10 448.16 54.69
3 1 10 346.97 41.4
3 1 10 346.67 45.7
4 -2 -10 359.16 41.9
4 -2 -10 416.36 37
-4 2 10 419.96 37.7
-4 2 10 407.46 34.8
-4 2 10 395.76 41.9
-4 2 10 345.57 29.8
3 -2 -10 1444.66 65.79
3 -2 -10 1333.67 65.69
-3 2 10 1373.96 63.49
-3 2 10 1407.36 58.99
2 -2 -10 10.8 14.2
2 -2 -10 8 15.3
-2 2 10 11.4 14.1
1 -2 -10 1103.39 56.89
1 -2 -10 1104.59 56.09
-1 2 10 1087.29 56.49
-1 2 10 1149.48 55.49
0 -2 -10 500.15 27.5
0 -2 -10 454.95 39.6
0 2 10 508.55 37.9
0 2 10 478.65 40
-1 -2 -10 83.19 22.8
-1 -2 -10 110.49 23.3
1 2 10 108.59 22.5
1 2 10 92.79 24.4
-2 -2 -10 552.44 44.2
-2 -2 -10 548.15 52.79
-2 -2 -10 563.64 51.79
2 2 10 579.24 49.3
2 2 10 601.04 53.89
4 -3 -10 154.68 24.5
4 -3 -10 195.48 29.8
-4 3 10 192.88 26.2
-4 3 10 152.58 27.7
-4 3 10 150.98 26.3
-4 3 10 188.58 25.6
3 -3 -10 494.65 41.1
3 -3 -10 426.86 36.3
-3 3 10 485.65 34.7
-3 3 10 452.95 32.4
-3 3 10 420.16 35.1
-3 3 10 455.95 38.3
2 -3 -10 929.31 51.09
2 -3 -10 904.51 52.19
-2 3 10 931.61 50.59
1 -3 -10 83.79 20.2
1 -3 -10 77.69 22.4
-1 3 10 112.09 19.6
0 -3 -10 671.33 33.3
0 -3 -10 610.94 46.5
0 -3 -10 609.14 47.3
0 3 10 654.63 45.4
0 3 10 651.83 46
-1 -3 -10 86.39 25.5
-1 -3 -10 57.99 18.3
-1 -3 -10 26.1 22.7
1 3 10 64.79 22.5
1 3 10 50.09 24.2
-2 -3 -10 84.99 32
-2 -3 -10 37.6 31
-2 -3 -10 9.3 24.8
2 3 10 49.9 31.8
2 3 10 78.09 30.2
4 -4 -10 556.04 47.9
4 -4 -10 483.25 40.3
-4 4 10 509.65 40.6
-4 4 10 475.75 42
-4 4 10 493.25 46.2
-4 4 10 505.75 38
3 -4 -10 368.06 39.7
3 -4 -10 336.07 35.5
-3 4 10 271.47 35.8
-3 4 10 344.17 30.6
-3 4 10 339.47 31.3
-3 4 10 357.96 35.4
2 -4 -10 175.98 27.4
2 -4 -10 199.98 26.8
-2 4 10 190.18 28.6
-2 4 10 231.28 23.4
1 -4 -10 989.2 37.4
1 -4 -10 877.41 57.19
1 -4 -10 1088.69 58.09
-1 4 10 1021.6 56.49
0 -4 -10 342.27 44.3
0 -4 -10 414.46 28.8
0 -4 -10 352.06 41.2
0 4 10 360.16 41.6
0 4 10 367.96 44.7
-1 -4 -10 98.89 32
-1 -4 -10 69.49 30.1
1 4 10 92.99 31.8
1 4 10 76.29 28.8
4 -5 -10 3 20.5
-4 5 10 52.29 26.4
-4 5 10 26 17.8
-4 5 10 31.1 23.4
3 -5 -10 380.36 40.2
3 -5 -10 479.95 45.2
-3 5 10 460.45 40.6
-3 5 10 414.56 45.3
-3 5 10 380.96 34.3
-3 5 10 393.86 34
2 -5 -10 292.07 38.9
2 -5 -10 244.08 33.7
-2 5 10 244.08 26.8
-2 5 10 349.17 43.4
1 -5 -10 35.6 22.4
1 -5 -10 40.7 11.3
1 -5 -10 49.7 25.9
-1 5 10 27.7 23.3
-1 5 10 23.6 23.9
0 -5 -10 913.21 65.09
0 -5 -10 685.83 57.59
0 5 10 756.82 58.69
0 5 10 755.92 61.09
3 -6 -10 -34.9 23.6
3 -6 -10 39.8 28.6
-3 6 10 -35.8 23.2
-3 6 10 -4.2 19.4
-3 6 10 -7.9 15.8
-3 6 10 -29.9 27
2 -6 -10 622.94 56.89
2 -6 -10 622.34 53.89
-2 6 10 670.73 56.49
-2 6 10 642.24 37.6
1 -6 -10 76.29 33.4
1 -6 -10 121.59 17.3
1 -6 -10 103.49 30.8
-1 6 10 154.28 33.8
-1 6 10 108.49 14.9
-1 6 10 86.79 36.9
-1 8 -11 161.48 24.1
-1 8 -11 180.48 28
-1 8 -11 133.59 32.1
1 -8 11 152.48 25.8
1 -8 11 196.58 31.5
1 -8 11 135.99 38.1
1 7 -11 365.66 47
1 7 -11 304.47 36.3
-1 -7 11 311.17 40.9
-1 -7 11 375.36 46.6
0 7 -11 963.2 50.89
0 7 -11 999.9 60.19
0 -7 11 1009.1 57.59
0 -7 11 1023.2 59.29
-1 7 -11 21.8 22.3
-1 7 -11 32.4 19
-1 7 -11 5.5 14.8
1 -7 11 10.5 17.4
1 -7 11 39.2 27.2
1 -7 11 11.9 21.9
-2 7 -11 396.56 42.2
-2 7 -11 440.96 37.3
-2 7 -11 416.66 34.7
2 -7 11 397.16 36.4
2 -7 11 407.66 45.5
2 -7 11 396.96 40.4
2 6 -11 368.96 46.9
2 6 -11 445.36 50.89
-2 -6 11 353.06 45
-2 -6 11 425.06 49.4
1 6 -11 394.96 45.3
1 6 -11 403.06 42.6
-1 -6 11 427.36 38.6
-1 -6 11 403.06 42.3
0 6 -11 342.37 37
0 -6 11 322.17 33.2
0 -6 11 311.57 36.8
-1 6 -11 1164.38 56.49
-1 6 -11 1220.58 57.09
-1 6 -11 1204.18 60.99
1 -6 11 1223.28 59.39
1 -6 11 1183.58 63.99
1 -6 11 1151.68 61.49
-2 6 -11 29.2 20.3
-2 6 -11 33.9 17.5
-2 6 -11 25.2 15.6
2 -6 11 34.7 24.9
2 -6 11 33.9 20
2 -6 11 86.49 19
-3 6 -11 411.96 33.7
-3 6 -11 313.97 38.4
-3 6 -11 317.17 36.3
3 -6 11 353.76 49.2
3 -6 11 372.36 38.5
3 5 -11 569.04 55.79
3 5 -11 580.84 60.09
-3 -5 11 539.75 48.2
-3 -5 11 562.24 58.79
-3 -5 11 553.44 55.89
2 5 -11 14.3 22.8
2 5 -11 -1 23.5
-2 -5 11 3.2 18.6
-2 -5 11 5.6 22.7
1 5 -11 471.15 39.7
-1 -5 11 466.15 47.7
-1 -5 11 478.45 39.2
0 -5 11 237.18 31.8
0 -5 11 224.18 28.8
-1 5 -11 266.77 30
1 -5 11 273.97 31.4
-2 5 -11 502.55 35.5
-2 5 -11 509.15 40.8
-2 5 -11 525.25 37.8
2 -5 11 526.65 39.8
2 -5 11 568.24 38.6
2 -5 11 488.85 47.4
-3 5 -11 5.8 15.5
-3 5 -11 16.4 20.8
-3 5 -11 1.4 20.5
3 -5 11 41.8 20
3 -5 11 34.7 20.2
3 -5 11 24.1 26
3 4 -11 436.36 48.8
3 4 -11 366.76 44.7
-3 -4 11 492.55 47.9
-3 -4 11 391.46 40.4
-3 -4 11 435.46 45.4
2 4 -11 1074.29 58.39
2 4 -11 1042.3 59.89
-2 -4 11 1021.3 58.29
-2 -4 11 1048.5 38.8
-2 -4 11 1111.39 59.19
1 4 -11 13.1 16.7
1 4 -11 16.5 14.8
-1 -4 11 1.7 17.1
-1 -4 11 0 14.8
0 4 -11 1388.56 58.89
0 -4 11 1223.08 57.99
0 -4 11 1255.87 61.69
-1 4 -11 414.96 35.3
1 -4 11 446.36 35.7
1 -4 11 388.56 35.6
1 -4 11 446.46 35.1
-2 4 -11 131.19 22.4
-2 4 -11 146.59 22.9
-2 4 -11 113.99 18.7
2 -4 11 119.59 27
2 -4 11 105.69 22.5
2 -4 11 74.29 19.7
-3 4 -11 519.05 36.1
-3 4 -11 552.34 44.6
-3 4 -11 473.15 42.4
3 -4 11 379.96 41.6
3 -4 11 541.35 53.59
3 -4 11 459.85 40.1
3 3 -11 512.85 47.1
3 3 -11 446.96 43
-3 -3 11 418.06 40.3
-3 -3 11 478.65 47.1
-3 -3 11 434.16 43.5
-3 -3 11 468.05 26
2 3 -11 210.18 29.1
2 3 -11 205.58 27
-2 -3 11 272.87 32.8
-2 -3 11 223.68 18.1
-2 -3 11 234.18 29.1
1 3 -11 1416.16 64.39
1 3 -11 1385.96 65.39
-1 -3 11 1305.57 64.19
0 3 -11 13.5 14.4
0 -3 11 38.4 16.3
0 -3 11 31.7 13.2
-1 3 -11 929.11 50.39
1 -3 11 907.01 50.59
1 -3 11 960.5 51.09
1 -3 11 986.7 50.19
-2 3 -11 420.56 38.9
-2 3 -11 478.95 40.2
2 -3 11 512.15 39.2
2 -3 11 491.65 38.3
-3 3 -11 7.4 15.4
-3 3 -11 -3.9 22.3
-3 3 -11 -0.7 21.1
3 -3 11 22.1 27.3
3 -3 11 40.4 23.5
3 -3 11 2.9 18.7
4 2 -11 9.3 22.9
4 2 -11 33.6 27.5
-4 -2 11 -16.6 25.8
-4 -2 11 11.5 28.6
-4 -2 11 6.4 20.5
-4 -2 11 4.8 13.5
3 2 -11 1120.29 62.59
3 2 -11 1078.99 60.19
-3 -2 11 1013.5 43.7
-3 -2 11 1089.99 60.19
-3 -2 11 1022.4 59.69
2 2 -11 858.91 52.89
2 2 -11 988.8 54.49
-2 -2 11 1032.1 52.59
-2 -2 11 994.7 53.69
1 2 -11 8.6 14.2
1 2 -11 4.7 15.8
-1 -2 11 25.1 10.5
-1 -2 11 10 16.6
-1 -2 11 4.1 13.9
0 2 -11 1059.89 55.09
0 -2 11 1049.09 54.89
0 -2 11 1106.79 48.7
0 -2 11 1083.19 55.39
1 -2 11 133.49 20.3
1 -2 11 111.09 21.5
1 -2 11 123.59 21.2
-2 2 -11 529.25 41.7
2 -2 11 475.35 41.2
2 -2 11 511.25 38.5
-3 2 -11 278.37 28.5
-3 2 -11 241.08 33.9
-3 2 -11 188.28 32.2
3 -2 11 206.08 30.4
3 -2 11 289.77 35.6
4 1 -11 789.52 54.89
4 1 -11 787.02 58.89
-4 -1 11 824.82 40.6
-4 -1 11 828.82 50.49
-4 -1 11 844.42 56.09
-4 -1 11 744.13 57.69
3 1 -11 23.4 18.2
3 1 -11 43.5 21.6
-3 -1 11 18.7 17.7
-3 -1 11 16.2 11.2
-3 -1 11 9.1 13.1
-3 -1 11 0.5 17.5
2 1 -11 1873.61 91.69
2 1 -11 1879.61 83.59
-2 -1 11 2022.6 83.69
1 1 -11 471.75 36
1 1 -11 548.45 40.5
-1 -1 11 547.95 37.7
-1 -1 11 507.05 26.4
-1 -1 11 511.75 38.6
0 1 -11 344.97 32.9
0 1 -11 296.67 30.9
0 -1 11 317.67 30.6
0 -1 11 323.37 24.3
0 -1 11 303.87 32.1
-1 1 -11 1525.05 64.69
1 -1 11 1312.87 60.19
1 -1 11 1346.67 64.99
1 -1 11 1332.77 65.99
-2 1 -11 2.1 17.9
-2 1 -11 35.6 19.8
2 -1 11 19 20.1
2 -1 11 -10.9 16.9
-3 1 -11 329.67 29.3
-3 1 -11 291.67 38.2
-3 1 -11 335.17 43.8
-3 1 -11 287.67 37.7
3 -1 11 292.87 36.7
4 0 -11 271.07 33.4
4 0 -11 369.86 45.5
-4 0 11 297.07 26
-4 0 11 277.67 34
-4 0 11 331.17 40.8
-4 0 11 330.47 24.1
-4 0 11 315.67 36.9
3 0 -11 1217.68 62.59
3 0 -11 1274.67 65.79
-3 0 11 1355.56 64.39
-3 0 11 1272.67 53.19
-3 0 11 1241.98 62.59
-3 0 11 1282.27 43.2
2 0 -11 40 19.1
2 0 -11 55.79 18
-2 0 11 15.7 15
-2 0 11 25 14.8
1 0 -11 1054.29 55.49
1 0 -11 1079.49 55.19
-1 0 11 946.21 61.19
-1 0 11 1094.39 55.69
0 0 -11 1393.56 66.69
0 0 -11 1342.97 65.29
0 0 11 1399.96 66.19
0 0 11 1480.55 66.19
-1 0 -11 24.6 17.7
-1 0 -11 -10.5 17.8
-1 0 -11 8.5 13.3
1 0 11 -2.5 16.9
1 0 11 -13.9 21.3
-2 0 -11 662.53 43.9
-2 0 -11 526.35 48.3
-2 0 -11 614.64 49.4
2 0 11 589.34 46.5
2 0 11 581.44 48.8
-3 0 -11 29 31.9
-3 0 -11 18 27.2
-3 0 -11 30.3 30.8
-3 0 -11 30.4 16.5
3 0 11 87.39 28.9
3 0 11 47.8 31.2
4 -1 -11 272.07 35.2
4 -1 -11 354.96 38.6
-4 1 11 335.77 37.1
-4 1 11 343.87 42.7
-4 1 11 364.66 30
-4 1 11 294.37 38.3
3 -1 -11 114.89 24.5
3 -1 -11 64.89 20.6
-3 1 11 93.99 20.3
-3 1 11 83.49 16.6
2 -1 -11 1677.93 76.19
2 -1 -11 1729.83 77.49
-2 1 11 1805.42 76.69
1 -1 -11 48 18.7
-1 1 11 54.39 17.6
-1 1 11 55.19 18.6
0 -1 -11 339.07 37
0 -1 -11 358.76 36.3
0 1 11 396.56 36.3
0 1 11 377.96 37.8
-1 -1 -11 448.36 52.39
-1 -1 -11 640.14 47
1 1 11 644.04 48.6
1 1 11 606.94 46.2
-2 -1 -11 19.1 23.9
-2 -1 -11 10 24.1
-2 -1 -11 21.4 21.9
2 1 11 89.59 29.4
2 1 11 -15.2 22.8
4 -2 -11 395.26 44.2
4 -2 -11 351.16 40.6
-4 2 11 339.07 40
-4 2 11 308.57 37.6
-4 2 11 338.17 30.7
3 -2 -11 509.05 41.5
3 -2 -11 432.06 38.3
-3 2 11 423.16 36.6
-3 2 11 410.16 40
-3 2 11 437.36 31.4
2 -2 -11 4.5 17.5
2 -2 -11 13.7 16.8
1 -2 -11 988.1 54.69
1 -2 -11 944.41 54.99
-1 2 11 919.91 55.19
-1 2 11 1029.7 54.79
0 -2 -11 28.2 22.1
0 -2 -11 19 10.7
0 -2 -11 19.1 17.8
0 2 11 21.5 19.4
0 2 11 22.1 21.4
-1 -2 -11 401.96 44.9
-1 -2 -11 305.07 37.4
-1 -2 -11 407.76 34.1
1 2 11 330.67 41
1 2 11 410.56 45.9
-2 -2 -11 174.38 37.5
-2 -2 -11 174.38 36.8
-2 -2 -11 177.98 33.6
2 2 11 204.28 35.5
2 2 11 271.97 40.1
4 -3 -11 -13.9 21.3
4 -3 -11 46.8 26.7
-4 3 11 34.4 20.7
-4 3 11 15.7 24.2
-4 3 11 -42.1 20.2
-4 3 11 5.9 16.1
3 -3 -11 559.44 45
3 -3 -11 591.14 48.1
-3 3 11 567.84 38
-3 3 11 561.54 43.3
-3 3 11 590.74 45.6
-3 3 11 552.24 40.8
2 -3 -11 965.1 59.49
2 -3 -11 1068.69 58.89
-2 3 11 1285.97 58.09
1 -3 -11 41.3 31.5
1 -3 -11 27.4 20.3
-1 3 11 56.19 21.6
-1 3 11 25.9 30.2
0 -3 -11 1064.49 62.79
0 -3 -11 1102.79 64.79
0 -3 -11 1080.69 47.8
0 3 11 1088.99 63.69
0 3 11 1093.29 63.69
-1 -3 -11 352.46 35.3
-1 -3 -11 409.76 46.9
-1 -3 -11 206.38 37.9
1 3 11 384.66 45.8
1 3 11 277.67 40.8
4 -4 -11 763.02 59.79
4 -4 -11 737.73 53.79
-4 4 11 840.42 56.09
-4 4 11 723.93 51.49
-4 4 11 747.83 57.29
-4 4 11 718.53 45.6
3 -4 -11 87.39 23.4
3 -4 -11 31.5 25
-3 4 11 64.29 18.8
-3 4 11 64.89 26.4
-3 4 11 27.3 18.3
2 -4 -11 281.17 35
2 -4 -11 331.27 37.6
-2 4 11 255.37 31.5
-2 4 11 308.87 41.3
-2 4 11 280.17 34.6
1 -4 -11 697.73 49.99
1 -4 -11 632.14 52.69
-1 4 11 742.73 52.19
-1 4 11 567.24 51.39
0 -4 -11 -13.8 14.5
0 -4 -11 -15.8 21.4
0 -4 -11 3.6 27.5
0 4 11 4.4 28.5
0 4 11 -28.6 24.7
-1 -4 -11 210.28 31.8
-1 -4 -11 138.99 40.8
-1 -4 -11 226.38 39.4
1 4 11 174.18 38
1 4 11 222.48 44
3 -5 -11 296.97 37.6
3 -5 -11 279.87 34.8
-3 5 11 264.57 39.1
-3 5 11 310.37 32.9
-3 5 11 305.67 34.5
2 -5 -11 -1.7 27.4
2 -5 -11 41 24.5
-2 5 11 8.4 15.5
-2 5 11 49.1 23.9
-2 5 11 24 27.8
1 -5 -11 241.58 38.5
1 -5 -11 222.28 20.4
1 -5 -11 200.28 33.7
-1 5 11 285.37 25.5
-1 5 11 295.27 36.6
0 -5 -11 132.39 33.3
0 -5 -11 101.19 40
0 5 11 169.08 39.1
0 5 11 166.88 37.6
1 7 -12 732.53 58.49
-1 -7 12 489.45 52.09
-1 -7 12 563.34 56.79
0 7 -12 340.47 32.2
0 7 -12 343.47 43.8
0 7 -12 381.76 51.09
0 -7 12 440.06 44.4
0 -7 12 353.06 48.2
-1 7 -12 36.9 21.9
-1 7 -12 36.4 16.9
-1 7 -12 54.69 27
1 -7 12 18.4 27.6
1 -7 12 72.59 22.5
1 -7 12 37.7 27.1
2 6 -12 865.21 63.79
2 6 -12 808.02 66.79
-2 -6 12 871.11 66.69
-2 -6 12 910.91 63.69
1 6 -12 49.3 23.3
1 6 -12 38.4 27
-1 -6 12 25.5 25.1
-1 -6 12 11.9 21.7
0 6 -12 267.47 34.6
0 6 -12 350.06 38.2
0 -6 12 353.76 41.1
0 -6 12 266.57 35.6
-1 6 -12 453.75 38
-1 6 -12 418.66 45.4
-1 6 -12 406.66 34
1 -6 12 458.75 44.6
1 -6 12 418.16 39.8
1 -6 12 424.46 45.9
-2 6 -12 20.2 21.4
-2 6 -12 -29.3 13.2
-2 6 -12 31.7 23.8
2 -6 12 18.1 29.5
2 -6 12 39.5 22
2 5 -12 62.69 27
2 5 -12 121.59 31.7
-2 -5 12 48.9 28.1
-2 -5 12 101.59 25.1
1 5 -12 1056.19 61.99
-1 -5 12 1065.49 59.59
-1 -5 12 1002.9 60.09
0 5 -12 64.39 19.2
0 5 -12 63.39 22.7
0 -5 12 69.49 22.4
0 -5 12 49.3 19.3
-1 5 -12 379.96 39
-1 5 -12 342.87 34.6
1 -5 12 381.46 40.4
1 -5 12 423.16 39.4
-2 5 -12 588.74 39.6
-2 5 -12 603.64 43.3
-2 5 -12 613.04 47.9
2 -5 12 533.95 43.9
2 -5 12 552.94 51.49
2 -5 12 582.74 44
3 4 -12 206.28 33.8
3 4 -12 214.58 34.7
-3 -4 12 96.49 31.5
-3 -4 12 126.79 20.3
-3 -4 12 133.99 34
-3 -4 12 176.88 30.2
2 4 -12 516.95 45.1
2 4 -12 542.95 49.1
-2 -4 12 509.25 45.1
-2 -4 12 515.85 25.4
-2 -4 12 497.55 47.2
1 4 -12 193.08 29.6
1 4 -12 188.28 26.9
-1 -4 12 172.28 26.6
-1 -4 12 186.18 27.8
0 4 -12 1214.18 60.49
0 -4 12 1169.68 62.99
-1 4 -12 115.59 24.4
1 -4 12 180.18 44.3
1 -4 12 132.39 23.7
1 -4 12 155.38 25.8
-2 4 -12 392.06 41.9
-2 4 -12 335.37 38.5
-2 4 -12 268.97 29.2
2 -4 12 337.37 39.6
2 -4 12 369.26 41.7
-3 4 -12 604.14 50.19
-3 4 -12 600.74 42
-3 4 -12 616.84 53.89
3 -4 12 681.13 59.69
3 -4 12 623.84 49.4
3 -4 12 471.45 49.7
3 3 -12 11.7 28.3
3 3 -12 35.9 25.2
-3 -3 12 -10.6 23.5
-3 -3 12 40.9 25.9
-3 -3 12 61.69 13.6
2 3 -12 602.34 49.2
2 3 -12 657.13 48.9
-2 -3 12 664.73 48.4
-2 -3 12 708.93 32
-2 -3 12 694.13 50.39
1 3 -12 1254.27 63.79
1 3 -12 1251.07 64.59
-1 -3 12 1187.78 64.09
-1 -3 12 1292.27 55.29
0 3 -12 64.49 19.8
0 -3 12 57.29 20
0 -3 12 80.69 18.5
0 -3 12 68.79 18.7
1 -3 12 1133.59 58.79
1 -3 12 1121.79 56.79
1 -3 12 1071.59 58.79
-2 3 -12 234.28 31
2 -3 12 258.17 34.6
2 -3 12 290.57 37.4
2 -3 12 283.37 38.8
-3 3 -12 98.49 20.5
-3 3 -12 86.19 28.6
3 -3 12 98.59 30
3 -3 12 81.69 25.8
3 -3 12 112.79 35.6
3 2 -12 1063.99 62.79
3 2 -12 1063.79 64.89
-3 -2 12 1056.49 62.19
-3 -2 12 1069.39 63.99
-3 -2 12 1064.99 45.4
2 2 -12 350.06 33.4
2 2 -12 279.57 31.7
-2 -2 12 297.77 34.9
-2 -2 12 321.07 37.1
1 2 -12 271.97 34.6
1 2 -12 320.97 34.7
-1 -2 12 263.27 33.7
-1 -2 12 301.17 24.1
-1 -2 12 343.37 36.6
0 2 -12 378.06 34.6
0 2 -12 285.87 36.7
0 -2 12 346.07 34.3
0 -2 12 335.37 32.8
0 -2 12 321.37 28
-1 2 -12 118.59 22.9
1 -2 12 103.09 23.7
1 -2 12 114.89 22
1 -2 12 132.99 22.5
-2 2 -12 654.83 46.5
-2 2 -12 510.35 46.4
2 -2 12 512.45 46.9
2 -2 12 527.45 43.5
-3 2 -12 77.19 32.7
-3 2 -12 82.39 21
-3 2 -12 69.59 28.9
3 -2 12 57.69 32.2
3 -2 12 86.69 27.5
4 1 -12 258.37 36.7
4 1 -12 350.66 43.9
-4 -1 12 297.57 27.6
-4 -1 12 276.67 37.4
-4 -1 12 310.47 29.5
-4 -1 12 310.37 41.2
-4 -1 12 278.77 37.2
3 1 -12 65.39 26.9
3 1 -12 90.39 24.9
-3 -1 12 91.19 24.3
-3 -1 12 108.19 16.3
-3 -1 12 125.69 24.6
2 1 -12 740.83 49.3
2 1 -12 735.03 47.7
-2 -1 12 777.82 51.59
-2 -1 12 802.72 33.1
1 1 -12 639.84 52.39
1 1 -12 735.33 48.8
-1 -1 12 665.83 46.8
-1 -1 12 684.73 32.1
0 1 -12 201.28 27.1
0 1 -12 187.88 27.4
0 -1 12 175.88 25.7
0 -1 12 213.78 22.7
-1 1 -12 907.51 52.29
1 -1 12 759.92 49.5
1 -1 12 811.42 44.8
-2 1 -12 -3.8 22.6
-2 1 -12 37.3 24.6
2 -1 12 -3 19.4
2 -1 12 -26.7 23
4 0 -12 418.66 48.9
4 0 -12 419.96 50.59
-4 0 12 442.36 22.1
-4 0 12 520.85 48.6
-4 0 12 407.06 50.29
-4 0 12 465.25 54.29
-4 0 12 490.85 33.1
3 0 -12 1045.9 62.49
3 0 -12 1084.99 60.09
-3 0 12 1052.89 61.49
-3 0 12 1070.59 60.89
-3 0 12 983.9 47.3
2 0 -12 53.69 23.2
2 0 -12 42.7 20.7
-2 0 12 87.79 22.1
-2 0 12 59.89 22
1 0 -12 1432.36 71.29
1 0 -12 1461.25 70.19
-1 0 12 1577.24 81.99
-1 0 12 1457.65 71.19
0 0 -12 300.57 34.4
0 0 12 228.38 30
0 0 12 196.38 27.9
-1 0 -12 155.38 28
1 0 12 114.29 23.1
1 0 12 110.69 25.5
-2 0 -12 378.16 43.4
-2 0 -12 302.87 40
-2 0 -12 378.56 47.4
2 0 12 398.86 44.7
2 0 12 422.96 52.29
4 -1 -12 185.48 31.3
4 -1 -12 204.88 35.3
-4 1 12 214.58 26.3
-4 1 12 196.48 32.3
-4 1 12 153.48 33.9
-4 1 12 215.68 31
3 -1 -12 479.35 43.4
3 -1 -12 426.46 53.39
-3 1 12 431.16 31.2
-3 1 12 459.15 45.4
-3 1 12 410.56 39.2
2 -1 -12 1210.28 76.19
2 -1 -12 1353.16 66.39
-2 1 12 1337.67 65.99
-2 1 12 1215.48 66.49
1 -1 -12 88.99 22
1 -1 -12 58.99 21.1
-1 1 12 79.19 25.3
-1 1 12 111.99 23.7
0 -1 -12 1098.79 62.09
0 -1 -12 1057.39 61.29
0 1 12 1089.89 60.89
0 1 12 1095.79 62.39
-1 -1 -12 99.89 25.8
-1 -1 -12 123.09 21.7
-1 -1 -12 135.29 29.1
1 1 12 168.08 29.8
1 1 12 116.89 26.3
-2 -1 -12 12.9 29.3
-2 -1 -12 -4.7 24.2
-2 -1 -12 90.29 34.2
2 1 12 59.29 27.7
2 1 12 -21.6 30.8
4 -2 -12 483.25 47.1
4 -2 -12 434.46 53.19
-4 2 12 526.95 37.2
-4 2 12 486.95 46.3
-4 2 12 524.35 47.4
-4 2 12 458.85 51.69
3 -2 -12 111.39 24.9
3 -2 -12 151.88 29.7
-3 2 12 73.89 23.8
-3 2 12 72.89 18.6
-3 2 12 107.09 21.5
-3 2 12 128.99 28.2
2 -2 -12 408.16 39.2
-2 2 12 399.56 40
1 -2 -12 791.62 55.39
1 -2 -12 918.01 54.59
-1 2 12 925.71 56.99
0 -2 -12 56.39 23
0 -2 -12 -5.3 23.1
0 2 12 33.4 23.8
0 2 12 37.2 22.9
-1 -2 -12 522.85 52.49
-1 -2 -12 466.95 52.49
-1 -2 -12 490.65 39.3
1 2 12 391.86 47.7
1 2 12 535.55 52.79
3 -3 -12 839.62 55.29
3 -3 -12 739.63 55.39
-3 3 12 783.02 54.49
-3 3 12 810.22 55.39
-3 3 12 635.44 51.39
-3 3 12 725.33 49.2
2 -3 -12 97.29 29.1
2 -3 -12 95.69 24.2
-2 3 12 100.79 27.2
-2 3 12 117.09 26.1
1 -3 -12 130.79 25
1 -3 -12 86.69 28.7
-1 3 12 136.59 28.2
-1 3 12 88.99 28.3
0 -3 -12 595.54 54.59
0 -3 -12 650.13 36.8
0 -3 -12 656.13 54.19
0 3 12 739.83 58.79
0 3 12 684.13 52.59
-1 -3 -12 121.29 33.8
-1 -3 -12 102.19 48.3
-1 -3 -12 120.49 37.2
1 3 12 68.79 30.7
1 3 12 27 35.9
3 -4 -12 -7.2 26.9
3 -4 -12 28 24
-3 4 12 -12.1 26.8
-3 4 12 12 21.9
-3 4 12 21.9 23.5
-3 4 12 33.8 18.1
2 -4 -12 774.52 60.79
2 -4 -12 695.13 53.39
-2 4 12 677.63 52.49
-2 4 12 656.73 43.5
-2 4 12 721.33 58.89
1 -4 -12 183.48 33.7
1 -4 -12 139.89 31.4
-1 4 12 176.38 33.2
-1 4 12 99.69 31.6
0 -4 -12 60.99 35.3
0 -4 -12 92.59 33.7
0 4 12 11 33.2
0 4 12 57.69 29.4
2 -5 -12 35.7 34
2 -5 -12 24.8 27.2
-2 5 12 26 20.1
-2 5 12 56.19 38.1
1 6 -13 3.9 30.2
1 6 -13 -10.5 27.4
-1 -6 13 3.2 24.9
-1 -6 13 -28.6 28
0 6 -13 678.13 53.59
0 6 -13 553.84 53.39
0 -6 13 593.74 50.29
0 -6 13 570.84 53.99
0 -6 13 601.44 52.69
-1 6 -13 147.89 32.8
-1 6 -13 143.59 23.1
1 -6 13 146.69 26.7
1 -6 13 155.58 30.8
1 -6 13 118.99 33.2
2 5 -13 302.37 43.3
2 5 -13 291.47 40.6
-2 -5 13 315.67 39.9
-2 -5 13 379.56 44.8
1 5 -13 768.32 58.59
1 5 -13 943.51 59.09
-1 -5 13 772.92 58.09
-1 -5 13 759.12 54.09
0 5 -13 8.5 21.8
0 5 -13 -13.7 23.8
0 -5 13 -23.5 20.3
0 -5 13 3.9 27
0 -5 13 33.7 20.1
-1 5 -13 370.86 46.4
1 -5 13 330.77 37.4
1 -5 13 408.46 43
-2 5 -13 117.89 31
-2 5 -13 137.89 27.6
-2 5 -13 119.19 21.7
2 -5 13 178.28 30
2 -5 13 176.08 31.1
2 -5 13 184.48 36.9
2 4 -13 126.49 29.3
2 4 -13 167.48 34.8
-2 -4 13 139.69 15.9
-2 -4 13 152.48 27.6
-2 -4 13 82.29 30.4
1 4 -13 223.48 32.5
1 4 -13 284.57 36.2
-1 -4 13 380.06 39.7
-1 -4 13 314.17 40.4
0 4 -13 777.32 54.69
0 4 -13 987.4 56.19
0 -4 13 705.73 75.59
0 -4 13 980.9 53.29
-1 4 -13 -13.3 22
1 -4 13 2.3 32.4
1 -4 13 -11.7 19.2
1 -4 13 -18.2 20.1
-2 4 -13 356.16 39.5
-2 4 -13 315.97 31.9
2 -4 13 319.17 42.1
2 -4 13 327.87 40.9
2 -4 13 377.06 44.4
3 3 -13 37.2 28
3 3 -13 35.8 32.2
-3 -3 13 20.9 28.3
-3 -3 13 -5.3 25.3
-3 -3 13 0.8 13.5
2 3 -13 935.51 60.79
2 3 -13 840.32 61.89
-2 -3 13 1028.2 63.59
-2 -3 13 978 60.59
1 3 -13 522.75 47
1 3 -13 556.74 44.4
-1 -3 13 530.35 46.5
-1 -3 13 528.05 35.5
0 3 -13 3.5 25.7
0 3 -13 1.2 20.2
0 -3 13 66.69 18.4
0 -3 13 13.9 18.7
0 -3 13 20.2 22
-1 3 -13 715.43 51.09
-1 3 -13 752.32 50.09
1 -3 13 713.73 51.59
1 -3 13 685.23 48.4
1 -3 13 730.03 50.09
-2 3 -13 -39.5 20.9
-2 3 -13 11.7 26.5
2 -3 13 -2.7 25
2 -3 13 -31 24.4
2 -3 13 1.2 21
3 2 -13 823.12 58.49
3 2 -13 752.12 61.99
-3 -2 13 793.42 39.3
-3 -2 13 735.03 59.99
-3 -2 13 852.81 60.19
2 2 -13 13.2 21.9
2 2 -13 -12.5 21.6
-2 -2 13 21.6 20.5
-2 -2 13 3.1 12.4
-2 -2 13 -36.1 19.2
1 2 -13 1140.19 64.29
1 2 -13 1164.28 65.69
-1 -2 13 1181.18 51.19
-1 -2 13 1209.28 64.79
-1 -2 13 1135.49 64.89
0 2 -13 962.7 59.29
0 2 -13 970.2 57.99
0 -2 13 929.91 57.59
0 -2 13 992.8 48.5
0 -2 13 1049.89 58.89
-1 2 -13 49 24.4
-1 2 -13 49.5 21.9
1 -2 13 40.7 24
1 -2 13 11 18
1 -2 13 41.4 20.6
-2 2 -13 951.3 59.79
-2 2 -13 891.91 63.89
2 -2 13 807.22 57.09
2 -2 13 838.32 61.59
3 1 -13 298.57 39.3
3 1 -13 335.27 43.4
-3 -1 13 339.87 44
-3 -1 13 273.07 25.1
-3 -1 13 287.47 38.1
2 1 -13 1482.45 74.79
2 1 -13 1585.34 78.49
-2 -1 13 1465.05 54.19
-2 -1 13 1559.14 75.69
1 1 -13 9.2 17.8
1 1 -13 14.2 21.3
-1 -1 13 11.8 20.5
-1 -1 13 11.3 15.5
-1 -1 13 17.3 10.6
0 1 -13 487.15 42.5
0 1 -13 479.65 44.4
0 -1 13 442.56 39.5
0 -1 13 464.25 43.7
0 -1 13 440.96 31.6
-1 1 -13 166.78 30.6
-1 1 -13 224.28 33.7
1 -1 13 233.48 33.5
1 -1 13 231.28 30.6
-2 1 -13 21.8 28.5
-2 1 -13 -32.2 29
2 -1 13 9.9 28.9
2 -1 13 -11.7 23.8
3 0 -13 164.68 31.2
3 0 -13 251.07 36.8
-3 0 13 223.88 25.3
-3 0 13 215.98 31.7
-3 0 13 178.38 32.1
2 0 -13 93.69 26
2 0 -13 76.79 24.4
-2 0 13 73.19 25
-2 0 13 89.99 26.4
1 0 -13 1204.68 67.39
1 0 -13 1190.88 64.89
-1 0 13 1268.67 66.69
-1 0 13 1276.97 67.49
0 0 -13 18.5 21.9
0 0 -13 13.3 21.9
0 0 13 50.99 21
0 0 13 -0.4 22.5
-1 0 -13 583.44 52.99
-1 0 -13 664.53 55.49
1 0 13 624.14 56.19
1 0 13 681.83 51.79
-2 0 -13 319.67 37.9
-2 0 -13 260.47 42.2
-2 0 -13 285.07 41.3
2 0 13 176.28 36.1
2 0 13 241.98 42.7
3 -1 -13 360.96 44.5
3 -1 -13 470.05 50.69
-3 1 13 398.06 33.3
-3 1 13 418.36 47.9
-3 1 13 454.95 43.4
2 -1 -13 388.46 44.2
2 -1 -13 329.57 41.4
-2 1 13 387.26 42.9
-2 1 13 406.06 42.6
1 -1 -13 71.89 24.3
1 -1 -13 140.89 26.4
-1 1 13 105.59 25.6
-1 1 13 99.29 25.7
0 -1 -13 606.04 50.49
0 -1 -13 693.23 52.19
0 1 13 572.94 49.9
0 1 13 567.04 50.19
-1 -1 -13 88.49 34.1
-1 -1 -13 133.19 33.8
-1 -1 -13 111.39 23
1 1 13 41.6 25.8
1 1 13 91.29 32.5
3 -2 -13 15.2 24.4
3 -2 -13 59.99 29
-3 2 13 -18.1 21.4
-3 2 13 3.7 25.3
2 -2 -13 559.34 48.2
2 -2 -13 576.04 50.09
-2 2 13 543.75 48.7
-2 2 13 535.35 49.7
1 -2 -13 776.82 54.79
1 -2 -13 853.71 59.19
-1 2 13 873.51 57.99
-1 2 13 842.32 59.69
0 -2 -13 18.2 25.2
0 -2 -13 5.2 27.7
0 2 13 -11.3 28.4
0 2 13 -8.1 22.8
-1 -2 -13 224.28 43.1
-1 -2 -13 283.87 38.5
-1 -2 -13 257.47 40.5
1 2 13 226.98 39.7
1 2 13 275.47 42.5
3 -3 -13 567.84 52.69
3 -3 -13 593.54 57.99
-3 3 13 582.34 57.09
-3 3 13 571.94 40.8
-3 3 13 655.83 49.8
-3 3 13 594.34 56.69
2 -3 -13 75.89 27.6
2 -3 -13 41.7 27.1
-2 3 13 65.69 28.8
-2 3 13 105.09 28.8
1 -3 -13 564.24 51.99
1 -3 -13 432.76 52.49
-1 3 13 419.46 50.39
-1 3 13 501.05 53.99
0 -3 -13 248.58 42.3
0 -3 -13 196.88 36.5
0 3 13 175.18 40.6
0 3 13 191.98 36
2 -4 -13 322.07 43.8
2 -4 -13 305.67 40
-2 4 13 223.48 42.5
-2 4 13 330.67 41
-2 4 13 342.07 41.7
1 -4 -13 81.09 37.4
1 -4 -13 36.3 32.2
-1 4 13 37.2 35.4
-1 4 13 61.59 30.8
0 6 -14 709.23 59.89
0 6 -14 515.25 68.39
0 -6 14 607.34 59.59
0 -6 14 565.54 59.19
0 -6 14 634.14 55.29
1 5 -14 781.62 59.89
1 5 -14 685.73 61.19
-1 -5 14 581.94 58.89
-1 -5 14 635.44 56.59
0 5 -14 82.69 29.3
0 5 -14 101.89 32.2
0 -5 14 102.19 28.6
0 -5 14 114.99 31.9
0 -5 14 125.89 28.4
-1 5 -14 745.93 58.19
-1 5 -14 561.94 53.89
1 -5 14 678.73 56.49
2 4 -14 183.38 37.7
2 4 -14 197.18 40.4
-2 -4 14 239.08 37.4
-2 -4 14 269.57 41.6
-2 -4 14 269.47 23.5
1 4 -14 253.77 38.1
1 4 -14 290.87 37.5
-1 -4 14 296.27 38.4
-1 -4 14 224.28 33.9
-1 -4 14 289.97 37.6
0 4 -14 415.96 46.3
0 4 -14 493.45 50.69
0 -4 14 425.26 48.7
-1 4 -14 13 24.4
-1 4 -14 27.1 27.7
1 -4 14 9 26.9
1 -4 14 35.8 24.8
1 -4 14 14 26.3
2 3 -14 675.03 60.89
2 3 -14 633.74 55.49
-2 -3 14 565.54 57.09
-2 -3 14 687.33 55.29
1 3 -14 22.7 24.4
1 3 -14 16.1 28.3
-1 -3 14 17.3 24.9
-1 -3 14 52.29 19.3
0 3 -14 413.76 48.8
0 3 -14 387.96 46.1
0 -3 14 396.66 44.7
0 -3 14 376.76 43.3
0 -3 14 385.26 45
-1 3 -14 264.37 36.6
-1 3 -14 219.48 37.4
1 -3 14 208.58 33.9
1 -3 14 265.17 33.5
-2 3 -14 46.2 32.6
-2 3 -14 75.89 29.7
2 -3 14 29.9 30.1
2 -3 14 36.8 26.7
2 -3 14 46.3 31.9
3 2 -14 566.04 58.39
3 2 -14 577.24 63.29
-3 -2 14 502.15 62.69
-3 -2 14 588.44 58.49
-3 -2 14 518.55 33.3
2 2 -14 87.29 29
2 2 -14 115.39 33.6
-2 -2 14 184.58 24.9
-2 -2 14 165.68 33.3
-2 -2 14 182.78 32.9
1 2 -14 1395.36 77.29
1 2 -14 1433.56 75.59
-1 -2 14 1385.26 59.69
-1 -2 14 1412.66 76.19
-1 -2 14 1546.85 77.79
0 2 -14 316.77 42.1
0 2 -14 395.16 45.6
0 -2 14 267.27 36.1
0 -2 14 310.87 32.6
0 -2 14 354.66 41.9
-1 2 -14 6.1 25.6
-1 2 -14 84.49 27.2
1 -2 14 54.29 23.2
1 -2 14 45.7 25.2
1 -2 14 -0.3 26.9
2 -2 14 164.68 37.6
3 1 -14 266.07 42.8
3 1 -14 264.07 38.9
-3 -1 14 238.18 40.7
-3 -1 14 204.28 36.2
-3 -1 14 223.38 25.5
-3 -1 14 251.67 16
2 1 -14 656.13 57.79
2 1 -14 733.73 55.19
-2 -1 14 648.84 57.59
-2 -1 14 690.83 29.5
1 1 -14 80.29 25.3
1 1 -14 27.1 26.7
-1 -1 14 2.5 21.7
-1 -1 14 13.2 12.2
-1 -1 14 38.2 26.2
0 1 -14 1293.27 71.49
0 1 -14 1271.77 69.59
0 -1 14 1202.18 68.09
0 -1 14 1219.98 70.39
-1 1 -14 167.58 35.8
-1 1 -14 203.58 34.6
1 -1 14 259.47 36.6
1 -1 14 150.28 29.8
3 0 -14 10.9 31.2
3 0 -14 72.59 28.5
-3 0 14 60.99 33.6
-3 0 14 17.2 29.1
-3 0 14 74.89 20.4
2 0 -14 387.86 46.8
2 0 -14 439.56 52.29
-2 0 14 517.95 51.49
-2 0 14 533.45 51.59
1 0 -14 370.16 42.7
1 0 -14 375.66 43.6
-1 0 14 407.96 45.2
-1 0 14 432.16 46.2
0 0 -14 15 24.3
0 0 -14 0.7 26.5
0 0 14 27 27.2
0 0 14 -0.8 20.6
-1 0 -14 408.56 52.39
-1 0 -14 419.56 55.69
1 0 14 339.87 41.7
1 0 14 344.47 43.6
3 -1 -14 839.62 66.99
3 -1 -14 916.21 64.09
-3 1 14 917.81 59.19
-3 1 14 864.01 67.59
2 -1 -14 62.19 25.9
2 -1 -14 53.39 30.8
-2 1 14 83.79 28.3
-2 1 14 112.69 28.7
1 -1 -14 496.95 52.69
1 -1 -14 485.95 46.8
-1 1 14 489.45 50.99
-1 1 14 471.15 49.2
0 -1 -14 850.21 62.39
0 -1 -14 863.51 65.79
0 1 14 879.11 61.09
0 1 14 887.91 65.89
-1 -1 -14 6.3 34.4
-1 -1 -14 -37.1 31.4
1 1 14 42.2 35.9
1 1 14 20.7 30.7
2 -2 -14 611.54 56.89
2 -2 -14 825.92 63.29
-2 2 14 694.23 60.19
-2 2 14 743.63 59.79
1 -2 -14 94.59 33.5
1 -2 -14 108.19 30.4
-1 2 14 92.69 30.9
-1 2 14 65.49 32.5
0 -2 -14 34.1 28
0 -2 -14 41.1 35.5
0 2 14 70.79 29.6
0 2 14 37.1 35.1
2 -3 -14 42.7 29.2
2 -3 -14 31.5 33.5
-2 3 14 -18.2 30.9
1 -3 -14 314.77 47.2
1 -3 -14 226.98 38
-1 3 14 230.78 43.1
-1 3 14 324.67 42.8
1 4 -15 431.26 50.49
1 4 -15 433.96 47.3
-1 -4 15 566.24 55.49
-1 -4 15 557.24 54.19
-1 -4 15 391.26 48.7
0 4 -15 120.09 36.4
0 4 -15 91.39 32
0 -4 15 148.49 35.5
0 -4 15 30.1 27.3
2 3 -15 839.52 74.99
2 3 -15 1072.29 73.69
-2 -3 15 1100.79 70.29
-2 -3 15 881.11 74.59
-2 -3 15 1035.3 53.69
1 3 -15 36.1 28.6
1 3 -15 10.5 30.4
-1 -3 15 29.9 30.8
-1 -3 15 -16.8 20.3
0 3 -15 680.63 59.19
0 3 -15 697.23 64.19
0 -3 15 781.72 59.89
0 -3 15 759.52 51.39
0 -3 15 741.33 61.69
-1 3 -15 476.05 57.39
-1 3 -15 400.36 52.69
1 -3 15 342.27 44.8
1 -3 15 405.46 51.09
1 -3 15 399.36 45.7
2 2 -15 181.58 34.2
2 2 -15 168.48 39.6
-2 -2 15 164.68 20.3
-2 -2 15 119.29 33.2
-2 -2 15 189.98 40
1 2 -15 898.11 67.19
1 2 -15 717.63 59.59
-1 -2 15 774.52 62.89
-1 -2 15 828.92 62.19
-1 -2 15 757.92 43.3
0 2 -15 -23.8 30.7
0 2 -15 25.3 29
0 -2 15 12.4 27
0 -2 15 13.3 19.9
0 -2 15 -40.2 24.4
-1 2 -15 544.95 56.29
-1 2 -15 466.05 55.89
1 -2 15 457.85 59.59
1 -2 15 606.64 54.09
2 1 -15 205.68 35.7
2 1 -15 184.68 37.4
-2 -1 15 119.49 36.7
1 1 -15 296.27 38.8
1 1 -15 239.38 38.6
-1 -1 15 217.58 36.7
-1 -1 15 386.86 46.8
0 1 -15 387.46 44.1
0 1 -15 522.45 57.49
0 -1 15 420.76 53.79
0 -1 15 480.65 50.69
1 -1 15 24.6 32.6
2 0 -15 360.66 44.5
2 0 -15 395.16 51.89
-2 0 15 480.15 56.79
-2 0 15 358.36 43
1 0 -15 474.45 56.79
1 0 -15 547.85 50.69
-1 0 15 443.56 50.59
-1 0 15 522.85 53.59
0 0 -15 40.1 28.7
0 0 -15 84.59 35.6
0 0 15 40.2 26.9
0 0 15 92.19 34.7
2 -1 -15 23.8 31.8
2 -1 -15 37.2 31.8
-2 1 15 -49.4 31.1
-2 1 15 30.3 30.1
1 -1 -15 352.16 43.1
1 -1 -15 322.87 41.9
-1 1 15 294.17 40.2
-1 1 15 260.47 41.8
