#------------------------------------------------------------------------------
#$Date: 2022-06-14 12:33:49 +0300 (Tue, 14 Jun 2022) $
#$Revision: 276027 $
#$URL: file:///home/coder/svn-repositories/cod/cif/8/10/54/8105416.cif $
#------------------------------------------------------------------------------
#
# This file is available in the Crystallography Open Database (COD),
# http://www.crystallography.net/
#
# All data on this site have been placed in the public domain by the
# contributors.
#
data_8105416
loop_
_publ_author_name
'Cai, Bin'
'Meng, Yu-Ning'
'Zhu, Meng-En'
'Yao, Xi-Shuang'
'Chen, Gang'
_publ_section_title
;
 The crystal structure of 5-bromo-2-fluoronicotinic acid monohydrate,
 C6H5BrFNO3
;
_journal_issue                   5
_journal_name_full
'Zeitschrift f\"ur Kristallographie - New Crystal Structures'
_journal_page_first              1187
_journal_page_last               1188
_journal_paper_doi               10.1515/ncrs-2020-0241
_journal_volume                  235
_journal_year                    2020
_chemical_absolute_configuration unk
_chemical_formula_moiety         'C6 H3 Br F N O2, H2 O'
_chemical_formula_sum            'C6 H5 Br F N O3'
_chemical_formula_weight         238.02
_space_group_crystal_system      orthorhombic
_space_group_IT_number           19
_space_group_name_Hall           'P 2ac 2ab'
_space_group_name_H-M_alt        'P 21 21 21'
_atom_sites_solution_hydrogens   mixed
_cell_angle_alpha                90
_cell_angle_beta                 90
_cell_angle_gamma                90
_cell_formula_units_Z            4
_cell_length_a                   3.9894(4)
_cell_length_b                   13.6128(11)
_cell_length_c                   14.7495(12)
_cell_measurement_reflns_used    3695
_cell_measurement_temperature    150.03
_cell_measurement_theta_max      26.16
_cell_measurement_theta_min      3.14
_cell_volume                     801.00(12)
_computing_cell_refinement       'SAINT v8.37A (Bruker, 2015) [1]'
_computing_data_collection       'Bruker APEX-II'
_computing_data_reduction        'SAINT v8.37A (Bruker, 2015) [1]'
_computing_molecular_graphics    'Olex2 1.3 (Dolomanov et al., 2009) [2]'
_computing_publication_material  'Olex2 1.3 (Dolomanov et al., 2009) [2]'
_computing_structure_refinement  'SHELXL 2018/3 (Sheldrick, 2015) [3]'
_computing_structure_solution    'SHELXT 2018/2 (Sheldrick, 2018) [4]'
_diffrn_ambient_temperature      150.03
_diffrn_measured_fraction_theta_full 0.997
_diffrn_measured_fraction_theta_max 0.997
_diffrn_measurement_device_type  'Bruker APEX-II CCD'
_diffrn_measurement_method       '\f and \w scans'
_diffrn_radiation_type           MoK\a
_diffrn_radiation_wavelength     0.71073
_diffrn_reflns_av_R_equivalents  0.0373
_diffrn_reflns_av_unetI/netI     0.0384
_diffrn_reflns_Laue_measured_fraction_full 0.997
_diffrn_reflns_Laue_measured_fraction_max 0.997
_diffrn_reflns_limit_h_max       4
_diffrn_reflns_limit_h_min       -4
_diffrn_reflns_limit_k_max       16
_diffrn_reflns_limit_k_min       -16
_diffrn_reflns_limit_l_max       17
_diffrn_reflns_limit_l_min       -17
_diffrn_reflns_number            6092
_diffrn_reflns_point_group_measured_fraction_full 0.997
_diffrn_reflns_point_group_measured_fraction_max 0.997
_diffrn_reflns_theta_full        25.197
_diffrn_reflns_theta_max         25.197
_diffrn_reflns_theta_min         2.762
_diffrn_source_current           30.0
_diffrn_source_power             1.5
_diffrn_source_voltage           50.0
_diffrn_standards_number         0
_exptl_absorpt_coefficient_mu    5.114
_exptl_absorpt_correction_T_max  0.7454
_exptl_absorpt_correction_T_min  0.4978
_exptl_absorpt_correction_type   multi-scan
_exptl_absorpt_process_details
;
SADABS-2016/2 (Bruker,2016/2) was used for absorption correction.
wR2(int) was 0.1013 before and 0.0666 after correction.
The Ratio of minimum to maximum transmission is 0.6678.
The \l/2 correction factor is Not present.
;
_exptl_crystal_colour            colorless
_exptl_crystal_density_diffrn    1.974
_exptl_crystal_description       block
_exptl_crystal_F_000             464
_exptl_crystal_size_max          0.28
_exptl_crystal_size_mid          0.15
_exptl_crystal_size_min          0.1
_refine_diff_density_max         0.241
_refine_diff_density_min         -0.459
_refine_diff_density_rms         0.079
_refine_ls_abs_structure_details
;
 Flack x determined using 500 quotients [(I+)-(I-)]/[(I+)+(I-)]
 (Parsons, Flack and Wagner, Acta Cryst. B69 (2013) 249-259).
;
_refine_ls_abs_structure_Flack   0.016(9)
_refine_ls_extinction_coef       .
_refine_ls_extinction_method     none
_refine_ls_goodness_of_fit_ref   1.050
_refine_ls_hydrogen_treatment    mixed
_refine_ls_matrix_type           full
_refine_ls_number_parameters     112
_refine_ls_number_reflns         1436
_refine_ls_number_restraints     0
_refine_ls_restrained_S_all      1.050
_refine_ls_R_factor_all          0.0248
_refine_ls_R_factor_gt           0.0213
_refine_ls_shift/su_max          0.000
_refine_ls_shift/su_mean         0.000
_refine_ls_structure_factor_coef Fsqd
_refine_ls_weighting_details
'w=1/[\s^2^(Fo^2^)+(0.0163P)^2^] where P=(Fo^2^+2Fc^2^)/3'
_refine_ls_weighting_scheme      calc
_refine_ls_wR_factor_gt          0.0459
_refine_ls_wR_factor_ref         0.0465
_reflns_Friedel_coverage         0.626
_reflns_Friedel_fraction_full    0.996
_reflns_Friedel_fraction_max     0.996
_reflns_number_gt                1345
_reflns_number_total             1436
_reflns_threshold_expression     'I > 2\s(I)'
_cod_data_source_file            suppl_ncrs-2020-0241_suppl.cif
_cod_data_source_block           1
_cod_database_code               8105416
_shelx_space_group_comment
;
The symmetry employed for this shelxl refinement is uniquely defined
by the following loop, which should always be used as a source of
symmetry information in preference to the above space-group names.
They are only intended as comments.
;
_shelx_estimated_absorpt_t_max   0.629
_shelx_estimated_absorpt_t_min   0.329
_olex2_refinement_description
;
1. Fixed Uiso
 At 1.2 times of:
  All C(H) groups
 At 1.5 times of:
  All O(H,H) groups, All F(H) groups
2.a Riding coordinates:
 O1W(H1WA,H1WB)
2.b Aromatic/amide H refined with riding coordinates:
 C3(H3), C5(H5)
;
_shelx_res_file
;
TITL 1.res in P2(1)2(1)2(1)
    1.res
    created by SHELXL-2018/3 at 10:05:32 on 19-May-2020
CELL 0.71073 3.9894 13.6128 14.7495 90 90 90
ZERR 4 0.0004 0.0011 0.0012 0 0 0
LATT -1
SYMM 0.5-X,-Y,0.5+Z
SYMM -X,0.5+Y,0.5-Z
SYMM 0.5+X,0.5-Y,-Z
SFAC C H Br F O N
UNIT 24 20 4 4 12 4

L.S. 10
PLAN  5
SIZE 0.28 0.15 0.1
TEMP -123.12
CONF
BOND
fmap 2
acta
MORE -1
BOND $H
OMIT 0 50.4
REM <olex2.extras>
REM <HklSrc "%.\\1.hkl">
REM </olex2.extras>

WGHT    0.016300
FVAR       0.58114
BR1   3    0.445117    0.135854    0.599352    11.00000    0.02350    0.01568 =
         0.02328   -0.00120   -0.00138   -0.00207
C1    1    0.652112    0.524175    0.616473    11.00000    0.01989    0.02010 =
         0.01921    0.00036    0.00093    0.00020
C2    1    0.696220    0.423881    0.657340    11.00000    0.01592    0.01815 =
         0.01548    0.00053    0.00333    0.00249
C3    1    0.564761    0.341106    0.616115    11.00000    0.01421    0.01706 =
         0.01334    0.00102    0.00373   -0.00027
AFIX  43
H3    2    0.442340    0.346722    0.561112    11.00000   -1.20000
AFIX   0
C4    1    0.613186    0.250186    0.655687    11.00000    0.01590    0.01609 =
         0.01319   -0.00276    0.00299    0.00176
C5    1    0.784210    0.242584    0.736635    11.00000    0.01980    0.01858 =
         0.01977    0.00445    0.00301    0.00219
AFIX  43
H5    2    0.810919    0.179897    0.764002    11.00000   -1.20000
AFIX   0
C6    1    0.870694    0.408289    0.738120    11.00000    0.01894    0.02162 =
         0.01250   -0.00585   -0.00031    0.00076
F1    4    1.018661    0.482768    0.781165    11.00000    0.03425    0.02004 =
         0.02815   -0.00908   -0.01241    0.00070
H1    2    0.459805    0.570237    0.519258    11.00000   -1.50000
N1    6    0.914434    0.322612    0.777724    11.00000    0.02058    0.02359 =
         0.01782    0.00182   -0.00115    0.00400
O1    5    0.476705    0.518320    0.540227    11.00000    0.05467    0.01386 =
         0.02973    0.00334   -0.01965   -0.00113
O2    5    0.759817    0.598971    0.647275    11.00000    0.04807    0.01652 =
         0.03471   -0.00164   -0.01381   -0.00888

O1W   5    0.397401    0.691099    0.464217    11.00000    0.02884    0.02059 =
         0.01591    0.00165    0.00113    0.00371
AFIX   3
H1WA  2    0.236161    0.731199    0.478597    11.00000   -1.50000
H1WB  2    0.420241    0.689679    0.405587    11.00000   -1.50000
AFIX   0
HKLF 4




REM  1.res in P2(1)2(1)2(1)
REM wR2 = 0.0465, GooF = S = 1.050, Restrained GooF = 1.050 for all data
REM R1 = 0.0213 for 1345 Fo > 4sig(Fo) and 0.0248 for all 1436 data
REM 112 parameters refined using 0 restraints

END

WGHT      0.0163      0.0000

REM Highest difference peak  0.241,  deepest hole -0.459,  1-sigma level  0.079
Q1    1   0.5370  0.3597  0.7626  11.00000  0.05    0.24
Q2    1   0.0769  0.2813  0.6144  11.00000  0.05    0.23
Q3    1   0.5783  0.6032  0.4188  11.00000  0.05    0.23
Q4    1   0.5179  0.1240  0.7827  11.00000  0.05    0.21
Q5    1   0.0307  0.1330  0.6007  11.00000  0.05    0.21
;
_shelx_hkl_file
;
   1   0   0    0.00    3.20
  -1   0   0    3.50    3.20
   1   0   0    4.50    3.50
  -1   0   0    1.70    3.00
   2   0   0 2537.65  114.09
  -2   0   0 2677.43  114.29
  -2   0   0 2581.94  113.99
   2   0   0 2463.25  113.89
   3   0   0   26.90    9.20
   3   0   0    2.80    9.50
  -3   0   0    5.50   10.10
   4   0   0    3.10   14.10
   4   0   0   45.60   13.10
  -4   0   0   10.30   13.20
  -4   0   0    5.40   13.90
   1  -1   0 2143.29   93.19
  -1  -1   0 2143.59   93.09
  -1   1   0 2177.28   93.19
  -1  -1   0 2146.59   93.09
  -1   1   0 2083.59   93.09
   1  -1   0 2059.29   92.99
   1   1   0 2068.69   93.09
   1   1   0 2180.08   93.19
  -2  -1   0  301.17   18.40
  -2   1   0  285.17   18.50
   2   1   0  281.27   18.40
   2   1   0  309.37   18.90
   2  -1   0  283.07   18.20
   2  -1   0  286.37   18.20
  -2   1   0  305.27   18.30
  -2  -1   0  285.47   18.50
  -3   1   0  333.67   24.50
   3   1   0  330.17   24.60
   3  -1   0  317.27   25.00
   3   1   0  299.37   23.70
  -3  -1   0  345.87   24.40
  -3   1   0  345.77   24.70
  -3  -1   0  366.66   23.30
   3  -1   0  341.27   24.10
   4  -1   0  168.18   23.50
  -4  -1   0  249.78   25.70
  -4   1   0  194.88   21.80
  -4   1   0  233.68   26.20
   4  -1   0  228.68   25.70
   4   1   0  238.68   27.10
   0  -2   0    5.20    1.60
   0   2   0    3.90    1.70
  -1   2   0 6100.59  261.07
   1   2   0 6174.98  261.17
   1   2   0 5886.51  261.07
  -1  -2   0 6083.09  260.97
  -1  -2   0 6071.19  260.97
  -1   2   0 6074.59  261.17
   1  -2   0 5894.21  260.87
  -2  -2   0   15.00    6.70
   2   2   0   19.70    7.20
   2   2   0   25.20    7.30
  -2   2   0   15.60    6.80
   2  -2   0   27.90    7.20
  -2   2   0   19.20    7.20
  -2  -2   0   20.00    6.80
   3   2   0  338.67   25.30
  -3   2   0  313.07   24.70
  -3  -2   0  342.77   25.00
   3  -2   0  371.16   25.50
   3   2   0  361.16   26.40
  -3  -2   0  408.86   24.40
  -3   2   0  368.96   25.80
   4  -2   0   17.70   12.80
  -4   2   0   46.20   15.90
  -4  -2   0   21.60   14.60
   4   2   0   37.90   15.70
   0   3   0    3.00    2.70
   0  -3   0    2.70    2.30
   1   3   0  299.37   16.10
  -1  -3   0  284.57   15.40
  -1  -3   0  285.37   15.50
   1   3   0  286.67   16.00
  -1   3   0  315.67   16.00
   1  -3   0  290.57   15.30
  -2   3   0  567.04   29.80
  -2   3   0  584.94   30.30
   2   3   0  551.04   29.90
   2   3   0  584.74   30.40
   2  -3   0  557.84   29.50
  -2  -3   0  584.04   29.80
  -2  -3   0  568.04   29.50
  -3  -3   0 1090.99   54.09
   3  -3   0 1083.19   55.19
  -3  -3   0 1124.19   55.09
   3   3   0 1065.89   55.29
   3   3   0 1106.19   55.69
  -3   3   0 1127.49   55.69
  -3   3   0 1093.09   55.49
   4   3   0  270.57   30.30
   4  -3   0  199.28   24.80
  -4  -3   0  312.97   27.10
  -4   3   0  298.47   28.50
   0  -4   0 1571.94   69.59
   0   4   0 1601.74   70.29
   1   4   0  148.39   10.90
   1   4   0  141.29   10.60
  -1  -4   0  135.99   10.30
  -1   4   0  133.99   10.30
   1  -4   0  145.59    9.70
  -1  -4   0  140.09   10.10
   2   4   0  540.75   28.70
  -2  -4   0  523.55   27.70
   2  -4   0  533.15   28.00
  -2  -4   0  537.75   28.00
  -2   4   0  517.75   29.20
  -2   4   0  495.65   28.20
   2   4   0  538.65   28.80
  -3  -4   0   11.30    9.20
  -3   4   0   -0.80   10.60
   3   4   0   -4.40   10.40
  -3  -4   0    1.00   10.20
  -3   4   0   -2.20   10.80
   3  -4   0    2.80   10.60
   3   4   0   -2.80   10.70
  -4  -4   0   13.10   14.00
   4   4   0   38.80   17.90
   4   4   0    1.70   15.70
  -4   4   0   18.10   15.60
   0  -5   0   -0.60    3.00
   0   5   0    2.90    4.40
   1  -5   0 1093.69   49.60
   1   5   0 1104.89   50.89
  -1   5   0 1107.19   50.19
  -1  -5   0 1056.19   49.50
  -1  -5   0 1097.69   50.19
   2   5   0  858.51   42.60
  -2   5   0  858.41   42.10
  -2  -5   0  845.02   41.60
   2   5   0  871.31   42.80
  -2  -5   0  817.82   41.90
   2  -5   0  857.71   41.60
  -2   5   0  844.02   42.70
   3  -5   0  121.09   17.80
  -3  -5   0  124.99   17.70
   3   5   0  114.69   15.70
  -3   5   0  117.79   15.40
   3   5   0  120.69   24.20
  -3  -5   0   93.69   13.80
  -3   5   0  111.39   26.00
   4   5   0  524.85   39.30
  -4   5   0  639.34   41.30
   4   5   0  578.54   41.60
   4  -5   0  476.05   35.60
  -4   5   0  510.85   38.20
  -4  -5   0  551.14   36.10
   0   6   0 1086.89   50.09
   0  -6   0 1067.59   48.50
  -1  -6   0  444.26   22.30
  -1   6   0  431.46   23.10
   1  -6   0  423.36   22.20
  -1  -6   0  416.16   22.90
   1   6   0  448.16   24.40
   2  -6   0 1784.42   81.69
  -2  -6   0 1778.72   81.59
   2   6   0 1787.72   83.09
  -2   6   0 1801.32   82.69
   2   6   0 1847.82   83.19
  -2  -6   0 1767.72   82.09
  -3  -6   0  152.28   18.00
   3   6   0  160.48   21.40
  -3   6   0  149.39   17.50
   3  -6   0  158.68   20.80
   3   6   0  131.59   17.80
  -3   6   0  170.58   21.70
  -3  -6   0  150.78   19.10
   4  -6   0   47.20   14.90
  -4  -6   0    2.00   14.50
   4   6   0    8.70   17.20
  -4  -6   0   22.60   12.70
  -4   6   0  -14.70   15.50
  -4   6   0   -6.70   16.80
   4   6   0   -5.30   16.30
   0   7   0    2.00    6.10
   0  -7   0    2.90    4.30
   1   7   0  161.48   16.50
  -1   7   0  160.88   14.00
   1  -7   0  162.28   12.40
  -1  -7   0  160.38   12.40
  -1  -7   0  155.48   13.10
   2   7   0   63.99   12.00
  -2   7   0  101.89   13.60
  -2  -7   0   63.79    9.80
  -2  -7   0   71.59   10.90
   2  -7   0   61.69    9.90
  -3   7   0  847.32   51.69
   3   7   0  872.81   49.99
  -3  -7   0  898.61   47.20
  -3  -7   0  850.71   45.80
  -3   7   0  931.01   49.20
   3   7   0  889.21   48.70
   3  -7   0  872.01   46.70
  -4  -7   0   55.19   15.60
   4   7   0   44.80   19.10
   4   7   0   57.89   20.10
   4  -7   0   96.79   17.70
  -4  -7   0   61.49   16.60
  -4   7   0   56.29   19.50
  -4   7   0   46.20   19.10
   0   8   0 2253.27  102.19
   0  -8   0 2267.67   99.79
  -1  -8   0 1079.69   50.19
  -1   8   0 1053.19   51.19
   1  -8   0 1090.59   49.70
  -1  -8   0 1069.99   49.60
   1   8   0 1054.09   53.39
  -2  -8   0  740.83   39.20
  -2  -8   0  765.32   38.20
   2  -8   0  753.02   38.50
  -3   8   0   59.19   16.00
  -3   8   0   43.40   14.80
  -3  -8   0   77.49   14.80
  -3  -8   0   52.19   12.40
   3  -8   0   68.29   13.40
   3   8   0   42.70   18.80
  -4  -8   0  113.09   18.20
   4  -8   0   86.69   19.10
  -4   8   0   87.79   22.40
  -4  -8   0   64.29   16.80
  -4   8   0   72.49   20.30
   4   8   0   41.90   20.20
   0  -9   0   -0.30    5.20
   0   9   0    7.10    8.30
   1   9   0    5.80   10.10
   1  -9   0    6.50    6.10
  -1   9   0    6.80    8.50
  -1  -9   0    5.80    6.50
  -1  -9   0    5.80    6.80
   2  -9   0  555.24   30.60
  -2  -9   0  552.74   30.40
  -2   9   0  558.94   32.30
  -2  -9   0  524.45   31.40
  -3  -9   0   -5.20   10.70
   3  -9   0    9.00   11.90
  -3   9   0    6.00   14.10
   3   9   0    0.50   14.90
  -3  -9   0    9.70   13.40
  -3   9   0   -6.40   14.70
  -4   9   0  147.39   26.20
  -4   9   0  143.69   24.50
   4   9   0  149.59   25.40
  -4  -9   0  156.78   20.60
  -4  -9   0  225.98   29.00
   4  -9   0  187.98   22.90
   0 -10   0  248.98   16.00
   0  10   0  227.78   20.70
  -1 -10   0 1517.05   68.79
  -1 -10   0 1513.55   68.29
   1  10   0 1372.86   73.39
  -1  10   0 1548.05   71.69
   1 -10   0 1531.55   68.49
  -2 -10   0  229.78   19.00
   2  10   0  222.28   25.00
  -2 -10   0  245.88   20.90
   2 -10   0  236.78   19.60
  -2  10   0  228.18   22.30
   3  10   0  173.08   23.70
   3 -10   0  200.48   26.30
  -3  10   0  199.58   27.80
  -3 -10   0  177.68   21.90
  -3  10   0  221.98   30.60
  -3 -10   0  178.78   24.40
   4  10   0    9.90   21.70
  -4  10   0   26.80   20.40
   4 -10   0   11.50   17.40
  -4 -10   0   22.50   15.20
  -4  10   0  -21.40   22.50
  -4 -10   0   37.80   17.90
   0 -11   0    1.30    6.50
   0 -11   0    1.90    6.30
   0  11   0    2.00   10.90
   1 -11   0   22.30    7.60
  -1 -11   0   22.50    7.80
  -1 -11   0   19.50    7.70
   2 -11   0    8.30    9.70
   2  11   0   13.80   14.90
  -2 -11   0   15.20   10.00
  -2 -11   0   26.60    9.50
  -2  11   0    4.20   12.60
  -3 -11   0  527.35   36.70
   3  11   0  565.64   42.80
  -3  11   0  538.15   38.40
  -3  11   0  538.85   41.50
  -3 -11   0  541.65   33.70
   0 -12   0   39.20    8.20
   0 -12   0   42.30    7.90
   1  12   0   12.20   14.70
  -1  12   0   22.80   12.40
   1 -12   0   21.80    7.90
  -1 -12   0   21.60    8.00
  -1 -12   0   25.20    8.40
   2 -12   0  293.17   22.10
  -2 -12   0  272.97   22.50
  -2  12   0  268.07   27.60
  -3  12   0   62.49   21.60
   3  12   0   68.99   22.60
  -3 -12   0   70.19   16.00
  -3  12   0   75.19   19.60
  -3 -12   0   52.09   13.30
   0 -13   0   -3.50    7.20
   0 -13   0    3.70    7.20
   0  13   0   -4.00   13.60
   1  13   0   34.10   17.00
  -1 -13   0   20.30    8.20
  -1 -13   0   24.40    8.60
   1 -13   0    6.50    7.80
  -1  13   0   17.50   14.20
  -2  13   0  210.38   28.80
   2  13   0  221.38   27.30
   2 -13   0  231.88   20.90
  -2 -13   0  213.78   21.20
   3  13   0   40.50   23.60
  -3  13   0   19.50   19.50
  -3 -13   0   34.60   12.80
  -3 -13   0   49.20   15.50
  -3  13   0   33.60   23.00
   0 -14   0  188.48   16.00
   0 -14   0  191.88   15.80
   0  14   0  195.68   28.30
  -1  14   0  113.99   19.60
   1  14   0  105.39   25.20
  -1 -14   0  109.89   14.60
   1 -14   0  152.98   15.30
  -1 -14   0  136.69   15.00
   2  14   0  269.27   37.30
  -2  14   0  226.38   33.20
   2 -14   0  271.27   22.60
  -2 -14   0  290.27   22.90
   0 -15   0    3.60    7.50
   0 -15   0   -1.40    6.70
   0  15   0    9.10   17.70
  -1 -15   0   12.70    7.80
  -1 -15   0    8.00    7.70
  -1  15   0   29.80   17.40
   1 -15   0   14.90    8.20
   1  15   0   36.80   21.90
   2  15   0   17.30   22.20
   2 -15   0    8.90   11.10
  -2  15   0   22.60   18.80
  -2 -15   0   18.30   10.00
   0  16   0   97.29   22.50
   0 -16   0   92.59   11.70
   0 -16   0   75.59   10.00
  -1  16   0  717.03   48.90
  -1 -16   0  639.14   31.50
   1  16   0  632.24   49.30
   1 -16   0  617.64   32.40
   1 -16   0  647.54   33.10
  -1   0  -1  428.86   20.20
  -1   0   1  410.16   19.90
   1   0   1  408.46   20.20
  -1   0  -1  426.56   20.20
   1   0  -1  409.26   20.00
  -1   0   1  393.06   20.00
   1   0  -1  408.16   20.10
   1   0   1  419.26   20.10
   2   0   1  667.63   35.00
   2   0  -1  685.63   34.90
   2   0   1  733.13   35.10
   2   0  -1  688.63   35.00
  -2   0  -1  719.43   35.00
  -2   0   1  694.03   34.60
  -2   0  -1  706.13   35.10
  -2   0   1  725.03   35.00
  -3   0  -1   56.39   11.30
   3   0  -1   53.69   11.90
   3   0  -1   59.79   11.40
   3   0   1   41.60   11.40
  -3   0   1   52.29   12.00
  -3   0  -1   42.80   11.80
  -4   0  -1  556.34   36.60
  -4   0   1  559.64   36.30
   4   0   1  444.56   38.20
   4   0   1  555.14   36.10
   4   0  -1  503.45   36.00
  -1   1  -1   81.79    7.20
   1   1   1   87.19    7.60
  -1  -1   1   91.39    7.00
   1   1   1   91.79    7.80
   1  -1  -1   96.49    7.40
   1  -1  -1   92.09    7.50
  -1  -1   1   87.49    6.80
  -1   1  -1   97.69    7.30
  -2  -1  -1  935.31   43.70
   2  -1   1  922.61   43.40
  -2   1   1  901.51   43.70
  -2  -1  -1  948.51   43.80
  -2   1   1  884.51   43.30
   2   1  -1  936.01   43.70
   2   1  -1  883.91   43.50
   2  -1   1  855.31   43.30
   2   1   1  890.11   43.70
  -2  -1   1  903.51   43.30
  -2  -1   1  916.31   43.40
   2   1   1  924.81   43.70
   2  -1  -1  888.31   43.70
  -2   1  -1  923.51   43.90
   2  -1  -1  917.01   43.60
  -2   1  -1  882.71   43.40
  -3   1   1  186.68   18.00
   3   1  -1  172.18   19.80
   3   1  -1  157.68   18.00
  -3  -1  -1  146.89   18.50
  -3  -1  -1  178.68   19.00
   3  -1   1  165.88   18.40
  -3   1   1  167.68   19.70
  -3   1  -1  130.79   18.20
   3  -1  -1  135.39   18.30
   3   1   1  138.19   19.40
  -3  -1   1  136.19   19.10
  -3   1  -1  144.09   17.90
   3  -1  -1  129.89   18.60
   3   1   1  128.19   17.80
   4  -1   1   82.59   16.70
   4   1  -1   52.29   15.90
  -4  -1  -1   68.49   16.20
  -4   1   1   47.80   14.40
  -4  -1  -1   69.79   15.40
  -4   1   1   75.69   16.90
  -4   1  -1   81.59   16.80
   4  -1  -1   84.69   15.10
   4   1   1  113.69   16.70
   4   1   1   68.99   16.80
  -4  -1   1   82.59   16.90
   0   2  -1  255.47   11.90
   0   2   1  270.67   13.50
   0  -2  -1  279.37   13.30
  -1  -2  -1  631.04   29.80
   1   2  -1  673.93   29.60
  -1   2   1  642.24   29.70
   1   2  -1  682.03   29.60
  -1  -2  -1  638.24   29.70
   1  -2   1  643.24   29.30
   1  -2  -1  608.04   29.60
  -1  -2   1  618.54   29.10
  -1  -2   1  611.84   29.20
   1   2   1  627.04   30.00
   1   2   1  619.64   29.80
  -1   2  -1  610.54   29.50
  -1   2  -1  622.94   29.30
   2  -2   1  193.68   14.10
   2   2  -1  202.28   15.10
  -2   2   1  175.18   14.30
  -2   2   1  192.98   14.90
   2   2  -1  202.68   14.60
  -2  -2  -1  205.48   14.80
   2  -2   1  194.08   14.70
  -2  -2  -1  197.88   14.60
   2   2   1  153.78   14.10
   2  -2  -1  156.38   14.00
  -2   2  -1  148.29   14.10
  -2   2  -1  157.28   14.00
   2   2   1  152.68   14.30
  -2  -2   1  156.48   14.10
  -2  -2   1  153.68   13.20
  -3   2   1 1226.68   60.19
   3  -2   1 1275.97   59.89
  -3  -2  -1 1218.38   59.89
  -3  -2  -1 1263.17   59.99
  -3   2   1 1258.87   60.39
   3   2  -1 1239.18   60.19
   3   2  -1 1219.78   60.19
   3  -2   1 1297.67   59.59
  -3  -2   1 1333.27   59.19
   3  -2  -1 1108.99   59.59
  -3   2  -1 1174.58   59.99
   3   2   1 1114.79   59.49
  -3  -2   1 1192.38   59.69
   3   2   1 1110.09   59.79
  -3   2  -1 1258.07   60.49
  -4  -2  -1   34.10   15.40
  -4   2   1   45.60   15.70
  -4  -2  -1   29.20   13.30
  -4   2   1   89.79   15.00
   4   2  -1   32.00   15.70
  -4   2  -1   55.99   16.20
   4  -2  -1   61.09   15.40
  -4  -2   1   58.29   16.00
   4   2   1   53.99   16.10
   0  -3   1  496.25   21.20
   0  -3   1  482.25   21.20
   0   3  -1  470.05   21.70
   0  -3  -1  467.95   22.80
   0   3   1  493.85   23.30
   1   3  -1 2094.79   87.59
   1  -3   1 1998.60   87.09
  -1   3   1 2046.30   87.89
   1   3  -1 2101.59   87.49
  -1  -3  -1 2102.09   87.89
  -1  -3  -1 2085.79   87.99
   1  -3  -1 1918.41   87.59
  -1  -3   1 1878.11   87.09
   1   3   1 1923.91   87.99
  -1   3  -1 1865.51   87.29
   1   3   1 1939.11   87.99
  -1  -3   1 1889.01   86.99
  -2   3   1  396.06   23.50
  -2  -3  -1  416.56   22.70
   2   3  -1  410.96   22.70
   2  -3   1  410.56   22.20
  -2  -3  -1  419.16   22.80
   2   3  -1  422.76   22.80
  -2   3   1  408.06   22.80
   2  -3  -1  385.16   22.40
  -2   3  -1  359.56   22.70
  -2   3  -1  354.46   22.00
  -2  -3   1  349.27   21.60
   2   3   1  379.26   22.90
   2   3   1  369.36   22.80
  -2  -3   1  360.96   21.90
   3   3  -1  260.77   23.50
  -3  -3  -1  260.37   22.40
  -3   3   1  261.17   23.00
   3   3  -1  268.87   22.80
  -3  -3  -1  245.08   22.80
  -3   3   1  219.88   21.80
   3  -3   1  265.57   22.00
   3   3   1  282.77   24.40
   3   3   1  276.87   22.80
  -3   3  -1  278.67   23.30
   3  -3  -1  303.37   23.00
  -3   3  -1  304.47   22.90
  -3  -3   1  293.27   21.80
   4   3  -1  134.99   19.80
  -4  -3  -1  115.89   18.40
  -4   3   1  160.88   24.10
  -4  -3  -1  113.29   17.30
   4   3   1  146.99   20.10
   4  -3  -1  175.78   23.40
  -4  -3   1  127.59   18.10
  -4   3  -1  149.69   20.50
   0   4  -1    5.30    2.80
   0   4   1    3.90    4.20
   0  -4   1    5.50    1.90
   0  -4  -1    1.90    3.70
   1  -4   1 1510.05   64.29
  -1  -4  -1 1499.95   65.29
  -1   4   1 1492.75   65.29
   1   4  -1 1474.45   64.69
   1   4  -1 1517.45   64.99
  -1  -4  -1 1501.15   65.09
   1  -4  -1 1370.16   64.89
   1   4   1 1443.36   65.59
  -1   4  -1 1383.66   64.49
  -1  -4   1 1361.06   64.29
  -1  -4   1 1375.26   64.09
  -2  -4  -1  619.64   33.30
  -2   4   1  639.94   33.60
   2  -4   1  632.24   33.10
   2   4  -1  623.34   33.50
  -2   4   1  635.74   34.40
   2   4  -1  605.74   33.50
  -2  -4  -1  665.33   33.50
  -2  -4   1  675.63   32.80
   2   4   1  696.63   34.30
  -2  -4   1  673.13   32.80
  -2   4  -1  648.84   33.30
   2  -4  -1  665.53   33.50
   2   4   1  686.63   34.40
  -2   4  -1  661.43   33.80
  -3   4   1  458.75   30.50
  -3   4   1  465.65   29.80
  -3  -4  -1  435.56   29.40
   3   4  -1  465.25   31.10
   3   4  -1  446.36   29.80
   3  -4   1  462.85   29.70
  -3  -4  -1  458.05   29.80
  -3  -4   1  424.96   29.20
   3   4   1  459.55   30.70
   3   4   1  436.96   31.00
  -3  -4   1  538.25   27.70
  -3   4  -1  465.45   30.40
   3  -4  -1  465.45   29.70
  -3   4  -1  469.15   29.70
  -4  -4  -1  287.17   27.30
   4   4  -1  277.67   32.00
  -4   4   1  279.07   28.70
   4   4  -1  276.37   31.20
  -4  -4  -1  243.38   25.80
   4  -4  -1  359.66   30.40
  -4   4  -1  259.27   29.00
  -4  -4   1  278.67   28.30
   4   4   1  292.57   29.90
  -4   4  -1  280.47   30.00
   0  -5  -1 2858.61  122.49
   0  -5   1 2664.13  120.89
   0   5  -1 2797.12  121.99
   0   5   1 2860.11  123.29
  -1   5   1 2277.67   97.19
   1   5  -1 2203.58   97.09
   1   5  -1 2239.48   96.59
  -1  -5  -1 2194.08   97.19
  -1  -5  -1 2205.38   96.69
   1  -5   1 2157.28   95.79
  -1  -5   1 2117.09   96.09
   1   5   1 2198.48   97.89
   1  -5  -1 2118.49   96.59
  -1  -5   1 2179.78   95.69
  -1   5  -1 2118.29   96.29
   2  -5   1 1087.79   52.69
  -2   5   1 1058.59   54.09
   2   5  -1 1040.30   53.19
  -2  -5  -1 1077.19   53.49
  -2   5   1 1099.89   53.69
  -2  -5  -1 1075.69   53.09
   2   5  -1 1069.39   53.49
  -2  -5   1 1189.48   53.09
   2  -5  -1 1201.58   53.79
   2   5   1 1161.48   54.49
  -2   5  -1 1171.48   54.09
  -2   5  -1 1173.88   53.69
  -2  -5   1 1124.99   52.49
   2   5   1 1177.48   54.49
  -3  -5  -1  179.68   19.00
   3   5  -1  149.99   20.10
   3   5  -1  161.58   22.80
  -3  -5  -1  175.68   19.50
  -3   5   1  137.49   19.60
   3  -5   1  177.88   19.90
  -3   5  -1  148.19   20.20
   3  -5  -1  131.49   16.30
   3   5   1  148.09   21.80
  -3   5  -1  128.59   16.50
  -3  -5   1  142.59   19.40
  -4  -5  -1   41.20   15.60
  -4   5   1   48.80   17.10
   4   5  -1   48.50   18.10
  -4  -5  -1   87.39   16.60
   4   5  -1   46.50   17.70
   4   5   1   91.99   18.30
   4   5   1   66.09   17.50
   4  -5  -1  104.29   17.90
  -4   5  -1   48.70   17.80
  -4   5  -1   67.29   18.40
  -4  -5   1   51.39   15.40
   0   6   1 1637.84   72.99
   0  -6  -1 1601.74   71.59
   0   6  -1 1581.84   71.59
   0  -6   1 1580.54   70.09
  -1  -6  -1   34.90    7.60
   1  -6   1   35.90    5.40
   1   6  -1   30.70    7.30
  -1   6   1   31.30    7.30
  -1  -6  -1   32.20    6.90
  -1   6  -1   65.29    9.40
  -1  -6   1   58.59    8.30
  -1  -6   1   53.69    7.50
   1   6   1   51.29    9.00
   2   6  -1  616.04   33.80
  -2   6   1  619.54   33.50
   2  -6   1  650.43   31.80
  -2  -6  -1  625.04   33.60
  -2  -6  -1  627.14   32.90
   2   6  -1  658.33   33.30
   2   6   1  612.84   34.30
  -2   6  -1  582.04   32.60
   2  -6  -1  587.24   32.40
  -2  -6   1  599.64   32.20
  -2   6  -1  609.44   34.20
  -2  -6   1  627.84   31.70
  -3  -6  -1  379.36   28.60
  -3  -6  -1  374.76   28.20
  -3   6   1  384.86   29.60
   3   6  -1  273.07   40.10
   3  -6   1  374.36   27.20
   3   6  -1  390.46   29.00
  -3   6   1  395.06   29.90
  -3  -6   1  462.75   25.70
  -3   6  -1  412.06   29.90
   3  -6  -1  380.76   27.60
   3   6   1  411.76   31.10
  -3   6  -1  405.06   29.70
   3   6   1  434.66   30.10
  -3  -6   1  427.36   27.00
  -4   6   1   59.59   18.20
   4   6  -1   83.39   19.40
  -4  -6  -1   74.49   17.60
  -4   6   1  104.69   19.80
  -4  -6  -1  102.19   17.20
   4   6  -1   63.99   18.70
   4   6   1   52.19   18.70
   4   6   1   60.39   19.70
  -4  -6   1   45.50   15.20
  -4   6  -1   92.29   19.60
   4  -6  -1   84.59   17.90
  -4   6  -1   94.79   19.60
   0   7  -1 1015.30   47.00
   0   7   1  980.30   48.20
   0  -7  -1 1006.40   46.60
   0  -7   1  995.00   44.70
   1  -7   1  818.92   40.10
   1   7  -1  845.82   43.30
  -1   7   1  873.91   42.90
  -1  -7  -1  836.32   41.60
  -1  -7  -1  818.22   42.10
  -1  -7   1  905.71   40.20
  -1   7  -1  934.81   42.00
  -1  -7   1  862.71   40.60
   1   7   1  901.91   44.80
   1  -7  -1  918.41   41.80
  -2   7   1  648.84   32.70
   2   7  -1  573.94   33.40
  -2  -7  -1  605.44   32.70
  -2  -7  -1  594.14   31.90
   2   7  -1  583.44   33.90
   2  -7   1  611.84   31.50
  -2  -7   1  552.84   31.60
   2   7   1  688.53   34.10
   2  -7  -1  581.44   32.30
  -2  -7   1  563.54   30.60
  -2   7  -1  565.74   32.60
   3   7  -1   88.49   16.00
   3   7  -1   97.59   16.00
  -3   7   1   88.99   16.60
  -3  -7  -1   83.79   15.10
  -3  -7  -1   90.19   14.30
   3  -7   1   74.39   13.30
   3  -7  -1   84.29   14.60
  -3  -7   1   94.09   14.30
  -3   7  -1   76.29   15.60
  -3  -7   1  141.79   16.60
  -3   7  -1   89.59   14.90
   4   7  -1  206.48   31.10
  -4   7   1  240.18   30.30
  -4   7   1  214.98   31.90
   4   7  -1  232.58   30.90
  -4  -7  -1  235.18   28.30
  -4  -7  -1  303.17   30.40
   4   7   1  233.18   34.40
  -4   7  -1  275.67   30.40
  -4  -7   1  209.58   26.20
   4  -7  -1  295.17   31.70
  -4   7  -1  283.87   34.70
   0   8   1   25.90    9.30
   0  -8  -1   26.40    6.60
   0   8  -1   32.20    7.50
   0  -8   1   27.90    4.50
   0  -8   1   25.60    4.90
  -1  -8  -1  697.43   34.90
   1  -8   1  709.43   33.40
   1   8  -1  703.83   37.70
  -1   8   1  738.43   37.20
  -1  -8  -1  674.03   35.50
   1   8   1  688.33   39.10
   1  -8  -1  688.43   34.80
  -1  -8   1  703.83   33.20
  -1  -8   1  692.63   33.70
  -1   8  -1  721.43   35.60
   2  -8   1  163.98   15.20
  -2   8   1  132.49   16.30
  -2  -8  -1  143.39   16.20
  -2  -8  -1  137.89   17.50
   2  -8  -1  145.59   16.80
  -2  -8   1  155.78   14.50
  -2  -8   1  149.19   16.10
   3  -8   1  178.48   20.60
   3   8  -1  163.28   23.20
  -3  -8  -1  173.18   21.00
  -3   8   1  191.38   23.40
  -3   8   1  179.68   24.90
  -3  -8  -1  187.18   23.10
  -3  -8   1  133.79   18.90
  -3   8  -1  158.78   19.90
  -3  -8   1  164.18   21.30
   3   8   1  170.38   21.40
  -3   8  -1  142.49   21.30
  -4   8   1  158.58   25.70
   4   8  -1  198.48   25.90
  -4   8   1  168.48   25.10
   4  -8   1  200.78   25.30
   4   8  -1  154.68   25.40
  -4  -8  -1  186.68   27.30
  -4  -8  -1  175.18   23.00
  -4   8  -1  267.57   33.10
  -4   8  -1  206.68   25.50
   4   8   1  224.18   33.30
   4  -8  -1  229.78   31.60
  -4  -8   1  210.88   25.50
   0   9   1 1466.15   71.39
   0  -9  -1 1523.35   68.29
   0   9  -1 1515.75   69.99
   0  -9   1 1496.15   66.19
   0  -9   1 1464.95   66.39
   1  -9   1   96.39   10.40
  -1  -9  -1   96.39   12.80
  -1   9   1  128.09   16.70
  -1  -9  -1  100.69   13.50
   1   9  -1   86.99   13.50
  -1   9  -1   97.29   13.30
  -1  -9   1   99.99   10.50
   1   9   1   87.09   14.20
  -1  -9   1  104.99   11.00
   1  -9  -1  107.79   13.20
   2  -9   1  461.65   26.00
  -2   9   1  423.36   29.30
  -2  -9  -1  453.15   29.00
  -2  -9   1  429.96   26.80
  -2  -9   1  469.35   25.50
   2  -9  -1  475.25   27.80
   2   9   1  432.86   32.80
  -3   9   1  266.37   29.10
   3   9  -1  310.27   30.90
  -3   9   1  270.57   29.90
   3  -9   1  264.17   24.40
  -3  -9  -1  281.87   25.10
  -3  -9   1  296.17   25.70
  -3   9  -1  286.07   27.00
  -3  -9   1  301.57   23.10
  -3   9  -1  283.47   30.20
   3   9   1  302.17   31.10
   3  -9  -1  287.27   26.50
   4  -9   1   67.09   15.80
  -4  -9  -1   10.20   15.90
  -4   9   1   -5.80   20.10
  -4  -9  -1   14.30   18.30
   4   9  -1   16.30   19.60
  -4   9   1   30.70   19.20
  -4   9  -1  -12.80   18.10
   4   9   1  -15.20   19.30
   4  -9  -1    6.40   17.80
  -4  -9   1   17.30   14.00
  -4   9  -1  -18.20   19.60
   0  10   1  921.81   48.20
   0 -10  -1  925.31   43.60
   0  10  -1  875.41   46.30
   0 -10   1  893.21   41.40
   0 -10   1  902.51   41.50
   1 -10   1  600.54   28.60
  -1 -10  -1  600.64   30.80
  -1  10   1  604.04   33.00
   1  10  -1  535.55   35.10
  -1 -10  -1  587.94   31.40
  -1 -10   1  543.35   28.50
   1 -10  -1  534.05   30.40
  -1 -10   1  515.65   28.10
  -1  10  -1  532.25   32.30
   1  10   1  667.03   36.00
   2 -10   1   53.59   10.10
  -2 -10  -1   56.69   12.60
   2  10  -1   83.39   15.80
  -2  10   1   59.59   14.10
   2 -10  -1   93.19   12.30
  -2 -10   1   88.69   13.20
  -2  10  -1   91.79   14.00
  -2 -10   1   77.59   11.40
   2  10   1   77.59   17.10
  -3 -10  -1  175.68   31.50
   3  10  -1  181.28   23.80
   3 -10   1  203.48   22.50
  -3  10   1  186.68   26.10
  -3 -10  -1  197.48   28.00
  -3  10   1  206.48   29.70
  -3  10  -1  205.08   29.50
  -3  10  -1  207.58   25.60
  -3 -10   1  178.98   22.90
   3  10   1  187.28   24.60
  -3 -10   1  206.98   20.20
   3 -10  -1  182.98   24.00
   4  10  -1   51.69   23.10
   4 -10   1  104.99   17.70
  -4  10   1   47.60   27.90
  -4 -10  -1   75.09   22.20
  -4 -10  -1   70.29   18.20
  -4  10   1   20.70   21.20
  -4  10  -1   50.09   22.10
  -4 -10   1   47.40   15.70
   4  10   1    9.90   22.10
   4 -10  -1   37.40   19.60
  -4  10  -1   21.70   22.50
   0 -11   1  380.76   20.10
   0 -11   1  377.96   20.00
   0  11  -1  382.66   27.50
   0 -11  -1  392.26   23.30
   1  11  -1 1263.67   66.49
   1 -11   1 1366.46   60.29
  -1 -11  -1 1342.47   62.29
  -1  11   1 1484.95   65.99
  -1 -11  -1 1342.17   62.69
   1 -11  -1 1229.08   61.99
  -1  11  -1 1389.26   64.29
   1  11   1 1328.37   67.49
  -1 -11   1 1200.58   59.79
   2 -11   1  251.27   20.10
   2  11  -1  250.07   28.00
  -2 -11  -1  275.67   23.80
  -2  11   1  248.88   31.30
  -2 -11   1  300.57   21.00
  -2  11  -1  271.27   25.80
   2 -11  -1  298.37   22.60
  -2 -11   1  274.07   19.30
   2  11   1  286.37   29.20
   3 -11   1  125.59   16.10
  -3 -11  -1   63.29   24.40
  -3 -11  -1   87.09   17.70
   3  11  -1  107.09   22.50
  -3  11   1   66.79   21.20
  -3  11   1  117.29   20.10
  -3 -11   1  102.49   13.20
  -3  11  -1   88.19   21.30
  -3 -11   1   94.39   15.50
   3 -11  -1   93.39   16.00
  -3  11  -1   88.49   18.90
   3  11   1   74.79   22.40
   0 -12  -1  340.67   21.70
   0 -12   1  314.27   17.60
   0 -12   1  321.87   17.90
   0  12   1  342.57   28.00
  -1 -12  -1  329.47   21.90
  -1  12   1  302.17   27.50
   1 -12   1  302.97   18.40
  -1 -12  -1  318.87   22.30
   1  12  -1  306.57   28.30
  -1 -12   1  292.07   18.00
  -1 -12   1  317.77   18.10
   1 -12  -1  286.47   21.70
   1  12   1  309.97   31.90
   2  12  -1  372.76   35.50
  -2  12   1  402.96   33.90
   2 -12   1  428.96   25.30
  -2 -12  -1  397.16   28.30
   2 -12  -1  400.26   27.50
  -2 -12   1  386.06   23.80
   2  12   1  382.86   37.50
  -2 -12   1  412.56   25.20
   3 -12   1   76.59   15.10
  -3 -12  -1   95.29   16.10
  -3  12   1  115.29   21.70
   3  12  -1  104.19   22.50
  -3 -12  -1   77.29   17.20
  -3  12   1   99.29   23.90
  -3 -12   1   94.79   15.60
   3 -12  -1  101.39   17.50
  -3  12  -1  109.59   21.20
  -3 -12   1  121.59   17.20
  -3  12  -1  106.79   22.20
   3  12   1   83.49   23.20
   0 -13   1 1120.39   53.19
   0  13  -1 1344.17   62.69
   0 -13  -1 1168.48   56.89
   0  13   1 1169.48   63.29
   0 -13   1 1185.18   53.39
   1 -13   1   76.99   10.80
  -1 -13  -1   87.29   11.80
  -1 -13  -1   89.89   12.10
   1  13  -1   71.39   18.20
  -1  13   1   86.59   19.80
  -1  13  -1   87.49   15.90
   1  13   1   76.59   19.70
   1 -13  -1   72.09   11.40
  -1 -13   1   97.29   10.40
  -1 -13   1   86.99   10.80
  -2  13   1  272.17   30.40
   2 -13   1  299.97   21.60
   2  13  -1  281.27   33.60
  -2 -13  -1  296.37   25.00
   2 -13  -1  312.67   25.10
  -2 -13   1  335.47   21.40
  -2  13  -1  315.37   31.60
   2  13   1  258.47   33.80
  -2 -13   1  326.27   20.40
  -3  13   1  244.78   34.30
  -3 -13  -1  259.07   25.90
  -3  13   1  140.29   28.70
  -3 -13  -1  274.67   29.80
   3  13  -1  231.78   30.50
   3 -13   1  203.38   24.40
   3 -13  -1  228.08   31.70
   3  13   1  238.38   32.20
  -3  13  -1  187.38   27.80
  -3  13  -1  207.78   26.60
  -3 -13   1  216.18   24.60
  -3 -13   1  236.18   20.40
   0 -14  -1  167.18   17.40
   0  14  -1  206.48   27.30
   0 -14  -1  181.38   18.20
   0 -14   1  180.18   10.80
   1  14  -1  240.48   31.60
  -1  14   1  228.88   29.60
  -1 -14  -1  245.48   20.80
   1 -14   1  238.48   15.60
   1 -14  -1  251.27   20.80
  -1 -14   1  224.78   14.20
  -1 -14   1  261.97   14.50
   1  14   1  307.97   35.50
  -1  14  -1  264.77   34.60
  -2 -14  -1  299.07   23.40
  -2 -14  -1  265.17   25.20
   2 -14   1  244.48   20.40
  -2  14   1  257.97   33.20
   2  14  -1  265.97   36.20
  -2  14  -1  265.27   32.70
  -2 -14   1  289.87   19.40
  -2 -14   1  283.17   18.20
   2 -14  -1  297.97   24.90
   2  14   1  261.77   36.00
   0 -15  -1    9.70    9.50
   0  15   1   -0.10   17.10
   0 -15  -1    4.90    9.40
   0  15  -1   15.30   18.80
  -1  15   1  399.26   39.00
   1  15  -1  468.75   41.80
  -1 -15  -1  477.75   27.30
   1 -15   1  410.96   23.30
  -1  15  -1  423.86   36.10
   1  15   1  489.55   44.70
  -2  15   1   66.79   21.60
  -2 -15  -1   97.69   14.70
   2 -15   1   60.49    9.60
   2  15  -1   96.49   24.60
  -2  15  -1   58.19   20.20
   2 -15  -1   50.09   13.60
   2  15   1   51.69   24.10
  -2 -15   1   86.89   10.50
  -2 -15   1   88.09   11.60
   0  16  -1   84.29   20.90
   0 -16  -1   79.59   11.90
   0  16   1   58.19   21.20
   0 -16  -1   64.69   11.10
  -1  16   1   71.09   21.90
  -1 -16  -1   67.59   11.70
   1  16  -1   97.19   23.80
   1 -16  -1   62.19   11.30
  -1  16  -1   99.59   22.20
   1  16   1   51.79   24.50
   0   0   2  122.19    5.80
   0   0  -2  107.49    6.00
   1   0  -2  544.65   26.00
  -1   0   2  539.85   25.80
   1   0   2  545.45   26.10
  -1   0  -2  560.14   26.20
   1   0  -2  537.05   26.00
  -1   0   2  559.04   25.90
   1   0   2  557.74   26.10
  -1   0  -2  569.34   26.10
   2   0   2  404.16   23.10
   2   0  -2  408.26   22.80
  -2   0  -2  417.36   22.90
   2   0   2  406.06   22.90
  -2   0  -2  384.56   22.80
   2   0  -2  375.66   22.40
  -2   0   2  398.96   22.20
  -2   0   2  394.96   22.40
  -3   0  -2  921.21   46.30
   3   0  -2  822.12   45.70
  -3   0  -2  889.11   46.00
   3   0  -2  833.92   45.80
   3   0   2  861.21   45.90
  -3   0   2  998.60   45.50
   3   0   2  866.41   45.20
  -3   0   2  854.51   45.40
   4   0   2   -2.60   12.20
   4   0  -2   -2.50   14.00
   4   0   2   -3.50   13.80
  -4   0   2    3.00   13.30
  -4   0  -2   -6.60   14.10
   0   1   2   53.49    4.60
   0  -1  -2   47.30    4.90
   1  -1   2 4652.03  201.48
  -1  -1  -2 4761.02  201.98
  -1  -1  -2 4877.61  202.18
  -1   1   2 4770.62  201.88
  -1   1   2 4961.20  201.98
   1   1  -2 4818.22  201.58
   1   1  -2 4652.33  201.58
   1  -1   2 4838.72  201.58
  -1   1  -2 4440.76  201.58
   1  -1  -2 4677.33  201.98
  -1  -1   2 4418.06  201.28
   1   1   2 4596.44  201.98
  -1   1  -2 4607.44  201.68
  -1  -1   2 4352.26  201.28
   1   1   2 4432.66  201.78
  -2   1   2 1230.58   64.19
  -2  -1  -2 1324.57   64.69
   2   1  -2 1276.07   64.59
   2   1  -2 1315.97   64.59
  -2   1   2 1261.07   64.49
   2  -1   2 1284.17   64.29
   2  -1   2 1319.37   64.29
  -2  -1  -2 1297.07   64.79
  -2  -1   2 1531.75   64.69
   2  -1  -2 1561.44   65.29
   2   1   2 1510.85   65.09
  -2   1  -2 1540.85   65.19
  -2  -1   2 1512.45   64.69
   2   1   2 1550.44   65.49
  -2   1  -2 1529.95   65.19
   2  -1  -2 1486.55   65.19
  -3   1   2  150.88   18.50
  -3  -1  -2  146.99   18.50
  -3  -1  -2  130.99   18.00
   3  -1   2  154.38   18.10
   3   1  -2  159.28   18.60
   3   1  -2  138.29   17.90
  -3   1   2  142.89   17.20
  -3   1  -2  160.18   18.90
  -3   1  -2  156.98   18.10
   3   1   2  117.59   17.60
   3  -1  -2  163.98   19.70
   3   1   2  148.99   18.70
   3  -1  -2  131.49   18.80
  -3  -1   2  143.19   17.70
   4  -1   2   14.50   14.30
   4   1  -2   20.90   15.00
  -4  -1  -2   35.30   15.50
  -4   1   2   19.60   14.60
  -4  -1  -2   57.39   13.60
  -4   1   2   12.70   12.10
   4   1   2   55.39   15.10
  -4  -1   2   30.30   15.20
   4   1   2   37.20   15.30
  -4   1  -2   29.80   15.70
   0  -2  -2   11.10    3.30
   0   2   2    7.60    3.50
  -1  -2  -2  224.88   14.00
  -1   2   2  218.48   13.90
   1  -2   2  237.88   13.10
   1   2  -2  227.58   13.20
  -1  -2  -2  219.68   14.20
   1   2  -2  239.48   13.40
   1   2   2  261.07   14.30
  -1   2  -2  281.37   13.80
  -1  -2   2  273.27   13.00
  -1   2  -2  273.57   13.50
   1  -2  -2  268.77   14.30
  -1  -2   2  265.97   13.10
   2  -2   2 1163.08   56.79
  -2   2   2 1187.68   57.59
  -2  -2  -2 1216.58   57.69
  -2   2   2 1185.28   57.29
   2   2  -2 1215.78   57.39
   2   2  -2 1231.58   57.49
  -2  -2  -2 1160.48   57.49
   2  -2   2 1220.88   57.19
  -2  -2   2 1306.67   57.19
  -2   2  -2 1299.77   57.69
   2   2   2 1264.97   57.89
   2  -2  -2 1291.97   57.79
   2   2   2 1249.18   57.99
  -2  -2   2 1224.48   56.69
  -2   2  -2 1258.07   57.59
   3   2  -2   35.30   11.50
  -3  -2  -2   45.60   11.70
  -3   2   2   42.70   11.90
  -3  -2  -2   46.10   11.90
   3   2  -2   39.00   11.80
  -3   2   2   30.20   11.00
   3  -2   2   48.30   11.60
  -3   2  -2   37.40   11.50
   3   2   2   19.70   11.60
   3   2   2   27.00   11.30
  -3  -2   2   23.00   10.30
  -3   2  -2   35.20   11.50
   3  -2  -2   34.60   11.50
  -4  -2  -2  678.83   41.20
   4   2  -2  613.44   41.30
  -4   2   2  608.14   40.50
  -4  -2  -2  656.23   41.20
  -4   2   2  622.34   40.80
   4  -2  -2  726.53   41.80
   4   2   2  708.53   43.10
  -4  -2   2  651.53   39.90
  -4   2  -2  622.24   42.60
   4   2   2  624.84   41.10
   0   3   2 3562.24  156.38
   0  -3  -2 3606.84  156.18
  -1  -3  -2  554.74   28.60
   1   3  -2  565.94   27.60
   1   3  -2  521.05   27.30
  -1  -3  -2  539.65   28.40
   1  -3   2  539.75   27.10
  -1   3   2  542.55   28.40
  -1  -3   2  637.04   27.10
   1   3   2  652.23   29.10
  -1  -3   2  631.94   27.30
   1  -3  -2  626.44   28.60
  -1   3  -2  650.23   27.70
  -2  -3  -2  794.72   38.80
  -2   3   2  771.62   38.70
   2   3  -2  746.33   37.90
  -2   3   2  750.22   38.60
  -2  -3  -2  776.12   38.90
   2   3  -2  749.53   38.10
   2  -3   2  765.52   37.40
  -2  -3   2  745.63   36.90
   2   3   2  786.02   38.80
  -2   3  -2  807.12   38.80
   2   3   2  777.32   39.00
  -2  -3   2  762.32   37.50
  -2   3  -2  760.62   38.00
   2  -3  -2  787.12   38.50
   3  -3   2   77.69   13.00
  -3  -3  -2   87.39   14.00
  -3   3   2   91.79   13.70
   3   3  -2  101.39   14.30
  -3   3   2   85.99   14.00
  -3  -3  -2   79.99   13.80
   3   3  -2   85.89   14.10
  -3  -3   2  112.29   13.90
   3   3   2  108.39   14.50
   3   3   2  154.88   19.40
   3  -3  -2  133.19   19.20
  -3   3  -2  139.69   17.90
  -3   3  -2  135.49   18.70
  -4   3   2   44.10   15.80
   4   3  -2   -0.60   15.60
  -4  -3  -2   45.00   14.60
   4   3  -2    2.70   15.00
  -4   3   2    0.50   14.70
  -4  -3  -2    0.60   14.20
  -4  -3   2   -1.10   13.10
   4   3   2   -6.10   13.50
  -4   3  -2   12.30   18.00
  -4   3  -2    6.90   15.20
   4  -3  -2   34.20   15.60
   4   3   2   13.90   15.00
   0   4   2  420.76   22.30
   0  -4  -2  417.96   21.50
   0   4  -2  419.76   19.00
  -1   4   2  297.37   18.30
   1   4  -2  318.67   16.90
   1  -4   2  312.77   16.30
   1   4  -2  312.57   17.20
  -1  -4  -2  323.47   18.90
  -1  -4  -2  299.67   18.40
   1   4   2  362.06   19.70
  -1  -4   2  345.07   16.10
  -1   4  -2  342.67   17.10
  -1  -4   2  347.17   16.60
   1  -4  -2  349.37   18.70
  -2  -4  -2  204.38   17.30
   2  -4   2  198.08   14.60
  -2   4   2  206.18   16.60
  -2  -4  -2  222.78   17.40
   2   4  -2  213.18   16.50
   2   4  -2  219.48   16.80
  -2   4   2  198.18   16.80
   2   4   2  201.48   17.10
  -2  -4   2  205.98   14.50
   2  -4  -2  190.88   16.20
   2   4   2  195.68   17.20
  -2   4  -2  188.38   15.90
  -2   4  -2  204.78   16.20
  -2  -4   2  203.08   15.30
   3  -4   2 1066.09   53.09
  -3  -4  -2 1072.19   53.89
  -3  -4  -2 1078.19   53.79
   3   4  -2 1056.79   54.29
  -3   4   2 1106.49   55.39
   3   4  -2 1032.80   53.59
  -3   4   2 1044.10   53.79
   3   4   2 1004.40   54.09
   3  -4  -2 1061.49   53.79
  -3   4  -2 1046.00   54.19
  -3  -4   2 1058.59   52.39
  -3   4  -2 1026.80   53.69
   3   4   2 1088.59   55.69
  -4   4   2  112.99   19.00
  -4  -4  -2  185.68   26.40
  -4   4   2  116.99   18.90
  -4  -4  -2  108.19   18.70
   4   4  -2  136.19   20.40
   4   4  -2  123.49   19.90
   4   4   2  114.39   19.70
  -4   4  -2  110.29   19.90
  -4   4  -2   94.79   19.20
  -4  -4   2  111.69   17.30
   4  -4  -2  117.09   19.20
   0   5  -2   28.70    3.80
   0  -5  -2   26.70    5.80
   0   5   2   17.00    6.30
  -1  -5  -2 2643.04  115.29
   1  -5   2 2585.94  113.09
  -1   5   2 2750.82  115.49
   1   5  -2 2598.04  113.89
  -1  -5  -2 2649.03  115.09
   1   5  -2 2687.03  114.39
  -1   5  -2 2598.84  113.89
  -1  -5   2 2458.55  112.79
   1   5   2 2585.64  115.89
  -1  -5   2 2481.85  113.29
   1  -5  -2 2534.65  114.79
  -2   5   2  454.55   27.70
   2  -5   2  458.45   25.20
  -2  -5  -2  449.66   26.80
  -2  -5  -2  437.76   26.80
   2   5  -2  453.05   26.90
   2   5  -2  423.26   26.30
  -2   5   2  434.16   26.90
  -2  -5   2  468.75   24.80
   2  -5  -2  489.65   27.30
  -2   5  -2  518.45   27.50
  -2  -5   2  509.75   25.70
  -2   5  -2  493.95   26.80
   2   5   2  533.55   28.50
  -3   5   2  356.36   27.00
   3   5  -2  367.16   26.80
   3   5  -2  335.47   26.50
  -3  -5  -2  363.76   27.70
  -3  -5  -2  334.97   27.20
   3  -5   2  364.86   26.00
   3   5   2  363.36   27.80
  -3   5  -2  365.26   27.80
   3  -5  -2  385.56   26.70
  -3   5  -2  354.66   30.30
  -3  -5   2  401.06   26.10
   3   5   2  327.97   31.40
  -4  -5  -2   24.00   15.30
   4   5  -2    6.00   16.20
  -4   5   2   29.30   15.70
  -4  -5  -2   50.39   16.30
   4   5  -2   11.90   16.30
  -4   5   2   12.50   15.20
  -4   5  -2    9.60   16.40
   4   5   2   41.80   15.70
  -4  -5   2   11.10   14.50
  -4   5  -2   -6.80   16.20
   4   5   2   28.30   16.90
   4  -5  -2    7.60   15.80
   0  -6  -2  625.64   31.60
   0   6  -2  649.64   30.20
   0   6   2  644.14   33.00
  -1   6   2  474.15   27.40
   1  -6   2  466.15   23.80
  -1  -6  -2  451.95   27.00
   1   6  -2  464.15   25.10
  -1  -6  -2  455.25   26.30
   1   6  -2  459.85   26.00
   1  -6  -2  534.25   26.50
  -1  -6   2  538.15   23.60
   1   6   2  564.94   28.80
  -1   6  -2  564.34   25.50
  -1  -6   2  544.55   24.10
  -2  -6  -2  901.01   42.60
   2  -6   2  908.51   40.70
   2   6  -2  865.51   41.70
   2   6  -2  866.51   42.30
  -2  -6  -2  878.91   43.10
  -2   6   2  909.11   42.80
  -2   6  -2  780.42   41.20
  -2  -6   2  769.42   40.30
  -2  -6   2  740.73   39.50
   2   6   2  876.81   43.70
   2  -6  -2  762.32   41.50
  -2   6  -2  758.02   42.00
  -3   6   2  136.19   18.60
  -3  -6  -2  128.99   17.00
  -3  -6  -2  130.09   15.80
   3  -6   2  116.09   14.20
   3   6  -2  125.29   16.10
  -3   6  -2  100.79   15.70
  -3  -6   2   89.99   13.50
   3   6   2   85.09   16.60
  -3   6  -2   95.99   18.30
   4   6  -2  417.26   35.40
  -4  -6  -2  376.36   34.50
  -4   6   2  394.96   36.30
   4   6  -2  415.06   35.40
  -4  -6  -2  446.76   36.60
  -4   6   2  483.45   35.80
  -4   6  -2  332.57   34.60
   4  -6  -2  384.06   34.00
  -4  -6   2  367.86   31.00
  -4   6  -2  460.75   38.00
   4   6   2  411.26   35.80
   0  -7  -2 2167.68   96.19
   0   7   2 2172.78   97.99
   0   7  -2 2105.79   95.19
  -1   7   2  298.37   19.60
  -1  -7  -2  286.07   18.80
  -1  -7  -2  298.57   19.00
   1   7  -2  308.77   19.00
   1  -7   2  301.67   15.10
  -1   7  -2  263.27   16.90
  -1  -7   2  261.77   14.40
   1  -7  -2  267.27   18.10
  -1  -7   2  256.77   14.70
   1   7   2  262.17   20.90
  -2  -7  -2  507.85   29.80
   2   7  -2  512.45   29.70
  -2  -7  -2  480.25   30.40
   2  -7   2  492.55   28.10
   2   7  -2  476.35   30.60
  -2  -7   2  561.44   27.80
   2  -7  -2  575.84   30.30
  -2   7  -2  581.24   30.50
  -2  -7   2  606.74   29.00
   3   7  -2  124.39   17.00
  -3   7   2  128.69   26.10
   3   7  -2  133.59   17.40
  -3  -7  -2  132.39   19.90
   3  -7   2  139.59   18.40
  -3   7   2  125.99   18.00
  -3   7  -2  121.09   17.20
  -3   7  -2  115.49   16.50
   3   7   2  114.29   21.00
   3  -7  -2  124.99   17.10
  -3  -7   2  124.09   18.50
  -4  -7  -2   52.39   18.00
  -4  -7  -2   57.19   18.20
   4   7  -2   82.09   20.60
  -4   7   2   98.09   21.00
   4   7  -2   71.89   19.70
  -4   7   2   46.80   18.80
   4  -7  -2   94.29   19.60
  -4   7  -2   84.39   19.90
  -4  -7   2   52.79   15.20
  -4  -7   2   62.09   21.80
   4   7   2   67.99   20.80
  -4   7  -2   82.89   20.90
   0   8  -2   23.70    6.70
   0  -8   2   26.50    3.30
   0  -8  -2   20.10    7.50
   0   8   2   33.80    9.60
  -1  -8  -2  125.09   14.50
   1  -8   2  131.59    9.50
   1   8  -2  138.39   15.70
  -1  -8  -2  138.49   14.30
  -1   8   2  132.89   15.50
   1   8   2   93.39   14.20
  -1   8  -2  122.69   12.80
  -1  -8   2  127.69    8.90
   1  -8  -2  118.49   13.80
  -1  -8   2  121.09    9.30
   2  -8   2  229.38   16.60
  -2  -8  -2  161.98   16.40
   2   8  -2  226.88   20.20
  -2  -8  -2  209.98   19.70
   2   8  -2  232.38   20.70
  -2   8   2  256.97   21.40
   2  -8  -2  194.98   19.50
  -2   8  -2  243.78   19.30
  -2  -8   2  218.28   17.00
  -2  -8   2  213.98   15.40
  -3   8   2  405.96   30.70
   3   8  -2  376.36   33.40
  -3   8   2  377.06   32.00
  -3  -8  -2  415.96   30.90
   3  -8   2  422.46   27.20
  -3  -8  -2  389.16   30.00
   3   8  -2  366.76   30.60
   3  -8  -2  354.06   28.80
  -3  -8   2  357.26   26.70
  -3   8  -2  343.57   31.00
   3   8   2  350.16   32.40
  -4  -8  -2  247.48   30.30
  -4  -8  -2  267.67   33.30
  -4   8   2  206.48   31.80
  -4   8   2  247.58   36.50
   4   8  -2  240.98   34.00
   4   8  -2  234.78   33.70
  -4   8  -2  243.68   31.10
   4  -8  -2  230.08   32.30
  -4   8  -2  281.37   34.00
  -4  -8   2  305.07   34.70
  -4  -8   2  263.67   26.80
   4   8   2  276.47   35.20
   0  -9  -2   24.10    7.70
   0   9   2   12.60   10.10
   0  -9   2   23.40    3.20
   0   9  -2   22.60    7.90
   1  -9   2 1239.78   54.89
  -1  -9  -2 1202.18   58.19
   1   9  -2 1134.59   59.49
  -1   9   2 1280.47   60.39
  -1  -9  -2 1214.78   58.89
   1  -9  -2 1256.07   58.19
   1   9   2 1177.38   61.69
  -1   9  -2 1284.67   57.99
  -1  -9   2 1233.18   54.49
  -1  -9   2 1250.67   54.59
  -2   9   2  326.27   26.30
  -2  -9  -2  344.17   24.80
   2  -9   2  362.76   21.30
   2   9  -2  350.26   25.50
   2   9   2  326.97   28.30
  -2  -9   2  350.16   21.70
  -2  -9   2  333.07   20.00
   2  -9  -2  324.37   23.30
  -3   9   2  324.07   29.70
   3   9  -2  357.36   31.00
   3  -9   2  356.06   25.70
   3   9  -2  309.47   31.70
  -3  -9  -2  332.87   28.30
  -3   9   2  320.37   34.30
  -3   9  -2  308.67   29.30
   3   9   2  332.77   33.20
  -3   9  -2  307.67   30.30
   3  -9  -2  313.07   27.90
  -3  -9   2  351.86   26.10
  -4  -9  -2  115.49   20.50
   4   9  -2   64.99   22.60
   4   9  -2  116.19   22.90
  -4   9   2   73.59   23.80
  -4   9   2  122.09   23.30
  -4  -9  -2   98.29   22.00
   4   9   2  122.09   25.20
  -4   9  -2  106.19   22.80
  -4  -9   2   97.09   19.60
  -4   9  -2   88.89   23.30
  -4  -9   2  137.89   18.00
   4  -9  -2  116.19   21.80
   0  10  -2   37.20    9.80
   0 -10  -2   44.60    9.10
   1  10  -2  231.18   22.50
  -1 -10  -2  242.88   19.10
   1 -10   2  232.28   13.70
  -1 -10  -2  224.28   19.60
   1 -10  -2  233.48   18.70
  -1  10  -2  242.18   19.50
  -1 -10   2  246.68   13.00
  -1 -10   2  241.08   13.00
  -2  10   2  118.29   17.00
   2 -10   2  115.89   14.30
  -2 -10  -2  118.99   15.70
  -2 -10   2  143.69   12.90
  -2 -10   2  139.19   14.90
   2  10   2  160.28   20.80
   2 -10  -2  147.49   18.60
  -3  10   2   90.69   21.50
  -3 -10  -2   67.09   15.50
  -3 -10  -2   94.29   17.80
   3 -10   2   80.89   13.60
   3  10  -2   79.29   18.30
  -3  10   2   80.69   18.10
   3 -10  -2  108.79   17.10
   3  10   2   60.99   20.30
  -3  10  -2   87.69   18.10
  -3 -10   2   96.69   14.30
  -3  10  -2   87.79   17.40
   0  11   2 1775.72   81.09
   0 -11  -2 1578.64   76.59
   0  11  -2 1636.64   78.69
  -1  11   2  218.08   22.30
   1 -11   2  222.28   12.30
   1  11  -2  210.48   23.70
  -1 -11  -2  216.18   19.90
   1  11   2  187.18   25.40
  -1  11  -2  190.38   19.70
  -1 -11   2  192.88   10.90
   1 -11  -2  195.08   18.80
  -1 -11   2  192.88   11.00
   2 -11   2  323.47   20.60
  -2  11   2  290.67   31.50
  -2 -11  -2  339.97   25.00
   2  11  -2  340.57   29.70
  -2 -11  -2  348.77   26.80
  -2 -11   2  306.27   18.80
  -2  11  -2  284.07   25.90
   2 -11  -2  344.17   25.20
  -2 -11   2  290.57   20.00
  -3  11   2  122.49   21.00
  -3 -11  -2  109.39   17.90
  -3  11   2  111.99   23.20
   3 -11   2   99.49   14.20
  -3 -11  -2  116.49   19.90
   3  11  -2  144.59   22.10
   3  11   2  119.49   24.40
  -3  11  -2  126.79   19.60
  -3 -11   2  103.29   14.80
  -3  11  -2  111.49   20.80
   0  12  -2  443.06   29.80
   0  12   2  378.96   31.30
   0 -12  -2  366.66   24.80
  -1  12   2  211.38   26.30
   1 -12   2  240.08   12.80
   1  12  -2  174.28   21.70
  -1 -12  -2  251.77   21.40
   1 -12  -2  243.78   20.80
   1  12   2  189.68   27.80
  -2  12   2  298.47   30.70
   2 -12   2  322.27   20.80
  -2 -12  -2  310.87   26.20
   2  12  -2  297.47   30.80
  -2 -12  -2  333.87   27.80
  -2 -12   2  346.27   19.10
  -2  12  -2  351.46   28.10
   2  12   2  327.07   35.90
   2 -12  -2  340.27   26.10
  -2 -12   2  337.67   20.00
  -3 -12  -2  224.78   26.50
   3  12  -2  207.18   27.00
   3 -12   2  198.08   20.90
  -3  12   2  157.48   26.80
  -3  12   2  148.99   23.90
  -3  12  -2  152.58   22.10
  -3 -12   2  168.78   17.90
  -3 -12   2  168.68   20.60
   3  12   2  184.78   28.80
  -3  12  -2  167.08   25.10
   0 -13  -2   10.40    9.60
   0  13   2    8.30   15.00
  -1 -13  -2  662.63   35.40
  -1  13   2  630.24   40.90
   1  13  -2  686.03   41.60
  -1 -13  -2  502.15   34.20
   1  13   2  532.05   47.40
  -1  13  -2  634.94   37.50
   1 -13  -2  623.84   35.00
  -2  13   2   79.89   19.60
  -2 -13  -2   68.39   14.50
  -2 -13  -2   58.09   14.40
   2 -13   2   69.49    9.10
   2  13   2   42.50   20.90
  -2 -13   2   83.49    9.80
  -2  13  -2   97.59   17.40
   2 -13  -2   79.79   14.90
  -2 -13   2   88.29    9.60
  -3  13   2   88.59   23.10
  -3  13   2   55.39   25.10
   3 -13   2   66.89   13.30
  -3 -13  -2   94.49   17.80
   3  13  -2   98.99   24.30
  -3  13  -2   88.59   20.20
  -3 -13   2   90.19   12.60
  -3  13  -2   72.19   21.80
   3  13   2   91.79   26.90
   0  14  -2  110.89   18.60
   0  14   2  148.09   22.20
   0 -14  -2  137.59   18.50
  -1  14   2  223.08   30.30
  -1 -14  -2  202.98   21.20
   1  14  -2  208.38   30.00
   1 -14  -2  166.28   20.30
   1  14   2  214.18   27.70
  -1  14  -2  194.18   25.40
  -2 -14  -2   33.50   14.00
   2  14  -2   53.89   19.90
   2 -14   2   42.10    6.70
  -2  14   2   46.90   18.90
  -2 -14  -2   35.80   14.50
  -2  14  -2   44.60   17.60
   2  14   2   25.00   21.30
   0  15  -2  958.70   56.49
   0 -15  -2  925.41   49.40
   0  15   2  956.00   59.99
   0 -15  -2 1060.59   49.90
   1  15  -2   33.10   21.10
  -1  15   2   21.90   19.20
  -1 -15  -2    4.80   11.40
  -1  15  -2   10.20   15.20
   1  15   2   23.20   21.60
   1 -15  -2   13.80   11.60
  -2 -15  -2  306.47   33.30
  -2 -15  -2  311.87   31.90
   2  15  -2  259.07   37.30
  -2  15   2  243.48   30.30
   2 -15  -2  265.27   40.60
  -2  15  -2  286.37   33.70
   0  16   2   -4.00   19.90
   0  16  -2   -9.00   16.70
   0 -16  -2   -3.30   10.90
  -1 -16  -2   87.79   13.90
  -1 -16  -2   62.69   13.30
  -1  16   2   70.89   22.50
   1  16  -2   91.19   23.40
   1 -16  -2   96.99   14.90
  -1  16  -2   80.69   19.80
   1  16   2   72.09   25.70
   0   0  -3    2.10    2.10
   0   0   3    6.30    1.90
  -1   0   3 9557.84  407.16
  -1   0  -3 9901.51  407.66
  -1   0   3 9159.28  407.06
   1   0  -3 9999.00  407.46
   1   0   3 8748.03  407.06
  -1   0  -3 9316.97  407.36
   1   0  -3 9471.15  407.36
   2   0  -3  204.08   16.10
   2   0   3  207.88   15.10
  -2   0  -3  208.58   15.90
  -2   0   3  190.28   14.90
   2   0  -3  202.88   16.00
  -2   0   3  213.58   15.30
   2   0   3  221.48   16.40
  -2   0  -3  203.38   15.80
   3   0  -3  359.76   25.70
   3   0   3  333.57   25.70
  -3   0  -3  406.26   26.50
  -3   0   3  394.76   25.70
   3   0   3  408.46   26.20
  -3   0  -3  368.96   26.20
   3   0  -3  352.56   26.00
   4   0   3   38.50   15.40
   4   0   3   22.70   14.20
  -4   0  -3   30.60   15.60
   4   0  -3   37.50   16.00
  -4   0   3   34.00   15.00
   0   1  -3 1419.26   62.79
   0   1   3 1502.85   64.29
   0  -1  -3 1448.46   64.39
   1  -1   3 1606.84   69.29
   1   1  -3 1605.14   69.49
  -1  -1  -3 1594.94   69.99
  -1  -1  -3 1669.13   70.39
   1   1  -3 1636.54   69.59
  -1   1   3 1578.34   69.79
  -1   1   3 1672.03   69.99
   1  -1  -3 1478.65   69.89
  -1  -1   3 1490.65   69.09
  -1  -1   3 1537.95   69.09
  -1   1  -3 1484.05   69.39
  -1   1  -3 1554.24   69.69
   1   1   3 1514.15   69.79
   2   1  -3 1076.59   51.29
  -2  -1  -3 1063.69   51.59
  -2  -1  -3 1061.39   51.39
   2   1  -3 1098.09   51.39
   2  -1   3 1095.09   50.79
  -2   1   3 1086.79   51.19
  -2   1   3 1085.89   51.09
   2  -1   3 1069.29   50.89
   2   1   3 1110.49   51.49
  -2  -1   3 1094.99   50.69
  -2   1  -3 1062.89   51.19
  -2  -1   3 1044.50   50.29
   2   1   3 1087.59   51.59
  -2   1  -3 1111.09   51.49
   2  -1  -3 1095.99   51.39
  -3  -1  -3  590.84   35.70
   3  -1   3  635.14   35.90
  -3   1   3  611.84   35.30
   3   1  -3  576.44   35.30
  -3  -1  -3  614.84   35.80
   3  -1   3  679.33   34.20
  -3   1   3  601.84   35.40
   3   1  -3  627.74   36.10
  -3   1  -3  614.64   36.30
   3   1   3  615.74   36.20
  -3  -1   3  637.64   35.70
   3   1   3  627.74   35.50
   3  -1  -3  622.04   35.90
  -3  -1   3  652.93   34.30
  -3   1  -3  635.34   36.70
   4  -1   3  184.48   22.00
   4   1  -3  187.68   25.50
  -4   1   3  217.98   25.10
  -4  -1  -3  173.88   25.90
  -4   1  -3  218.18   26.40
   4   1   3  208.78   25.80
  -4  -1   3  204.68   25.00
   4   1   3  229.38   26.70
   0  -2  -3 5260.97  227.48
   0   2   3 5229.68  227.28
  -1  -2  -3  206.18   12.60
   1   2  -3  206.18   11.20
  -1   2   3  206.28   12.50
   1   2  -3  207.88   11.20
  -1  -2  -3  206.68   13.10
  -1  -2   3  179.38   10.40
  -1   2  -3  182.58   11.40
   1  -2  -3  180.58   12.40
   1   2   3  177.68   12.30
  -1   2  -3  185.98   11.20
  -1  -2   3  185.88   10.50
   2   2  -3 1372.96   60.99
  -2   2   3 1365.86   61.19
   2   2  -3 1365.86   60.79
  -2  -2  -3 1378.16   61.59
   2  -2   3 1352.76   60.19
  -2  -2  -3 1316.87   61.09
  -2   2   3 1385.26   61.09
   2  -2   3 1383.46   60.39
  -2  -2   3 1167.88   59.59
   2  -2  -3 1224.48   60.79
  -2   2  -3 1288.87   60.69
   2   2   3 1250.97   61.19
   2   2   3 1257.57   60.89
  -2   2  -3 1236.88   60.59
  -2  -2   3 1273.87   59.89
   3   2  -3   96.79   14.00
  -3  -2  -3  115.89   14.70
  -3   2   3   92.19   14.10
   3   2  -3   98.79   13.80
   3  -2   3   91.89   13.10
  -3  -2  -3   96.19   14.00
  -3   2   3   96.29   13.80
  -3  -2   3   67.19   12.10
  -3   2  -3   73.09   13.30
  -3   2  -3   76.89   13.70
   3   2   3   74.69   14.10
   3   2   3   91.39   13.70
   3  -2  -3   73.69   13.20
  -4  -2  -3   48.90   16.80
  -4   2   3   88.49   16.40
  -4   2   3   38.70   15.80
   4   2  -3   60.09   16.80
  -4  -2  -3   65.89   15.60
   4   2  -3   61.09   17.40
  -4   2  -3   37.80   19.00
   4   2   3   27.70   15.60
   4  -2  -3  -24.00   17.70
  -4   2  -3   30.90   16.00
   4   2   3   62.19   16.80
  -4  -2   3   18.80   13.50
   0   3   3   40.20    6.20
   0  -3  -3   48.90    6.30
   1  -3   3  292.37   14.90
   1   3  -3  287.47   15.30
  -1   3   3  314.57   17.30
   1   3  -3  314.47   15.50
  -1  -3  -3  293.47   17.20
  -1  -3  -3  294.47   17.60
  -1   3  -3  288.57   15.50
  -1  -3   3  298.97   14.40
   1   3   3  299.37   17.40
  -1  -3   3  284.97   14.50
   1  -3  -3  301.47   17.20
  -1   3  -3  305.97   15.60
   2  -3   3 1550.04   68.29
  -2   3   3 1473.85   69.29
  -2  -3  -3 1560.94   69.69
   2   3  -3 1504.25   68.69
   2   3  -3 1482.25   68.69
  -2   3   3 1457.65   69.09
  -2  -3  -3 1540.05   69.59
   2  -3  -3 1420.06   69.09
  -2   3  -3 1507.55   68.59
  -2   3  -3 1481.45   68.99
   2   3   3 1446.06   69.39
  -2  -3   3 1494.55   67.89
  -2  -3   3 1496.95   67.69
   3   3  -3  304.87   25.00
   3   3  -3  298.17   23.90
   3  -3   3  301.57   22.80
  -3   3   3  260.07   24.30
  -3  -3  -3  323.57   24.60
  -3  -3  -3  267.87   24.10
  -3   3   3  276.57   23.70
   3   3   3  328.27   25.50
   3   3   3  334.17   25.70
  -3  -3   3  334.77   23.40
  -3   3  -3  312.67   24.00
  -3   3  -3  328.57   26.10
   3  -3  -3  337.07   24.70
  -4   3   3  812.12   48.10
  -4  -3  -3  811.52   48.10
   4   3  -3  808.42   48.30
  -4   3   3  868.61   50.09
  -4  -3  -3  789.62   48.30
   4   3  -3  812.12   49.00
  -4   3  -3  791.62   50.49
   4   3   3  826.22   50.59
   4   3   3  782.82   48.20
  -4   3  -3  817.22   48.60
  -4  -3   3  799.32   46.20
   4  -3  -3  834.52   48.70
   0   4   3  212.88   14.50
   0  -4  -3  209.78   14.00
   1  -4   3 1484.05   62.59
   1   4  -3 1462.95   63.39
   1   4  -3 1417.46   63.19
  -1  -4  -3 1484.35   65.29
  -1   4   3 1542.35   65.49
  -1  -4   3 1317.47   62.29
  -1   4  -3 1372.46   63.29
   1  -4  -3 1340.57   64.79
   1   4   3 1456.55   65.59
  -1  -4   3 1387.76   62.19
   2   4  -3  240.68   16.90
  -2   4   3  237.68   17.50
  -2   4   3  231.18   18.10
   2  -4   3  243.98   15.90
  -2  -4  -3  208.18   17.50
   2   4  -3  225.38   16.70
  -2  -4  -3  234.28   17.80
   2  -4  -3  200.58   17.20
   2   4   3  207.38   17.80
  -2  -4   3  208.88   14.70
  -2  -4   3  200.88   15.10
  -2   4  -3  206.68   16.80
  -2   4  -3  195.28   16.40
   3  -4   3  246.48   20.90
  -3   4   3  172.78   25.40
   3   4  -3  233.28   21.80
  -3  -4  -3  223.28   22.40
   3   4  -3  242.98   22.80
  -3   4   3  223.48   22.00
  -3  -4  -3  248.78   23.50
   3  -4  -3  190.58   24.30
  -3   4  -3  214.98   22.20
  -3   4  -3  209.98   22.70
  -3  -4   3  195.08   19.50
   3   4   3  195.78   22.10
  -4  -4  -3   41.80   17.40
  -4  -4  -3   51.89   17.10
   4   4  -3   29.90   16.20
  -4   4   3   42.30   17.10
   4   4  -3   60.89   17.50
  -4   4   3   51.49   18.00
  -4  -4   3   42.60   16.00
  -4   4  -3   77.19   18.10
   4  -4  -3   49.99   17.50
  -4  -4   3   56.69   14.70
  -4   4  -3   52.39   17.50
   4   4   3   37.00   17.00
   0   5  -3   24.00    3.60
   0   5   3   27.30    7.20
   0  -5  -3   28.30    6.70
   1   5  -3  161.98   10.80
   1   5  -3  163.88   11.30
  -1  -5  -3  152.48   13.70
   1  -5   3  153.58    8.90
  -1   5   3  164.08   14.00
   1  -5  -3  161.58   13.40
  -1  -5   3  161.68    8.60
  -1  -5   3  170.28    8.30
   1   5   3  162.98   14.70
  -1   5  -3  159.58   10.90
  -2   5   3  219.88   18.60
   2   5  -3  218.38   16.80
  -2  -5  -3  212.28   18.70
  -2  -5  -3  227.68   18.10
  -2   5   3  234.88   18.20
   2   5  -3  219.88   16.30
   2  -5   3  228.18   15.30
  -2  -5   3  195.08   14.30
  -2   5  -3  196.28   16.50
   2  -5  -3  185.78   17.30
  -2   5  -3  193.08   16.60
   2   5   3  180.88   18.20
  -2  -5   3  190.68   14.90
  -3   5   3  828.82   46.90
  -3  -5  -3  848.62   47.00
   3  -5   3  819.92   44.20
   3   5  -3  882.91   45.90
   3   5  -3  856.21   46.20
  -3   5  -3  810.32   49.30
  -3   5  -3  850.21   46.10
   3   5   3  872.21   47.30
  -3  -5   3  889.01   44.30
  -4  -5  -3   72.29   18.90
  -4  -5  -3   65.89   17.50
  -4   5   3   61.69   18.00
   4   5  -3   96.89   19.20
  -4   5   3   86.09   19.50
   4   5  -3   86.59   19.30
   4   5   3   82.89   19.40
  -4   5  -3   48.50   18.60
   4  -5  -3   85.19   18.90
  -4   5  -3   71.49   18.50
  -4  -5   3   74.49   16.20
  -4  -5   3   43.50   14.10
   0   6   3 1772.02   78.09
   0   6  -3 1641.94   73.89
   0  -6  -3 1650.83   76.79
   1   6  -3 1174.78   53.79
   1   6  -3 1172.98   53.09
  -1   6   3 1222.08   55.89
  -1  -6  -3 1132.19   55.39
   1  -6   3 1158.98   51.39
   1  -6  -3 1176.28   54.99
  -1  -6   3 1139.99   50.79
  -1   6  -3 1179.38   53.19
   1   6   3 1196.38   56.99
   2   6  -3  427.66   25.10
  -2  -6  -3  490.55   25.90
   2  -6   3  433.76   23.40
   2   6  -3  438.16   25.50
  -2  -6  -3  412.06   26.30
  -2   6  -3  398.56   25.60
  -2  -6   3  424.96   23.20
  -2   6  -3  410.66   24.90
  -2  -6   3  398.26   22.20
   2  -6  -3  404.86   26.40
  -3  -6  -3  390.76   29.20
   3   6  -3  387.96   29.40
  -3  -6  -3  363.96   28.80
   3  -6   3  412.56   27.00
  -3   6  -3  400.96   29.50
  -3  -6   3  458.55   25.00
  -3  -6   3  399.76   26.60
   3  -6  -3  390.46   29.60
  -3   6  -3  357.56   32.80
  -4  -6  -3    0.70   15.70
  -4   6   3   53.79   18.60
   4   6  -3   17.80   16.90
  -4  -6  -3   16.30   17.10
  -4   6   3   19.90   16.20
   4   6  -3    0.40   16.60
  -4  -6   3   -4.70   12.60
  -4   6  -3   14.10   17.00
   4   6   3    6.40   16.90
  -4  -6   3    2.30   13.90
  -4   6  -3   -3.80   17.20
   4  -6  -3  -11.50   15.30
   0   7   3   30.00    9.40
   0   7  -3   22.10    5.00
   0  -7  -3   26.30    7.90
  -1   7   3   99.19   14.00
   1   7  -3   98.49   10.70
   1  -7   3   93.49    6.30
   1   7  -3   93.69   11.80
  -1  -7  -3   91.49   13.40
  -1   7  -3  126.89   10.60
   1  -7  -3  101.69   13.70
   1   7   3  106.39   15.90
   2   7  -3  425.46   26.80
   2   7  -3  457.45   27.20
   2  -7   3  434.86   24.70
  -2   7   3  551.24   28.80
  -2  -7  -3  442.86   28.60
   2  -7  -3  458.35   28.50
  -2   7  -3  468.15   27.10
  -2  -7   3  463.25   24.00
  -2  -7   3  467.15   25.00
  -2   7  -3  461.75   27.50
   3  -7   3   18.70   10.50
  -3  -7  -3    0.80   13.00
   3   7  -3   20.10   13.10
   3   7  -3   17.40   13.10
  -3   7   3   26.90   13.80
  -3   7  -3   20.10   13.10
   3   7   3    5.90   14.30
  -3  -7   3   19.90   10.50
   3  -7  -3    6.40   12.50
  -3   7  -3   14.10   13.10
  -4   7   3  360.66   36.40
  -4  -7  -3  345.87   33.90
   4   7  -3  350.26   34.70
  -4  -7  -3  361.66   33.90
  -4   7   3  369.26   36.80
   4   7  -3  355.16   36.30
   4   7   3  335.27   37.60
  -4  -7   3  337.87   28.20
  -4   7  -3  324.37   34.90
  -4   7  -3  341.77   33.70
   4  -7  -3  349.87   33.70
  -4  -7   3  336.07   30.80
   0  -8  -3 1016.70   48.80
   0   8   3 1011.60   50.59
   0   8  -3  965.80   46.40
  -1  -8  -3 1899.21   87.89
  -1  -8  -3 1900.61   88.29
   1   8  -3 1846.52   87.29
  -1   8   3 1921.71   88.99
  -1   8  -3 1968.50   86.09
   1  -8  -3 1956.00   87.69
   1   8   3 1940.91   90.39
   2  -8   3  427.76   23.40
   2   8  -3  450.25   26.80
  -2  -8  -3  407.06   28.00
   2   8  -3  428.96   26.80
  -2   8   3  456.65   30.10
  -2  -8   3  434.96   22.50
  -2  -8   3  407.96   23.60
   2   8   3  417.66   30.60
   2  -8  -3  437.96   28.00
  -2   8  -3  413.56   25.80
   3   8  -3  181.18   24.50
  -3  -8  -3  157.88   19.40
   3  -8   3  201.18   19.40
  -3  -8  -3  181.78   25.70
   3   8  -3  173.18   22.60
  -3   8   3  176.08   25.60
  -3  -8   3  168.28   19.90
   3   8   3  131.09   21.00
   3  -8  -3  149.19   18.60
  -3   8  -3  160.38   24.50
  -3   8  -3  150.38   27.50
  -4  -8  -3   34.30   19.70
  -4  -8  -3   15.50   17.60
  -4   8   3   27.80   20.90
   4   8  -3   25.40   18.00
  -4   8   3   17.90   18.60
   4   8  -3   18.80   19.70
   4  -8   3   48.70   24.40
  -4  -8   3   35.50   16.30
  -4  -8   3   45.00   13.60
   4  -8  -3   38.40   18.40
  -4   8  -3   39.60   19.40
  -4   8  -3   38.60   19.70
   4   8   3   38.30   21.00
   0  -9  -3  168.98   16.30
   0   9   3  143.29   18.90
   0   9  -3  156.58   14.20
   1   9  -3  106.99   16.30
  -1  -9  -3   99.69   13.00
  -1  -9  -3  115.19   17.20
  -1   9  -3  142.29   13.60
   1  -9  -3  138.89   15.30
   2  -9   3   76.29   11.20
  -2  -9  -3   57.19   12.60
  -2   9   3   54.09   14.10
  -2  -9  -3   64.39   13.60
   2   9  -3   64.19   11.80
   2  -9  -3   53.49   12.40
  -2  -9   3   47.70    6.80
  -2  -9   3   53.09    7.90
   2   9   3   63.99   15.90
  -3  -9  -3  193.88   25.40
   3   9  -3  140.09   30.10
  -3   9   3  174.38   25.50
   3   9  -3  164.28   20.30
   3  -9   3  192.48   19.70
  -3  -9  -3  200.28   25.60
  -3   9   3  202.58   29.10
  -3  -9   3  169.98   20.10
  -3  -9   3  227.08   18.00
   3   9   3  175.78   24.30
  -3   9  -3  206.48   25.20
  -3   9  -3  180.88   26.20
  -4  -9  -3  -12.80   17.30
  -4   9   3  -14.50   21.20
  -4  -9  -3   -5.90   18.50
  -4   9   3    5.10   19.10
   4  -9   3    8.50   15.50
   4   9  -3  -23.30   18.90
   4   9  -3  -11.50   17.70
  -4   9  -3   -8.00   19.50
   4  -9  -3   21.80   18.30
  -4  -9   3  -17.40   23.40
  -4   9  -3   21.80   18.90
   4   9   3   24.70   22.50
   0 -10  -3 1615.14   75.89
   0  10  -3 1640.34   75.39
  -1 -10  -3  463.25   29.00
   1  10  -3  415.66   29.80
  -1  10   3  480.35   32.30
  -1 -10  -3  479.25   28.80
  -1  10  -3  464.55   27.40
   1 -10  -3  500.05   29.20
   1  10   3  589.94   36.00
  -2 -10  -3  608.94   38.20
  -2 -10  -3  655.23   36.40
  -2  10   3  572.74   51.39
  -2  10  -3  659.13   35.50
   2 -10  -3  649.24   36.20
  -2 -10   3  606.34   29.80
   2  10   3  617.44   44.30
  -2 -10   3  629.54   30.50
  -3  10   3  123.39   22.60
   3  10  -3   80.09   17.00
   3 -10   3   83.09   12.90
  -3  10   3  107.09   19.50
  -3 -10  -3   95.19   17.10
   3  10  -3  115.39   19.00
  -3 -10   3   76.79   12.60
  -3  10  -3   79.09   17.00
  -3  10  -3   79.89   17.80
  -3 -10   3   81.89   11.20
   3  10   3  105.19   22.70
   0  11   3   94.99   16.90
   0  11  -3   87.09   12.60
   0 -11  -3   80.59   12.50
   1  11  -3   72.59   13.80
  -1 -11  -3   61.19   12.70
  -1  11   3   49.60   14.30
  -1  11  -3   67.29   11.30
   1  11   3   80.49   17.60
   1 -11  -3   81.59   12.70
  -2 -11  -3  136.49   18.10
   2  11  -3  165.18   23.30
  -2 -11  -3  150.78   21.50
  -2  11   3  170.58   25.70
   2 -11   3  162.18   13.50
  -2 -11   3  197.58   11.20
   2  11   3  200.78   25.20
  -2 -11   3  197.18   11.50
   2 -11  -3  196.78   22.10
  -2  11  -3  189.78   20.70
  -3 -11  -3   16.20   15.30
  -3  11   3   25.70   21.20
   3  11  -3   19.90   17.30
  -3  11   3   35.20   18.20
   3 -11   3   16.40   10.40
  -3 -11   3    8.70    8.50
   3 -11  -3    8.00   11.70
  -3  11  -3   37.60   16.30
  -3 -11   3   22.00   10.50
  -3  11  -3   24.10   16.80
   3  11   3  -12.70   19.30
   0  12   3   60.09   16.40
   0  12  -3   68.99   13.20
   0 -12  -3   74.49   12.20
   1  12  -3  228.08   24.90
  -1 -12  -3  207.08   22.00
  -1 -12  -3  242.78   23.00
  -1  12   3  214.68   28.40
   1  12   3  303.27   33.40
   2 -12   3  216.88   13.00
  -2 -12  -3  195.48   23.50
   2  12  -3  228.88   27.20
  -2  12   3  232.68   29.50
  -2  12  -3  171.78   23.90
   2  12   3  171.78   25.70
   2 -12  -3  170.18   25.50
  -3  12   3   89.79   22.10
  -3 -12  -3   68.59   18.10
   3 -12   3   83.49   12.10
  -3  12   3  125.29   26.30
   3  12  -3   92.29   22.40
  -3 -12   3  118.29   13.90
  -3  12  -3  111.99   19.70
  -3  12  -3  100.39   21.60
   3  12   3  117.99   26.30
  -3 -12   3   81.39   11.00
   0  13   3   96.59   23.20
   0 -13  -3  134.29   19.00
  -1 -13  -3    3.60   11.30
  -1  13   3   11.20   15.50
  -1 -13  -3   10.10   11.80
   1  13  -3   26.50   13.50
   1  13   3   22.10   19.10
   1 -13  -3   15.10   11.40
  -2 -13  -3    5.40   13.80
   2  13  -3   -1.00   19.30
  -2  13   3   15.10   16.40
   2 -13  -3    7.80   12.60
   2  13   3    4.30   19.70
   3 -13   3  290.07   21.60
   3  13  -3  328.77   38.60
  -3 -13  -3  298.47   32.00
  -3  13   3  279.47   39.70
  -3 -13   3  287.57   16.90
  -3  13  -3  329.47   37.00
   3 -13  -3  314.57   31.90
   3  13   3  262.17   35.10
  -3 -13   3  267.07   18.90
  -3  13  -3  250.97   31.80
   0  14   3   49.30   19.80
   0 -14  -3   49.10   13.20
  -1  14   3  307.27   35.20
  -1 -14  -3  339.57   27.00
   1  14  -3  307.77   32.40
  -1 -14  -3  319.17   27.10
   1 -14  -3  310.07   26.80
  -1  14  -3  329.67   28.50
   1  14   3  307.17   38.60
  -2  14   3   60.79   20.30
  -2 -14  -3   94.49   16.80
  -2 -14  -3   68.69   16.70
   2  14  -3   90.09   20.00
   2  14   3   84.19   24.40
   2 -14  -3  107.29   17.10
  -2  14  -3  117.89   19.40
   0  15   3   -4.60   19.20
   0 -15  -3    0.50   12.00
   0  15  -3   -0.60   14.50
  -1 -15  -3   80.79   15.70
  -1  15   3   33.10   21.00
   1  15  -3   62.79   24.30
  -1 -15  -3   63.09   14.90
   1 -15  -3   53.89   23.20
   1  15   3   65.29   23.50
  -2 -15  -3   87.99   17.80
  -2  15   3  107.89   24.70
   2  15  -3  100.69   22.60
  -2 -15  -3   93.79   17.70
  -2  15  -3  114.19   20.80
   2  15   3  106.79   27.60
   0  16  -3  704.93   46.50
   0 -16  -3  671.23   40.70
   0  16   3  692.33   52.49
   0 -16  -3  691.73   41.20
  -1  16   3   36.70   21.70
   1  16  -3   53.09   21.70
   1  16   3   47.90   26.30
  -1  16  -3   65.39   18.30
   0   0   4 1532.65   67.39
   0   0  -4 1555.14   67.89
   1   0   4  563.94   26.40
  -1   0   4  546.55   26.30
  -1   0  -4  545.65   27.20
  -1   0   4  572.94   26.60
   1   0  -4  531.75   26.70
  -1   0  -4  568.84   26.70
  -2   0  -4  206.88   15.90
   2   0  -4  186.48   16.20
   2   0  -4  200.58   15.50
  -2   0   4  207.48   15.60
  -2   0  -4  190.88   16.20
  -2   0   4  194.78   15.30
   2   0   4  197.48   15.00
   3   0  -4  147.39   20.40
  -3   0   4  152.08   18.10
   3   0   4  147.39   20.60
   3   0  -4  136.99   18.80
  -3   0  -4  182.68   20.90
   3   0   4  169.98   18.00
  -3   0  -4  155.08   19.70
   4   0   4    8.70   14.50
  -4   0   4   16.60   14.80
   4   0   4    3.70   13.90
   4   0  -4    6.00   15.30
  -4   0  -4  -10.10   14.50
   0   1  -4  198.68    9.60
   0   1   4  194.68   11.10
   0  -1  -4  193.78   11.90
   1   1  -4 1600.64   67.89
  -1   1   4 1651.33   68.39
   1   1  -4 1594.64   67.69
  -1  -1  -4 1642.24   68.49
   1  -1   4 1572.44   67.39
  -1   1   4 1613.14   68.09
   1   1   4 1415.86   67.89
   1  -1  -4 1481.25   68.39
  -1   1  -4 1483.65   67.99
  -1  -1   4 1401.66   66.99
  -1   1  -4 1415.76   67.59
  -1  -1   4 1427.46   67.19
   2  -1   4   25.60    7.30
   2   1  -4   24.60    7.80
  -2  -1  -4   31.60    8.10
  -2  -1  -4   18.50    8.30
  -2   1   4   18.50    7.70
  -2   1   4   20.00    7.40
   2   1  -4   28.80    7.70
   2  -1   4   25.10    7.70
   3  -1   4  340.87   24.80
  -3   1   4  281.87   23.00
  -3  -1  -4  300.77   24.30
   3   1  -4  283.87   23.20
   3   1  -4  282.97   23.70
  -3  -1  -4  291.87   24.20
  -3   1   4  295.87   22.50
  -3  -1   4  298.67   22.50
   3  -1  -4  292.57   24.20
  -3   1  -4  312.17   25.00
  -3   1  -4  311.77   24.20
   3   1   4  294.77   23.10
   3   1   4  330.07   25.60
  -3  -1   4  233.98   21.70
  -4   1   4  170.58   21.60
   4  -1   4  185.38   26.20
   4   1  -4  235.68   26.90
  -4  -1  -4  182.98   26.70
   4   1  -4  228.88   27.90
  -4  -1   4  210.48   24.20
  -4   1  -4  182.78   26.90
   4   1   4  236.98   25.90
   4   1   4  234.58   27.50
  -4   1  -4  216.68   27.30
   0  -2  -4    5.70    4.70
   0   2   4    2.20    4.10
  -1   2   4  378.36   23.20
   1   2  -4  369.96   21.60
  -1  -2  -4  376.76   23.00
   1  -2  -4  483.85   23.80
  -1   2  -4  483.45   22.20
  -1  -2   4  502.75   21.30
  -1   2  -4  507.25   22.50
   1   2   4  495.15   23.50
  -1  -2   4  479.45   21.10
  -2   2   4  783.12   37.20
   2   2  -4  806.22   37.00
  -2  -2  -4  824.82   38.10
   2   2  -4  791.72   37.00
   2  -2   4  810.82   36.60
  -2   2   4  777.22   37.00
  -2  -2  -4  784.62   37.50
   2  -2   4  799.12   36.20
  -2  -2   4  650.63   35.30
  -2   2  -4  661.23   36.30
   2  -2  -4  653.53   37.00
  -2   2  -4  648.54   36.30
   2   2   4  639.24   36.50
  -2  -2   4  620.74   35.30
   3   2  -4  230.78   21.80
  -3  -2  -4  257.17   22.80
  -3   2   4  271.37   22.30
  -3   2   4  237.38   22.20
  -3  -2  -4  237.28   23.10
   3  -2   4  250.77   21.40
   3  -2   4  279.47   20.90
   3   2  -4  241.48   23.60
  -3   2  -4  256.87   22.50
   3   2   4  293.57   24.00
  -3   2  -4  292.67   23.60
  -3  -2   4  289.67   22.30
   3  -2  -4  262.47   22.80
  -4  -2  -4  227.48   29.10
  -4   2   4  226.48   26.90
  -4   2   4  286.67   27.00
   4   2  -4  254.67   27.70
   4   2  -4  250.17   28.90
  -4   2  -4  238.48   28.50
  -4   2  -4  247.18   28.50
   4   2   4  202.58   28.80
  -4  -2   4  228.78   26.80
   0  -3  -4 3038.30  136.39
   0   3   4 3159.58  136.49
  -1  -3  -4  287.67   17.80
  -1   3   4  292.47   17.90
   1   3  -4  295.27   15.50
   1   3  -4  277.87   15.50
   1  -3  -4  326.57   18.60
  -1  -3   4  305.87   14.20
  -1   3  -4  313.37   15.90
   1   3   4  309.07   18.10
  -1  -3   4  307.67   14.20
  -1   3  -4  310.77   15.90
  -2   3   4  836.72   43.10
   2  -3   4  866.81   41.90
  -2  -3  -4  855.71   43.40
   2   3  -4  827.82   42.40
   2   3  -4  853.31   42.40
  -2  -3  -4  869.31   43.80
  -2   3   4  809.42   43.40
  -2  -3   4  922.41   41.40
   2   3   4  841.92   43.40
  -2  -3   4  910.61   41.50
   2  -3  -4  923.61   43.70
  -2   3  -4  927.11   43.20
  -2   3  -4  903.31   42.70
   3   3  -4  365.96   25.90
   3   3  -4  366.46   26.30
  -3  -3  -4  341.17   27.30
   3  -3   4  377.26   25.10
  -3  -3  -4  327.57   40.20
  -3   3   4  390.36   26.80
  -3   3   4  381.16   26.90
  -3   3  -4  374.66   27.00
   3   3   4  384.26   27.10
  -3  -3   4  352.36   24.70
  -3   3  -4  347.27   26.00
  -4   3   4  137.69   20.30
  -4  -3  -4  154.08   21.20
  -4   3   4  130.89   20.10
   4   3  -4  115.39   19.80
   4   3  -4  110.49   20.20
  -4  -3  -4  133.79   20.70
  -4  -3   4  155.48   19.40
  -4  -3   4  153.98   23.30
   4  -3  -4  131.59   19.90
  -4   3  -4  168.68   21.80
  -4   3  -4  141.49   21.50
   4   3   4  140.39   20.80
   0  -4  -4 4298.77  187.28
   0   4   4 4243.38  187.28
  -1   4   4  138.89   13.10
   1   4  -4  146.69    9.70
   1   4  -4  143.79    9.90
  -1  -4  -4  144.19   13.00
   1   4   4  153.48   13.60
   1  -4  -4  172.08   13.50
  -1   4  -4  157.68   10.20
  -2  -4  -4  736.03   41.10
   2   4  -4  748.03   39.80
   2  -4   4  760.52   38.90
   2   4  -4  791.02   40.00
  -2   4   4  731.83   41.10
  -2  -4  -4  805.72   41.70
  -2   4   4  793.82   41.20
  -2   4  -4  856.51   40.50
  -2  -4   4  865.21   38.80
   2   4   4  898.61   42.10
   2  -4  -4  855.21   41.70
  -2  -4   4  857.21   38.50
  -2   4  -4  847.32   40.40
   3  -4   4  127.39   18.40
  -3   4   4  134.79   16.40
   3   4  -4  133.99   18.90
   3   4  -4  100.89   14.90
  -3  -4  -4   98.99   23.80
  -3  -4  -4  149.69   20.50
  -3   4  -4  126.19   16.40
  -3   4  -4  144.59   20.60
   3   4   4   98.29   15.70
   3  -4  -4  137.99   18.90
  -3  -4   4  133.29   16.70
   4   4  -4  172.78   22.50
  -4   4   4  194.48   29.20
   4   4  -4  154.28   21.00
  -4  -4  -4  140.19   21.70
  -4   4   4  137.99   21.00
  -4  -4  -4  135.99   21.10
  -4   4  -4  187.68   27.90
   4  -4  -4  167.78   22.70
  -4   4  -4  148.09   21.10
  -4  -4   4  188.68   24.70
  -4  -4   4  163.78   22.70
   4   4   4  182.38   22.80
   0  -5  -4 1448.85   69.59
   0   5   4 1586.24   70.59
  -1   5   4 1634.34   78.19
  -1  -5  -4 1705.63   78.29
   1   5  -4 1702.23   75.59
   1   5  -4 1621.04   75.29
   1   5   4 1787.02   79.09
  -1   5  -4 1710.03   75.59
   1  -5  -4 1814.02   78.49
  -2  -5  -4  602.84   30.10
   2   5  -4  510.15   27.80
  -2  -5  -4  498.95   29.90
   2  -5   4  534.55   26.80
   2   5  -4  505.65   28.10
   2   5   4  549.95   29.90
  -2  -5   4  501.45   25.80
  -2   5  -4  499.55   28.30
  -2  -5   4  481.95   26.20
  -2   5  -4  509.75   28.60
   2  -5  -4  506.45   30.30
  -3  -5  -4   70.69   15.50
  -3   5   4   88.39   15.20
   3  -5   4   92.39   12.90
   3   5  -4   79.29   14.00
  -3  -5  -4   70.39   14.60
  -3   5   4   81.39   15.20
   3   5  -4   79.69   14.10
  -3   5  -4  138.49   16.20
   3   5   4   99.79   18.60
   3  -5  -4  104.59   15.40
  -3   5  -4  113.59   21.10
  -3  -5   4   96.69   12.30
  -4   5   4  148.79   22.00
  -4   5   4  136.59   21.50
  -4  -5  -4  185.88   22.90
   4   5  -4  197.68   29.50
   4   5  -4  138.29   21.60
   4  -5   4  167.58   21.40
  -4  -5  -4  178.08   22.90
  -4  -5   4  124.49   18.00
  -4  -5   4  146.29   22.20
   4  -5  -4  120.59   21.10
   4   5   4  122.99   21.40
  -4   5  -4  116.99   21.20
  -4   5  -4  150.68   21.50
   0  -6  -4   11.90    7.40
   0   6   4    5.10    8.00
   0   6  -4    8.70    2.40
   1   6  -4 1711.63   80.69
  -1   6   4 1724.83   83.89
   1   6  -4 1748.03   81.29
  -1  -6  -4 1706.33   83.79
  -1   6  -4 1940.41   81.09
   1  -6  -4 2019.40   84.19
   1   6   4 1969.90   85.29
   2   6  -4  368.36   23.80
  -2  -6  -4  375.96   25.80
   2   6  -4  381.56   24.00
   2  -6   4  375.06   21.60
  -2  -6   4  413.96   20.90
  -2   6  -4  407.96   24.00
  -2  -6   4  409.16   21.40
   2  -6  -4  428.26   26.10
  -2   6  -4  409.36   24.20
   3   6  -4  258.57   25.10
  -3  -6  -4  304.27   27.50
  -3   6   4  288.87   26.50
   3  -6   4  258.77   22.50
  -3  -6   4  291.57   20.10
   3   6   4  311.37   27.70
   3  -6  -4  280.27   25.40
  -3   6  -4  274.27   30.20
  -3  -6   4  284.07   22.10
  -3   6  -4  296.67   26.00
   4   6  -4  100.59   20.40
  -4  -6  -4  126.49   21.40
  -4   6   4   85.49   20.10
   4  -6   4  115.69   18.80
  -4   6   4  116.69   22.00
  -4  -6  -4   94.19   19.90
   4   6  -4   84.39   19.70
  -4  -6   4  139.39   18.40
  -4   6  -4  122.79   22.20
   4  -6  -4  139.29   21.10
  -4  -6   4  111.49   18.50
   4   6   4   94.59   21.50
  -4   6  -4  113.29   20.70
   0   7   4   23.10    9.90
   0  -7  -4   49.30    9.50
   0   7  -4   35.10    4.60
  -1  -7  -4  321.17   21.80
   1   7  -4  313.77   18.40
  -1   7   4  315.87   22.00
   1   7  -4  328.77   17.40
   1  -7  -4  274.37   21.30
   1   7   4  285.87   22.90
  -1   7  -4  285.67   17.20
   2   7  -4  155.08   17.70
  -2   7   4  132.19   19.20
  -2  -7  -4  162.08   19.60
   2   7  -4  152.98   16.70
   2  -7   4  154.28   13.60
  -2   7  -4  208.58   18.50
   2  -7  -4  206.18   19.30
  -2  -7   4  208.48   13.50
   2   7   4  211.18   22.80
  -2  -7   4  220.28   12.70
  -2   7  -4  245.98   18.00
  -3  -7  -4  705.03   43.00
   3  -7   4  724.33   38.80
  -3   7   4  727.53   42.80
  -3  -7  -4  710.13   42.60
   3   7  -4  732.73   42.00
   3   7  -4  747.93   42.70
  -3   7  -4  687.23   42.90
  -3  -7   4  743.73   38.50
  -3   7  -4  718.83   42.10
  -3  -7   4  714.53   36.90
   3  -7  -4  733.13   43.50
   3   7   4  706.33   44.50
  -4   7   4   95.29   22.50
  -4  -7  -4  101.59   21.70
   4   7  -4  112.79   21.50
  -4   7   4   72.99   20.00
   4   7  -4   88.19   21.30
  -4  -7  -4   43.80   18.80
   4  -7   4   72.69   17.40
   4   7   4   62.29   20.50
   4  -7  -4   78.89   20.50
  -4   7  -4   88.99   20.70
  -4   7  -4   82.59   21.10
   0   8  -4 1143.99   51.79
   0  -8  -4 1111.79   55.09
   0   8   4 1160.88   57.19
  -1  -8  -4  290.67   23.60
  -1   8   4  368.36   23.20
   1   8  -4  294.27   20.30
   1   8  -4  291.97   18.90
   1  -8  -4  361.46   22.90
  -1   8  -4  357.26   19.20
  -2   8   4  537.55   33.20
  -2  -8  -4  515.05   31.30
   2  -8   4  480.55   24.70
   2   8  -4  471.75   29.20
   2   8  -4  494.75   28.30
  -2  -8  -4  473.55   31.50
  -2  -8   4  470.85   24.00
   2   8   4  507.25   33.70
  -2  -8   4  471.65   23.40
   2  -8  -4  490.25   31.00
  -2   8  -4  459.15   29.30
  -2   8  -4  491.95   28.60
   3   8  -4  330.47   29.10
   3   8  -4  332.37   29.30
  -3   8   4  338.47   31.90
   3  -8   4  354.46   25.20
  -3  -8  -4  343.77   30.10
   3   8   4  401.46   35.40
  -3  -8   4  397.66   23.20
  -3  -8   4  432.76   25.60
  -3   8  -4  405.16   29.90
  -3   8  -4  371.86   34.80
   4   8  -4   72.19   20.70
   4  -8   4   71.69   17.00
  -4   8   4   64.19   20.00
  -4  -8  -4   41.00   20.10
  -4   8   4   43.70   21.70
  -4  -8  -4   45.00   18.90
   4   8  -4   50.59   19.30
   4  -8  -4   44.80   19.50
  -4  -8   4   29.60   25.70
   4   8   4   18.20   20.90
  -4   8  -4   56.49   20.20
  -4  -8   4   37.30   15.60
  -4   8  -4   18.10   19.50
   0  -9  -4    3.30    8.90
   0   9  -4    5.80    5.80
   0   9   4   25.90   10.70
   1   9  -4  158.68   16.10
  -1  -9  -4  151.48   17.60
   1  -9  -4  115.69   16.20
  -1   9  -4  101.79   12.80
  -2  -9  -4  416.96   29.00
  -2  -9  -4  386.76   30.80
   2   9  -4  416.36   27.80
   2  -9   4  416.16   22.00
  -2   9   4  410.86   31.30
   2   9  -4  441.36   27.60
   2   9   4  438.66   33.40
   2  -9  -4  434.96   30.30
  -2  -9   4  431.36   20.20
  -2   9  -4  512.15   27.40
  -2  -9   4  438.76   21.60
   3  -9   4   32.50   10.60
  -3  -9  -4   26.80   15.30
   3   9  -4   27.20   14.00
  -3   9   4   16.70   15.60
   3   9   4   11.30   17.20
  -3   9  -4   23.80   15.20
  -3  -9   4   37.80   10.50
  -3   9  -4   21.20   14.20
  -3  -9   4   36.10    8.80
   4   9  -4  110.59   23.70
  -4  -9  -4  147.49   23.10
   4   9  -4  132.39   23.50
  -4   9   4   94.29   27.10
  -4  -9  -4  176.58   25.70
  -4   9   4  134.59   25.40
   4  -9   4  133.69   21.00
  -4  -9   4  167.28   19.90
  -4   9  -4  146.19   25.20
   4   9   4  151.08   27.90
  -4   9  -4  126.49   23.10
  -4  -9   4  115.59   15.80
   4  -9  -4  190.38   25.10
   0 -10  -4  775.62   42.00
   0  10   4  838.22   45.30
   0  10  -4  769.32   39.40
  -1  10   4  685.23   41.30
   1  10  -4  697.23   38.40
  -1 -10  -4  727.23   39.60
   1  10   4  672.63   43.50
  -1  10  -4  731.03   36.30
   1 -10  -4  747.13   39.50
  -2 -10  -4  671.43   39.00
  -2 -10  -4  716.03   45.10
  -2  10   4  722.33   42.40
   2  10  -4  589.04   37.60
   2  10   4  671.23   49.40
  -3  10   4  135.89   23.60
   3  10  -4  144.09   19.60
  -3  10   4  144.89   21.60
  -3 -10  -4   64.09   18.10
  -3  10  -4   64.89   17.60
  -3 -10   4   80.49   11.10
   3  10   4  105.59   23.00
  -3 -10   4   96.89   13.60
  -3  10  -4   89.59   17.00
   0  11  -4  313.07   22.70
   0 -11  -4  319.87   24.00
   0  11   4  353.86   30.70
   1  11  -4   85.19   13.90
  -1  11   4   78.99   16.30
  -1 -11  -4   76.59   14.10
  -1 -11  -4   89.29   14.70
   1  11   4   85.89   18.90
   1 -11  -4  126.79   14.90
  -1  11  -4   90.39   11.70
  -2  11   4  527.35   37.40
  -2 -11  -4  510.35   38.80
  -2 -11  -4  516.15   34.60
   2  11   4  379.06   37.90
   2 -11  -4  432.26   32.80
  -2  11  -4  452.95   30.40
   3  11  -4  345.57   34.90
  -3  11   4  287.97   34.60
  -3 -11  -4  385.36   32.40
  -3  11   4  335.37   39.40
  -3 -11  -4  342.47   33.80
   3 -11   4  345.87   23.70
   3 -11  -4  388.56   32.00
  -3  11  -4  424.46   33.70
  -3 -11   4  369.96   21.30
  -3 -11   4  380.56   20.90
  -3  11  -4  377.06   34.20
   3  11   4  402.36   40.20
   0 -12  -4  376.56   27.60
   0  12  -4  371.76   26.60
   0  12   4  363.46   35.40
   1  12  -4  631.04   37.30
  -1 -12  -4  582.54   36.90
  -1 -12  -4  646.14   37.40
  -1  12   4  570.44   39.50
   1  12   4  590.74   42.60
   1 -12  -4  583.04   36.00
  -1  12  -4  551.54   34.10
  -2 -12  -4  230.38   25.80
  -2 -12  -4  208.28   26.20
   2  12  -4  215.88   26.10
  -2  12   4  270.87   29.50
   2  12   4  193.68   27.30
   2 -12  -4  243.28   25.50
  -2  12  -4  237.38   24.50
   3  12  -4  106.89   21.80
  -3 -12  -4  116.39   20.20
  -3  12   4  116.89   27.50
  -3 -12  -4  138.79   23.30
  -3  12   4  135.09   24.60
  -3  12  -4  127.59   21.30
  -3  12  -4  110.09   21.40
   3  12   4  107.79   26.70
   3 -12  -4  112.29   20.50
   0  13  -4    3.70   11.00
   0 -13  -4    0.40   11.00
   0  13   4   -0.10   16.50
  -1 -13  -4  634.14   51.49
  -1  13   4  677.93   45.40
  -1 -13  -4  621.64   39.20
   1  13   4  648.34   46.80
  -2 -13  -4  320.77   28.60
   2  13  -4  297.07   30.30
  -2 -13  -4  321.67   33.80
  -2  13   4  269.97   32.30
  -2  13  -4  236.28   31.80
   2  13   4  203.58   29.50
   3  13  -4   95.39   21.70
  -3 -13  -4   67.69   20.60
  -3  13   4   73.39   24.30
  -3 -13  -4   95.89   21.30
   3  13   4   66.69   27.30
  -3  13  -4   91.59   21.40
   3 -13  -4   65.89   19.10
  -3  13  -4   71.69   19.60
  -1  14   4  348.07   38.30
   1  14  -4  354.76   32.00
  -1 -14  -4  324.67   29.20
   1 -14  -4  351.76   28.50
   1  14   4  406.86   39.40
  -1  14  -4  350.86   28.50
  -2 -14  -4  131.19   19.60
  -2  14   4  135.79   24.50
   2  14  -4  126.59   20.80
   2  14   4   69.89   25.10
  -2  14  -4  122.49   18.70
   0  15  -4  391.46   32.20
   0 -15  -4  372.36   29.60
   0  15   4  297.07   37.60
  -1 -15  -4    9.70   13.90
  -1 -15  -4   12.50   14.40
   1  15  -4   14.90   17.10
  -1  15   4   21.10   20.10
  -1  15  -4   12.70   14.40
   1  15   4   39.20   23.70
   1 -15  -4   11.40   14.20
  -2  15   4  143.89   26.40
   2  15  -4  161.98   23.50
  -2 -15  -4  118.59   20.30
   2  15   4   98.39   28.70
  -2  15  -4  145.29   21.50
   0 -16  -4   26.00   14.90
   0  16   4   -1.90   21.70
  -1 -16  -4  151.38   22.90
   1  16  -4  160.38   23.50
  -1 -16  -4  114.19   19.30
  -1  16   4  148.29   27.00
   1  16   4  128.79   29.10
  -1  16  -4  156.88   21.20
   0   0  -5    0.80    3.50
   0   0   5    1.50    2.60
   1   0  -5  817.52   39.00
  -1   0   5  801.82   38.30
  -1   0   5  821.92   38.10
   1   0   5  856.71   38.20
  -1   0  -5  844.12   38.60
  -2   0   5  474.65   26.70
   2   0  -5  491.85   27.60
  -2   0  -5  500.05   28.50
  -2   0  -5  498.95   28.00
  -2   0   5  498.05   26.90
   2   0   5  514.65   27.20
   2   0  -5  506.65   27.40
  -3   0  -5  175.18   20.90
   3   0   5  141.09   18.40
   3   0  -5  195.98   20.50
   3   0  -5  158.98   19.40
  -3   0  -5  173.18   20.60
  -3   0   5  175.68   19.90
   4   0   5  533.25   37.40
   4   0  -5  541.05   39.10
  -4   0  -5  520.65   39.40
  -4   0   5  539.95   36.10
  -4   0  -5  507.65   38.30
   0   1  -5 3446.16  149.99
   0   1   5 3473.05  150.88
   0  -1  -5 3486.05  151.58
  -1   1   5 2141.99   96.49
   1  -1   5 2152.68   95.39
   1   1  -5 2161.48   95.89
  -1  -1  -5 2161.88   96.59
  -1   1   5 2132.69   96.09
   1   1  -5 2184.68   96.19
   1   1   5 2243.78   96.39
  -1  -1   5 2130.79   95.39
  -1   1  -5 2176.68   95.99
   1  -1  -5 2284.67   97.19
  -1  -1   5 2214.78   95.29
  -2  -1  -5 1451.65   65.69
   2   1  -5 1405.56   64.69
  -2   1   5 1476.65   64.79
   2   1  -5 1439.66   64.89
  -2   1   5 1397.56   64.49
   2  -1   5 1417.46   64.09
  -2  -1  -5 1441.76   65.19
  -2  -1   5 1316.77   63.59
  -2  -1   5 1352.06   63.69
  -2   1  -5 1340.07   64.99
  -2   1  -5 1355.86   64.59
   2   1   5 1383.66   64.79
   2  -1  -5 1327.57   65.29
  -3  -1  -5  450.65   34.10
  -3  -1  -5  431.56   30.10
   3   1  -5  460.95   28.80
   3   1  -5  422.16   29.00
  -3   1   5  448.66   28.00
  -3   1   5  477.15   29.40
   3   1   5  412.26   28.10
  -3   1  -5  396.56   30.00
  -3  -1   5  433.46   27.30
   3  -1  -5  333.67   31.50
  -3   1  -5  443.56   29.40
   4   1  -5   18.20   15.40
  -4   1   5   -0.80   14.70
  -4  -1  -5    0.60   14.80
  -4   1   5   19.60   13.20
   4  -1   5   -7.10   13.70
   4   1  -5   -1.80   15.80
   4  -1  -5   30.70   16.00
  -4   1  -5   31.30   16.20
  -4   1  -5   -0.60   15.40
   4   1   5   18.70   15.90
  -4  -1   5   17.70   15.00
   0  -2  -5  405.46   22.50
   0   2  -5  430.86   18.70
   0   2   5  429.86   22.00
   1   2  -5  534.25   24.00
  -1   2   5  559.94   25.90
  -1  -2  -5  564.04   25.80
   1   2  -5  562.84   23.80
   1  -2  -5  436.36   25.60
  -1  -2   5  439.56   22.40
   1   2   5  459.55   24.90
  -1   2  -5  453.65   24.00
  -1  -2   5  434.66   22.20
  -1   2  -5  459.85   23.60
  -2   2   5   82.79   12.50
   2   2  -5   94.49   12.50
  -2  -2  -5   94.99   14.30
  -2   2   5   91.89   10.90
   2  -2   5  100.99   11.40
   2   2  -5   69.79    9.50
  -2  -2  -5   60.49   11.00
  -2  -2   5   77.49   10.70
  -2  -2   5   78.39   10.90
   2   2   5   93.49   13.00
  -2   2  -5   93.19   13.80
  -2   2  -5   81.69   12.20
   2  -2  -5   97.09   13.90
  -3   2   5 1030.80   52.89
  -3  -2  -5 1063.79   54.29
   3  -2   5 1048.80   52.19
   3   2  -5  995.80   52.59
   3   2  -5 1074.59   53.99
  -3   2   5 1006.10   52.59
   3  -2   5  956.70   51.29
  -3   2  -5 1098.39   54.29
   3   2   5 1061.99   53.69
  -3  -2   5 1060.29   51.89
  -3   2  -5 1033.10   53.29
  -4  -2  -5   45.20   14.40
  -4  -2  -5   17.10   16.40
   4   2  -5   26.60   17.40
  -4   2   5   26.70   16.20
   4   2  -5   33.00   16.00
   4   2   5   12.50   16.00
  -4  -2   5   17.70   14.30
  -4   2  -5   35.80   17.00
  -4   2  -5   15.90   16.60
  -4  -2   5   16.70   15.40
   0  -3  -5 1001.50   47.10
   0   3   5  969.50   46.40
   1   3  -5 1427.26   59.69
  -1   3   5 1418.66   62.09
  -1  -3  -5 1424.66   62.29
   1   3  -5 1391.16   59.69
  -1   3  -5 1277.77   59.79
   1  -3  -5 1282.37   62.09
   1   3   5 1258.87   61.49
  -1   3  -5 1258.37   59.69
   2   3  -5  516.15   28.00
  -2   3   5  551.34   29.60
  -2   3   5  541.85   29.40
   2   3  -5  507.85   28.50
  -2  -3  -5  550.74   29.90
  -2  -3  -5  524.55   30.50
  -2  -3   5  499.45   26.60
  -2  -3   5  521.15   26.80
   2   3   5  533.95   29.70
   2  -3  -5  540.05   30.60
  -2   3  -5  526.95   28.90
  -2   3  -5  529.15   28.50
  -3  -3  -5   78.19   15.50
  -3   3   5   94.39   14.80
   3   3  -5  101.09   14.90
   3   3  -5   88.59   13.70
   3  -3   5  111.99   14.30
  -3   3   5  107.49   15.60
  -3   3  -5   53.89   13.00
  -4  -3  -5   36.70   16.70
   4   3  -5   22.50   16.90
  -4   3   5   45.50   17.00
   4   3  -5   45.10   16.60
  -4  -3  -5   31.30   17.10
  -4   3   5   33.00   16.30
  -4  -3   5   43.10   14.10
   4  -3  -5   55.69   16.40
  -4   3  -5   50.39   18.30
  -4  -3   5   50.09   15.60
   4   3   5   31.90   16.60
  -4   3  -5   36.10   17.40
   0   4   5   59.69    8.70
   0  -4  -5   51.59    8.60
  -1  -4  -5  182.88   15.20
  -1   4   5  180.98   15.00
   1   4  -5  189.78   11.10
   1   4  -5  188.48   11.10
   1  -4  -5  182.08   15.40
  -1   4  -5  191.18   11.60
  -1   4  -5  181.48   11.50
   1   4   5  184.78   15.20
  -2   4   5  925.71   43.50
  -2  -4  -5  835.52   43.40
   2   4  -5  867.11   41.60
   2   4  -5  888.41   41.70
  -2   4   5  865.31   43.60
  -2  -4   5  804.52   39.40
  -2  -4   5  820.72   39.60
   2   4   5  848.12   43.10
  -2   4  -5  819.12   41.60
  -2   4  -5  833.82   41.80
   2  -4  -5  789.72   43.20
  -3  -4  -5  156.68   21.40
  -3   4   5  131.99   20.00
   3   4  -5  127.49   16.10
   3  -4   5  149.69   18.60
   3   4  -5  154.68   20.80
  -3   4   5  116.99   16.80
  -3  -4   5  154.68   17.00
  -3   4  -5  139.09   19.80
   3   4   5  183.48   21.00
  -3  -4   5  170.18   16.80
  -3   4  -5  158.68   20.90
   4  -4   5  359.16   32.20
  -4   4   5  349.57   32.90
  -4   4   5  400.06   34.60
  -4  -4  -5  343.87   36.20
  -4  -4  -5  388.76   36.00
   4   4  -5  359.66   33.90
   4   4  -5  381.86   34.50
  -4   4  -5  432.06   35.10
  -4   4  -5  394.06   35.60
   4  -4  -5  368.06   34.50
  -4  -4   5  370.56   31.00
  -4  -4   5  417.96   30.40
   4   4   5  371.06   35.80
   0   5   5 3788.92  164.68
   0  -5  -5 3641.14  164.28
  -1  -5  -5   61.19    9.80
   1   5  -5   60.99    7.00
  -1   5   5   58.09    9.50
   1   5  -5   65.69    7.40
  -1   5  -5   58.89    7.60
   1  -5  -5   47.50    9.20
   1   5   5   52.59    9.90
  -2  -5  -5  704.13   37.30
   2   5  -5  708.93   34.90
   2   5  -5  756.72   35.20
  -2  -5   5  645.94   31.90
  -2  -5   5  664.13   32.30
  -2   5  -5  637.04   34.70
   2  -5  -5  666.63   37.60
  -2   5  -5  647.44   34.70
  -3   5   5   -7.40   11.60
   3   5  -5    3.80   11.20
  -3  -5  -5   21.10   12.30
   3  -5   5    5.00    9.70
  -3  -5  -5  -18.60   22.00
   3   5  -5   15.60   13.60
  -3   5  -5    7.10   11.90
  -3  -5   5   19.60    9.50
  -3  -5   5    9.20    8.50
   4  -5   5   15.30   14.70
   4   5  -5  -31.30   15.10
  -4  -5  -5   -8.40   16.40
  -4   5   5   -7.30   16.50
  -4   5   5    3.30   17.50
  -4  -5  -5   10.40   17.30
   4   5  -5  -11.00   16.10
  -4   5  -5    1.20   16.20
  -4   5  -5  -24.00   15.90
   4  -5  -5   -0.90   16.40
  -4  -5   5    6.20   15.10
   4   5   5   -4.00   16.50
   0   6   5   -8.00    7.70
   0  -6  -5   -5.50    7.30
   1   6  -5  309.57   17.20
  -1   6   5  337.17   22.60
   1   6  -5  322.37   16.80
  -1  -6  -5  316.47   22.00
  -1   6  -5  313.37   17.00
   1  -6  -5  337.07   22.00
   1   6   5  307.07   23.40
  -2  -6  -5  107.19   13.80
   2   6  -5  109.59   13.60
   2   6  -5  102.59   13.70
  -2   6  -5   73.99   10.60
   2  -6  -5   79.79   13.10
  -2  -6   5   81.39    8.40
  -2   6  -5   87.89   13.30
  -2  -6   5   72.89    8.90
  -3   6   5  729.73   41.70
  -3  -6  -5  692.73   43.00
  -3  -6  -5  781.22   43.10
   3   6  -5  734.93   39.50
   3  -6   5  722.13   37.40
  -3  -6   5  657.23   36.10
   3  -6  -5  607.94   43.80
  -3   6  -5  631.44   39.90
  -3  -6   5  664.03   35.50
  -3   6  -5  628.54   39.60
   3   6   5  676.63   42.20
  -4  -6  -5   46.90   18.80
   4   6  -5   56.59   18.20
  -4   6   5   63.79   20.70
  -4  -6  -5   48.50   19.50
   4  -6   5   48.20   16.00
   4   6  -5   59.79   19.90
  -4   6   5   41.70   18.60
  -4   6  -5   45.60   18.80
  -4   6  -5   66.29   19.60
   4  -6  -5   62.59   19.40
   4   6   5   44.50   20.10
  -4  -6   5   82.19   16.50
   0  -7  -5   32.00    9.40
   0   7   5   23.10    9.70
   0   7  -5   23.30    3.30
   1   7  -5 1824.92   81.19
   1   7  -5 1854.81   80.59
  -1  -7  -5 1975.70   85.49
  -1   7   5 1897.51   85.19
  -1   7  -5 1654.13   80.49
   1   7   5 1769.42   85.69
   1  -7  -5 1772.72   84.29
  -2  -7  -5  -13.90   10.40
  -2  -7  -5    3.20   10.50
  -2   7   5   16.20   11.40
   2   7  -5    3.90    7.70
   2   7  -5    3.30    8.20
   2   7   5   10.30   12.10
  -2   7  -5   -1.20    7.70
  -2   7  -5    8.10    8.80
  -2  -7   5   10.70    3.70
  -2  -7   5    4.30    3.30
   2  -7  -5    6.40   10.80
   3  -7   5  325.17   23.60
   3   7  -5  310.97   27.00
  -3  -7  -5  314.57   31.20
   3   7  -5  331.47   27.90
  -3   7   5  293.17   29.20
  -3   7  -5  331.87   27.50
  -3  -7   5  365.16   23.20
  -3  -7   5  331.77   21.50
   3   7   5  347.27   32.60
  -3   7  -5  378.26   27.10
  -4  -7  -5   10.30   19.00
   4   7  -5   -6.80   16.70
   4   7  -5  -17.30   16.20
  -4   7   5    2.30   19.70
  -4  -7  -5   26.10   18.80
   4  -7   5  -11.60   16.40
  -4   7   5    5.20   18.30
   4   7   5   -7.90   18.50
  -4  -7   5  -10.30   13.70
   4  -7  -5   -8.90   18.00
  -4  -7   5   21.00   12.80
  -4   7  -5   -0.10   17.80
  -4   7  -5   15.90   17.90
   0  -8  -5   73.69   12.00
   0   8  -5   75.49    8.00
  -1  -8  -5  102.89   13.80
   1   8  -5  104.49   10.80
   1   8  -5  114.39   12.30
   1  -8  -5   99.79   13.50
  -1   8  -5   94.49   10.80
   2   8  -5  297.07   22.10
  -2  -8  -5  296.67   25.30
   2   8  -5  306.67   21.50
  -2   8   5  330.17   26.30
  -2  -8  -5  273.17   25.00
   2   8   5  306.07   27.60
  -2   8  -5  281.17   22.30
  -2   8  -5  307.87   21.60
   2  -8  -5  306.17   25.80
  -3  -8  -5  261.67   29.50
  -3   8   5  239.98   27.90
   3   8  -5  212.58   24.90
   3   8  -5  281.27   26.50
   3   8   5  278.67   30.40
  -3  -8   5  249.68   19.30
  -3   8  -5  267.97   29.40
  -3   8  -5  232.98   26.70
  -3  -8   5  241.08   18.00
  -4   8   5  310.47   40.80
   4   8  -5  275.97   35.00
  -4  -8  -5  269.77   34.90
  -4   8   5  284.97   35.70
   4   8  -5  343.57   34.50
  -4  -8  -5  251.47   36.20
   4   8   5  203.58   29.70
  -4   8  -5  312.97   34.40
  -4  -8   5  297.07   28.40
  -4   8  -5  294.67   33.00
   4  -8  -5  264.57   34.20
  -4  -8   5  254.67   24.80
   0  -9  -5 1759.02   83.69
   0   9  -5 1761.92   79.29
   0   9   5 1813.12   85.09
  -1   9   5   92.69   15.00
   1   9  -5   93.99   13.80
  -1  -9  -5  101.49   14.60
  -1   9  -5  114.59   12.10
   1   9   5   85.79   16.40
   1  -9  -5   95.19   13.80
  -2  -9  -5  888.91   49.99
   2   9  -5  942.81   47.20
   2   9  -5  962.30   47.70
  -2   9  -5 1002.10   47.60
   2   9   5  791.32   68.09
   2  -9  -5  923.01   54.39
  -2   9  -5  957.80   48.00
  -3  -9  -5   52.69   15.60
  -3   9   5   28.30   17.50
   3   9  -5   51.99   15.40
  -3  -9  -5   35.80   17.40
  -3   9   5    3.20   18.10
   3  -9  -5   94.59   16.20
  -3  -9   5   34.30    8.60
  -3  -9   5   46.70    8.10
  -3   9  -5   59.39   18.90
   3   9   5   58.69   19.50
  -3   9  -5   36.30   14.60
  -4  -9  -5   17.60   22.40
   4   9  -5   52.29   20.20
   4   9  -5   29.20   20.20
  -4  -9  -5   48.20   22.10
  -4   9   5   39.50   22.60
  -4  -9   5   39.10   14.50
   4  -9  -5   44.70   20.70
  -4   9  -5   67.09   21.90
   4   9   5   50.69   24.90
  -4   9  -5   32.50   21.00
   0  10   5   13.60   13.20
   0 -10  -5   14.40   10.60
   0  10  -5   11.70    6.80
  -1 -10  -5   51.79   13.90
  -1  10   5   46.10   14.30
   1  10  -5   57.99   10.50
   1 -10  -5   37.70   12.40
  -1  10  -5   53.69    8.80
   1  10   5   58.39   16.70
  -2 -10  -5  180.98   24.00
  -2  10   5  226.98   26.10
   2  10  -5  215.28   20.90
   2 -10  -5  174.98   24.20
   2  10   5  205.88   30.40
  -3 -10  -5  152.28   21.80
  -3  10   5  154.78   23.30
  -3 -10  -5  134.19   21.30
   3  10  -5  149.99   19.40
  -3  10   5  160.58   24.60
   3  10  -5  132.79   18.70
  -3  10  -5  150.28   20.00
  -3 -10   5  133.29   11.60
  -3 -10   5  144.59   10.90
   3  10   5  168.48   25.60
   3 -10  -5  127.89   19.70
  -3  10  -5  136.19   19.40
   0  11  -5    9.10    8.10
   0 -11  -5   12.90   11.60
   0  11   5    7.20   14.60
   1  11  -5  831.52   42.00
  -1 -11  -5  823.12   44.90
  -1  11  -5  749.82   39.40
   1 -11  -5  719.63   42.90
  -2 -11  -5    5.70   14.00
  -2  11   5   13.50   15.80
  -2 -11  -5   18.10   14.30
   2 -11  -5   28.70   15.40
   2  11   5    3.50   17.70
   3  11  -5  125.19   19.80
   3  11  -5  134.09   20.30
  -3 -11  -5  121.59   20.90
  -3 -11  -5  123.39   21.70
  -3  11   5  102.99   22.40
  -3  11   5   97.09   24.70
   3  11   5  113.99   25.60
   3 -11  -5  106.79   20.30
  -3  11  -5  105.99   18.30
  -3  11  -5  108.59   19.60
   0 -12  -5  188.38   22.30
   0  12  -5  204.38   19.60
   0  12   5  152.78   22.30
  -1 -12  -5  185.88   24.10
  -1  12   5  167.08   22.40
   1  12  -5  165.58   21.60
  -1 -12  -5  184.88   22.50
   1  12   5  138.39   23.20
  -1  12  -5  153.28   18.30
   1 -12  -5  168.78   22.30
   2  12  -5  158.48   23.00
  -2  12   5  148.39   21.80
  -2 -12  -5  119.89   19.30
  -2  12  -5  107.59   16.00
   2  12   5  112.09   24.00
  -3 -12  -5  166.28   25.70
  -3 -12  -5  277.67   33.90
  -3  12   5  249.48   34.70
   3  12  -5  206.38   31.30
   3 -12  -5  273.47   30.70
  -3  12  -5  272.27   31.00
  -3  12  -5  243.88   31.30
   3  12   5  207.78   31.80
   0 -13  -5  775.52   44.90
   0  13  -5  786.82   43.50
   0  13   5  822.92   52.29
  -1 -13  -5   41.20   15.40
  -1  13   5   55.59   19.50
  -1 -13  -5   25.00   14.60
   1  13   5   57.89   21.70
   1 -13  -5   48.20   14.70
  -2 -13  -5  150.38   21.50
  -2  13   5  163.28   25.00
   2  13  -5  171.88   20.30
   2 -13  -5  192.48   24.30
   2  13   5  181.88   28.50
  -2  13  -5  216.98   24.40
   0 -14  -5   15.20   14.00
   0  14   5   19.10   19.00
  -1  14   5   24.00   19.50
  -1 -14  -5   35.60   24.00
  -1 -14  -5   36.80   15.90
   1  14   5   55.19   23.00
  -2 -14  -5  134.59   20.00
  -2  14   5  125.59   24.90
  -2 -14  -5  151.28   21.20
   2 -14  -5  144.19   20.10
  -2  14  -5  114.39   18.50
   2  14   5  167.88   28.90
   0  15   5   61.19   22.60
  -1  15   5  516.15   47.40
  -1 -15  -5  519.95   39.80
   1  15  -5  658.33   41.00
  -1  15  -5  564.94   37.50
   1  15   5  608.54   50.09
   0  16  -5   13.00   15.30
   0  16   5   11.30   23.30
  -1  16   5   22.10   23.20
  -1 -16  -5   10.80   16.50
  -1  16  -5   40.20   16.70
   1  16   5   15.60   26.40
   0   0  -6 2718.73  114.69
   0   0   6 2502.75  113.39
   1   0   6    0.10    4.30
  -1   0   6   -2.70    4.00
  -1   0   6    4.00    4.50
   1   0  -6   -0.10    5.20
  -1   0  -6    2.20    5.10
  -2   0  -6 1319.27   61.59
  -2   0  -6 1326.47   62.39
  -2   0   6 1322.77   60.59
  -2   0   6 1256.37   60.79
   2   0   6 1317.27   60.99
   2   0  -6 1314.97   62.09
  -3   0   6  200.78   21.30
  -3   0  -6  213.08   24.40
   3   0   6  159.68   19.30
  -3   0   6  254.27   20.20
  -4   0   6    5.60   15.20
  -4   0  -6   28.00   16.80
   4   0   6  -11.20   14.60
   4   0  -6   -3.60   16.10
  -4   0  -6    6.70   15.50
   0  -1  -6   16.60    5.60
   0   1   6   21.00    4.80
   0   1  -6   15.90    3.80
   1  -1   6  312.37   15.30
   1   1  -6  304.47   17.00
  -1  -1  -6  298.37   17.30
  -1   1   6  309.77   17.30
  -1   1   6  301.07   16.50
  -1   1  -6  288.57   16.40
  -1  -1   6  267.67   14.70
  -1  -1   6  260.17   15.30
   1   1   6  283.97   16.60
   1  -1  -6  259.87   18.20
  -2   1   6 1076.69   52.09
  -2   1   6 1140.99   52.59
   2  -1   6 1098.79   51.69
  -2  -1  -6 1165.48   53.59
   2   1  -6 1124.59   52.79
  -2  -1  -6 1153.38   54.09
   2   1  -6 1155.08   53.19
  -2   1  -6 1072.59   52.49
   2   1   6 1055.89   52.49
  -2  -1   6 1080.19   51.49
  -2   1  -6 1039.60   52.79
   2  -1  -6 1086.29   53.69
  -2  -1   6 1074.49   51.39
  -3   1   6  440.96   29.60
   3  -1   6  542.65   28.90
  -3  -1  -6  441.76   31.90
   3   1  -6  462.75   30.70
   3   1  -6  405.46   34.00
  -3   1   6  503.65   31.40
  -3  -1  -6  437.76   34.20
   3   1   6  473.45   30.20
  -3   1  -6  537.85   32.20
  -3  -1   6  492.65   29.70
   3  -1  -6  483.35   35.70
  -4  -1  -6  142.19   21.30
  -4   1   6  121.49   19.20
   4  -1   6  162.08   23.50
  -4  -1  -6  154.78   22.10
   4   1  -6  149.19   21.70
  -4  -1   6  136.49   18.90
  -4   1  -6  162.88   22.10
   4  -1  -6  152.58   22.20
   4   1   6  158.68   21.00
  -4   1  -6  161.48   22.40
   0   2   6   44.30    6.90
   0  -2  -6   36.50    7.40
   0   2  -6   44.80    4.60
   1   2  -6 2127.89   97.59
  -1   2   6 2152.08   98.79
  -1  -2  -6 2093.89   98.89
   1   2  -6 2110.39   97.19
   1   2   6 2312.07   98.69
  -1  -2   6 2205.38   95.79
  -1  -2   6 2213.48   95.99
   1  -2  -6 2331.97   99.99
  -1   2  -6 2384.86   97.59
  -2   2   6  556.74   29.30
  -2   2   6  538.65   30.10
   2   2  -6  563.54   28.60
   2  -2   6  562.84   27.70
  -2  -2  -6  559.34   31.30
  -2  -2  -6  591.54   30.50
   2   2  -6  578.04   29.60
  -2  -2   6  464.45   27.10
  -2   2  -6  484.85   28.90
  -2   2  -6  519.65   29.30
  -2  -2   6  511.25   27.10
   2  -2  -6  517.45   30.90
   2   2   6  495.05   29.20
   3   2  -6   97.99   14.10
  -3  -2  -6   73.69   14.80
   3   2  -6  102.39   14.90
  -3  -2  -6   99.29   16.30
  -3   2   6   87.59   14.10
  -3   2   6  100.49   14.80
   3  -2  -6   66.39   14.40
  -3  -2   6   88.89   12.90
   3   2   6   87.89   14.40
  -3   2  -6   65.29   14.00
  -4  -2  -6  210.68   31.50
  -4   2   6  279.87   26.80
  -4   2   6  218.48   28.60
   4   2  -6  204.98   27.80
   4   2  -6  146.29   23.10
   4  -2  -6  240.08   29.90
   4   2   6  230.48   27.70
  -4  -2   6  216.08   25.90
  -4  -2   6  237.38   26.80
  -4   2  -6  200.68   30.60
  -4   2  -6  236.78   31.60
   0  -3  -6   66.39    9.30
   0   3   6   59.69    8.50
  -1  -3  -6  601.34   30.70
   1   3  -6  593.54   27.60
  -1   3   6  531.35   30.10
   1   3  -6  599.64   27.90
   1   3   6  581.34   30.20
  -1   3  -6  573.34   28.20
  -1   3  -6  584.94   27.80
   1  -3  -6  598.84   31.80
   2   3  -6  224.38   17.80
  -2   3   6  216.88   18.80
  -2   3   6  213.58   18.50
  -2  -3  -6  204.58   19.20
   2   3  -6  230.08   17.60
  -2  -3   6  245.88   15.50
  -2   3  -6  284.87   19.10
  -2   3  -6  267.57   17.80
   2   3   6  256.87   19.30
  -2  -3   6  250.67   15.30
   2  -3  -6  256.77   20.20
   3   3  -6  649.24   37.00
  -3   3   6  641.64   37.60
  -3  -3  -6  534.35   52.19
  -3   3   6  548.65   44.30
   3   3  -6  638.74   37.50
   3   3   6  609.84   36.90
  -3  -3   6  637.04   33.60
  -3   3  -6  619.04   36.60
  -3  -3   6  596.24   33.80
  -4  -3  -6   88.49   19.20
  -4   3   6   71.69   18.00
  -4   3   6   60.69   17.70
   4   3  -6   73.39   17.30
  -4  -3  -6   65.39   19.30
   4   3  -6   75.39   19.80
  -4   3  -6   60.49   18.00
   4   3   6   66.29   17.90
  -4  -3   6   88.09   16.10
  -4   3  -6   40.00   17.60
   4  -3  -6   81.59   18.60
  -4  -3   6   43.40   15.50
   0  -4  -6 1395.46   64.79
   0   4   6 1357.66   64.19
  -1  -4  -6   43.60    9.00
   1   4  -6   44.30    6.60
  -1   4   6   46.20    8.90
   1   4  -6   49.30    6.70
   1   4   6   35.10    8.70
  -1   4  -6   39.20    5.40
  -1   4  -6   36.50    5.40
   1  -4  -6   42.40    9.20
  -2  -4  -6 1130.79   54.59
   2   4  -6 1103.39   52.29
   2   4  -6 1137.19   52.49
  -2   4   6 1061.19   53.79
  -2   4   6 1112.49   54.49
  -2   4  -6 1112.19   52.69
  -2  -4   6 1142.29   50.09
  -2   4  -6 1157.48   52.99
   2   4   6  937.01   53.39
   2  -4  -6 1111.39   54.89
   3   4  -6  296.47   25.50
  -3  -4  -6  300.37   32.80
   3   4  -6  310.07   29.80
  -3   4   6  336.57   27.40
  -3   4   6  327.67   27.30
  -3   4  -6  361.06   26.70
  -3  -4   6  383.36   23.60
  -3  -4   6  402.56   23.20
  -4  -4  -6    8.00   17.20
  -4  -4  -6    2.40   16.60
   4   4  -6   26.50   17.50
   4   4  -6   20.40   16.80
  -4   4   6   27.40   17.10
  -4   4   6    3.60   16.90
   4  -4  -6   43.40   18.00
   4   4   6   48.00   18.60
  -4  -4   6   33.70   15.90
  -4   4  -6   25.30   16.80
  -4   4  -6   31.70   18.00
   0   5   6  851.11   42.50
   0  -5  -6  826.72   42.70
  -1  -5  -6  492.05   26.50
  -1   5   6  458.75   26.40
   1   5  -6  452.85   20.90
   1   5  -6  442.96   20.80
   1  -5  -6  389.86   25.80
  -1   5  -6  388.26   21.00
   1   5   6  386.56   25.80
  -1   5  -6  385.46   21.00
   2   5  -6  321.57   22.90
   2   5  -6  328.47   23.00
  -2  -5  -6  430.06   26.80
  -2  -5  -6  352.86   26.10
  -2   5   6  394.06   25.50
  -2  -5   6  409.76   19.50
  -2   5  -6  401.96   23.70
  -2   5  -6  431.46   24.40
  -2  -5   6  415.06   19.80
   2  -5  -6  430.16   27.30
   3   5  -6  241.08   36.30
  -3   5   6  237.58   25.40
   3   5  -6  257.47   23.20
  -3   5   6  287.47   26.00
  -3  -5  -6  286.07   29.10
  -3   5  -6  259.37   23.50
  -3  -5   6  265.07   20.10
  -3  -5   6  265.57   19.40
  -3   5  -6  257.57   36.40
   3   5   6  254.57   25.90
  -4  -5  -6  348.17   36.10
   4   5  -6  421.36   37.30
   4   5  -6  387.86   33.40
  -4   5   6  432.26   35.00
  -4  -5  -6  356.56   37.10
  -4   5   6  371.26   37.70
  -4   5  -6  360.86   35.60
  -4   5  -6  385.06   37.60
  -4  -5   6  316.07   34.00
   4   5   6  313.27   34.40
  -4  -5   6  376.86   28.40
   4  -5  -6  347.77   37.10
   0   6   6  986.00   50.29
   0  -6  -6 1011.40   49.90
   1   6  -6  881.61   40.50
   1   6  -6  893.41   40.30
  -1  -6  -6  893.81   45.50
  -1   6   6  878.91   45.40
  -1   6  -6  902.61   40.60
   1  -6  -6  853.91   45.40
   1   6   6  893.11   45.90
  -2  -6  -6  312.57   25.60
  -2  -6  -6  312.77   24.80
  -2   6   6  320.47   24.80
   2   6  -6  333.07   21.20
   2   6  -6  319.87   21.00
   2   6   6  321.57   25.10
  -2   6  -6  310.97   21.10
   2  -6  -6  328.57   25.00
  -2   6  -6  306.17   21.70
  -3   6   6  158.68   23.40
  -3  -6  -6  137.69   19.60
   3   6  -6  141.39   20.50
  -3   6  -6  118.09   17.00
   3   6   6   78.49   17.90
  -3  -6   6  119.99   14.60
  -3  -6   6  117.99   15.40
  -3   6  -6  141.19   19.90
   4   6  -6   64.29   19.80
  -4  -6  -6  107.99   22.60
   4   6  -6   87.69   20.00
  -4   6   6   75.99   21.60
  -4  -6  -6  127.09   23.30
  -4   6   6   89.19   20.80
  -4  -6   6   98.49   16.00
   4   6   6   95.29   22.00
  -4   6  -6   88.59   20.20
   4  -6  -6   87.39   21.40
  -4   6  -6  105.99   21.30
  -4  -6   6   84.29   14.60
   0  -7  -6  575.84   34.20
   0   7   6  608.84   34.70
  -1  -7  -6  625.04   35.40
   1   7  -6  589.14   29.40
   1   7  -6  598.44   29.00
   1  -7  -6  660.13   35.40
  -1   7  -6  606.34   29.30
   2   7  -6  212.78   18.00
   2   7  -6  207.98   18.30
  -2  -7  -6  212.58   23.30
  -2   7   6  218.78   22.60
  -2  -7  -6  187.98   21.80
   2   7   6  264.87   24.50
   2  -7  -6  254.47   22.90
  -2   7  -6  260.07   18.80
  -2   7  -6  256.57   19.50
   3   7  -6  232.98   23.00
   3   7  -6  234.28   23.60
  -3   7   6  241.48   26.90
  -3  -7  -6  247.18   27.50
  -3  -7   6  184.48   16.80
  -3  -7   6  183.48   15.60
  -3   7  -6  182.48   23.50
  -3   7  -6  178.58   24.50
   3   7   6  180.08   23.00
  -4   7   6   -2.10   20.10
   4   7  -6    3.90   17.00
  -4  -7  -6   16.80   21.00
  -4  -7  -6   16.10   19.80
  -4   7   6   26.80   19.00
   4   7  -6    7.80   17.90
  -4   7  -6   18.40   17.70
   4   7   6   13.70   20.60
  -4   7  -6   35.30   19.90
   4  -7  -6   -0.20   19.20
  -4  -7   6   28.10   11.70
  -4  -7   6   24.30   13.80
   0  -8  -6 1023.20   52.29
   0   8  -6 1030.50   45.60
   1   8  -6  248.68   15.30
  -1   8   6  221.38   22.80
   1   8  -6  241.88   16.10
  -1  -8  -6  263.67   22.70
  -1   8  -6  261.37   15.70
   1  -8  -6  280.97   22.90
   1   8   6  287.37   24.30
   2   8  -6  244.68   19.30
  -2  -8  -6  231.48   27.10
  -2  -8  -6  289.87   26.80
   2   8  -6  258.37   19.90
  -2   8   6  257.67   24.80
   2  -8  -6  226.68   23.70
  -2   8  -6  221.98   19.90
  -2   8  -6  235.28   19.80
   2   8   6  265.77   28.10
   3   8  -6  127.69   17.50
   3   8  -6  118.59   17.00
  -3  -8  -6   91.79   19.60
  -3   8   6  126.99   20.40
  -3  -8  -6  196.18   24.60
  -3  -8   6  139.29   13.00
  -3   8  -6  115.19   17.50
   3   8   6  142.49   21.60
  -3   8  -6  117.79   26.50
  -3  -8   6  134.69   12.30
  -4   8   6  120.29   25.90
  -4   8   6  124.29   24.50
   4   8  -6  114.39   22.40
   4   8  -6   92.99   21.30
  -4  -8  -6  113.99   25.30
  -4  -8  -6  115.99   23.40
  -4   8  -6   66.09   21.90
  -4  -8   6   93.69   15.70
   4   8   6   94.79   25.10
  -4   8  -6   87.09   21.90
   4  -8  -6   80.59   22.80
   0  -9  -6   60.09   12.60
   0   9   6   37.20   13.60
   0   9  -6   47.30    6.10
   1   9  -6  593.24   28.50
  -1   9   6  540.95   35.80
  -1  -9  -6  554.44   34.60
   1   9  -6  566.44   29.40
  -1   9  -6  549.35   28.50
   1  -9  -6  569.54   34.30
   1   9   6  549.05   37.10
   2   9  -6  248.98   20.80
  -2  -9  -6  222.98   27.20
  -2   9   6  269.17   26.60
   2   9  -6  249.97   21.60
  -2   9  -6  285.57   21.30
   2  -9  -6  281.57   27.10
   2   9   6  278.07   30.80
  -2   9  -6  269.17   21.70
   3   9  -6   47.70   25.10
  -3   9   6   89.79   19.30
   3   9  -6   70.09   15.20
  -3  -9  -6   74.49   19.20
  -3   9   6   50.79   18.70
  -3  -9  -6   78.99   19.90
  -3   9  -6   72.39   18.00
   3  -9  -6   75.69   18.40
  -3   9  -6   71.69   16.80
   3   9   6   70.89   20.40
   0  10   6  415.86   31.50
   0 -10  -6  391.06   28.50
   0  10  -6  409.96   22.30
  -1  10   6  433.46   33.20
  -1 -10  -6  474.15   31.90
   1  10  -6  466.15   26.60
   1 -10  -6  430.76   33.40
   1  10   6  475.45   35.20
  -1  10  -6  458.65   25.10
   2  10  -6   57.19   11.70
  -2 -10  -6   43.60   15.80
  -2 -10  -6   59.19   19.00
   2  10  -6   61.59   11.90
  -2  10   6   44.80   16.00
  -2  10  -6   51.69   11.90
   2  10   6   70.49   19.20
  -3 -10  -6  154.88   21.90
  -3 -10  -6  140.79   22.40
  -3  10   6  130.19   22.20
   3  10  -6  133.09   19.10
   3  10  -6  162.88   19.70
  -3  10   6  163.18   25.80
  -3  10  -6   83.49   18.20
   3 -10  -6   70.09   19.20
   3  10   6  106.09   24.20
  -3  10  -6   90.39   18.10
   0  11  -6  683.83   35.00
  -1  11   6  130.99   20.10
  -1 -11  -6  154.18   21.90
   1  11  -6  153.18   17.50
   1 -11  -6   97.49   16.30
   1  11   6  108.99   20.70
  -1  11  -6  101.79   14.50
  -2 -11  -6  195.08   27.60
  -2  11   6  190.38   28.00
  -2  11  -6  129.69   19.40
   2  11   6  182.88   24.90
   3  11  -6  148.19   20.00
  -3  11   6  129.29   24.20
  -3 -11  -6  158.38   24.20
   3  11  -6  113.69   19.30
  -3 -11  -6  141.69   23.50
  -3  11   6  141.29   27.40
   3 -11  -6  129.99   21.90
   3  11   6  157.08   27.50
  -3  11  -6  180.78   26.70
  -3  11  -6  160.38   21.00
   0  12   6  305.87   32.10
   0  12  -6  300.37   21.70
   0 -12  -6  263.47   25.80
  -1  12   6  144.29   22.90
  -1 -12  -6  232.48   25.10
   1  12  -6  230.18   21.10
   1 -12  -6  196.28   23.60
  -1  12  -6  193.78   18.30
   1  12   6  133.99   24.00
  -2 -12  -6  184.48   25.80
  -2  12   6  112.89   22.20
  -2 -12  -6  143.69   20.90
  -2  12  -6  174.58   22.00
   2 -12  -6  227.88   25.40
   2  12   6  162.68   25.90
  -3 -12  -6  162.18   25.20
  -3 -12  -6  107.99   23.00
  -3  12   6  139.09   26.40
   3  12  -6  143.09   20.80
  -3  12   6  145.59   30.00
   3  12   6   82.69   27.70
  -3  12  -6  130.69   20.30
   3 -12  -6  122.89   22.80
  -3  12  -6  121.09   20.70
   0  13  -6    6.10   10.20
   0 -13  -6    1.70   13.50
   0  13   6   21.30   18.90
  -1  13   6  189.58   26.30
   1  13  -6  236.18   24.50
  -1  13  -6  271.87   22.50
   1  13   6  308.57   36.00
  -2 -13  -6   30.90   17.60
  -2  13   6   12.30   19.40
   2  13  -6   72.29   15.20
  -2 -13  -6   47.50   19.10
   2  13   6   24.30   22.20
   2 -13  -6   57.19   17.50
  -2  13  -6   41.30   13.40
   0  14   6  278.67   35.70
   0  14  -6  287.37   25.60
  -1 -14  -6   70.69   18.80
  -1  14   6  112.59   23.10
   1  14   6  108.89   25.60
   1 -14  -6  162.88   23.00
  -2  14   6  166.98   28.00
  -2 -14  -6  247.08   33.40
  -2 -14  -6  194.18   24.30
   2  14  -6  199.78   31.10
   2  14   6  198.38   32.70
  -2  14  -6  175.18   29.40
   2 -14  -6  229.48   31.00
   0 -15  -6  355.66   30.10
   0  15   6  253.77   37.70
  -1 -15  -6   51.09   18.70
  -1 -15  -6   47.90   17.70
  -1  15   6   90.79   24.30
   1  15  -6   64.99   16.30
   1  15   6   62.89   26.60
  -1  15  -6   63.59   14.40
   1 -15  -6   75.69   18.80
   0 -16  -6   36.30   17.80
   0  16  -6   46.50   15.20
   0  16   6   28.10   25.20
   0   0  -7    0.10    4.80
   0   0   7    0.40    3.30
   1   0  -7 1394.06   63.79
   1   0   7 1391.26   61.79
  -1   0   7 1329.97   62.09
  -1   0   7 1388.36   61.69
  -1   0  -7 1382.26   62.79
   2   0   7  356.56   21.60
  -2   0  -7  339.87   22.30
  -2   0  -7  310.37   23.90
  -2   0   7  353.36   21.50
   2   0  -7  332.17   22.70
  -2   0   7  349.07   21.10
   3   0  -7  248.88   24.70
  -3   0  -7  200.88   24.20
  -3   0  -7  214.68   24.30
  -3   0   7  238.78   22.10
   3   0   7  227.58   21.70
   4   0   7   42.30   16.60
  -4   0  -7   27.80   17.80
  -4   0   7   36.70   15.30
  -4   0  -7   38.10   18.00
   4   0  -7   51.09   18.80
   0   1   7   33.80    5.70
   0  -1  -7   33.00    7.10
   0   1  -7   29.30    5.20
  -1   1   7    4.50    5.80
   1   1  -7    6.40    5.80
  -1  -1  -7    5.90    6.10
   1  -1   7    2.80    3.80
  -1   1   7    4.60    5.20
   1  -1  -7   -6.20    6.60
  -1  -1   7    2.10    3.40
   1   1   7   -2.80    5.20
  -1  -1   7    2.40    3.80
  -1   1  -7    3.50    5.20
  -2  -1  -7  298.97   21.60
  -2  -1  -7  317.47   20.60
  -2   1   7  303.77   19.30
  -2   1   7  299.37   20.00
   2  -1   7  323.37   18.20
   2   1  -7  273.27   20.20
   2   1   7  231.88   19.10
   2  -1  -7  225.18   21.10
  -2  -1   7  249.68   17.50
  -2   1  -7  226.18   18.80
  -2  -1   7  250.67   17.70
  -2   1  -7  220.08   19.40
  -3   1   7  212.68   23.20
   3   1  -7  182.98   25.60
  -3   1   7  233.28   22.80
  -3  -1  -7  229.48   24.20
   3  -1   7  319.87   21.30
  -3  -1  -7  220.98   25.20
   3  -1  -7  265.97   25.00
  -3   1  -7  278.57   24.50
   3   1   7  275.67   22.60
  -3  -1   7  307.17   22.50
  -3   1  -7  270.17   24.70
  -4  -1  -7  262.37   31.90
   4  -1   7  279.77   28.60
  -4   1   7  253.57   30.10
   4   1  -7  248.48   32.90
  -4  -1  -7  246.68   31.30
  -4   1  -7  263.77   31.30
   4   1   7  281.67   30.90
  -4  -1   7  286.17   28.40
  -4   1  -7  305.47   33.70
  -4  -1   7  321.47   36.00
   4  -1  -7  295.07   33.70
   0   2   7 2035.10   90.59
   0  -2  -7 2021.70   91.79
   0   2  -7 2022.90   88.59
   1   2  -7  388.46   20.40
  -1   2   7  374.06   22.00
  -1  -2  -7  374.96   22.50
   1  -2  -7  330.27   22.90
   1   2   7  374.26   21.30
  -1   2  -7  374.66   19.60
  -2   2   7  583.54   32.40
   2   2  -7  565.24   32.10
  -2   2   7  582.74   32.90
   2  -2   7  580.44   30.00
   2   2  -7  585.04   32.00
  -2  -2  -7  579.84   33.20
   2   2   7  611.54   32.40
  -2  -2   7  627.44   30.00
  -2  -2   7  643.84   30.30
  -2   2  -7  624.14   32.50
  -2   2  -7  612.94   32.40
   2  -2  -7  588.54   33.90
  -3   2   7   82.59   14.40
  -3  -2  -7   91.09   15.60
   3   2  -7   85.09   14.30
  -3   2   7  115.09   15.60
  -3   2  -7   71.29   15.30
   3  -2  -7   79.59   15.70
  -3   2  -7   75.19   14.90
  -3  -2   7   66.79   12.00
   3   2   7   59.99   13.90
  -4   2   7    2.40   15.30
  -4   2   7   37.50   15.20
  -4  -2  -7   13.60   16.70
  -4  -2  -7    1.50   17.20
   4   2  -7   19.50   17.30
  -4  -2   7    4.70   13.80
   4  -2  -7    8.10   17.20
   4   2   7   -1.40   16.30
  -4   2  -7   13.30   16.80
  -4  -2   7   14.10   14.60
  -4   2  -7   22.10   17.60
   0  -3  -7  256.17   18.60
   0   3   7  251.37   17.30
   0   3  -7  260.77   12.40
   1   3  -7  509.25   26.00
  -1   3   7  506.85   28.70
  -1  -3  -7  538.45   29.30
   1   3  -7  543.55   25.70
   1  -3  -7  551.24   30.50
   1   3   7  508.05   28.60
  -1   3  -7  555.34   26.00
  -2  -3  -7  146.89   17.40
  -2   3   7  133.09   15.60
   2   3  -7  134.39   14.30
  -2   3   7  184.98   16.10
   2   3  -7  145.89   15.30
  -2  -3   7  127.59   11.40
  -2  -3   7  137.39   11.60
   2  -3  -7  117.39   18.00
  -2   3  -7  140.79   15.50
  -2   3  -7  127.09   15.40
  -3   3   7  196.28   23.30
  -3   3   7  158.88   30.20
  -3  -3  -7  216.58   26.20
  -3   3  -7  275.57   25.10
   3  -3  -7  255.87   25.40
  -3  -3   7  268.07   19.90
  -3   3  -7  228.68   26.80
  -3  -3   7  239.88   20.10
   3   3   7  242.48   23.70
   4   3  -7  259.07   32.30
  -4  -3  -7  252.37   34.70
  -4   3   7  267.47   30.00
  -4  -3  -7  264.17   32.20
   4   3  -7  292.17   32.40
  -4   3   7  247.98   32.10
  -4  -3   7  314.87   28.60
   4   3   7  326.77   32.40
  -4   3  -7  288.87   33.50
   4  -3  -7  283.47   33.30
  -4   3  -7  312.77   32.50
   0   4   7  367.86   22.80
   0  -4  -7  375.16   24.00
  -1  -4  -7 2289.77  104.99
  -1   4   7 2181.18  104.39
   1   4  -7 2208.18  100.99
   1   4  -7 2239.88  101.19
   1  -4  -7 2398.56  105.89
  -1   4  -7 2349.96  101.59
  -1   4  -7 2370.56  101.39
   1   4   7 2431.46  104.59
  -2   4   7  109.79   15.70
   2   4  -7  102.09   13.30
  -2  -4  -7   99.19   13.50
   2   4  -7   95.79   13.60
   2  -4  -7   61.19   12.80
  -2   4  -7   67.49   10.10
  -2   4  -7   76.19   10.80
  -2  -4   7   74.59    8.20
  -2  -4   7   68.39    8.40
   3   4  -7  301.67   27.00
  -3   4   7  360.36   28.60
  -3  -4  -7  346.57   32.70
  -3   4  -7  395.96   28.90
   3   4   7  386.26   32.30
  -3   4  -7  357.76   30.90
  -3  -4   7  400.56   24.10
  -3  -4   7  422.06   24.40
  -4   4   7   14.60   17.00
  -4  -4  -7   23.20   19.30
  -4   4   7   28.60   17.60
   4   4  -7   45.80   18.70
  -4  -4  -7   35.30   19.10
   4   4  -7    8.70   15.80
   4  -4  -7   25.00   18.70
   4   4   7   58.69   19.80
  -4  -4   7    9.30   19.30
  -4   4  -7   32.00   18.40
  -4   4  -7   19.30   17.40
  -4  -4   7   23.80   13.30
   0   5   7  282.67   20.70
   0  -5  -7  274.27   21.10
   1   5  -7  453.95   20.60
  -1   5   7  429.86   26.30
  -1  -5  -7  456.35   26.80
   1   5  -7  460.25   20.50
  -1   5  -7  367.86   20.70
   1  -5  -7  363.66   26.40
   1   5   7  386.66   25.90
  -1   5  -7  368.66   20.60
  -2  -5  -7  166.18   21.90
   2   5  -7  173.28   16.30
  -2   5   7  160.38   20.40
  -2  -5  -7  191.58   21.20
   2   5  -7  154.38   15.70
   2   5   7  178.78   20.10
  -2   5  -7  202.18   17.10
  -2   5  -7  178.48   16.70
   2  -5  -7  220.78   22.30
  -3  -5  -7  223.78   26.60
   3   5  -7  196.98   29.00
   3   5  -7  240.78   23.20
  -3   5   7  191.08   28.90
  -3   5   7  252.17   26.70
  -3  -5   7  191.08   16.90
  -3  -5   7  184.48   17.20
   3   5   7  188.18   24.80
  -3   5  -7  192.58   21.90
  -3   5  -7  180.98   23.00
  -4  -5  -7  101.99   23.20
  -4   5   7  106.19   21.20
   4   5  -7   86.09   19.70
  -4  -5  -7   91.09   22.00
  -4   5   7  129.29   22.90
   4   5  -7  125.59   21.30
  -4   5  -7  114.39   21.50
  -4   5  -7  119.79   21.60
  -4  -5   7   73.99   15.30
  -4  -5   7   94.59   14.90
   4  -5  -7   84.19   21.80
   4   5   7   94.79   21.10
   0   6   7  883.01   46.70
   0  -6  -7  934.91   47.40
   1   6  -7  490.75   24.60
  -1   6   7  521.35   30.40
   1   6  -7  489.85   24.40
  -1  -6  -7  519.75   31.70
  -1   6  -7  532.75   25.10
   1   6   7  516.15   30.80
  -1   6  -7  509.85   25.10
   1  -6  -7  530.35   31.60
  -2  -6  -7  833.32   46.30
  -2  -6  -7  781.02   46.80
   2   6  -7  828.72   41.60
   2   6  -7  796.22   41.60
  -2   6   7  758.22   45.20
   2   6   7  932.51   47.20
  -2   6  -7  884.81   42.50
   2  -6  -7  852.81   47.30
  -2   6  -7  879.51   42.20
  -3   6   7    8.30   14.80
   3   6  -7   36.80   13.30
   3   6  -7   32.50   12.90
  -3  -6  -7   -2.80   15.10
  -3   6  -7   47.20   13.70
  -3  -6   7   45.10    8.50
  -3  -6   7   44.80    8.40
  -3   6  -7   55.69   14.10
   3   6   7   29.80   16.00
   4   6  -7   19.10   18.30
  -4   6   7   50.59   21.00
  -4  -6  -7   47.40   21.70
   4   6  -7   59.79   19.00
  -4  -6  -7   61.09   21.70
  -4   6   7   70.19   21.20
  -4   6  -7   72.49   19.20
  -4   6  -7   85.19   21.00
   4   6   7    2.10   19.80
   4  -6  -7   69.09   22.10
  -4  -6   7   52.19   14.00
   0   7   7  215.38   20.90
   1   7  -7   30.40    5.10
  -1  -7  -7   22.00   11.20
   1   7  -7   29.70    5.30
   1  -7  -7   30.60   11.40
  -1   7  -7   30.60    5.50
  -2  -7  -7  851.51   47.80
   2   7  -7  861.31   43.00
   2   7  -7  870.41   43.20
  -2  -7  -7  884.31   49.20
  -2   7   7  841.92   47.50
   2   7   7  852.11   48.50
   2  -7  -7  916.61   48.80
  -2   7  -7  873.51   43.70
  -2   7  -7  844.02   43.10
  -3  -7  -7  138.39   21.40
  -3   7   7  128.59   20.50
  -3   7   7  203.48   24.90
   3   7  -7  182.28   23.40
   3   7  -7  176.98   22.40
   3   7   7  126.69   20.80
  -3   7  -7  146.59   18.00
  -3  -7   7  139.49   12.20
  -3  -7   7  142.39   12.40
  -3   7  -7  119.49   17.80
   4   7  -7  407.16   37.10
  -4  -7  -7  306.87   37.90
  -4  -7  -7  345.87   39.80
  -4   7   7  394.96   40.50
  -4   7   7  365.06   41.60
   4   7  -7  337.77   35.90
   4   7   7  360.66   39.60
   4  -7  -7  372.56   40.70
  -4   7  -7  345.87   36.50
  -4   7  -7  310.47   35.50
   0  -8  -7  202.68   22.30
   0   8   7  229.78   23.10
   0   8  -7  194.98   10.10
   1   8  -7  399.26   21.30
  -1   8   7  403.06   29.60
  -1  -8  -7  445.26   29.60
   1   8  -7  412.56   21.80
  -1   8  -7  433.36   21.80
   1  -8  -7  431.16   29.80
   1   8   7  408.96   30.80
  -2  -8  -7   80.99   29.60
  -2   8   7  130.99   21.50
   2   8  -7  128.39   16.40
   2   8  -7  133.29   16.40
  -2  -8  -7  137.69   18.70
  -2   8  -7  166.78   17.20
  -2   8  -7  192.88   18.20
   2   8   7  120.99   23.60
   2  -8  -7  186.18   22.90
  -3   8   7   74.99   19.30
  -3   8   7  119.39   21.10
   3   8  -7  103.49   16.20
   3   8  -7  103.89   16.10
  -3  -8  -7   96.69   19.90
  -3  -8  -7  115.19   21.50
   3   8   7  114.29   21.80
   3  -8  -7  128.19   19.90
  -3   8  -7  117.99   17.30
  -3   8  -7  120.19   28.00
   0  -9  -7   40.50   13.10
   0   9   7   37.90   14.20
   0   9  -7   35.70    4.80
  -1   9   7  309.97   27.20
  -1  -9  -7  236.98   33.80
   1   9  -7  267.87   17.50
   1   9  -7  287.37   16.80
  -1   9  -7  282.87   17.30
   1   9   7  283.97   29.30
   2   9  -7   16.90    9.50
  -2   9   7   23.70   15.10
   2   9  -7   13.60    9.30
  -2  -9  -7   14.30   15.70
   2   9   7   13.20   15.90
  -2   9  -7   17.80    9.60
  -2   9  -7    8.50    9.40
  -3   9   7  736.93   48.40
  -3  -9  -7  710.73   48.50
  -3   9   7  779.72   50.79
   3   9  -7  735.63   44.30
  -3  -9  -7  688.03   48.10
  -3   9  -7  774.02   45.50
  -3   9  -7  783.62   45.10
   3  -9  -7  780.72   49.50
   3   9   7  780.32   52.29
   0  10   7  628.74   41.70
   0  10  -7  625.14   30.50
   1  10  -7  469.85   26.10
  -1  10   7  465.75   35.20
  -1 -10  -7  473.85   33.10
   1 -10  -7  473.95   32.90
  -1  10  -7  466.55   25.40
   1  10   7  492.95   37.10
   2  10  -7  257.47   21.10
  -2  10   7  252.67   30.30
   2  10  -7  280.07   22.50
  -2 -10  -7  214.98   28.20
  -2  10  -7  247.08   22.20
   2  10   7  240.58   30.80
  -3 -10  -7  138.09   23.40
   3  10  -7  132.89   19.50
  -3  10   7  111.49   22.70
   3  10  -7  129.89   18.40
  -3 -10  -7  106.99   22.20
  -3  10   7   96.19   24.60
   3 -10  -7  133.09   22.60
  -3  10  -7  137.99   18.70
   3  10   7  132.99   25.50
  -3  10  -7  119.09   18.70
   0  11   7    7.10   15.10
   0  11  -7   -3.40    6.50
   0 -11  -7   -9.00   12.10
   1  11  -7  156.58   16.30
  -1  11   7  176.78   22.10
  -1 -11  -7  145.99   19.60
   1  11   7  163.18   23.10
   1 -11  -7  141.19   20.70
  -1  11  -7  153.48   15.20
   2  11  -7  465.25   31.20
   2  11  -7  533.75   30.50
  -2 -11  -7  461.95   36.30
  -2 -11  -7  494.15   39.20
  -2  11   7  498.05   38.90
  -2  11  -7  524.25   32.30
   2  11   7  485.55   43.00
   3  11  -7   45.10   16.70
  -3  11   7   51.69   25.30
  -3 -11  -7   45.50   21.00
  -3  11   7   15.60   20.00
  -3 -11  -7   36.00   20.20
   3  11  -7   45.50   15.90
   3 -11  -7   25.10   19.10
  -3  11  -7   16.10   16.20
  -3  11  -7   59.19   17.40
   3  11   7   50.69   24.10
   0  12  -7  496.25   27.70
   0  12   7  444.56   38.40
   1  12  -7  468.05   29.50
  -1  12   7  458.35   39.80
  -1  12  -7  518.15   28.50
   1  12   7  520.65   42.80
  -2 -12  -7  136.79   22.10
  -2 -12  -7  149.29   22.20
  -2  12   7  178.68   24.30
   2 -12  -7  184.68   27.70
   2  12   7  123.79   25.10
  -2  12  -7  158.58   20.30
  -2  12  -7  137.09   21.30
   0  13   7  147.79   24.60
   0  13  -7  152.78   18.70
  -1  13   7   81.69   21.70
   1  13  -7   81.69   13.70
   1  13   7  117.19   24.80
  -1  13  -7  108.79   13.30
   1 -13  -7  171.78   23.50
  -2  13   7  235.78   35.00
  -2 -13  -7  238.68   33.30
  -2 -13  -7  221.18   29.90
   2  13  -7  216.28   24.60
   2 -13  -7  210.38   25.20
  -2  13  -7  208.78   24.00
   2  13   7  177.18   29.70
   0  14   7  461.05   42.80
   0 -14  -7  542.15   37.90
   0  14  -7  464.35   31.40
  -1 -14  -7  272.97   30.80
  -1 -14  -7  325.27   32.80
  -1  14   7  318.67   37.60
   1 -14  -7  274.77   30.00
  -1  14  -7  196.68   23.00
   1  14   7  274.67   38.80
  -2  14   7  178.08   29.70
  -2 -14  -7  247.78   34.90
   2  14  -7  242.88   27.00
  -2 -14  -7  279.77   34.80
   2  14   7  150.18   31.50
   2 -14  -7  246.58   34.80
   0 -15  -7  -13.90   15.10
   0  15   7  -16.10   21.40
  -1 -15  -7   68.69   19.50
  -1  15   7   91.39   25.60
  -1 -15  -7   78.39   20.90
   1  15   7   53.59   26.30
   1 -15  -7   84.09   20.20
   0   0  -8 1123.29   53.49
   0   0   8 1164.78   51.09
  -1   0  -8  892.31   42.70
  -1   0   8  876.61   40.80
  -1   0   8  887.71   41.40
   1   0   8  913.61   41.10
   1   0  -8  850.51   43.70
  -2   0   8    5.80    7.70
  -2   0   8    8.60    7.30
   2   0   8   -0.60    7.60
   2   0  -8   10.40    9.30
  -2   0  -8    5.30    8.70
  -2   0  -8   -3.70    9.40
   3   0   8  700.43   38.40
   3   0  -8  649.14   40.80
  -3   0  -8  678.23   40.60
  -3   0  -8  618.84   55.59
  -3   0   8  757.12   39.00
  -3   0   8  711.03   38.70
   4   0  -8    7.70   17.80
  -4   0   8    8.60   15.50
  -4   0  -8   17.60   18.20
  -4   0  -8   29.70   18.50
   4   0   8  -13.90   15.00
   0   1  -8 3081.39  135.29
   0   1   8 3034.80  134.89
   0  -1  -8 3126.89  136.99
  -1   1   8 1040.80   46.80
   1   1  -8 1036.10   47.60
  -1   1   8 1063.79   46.10
  -1  -1  -8 1071.29   47.60
   1  -1   8 1079.29   44.60
  -1   1  -8  923.81   46.10
   1  -1  -8  880.71   48.20
  -1  -1   8  909.91   44.00
  -1  -1   8  930.51   44.30
   1   1   8  927.11   46.00
  -2  -1  -8  698.53   36.30
  -2   1   8  650.83   34.30
  -2   1   8  644.34   34.50
  -2  -1  -8  685.13   36.90
   2   1  -8  654.23   36.20
   2  -1   8  637.04   33.40
  -2   1  -8  677.63   36.60
  -2  -1   8  649.43   33.50
   2   1   8  698.53   35.20
  -2  -1   8  664.23   33.20
   2  -1  -8  647.94   36.80
  -2   1  -8  655.13   35.10
  -3  -1  -8  425.86   30.60
  -3   1   8  409.66   28.80
   3   1  -8  399.36   30.60
  -3   1   8  388.26   29.00
  -3   1  -8  401.96   30.40
  -3   1  -8  395.66   30.60
  -3  -1   8  410.46   27.20
   3  -1  -8  411.96   31.00
   3   1   8  406.86   28.10
   4   1  -8  106.49   22.20
  -4   1   8  104.29   19.10
  -4   1   8  111.79   17.10
  -4  -1  -8   82.59   20.30
  -4  -1  -8   91.89   21.60
   4  -1   8  126.89   19.40
  -4   1  -8   78.89   20.40
  -4  -1   8   86.59   17.80
   4  -1  -8   70.19   20.80
  -4  -1   8   92.09   18.60
   4   1   8  100.59   20.10
  -4   1  -8   83.39   20.30
   0  -2  -8   13.40    8.40
   0   2  -8   14.10    4.70
   0   2   8   10.00    6.40
   1   2  -8  151.08   13.30
  -1  -2  -8  157.78   14.90
  -1   2   8  182.78   14.90
  -1   2  -8  127.59   11.90
   1  -2  -8  145.49   16.40
   1   2   8  146.49   13.90
  -2   2   8  664.73   35.10
  -2  -2  -8  686.33   36.30
   2  -2   8  640.54   32.30
   2   2  -8  649.83   35.00
  -2   2   8  648.64   35.00
   2   2  -8  668.03   34.40
  -2  -2   8  654.73   32.20
   2  -2  -8  649.54   37.70
  -2   2  -8  612.64   34.70
   2   2   8  622.64   34.60
  -2  -2   8  668.23   31.90
  -2   2  -8  653.33   34.30
   3   2  -8  262.47   25.30
  -3  -2  -8  252.07   29.00
  -3   2   8  265.07   23.40
  -3  -2  -8  296.37   27.30
  -3   2   8  235.48   23.60
   3   2  -8  262.97   23.60
  -3  -2   8  246.08   21.00
  -3   2  -8  230.08   25.00
   3   2   8  223.58   24.90
   3  -2  -8  242.68   26.50
  -3   2  -8  250.27   26.10
  -4  -2  -8  606.94   45.30
  -4   2   8  665.53   41.30
   4   2  -8  653.43   45.30
  -4  -2  -8  645.44   44.70
  -4   2   8  620.94   42.60
   4  -2  -8  645.44   45.10
  -4  -2   8  592.24   38.50
  -4   2  -8  575.64   43.30
  -4  -2   8  588.94   38.90
  -4   2  -8  568.94   42.80
   4   2   8  580.34   42.60
   0   3  -8  470.85   22.30
   0   3   8  469.95   26.60
   0  -3  -8  483.05   28.60
  -1   3   8  877.11   44.00
  -1  -3  -8  914.81   44.80
   1   3  -8  898.21   41.00
   1   3  -8  915.61   41.80
  -1   3  -8  860.21   41.20
   1   3   8  846.42   43.30
   1  -3  -8  892.51   45.90
  -2   3   8  155.38   18.10
   2   3  -8  192.68   16.90
  -2  -3  -8  197.78   19.50
   2   3  -8  172.98   15.80
  -2   3   8  155.38   16.70
  -2   3  -8  167.48   16.40
   2  -3  -8  154.28   19.90
  -2  -3   8  141.39   11.30
  -2  -3   8  154.58   11.80
  -2   3  -8  165.68   17.00
  -3   3   8  226.58   24.80
  -3  -3  -8  224.58   26.00
   3   3  -8  242.98   22.40
  -3  -3  -8  194.58   27.10
  -3   3   8  225.08   25.70
   3   3  -8  241.38   24.80
  -3  -3   8  238.18   19.60
  -3   3  -8  212.28   23.70
  -3  -3   8  213.28   19.20
  -3   3  -8  197.98   23.00
   3  -3  -8  223.08   27.40
   4   3  -8   33.50   18.40
  -4   3   8   10.70   16.40
  -4  -3  -8   -1.90   19.50
   4   3  -8   10.60   16.50
  -4  -3  -8   28.70   18.90
  -4   3   8   36.10   18.20
   4   3   8    5.80   17.40
  -4   3  -8   17.70   18.10
   4  -3  -8   -4.20   18.70
  -4  -3   8    3.40   21.00
  -4   3  -8    4.90   16.90
   0  -4  -8  231.88   20.10
   0   4  -8  251.87   11.70
   0   4   8  237.68   18.70
  -1   4   8  378.76   25.80
   1   4  -8  378.66   20.40
  -1  -4  -8  421.46   26.20
   1   4  -8  399.56   21.00
   1  -4  -8  405.36   28.00
  -1   4  -8  423.06   21.00
   1   4   8  430.66   26.00
   2   4  -8  620.74   33.20
  -2  -4  -8  651.83   36.90
  -2  -4  -8  650.63   39.20
   2   4  -8  649.93   33.60
  -2   4   8  642.44   35.50
  -2   4  -8  608.24   33.60
   2  -4  -8  574.34   38.10
  -2   4  -8  615.84   34.00
   2   4   8  668.93   35.40
   3   4  -8  306.77   26.90
   3   4  -8  311.17   26.00
  -3  -4  -8  303.97   30.50
  -3   4   8  321.57   28.00
  -3   4   8  336.27   27.60
   3   4   8  315.17   26.90
  -3   4  -8  287.57   26.90
  -3  -4   8  310.27   20.90
  -3   4  -8  276.77   25.60
  -3  -4   8  289.17   21.00
  -4  -4  -8   70.59   21.90
  -4   4   8   57.89   18.80
  -4   4   8   55.69   19.50
   4   4  -8   34.90   17.30
   4   4  -8   34.50   19.40
  -4  -4  -8   41.40   20.20
   4   4   8   56.29   20.10
  -4   4  -8   35.80   19.10
  -4  -4   8   13.50   13.60
  -4  -4   8   42.50   13.90
   4  -4  -8   51.09   21.40
  -4   4  -8   51.39   18.60
   0   5   8  287.97   22.30
   0  -5  -8  286.97   22.50
  -1  -5  -8 1351.66   65.29
   1   5  -8 1310.87   59.99
  -1   5   8 1323.77   64.69
   1   5  -8 1310.07   59.79
   1  -5  -8 1334.97   66.09
   1   5   8 1446.06   64.89
  -1   5  -8 1369.66   60.19
  -1   5  -8 1304.17   60.29
  -2  -5  -8    0.00   12.60
   2   5  -8    7.50    7.90
   2   5  -8    1.70    7.60
  -2   5   8   -1.70   10.90
  -2   5   8   11.30   10.90
  -2  -5  -8    3.10   13.20
   2   5   8   10.20   11.00
   2  -5  -8   11.00   13.70
  -2   5  -8   21.80    8.70
  -2   5  -8   15.10    8.80
  -3   5   8   12.50   14.70
   3   5  -8   11.40   12.40
   3   5  -8   26.30   13.40
  -3  -5  -8   26.30   17.10
   3   5   8   22.80   15.30
  -3   5  -8   27.30   12.60
  -3  -5   8   19.40    7.60
  -3   5  -8   22.50   12.90
  -3  -5   8   17.20    7.80
  -4  -5  -8   12.10   21.20
   4   5  -8    1.20   17.70
  -4   5   8   23.60   18.80
  -4  -5  -8   18.30   19.90
   4   5  -8   26.20   17.50
  -4   5   8   29.60   19.80
   4   5   8   13.50   19.00
  -4   5  -8   28.70   18.40
  -4   5  -8   46.30   19.00
  -4  -5   8    7.80   12.50
   4  -5  -8   15.30   20.70
   0  -6  -8    2.30    9.90
  -1  -6  -8   98.09   14.70
   1   6  -8  102.89    9.30
   1   6  -8  104.99    9.30
  -1   6  -8  136.89   10.40
  -1   6  -8  130.79   10.40
   1  -6  -8  146.29   19.20
  -2   6   8  342.07   26.20
   2   6  -8  325.97   21.20
  -2  -6  -8  358.36   29.70
   2   6  -8  305.17   21.20
  -2   6  -8  294.07   21.70
  -2   6  -8  298.67   21.30
   2   6   8  258.87   26.00
   3   6  -8  151.58   22.60
   3   6  -8  151.98   22.60
  -3   6   8  142.99   20.70
  -3  -6  -8  147.79   22.00
  -3  -6   8  147.69   12.30
  -3   6  -8  133.79   17.20
  -3  -6   8  133.89   11.80
  -3   6  -8  144.59   21.30
   3   6   8  143.69   20.60
   4   6  -8  249.88   32.30
  -4  -6  -8  273.27   35.70
  -4   6   8  230.48   28.60
  -4  -6  -8  215.08   29.80
  -4   6   8  212.48   27.40
   4   6  -8  227.58   26.60
  -4  -6   8  199.68   22.70
  -4   6  -8  243.58   34.80
  -4   6  -8  187.08   25.10
   4   6   8  216.18   28.80
   4  -6  -8  174.28   27.60
   0  -7  -8 1769.12   87.29
   0   7   8 1918.01   87.29
  -1  -7  -8   24.50   12.30
   1   7  -8   24.60    5.10
  -1   7   8   21.00   11.80
   1   7  -8   19.80    4.80
   1   7   8   37.60   13.00
   1  -7  -8   48.50   13.20
   2   7  -8 1059.59   50.99
  -2   7   8  917.41   69.59
   2   7  -8 1067.39   51.19
  -2  -7  -8 1035.00   62.39
  -2   7  -8 1071.69   51.49
  -2   7  -8 1117.89   51.89
  -3  -7  -8   78.79   18.10
   3   7  -8   23.10   13.40
  -3   7   8   35.10   16.30
   3   7  -8   53.19   14.00
  -3  -7  -8   54.89   19.30
  -3   7   8   34.60   17.20
  -3   7  -8   45.90   14.40
  -3   7  -8   58.89   15.80
   3  -7  -8   88.09   17.60
   3   7   8   52.79   18.50
   0   8   8  142.99   21.90
   0  -8  -8  192.48   21.90
   1   8  -8    7.80    4.90
  -1  -8  -8   24.50   22.30
  -1   8   8    8.60   12.20
   1   8  -8    6.70    5.00
   1   8   8   17.50   13.40
  -1   8  -8   10.50    5.30
   2   8  -8  151.78   16.70
  -2   8   8  142.59   19.90
  -2  -8  -8  149.49   21.20
   2   8  -8  158.68   16.60
  -2   8  -8  139.59   17.80
  -2   8  -8  168.48   17.60
   2   8   8  136.39   19.90
   3   8  -8  226.68   25.20
  -3  -8  -8  211.08   29.90
   3   8  -8  195.98   25.30
  -3  -8  -8  184.98   25.80
  -3   8   8  233.58   29.90
  -3   8   8  184.28   24.80
   3  -8  -8  267.77   30.70
   3   8   8  282.47   33.90
  -3   8  -8  227.78   26.60
   0   9   8  140.59   18.90
   0   9  -8  136.79    8.50
   0  -9  -8  139.69   24.50
   1   9  -8 1483.45   64.79
  -1  -9  -8 1456.85   72.39
   1   9  -8 1495.25   64.49
   1   9   8 1192.48   88.59
  -1   9  -8 1485.55   64.79
   1  -9  -8 1397.96   72.09
  -2  -9  -8   56.49   18.50
   2   9  -8   56.79   10.80
  -2   9   8   59.59   17.20
   2   9  -8   56.09   10.80
  -2   9  -8   62.09   11.50
   2   9   8   67.59   18.60
  -2   9  -8   56.29   11.10
  -3  -9  -8  192.18   25.90
  -3   9   8  196.68   26.70
  -3   9   8  172.08   24.50
  -3  -9  -8  182.68   25.40
   3   9  -8  177.18   25.10
   3  -9  -8  245.98   33.40
   3   9   8  195.08   27.20
  -3   9  -8  201.38   25.30
  -3   9  -8  192.68   25.80
   0  10   8   41.30   16.20
   0 -10  -8   25.60   14.30
   0  10  -8   37.30    5.80
   1  10  -8   35.50    7.20
   1  10  -8   32.90    7.40
  -1  10   8   54.89   16.90
  -1 -10  -8   41.30   16.80
   1  10   8   67.09   18.10
  -1  10  -8   52.09    7.80
   1 -10  -8   44.80   25.70
  -2  10   8   85.89   19.40
   2  10  -8  114.49   13.30
  -2 -10  -8   88.39   20.20
   2  10  -8   98.39   12.80
  -2  10  -8   80.99   12.90
   2  10   8   75.79   20.50
   2 -10  -8  120.99   18.60
  -3 -10  -8  216.88   27.90
  -3  10   8  181.98   28.50
   3  10  -8  206.98   26.40
   3  10  -8  211.78   27.00
  -3 -10  -8  214.38   27.40
  -3  10   8  215.28   27.50
   3 -10  -8  197.58   26.30
  -3  10  -8  191.08   27.40
  -3  10  -8  197.78   22.20
   3  10   8  158.88   27.40
   0  11  -8  661.73   32.90
   0  11   8  689.33   45.00
  -1  11   8   53.49   18.00
   1  11  -8   47.50    8.70
  -1  11  -8   33.20    8.10
   1  11   8   32.90   18.90
  -2  11   8  388.66   35.40
   2  11  -8  371.86   30.20
  -2 -11  -8  376.06   36.50
  -2 -11  -8  366.86   33.70
  -2  11  -8  314.47   25.90
   2 -11  -8  293.37   32.40
   2  11   8  306.07   36.90
  -3  11   8   -3.80   21.20
  -3 -11  -8   32.30   22.00
   3  11  -8   10.20   15.70
  -3  11   8   42.50   25.40
  -3 -11  -8    3.00   22.00
   3  11  -8   11.00   15.10
  -3  11  -8   17.90   16.90
   3  11   8   11.10   23.70
  -3  11  -8   18.30   16.70
   3 -11  -8    9.50   20.30
   0  12  -8   10.20    7.40
   0 -12  -8   -4.50   12.20
   0  12   8  -21.80   16.80
  -1  12   8   30.30   18.00
  -1 -12  -8   54.99   15.80
   1  12  -8   22.80    8.90
   1  12   8    3.90   18.60
  -1  12  -8    9.90    8.10
   1 -12  -8   49.40   15.70
  -2 -12  -8   83.49   20.60
  -2 -12  -8   86.19   20.90
  -2  12   8   70.99   21.40
   2  12   8   58.39   23.70
  -2  12  -8   72.19   15.80
   2 -12  -8   77.69   20.30
   0  13  -8   45.40   10.50
   0 -13  -8   40.20   17.00
   0  13   8   40.40   20.60
   1  13  -8  373.16   24.30
  -1  13   8  375.16   39.10
  -1 -13  -8  335.47   33.10
   1 -13  -8  339.77   32.90
   1  13   8  344.67   40.80
  -1  13  -8  301.47   23.60
   2  13  -8  -12.70   12.00
  -2 -13  -8    2.10   19.50
  -2  13   8  -12.80   20.40
  -2 -13  -8  -18.70   17.80
  -2  13  -8    0.10   12.80
   2  13   8    0.30   22.80
   2 -13  -8  -14.40   17.80
  -2  13  -8   -3.60   11.90
   0 -14  -8   13.70   16.40
   0  14   8   21.60   21.50
   0  14  -8   -4.20    9.90
  -1  14   8   40.50   22.70
   1  14  -8   40.40   11.70
  -1 -14  -8   31.20   18.10
   1 -14  -8   50.19   19.00
   1  14   8   52.99   24.80
   0 -15  -8  297.57   35.00
   0  15  -8  323.17   26.30
   0  15   8  369.06   45.30
   0   0  -9    3.30    6.70
   0   0   9    2.30    4.00
   1   0  -9  490.05   29.10
  -1   0  -9  523.65   27.50
  -1   0   9  491.15   25.30
  -1   0   9  484.95   24.70
   1   0   9  492.35   25.00
   2   0   9  220.08   17.50
  -2   0   9  212.28   17.70
  -2   0   9  199.38   16.80
   2   0  -9  219.88   21.10
  -2   0  -9  213.68   19.30
   3   0   9   -2.80   11.70
  -3   0  -9   18.20   15.20
  -3   0  -9   19.80   13.60
   3   0  -9   13.80   13.50
  -3   0   9   21.60   11.40
  -4   0  -9   74.99   21.40
  -4   0  -9   77.39   20.90
   4   0  -9   80.29   21.80
   4   0   9   81.79   18.30
  -4   0   9   85.19   18.10
   0   1   9  756.92   35.50
   0   1  -9  758.32   36.60
   0  -1  -9  709.63   38.30
  -1   1   9  266.87   16.30
  -1   1   9  273.17   17.50
   1  -1   9  269.07   14.00
   1   1  -9  263.27   19.10
  -1  -1  -9  268.97   19.30
   1  -1  -9  224.68   20.60
   1   1   9  243.88   16.60
  -1   1  -9  250.47   17.20
  -1  -1   9  252.07   13.60
  -1  -1   9  237.58   13.20
  -2   1   9  270.07   19.60
   2  -1   9  264.57   18.20
  -2  -1  -9  256.47   22.70
  -2   1   9  269.17   20.50
   2   1  -9  261.17   20.80
  -2  -1   9  263.37   18.20
   2   1   9  269.27   20.20
  -2   1  -9  259.27   20.70
  -2   1  -9  266.27   21.30
  -2  -1   9  261.87   17.50
   2  -1  -9  249.78   22.50
  -3   1   9  149.99   21.30
  -3  -1  -9  150.58   21.20
   3   1  -9  109.99   17.00
  -3  -1  -9  137.69   18.60
  -3   1   9  148.49   20.00
   3   1   9  128.89   16.60
  -3  -1   9  125.19   18.80
  -3   1  -9  141.39   21.40
   3  -1  -9  112.89   18.20
  -4   1   9  102.69   17.40
  -4  -1  -9  109.39   22.50
  -4  -1  -9   67.29   21.50
   4  -1   9   81.59   17.20
   4   1  -9   83.59   21.50
  -4   1   9   49.60   18.60
  -4   1  -9   77.29   20.90
   4  -1  -9   42.30   21.00
  -4  -1   9   60.79   16.30
   4   1   9   91.19   19.30
  -4   1  -9   79.69   20.90
  -4  -1   9   66.39   16.90
   0   2  -9  924.61   42.50
   0  -2  -9  877.31   45.70
   0   2   9  913.31   43.50
  -1  -2  -9  230.58   19.90
  -1   2   9  236.78   18.30
   1   2  -9  212.78   17.30
  -1   2  -9  264.47   16.30
   1  -2  -9  266.27   22.10
   1   2   9  266.37   17.60
  -2   2   9  406.86   25.50
  -2  -2  -9  422.06   29.60
  -2   2   9  395.86   25.70
   2   2  -9  415.06   26.30
   2  -2   9  421.86   22.50
  -2  -2  -9  414.16   27.60
  -2  -2   9  402.16   22.20
  -2   2  -9  392.26   26.80
   2  -2  -9  385.16   28.50
  -2   2  -9  405.66   25.70
  -2  -2   9  401.96   21.50
   3   2  -9  371.56   30.10
  -3  -2  -9  331.67   33.70
  -3   2   9  333.47   27.90
  -3   2   9  318.77   28.30
  -3  -2  -9  362.86   31.20
   3   2   9  384.46   29.50
   3  -2  -9  356.06   31.00
  -3  -2   9  353.26   24.30
  -3   2  -9  366.06   28.40
  -3  -2   9  374.86   24.60
  -4  -2  -9   21.10   20.00
   4   2  -9   -8.50   18.20
  -4   2   9  -16.40   17.20
  -4  -2  -9   -8.40   18.00
  -4   2   9   13.30   16.30
  -4  -2   9    9.90   16.80
  -4   2  -9    1.90   17.70
   4   2   9    1.00   17.60
  -4   2  -9   -7.20   17.40
  -4  -2   9  -23.90   20.70
   4  -2  -9    8.90   19.20
   0   3  -9  368.96   19.40
   0   3   9  380.56   23.60
   0  -3  -9  392.06   26.00
  -1   3   9  690.33   35.70
   1   3  -9  677.63   32.90
  -1  -3  -9  683.23   36.20
   1  -3  -9  610.94   37.80
   1   3   9  653.73   34.30
  -1   3  -9  621.34   31.90
  -2  -3  -9  257.47   24.20
  -2  -3  -9  245.68   27.30
   2   3  -9  253.07   20.70
  -2   3   9  273.87   20.90
   2   3  -9  276.97   20.40
   2   3   9  254.07   21.70
  -2  -3   9  284.17   14.30
  -2  -3   9  243.68   18.20
  -2   3  -9  311.87   21.30
  -2   3  -9  314.77   22.00
   2  -3  -9  291.37   25.30
  -3   3   9  186.58   23.80
  -3  -3  -9  147.49   22.30
   3   3  -9  164.48   22.70
  -3  -3  -9  182.18   24.60
   3   3  -9  193.88   22.40
   3   3   9  195.28   25.10
   3  -3  -9  198.78   27.70
  -3  -3   9  192.98   18.00
  -3   3  -9  200.78   30.30
  -3  -3   9  206.08   17.90
  -3   3  -9  166.18   22.40
  -4  -3  -9   56.89   21.20
  -4   3   9   73.69   18.90
   4   3  -9   60.09   20.40
  -4  -3  -9   86.59   23.80
  -4   3   9   66.09   19.40
   4   3   9   46.80   19.70
  -4  -3   9   58.09   14.80
   4  -3  -9   38.10   21.40
  -4  -3   9   55.39   15.40
  -4   3  -9   46.50   19.90
  -4   3  -9   64.99   20.20
   0   4  -9  287.17   14.80
   0   4   9  298.57   21.80
   0  -4  -9  300.77   23.20
   1   4  -9  914.01   43.00
  -1   4   9  934.11   46.80
   1   4  -9  917.91   42.40
  -1  -4  -9  950.70   47.70
   1  -4  -9  862.21   48.60
  -1   4  -9  924.81   42.70
   1   4   9  925.01   46.70
  -2   4   9  283.07   24.00
   2   4  -9  288.37   21.00
   2   4  -9  293.17   20.40
  -2  -4  -9  254.07   27.70
  -2   4   9  254.77   23.70
  -2   4  -9  294.77   21.30
  -2   4  -9  304.77   22.10
   2   4   9  322.67   23.70
   3   4  -9   82.09   15.00
   3   4  -9   91.99   15.70
  -3  -4  -9  111.79   18.50
  -3  -4  -9   88.29   19.50
  -3   4   9  106.79   18.00
  -3   4   9   91.99   17.20
  -3  -4   9   66.19    9.90
  -3  -4   9   93.49   13.20
   3   4   9   73.39   16.60
  -3   4  -9   81.69   16.60
   3  -4  -9   91.39   18.70
  -3   4  -9  105.09   15.70
  -4   4   9  116.19   21.90
   4   4  -9   95.79   22.50
   4   4  -9  110.19   20.60
  -4  -4  -9  108.29   25.00
  -4   4   9  106.39   22.50
  -4  -4  -9  105.69   23.70
  -4  -4   9  113.99   15.50
   4  -4  -9  116.69   24.80
   4   4   9  102.39   22.30
  -4   4  -9  113.29   21.80
  -4   4  -9   92.19   21.60
  -4  -4   9   82.29   15.30
   0   5   9 1388.16   66.49
   0   5  -9 1363.76   60.09
   0  -5  -9 1406.26   68.09
  -1  -5  -9  478.95   31.80
   1   5  -9  433.16   24.00
   1   5  -9  461.35   23.70
  -1   5  -9  540.05   24.40
   1  -5  -9  493.75   33.20
  -2   5   9  525.45   34.70
  -2  -5  -9  524.05   35.50
   2   5  -9  516.85   30.30
  -2  -5  -9  573.14   38.80
  -2   5   9  499.95   34.40
   2   5  -9  560.14   30.80
   2  -5  -9  568.04   38.10
  -2   5  -9  611.04   31.50
  -2   5  -9  593.74   31.70
   2   5   9  600.24   35.00
   3   5  -9  177.18   22.20
  -3   5   9  146.99   20.30
  -3  -5  -9  155.78   22.90
   3   5  -9  172.38   22.90
  -3  -5   9  153.78   13.00
   3   5   9  146.39   20.20
  -3   5  -9  167.98   21.60
   3  -5  -9  185.88   23.10
  -3   5  -9  131.79   17.90
  -3  -5   9  142.39   12.30
  -4  -5  -9   15.30   21.10
   4   5  -9   20.60   17.90
  -4  -5  -9   34.10   22.30
  -4   5   9   32.50   20.00
   4   5  -9   -0.10   18.30
  -4   5   9   17.80   19.60
  -4   5  -9   17.70   19.40
   4   5   9    0.20   19.90
   4  -5  -9    1.90   21.20
  -4  -5   9   14.70   12.30
  -4   5  -9   16.40   19.00
  -1   6   9  327.97   25.00
   1   6  -9  339.77   17.30
   1   6  -9  349.77   17.40
  -1  -6  -9  341.27   27.50
  -1   6  -9  311.57   17.90
   1   6   9  286.27   25.20
  -1   6  -9  313.87   17.90
   1  -6  -9  292.77   26.60
   2   6  -9  428.46   24.60
  -2  -6  -9  447.76   38.70
  -2   6   9  454.35   31.80
   2   6  -9  448.66   24.60
  -2   6  -9  331.87   24.50
  -2   6  -9  314.37   24.40
   2   6   9  322.07   30.10
  -3   6   9  308.47   32.30
  -3  -6  -9  384.56   34.80
   3   6  -9  310.17   27.10
  -3  -6  -9  223.48   28.50
  -3   6   9  365.46   29.20
   3   6  -9  314.37   27.60
  -3   6  -9  272.67   41.00
  -3   6  -9  321.77   27.00
   3   6   9  292.27   32.20
   0  -7  -9  283.27   26.30
   0   7   9  290.37   26.30
   1   7  -9  294.37   17.00
   1   7  -9  294.47   17.00
  -1   7   9  266.97   25.70
  -1   7  -9  360.16   18.10
  -1   7  -9  343.77   17.90
   1   7   9  357.96   27.40
   2   7  -9  148.89   16.20
  -2  -7  -9  143.39   21.80
  -2   7   9  109.39   18.00
   2   7  -9  125.29   15.90
   2   7   9  107.89   18.40
  -2   7  -9  112.89   16.50
  -2   7  -9  126.19   16.80
   3   7  -9  113.09   17.50
   3   7  -9  143.89   17.60
  -3  -7  -9  156.98   23.00
  -3   7   9  154.18   22.40
  -3   7   9   86.09   20.10
  -3  -7  -9  196.38   25.20
   3  -7  -9  207.88   29.20
  -3   7  -9  159.98   23.80
   3   7   9  133.79   22.00
   0  -8  -9   55.79   20.40
   0   8   9   61.59   15.10
   1   8  -9  127.59   10.30
   1   8  -9  119.99   10.20
  -1   8   9  101.49   17.50
  -1   8  -9  126.09   11.10
   1   8   9  102.79   17.60
  -1   8  -9  108.89   11.00
   2   8  -9  353.66   22.40
  -2  -8  -9  315.67   32.60
   2   8  -9  369.86   22.50
  -2   8   9  355.16   32.00
  -2   8  -9  290.97   22.80
   2   8   9  237.48   30.00
  -2   8  -9  287.17   22.70
  -3   8   9   81.29   21.20
   3   8  -9   71.19   15.60
  -3   8   9   74.59   19.60
   3   8  -9   93.89   19.90
  -3  -8  -9   99.19   21.50
  -3  -8  -9   56.69   21.20
   3   8   9   45.80   19.90
  -3   8  -9   91.69   17.20
  -3   8  -9   56.89   18.50
   3  -8  -9   87.79   21.10
   0   9  -9  449.56   18.90
   0  -9  -9  332.57   31.10
   1   9  -9  156.48   11.90
  -1   9   9  137.29   19.90
   1   9  -9  167.58   11.90
  -1   9  -9  152.98   12.70
   1   9   9  133.99   20.50
  -2   9   9  205.08   28.40
  -2  -9  -9  194.78   25.60
   2   9  -9  196.78   19.10
  -2  -9  -9  279.47   30.20
   2   9  -9  194.98   19.00
   2   9   9  174.78   24.30
   2  -9  -9  295.57   29.80
  -2   9  -9  218.58   19.80
  -2   9  -9  204.48   20.00
   3   9  -9  121.19   18.00
  -3  -9  -9  116.29   23.90
  -3   9   9  125.79   24.20
  -3  -9  -9  119.39   24.70
  -3   9   9  151.48   25.30
   3  -9  -9  175.38   25.80
  -3   9  -9  131.79   18.80
  -3   9  -9  157.48   19.10
   3   9   9  134.29   25.10
   0  10  -9   34.80    5.00
   0  10   9   34.30   16.80
  -1  10   9   52.89   18.00
   1  10  -9   86.79   10.80
   1  10  -9   82.79   10.80
  -1  10  -9   89.79   11.70
   1  10   9   85.09   19.50
  -2  10   9  127.79   22.40
  -2 -10  -9  124.59   23.50
  -2 -10  -9  145.39   22.90
   2  10  -9  145.59   18.30
   2  10  -9  174.98   18.40
   2  10   9  116.39   22.80
  -2  10  -9  171.98   19.50
   2 -10  -9  168.68   22.90
   3  10  -9  135.19   18.60
  -3 -10  -9  122.59   25.40
  -3 -10  -9  148.19   26.30
  -3  10   9  158.58   28.80
  -3  10   9  130.69   25.50
   3  10  -9  126.19   19.20
   3  10   9  174.38   28.00
   3 -10  -9  167.78   26.20
  -3  10  -9  179.68   21.30
  -3  10  -9  126.59   19.70
   0 -11  -9    7.40   12.30
   0  11  -9    6.00    5.40
   0  11   9  -15.20   16.10
  -1  11   9  481.75   40.60
   1  11  -9  515.45   26.50
  -1 -11  -9  599.24   38.90
   1  11   9  424.06   39.10
   1 -11  -9  512.35   36.90
  -1  11  -9  457.45   26.50
  -2 -11  -9   74.79   21.60
  -2 -11  -9   87.49   21.20
  -2  11   9  105.69   22.80
   2  11  -9   69.49   12.70
  -2  11  -9   60.59   12.90
   2 -11  -9   83.89   20.90
   2  11   9   58.09   22.10
   0  12  -9  213.98   16.20
   0  12   9  213.28   31.80
   0 -12  -9  223.78   30.20
  -1 -12  -9  141.49   21.50
   1  12  -9  143.99   15.30
  -1  12   9  127.39   23.80
   1  12   9  138.89   24.60
   1 -12  -9  153.78   22.10
  -1  12  -9  159.48   15.30
  -2 -12  -9   90.99   23.00
   2  12  -9   88.09   14.20
  -2  12   9   64.29   22.70
  -2 -12  -9   66.19   21.20
  -2  12  -9  111.79   16.10
   2 -12  -9  107.29   22.20
   2  12   9   66.29   24.00
   0  13   9  500.05   44.70
   0  13  -9  472.15   27.70
   0 -13  -9  478.95   38.10
  -1  13   9    5.30   19.70
   1  13  -9    4.40    8.60
  -1 -13  -9   22.10   18.00
   1 -13  -9   18.80   18.00
   1  13   9   17.10   21.60
  -1  13  -9   17.10    9.00
  -2  13   9  192.68   30.00
  -2 -13  -9  210.08   28.10
  -2 -13  -9  249.38   35.10
   2  13   9  214.08   32.10
   2 -13  -9  230.08   28.30
  -2  13  -9  220.78   24.80
  -2  13  -9  282.87   24.60
   0 -14  -9  155.38   23.10
   0  14  -9  160.28   18.80
   0  14   9  121.39   27.00
  -1  14   9  127.09   26.50
  -1 -14  -9  113.19   23.20
   1  14  -9   97.19   13.00
   1 -14  -9  126.09   24.10
   1  14   9  102.59   27.30
  -1  14  -9  109.69   13.80
   0   0  10  397.86   19.80
   0   0 -10  395.36   24.70
  -1   0  10   86.09    9.70
  -1   0  10   88.29   10.30
  -1   0 -10   75.29   10.50
   1   0 -10   88.29   12.60
   1   0  10   87.09   10.20
  -2   0  10 1121.29   53.09
   2   0  10 1164.58   52.79
  -2   0  10 1108.09   52.19
  -2   0 -10 1133.09   55.29
  -2   0 -10  977.30   55.89
   2   0 -10 1084.99   56.29
  -3   0  10   15.50   11.20
   3   0 -10   26.80   14.50
  -3   0 -10   30.50   14.20
  -3   0 -10   10.00   15.70
   3   0  10    9.70   11.60
  -4   0 -10   16.30   20.30
   4   0 -10   14.50   20.70
  -4   0  10   26.50   16.40
   4   0  10   18.20   16.90
  -4   0 -10   22.30   19.50
   0  -1 -10   -5.30    7.90
   0   1  10   -3.90    5.50
   0   1 -10    4.80    7.00
  -1   1  10   66.49    8.20
  -1   1  10   54.49    8.60
   1   1 -10   66.69   10.70
   1  -1  10   66.49    7.00
  -1  -1 -10   67.29   11.00
   1   1  10   38.90    8.10
  -1  -1  10   46.50    5.60
  -1   1 -10   42.10    8.40
   1  -1 -10   35.30   11.40
  -1  -1  10   40.60    6.10
  -2   1  10  396.26   25.00
   2  -1  10  401.86   23.20
  -2   1  10  426.96   26.40
   2   1 -10  354.26   27.40
  -2  -1 -10  389.16   28.10
  -2  -1 -10  357.06   30.40
   2  -1 -10  415.66   29.30
  -2   1 -10  422.66   27.10
  -2  -1  10  446.46   23.10
   2   1  10  435.36   25.80
  -2  -1  10  407.86   23.70
   3   1 -10  444.86   31.90
  -3  -1 -10  390.56   35.60
  -3  -1 -10  428.36   32.30
  -3   1  10  437.96   29.50
  -3   1  10  414.76   29.70
  -3   1 -10  395.26   34.40
   3  -1 -10  376.26   33.00
  -3   1 -10  406.76   30.90
   3   1  10  406.56   29.90
  -3  -1  10  405.86   26.80
  -4  -1 -10  175.38   27.20
  -4   1  10  231.68   27.10
  -4   1  10  213.28   30.40
  -4  -1 -10  207.88   27.60
   4   1 -10  174.98   26.30
   4  -1  10  201.18   27.30
   4   1  10  192.98   29.50
  -4   1 -10  217.48   32.70
  -4   1 -10  246.68   32.80
   4  -1 -10  205.98   28.20
  -4  -1  10  227.68   28.00
  -4  -1  10  230.08   27.10
   0   2 -10    6.30    6.20
   0  -2 -10   -3.80    9.00
   0   2  10    5.20    7.10
  -1  -2 -10 1146.79   55.19
  -1   2  10 1160.08   53.79
   1   2 -10 1076.89   53.79
   1   2  10 1158.68   53.09
   1  -2 -10 1059.79   56.39
  -1   2 -10 1095.19   52.29
   2   2 -10    9.20   10.00
  -2  -2 -10   15.10   11.60
  -2  -2 -10   13.70   13.70
  -2   2  10    6.00    9.30
  -2  -2  10   10.10    5.00
  -2  -2  10    8.90    5.80
   2  -2 -10   17.60   13.00
  -2   2 -10   13.00    9.60
  -3   2  10  151.58   21.70
  -3  -2 -10  151.88   22.50
  -3  -2 -10  124.99   19.50
  -3   2  10  146.09   18.70
   3   2 -10  134.59   18.70
   3   2  10  180.18   26.40
  -3   2 -10  202.38   24.50
   3  -2 -10  134.29   20.60
  -3   2 -10  171.88   23.80
  -3  -2  10  184.58   17.80
  -3  -2  10  176.28   18.70
  -4  -2 -10    5.60   21.70
   4   2 -10   14.10   19.90
  -4   2  10   36.30   17.80
  -4   2  10    5.10   16.70
  -4  -2 -10   21.40   20.30
   4   2  10   13.70   17.70
  -4  -2  10   -3.80   21.10
  -4   2 -10   34.20   19.40
   4  -2 -10   19.50   21.30
  -4   2 -10    9.60   19.20
   0   3  10   10.50    8.40
   0   3 -10   13.60    5.60
   0  -3 -10   10.60   10.20
  -1   3  10  128.99   16.30
  -1  -3 -10  142.99   17.80
   1   3 -10  121.19   13.90
   1  -3 -10   97.39   15.40
  -1   3 -10  118.49   12.40
   1   3  10  112.99   14.40
  -2  -3 -10   89.09   17.90
  -2   3  10   97.69   13.30
   2   3 -10   78.89   11.90
  -2   3 -10   92.69   12.90
  -2   3 -10   78.99   11.70
  -3  -3 -10  424.26   33.50
  -3   3  10  375.56   29.50
  -3  -3 -10  381.16   35.60
  -3   3  10  411.26   32.30
   3   3 -10  430.86   31.30
  -3  -3  10  422.96   25.00
   3   3  10  399.36   32.50
  -3   3 -10  397.96   31.20
   3  -3 -10  442.16   36.70
  -3   3 -10  306.27   42.40
   4   3 -10   45.00   20.40
  -4   3  10   61.99   19.90
  -4  -3 -10   40.10   22.90
  -4  -3 -10   26.70   21.60
  -4   3  10   51.89   19.80
  -4   3 -10   45.60   21.00
  -4  -3  10   63.09   14.80
   4   3  10   71.69   20.90
  -4  -3  10   52.19   14.70
  -4   3 -10   47.50   20.00
   4  -3 -10   35.70   22.50
   0   4  10 1567.94   72.09
   0   4 -10 1482.35   67.79
   0  -4 -10 1530.15   74.49
  -1  -4 -10   48.40   12.40
   1   4 -10   51.69    7.70
   1  -4 -10   24.20   13.20
  -1   4 -10   36.40    6.80
  -2  -4 -10  763.12   48.50
   2   4 -10  813.72   42.00
  -2   4  10  783.92   45.40
   2   4 -10  766.52   41.40
  -2  -4 -10  821.72   46.20
  -2   4  10  791.12   43.40
  -2   4 -10  834.62   42.00
   2  -4 -10  888.91   48.20
   2   4  10  861.61   44.90
  -2   4 -10  855.11   42.80
  -3   4  10   11.20   15.50
   3   4 -10   38.20   14.10
   3   4 -10   23.30   15.00
  -3  -4 -10   19.50   16.20
  -3   4  10   32.10   15.60
  -3  -4 -10   -7.50   18.00
  -3  -4  10   25.50    7.70
  -3   4 -10   16.10   23.60
   3  -4 -10   44.20   18.30
  -3  -4  10   10.20    6.30
   3   4  10   29.80   16.10
  -3   4 -10   20.60   13.50
  -4   4  10    3.40   19.90
  -4  -4 -10    7.60   23.00
   4   4 -10  -15.30   19.70
  -4   4  10   11.10   19.20
  -4   4 -10  -19.50   19.10
   4   4  10  -14.20   18.90
  -4   4 -10  -18.20   17.90
  -4  -4  10   -0.90   12.30
   0  -5 -10  110.29   16.00
   0   5 -10  114.09    8.20
  -1  -5 -10  127.79   16.80
   1   5 -10  119.79   11.40
   1   5 -10  114.59   10.90
  -1   5 -10  111.69   11.30
   1  -5 -10  102.89   16.80
  -2  -5 -10  177.98   26.60
  -2   5  10  190.58   22.00
  -2  -5 -10  202.28   24.60
   2   5 -10  210.58   17.70
   2   5 -10  212.28   18.40
  -2   5  10  192.98   24.80
   2  -5 -10  192.88   27.50
  -2   5 -10  163.78   19.30
  -2   5 -10  178.58   18.30
   2   5  10  174.08   23.30
   3   5 -10   79.49   15.40
   3   5 -10   61.89   15.00
  -3  -5 -10   52.49   18.10
  -3   5  10   71.99   18.00
  -3  -5 -10   61.99   20.50
  -3   5 -10   66.79   15.20
   3  -5 -10   75.39   20.00
  -3   5 -10   72.29   26.00
   3   5  10   89.79   18.50
   0   6  10  895.31   47.00
   0  -6 -10  907.81   49.00
   0   6 -10  860.51   38.80
   1   6 -10  867.21   41.50
  -1   6  10  928.11   49.20
   1   6 -10  892.51   41.40
  -1   6 -10  906.21   42.20
  -1   6 -10  915.41   41.90
   1   6  10  897.91   48.20
   2   6 -10   28.60    9.10
   2   6 -10   21.30    9.20
  -2  -6 -10   33.40   17.80
  -2   6 -10   21.00    9.50
  -2   6 -10   19.00    9.50
   2   6  10   10.90   16.90
  -3  -6 -10  151.68   22.50
   3   6 -10  167.58   24.50
  -3  -6 -10  168.58   25.80
  -3   6  10  206.48   24.40
   3   6 -10  199.78   23.80
  -3   6  10  234.58   28.60
   3   6  10  140.09   22.00
  -3   6 -10  102.09   28.50
  -3   6 -10  159.78   23.70
   3  -6 -10  184.68   25.40
   0  -7 -10   33.10   15.00
   0   7  10   18.30   13.30
   1   7 -10  366.46   18.80
  -1   7  10  369.66   29.00
   1   7 -10  356.36   18.70
  -1   7 -10  325.07   19.20
  -1   7 -10  357.66   19.30
   1   7  10  335.87   30.10
   2   7 -10   11.30    8.90
  -2  -7 -10   16.80   17.50
   2   7 -10    7.40    8.50
  -2   7  10   10.10   15.30
  -2   7 -10    6.70    9.20
   2   7  10    7.60   14.60
  -2   7 -10   11.30    9.20
  -3  -7 -10  300.17   37.90
  -3   7  10  383.16   35.10
   3   7 -10  344.67   29.50
   3   7 -10  358.36   36.20
  -3  -7 -10  341.07   35.10
  -3   7  10  341.97   33.40
   3   7  10  348.17   37.10
  -3   7 -10  364.56   33.30
   3  -7 -10  348.37   38.80
  -3   7 -10  329.87   30.20
   0   8  10  709.43   44.10
   1   8 -10  227.38   14.30
   1   8 -10  225.08   14.10
  -1   8  10  228.18   30.50
  -1   8 -10  237.18   15.10
   1   8  10  255.17   27.60
  -1   8 -10  245.38   15.20
   2   8 -10  293.97   22.00
  -2  -8 -10  284.47   36.50
  -2   8  10  304.67   32.80
   2   8 -10  321.17   22.30
   2   8  10  300.97   33.00
  -2   8 -10  334.67   23.40
  -2   8 -10  336.57   23.20
   3   8 -10   23.90   14.50
  -3  -8 -10   -3.20   18.80
  -3   8  10   38.70   19.90
  -3  -8 -10   -0.50   21.30
  -3   8  10   31.10   20.40
  -3   8 -10   25.40   14.90
  -3   8 -10    9.60   14.40
   3   8  10   24.70   19.90
   3  -8 -10   37.80   21.00
   0   9  10    8.00   14.90
   1   9 -10    9.30    5.40
  -1   9  10    5.70   15.80
   1   9 -10   13.10    5.50
  -1   9 -10   11.40    6.10
   1   9  10   34.40   16.80
  -1   9 -10   22.30    6.30
   2   9 -10  328.47   22.90
  -2   9  10  276.77   32.20
  -2  -9 -10  294.17   35.50
  -2  -9 -10  312.57   33.00
   2   9 -10  277.47   22.10
   2   9  10  299.97   35.30
  -2   9 -10  330.07   23.60
  -2   9 -10  340.57   23.60
   2  -9 -10  331.57   33.50
   3   9 -10   22.40   15.90
  -3   9  10   14.30   20.50
   3   9 -10    1.80   14.40
  -3  -9 -10    3.70   22.40
  -3   9  10  -16.00   20.60
  -3  -9 -10    1.30   21.30
  -3   9 -10   19.10   15.00
  -3   9 -10    3.00   15.30
   3  -9 -10    9.70   19.90
   3   9  10    1.60   20.60
   0  10 -10  520.55   23.60
   0  10  10  494.15   38.30
  -1 -10 -10  525.65   36.90
   1  10 -10  439.96   24.20
  -1  10  10  417.96   38.40
   1  10 -10  468.85   24.20
   1  10  10  485.65   40.00
  -1  10 -10  467.65   24.90
   1 -10 -10  527.25   36.90
  -1  10 -10  476.85   24.80
   2  10 -10  135.69   17.90
   2  10 -10  130.79   18.00
  -2  10  10  112.39   23.00
  -2 -10 -10  103.89   24.60
  -2 -10 -10  138.89   23.00
   2  10  10  128.09   24.00
  -2  10 -10  172.98   19.90
   2 -10 -10  149.49   23.80
   0 -11 -10   39.90   17.00
   0  11 -10   17.80    5.20
   0  11  10   22.40   17.80
  -1 -11 -10  170.88   22.90
   1  11 -10  152.18   13.50
  -1  11  10  117.59   22.60
  -1  11 -10  158.28   14.40
   1 -11 -10  179.28   23.10
   1  11  10  130.19   23.50
  -2  11  10    6.00   19.50
  -2 -11 -10   -9.80   18.50
   2  11 -10   22.40   10.90
  -2 -11 -10   22.60   21.30
   2  11  10   19.60   21.00
   2 -11 -10   24.60   19.10
  -2  11 -10   -1.40   11.20
   0  12  10  617.34   45.60
   0 -12 -10  585.24   42.10
   0  12 -10  579.84   29.80
  -1  12  10  284.07   37.80
   1  12 -10  304.17   19.80
  -1 -12 -10  338.07   34.40
  -1  12 -10  309.47   20.50
   1  12  10  327.67   37.50
   1 -12 -10  351.66   34.50
   2  12 -10   94.89   14.30
  -2 -12 -10   52.89   23.90
  -2  12  10   41.00   22.20
  -2 -12 -10   46.30   22.30
  -2  12 -10  106.09   16.30
   2  12  10   70.49   25.30
   2 -12 -10   81.39   24.20
   0 -13 -10   -6.10   18.50
   0  13  10   -2.60   20.90
   0  13 -10    3.10    7.80
  -1 -13 -10   10.10   18.70
  -1  13  10   49.50   22.30
   1  13 -10   -1.80    7.80
  -1  13 -10   -1.80    8.20
   1 -13 -10    6.20   18.20
   1  13  10   12.50   21.80
   0 -14 -10  385.96   38.40
   0  14  10  401.06   44.30
   0  14 -10  425.26   26.10
   0   0  11   -2.90    4.20
   0   0 -11    5.40    9.00
  -1   0 -11  284.97   21.30
  -1   0  11  277.07   16.70
  -1   0  11  291.97   16.30
   1   0  11  283.77   16.70
   1   0 -11  250.37   23.60
  -2   0  11  148.39   15.00
  -2   0 -11  152.18   20.50
   2   0  11  124.39   15.20
   2   0 -11  118.19   16.60
  -2   0 -11  133.59   17.90
  -2   0  11  133.59   16.30
   3   0 -11   21.40   15.80
  -3   0 -11   26.90   15.40
  -3   0 -11   41.10   18.10
   3   0  11   32.00   12.80
  -3   0  11   53.49   12.60
  -4   0  11  195.18   29.00
   0   1 -11  853.91   43.50
   0  -1 -11  837.12   45.10
   0   1  11  891.71   40.90
  -1   1  11 1039.90   48.20
  -1  -1 -11 1025.40   51.29
   1  -1  11 1039.30   45.40
   1   1 -11  979.80   51.59
   1  -1 -11  957.10   53.49
   1   1  11 1087.99   48.70
  -1   1 -11 1046.20   49.99
  -2  -1 -11  463.85   34.90
  -2   1  11  502.15   28.70
  -2  -1 -11  477.95   34.40
  -2   1  11  512.15   29.80
   2  -1  11  502.75   26.50
   2   1 -11  523.05   32.20
  -2   1 -11  506.85   31.10
  -2  -1  11  479.65   26.10
   2   1  11  454.05   28.40
   2  -1 -11  471.75   33.20
  -2  -1  11  485.45   25.60
  -3   1  11  248.78   23.90
  -3  -1 -11  260.47   32.50
  -3   1  11  255.77   24.80
  -3  -1 -11  246.38   28.90
   3   1 -11  243.38   26.90
  -3  -1  11  236.98   21.40
  -3   1 -11  168.78   23.60
  -3   1 -11  213.78   27.60
   3  -1 -11  228.08   29.10
   3   1  11  205.28   24.30
   0   2 -11  282.07   19.20
   0   2  11  264.97   19.10
   0  -2 -11  284.17   23.90
  -1   2  11  103.29   13.80
   1   2 -11  105.29   16.00
  -1  -2 -11  105.59   14.00
  -1   2  11   98.29   14.90
   1  -2 -11  118.29   16.60
  -1   2 -11  121.79   14.00
   1   2  11  119.39   14.30
   2   2 -11  137.99   19.00
  -2  -2 -11  152.48   20.30
  -2  -2 -11  112.39   19.00
  -2   2  11  116.09   17.20
  -2   2 -11   96.39   13.40
   2  -2 -11  114.09   28.20
  -2  -2  11  103.19    8.50
  -2  -2  11  113.79    9.20
  -3   2  11  233.78   25.30
  -3  -2 -11  213.18   27.20
  -3  -2 -11  197.38   29.70
   3   2 -11  242.18   27.70
  -3   2 -11  204.38   26.20
  -3  -2  11  185.78   18.20
  -3   2 -11  199.08   26.60
  -3  -2  11  188.88   19.40
   3  -2 -11  211.58   29.40
   0   3 -11  486.65   26.00
   0  -3 -11  507.65   32.50
   0   3  11  464.05   28.10
  -1   3  11  422.56   27.90
  -1  -3 -11  433.66   29.50
   1   3 -11  441.06   26.40
  -1   3 -11  441.66   24.80
   1   3  11  478.65   27.00
   1  -3 -11  413.96   31.40
  -2  -3 -11  174.78   22.50
   2   3 -11  155.98   19.50
  -2  -3 -11  151.68   22.20
  -2   3  11  154.08   18.90
  -2   3 -11  183.58   19.20
  -2   3 -11  182.78   16.40
   2  -3 -11  191.28   25.20
   2   3  11  173.88   20.60
  -3  -3 -11   49.50   19.70
  -3  -3 -11   54.49   17.60
  -3   3  11   64.49   16.70
   3   3 -11   69.99   15.90
  -3   3  11   71.49   16.00
  -3  -3  11   33.40    8.00
  -3  -3  11   44.90    9.00
  -3   3 -11   67.29   17.80
   3  -3 -11   62.79   19.50
   3   3  11   63.19   16.00
  -3   3 -11   47.50   15.20
   0   4 -11   60.59    7.60
   0   4  11   62.79   11.10
   0  -4 -11   47.80   13.80
   1   4 -11  472.55   26.50
  -1  -4 -11  488.45   32.60
  -1   4 -11  497.95   25.90
   1  -4 -11  465.45   35.00
  -2   4  11  272.77   24.40
  -2   4  11  247.08   23.90
  -2  -4 -11  289.87   26.90
   2   4 -11  265.37   21.90
  -2   4 -11  261.27   21.50
   2  -4 -11  279.97   29.40
   2   4  11  255.87   25.40
  -3  -4 -11   88.89   19.90
  -3   4  11  135.89   20.20
  -3  -4 -11   96.39   22.70
   3   4 -11  101.79   17.40
  -3   4 -11   93.09   17.50
   3  -4 -11  109.09   22.30
   3   4  11  106.29   18.40
  -3   4 -11  117.39   17.50
   0   5  11  792.02   44.60
   0  -5 -11  853.41   47.80
   0   5 -11  872.21   39.00
  -1  -5 -11   28.40   13.70
   1   5 -11   25.40    6.90
  -1   5  11   23.50   12.40
   1  -5 -11   17.40   16.50
  -1   5 -11   22.50    6.60
   1   5  11   16.60   12.20
  -2   5  11  150.28   22.60
   2   5 -11  160.28   18.00
  -2  -5 -11  148.39   20.10
   2  -5 -11  191.58   27.70
   2   5  11  184.08   27.30
  -2   5 -11  179.98   19.00
  -2   5 -11  150.78   18.00
   3   5 -11   58.49   15.70
  -3   5  11  101.49   17.00
  -3  -5 -11   64.09   22.90
  -3   5  11   39.70   18.60
  -3  -5 -11   48.90   19.40
  -3   5 -11   56.59   15.20
   3  -5 -11   48.90   21.10
  -3   5 -11   53.59   15.10
   3   5  11   39.30   17.30
   0   6  11  302.67   26.80
   0   6 -11  304.37   15.50
   0  -6 -11  298.67   29.20
  -1  -6 -11  186.48   25.60
  -1   6  11  163.18   23.30
   1   6 -11  161.08   13.00
  -1   6 -11  181.48   13.50
   1  -6 -11  172.28   21.60
   1   6  11  192.78   22.50
  -2   6  11  236.88   25.30
  -2  -6 -11  291.57   28.90
   2   6 -11  253.47   20.20
   2   6 -11  251.77   20.40
  -2   6  11  249.28   27.30
   2   6  11  235.38   27.30
  -2   6 -11  250.47   21.30
  -2   6 -11  227.58   20.90
   2  -6 -11  257.47   30.80
  -3  -6 -11  238.88   31.70
  -3   6  11  227.28   30.30
   3   6 -11  179.18   25.40
  -3   6  11  206.98   25.70
  -3  -6 -11  226.38   29.60
   3  -6 -11  246.08   35.40
   3   6  11  220.98   26.30
  -3   6 -11  252.17   27.20
  -3   6 -11  218.18   26.10
   0   7 -11   42.00    4.90
   0  -7 -11   39.00   15.10
   0   7  11   42.60   14.70
  -1   7  11  784.42   50.29
   1   7 -11  847.82   37.70
   1   7 -11  823.62   37.70
  -1   7 -11  801.92   38.30
   1   7  11  597.94   61.29
  -1   7 -11  851.81   38.30
   2   7 -11   91.19   12.20
   2   7 -11  111.79   16.10
  -2  -7 -11  100.39   22.90
  -2   7  11   88.99   19.00
   2   7  11  164.38   20.90
  -2   7 -11  140.89   17.90
   2  -7 -11  153.58   23.90
  -2   7 -11  146.29   17.70
  -3   7  11  182.28   24.00
  -3  -7 -11  164.48   25.70
  -3   7  11  121.69   22.70
  -3  -7 -11  159.08   27.30
   3   7 -11  172.18   24.70
  -3   7 -11  144.09   19.80
   3  -7 -11  154.58   26.40
   3   7  11  102.09   22.30
  -3   7 -11  134.89   19.60
   0   8  11   41.50   15.80
  -1   8  11  189.68   26.60
   1   8 -11  204.68   13.70
   1   8 -11  207.98   13.60
  -1   8 -11  219.28   15.00
   1   8  11  223.08   26.80
  -1   8 -11  226.68   14.80
  -2   8  11   75.99   19.60
   2   8 -11   74.69   11.50
  -2  -8 -11   80.59   17.00
   2   8 -11   76.59   11.70
  -2  -8 -11   99.59   23.70
  -2   8 -11  135.99   17.60
   2   8  11   98.09   19.60
   3   8 -11  101.49   17.40
  -3   8  11   76.89   21.50
   3   8 -11  105.59   19.40
  -3  -8 -11  111.99   23.90
  -3   8  11  146.69   25.40
  -3  -8 -11   87.99   25.60
  -3   8 -11   75.09   17.30
   3   8  11   91.79   22.60
   3  -8 -11   52.49   23.70
  -3   8 -11   77.59   17.10
   0   9  11  523.45   39.40
   1   9 -11   63.09    9.50
   1   9 -11   67.29    9.60
  -1   9  11   65.49   18.30
   1   9  11   60.59   18.80
  -1   9 -11   65.69    7.90
  -1   9 -11   65.99    8.00
  -2  -9 -11  384.16   39.50
  -2  -9 -11  347.97   42.50
   2   9 -11  416.86   26.50
   2   9 -11  406.66   26.10
  -2   9  11  384.66   38.30
   2  -9 -11  373.46   38.70
   2   9  11  419.66   37.20
  -2   9 -11  439.26   27.60
  -3   9  11   78.59   24.40
   3   9 -11  102.39   18.10
  -3   9  11   70.89   23.40
  -3  -9 -11  104.79   28.10
   3   9 -11   99.29   17.00
  -3   9 -11   83.09   18.40
   3   9  11   29.80   22.30
  -3   9 -11   93.29   18.40
   0  10  11  144.49   22.80
   0 -10 -11  111.49   19.20
  -1 -10 -11  126.19   21.00
   1  10 -11  122.59   11.60
  -1  10  11  103.79   20.80
   1  10 -11  111.59   11.30
   1  10  11  104.29   21.90
  -1  10 -11  113.59   12.70
   1 -10 -11  125.79   21.60
  -1  10 -11  113.19   12.40
   2  10 -11  222.88   20.60
  -2 -10 -11  252.57   33.10
   2  10 -11  225.58   21.40
  -2 -10 -11  213.08   30.00
  -2  10  11  161.08   26.50
   2 -10 -11  247.88   36.90
   2  10  11  242.98   36.50
  -2  10 -11  277.97   21.00
  -2  10 -11  240.98   22.20
   0  11  11   94.39   22.40
   0 -11 -11  104.09   20.50
   0  11 -11  107.39    9.00
   1  11 -11  214.78   15.40
   1  11 -11  215.08   15.60
  -1 -11 -11  222.68   30.60
  -1  11  11  246.98   35.10
  -1  11 -11  229.78   16.70
   1  11  11  228.48   33.70
  -1  11 -11  244.58   16.70
   1 -11 -11  262.37   34.60
  -2 -11 -11   41.10   24.60
   2  11 -11   47.50   12.20
  -2  11  11   62.39   23.00
  -2 -11 -11   66.59   23.00
   2 -11 -11   49.10   22.20
  -2  11 -11   45.10   12.60
   2  11  11   33.50   22.40
   0 -12 -11   57.89   20.60
   0  12  11   85.39   23.70
   0  12 -11  107.39   11.30
  -1  12  11  100.09   23.40
   1  12 -11  106.59   13.00
  -1 -12 -11  114.09   22.50
  -1  12 -11   83.89   10.10
   1 -12 -11   78.29   22.40
  -1  12 -11   72.09    9.70
   1  12  11   79.79   23.60
   0 -13 -11  120.69   24.10
   0  13 -11  179.68   14.90
   0  13  11  163.08   27.80
  -1  13  11   -1.50   22.00
   1  13 -11   -1.50    7.60
  -1 -13 -11    8.80   20.00
   1  13  11  -30.60   21.10
   1 -13 -11    4.20   21.00
  -1  13 -11   -2.80    8.40
  -1  13 -11    0.90    8.20
   0   0  12    0.60    3.30
   0   0  12   -0.90    4.70
   0   0 -12    4.60    9.80
  -1   0  12  285.67   16.30
   1   0  12  298.37   17.20
   1   0 -12  275.97   25.40
  -1   0  12  303.07   16.70
  -1   0 -12  281.57   23.10
  -2   0  12   14.30    8.60
  -2   0  12   12.40    8.00
  -2   0 -12   20.30   14.20
   2   0  12    1.90    8.40
  -3   0 -12  161.98   22.80
  -3   0 -12  133.59   20.20
   3   0  12  155.68   17.30
   3   0 -12  147.69   21.70
  -3   0  12  167.88   21.10
   0   1  12  446.46   23.80
   0   1 -12  430.06   27.60
   0  -1 -12  464.35   29.90
  -1   1  12  452.75   25.20
   1   1 -12  411.36   29.60
  -1  -1 -12  437.16   30.00
  -1   1  12  438.26   24.40
   1   1  12  469.75   25.10
  -1   1 -12  506.85   28.30
   1  -1 -12  434.56   32.30
   2   1 -12   92.99   15.40
   2  -1  12  110.69   12.20
  -2  -1 -12   95.29   15.90
  -2  -1 -12   98.09   18.40
  -2   1 -12   67.29   13.80
  -2  -1  12   61.69    8.00
   2  -1 -12   49.40   16.60
   2   1  12  115.29   16.50
  -2   1 -12   73.69   15.60
  -2  -1  12   79.79   11.20
  -3   1  12   71.59   14.20
  -3  -1 -12   80.39   20.50
   3   1 -12   70.99   18.00
  -3   1  12   72.09   15.20
  -3  -1 -12  100.29   18.60
   3   1  12   63.89   14.80
   3  -1 -12   75.29   20.20
  -3  -1  12   72.29   12.30
  -3   1 -12   63.49   16.40
  -3   1 -12   82.99   19.30
  -3  -1  12   55.99   11.70
   0   2  12   69.09    9.70
   0   2 -12   58.79   10.40
   0  -2 -12   71.89   13.50
  -1  -2 -12   68.29   14.20
   1   2 -12   53.69   11.80
  -1   2  12   72.59   10.90
  -1   2  12   68.19   10.20
   1   2  12   65.79   10.60
   1  -2 -12   66.89   15.70
  -1   2 -12   72.99   10.50
  -2   2  12  248.78   21.60
  -2  -2 -12  241.08   27.00
   2   2 -12  230.98   24.30
   2   2  12  188.38   21.00
  -2   2 -12  272.57   22.90
  -2   2 -12  323.67   25.30
   2  -2 -12  270.57   28.40
  -3  -2 -12    2.90   17.80
  -3   2  12   22.60   15.90
  -3  -2 -12   27.10   17.30
   3   2 -12   24.10   16.10
  -3  -2  12   12.30    8.10
  -3   2 -12   21.50   15.50
   3  -2 -12   26.70   19.30
  -3   2 -12   19.60   16.60
   3   2  12   21.90   14.90
  -3  -2  12   11.60    9.40
   0   3 -12  970.00   47.60
   0   3  12  997.20   48.90
   0  -3 -12  977.00   52.99
  -1   3  12  288.27   22.80
  -1  -3 -12  273.77   26.40
   1   3 -12  307.87   22.50
   1   3  12  368.86   22.10
   1  -3 -12  258.47   27.10
  -1   3 -12  289.67   20.60
  -2   3  12  300.87   24.10
   2   3 -12  286.07   24.30
  -2  -3 -12  282.07   29.30
  -2   3  12  253.47   25.30
   2   3  12  310.67   25.20
  -2   3 -12  292.37   23.80
   2  -3 -12  284.27   31.90
  -2   3 -12  303.17   23.90
   3   3 -12   50.69   15.70
  -3   3  12   49.50   15.40
  -3   3  12   64.39   17.60
  -3  -3 -12   34.10   21.10
  -3  -3 -12   50.99   18.70
  -3   3 -12   73.09   17.10
   3  -3 -12   50.19   20.70
   3   3  12   77.29   16.90
  -3   3 -12   76.29   18.90
   0   4 -12  318.77   19.80
   0  -4 -12  312.77   29.20
  -1  -4 -12  116.99   17.50
   1   4 -12  135.39   15.50
   1  -4 -12  114.49   19.20
  -1   4 -12  128.79   14.20
  -2   4  12  143.49   21.20
  -2  -4 -12  115.79   18.60
   2   4 -12  144.39   18.90
  -2   4  12  131.59   18.10
   2  -4 -12  106.39   21.20
   2   4  12  113.59   16.90
  -2   4 -12  117.09   14.40
  -3  -4 -12  186.38   27.50
  -3  -4 -12  173.38   24.40
   3   4 -12  191.08   26.60
  -3   4  12  213.58   30.00
   3   4  12  213.58   29.90
  -3   4 -12  194.08   26.20
  -3   4 -12  226.78   28.60
   3  -4 -12  222.58   28.40
   0   5 -12  780.32   37.20
   0  -5 -12  780.92   47.00
   0   5  12  768.12   43.00
  -1  -5 -12  790.12   47.60
   1   5 -12  816.02   40.40
  -1   5  12  773.82   44.80
   1   5  12  880.51   45.90
  -1   5 -12  848.42   40.10
   1  -5 -12  837.92   49.50
   2   5 -12  140.69   17.90
  -2   5  12  143.89   18.00
  -2  -5 -12  127.69   20.00
   2   5  12  137.99   19.00
  -2   5 -12  144.09   18.90
   2  -5 -12  148.79   23.60
  -3   5  12  105.29   17.50
  -3  -5 -12   72.19   21.50
  -3  -5 -12   45.30   23.30
  -3   5  12   94.99   20.70
   3   5 -12   75.39   16.80
  -3   5 -12   62.29   17.10
  -3   5 -12   85.99   17.00
   3   5  12   66.29   19.00
   3  -5 -12   84.49   23.90
   0   6  12  287.37   25.90
   0  -6 -12  276.37   28.30
   0   6 -12  286.87   16.40
  -1  -6 -12  495.45   35.30
  -1   6  12  484.75   33.70
   1   6 -12  451.55   24.10
  -1   6 -12  422.86   24.00
   1   6  12  398.96   31.30
   1  -6 -12  422.76   35.90
   2   6 -12  310.27   23.70
  -2   6  12  413.96   40.10
  -2  -6 -12  398.56   33.70
  -2   6  12  356.56   31.10
   2  -6 -12  310.57   34.60
   2   6  12  289.47   31.10
  -2   6 -12  324.17   24.50
   3   6 -12   20.90   14.60
  -3   6  12   34.80   19.90
  -3  -6 -12   13.90   20.40
  -3   6  12   25.20   17.70
  -3  -6 -12   40.60   23.50
   3  -6 -12  -15.80   21.00
  -3   6 -12   25.50   15.20
   3   6  12   16.70   18.20
  -3   6 -12   28.60   15.60
   0  -7 -12  238.28   28.60
   0   7  12  155.98   32.50
   0   7 -12  270.07   13.80
  -1   7  12   86.99   17.70
  -1  -7 -12   94.59   19.10
   1   7 -12   89.19   11.20
   1   7  12  110.99   18.30
   1  -7 -12  123.59   21.20
  -1   7 -12  136.39   13.10
  -1   7 -12  126.59   12.50
   2   7 -12  211.28   19.60
  -2   7  12  223.38   28.40
   2   7 -12  200.68   19.70
  -2  -7 -12  260.27   30.90
  -2   7 -12  223.18   20.60
   2   7  12  202.28   28.00
   2  -7 -12  199.08   27.00
   3   7 -12   41.70   15.20
  -3  -7 -12   24.00   21.50
  -3   7  12   22.10   20.50
   3   7 -12   16.40   15.20
  -3   7  12    7.20   17.80
  -3  -7 -12   51.39   25.10
   3   7  12   14.50   19.70
  -3   7 -12   15.80   15.70
   3  -7 -12    0.00   22.60
  -3   7 -12   18.80   15.20
   0   8  12  135.89   20.50
   0   8 -12  120.39    7.80
   1   8 -12  152.28   12.00
  -1   8  12  125.89   20.30
   1   8 -12  152.58   11.80
   1  -8 -12  103.49   21.80
  -1   8 -12  110.69   12.80
   1   8  12  100.69   19.20
  -1   8 -12  123.09   12.70
   2   8 -12   69.49   11.40
  -2  -8 -12   60.19   20.00
  -2   8  12   38.60   18.20
  -2  -8 -12   61.09   22.70
   2   8 -12   68.09   11.70
   2  -8 -12   55.99   20.80
   2   8  12   42.40   18.40
  -2   8 -12   61.69   12.30
   0   9  12   35.10   17.50
   1   9 -12  320.97   18.20
  -1   9  12  324.47   34.60
   1   9 -12  317.27   18.10
  -1   9 -12  334.17   19.20
  -1   9 -12  332.77   19.30
   1   9  12  308.17   32.90
  -2  -9 -12   16.70   19.80
  -2   9  12  -15.50   18.40
  -2  -9 -12  -14.40   21.80
   2   9 -12    8.10    9.70
   2   9 -12    9.70   10.10
   2   9  12   18.40   18.80
  -2   9 -12   22.40   11.20
   2  -9 -12   17.30   20.20
   0 -10 -12   90.19   20.60
   0  10  12   74.19   20.10
  -1 -10 -12   -4.50   18.00
  -1  10  12   20.00   18.30
   1  10 -12   19.50    6.30
   1  10 -12   17.70    6.30
   1 -10 -12   41.20   19.20
  -1  10 -12   25.90    7.20
  -1  10 -12   33.30    7.20
   1  10  12   52.49   20.20
   2  10 -12   97.89   18.70
  -2 -10 -12   96.09   23.50
  -2 -10 -12  108.79   28.10
   2  10 -12  105.39   13.20
  -2  10  12  111.99   23.40
   2 -10 -12   77.89   24.80
   2  10  12  108.49   23.60
  -2  10 -12  105.39   14.50
   0  11  12  334.37   38.20
   0  11 -12  368.26   17.30
   0 -11 -12  357.16   36.00
  -1  11  12    5.70   19.40
  -1 -11 -12   13.00   19.00
   1  11 -12    3.00    6.20
   1  11 -12   -1.90    6.00
  -1  11 -12    5.80    7.10
  -1  11 -12    5.20    7.00
   1 -11 -12   -0.70   19.30
   1  11  12    6.30   19.70
   0  12  12    7.30   21.00
   0 -12 -12   -4.60   19.00
   0  12 -12   -5.30    4.80
  -1 -12 -12  153.38   26.60
  -1  12  12  129.89   26.00
   1  12 -12  125.79   14.00
  -1  12 -12  172.58   15.50
   1 -12 -12  156.88   27.00
   1  12  12  145.39   27.00
  -1  12 -12  186.58   15.20
   0   0 -13    9.00   10.60
   1   0 -13  973.50   53.29
  -1   0  13  969.60   44.20
   1   0  13  988.70   44.80
  -1   0 -13 1017.00   51.29
  -1   0  13  971.70   44.10
  -2   0 -13   30.80   15.90
  -2   0 -13   17.80   12.70
  -2   0  13   43.10    8.60
   2   0 -13   32.90   15.10
  -2   0  13   38.60    9.00
   2   0  13   31.40    8.90
  -3   0 -13  139.39   24.20
  -3   0  13  182.88   21.80
   3   0  13  234.58   21.80
   3   0 -13  177.18   25.20
  -3   0 -13  172.78   23.50
   0   1 -13   17.80   10.30
   0   1  13    1.70    6.10
   0  -1 -13    3.10   11.20
   1   1 -13   19.80   11.90
  -1   1  13   41.10    8.20
  -1   1  13   37.50    7.80
  -1  -1 -13   38.80   12.30
   1   1  13   19.50    7.80
   1  -1 -13    7.40   13.90
  -1   1 -13    4.60   10.50
   2   1 -13  196.38   30.50
  -2   1  13  158.08   17.60
  -2   1  13  168.38   18.90
  -2  -1 -13  167.88   22.90
  -2  -1 -13  110.59   32.80
  -2  -1  13  164.28   13.00
  -2  -1  13  164.28   10.80
   2   1  13  209.88   18.70
  -2   1 -13  163.38   22.60
   2  -1 -13  120.79   20.10
  -2   1 -13  158.88   20.30
  -3   1  13  260.67   24.80
  -3   1  13  224.68   25.80
  -3  -1 -13  229.58   31.10
  -3  -1 -13  227.78   28.40
   3   1 -13  267.67   32.80
  -3  -1  13  234.18   20.60
  -3   1 -13  253.07   29.90
   3  -1 -13  247.48   34.90
   3   1  13  245.18   25.60
  -3  -1  13  243.68   20.00
  -3   1 -13  216.78   33.00
   0  -2 -13  866.01   47.40
   0   2 -13  863.41   44.40
   0   2  13  826.72   41.80
  -1  -2 -13   33.60   22.50
   1   2 -13   31.10   11.60
  -1   2  13   29.30    8.80
  -1   2  13   23.00    9.60
   1   2  13   14.70    9.20
   1  -2 -13   10.50   16.00
  -1   2 -13   24.10   10.00
  -2   2  13  516.75   32.00
  -2  -2 -13  528.85   36.70
   2   2 -13  502.55   36.80
   2  -2 -13  592.44   41.80
  -2   2 -13  603.24   37.40
  -3   2  13   39.90   19.10
   3   2 -13   60.19   17.50
  -3  -2 -13   50.59   22.20
  -3  -2 -13   63.89   19.40
   3   2  13   35.90   15.40
  -3  -2  13   47.40    8.10
  -3  -2  13   40.40    6.90
  -3   2 -13   58.49   20.20
   3  -2 -13   59.19   21.50
  -3   2 -13   36.60   16.50
   0   3  13   50.79   10.90
   0  -3 -13   67.79   17.80
   0   3 -13   58.89   10.50
  -1  -3 -13   21.90   13.90
   1   3 -13   26.40   10.60
  -1   3 -13   27.30    9.20
   1  -3 -13   30.40   15.40
  -2  -3 -13  209.28   26.40
  -2   3  13  214.08   24.40
   2   3 -13  221.28   23.50
  -2   3  13  219.48   22.60
  -2   3 -13  222.28   24.70
   2   3  13  230.58   23.40
   2  -3 -13  220.38   26.50
  -2   3 -13  218.78   24.50
  -3   3  13   48.30   17.70
  -3   3  13   66.69   16.30
  -3  -3 -13   40.10   20.00
   3   3 -13   60.99   17.50
  -3  -3 -13   36.00   22.50
   3   3  13   61.99   18.20
  -3   3 -13   73.49   19.20
  -3   3 -13   63.19   17.80
   3  -3 -13   60.09   23.40
   0   4 -13  124.69   14.90
   0  -4 -13  103.59   18.30
   1   4 -13  554.14   34.00
  -1   4  13  694.13   36.70
  -1  -4 -13  571.94   39.50
  -1   4 -13  637.94   33.40
   1  -4 -13  657.53   43.60
   1   4  13  647.64   36.70
   2   4 -13   14.60   11.40
  -2  -4 -13   16.20   16.10
  -2   4  13    6.80   14.00
  -2   4  13   18.80   13.20
   2  -4 -13   19.20   18.40
   2   4  13    1.40   13.90
  -2   4 -13   12.20   11.00
   3   4 -13   84.19   18.10
  -3  -4 -13   90.29   25.10
  -3  -4 -13   69.19   21.80
  -3   4  13   90.29   19.90
   3  -4 -13   62.49   24.70
  -3   4 -13  118.49   21.40
  -3   4 -13  121.89   18.60
   3   4  13  108.99   20.60
   0   5 -13  475.15   26.40
   0  -5 -13  499.55   36.40
   0   5  13  470.55   32.20
  -1  -5 -13  153.28   21.10
   1   5 -13  133.19   15.90
  -1   5  13  173.58   22.60
  -1   5 -13  168.98   15.70
   1   5  13  136.79   17.40
   1  -5 -13  154.98   22.10
   2   5 -13   35.50   11.50
  -2   5  13   33.10   16.60
  -2  -5 -13   26.60   17.00
  -2   5  13   28.40   13.60
  -2   5 -13   20.60   11.10
   2   5  13    9.30   14.50
   2  -5 -13   14.70   18.80
  -3  -5 -13  164.18   30.90
  -3   5  13  246.68   29.90
  -3  -5 -13  218.28   28.30
   3   5 -13  233.08   28.30
  -3   5  13  172.18   24.10
   3  -5 -13  119.09   28.80
   3   5  13  236.88   32.90
  -3   5 -13  207.88   27.60
  -3   5 -13  194.58   29.40
   0   6 -13  493.85   25.60
   0   6  13  474.75   34.80
   0  -6 -13  476.05   37.00
   1   6 -13  204.68   15.50
  -1   6  13  122.89   29.80
  -1  -6 -13  180.18   27.40
   1  -6 -13  191.28   24.80
  -1   6 -13  176.08   15.50
   1   6  13  110.39   31.90
   2   6 -13  242.18   24.70
  -2  -6 -13  225.18   31.50
  -2   6  13  259.47   30.80
   2   6  13  219.78   29.20
   2  -6 -13  235.18   29.80
  -2   6 -13  229.78   22.30
  -3  -6 -13   12.70   28.90
  -3  -6 -13   54.09   26.30
  -3   6  13   15.50   19.50
   3   6 -13   16.60   15.20
  -3   6  13   44.10   18.50
  -3   6 -13   22.20   16.30
   3   6  13   -9.20   18.70
   3  -6 -13  -32.60   23.60
  -3   6 -13   -3.50   15.70
   0   7 -13   -1.90    5.20
   0  -7 -13   13.40   15.90
   0   7  13   -0.50   14.60
  -1  -7 -13   29.70   17.20
   1   7 -13   32.60    7.20
  -1   7  13   43.00   16.80
  -1   7 -13   14.70    7.60
   1   7  13   21.70   15.40
   1  -7 -13   24.90   18.60
  -1   7 -13   15.20    7.20
   2   7 -13  142.29   19.50
  -2   7  13  189.38   28.50
  -2  -7 -13  178.68   25.60
   2  -7 -13  167.08   27.20
   2   7  13  182.68   27.30
  -2   7 -13  153.48   20.40
   0   8  13  329.17   32.30
   0  -8 -13  363.36   36.90
   0   8 -13  390.46   19.00
  -1  -8 -13  397.16   35.90
   1   8 -13  378.26   20.90
  -1   8  13  377.36   36.00
  -1   8 -13  398.46   21.90
   1  -8 -13  375.06   38.80
  -1   8 -13  376.46   21.90
   1   8  13  328.47   33.20
  -2   8  13   60.09   20.50
  -2  -8 -13   57.19   21.40
   2   8 -13   62.49   12.00
  -2   8 -13   79.09   13.00
   2  -8 -13   95.69   24.30
   2   8  13   80.59   20.50
   0  -9 -13   31.90   17.80
   0   9  13   33.60   18.70
  -1   9  13   59.09   20.30
   1   9 -13   60.69    7.60
  -1  -9 -13   84.59   21.10
   1   9  13   64.19   19.50
  -1   9 -13   64.79    8.50
   1  -9 -13   66.79   21.10
  -1   9 -13   54.39    8.40
  -2   9  13    8.80   20.10
  -2  -9 -13   34.20   25.10
   2   9 -13   14.70   11.90
  -2  -9 -13   30.50   21.60
  -2   9 -13   25.50   11.70
   2  -9 -13   17.70   23.10
   2   9  13   10.30   18.90
   0  10  13  334.07   35.70
   0 -10 -13  387.86   37.30
   1  10 -13  157.28   12.90
   1  10 -13  158.28   12.90
  -1  10  13  100.99   23.50
  -1 -10 -13  122.39   24.60
  -1  10 -13  164.08   14.20
   1 -10 -13  140.19   24.90
   1  10  13  189.68   26.30
  -1  10 -13  161.18   14.40
   0  11  13   22.00   20.30
   0 -11 -13   -1.90   19.40
  -1  11  13   28.10   22.10
  -1 -11 -13   43.80   22.20
   1  11 -13   27.40    6.90
   1  11 -13   44.50    7.30
   1  11  13   35.80   21.20
   1 -11 -13    9.40   21.60
  -1  11 -13   37.40    7.80
  -1  11 -13   37.30    8.00
   0 -12 -13  132.69   29.00
   0  12  13  122.29   26.30
   0   0 -14  641.64   39.20
   1   0  14    3.80    3.90
   1   0 -14    5.50   13.40
  -1   0 -14    3.80   11.40
  -2   0  14  251.47   16.60
   2   0  14  225.08   17.80
  -2   0 -14  208.48   30.60
  -2   0  14  235.58   16.20
   2   0 -14  245.18   30.70
  -2   0 -14  206.18   24.80
   3   0 -14  104.09   22.90
  -3   0 -14  126.09   24.30
  -3   0  14  142.59   19.80
  -3   0 -14  154.18   22.20
  -3   0  14  191.08   20.50
   0  -1 -14  194.78   24.40
   0   1  14  188.48   13.70
   0   1 -14  195.48   22.10
   0   1  14  180.68   13.70
  -1   1  14  185.68   14.60
   1   1 -14  185.58   24.20
  -1  -1 -14  140.19   27.80
  -1   1  14  179.88   15.00
   1   1  14  193.08   15.50
  -1   1 -14  172.08   21.70
  -2  -1 -14  232.78   27.30
  -2   1  14  207.48   19.30
   2   1 -14  247.08   28.20
  -2   1  14  214.28   18.90
  -2   1 -14  156.58   24.30
   2   1  14  196.58   19.20
   2  -1 -14  170.08   23.70
  -3   1  14  128.39   16.10
  -3  -1 -14  149.49   22.90
   3   1 -14  101.69   21.70
  -3  -1 -14  106.69   24.60
   3   1  14  101.29   16.30
  -3  -1  14   99.49   14.00
   3  -1 -14   95.39   24.00
  -3   1 -14  105.89   22.90
  -3  -1  14  129.59   15.40
  -3   1 -14   90.89   20.60
   0   2 -14   12.60   10.70
   0   2  14   34.30    8.90
   1   2 -14  408.36   29.30
  -1  -2 -14  387.86   31.20
  -1   2  14  397.06   25.30
  -1   2  14  390.46   24.20
  -1   2 -14  406.66   27.70
   1   2  14  369.26   24.60
   1  -2 -14  375.56   33.70
  -2  -2 -14   79.09   17.90
  -2   2  14   57.99   12.30
   2   2 -14   53.79   15.90
   2  -2 -14   58.19   20.40
  -2   2 -14   65.39   16.90
  -2   2 -14   54.69   14.80
  -3   2  14   30.30   22.80
   3   2 -14   35.10   18.60
  -3  -2 -14   23.10   19.50
  -3   2  14   24.60   22.00
  -3  -2 -14   18.70   22.60
  -3   2 -14    1.50   17.90
   3  -2 -14   12.60   22.00
  -3   2 -14   22.10   16.60
   3   2  14   25.80   15.60
   0  -3 -14  248.08   28.50
   0   3  14  259.97   21.10
   0   3 -14  233.58   21.50
   1   3 -14   51.79   12.50
  -1   3  14   47.10   11.10
  -1  -3 -14   66.29   16.50
  -1   3 -14   33.20   10.60
   1  -3 -14   44.80   17.20
  -2  -3 -14  214.28   28.30
  -2   3  14  195.08   23.30
  -2   3  14  201.78   22.70
  -2   3 -14  187.18   23.00
  -2   3 -14  203.38   25.90
   2   3  14  186.48   23.30
   2  -3 -14  174.28   25.30
  -3   3  14   88.99   17.40
  -3   3  14   69.39   18.40
  -3  -3 -14   64.39   22.20
   3   3 -14   35.50   18.40
  -3  -3 -14  107.29   25.80
  -3   3 -14  101.79   21.60
   3   3  14   80.99   18.80
  -3   3 -14   73.39   19.10
   3  -3 -14   41.30   24.10
   0  -4 -14  358.06   33.00
   0   4 -14  317.17   23.10
   1   4 -14   52.99   11.50
  -1  -4 -14   37.50   16.20
  -1   4  14   61.19   14.10
   1  -4 -14   64.59   19.60
  -1   4 -14   50.19   10.50
   1   4  14   46.70   13.20
  -2  -4 -14  274.37   33.70
   2   4 -14  301.47   33.40
  -2   4  14  307.67   28.60
  -2   4 -14  333.17   27.80
  -2   4 -14  238.78   36.60
   2  -4 -14  388.46   37.70
   3   4 -14  119.79   20.90
  -3   4  14  127.39   22.70
  -3  -4 -14  162.28   29.60
  -3  -4 -14  156.68   27.50
  -3   4 -14  122.29   20.70
   3   4  14  202.38   29.90
   3  -4 -14  144.09   29.70
  -3   4 -14  151.38   22.80
   0   5 -14   27.10    8.90
   0   5  14   30.20   13.90
   0  -5 -14   28.50   17.00
  -1  -5 -14  103.99   20.00
  -1   5  14  105.89   16.90
   1   5 -14  107.19   16.10
  -1   5 -14  108.19   15.40
   1   5  14  105.59   16.50
   1  -5 -14   86.39   20.60
  -2   5  14   42.60   16.40
  -2   5  14   30.70   14.60
  -2  -5 -14   67.29   19.40
   2   5 -14   47.70   12.70
   2  -5 -14   29.50   21.30
   2   5  14   19.50   15.40
  -2   5 -14   38.90   12.90
   0  -6 -14  136.39   22.30
   0   6 -14  134.19   14.70
  -1  -6 -14  387.86   34.70
   1   6 -14  388.16   22.40
  -1   6 -14  303.07   21.80
   1  -6 -14  333.07   38.10
   1   6  14  294.67   31.10
  -2  -6 -14   55.89   20.50
   2   6 -14   33.90   12.20
  -2   6  14   29.70   18.50
   2   6  14   34.20   17.60
   2  -6 -14   24.40   22.40
  -2   6 -14   53.29   14.30
   0   7 -14  525.05   27.40
   0   7  14  530.55   38.90
   0  -7 -14  520.95   40.60
  -1   7  14   88.19   19.70
   1   7 -14   75.39    9.60
  -1  -7 -14   72.49   20.00
  -1   7 -14   89.19   10.70
   1   7  14   88.09   18.80
  -1   7 -14  100.89   13.80
   1  -7 -14   88.39   22.80
  -2   7  14  183.48   24.50
  -2   7  14  225.48   28.20
  -2  -7 -14  155.58   25.40
   2   7 -14  201.78   21.30
   2  -7 -14  143.39   29.30
   2   7  14  139.99   22.30
  -2   7 -14  203.88   22.10
   0   8 -14  194.18   14.20
   0   8  14  247.68   32.10
   0  -8 -14  205.68   31.20
  -1   8  14   33.00   18.50
  -1  -8 -14   32.00   19.40
   1   8 -14   32.20    7.30
   1   8  14   21.40   17.20
  -1   8 -14   22.30    7.80
   1  -8 -14   28.50   19.60
  -1   8 -14   19.60    8.20
  -2   8  14   64.09   21.40
   2   8 -14   81.99   13.10
  -2  -8 -14   89.69   24.40
   2   8  14   56.79   20.60
  -2   8 -14   90.19   14.10
   2  -8 -14   73.39   25.80
   0   9  14    2.80   17.60
   0  -9 -14   14.70   19.40
   0   9 -14    3.70    4.60
   1   9 -14  221.88   15.60
  -1   9  14  216.88   32.30
  -1  -9 -14  230.18   28.70
  -1   9 -14  218.08   16.50
   1   9  14  239.78   34.00
  -1   9 -14  225.28   17.30
   1  -9 -14  216.68   29.50
   0 -10 -14   94.19   23.70
   0  10  14   93.59   23.90
  -1  10  14  136.69   25.20
   1  10 -14  162.88   13.60
  -1 -10 -14  127.29   25.80
   1 -10 -14  115.29   26.40
   1  10  14  176.58   26.30
  -1  10 -14  174.68   14.60
  -1  10 -14  181.38   15.30
   0  11  14  218.28   29.20
   0 -11 -14  189.38   48.20
   0   0 -15   12.10   13.30
  -1   0 -15   27.90   13.50
   1   0 -15   23.20   15.40
   2   0 -15  261.77   33.20
  -2   0 -15  232.58   29.00
  -2   0 -15  243.78   33.70
   2   0  15  272.97   17.30
   0  -1 -15  449.26   35.10
   0   1  15  431.26   22.00
   0   1  15  428.66   21.60
   0   1 -15  426.66   31.50
  -1  -1 -15  133.79   18.40
  -1   1  15  139.49   12.40
   1   1 -15  129.99   19.20
  -1   1  15  123.99   11.80
   1   1  15  150.48   13.60
   1  -1 -15  117.59   19.90
  -1   1 -15  110.19   23.20
  -2   1  15   78.29   11.10
  -2  -1 -15   72.39   18.00
   2   1 -15   72.49   17.60
  -2   1  15   48.80   10.00
  -2   1 -15   89.59   18.80
  -2   1 -15   52.69   15.70
   2   1  15   37.60   10.80
   2  -1 -15   65.69   20.40
   0  -2 -15    9.00   14.80
   0   2  15    8.70    8.10
   0   2 -15    9.80   11.50
  -1  -2 -15  185.98   27.10
  -1   2  15  165.68   17.10
  -1   2  15  167.78   17.90
   1   2 -15  138.79   18.60
  -1   2 -15  207.68   22.60
   1  -2 -15  208.18   29.60
   1   2  15  189.78   18.10
  -2   2  15    2.00   10.70
  -2  -2 -15   -2.00   16.00
   2   2 -15   -6.00   14.60
   2  -2 -15  -27.60   18.40
  -2   2 -15   19.80   19.00
  -2   2 -15    3.70   13.50
   0   3  15  348.07   22.70
   0  -3 -15  278.17   32.40
   0   3 -15  265.57   24.40
  -1  -3 -15  324.07   32.00
   1   3 -15  322.97   27.30
  -1   3  15  310.77   24.20
  -1   3 -15  340.97   25.40
   1  -3 -15  353.96   36.20
  -2  -3 -15   80.89   20.20
   2   3 -15   81.29   16.70
  -2   3  15   87.09   15.00
  -2   3  15   67.49   15.50
   2   3  15  102.49   16.10
  -2   3 -15   87.59   16.20
   2  -3 -15   81.59   23.10
   0   4 -15   27.60   10.70
   0  -4 -15   30.70   17.10
  -1  -4 -15    0.00   15.70
  -1   4  15    9.70   12.60
  -1   4  15   24.70   12.00
   1   4 -15    3.30   10.50
   1  -4 -15    4.10   18.10
  -1   4 -15   -1.10   13.70
   1   4  15    8.00   11.60
   2   4 -15  126.39   17.40
  -2  -4 -15  144.29   23.30
  -2   4 -15  181.78   25.00
   2  -4 -15  124.79   26.30
  -2   4 -15  176.88   23.40
   2   4  15  169.28   24.90
   0   5 -15  262.27   21.40
   0  -5 -15  235.78   32.60
   0   5  15  302.87   27.50
  -1   5  15  287.57   27.60
   1   5 -15  265.27   22.10
  -1  -5 -15  259.37   33.50
  -1   5 -15  264.17   21.80
   1   5  15  236.08   35.80
   1  -5 -15  239.08   34.30
   2   5 -15  207.68   30.90
  -2  -5 -15  255.67   36.80
  -2   5  15  284.47   33.60
  -2   5  15  274.07   31.90
  -2   5 -15  311.37   27.30
   2   5  15  324.77   31.50
  -2   5 -15  317.97   27.20
   2  -5 -15  326.17   40.50
   0  -6 -15   91.49   21.20
   0   6 -15  106.19   15.40
   0   6  15   71.69   17.40
   1   6 -15  157.58   16.80
  -1  -6 -15  164.48   24.40
  -1   6  15  155.68   20.50
   1   6  15   98.69   18.40
  -1   6 -15  120.29   16.70
   1  -6 -15  103.89   24.60
  -2   6  15   69.69   16.70
  -2  -6 -15   47.90   21.30
  -2   6  15   25.70   19.50
   2  -6 -15    4.90   24.50
   2   6  15    4.50   17.60
  -2   6 -15   40.80   13.80
  -2   6 -15   30.70   13.20
   0   7  15  360.86   33.90
   0   7 -15  339.37   21.50
   0  -7 -15  321.57   36.70
  -1  -7 -15  306.77   36.10
   1   7 -15  291.27   20.90
  -1   7  15  301.27   34.30
   1  -7 -15  383.26   40.00
  -1   7 -15  342.37   22.40
   1   7  15  374.56   35.00
  -1   7 -15  321.47   22.80
  -2   7  15   25.60   18.10
  -2  -7 -15   22.60   25.60
  -2   7  15   32.60   20.00
   2   7 -15   22.40   13.70
  -2   7 -15   19.40   13.40
  -2   7 -15   27.70   14.10
   2   7  15   44.20   18.40
   2  -7 -15    2.20   28.40
   0   8  15   29.10   18.70
   0  -8 -15   12.40   20.20
   0   8 -15   20.60    7.00
  -1   8  15   -9.50   17.40
  -1  -8 -15   -2.80   19.70
   1   8 -15    3.40    7.40
  -1   8 -15   -5.90    8.20
  -1   8 -15    5.20    7.90
   1   8  15    4.70   19.20
   1  -8 -15    2.80   21.40
   0  -9 -15  426.76   43.40
   0   9  15  459.95   41.50
   0   9 -15  432.76   22.40
   1   9 -15   12.70    7.10
  -1  -9 -15   12.90   29.30
  -1   9  15    9.70   20.90
  -1   9 -15    9.40    7.90
   1  -9 -15   13.10   25.20
  -1   9 -15   10.70    8.60
   1   9  15   16.60   20.40
   0   0 -16 1109.49   59.99
  -1   0 -16  -11.50   13.90
   1   0 -16  -23.50   14.90
  -2   0 -16  267.87   31.80
   2   0 -16  261.27   35.60
  -2   0 -16  203.88   27.30
   0  -1 -16    1.30   14.60
   1   1 -16  101.49   18.60
  -1  -1 -16  114.19   19.30
   1   1  16  118.49   10.30
  -1   1 -16   96.89   16.90
   1  -1 -16   99.89   21.20
  -2   1  16   31.40    8.60
  -2  -1 -16   22.20   17.90
  -2   1  16   21.40    7.30
   2   1 -16   31.50   17.50
   2  -1 -16   28.30   20.80
  -2   1 -16   22.20   17.90
  -2   1 -16   20.20   15.80
   2   1  16   28.20    9.70
   0  -2 -16    6.50   16.00
   0   2  16    7.80    8.00
   0   2  16   16.30    8.00
   0   2 -16   21.10   13.20
  -1  -2 -16  501.65   38.10
  -1   2  16  497.65   27.20
  -1   2 -16  431.96   40.30
   1  -2 -16  537.05   42.10
   1   2  16  445.36   27.60
  -2   2  16   25.30   11.50
  -2  -2 -16   41.00   18.60
   2   2 -16   16.30   16.70
  -2   2 -16   28.70   16.00
   2  -2 -16   49.20   23.50
  -2   2 -16   28.50   17.70
   0  -3 -16  230.18   32.10
   0   3 -16  198.48   24.70
   0   3  16  312.67   21.50
   1   3 -16   44.30   14.50
  -1   3  16   33.50   11.30
  -1  -3 -16   20.90   17.10
   1  -3 -16   31.70   19.40
  -1   3 -16   35.00   13.60
  -2   3  16   37.80   13.60
  -2  -3 -16   37.00   20.10
   2   3 -16   69.79   17.40
   2   3  16   45.30   14.10
  -2   3 -16   54.69   15.90
   2  -3 -16   55.69   23.90
  -2   3 -16   78.59   18.50
   0   4  16  229.48   21.40
   0   4 -16  182.78   21.80
   0  -4 -16  168.78   24.50
  -1   4  16  108.39   16.50
  -1   4  16  112.59   16.00
  -1  -4 -16  108.69   21.50
   1   4 -16  134.59   16.40
   1   4  16  152.68   21.50
   1  -4 -16  135.29   24.70
  -1   4 -16  133.89   20.30
  -2  -4 -16   30.90   20.80
   2   4 -16   18.40   14.40
   2  -4 -16   56.89   25.70
  -2   4 -16   73.79   16.20
  -2   4 -16   31.00   19.60
   2   4  16   38.90   16.00
   0  -5 -16   11.50   18.50
   0   5 -16   20.10   10.90
   0   5  16   28.70   14.40
   1   5 -16  221.08   22.50
  -1  -5 -16  299.97   35.70
  -1   5 -16  256.67   22.80
   1   5  16  175.68   30.40
   1  -5 -16  273.67   39.50
   0  -6 -16   43.00   20.00
   0   6  16   35.00   16.60
   0   6 -16   52.29   10.90
  -1  -6 -16  118.99   24.50
  -1   6  16  136.99   21.00
   1   6 -16   99.39   13.20
   1   6  16  150.08   20.50
   1  -6 -16  140.39   26.70
  -1   6 -16  109.29   25.50
   0   7  16   33.60   19.30
   0   7 -16   52.29   10.00
   0  -7 -16   47.40   22.10
   1   7 -16   15.90    9.00
  -1   7  16    8.50   18.90
  -1  -7 -16   23.70   20.80
  -1   7 -16    0.00    9.70
  -1   7 -16   -5.90    9.60
   1   7  16   16.50   17.40
   1  -7 -16   -1.60   23.50
   0   8 -16  157.08   15.10
   0  -8 -16  132.59   27.80
   0   8  16  169.18   25.30
   0   0 -17   -1.80   15.70
  -1   0 -17  241.38   30.70
   1   0 -17  301.77   33.50
   0   1 -17    5.50   14.40
   0  -1 -17   15.60   16.10
  -1  -1 -17   32.50   16.90
   1   1 -17   16.70   16.90
  -1   1 -17   22.70   15.40
   1  -1 -17   21.40   18.40
   0   2  17  214.88   14.70
   0   2  17  188.08   14.90
   0  -2 -17  225.28   32.40
   0   2 -17  219.58   26.40
  -1   2  17    0.80    7.00
   1   2 -17   -5.20   14.50
  -1   2  17    2.80    7.80
  -1  -2 -17   -8.30   16.30
   1  -2 -17    1.40   18.90
   1   2  17    1.40    8.80
  -1   2 -17    0.80   13.70
   0  -3 -17   11.90   18.20
   0   3 -17   17.00   17.10
   0   3  17   16.60    9.90
  -1  -3 -17   72.99   20.40
   1   3 -17   41.60   15.60
  -1   3  17   57.89   12.00
  -1   3 -17   59.89   15.20
   1  -3 -17   73.69   22.80
   0   4 -17    3.10   12.40
   0  -4 -17   14.50   18.50
  -1  -4 -17  240.98   35.40
  -1   4  17  273.87   25.30
  -1   4  17  247.88   24.50
   1  -4 -17  268.37   32.10
   1   4  17  232.18   25.50
  -1   4 -17  184.88   29.70
   0  -5 -17    7.10   20.00
   0   5  17    0.10   23.10
   0   5 -17   23.50   13.10
   1   5 -17   42.60   13.30
  -1  -5 -17   33.50   21.60
  -1   5 -17   35.50   13.30
   1  -5 -17   47.10   23.80
   1   5  17   56.79   18.10
   0  -6 -17  387.76   43.70
   0   6 -17  361.46   26.10
   0   6  17  342.07   32.70
   0   0 -18  118.99   21.80
  -1   0 -18   34.20   18.70
   1   0 -18   31.10   19.50
   0  -1 -18  151.78   23.10
   0   1 -18  127.19   20.20
   1   1 -18  261.57   33.80
  -1  -1 -18  247.68   34.70
   1  -1 -18  215.38   28.80
  -1   1 -18  248.58   31.10
   0  -2 -18   10.60   19.70
   0   2 -18   13.70   15.30
   0   3 -18  358.46   30.90
   0   3  18  306.67   22.30
   0   3  18  287.57   22.30
   0  -3 -18  304.77   36.00
   0   0   0    0.00    0.00

_computing_structure_solution     'SHELXT 2018/2 (Sheldrick, 2018)'
;
loop_
_space_group_symop_operation_xyz
'x, y, z'
'-x+1/2, -y, z+1/2'
'-x, y+1/2, -z+1/2'
'x+1/2, -y+1/2, -z'
loop_
_atom_site_label
_atom_site_type_symbol
_atom_site_fract_x
_atom_site_fract_y
_atom_site_fract_z
_atom_site_U_iso_or_equiv
_atom_site_adp_type
_atom_site_occupancy
_atom_site_site_symmetry_order
_atom_site_calc_flag
_atom_site_refinement_flags_posn
_atom_site_refinement_flags_adp
_atom_site_refinement_flags_occupancy
_atom_site_disorder_assembly
_atom_site_disorder_group
Br1 Br 0.44512(10) 0.13585(3) 0.59935(3) 0.02082(13) Uani 1 1 d . . . . .
C1 C 0.6521(10) 0.5242(3) 0.6165(3) 0.0197(10) Uani 1 1 d . . . . .
C2 C 0.6962(10) 0.4239(3) 0.6573(3) 0.0165(9) Uani 1 1 d . . . . .
C3 C 0.5648(10) 0.3411(3) 0.6161(2) 0.0149(8) Uani 1 1 d . . . . .
H3 H 0.442340 0.346722 0.561112 0.018 Uiso 1 1 calc R U . . .
C4 C 0.6132(9) 0.2502(3) 0.6557(3) 0.0151(9) Uani 1 1 d . . . . .
C5 C 0.7842(10) 0.2426(3) 0.7366(3) 0.0194(9) Uani 1 1 d . . . . .
H5 H 0.810919 0.179897 0.764002 0.023 Uiso 1 1 calc R U . . .
C6 C 0.8707(10) 0.4083(3) 0.7381(3) 0.0177(9) Uani 1 1 d . . . . .
F1 F 1.0187(7) 0.48277(16) 0.78116(16) 0.0275(6) Uani 1 1 d . . . . .
H1 H 0.460(14) 0.570(4) 0.519(3) 0.041 Uiso 1 1 d . U . . .
N1 N 0.9144(9) 0.3226(3) 0.7777(2) 0.0207(8) Uani 1 1 d . . . . .
O1 O 0.4767(10) 0.5183(2) 0.5402(2) 0.0328(9) Uani 1 1 d . . . . .
O2 O 0.7598(8) 0.5990(2) 0.6473(2) 0.0331(8) Uani 1 1 d . . . . .
O1W O 0.3974(7) 0.6911(2) 0.46422(18) 0.0218(7) Uani 1 1 d . . . . .
H1WA H 0.236161 0.731199 0.478597 0.033 Uiso 1 1 d R U . . .
H1WB H 0.420241 0.689679 0.405587 0.033 Uiso 1 1 d R U . . .
loop_
_atom_site_aniso_label
_atom_site_aniso_U_11
_atom_site_aniso_U_22
_atom_site_aniso_U_33
_atom_site_aniso_U_23
_atom_site_aniso_U_13
_atom_site_aniso_U_12
Br1 0.02350(19) 0.0157(2) 0.0233(2) -0.0012(2) -0.00138(18) -0.00207(17)
C1 0.020(2) 0.020(2) 0.019(3) 0.0004(19) 0.0009(17) 0.0002(17)
C2 0.0159(19) 0.018(2) 0.015(2) 0.0005(18) 0.0033(17) 0.0025(17)
C3 0.0142(16) 0.017(2) 0.013(2) 0.0010(15) 0.0037(16) -0.0003(15)
C4 0.016(2) 0.016(2) 0.013(2) -0.0028(17) 0.0030(16) 0.0018(16)
C5 0.020(2) 0.019(2) 0.020(2) 0.0044(19) 0.0030(17) 0.0022(18)
C6 0.019(2) 0.022(2) 0.013(2) -0.0059(18) -0.0003(17) 0.0008(17)
F1 0.0342(16) 0.0200(12) 0.0281(15) -0.0091(11) -0.0124(12) 0.0007(12)
N1 0.0206(18) 0.0236(19) 0.0178(18) 0.0018(15) -0.0012(17) 0.0040(16)
O1 0.055(2) 0.0139(16) 0.0297(19) 0.0033(13) -0.0196(18) -0.0011(17)
O2 0.048(2) 0.0165(16) 0.035(2) -0.0016(16) -0.0138(16) -0.0089(15)
O1W 0.0288(17) 0.0206(16) 0.0159(15) 0.0017(13) 0.0011(13) 0.0037(13)
loop_
_atom_type_symbol
_atom_type_description
_atom_type_scat_dispersion_real
_atom_type_scat_dispersion_imag
_atom_type_scat_source
C C 0.0033 0.0016 'International Tables Vol C Tables 4.2.6.8 and 6.1.1.4'
H H 0.0000 0.0000 'International Tables Vol C Tables 4.2.6.8 and 6.1.1.4'
Br Br -0.2901 2.4595 'International Tables Vol C Tables 4.2.6.8 and 6.1.1.4'
F F 0.0171 0.0103 'International Tables Vol C Tables 4.2.6.8 and 6.1.1.4'
O O 0.0106 0.0060 'International Tables Vol C Tables 4.2.6.8 and 6.1.1.4'
N N 0.0061 0.0033 'International Tables Vol C Tables 4.2.6.8 and 6.1.1.4'
loop_
_geom_angle_atom_site_label_1
_geom_angle_atom_site_label_2
_geom_angle_atom_site_label_3
_geom_angle
_geom_angle_site_symmetry_1
_geom_angle_site_symmetry_3
O1 C1 C2 110.3(4) . .
O2 C1 C2 125.4(4) . .
O2 C1 O1 124.3(4) . .
C3 C2 C1 121.3(4) . .
C3 C2 C6 116.1(4) . .
C6 C2 C1 122.6(4) . .
C2 C3 H3 120.3 . .
C4 C3 C2 119.4(3) . .
C4 C3 H3 120.3 . .
C3 C4 Br1 120.2(3) . .
C5 C4 Br1 119.7(3) . .
C5 C4 C3 120.1(4) . .
C4 C5 H5 119.4 . .
N1 C5 C4 121.2(4) . .
N1 C5 H5 119.4 . .
F1 C6 C2 120.7(4) . .
N1 C6 C2 125.4(4) . .
N1 C6 F1 113.8(3) . .
C6 N1 C5 117.7(4) . .
C1 O1 H1 109(4) . .
H1WA O1W H1WB 109.5 . .
loop_
_geom_bond_atom_site_label_1
_geom_bond_atom_site_label_2
_geom_bond_distance
_geom_bond_site_symmetry_2
Br1 C4 1.887(4) .
C1 C2 1.503(6) .
C1 O1 1.327(5) .
C1 O2 1.195(5) .
C2 C3 1.384(5) .
C2 C6 1.396(6) .
C3 H3 0.9500 .
C3 C4 1.382(5) .
C4 C5 1.379(6) .
C5 H5 0.9500 .
C5 N1 1.351(6) .
C6 F1 1.334(5) .
C6 N1 1.316(5) .
O1 H1 0.77(5) .
O1W H1WA 0.8699 .
O1W H1WB 0.8698 .
loop_
_geom_torsion_atom_site_label_1
_geom_torsion_atom_site_label_2
_geom_torsion_atom_site_label_3
_geom_torsion_atom_site_label_4
_geom_torsion
_geom_torsion_site_symmetry_1
_geom_torsion_site_symmetry_2
_geom_torsion_site_symmetry_3
_geom_torsion_site_symmetry_4
Br1 C4 C5 N1 178.5(3) . . . .
C1 C2 C3 C4 179.6(4) . . . .
C1 C2 C6 F1 -2.6(6) . . . .
C1 C2 C6 N1 179.2(4) . . . .
C2 C3 C4 Br1 -178.6(3) . . . .
C2 C3 C4 C5 1.5(6) . . . .
C2 C6 N1 C5 0.9(7) . . . .
C3 C2 C6 F1 177.2(3) . . . .
C3 C2 C6 N1 -1.0(6) . . . .
C3 C4 C5 N1 -1.6(6) . . . .
C4 C5 N1 C6 0.4(6) . . . .
C6 C2 C3 C4 -0.3(5) . . . .
F1 C6 N1 C5 -177.4(3) . . . .
O1 C1 C2 C3 0.3(5) . . . .
O1 C1 C2 C6 -179.9(4) . . . .
O2 C1 C2 C3 -179.3(4) . . . .
O2 C1 C2 C6 0.5(7) . . . .
