#------------------------------------------------------------------------------
#$Date: 2022-05-16 11:24:39 +0300 (Mon, 16 May 2022) $
#$Revision: 275446 $
#$URL: file:///home/coder/svn-repositories/cod/cif/8/10/52/8105268.cif $
#------------------------------------------------------------------------------
#
# This file is available in the Crystallography Open Database (COD),
# http://www.crystallography.net/
#
# All data on this site have been placed in the public domain by the
# contributors.
#
data_8105268
loop_
_publ_author_name
'Liu, Gui-Jie'
'Zhu, Meng-En'
'Hou, Jin-Rui'
'Cai, Bin'
_publ_section_title
;
 The crystal structure of 4-(trifluoromethyl)nicotinic acid, C7H4F3NO2
;
_journal_issue                   3
_journal_name_full
'Zeitschrift f\"ur Kristallographie - New Crystal Structures'
_journal_page_first              725
_journal_page_last               726
_journal_paper_doi               10.1515/ncrs-2019-0921
_journal_volume                  235
_journal_year                    2020
_chemical_formula_moiety         'C7 H4 F3 N O2'
_chemical_formula_sum            'C7 H4 F3 N O2'
_chemical_formula_weight         191.11
_space_group_crystal_system      monoclinic
_space_group_IT_number           14
_space_group_name_Hall           '-P 2ybc'
_space_group_name_H-M_alt        'P 1 21/c 1'
_atom_sites_solution_hydrogens   mixed
_cell_angle_alpha                90
_cell_angle_beta                 100.941(5)
_cell_angle_gamma                90
_cell_formula_units_Z            4
_cell_length_a                   6.4488(11)
_cell_length_b                   14.922(2)
_cell_length_c                   7.7868(12)
_cell_measurement_reflns_used    2543
_cell_measurement_temperature    150(2)
_cell_measurement_theta_max      26.33
_cell_measurement_theta_min      2.99
_cell_volume                     735.7(2)
_computing_cell_refinement       'SAINT v8.37A (Bruker, 2015) [1]'
_computing_data_collection       'Bruker APEX-II'
_computing_data_reduction        'SAINT v8.37A (Bruker, 2015) [1]'
_computing_molecular_graphics    'Olex2 (Dolomanov et al., 2009) [4]'
_computing_publication_material  'Olex2 (Dolomanov et al., 2009)  [4]'
_computing_structure_refinement  'ShelXL (Sheldrick, 2015)  [3]'
_computing_structure_solution    'SHELXT 2018/2 (Sheldrick, 2018) [2]'
_diffrn_ambient_temperature      150.0
_diffrn_measured_fraction_theta_full 0.998
_diffrn_measured_fraction_theta_max 0.998
_diffrn_measurement_device       'Bruker APEX-II diffractometer'
_diffrn_measurement_device_type  'Bruker APEX-II CCD'
_diffrn_measurement_method       '\f and \w scans'
_diffrn_radiation_type           MoK\a
_diffrn_radiation_wavelength     0.71073
_diffrn_reflns_av_R_equivalents  0.0602
_diffrn_reflns_av_unetI/netI     0.0338
_diffrn_reflns_Laue_measured_fraction_full 0.998
_diffrn_reflns_Laue_measured_fraction_max 0.998
_diffrn_reflns_limit_h_max       7
_diffrn_reflns_limit_h_min       -7
_diffrn_reflns_limit_k_max       17
_diffrn_reflns_limit_k_min       -17
_diffrn_reflns_limit_l_max       9
_diffrn_reflns_limit_l_min       -9
_diffrn_reflns_number            8642
_diffrn_reflns_point_group_measured_fraction_full 0.998
_diffrn_reflns_point_group_measured_fraction_max 0.998
_diffrn_reflns_theta_full        25.193
_diffrn_reflns_theta_max         25.193
_diffrn_reflns_theta_min         2.730
_diffrn_standards_number         0
_exptl_absorpt_coefficient_mu    0.175
_exptl_absorpt_correction_T_max  0.7454
_exptl_absorpt_correction_T_min  0.6776
_exptl_absorpt_correction_type   multi-scan
_exptl_absorpt_process_details
;
SADABS-2016/2 (Bruker,2016/2) was used for absorption correction.
wR2(int) was 0.0733 before and 0.0590 after correction.
The Ratio of minimum to maximum transmission is 0.9090.
The \l/2 correction factor is Not present.
;
_exptl_crystal_colour            colourless
_exptl_crystal_density_diffrn    1.725
_exptl_crystal_description       block
_exptl_crystal_F_000             384
_exptl_crystal_size_max          0.25
_exptl_crystal_size_mid          0.2
_exptl_crystal_size_min          0.1
_refine_diff_density_max         0.231
_refine_diff_density_min         -0.280
_refine_diff_density_rms         0.076
_refine_ls_extinction_coef       0.034(5)
_refine_ls_extinction_expression Fc^*^=kFc[1+0.001xFc^2^\l^3^/sin(2\q)]^-1/4^
_refine_ls_extinction_method     'SHELXL-2018/3 (Sheldrick 2018)'
_refine_ls_goodness_of_fit_ref   1.058
_refine_ls_hydrogen_treatment    mixed
_refine_ls_matrix_type           full
_refine_ls_number_parameters     123
_refine_ls_number_reflns         1325
_refine_ls_number_restraints     0
_refine_ls_restrained_S_all      1.058
_refine_ls_R_factor_all          0.0668
_refine_ls_R_factor_gt           0.0431
_refine_ls_shift/su_max          0.000
_refine_ls_shift/su_mean         0.000
_refine_ls_structure_factor_coef Fsqd
_refine_ls_weighting_details
'w=1/[\s^2^(Fo^2^)+(0.0690P)^2^+0.0821P] where P=(Fo^2^+2Fc^2^)/3'
_refine_ls_weighting_scheme      calc
_refine_ls_wR_factor_gt          0.1051
_refine_ls_wR_factor_ref         0.1158
_reflns_Friedel_coverage         0.000
_reflns_Friedel_fraction_full    .
_reflns_Friedel_fraction_max     .
_reflns_number_gt                968
_reflns_number_total             1327
_reflns_threshold_expression     'I > 2\s(I)'
_cod_data_source_file            suppl_ncrs-2019-0921_suppl.cif
_cod_data_source_block           1
_cod_original_sg_symbol_H-M      'P 21/c'
_cod_database_code               8105268
_shelx_space_group_comment
;
The symmetry employed for this shelxl refinement is uniquely defined
by the following loop, which should always be used as a source of
symmetry information in preference to the above space-group names.
They are only intended as comments.
;
_shelx_estimated_absorpt_t_max   0.983
_shelx_estimated_absorpt_t_min   0.958
_olex2_refinement_description
;
1. Fixed Uiso
 At 1.2 times of:
  All C(H) groups
2.a Aromatic/amide H refined with riding coordinates:
 C4(H4), C5(H5), C6(H6)
;
_shelx_res_file
;
TITL mo_1025_1_0m_a.res in P2(1)/c
    1.res
    created by SHELXL-2018/3 at 00:51:09 on 19-Dec-2019
CELL 0.71073 6.4488 14.9219 7.7868 90 100.941 90
ZERR 4 0.0011 0.0023 0.0012 0 0.005 0
LATT 1
SYMM -X,0.5+Y,0.5-Z
SFAC C H F O N
UNIT 28 16 12 8 4

L.S. 10
PLAN  20
SIZE 0.25 0.2 0.1
TEMP -123.15
BOND $H
fmap 2
acta
OMIT 0 50.4
REM <olex2.extras>
REM <HklSrc "%.\\1.hkl">
REM </olex2.extras>

WGHT    0.069000    0.082100
EXTI    0.034190
FVAR       0.99196
C1    1    0.256377    0.245523    0.683065    11.00000    0.02206    0.02395 =
         0.02068    0.00344    0.00152    0.00035
C2    1    0.434389    0.305160    0.769650    11.00000    0.02119    0.02341 =
         0.01869    0.00140    0.00275    0.00139
C3    1    0.446434    0.398227    0.754091    11.00000    0.02261    0.02340 =
         0.02495    0.00038    0.00435    0.00206
C4    1    0.620969    0.442966    0.846081    11.00000    0.02885    0.02180 =
         0.03277   -0.00130    0.00389   -0.00347
AFIX  43
H4    2    0.633039    0.506139    0.836468    11.00000   -1.20000
AFIX   0
C5    1    0.777421    0.394149    0.952185    11.00000    0.02045    0.02897 =
         0.03299   -0.00450   -0.00067   -0.00305
AFIX  43
H5    2    0.896206    0.425157    1.015853    11.00000   -1.20000
AFIX   0
C6    1    0.602137    0.262719    0.877789    11.00000    0.02071    0.02086 =
         0.02911    0.00019    0.00365   -0.00012
AFIX  43
H6    2    0.597746    0.199304    0.887286    11.00000   -1.20000
AFIX   0
C7    1    0.277627    0.452395    0.637514    11.00000    0.03005    0.02436 =
         0.03518    0.00226    0.00016    0.00153
F1    3    0.106107    0.464643    0.708171    11.00000    0.02696    0.03559 =
         0.05099   -0.00312    0.00205    0.01143
F2    3    0.348564    0.535045    0.609622    11.00000    0.04527    0.02427 =
         0.06202    0.01374   -0.00481    0.00215
F3    3    0.217391    0.414999    0.480506    11.00000    0.03979    0.04145 =
         0.02799    0.00309   -0.00813    0.00559
N1    5    0.768298    0.305482    0.968703    11.00000    0.01922    0.03030 =
         0.02775   -0.00133   -0.00034   -0.00024
O1    4    0.069973    0.282618    0.669639    11.00000    0.01865    0.03426 =
         0.04501   -0.00951   -0.00359    0.00072
O2    4    0.289425    0.170271    0.636848    11.00000    0.02967    0.02249 =
         0.03719   -0.00364   -0.00059   -0.00097
H1    2   -0.031188    0.248947    0.596526    11.00000    0.09143
HKLF 4




REM  mo_1025_1_0m_a.res in P2(1)/c
REM wR2 = 0.1158, GooF = S = 1.058, Restrained GooF = 1.058 for all data
REM R1 = 0.0431 for 968 Fo > 4sig(Fo) and 0.0668 for all 1325 data
REM 123 parameters refined using 0 restraints

END

WGHT      0.0690      0.0821

REM Highest difference peak  0.231,  deepest hole -0.280,  1-sigma level  0.076
Q1    1   0.4204  0.3571  0.8072  11.00000  0.05    0.23
Q2    1  -0.1208  0.3448  0.6974  11.00000  0.05    0.22
Q3    1   0.7713  0.3396  1.0198  11.00000  0.05    0.21
Q4    1   0.4068  0.5313  0.4423  11.00000  0.05    0.21
Q5    1   0.3152  0.1232  0.4985  11.00000  0.05    0.19
Q6    1   0.8639  0.5449  0.7667  11.00000  0.05    0.19
Q7    1   0.0223  0.2412  0.7984  11.00000  0.05    0.19
Q8    1   0.1482  0.4526  0.3423  11.00000  0.05    0.19
Q9    1   0.1437  0.3837  0.2982  11.00000  0.05    0.19
Q10   1   0.6275  0.2765  1.0806  11.00000  0.05    0.19
Q11   1   0.2812  0.3218  0.8978  11.00000  0.05    0.19
Q12   1   0.0872  0.4749  0.8111  11.00000  0.05    0.19
Q13   1   0.4339  0.3088  0.8110  11.00000  0.05    0.19
Q14   1   0.1676  0.4223  0.8969  11.00000  0.05    0.18
Q15   1   0.4573  0.2858  0.8620  11.00000  0.05    0.18
Q16   1  -0.0283  0.4967  0.7691  11.00000  0.05    0.18
Q17   1   0.5956  0.4829  1.0013  11.00000  0.05    0.18
Q18   1   0.9949  0.4005  1.2244  11.00000  0.05    0.18
Q19   1   0.0797  0.3780  0.7711  11.00000  0.05    0.17
Q20   1   0.4280  0.3531  0.9484  11.00000  0.05    0.17
;
_shelx_hkl_file
;
   1   0   0 1181.08   31.20
  -1   0   0 1124.39   31.10
   1   0   0 1150.68   31.10
  -1   0   0 1171.68   31.10
   2   0   0 3953.20  103.09
  -2   0   0 4074.79  103.19
  -2   0   0 3897.81  102.99
   2   0   0 4063.99  103.19
  -3   0   0  218.58   12.30
   3   0   0  223.88   12.50
  -3   0   0  218.88   13.80
   3   0   0  191.68   13.00
  -4   0   0    7.80    5.50
  -4   0   0   19.50    7.20
   4   0   0    8.30    5.20
   4   0   0    9.50    6.70
  -5   0   0    6.10    8.30
   5   0   0   -8.90    8.20
  -5   0   0  -12.90    8.40
   5   0   0   32.10    8.60
   6   0   0 1192.08   47.00
  -6   0   0 1168.68   46.90
   6   0   0 1242.08   49.00
   7   0   0   36.00   18.90
  -7   0   0    8.20   17.30
  -7   0   0   48.50   17.40
   1  -1   0 1059.29   29.10
   1  -1   0 1087.49   29.10
  -1  -1   0 1063.09   29.10
  -1   1   0 1059.09   28.90
   1   1   0 1064.39   29.30
  -1   1   0 1102.19   29.20
   1   1   0 1069.49   29.20
  -2  -1   0  315.77   13.90
   2  -1   0  333.37   13.70
   2  -1   0  307.57   12.90
  -2  -1   0  309.47   13.00
   2   1   0  310.47   13.70
   2   1   0  316.77   13.20
  -2   1   0  325.87   13.10
  -2   1   0  319.67   12.90
   3  -1   0   41.70    6.90
   3  -1   0   41.50    6.20
  -3  -1   0   38.80    6.30
  -3  -1   0   38.50    6.00
   3   1   0   46.30    6.60
  -3   1   0   34.20    5.90
  -3   1   0   54.79    7.20
   3   1   0   61.19    7.90
  -4  -1   0  344.27   18.80
   4  -1   0  340.77   19.10
   4  -1   0  373.06   19.90
  -4  -1   0  350.96   19.60
  -4   1   0  351.46   18.10
   4   1   0  340.47   18.20
  -4   1   0  361.16   19.80
   4   1   0  361.06   18.60
  -5  -1   0  496.65   26.80
   5  -1   0  532.25   26.10
   5  -1   0  482.05   26.50
  -5   1   0  472.95   26.00
   5   1   0  545.15   26.10
   5   1   0  516.25   25.60
  -5   1   0  506.15   27.40
  -6  -1   0  392.66   28.60
   6  -1   0  368.76   28.80
   6  -1   0  368.26   25.00
   6   1   0  396.46   28.10
   6   1   0  414.76   29.60
  -7  -1   0   41.80   17.90
   7  -1   0   17.70   19.20
   7  -1   0   46.10   18.30
  -7  -1   0   43.10   19.20
   7   1   0   50.09   16.20
  -7   1   0   48.10   17.10
   7   1   0   53.29   15.00
   0  -2   0    1.50    1.30
   0  -2   0    0.40    1.30
   0   2   0    2.30    1.40
   1  -2   0    9.60    2.90
  -1  -2   0    2.60    2.80
  -1  -2   0    5.00    2.90
   1  -2   0    5.40    2.10
   1   2   0    3.30    2.20
  -1   2   0    5.70    2.10
  -1   2   0    6.00    2.40
  -2  -2   0  139.49    8.70
   2  -2   0  144.59    9.20
   2  -2   0  146.69    9.40
  -2   2   0  158.88    8.60
   2   2   0  154.98    9.00
   2   2   0  162.48   10.00
  -2   2   0  143.79    9.40
  -3  -2   0    0.30    4.90
   3  -2   0    1.80    4.70
   3  -2   0    3.30    3.80
   3   2   0    0.10    3.90
  -3   2   0    6.10    4.90
   3   2   0    4.70    5.20
  -3   2   0   -0.60    4.90
   4  -2   0  666.63   27.80
   4  -2   0  700.33   28.00
  -4  -2   0  650.13   27.90
   4   2   0  690.33   27.40
  -4   2   0  663.73   27.80
  -4   2   0  682.43   27.60
   4   2   0  636.74   27.90
   5  -2   0   43.80   10.70
  -5  -2   0   49.99    9.60
  -5  -2   0   44.60   10.60
  -5   2   0   39.40   10.20
   5   2   0   34.10    9.20
   5   2   0   29.30   10.80
  -5   2   0   45.90    9.40
  -6  -2   0  222.68   22.00
  -6  -2   0  246.78   21.70
   6  -2   0  316.67   25.50
   6  -2   0  271.07   25.30
  -6   2   0  246.48   25.90
   6   2   0  242.18   21.80
  -6   2   0  225.18   24.40
   7  -2   0   12.00   17.00
  -7  -2   0   20.20   16.40
  -7  -2   0  -21.70   18.80
   7  -2   0    5.40   17.60
  -7   2   0   16.80   16.40
   7   2   0    8.80   13.20
   7   2   0    3.30   19.70
   0  -3   0    1.30    2.00
   0  -3   0    2.30    2.20
   0   3   0    2.60    2.00
   1  -3   0   42.10    5.10
  -1  -3   0   37.60    4.50
   1  -3   0   51.09    5.00
  -1  -3   0   33.10    4.30
   1   3   0   47.40    5.50
   1   3   0   45.80    5.60
  -1   3   0   55.69    5.00
   2  -3   0  195.28   10.50
  -2  -3   0  209.58   11.30
   2  -3   0  207.48   11.10
  -2  -3   0  217.38   10.80
   2   3   0  206.18   11.50
  -2   3   0  191.78   10.60
   2   3   0  211.28   10.70
  -2   3   0  201.18   10.00
  -3  -3   0   59.19    8.00
  -3  -3   0   54.99    7.80
   3  -3   0   40.30    6.90
   3  -3   0   56.59    7.60
   3   3   0   49.40    7.00
   3   3   0   53.29    7.80
  -3   3   0   55.79    7.70
  -3   3   0   54.79    7.30
  -4  -3   0  498.15   24.80
  -4  -3   0  556.74   24.20
   4  -3   0  527.35   24.40
   4  -3   0  530.65   24.50
  -4   3   0  556.74   24.40
  -4   3   0  528.35   24.30
   4   3   0  542.75   25.10
   4   3   0  541.95   25.20
  -5  -3   0   31.20    8.50
  -5  -3   0   16.80   10.10
   5  -3   0   23.90    9.90
   5   3   0   11.10    9.80
  -5   3   0   14.60    9.40
   5   3   0   16.80    9.90
  -5   3   0   30.10   10.30
  -6  -3   0   75.29   16.00
   6  -3   0   52.19   12.20
  -6  -3   0   56.79   14.80
  -6   3   0   51.19   13.60
  -6   3   0   42.50   12.50
   6   3   0   48.80   14.40
   7  -3   0   17.90   16.40
  -7  -3   0   11.30   22.90
  -7  -3   0   14.60   13.50
   7  -3   0   15.10   17.00
  -7   3   0   -3.60   15.90
   7   3   0    4.70   13.10
   0  -4   0 2577.54   64.99
   0  -4   0 2540.25   65.09
   0   4   0 2470.05   64.69
  -1  -4   0   74.09    6.50
  -1  -4   0   71.19    6.40
   1  -4   0   67.29    6.10
   1  -4   0   80.59    6.00
   1   4   0   86.99    6.50
   1   4   0   85.19    6.60
  -1   4   0   73.89    5.70
   2  -4   0  182.58   10.60
  -2  -4   0  176.08   10.20
  -2  -4   0  203.68   11.70
   2  -4   0  194.98   10.60
  -2   4   0  189.18   10.80
  -2   4   0  166.38   10.00
   2   4   0  191.98   11.50
  -3  -4   0  613.24   24.20
   3  -4   0  625.64   24.20
   3  -4   0  596.24   23.40
  -3  -4   0  620.64   23.90
   3   4   0  640.34   24.10
  -3   4   0  635.24   24.20
  -3   4   0  612.84   23.50
   3   4   0  574.94   24.10
  -4  -4   0  650.63   27.40
  -4  -4   0  640.94   28.10
   4  -4   0  633.44   27.60
   4  -4   0  658.93   27.70
   4   4   0  672.03   27.60
  -4   4   0  692.43   28.10
  -4   4   0  661.03   26.50
   4   4   0  647.34   28.20
   5  -4   0   85.69   12.70
   5  -4   0  104.39   13.10
  -5  -4   0  108.69   14.30
   5   4   0  105.39   14.70
  -5   4   0   86.29   12.90
   5   4   0   65.39   13.00
  -5   4   0   86.19   13.40
   6  -4   0   44.00   14.70
   6  -4   0   68.99   15.10
  -6  -4   0   75.69   14.30
  -6  -4   0   29.10   13.70
  -6   4   0   66.79   12.90
  -6   4   0   57.49   11.90
   7  -4   0   10.50   17.80
   7  -4   0    9.20   16.90
  -7  -4   0    9.60   13.70
  -7  -4   0   44.40   17.20
   7   4   0    5.50   15.70
  -7   4   0  -13.50   12.40
   7   4   0  -18.80   16.40
  -7   4   0   27.70   18.60
   0  -5   0   -0.20    2.90
   0  -5   0   -1.70    2.50
   0   5   0   -3.00    2.40
  -1  -5   0   31.10    4.70
   1  -5   0   31.80    4.30
   1  -5   0   36.10    4.70
  -1  -5   0   32.50    4.60
   1   5   0   47.10    5.90
  -1   5   0   30.60    4.10
   1   5   0   39.10    4.80
   2  -5   0 5129.19  132.39
  -2  -5   0 5289.77  133.39
  -2  -5   0 4992.00  132.69
   2  -5   0 5090.89  132.19
   2   5   0 5294.27  133.29
  -2   5   0 5070.59  131.99
  -2   5   0 5263.27  132.49
   3  -5   0  313.57   15.40
  -3  -5   0  326.77   17.60
   3  -5   0  303.17   16.50
  -3  -5   0  307.07   15.90
   3   5   0  325.47   17.70
   3   5   0  289.87   16.80
  -3   5   0  351.26   17.20
  -3   5   0  333.57   16.10
  -4  -5   0   11.20    6.50
   4  -5   0   10.20    7.10
  -4  -5   0   15.10    6.50
  -4   5   0   29.20    7.90
   4   5   0    6.20    5.90
   4   5   0   20.70    7.30
  -4   5   0   15.30    7.30
   5  -5   0  462.55   26.50
  -5  -5   0  466.75   27.70
   5  -5   0  456.65   26.30
  -5   5   0  485.95   27.00
   5   5   0  462.35   25.40
  -5   5   0  449.26   27.10
   5   5   0  435.06   27.80
   6  -5   0   30.30   13.60
  -6  -5   0   49.10   15.20
  -6  -5   0   84.09   17.50
   6  -5   0   44.40   14.60
  -6   5   0   31.10   13.80
   6   5   0   37.40   12.00
  -6   5   0   60.49   12.00
  -7  -5   0   39.80   19.60
   7  -5   0   23.10   17.40
  -7  -5   0   39.90   15.40
   7  -5   0   21.70   16.70
  -7   5   0   11.00   17.60
  -7   5   0   19.40   19.10
   7   5   0    5.70   19.10
   7   5   0   31.00   24.20
   0  -6   0 1358.26   38.20
   0  -6   0 1362.96   38.60
   0   6   0 1365.56   38.10
   1  -6   0   -1.50    2.80
  -1  -6   0   -0.90    3.10
  -1  -6   0    4.80    3.90
   1  -6   0   -2.30    3.20
   1   6   0   -0.70    3.30
  -1   6   0    0.60    3.00
   1   6   0    5.00    3.50
   2  -6   0    4.00    4.00
   2  -6   0    4.40    4.50
  -2  -6   0    0.20    4.50
  -2  -6   0    5.50    4.50
   2   6   0    6.70    4.80
   2   6   0    3.70    4.60
  -2   6   0    0.60    3.70
  -2   6   0    2.60    4.00
  -3  -6   0  157.78   13.40
  -3  -6   0  150.08   13.10
   3  -6   0  152.48   11.90
   3  -6   0  134.69   12.40
  -3   6   0  167.98   11.40
  -3   6   0  142.79   11.70
   3   6   0  153.18   11.90
   3   6   0  162.08   14.00
   4  -6   0   42.20    9.10
  -4  -6   0   47.00    9.80
   4   6   0   39.20    8.40
   4   6   0   50.09   10.70
  -4   6   0   35.40    8.70
  -4   6   0   61.29    9.30
  -5  -6   0  330.97   25.80
   5  -6   0  288.07   22.50
  -5  -6   0  316.97   24.30
   5  -6   0  344.97   23.80
   5   6   0  284.37   23.60
  -5   6   0  314.77   23.50
   5   6   0  320.17   25.50
  -5   6   0  271.47   21.40
  -6  -6   0  111.19   18.20
   6  -6   0   88.09   16.60
   6  -6   0  108.09   17.30
  -6  -6   0  133.09   33.20
  -6   6   0  120.29   18.50
   6   6   0  110.09   16.40
  -6   6   0   90.79   13.80
   7  -6   0   50.09   20.10
   7  -6   0   58.59   19.50
  -7  -6   0   51.99   16.90
  -7  -6   0   63.09   27.40
  -7   6   0   40.10   19.50
   7   6   0   54.49   21.40
  -7   6   0   73.09   19.70
   7   6   0  118.89   23.70
   0  -7   0   -1.40    3.10
   0  -7   0   -2.20    3.90
   0   7   0   -5.60    2.90
   1  -7   0    0.30    3.70
  -1  -7   0    0.40    3.70
  -1  -7   0    2.50    4.10
   1  -7   0   -0.60    3.10
  -1   7   0   -0.10    3.30
   1   7   0    1.70    3.80
   1   7   0   -0.60    3.30
   2  -7   0  368.26   16.30
   2  -7   0  377.06   16.80
  -2  -7   0  368.96   16.70
  -2  -7   0  371.56   17.50
   2   7   0  390.36   17.60
  -2   7   0  387.36   16.40
   2   7   0  373.56   17.50
  -3  -7   0   77.19   10.50
   3  -7   0   84.39   11.10
  -3  -7   0   77.99    9.60
   3   7   0   98.09   12.10
  -3   7   0   61.49    8.70
  -3   7   0   65.49    8.40
   3   7   0   84.19   10.20
  -4  -7   0   69.09   11.00
   4  -7   0   94.69   11.10
   4  -7   0   63.19   10.30
   4   7   0   76.89   12.50
  -4   7   0   74.69   11.10
   4   7   0   75.29   10.40
  -4   7   0   47.90    9.40
  -5  -7   0   20.50   11.20
   5  -7   0    7.70   10.00
  -5  -7   0   -9.50   11.60
   5   7   0  -14.90   11.70
  -5   7   0    6.10   10.60
  -5   7   0   -2.80    9.10
   5   7   0   15.40   13.70
   6  -7   0  138.19   19.20
   6  -7   0  158.48   20.00
  -6  -7   0  132.49   20.30
  -6   7   0  185.68   21.20
  -6   7   0  166.58   18.70
   6   7   0  161.08   21.30
   7  -7   0   22.60   18.90
  -7  -7   0   17.00   26.20
   7  -7   0    3.60   18.80
  -7  -7   0   17.00   20.90
  -7   7   0    0.70   17.40
  -7   7   0   25.90   21.10
   7   7   0   20.00   26.30
   7   7   0   41.50   17.20
   0  -8   0 1380.46   41.40
   0  -8   0 1382.36   40.80
   0   8   0 1450.85   41.00
   1  -8   0   23.20    5.40
  -1  -8   0   15.90    5.30
  -1  -8   0   27.90    5.30
   1  -8   0   28.40    5.10
  -1   8   0   25.90    5.20
   1   8   0   19.10    5.30
   1   8   0   30.10    5.50
   2  -8   0  188.78   11.80
   2  -8   0  170.38   12.10
  -2  -8   0  170.08   12.50
  -2  -8   0  168.38   12.60
  -2   8   0  165.98   11.40
   2   8   0  175.38   12.70
   2   8   0  183.28   13.10
   3  -8   0   29.30    7.40
  -3  -8   0    7.30    7.70
  -3  -8   0   30.20    7.80
  -3   8   0   39.50    7.30
   3   8   0   30.10    8.40
  -3   8   0   52.09    8.30
   3   8   0   21.00    7.50
  -4  -8   0    4.70    8.70
   4  -8   0    0.50    7.20
  -4  -8   0   -1.20    8.10
   4  -8   0    7.20    7.20
  -4   8   0   20.30    8.50
   4   8   0   11.10    9.20
   4   8   0    5.90    7.30
  -4   8   0    6.40    7.60
  -5  -8   0   -4.50   20.60
   5  -8   0   26.60   10.50
  -5  -8   0   16.60   11.60
   5  -8   0   15.50   10.80
  -5   8   0   11.40    8.90
   5   8   0   19.70   12.10
  -5   8   0   20.00   11.40
   5   8   0   11.50   12.70
   6  -8   0   11.10   12.80
  -6  -8   0   13.90   14.50
   6  -8   0   -1.90   13.70
  -6  -8   0  -12.70   15.40
   6   8   0   15.20   13.10
  -6   8   0   22.90   13.10
   6   8   0    1.20   15.00
  -6   8   0   17.10   11.40
  -7  -8   0  -30.90   21.80
   7  -8   0   19.50   18.50
  -7  -8   0  -30.80   24.60
   7  -8   0   -6.20   15.80
  -7   8   0   25.40   19.00
   7   8   0   13.70   25.30
   7   8   0    9.20   23.00
  -7   8   0    0.50   16.80
   0  -9   0    3.60    4.20
   0  -9   0   -0.20    4.70
   0   9   0    6.10    4.20
   1  -9   0   20.50    5.00
  -1  -9   0    3.80    5.20
  -1  -9   0   14.10    4.90
   1  -9   0   11.20    5.90
   1   9   0   10.10    5.30
  -1   9   0   20.30    5.10
   1   9   0   11.30    4.90
   2  -9   0  976.80   31.80
   2  -9   0  881.11   32.10
  -2  -9   0  940.11   33.20
  -2  -9   0 1042.40   32.90
  -2   9   0  902.41   31.40
   2   9   0  907.81   32.90
   2   9   0  972.10   33.40
  -3  -9   0  216.08   17.00
   3  -9   0  231.88   15.90
   3  -9   0  244.08   16.10
  -3   9   0  263.97   16.90
  -3   9   0  252.37   15.80
   3   9   0  230.38   15.60
  -4  -9   0   81.49   11.20
   4  -9   0  100.09   12.20
  -4  -9   0   97.89   13.70
   4  -9   0   73.09   11.80
  -4   9   0   75.49   12.00
  -4   9   0   63.09   11.20
   4   9   0   74.79   11.60
  -5  -9   0   10.70   10.40
   5  -9   0    3.20   10.70
  -5  -9   0   23.50   12.70
   5  -9   0    6.70   11.10
  -5   9   0    8.00   10.10
   5   9   0   -6.30   11.70
  -5   9   0   12.60   10.90
   5   9   0   14.90   13.50
  -6  -9   0   62.49   21.90
   6  -9   0   42.00   14.10
   6  -9   0   27.40   15.00
  -6  -9   0   26.60   13.70
   6   9   0   57.09   18.30
  -6   9   0   18.40   14.40
   6   9   0   86.29   20.20
  -6   9   0   40.60   16.60
   0 -10   0   10.90    5.80
   0  10   0    7.60    4.70
   1 -10   0    6.60    6.50
  -1 -10   0   13.60    5.00
  -1 -10   0    1.50    5.70
   1 -10   0   21.50    4.70
  -1  10   0    6.70    6.20
   1  10   0    3.20    5.30
  -1  10   0    6.00    4.90
  -2 -10   0   43.00    8.20
   2 -10   0   33.90    8.20
   2  10   0   30.50    7.50
   2  10   0   36.30    8.20
  -2  10   0   38.10    7.10
   3 -10   0  632.64   26.80
   3 -10   0  623.74   27.10
  -3 -10   0  572.74   27.50
  -3 -10   0  627.04   28.20
  -3  10   0  641.84   26.70
   4 -10   0  201.38   18.20
   4 -10   0  230.68   19.20
  -4 -10   0  242.78   21.40
  -4  10   0  219.98   19.90
   4  10   0  261.87   22.50
   4  10   0  229.18   21.40
   5 -10   0  118.59   16.00
   5 -10   0  122.59   15.70
  -5 -10   0  143.49   19.90
  -5 -10   0  157.28   18.70
  -5  10   0  101.89   15.30
   5  10   0   89.99   16.60
   5  10   0  140.99   19.30
  -5  10   0  171.58   22.30
   6 -10   0   14.80   15.90
   6 -10   0   18.30   16.00
  -6 -10   0   16.90   18.70
  -6 -10   0   22.60   15.10
  -6  10   0   -3.40   14.70
   6  10   0   21.80   19.60
  -6  10   0    7.00   14.50
   6  10   0    3.40   17.30
   0 -11   0   -1.90    5.90
   0  11   0   -9.20    6.90
   0  11   0   -3.40    5.00
  -1 -11   0  380.66   18.50
  -1 -11   0  377.46   20.10
   1 -11   0  394.96   18.00
   1  11   0  346.07   18.90
  -1  11   0  367.26   19.40
  -1  11   0  385.96   18.50
  -2 -11   0    3.10    7.30
  -2 -11   0   23.80    7.00
   2 -11   0    8.90    7.10
   2 -11   0   12.00    6.60
   2  11   0   25.50    8.30
  -2  11   0   10.20    6.70
   2  11   0   11.90    7.60
  -2  11   0    8.70    8.10
  -3 -11   0 1688.13   55.39
   3 -11   0 1629.24   54.19
  -3 -11   0 1698.23   55.39
   3 -11   0 1689.63   54.69
   3  11   0 1725.23   55.59
   4 -11   0   25.70   10.50
   4 -11   0   17.80    9.90
  -4 -11   0   19.90    8.90
  -4 -11   0   16.40   10.70
  -4  11   0   33.30   11.70
   4  11   0   12.80   10.70
   4  11   0   25.10   11.80
  -5 -11   0   -0.80   14.00
   5 -11   0   -5.50   12.20
  -5 -11   0   27.10   15.80
   5 -11   0    0.50   12.00
   5  11   0    7.30   15.10
  -5  11   0   -8.30   10.70
   5  11   0   43.00   15.50
  -5  11   0    9.20   12.50
  -6 -11   0   15.50   21.40
   6 -11   0   38.70   17.00
   6 -11   0   31.70   17.20
  -6 -11   0   35.20   16.60
  -6  11   0  -14.30   16.00
  -6  11   0  -20.00   16.40
   6  11   0  -12.00   19.70
   6  11   0   -7.30   19.70
   0 -12   0  117.79   12.30
   0 -12   0   90.39   12.30
   0  12   0   90.59   11.10
   0  12   0  118.19   12.10
  -1 -12   0   24.40    7.40
  -1 -12   0   21.60    8.10
   1 -12   0   17.40    6.70
  -1  12   0   17.50    7.40
  -1  12   0   34.90    7.80
   1  12   0   16.80    7.00
  -2 -12   0  181.68   17.10
   2 -12   0  217.88   15.60
   2 -12   0  167.38   16.40
  -2 -12   0  190.68   17.00
  -2  12   0  210.08   17.40
  -2  12   0  209.08   17.00
   2  12   0  208.78   17.40
   3 -12   0   20.50    9.60
   3 -12   0    5.00    8.40
  -3 -12   0   18.90    9.40
  -3 -12   0   17.60    9.90
   3  12   0   23.40   10.50
  -4 -12   0  233.58   23.40
   4 -12   0  268.97   22.90
  -4 -12   0  271.97   24.70
   4 -12   0  179.48   21.20
   4  12   0  244.18   24.50
   4  12   0  243.88   24.70
  -5 -12   0   28.10   14.20
   5 -12   0   55.19   14.90
   5 -12   0   24.60   13.20
  -5 -12   0   27.10   15.50
   5  12   0   -4.30   15.00
  -5  12   0   21.20   16.00
   5  12   0   71.09   18.30
  -5  12   0   17.80   12.80
  -6 -12   0   12.40   20.40
   6 -12   0  -13.90   17.10
   6 -12   0   -8.70   18.00
  -6 -12   0   10.40   22.50
  -6  12   0   18.10   18.50
   6  12   0  -26.10   18.90
   6  12   0   29.00   22.70
   0 -13   0    1.50    6.50
   0 -13   0   -8.10    7.90
   0  13   0   -5.00    6.20
   0  13   0   -3.80    7.60
  -1 -13   0   99.29   12.50
  -1  13   0  103.29   12.00
  -1  13   0   97.59   11.50
  -2 -13   0   29.40    9.30
  -2 -13   0   20.00    9.40
   2 -13   0   33.00    8.50
   2  13   0   34.40   10.50
  -2  13   0   35.60    9.10
  -3 -13   0   48.60   12.30
   3 -13   0   44.40   11.70
   3 -13   0   35.10   10.60
  -3 -13   0   42.70   11.80
  -3  13   0   30.60   10.70
   3  13   0   43.20   12.60
  -4 -13   0   28.20   13.50
  -4 -13   0   17.00   13.20
   4 -13   0   22.10   11.40
   4 -13   0   40.80   13.20
   4  13   0   15.40   13.70
   4  13   0    3.70   13.50
  -4  13   0    4.80   10.20
   5 -13   0  -21.50   12.70
  -5 -13   0   18.10   15.40
   5 -13   0  -12.50   13.80
  -5 -13   0   27.00   17.20
   5  13   0  -30.00   16.20
  -5  13   0   41.60   16.10
  -5  13   0   -6.00   14.80
   5  13   0   17.10   16.30
   0 -14   0  810.02   32.10
   0  14   0  780.62   31.70
  -1 -14   0   96.49   13.10
   1 -14   0   76.99   15.50
   1 -14   0   96.79   12.00
  -1 -14   0   84.69   11.90
  -1  14   0  102.99   12.40
   1  14   0   93.59   14.00
  -2 -14   0  166.78   17.90
  -2 -14   0  153.38   18.90
   2 -14   0  161.78   17.90
  -2  14   0  143.39   16.60
   3 -14   0    4.90   11.90
  -3 -14   0    5.60   11.70
   3 -14   0   11.30   10.20
  -3 -14   0   -2.00   10.50
  -3  14   0   -0.10   10.10
   3  14   0   -3.40   11.50
  -3  14   0   19.80   10.90
  -4 -14   0    7.70   13.70
   4 -14   0    8.40   13.80
   4 -14   0  -16.00   10.90
  -4 -14   0    7.60   14.00
   4  14   0   21.50   15.00
   4  14   0   13.20   14.60
  -4  14   0    3.30   12.50
  -4  14   0  -12.90   12.30
   5 -14   0  -26.80   15.60
  -5 -14   0   19.80   18.30
   5 -14   0   12.50   16.60
  -5 -14   0   17.40   18.90
   5  14   0    1.80   19.40
  -5  14   0    5.70   16.30
   5  14   0   18.40   19.90
   0 -15   0    5.90    9.00
   0  15   0   -3.80    8.90
   0  15   0    9.10    9.30
   1 -15   0   22.50   10.70
  -1 -15   0    7.10   11.70
  -1 -15   0   14.90    9.20
   1 -15   0   21.40    8.80
   1  15   0   15.60   10.70
  -1  15   0   20.30    9.30
  -1  15   0   18.50    9.10
   2 -15   0   23.50   12.10
   2 -15   0   23.30   10.30
  -2 -15   0    4.10    9.80
  -2 -15   0   14.60   11.60
  -2  15   0   11.40    9.40
  -2  15   0    6.40   10.70
   3 -15   0   30.90   12.20
  -3 -15   0   30.90   13.20
  -3 -15   0   42.50   12.60
   3  15   0   28.10   13.70
  -3  15   0   24.30   11.60
  -3  15   0   21.00   12.80
   4 -15   0   18.90   15.90
  -4 -15   0   22.90   16.30
   4 -15   0   14.40   13.10
  -4 -15   0   31.30   15.40
   4  15   0    1.50   17.60
  -4  15   0   -9.50   14.40
  -4  15   0   -4.60   13.10
   4  15   0   -4.80   15.30
   0 -16   0   69.39   12.70
   0 -16   0   52.29   13.90
   0  16   0   71.29   12.50
   0  16   0   60.09   12.90
   1 -16   0   67.59   14.50
  -1 -16   0   45.70   14.40
  -1 -16   0   65.19   13.40
   1 -16   0   40.00   11.50
  -1  16   0   49.50   11.70
  -1  16   0   46.80   12.10
   1  16   0   37.20   12.10
   1  16   0   39.00   12.00
   2 -16   0   39.60   13.70
   2 -16   0   12.70   10.30
  -2 -16   0   34.70   14.70
  -2 -16   0   13.30   12.00
  -2  16   0   12.90   11.40
   2  16   0    3.90   12.60
  -2  16   0   15.90   11.30
  -3 -16   0  -10.70   13.30
   3 -16   0   -6.80   12.20
   3 -16   0  -11.40   19.40
  -3 -16   0  -28.50   13.80
  -3  16   0  -11.50   12.20
  -3  16   0   -9.80   13.00
   3  16   0   27.80   15.30
  -4 -16   0   14.00   18.40
   4 -16   0   38.70   17.90
   4 -16   0   29.30   15.70
  -4 -16   0   39.70   16.90
   4  16   0   57.59   20.60
  -4  16   0    2.70   16.40
  -4  16   0   20.50   23.70
   0 -17   0    8.70   13.80
   0 -17   0    4.20   11.60
   0  17   0   14.40   12.10
   0  17   0  -15.30   11.20
   1 -17   0    3.20   11.30
  -1 -17   0    1.90   11.30
   1 -17   0   13.80   13.50
  -1 -17   0   -3.30   15.10
  -1  17   0   13.70   11.90
   1  17   0   -0.40   12.50
  -1  17   0   -5.20   11.00
   1  17   0   13.10   13.20
   2 -17   0    9.90   12.50
  -2 -17   0    8.40   15.40
  -2 -17   0   20.00   13.10
   2 -17   0   44.20   15.20
  -2  17   0   15.40   13.00
   2  17   0   20.90   15.40
   2  17   0    9.10   13.30
  -2  17   0   16.10   12.90
   3 -17   0    8.40   13.50
  -3 -17   0  -21.40   15.20
  -3 -17   0   14.00   17.00
   3 -17   0   79.19   19.40
  -3  17   0   -1.20   13.90
  -3  17   0   35.10   15.90
   0 -18   0   14.70   16.40
   0 -18   0    0.70   12.90
   0  18   0   25.00   13.50
   0  18   0   -6.50   13.50
   1 -18   0  -26.40   15.50
   1 -18   0   -5.40   13.50
  -1 -18   0   14.00   13.90
  -1  18   0   -4.80   13.10
   1  18   0    5.60   15.20
  -1  18   0  -13.50   13.60
   1  18   0  -19.00   13.50
  -2 -18   0   15.20   15.70
   2 -18   0   12.30   13.70
  -2 -18   0   18.30   18.70
   2 -18   0   -5.40   17.30
  -2  18   0    2.60   14.60
  -2  18   0   -1.10   14.70
   2  18   0   27.00   16.20
   8   0  -1   12.90   18.80
   8   0  -1   -6.40   25.80
  -8   0   1   15.90   23.30
  -7   0   1   -2.20   15.70
   7   0  -1   -8.40   16.50
  -6   0   1    5.80   11.50
   6   0  -1    5.80   12.30
   5   0  -1    3.30    6.30
  -5   0   1   -3.40    8.10
  -5   0   1   -3.80    6.80
   5   0  -1    3.90    8.20
   4   0  -1   11.40    6.50
  -4   0   1   -3.00    6.40
   4   0  -1    2.50    6.60
  -4   0   1    0.30    6.10
   3   0  -1    4.80    5.10
  -3   0   1   -5.70    3.00
  -3   0   1   -1.60    4.70
   3   0  -1   -0.20    5.00
   2   0  -1   -3.00    2.50
  -2   0   1    2.70    3.60
  -2   0   1    0.50    3.60
   2   0  -1   -1.50    3.60
   1   0  -1   14.60    2.70
  -1   0   1    8.30    2.70
  -1   0   1    5.80    2.20
   1   0  -1    2.80    2.00
   0   0   1   -0.20    1.30
   0   0   1   -0.70    1.30
   0   0  -1    0.20    1.40
  -1   0  -1    3.70    2.80
   1   0   1    1.50    2.60
   1   0   1    3.60    2.70
  -1   0  -1    6.40    2.60
   2   0   1   -0.80    3.50
  -2   0  -1    2.20    3.70
  -2   0  -1   -3.20    3.30
   2   0   1   -2.40    3.50
   3   0   1   -7.50    4.50
  -3   0  -1    6.10    5.20
   3   0   1    3.60    5.10
  -4   0  -1    2.20    4.90
   4   0   1   -6.90    4.50
  -4   0  -1    0.70    6.50
   4   0   1    9.40    7.00
  -5   0  -1   -9.40    8.20
   5   0   1    2.50    8.50
  -5   0  -1  -15.30    8.30
   6   0   1  -18.50    8.70
  -6   0  -1   -2.90    9.40
  -6   0  -1   -2.80    9.00
   6   0   1  -13.80    9.60
   7   0   1    1.60   19.60
  -7   0  -1  -11.70   11.90
   7   0   1  -15.10   16.70
  -8  -1   1    1.90   26.80
   8  -1  -1   57.29   20.00
   8  -1  -1   31.20   25.00
  -8  -1   1   26.20   17.30
   8   1  -1   -4.50   27.50
   8   1  -1   13.00   18.80
  -8   1   1   40.60   25.10
   7  -1  -1   14.20   13.10
  -7  -1   1   -2.20   15.60
  -7   1   1   14.00   14.90
  -7   1   1    9.60   19.10
   7   1  -1   -2.50   17.60
   7   1  -1    8.50   16.50
  -6  -1   1   89.89   13.30
   6  -1  -1   72.89   15.80
   6  -1  -1  165.58   20.30
  -6   1   1  134.39   16.90
   6   1  -1   72.99   13.20
  -5  -1   1    5.40    8.50
  -5  -1   1   -3.00    8.80
   5  -1  -1    3.20    6.30
   5  -1  -1   -2.30    6.20
  -5   1   1   10.70    6.70
  -5   1   1    1.70    8.90
   5   1  -1    3.40    8.60
   5   1  -1   -7.50    7.80
  -4  -1   1    3.10    6.60
   4  -1  -1    7.80    5.30
  -4  -1   1   10.60    5.30
   4  -1  -1   15.30    7.40
   4   1  -1   13.30    7.00
   4   1  -1   13.10    5.60
  -4   1   1    4.30    6.30
  -4   1   1    2.60    6.50
  -3  -1   1 1311.57   40.20
  -3  -1   1 1347.27   40.40
   3  -1  -1 1387.46   41.10
   3  -1  -1 1270.27   40.40
  -3   1   1 1305.57   40.80
   3   1  -1 1277.17   40.10
   3   1  -1 1295.07   40.50
  -3   1   1 1305.07   40.50
   2  -1  -1   11.00    3.40
  -2  -1   1   10.20    3.20
  -2  -1   1   15.40    3.70
   2  -1  -1    9.00    4.00
  -2   1   1    4.10    3.80
  -2   1   1   14.40    3.50
   2   1  -1   12.40    3.30
   2   1  -1   10.70    4.10
  -1  -1   1  930.11   25.10
  -1  -1   1  900.21   24.90
   1  -1  -1  918.91   25.80
   1  -1  -1  910.31   25.50
  -1   1   1  907.51   25.80
  -1   1   1  860.41   25.30
   1   1  -1  899.61   25.00
   0  -1   1  615.84   15.90
   0  -1   1  622.24   15.90
   0  -1  -1  606.64   17.50
   0  -1  -1  619.44   17.60
   0   1  -1  610.34   15.80
   0   1   1  611.44   17.60
   0   1  -1  611.34   15.80
   0   1   1  636.44   17.60
   1  -1   1  380.26   12.50
  -1  -1  -1  373.96   13.70
  -1  -1  -1  368.96   13.40
   1  -1   1  375.36   12.60
   1   1   1  375.16   13.50
  -1   1  -1  378.56   12.50
   1   1   1  377.86   13.60
   2  -1   1  482.45   17.70
  -2  -1  -1  485.15   18.10
  -2  -1  -1  517.35   18.60
   2  -1   1  518.45   18.40
  -2   1  -1  508.15   18.30
   2   1   1  499.05   18.40
   2   1   1  513.95   18.50
   3  -1   1  693.33   25.00
   3  -1   1  680.53   24.80
  -3  -1  -1  692.53   25.40
  -3  -1  -1  673.83   25.60
   3   1   1  653.43   24.90
   3   1   1  668.93   25.10
  -3   1  -1  683.13   25.30
   4  -1   1  132.49   11.90
   4  -1   1  126.49   13.80
  -4  -1  -1  129.09   12.20
  -4  -1  -1  135.59   14.50
   4   1   1  126.29   14.20
   4   1   1  144.09   12.90
  -4   1  -1  117.29   13.40
  -5  -1  -1   39.80    9.30
   5  -1   1   36.80   10.50
  -5  -1  -1   47.40   11.20
  -5   1  -1   45.40   11.00
   5   1   1   48.10   11.20
  -6  -1  -1  262.07   22.30
  -6  -1  -1  228.68   24.70
   6  -1   1  201.68   24.50
   6  -1   1  197.18   35.90
   6   1   1  247.28   26.50
  -6   1  -1  285.67   26.40
   6   1   1  231.58   24.90
  -6   1  -1  235.08   24.40
   7  -1   1   11.20   18.50
  -7  -1  -1   22.30   19.60
   7  -1   1    0.10   17.50
  -7  -1  -1   20.20   17.60
  -7   1  -1    0.00   17.10
   7   1   1    6.10   20.20
   7  -2  -1   35.30   14.70
   7  -2  -1   40.50   18.20
  -7  -2   1    9.40   15.00
   7   2  -1   21.60   17.60
  -7   2   1   38.80   20.60
   7   2  -1   60.39   16.00
  -7   2   1   29.20   17.30
   6  -2  -1  723.93   35.90
  -6  -2   1  700.03   36.40
   6  -2  -1  704.03   34.60
   6   2  -1  791.42   37.50
  -6   2   1  740.43   37.20
  -6   2   1  700.63   36.50
  -5  -2   1  128.19   16.70
  -5  -2   1   85.19   12.90
   5  -2  -1  140.89   16.10
   5  -2  -1   75.59   12.90
   5   2  -1   92.09   12.80
  -5   2   1   78.09   10.90
  -5   2   1   83.39   11.80
   5   2  -1   82.59   12.40
  -4  -2   1  132.09   11.70
  -4  -2   1  140.49   14.10
   4  -2  -1  133.69   11.80
   4  -2  -1  114.29   13.50
  -4   2   1  118.49   13.00
   4   2  -1  112.09   13.30
   4   2  -1  112.59   13.40
  -4   2   1  124.39   14.00
   3  -2  -1    1.90    4.80
  -3  -2   1    6.20    5.10
  -3  -2   1    8.50    4.40
   3  -2  -1    5.70    4.10
  -3   2   1    4.80    4.90
  -3   2   1    9.80    5.50
   3   2  -1    5.50    5.20
   3   2  -1    5.60    4.10
   2  -2  -1    3.40    2.90
  -2  -2   1   -3.30    3.30
  -2  -2   1    0.60    3.40
   2  -2  -1    5.20    4.00
   2   2  -1   -1.30    3.40
  -2   2   1    0.10    2.60
   2   2  -1    1.50    3.50
  -2   2   1    1.80    4.00
   1  -2  -1 3361.76   83.09
   1  -2  -1 3286.87   83.19
  -1  -2   1 3229.78   81.79
  -1  -2   1 2936.51   82.79
  -1   2   1 3263.57   82.99
   1   2  -1 3240.98   81.79
  -1   2   1 3411.96   83.39
   0  -2  -1 2433.86   62.59
   0  -2  -1 2410.26   62.39
   0   2   1 2408.76   62.39
   0   2   1 2466.35   62.59
  -1  -2  -1 1630.14   42.70
   1  -2   1 1310.37   41.90
  -1  -2  -1 1594.04   42.60
   1  -2   1 1587.94   40.90
  -1   2  -1 1589.74   40.80
   1   2   1 1558.64   42.60
   1   2   1 1611.14   42.80
   2  -2   1 3637.64   94.59
  -2  -2  -1 3501.25   95.29
  -2  -2  -1 3750.82   95.89
   2  -2   1 3669.53   94.49
  -2   2  -1 3518.15   94.19
  -2   2  -1 3663.73   94.39
   2   2   1 3758.92   95.99
  -3  -2  -1 1185.18   38.00
   3  -2   1 1139.99   36.90
  -3  -2  -1 1160.48   38.00
   3  -2   1 1168.98   37.20
   3   2   1 1149.89   37.70
  -3   2  -1 1211.68   37.30
  -3   2  -1 1147.19   37.10
   3   2   1 1184.78   37.90
  -4  -2  -1  505.95   23.90
   4  -2   1  567.64   23.90
   4  -2   1  544.15   24.70
  -4  -2  -1  523.15   25.50
  -4   2  -1  555.14   24.50
   4   2   1  579.14   24.90
   4   2   1  526.65   25.30
  -4   2  -1  516.05   24.40
  -5  -2  -1  235.08   21.30
   5  -2   1  275.07   20.60
  -5  -2  -1  289.97   22.70
   5  -2   1  264.57   20.90
   5   2   1  193.68   20.60
   5   2   1  236.98   18.50
  -5   2  -1  242.48   19.90
   6  -2   1    5.20   13.00
   6  -2   1    6.30    9.10
  -6  -2  -1   -6.20    9.10
   6   2   1    4.10   13.50
   6   2   1    3.80   10.70
  -6   2  -1   16.50   12.50
   7  -2   1   37.50   18.90
  -7  -2  -1   53.59   21.60
  -7  -2  -1   57.19   19.50
   7  -2   1   25.70   18.10
   7   2   1   30.00   15.80
   7   2   1   28.00   17.50
  -7   2  -1   40.00   14.10
  -7  -3   1    8.60   14.00
  -7  -3   1   22.60   15.00
   7  -3  -1   32.70   18.60
   7  -3  -1   52.19   18.60
  -7   3   1   16.20   12.70
   7   3  -1   37.30   17.30
   7   3  -1   21.50   18.50
  -6  -3   1   81.19   13.40
   6  -3  -1  110.19   16.90
   6  -3  -1  102.99   16.00
  -6   3   1  129.59   20.40
   6   3  -1   88.09   14.40
  -6   3   1  111.19   17.40
   5  -3  -1  102.19   15.00
   5  -3  -1  158.68   18.20
  -5  -3   1  158.48   14.90
   5   3  -1  141.49   17.50
   5   3  -1  172.58   15.80
  -5   3   1  172.08   17.70
  -5   3   1  145.09   18.50
   4  -3  -1  927.21   33.70
  -4  -3   1  912.11   33.50
   4  -3  -1  895.51   33.80
  -4  -3   1  970.80   34.30
  -4   3   1  962.80   34.20
  -4   3   1  931.31   34.60
   4   3  -1  940.21   33.90
   4   3  -1  934.21   33.80
   3  -3  -1  234.18   14.00
   3  -3  -1  243.88   14.70
  -3  -3   1  226.28   12.90
  -3  -3   1  233.18   14.00
   3   3  -1  226.18   13.70
  -3   3   1  234.78   14.10
  -3   3   1  247.78   13.60
   3   3  -1  235.78   14.00
   2  -3  -1 1187.08   35.80
  -2  -3   1 1186.18   35.20
  -2  -3   1 1239.48   35.40
   2  -3  -1 1215.08   35.70
  -2   3   1 1233.48   36.10
   2   3  -1 1224.48   35.30
   2   3  -1 1172.68   35.00
  -2   3   1 1158.68   35.40
   1  -3  -1  659.53   20.50
  -1  -3   1  568.14   19.90
   1  -3  -1  670.93   20.50
   1   3  -1  676.43   19.00
  -1   3   1  668.83   20.40
  -1   3   1  646.54   20.50
   0  -3  -1 3958.50   98.19
   0  -3   1 3635.24   94.39
   0  -3  -1 3977.30   98.09
   0  -3   1 3710.43   94.49
   0   3  -1 3737.93   94.19
   0   3   1 3976.20   97.99
   0   3   1 4004.30   98.19
   1  -3   1 2516.35   64.19
  -1  -3  -1 2477.55   66.39
   1  -3   1 2482.85   64.09
  -1  -3  -1 2545.35   66.59
   1   3   1 2535.45   66.59
   1   3   1 2485.85   66.59
  -1   3  -1 2538.45   63.99
  -1   3  -1 2535.95   64.09
   2  -3   1 2345.87   63.09
  -2  -3  -1 2417.66   65.09
   2  -3   1 2370.76   63.09
  -2  -3  -1 2247.38   64.19
  -2   3  -1 2323.87   62.79
   2   3   1 2410.46   65.09
   2   3   1 2331.27   64.59
  -3  -3  -1 1007.60   34.20
  -3  -3  -1  951.00   33.00
   3  -3   1  965.80   32.30
   3  -3   1  975.80   32.50
  -3   3  -1  951.20   32.10
  -3   3  -1  970.20   32.40
   3   3   1 1027.00   34.40
   3   3   1  969.10   33.30
   4  -3   1   79.49   10.10
  -4  -3  -1   59.39   10.60
  -4  -3  -1   52.69   10.20
   4   3   1   72.39   10.60
   4   3   1   82.79   10.70
  -4   3  -1   71.19   10.10
  -4   3  -1   68.09    9.40
   5  -3   1   56.19   11.40
  -5  -3  -1   54.99   12.40
   5  -3   1   21.20    9.40
  -5  -3  -1   30.50    9.30
   5   3   1   27.90   10.90
  -5   3  -1   22.80    8.00
  -5   3  -1   23.60    8.50
  -6   3  -1   10.90   12.10
   6   3   1    1.50   15.60
   6   3   1    7.20   13.90
   7  -3   1   10.10   18.00
  -7  -3  -1   13.80   29.00
  -7  -3  -1   32.50   19.90
   7  -3   1   28.00   17.60
   7   3   1   36.20   15.40
  -7   3  -1   76.49   20.20
   7   3   1   49.30   23.90
  -7   3  -1   43.10   18.10
   7  -4  -1   44.20   18.70
  -7  -4   1   88.59   21.60
   7  -4  -1    4.30   17.10
   7   4  -1   11.10   14.10
   7   4  -1   10.20   17.20
  -7   4   1   38.90   17.80
   6  -4  -1    3.80   12.90
  -6  -4   1    2.60   10.50
   6  -4  -1    1.00   12.10
  -6  -4   1   14.30    9.80
  -6   4   1    1.60   13.40
   6   4  -1   32.90   13.80
   6   4  -1    9.80   13.30
  -6   4   1   -1.80   11.60
  -5  -4   1  305.07   19.20
  -5  -4   1  271.77   21.20
   5  -4  -1  378.86   22.10
   5  -4  -1  288.67   22.00
   5   4  -1  287.07   19.30
  -5   4   1  313.07   22.00
   5   4  -1  270.17   21.90
  -5   4   1  256.27   22.10
   4  -4  -1   28.70    7.10
   4  -4  -1   22.70    7.60
  -4  -4   1   31.50    8.00
   4   4  -1   13.10    7.80
  -4   4   1   20.30    7.30
   4   4  -1   27.50    8.00
  -4   4   1   24.30    8.30
   3  -4  -1  270.47   14.50
  -3  -4   1  295.87   15.60
   3  -4  -1  278.87   15.80
   3   4  -1  307.27   14.80
  -3   4   1  259.27   15.60
  -3   4   1  257.67   15.10
   3   4  -1  265.57   15.20
   2  -4  -1  530.65   20.30
   2  -4  -1  539.75   20.20
  -2  -4   1  538.35   19.30
  -2  -4   1  556.04   19.50
  -2   4   1  549.45   20.00
   2   4  -1  562.64   19.40
  -2   4   1  537.25   20.20
   2   4  -1  545.45   19.30
  -1  -4   1  563.34   17.30
  -1  -4   1  572.34   17.30
   1  -4  -1  550.04   18.80
   1  -4  -1  566.94   19.10
   1   4  -1  548.05   17.10
  -1   4   1  568.44   19.30
   1   4  -1  563.64   17.20
  -1   4   1  546.25   18.90
   0  -4  -1  390.06   14.30
   0  -4  -1  382.36   14.40
   0  -4   1  392.46   11.50
   0  -4   1  405.96   11.60
   0   4  -1  404.36   11.30
   0   4   1  390.56   15.00
   0   4  -1  401.66   11.30
   0   4   1  399.76   14.80
   1  -4   1  763.22   21.50
  -1  -4  -1  754.22   24.00
   1  -4   1  742.73   21.50
  -1  -4  -1  723.23   24.20
  -1   4  -1  738.43   21.30
   1   4   1  731.63   24.20
  -1   4  -1  740.53   21.20
   1   4   1  770.82   24.10
   2  -4   1  275.47   12.30
  -2  -4  -1  264.67   13.50
   2  -4   1  260.47   12.70
  -2  -4  -1  254.17   13.10
   2   4   1  262.47   14.40
  -2   4  -1  268.27   12.20
   2   4   1  251.87   14.20
  -3  -4  -1  209.18   14.70
   3  -4   1  200.58   12.90
   3  -4   1  220.48   13.60
  -3  -4  -1  226.68   15.50
   3   4   1  199.88   15.00
  -3   4  -1  207.08   13.20
  -3   4  -1  207.68   12.80
   3   4   1  213.08   14.90
   4  -4   1    7.40    6.90
  -4  -4  -1   12.80    7.40
  -4  -4  -1   15.70    7.10
   4   4   1   -0.70    5.60
  -4   4  -1   -3.50    4.30
  -4   4  -1    4.60    6.80
   4   4   1   11.60    6.80
   5  -4   1   68.89   11.50
   5  -4   1   44.90   11.50
  -5  -4  -1   59.89   13.00
  -5   4  -1   46.30   10.90
  -5   4  -1   42.30   12.50
   5   4   1   24.90   11.50
  -6  -4  -1   12.00   13.40
   6  -4   1   50.99   11.70
   6  -4   1   37.50   14.10
  -6   4  -1   10.60   12.10
   6   4   1   38.30   15.70
   6   4   1   45.40   14.40
  -7  -4  -1   -3.30   24.90
  -7  -4  -1   21.00   18.90
   7  -4   1    5.10   18.70
   7  -4   1   19.10   17.60
  -7   4  -1   38.60   18.50
   7   4   1  -36.00   24.90
   7   4   1   -8.40   17.30
  -7  -5   1    4.80   13.00
   7  -5  -1   24.10   18.60
  -7  -5   1    0.70   19.90
   7  -5  -1   21.70   18.00
  -7   5   1   48.40   18.10
   7   5  -1   16.60   18.20
   6  -5  -1   83.79   19.30
  -6  -5   1   45.70   14.50
   6  -5  -1   49.40   12.20
  -6   5   1   81.89   16.50
  -6   5   1   58.39   12.40
   6   5  -1   45.40   15.20
   6   5  -1   49.00   14.80
  -5  -5   1   80.59   13.00
   5  -5  -1   47.50   10.00
   5  -5  -1   67.69   12.00
  -5  -5   1   95.69   13.50
   5   5  -1   86.79   12.10
  -5   5   1   76.69   12.90
   5   5  -1   59.39   12.40
  -5   5   1   58.29   12.10
   4  -5  -1  104.99   13.40
   4  -5  -1   83.99   11.40
  -4  -5   1   88.89   11.20
   4   5  -1  109.59   13.60
   4   5  -1   84.69   10.90
  -4   5   1   88.49   10.90
  -4   5   1   93.89   11.40
  -3  -5   1  958.70   32.90
   3  -5  -1  978.40   33.30
   3  -5  -1 1005.80   33.60
  -3  -5   1 1003.60   32.90
   3   5  -1  962.20   33.00
  -3   5   1  959.70   33.30
   3   5  -1  932.21   32.80
  -3   5   1 1012.10   34.10
  -2  -5   1 2259.37   61.29
  -2  -5   1 2248.08   61.29
   2  -5  -1 2212.38   62.39
   2  -5  -1 2214.58   62.19
   2   5  -1 2214.98   61.09
  -2   5   1 2225.28   61.99
  -2   5   1 2355.96   62.99
  -1  -5   1  311.07   11.90
  -1  -5   1  331.27   12.00
   1  -5  -1  307.97   13.60
   1  -5  -1  331.77   14.10
   1   5  -1  313.47   11.90
  -1   5   1  299.97   13.40
  -1   5   1  332.57   14.10
   0  -5   1  220.28    8.10
   0  -5   1  217.68    8.30
   0  -5  -1  217.48   11.20
   0  -5  -1  223.78   11.50
   0   5   1  224.08   11.40
   0   5  -1  220.88    7.90
   0   5   1  228.98   11.20
   0   5  -1  231.18    8.10
   1  -5   1   25.50    3.40
  -1  -5  -1   33.10    5.40
   1  -5   1   27.30    3.70
  -1  -5  -1   22.70    5.00
  -1   5  -1   30.00    3.60
   1   5   1   20.70    5.20
   1   5   1   17.80    5.10
  -1   5  -1   24.60    3.30
  -2  -5  -1   85.29   10.10
   2  -5   1   98.39    8.20
  -2  -5  -1   99.49   10.20
  -2   5  -1   93.39    7.40
   2   5   1   79.39   10.00
   2   5   1   92.99    8.90
  -3  -5  -1  105.89   13.00
   3  -5   1   86.19    9.50
  -3  -5  -1   89.99   12.00
   3  -5   1  102.49   10.50
  -3   5  -1  106.29   10.50
  -3   5  -1  101.69    9.90
   3   5   1  128.39   11.40
  -4  -5  -1  482.75   25.80
  -4  -5  -1  515.35   25.50
   4  -5   1  487.15   23.70
   4   5   1  470.35   25.20
  -4   5  -1  479.75   22.90
  -4   5  -1  537.95   23.90
   4   5   1  519.35   26.30
  -5  -5  -1   37.90   12.00
   5  -5   1   27.30   10.80
   5  -5   1   56.19   11.40
  -5   5  -1   59.19   11.80
   5   5   1   44.30   14.30
   5   5   1   33.80   12.10
  -5   5  -1   45.80   10.70
   6  -5   1    0.90    8.80
  -6  -5  -1  -21.90   16.50
  -6  -5  -1   10.10   16.50
   6  -5   1   14.10   13.00
  -6   5  -1   16.00   12.60
   6   5   1    4.30   17.30
   6   5   1   -3.90   14.80
   7  -5   1    0.10   17.40
   7  -5   1   -5.10   17.80
  -7  -5  -1   11.90   19.60
  -7  -5  -1  -46.30   25.30
   7   5   1   -9.30   24.20
   7   5   1   -3.50   20.20
  -7   5  -1  -19.10   15.80
   7  -6  -1   50.09   20.00
  -7  -6   1   14.60   14.80
   7  -6  -1   33.80   18.60
  -7  -6   1   40.90   16.20
  -7   6   1   50.59   15.10
   7   6  -1   15.80   15.10
  -6  -6   1  189.08   24.40
   6  -6  -1  136.29   18.90
  -6  -6   1  176.78   21.70
   6  -6  -1  202.78   25.70
  -6   6   1  220.48   20.10
   6   6  -1  201.68   22.20
  -6   6   1  185.08   21.70
   6   6  -1  156.18   19.70
  -5  -6   1  292.37   23.50
  -5  -6   1  309.77   20.60
   5  -6  -1  325.57   23.20
   5  -6  -1  315.57   20.90
  -5   6   1  349.27   24.70
   5   6  -1  302.87   26.90
  -5   6   1  304.17   25.60
   5   6  -1  298.27   23.70
   4  -6  -1  216.58   17.60
  -4  -6   1  195.68   16.40
   4   6  -1  226.18   17.70
  -4   6   1  199.08   16.30
  -4   6   1  206.28   15.50
   4   6  -1  212.38   15.20
  -3  -6   1   97.39   10.90
  -3  -6   1  111.29    9.70
   3  -6  -1  105.59   11.70
   3  -6  -1   88.89   11.20
   3   6  -1   91.39   11.30
   3   6  -1  116.89    9.80
  -3   6   1  101.09   12.00
  -3   6   1   94.19   11.40
  -2  -6   1    3.60    4.10
   2  -6  -1   -0.30    4.10
  -2  -6   1    4.60    3.80
   2  -6  -1   -0.30    3.40
  -2   6   1    2.50    3.50
   2   6  -1    1.50    4.20
  -2   6   1   -3.40    3.40
   2   6  -1   -3.40    3.70
   1  -6  -1  325.87   15.00
  -1  -6   1  331.87   12.90
  -1  -6   1  345.97   12.80
   1  -6  -1  336.87   15.00
  -1   6   1  350.86   15.40
   1   6  -1  339.17   12.80
  -1   6   1  357.16   14.50
   1   6  -1  335.97   12.90
   0  -6   1 1731.43   46.00
   0  -6  -1 1820.02   49.70
   0  -6   1 1749.72   46.20
   0  -6  -1 1720.33   49.50
   0   6   1 1788.72   49.80
   0   6  -1 1737.13   45.80
   0   6   1 1729.13   49.30
   0   6  -1 1765.92   45.90
  -1  -6  -1 1051.89   33.20
  -1  -6  -1 1066.99   32.80
   1  -6   1 1029.40   29.70
   1  -6   1 1023.20   29.80
  -1   6  -1 1051.59   29.40
   1   6   1 1079.09   33.50
  -1   6  -1 1061.59   29.80
   1   6   1 1020.60   32.70
  -2  -6  -1  830.12   30.00
   2  -6   1  849.72   27.40
  -2  -6  -1  845.82   29.60
   2  -6   1  877.91   27.40
   2   6   1  858.41   30.30
   2   6   1  849.72   30.10
  -2   6  -1  864.31   26.90
  -2   6  -1  861.81   27.40
  -3  -6  -1    0.10    6.40
   3  -6   1    4.10    5.10
   3  -6   1    4.50    4.20
  -3  -6  -1    8.50    6.80
  -3   6  -1    3.80    4.50
  -3   6  -1   -6.60    7.60
   3   6   1   17.40    7.40
   4  -6   1   47.30    8.90
  -4  -6  -1   41.80    9.80
   4  -6   1   48.00    8.70
  -4   6  -1   41.60    8.20
  -4   6  -1   47.70    9.20
   4   6   1   81.39   12.60
   4   6   1   54.19    9.40
   5  -6   1  -11.10    9.70
  -5  -6  -1    5.20   13.00
  -5  -6  -1   -4.90    7.80
   5  -6   1    7.00    9.30
   5   6   1   -4.80   11.10
  -5   6  -1    2.90    8.90
   5   6   1   20.50   12.60
  -5   6  -1   -2.60    8.70
   6  -6   1  207.48   24.80
  -6  -6  -1  219.28   28.70
  -6  -6  -1  178.58   45.80
   6  -6   1  198.88   20.50
   6   6   1  254.27   28.90
  -6   6  -1  208.18   24.00
   6   6   1  193.28   24.60
  -6   6  -1  210.88   27.00
   7  -6   1   67.89   19.70
  -7  -6  -1   73.69   22.80
  -7  -6  -1   77.79   25.10
   7  -6   1   44.90   18.50
   7   6   1   30.90   21.90
  -7   6  -1   30.90   17.30
   7   6   1  112.89   29.50
   7  -7  -1   27.40   18.10
   7  -7  -1    3.20   18.10
  -7  -7   1  -14.10   23.10
  -7  -7   1  -15.10   18.80
   7   7  -1    6.20   19.60
  -7   7   1   18.10   18.40
  -7   7   1   16.10   20.40
   6  -7  -1   38.60   16.00
  -6  -7   1   52.89   15.30
  -6  -7   1   39.40   13.70
   6  -7  -1   25.90   14.80
  -6   7   1   14.80   12.50
  -6   7   1    8.60   13.70
   6   7  -1   32.70   17.20
   6   7  -1   44.10   12.80
  -5  -7   1   50.39   12.70
  -5  -7   1   34.40    9.80
   5  -7  -1   47.40   12.40
   5  -7  -1   30.10    9.10
  -5   7   1   45.30   12.60
   5   7  -1   28.40   11.80
   5   7  -1   35.20   12.50
  -5   7   1   35.10   11.50
  -4  -7   1  322.57   19.10
   4  -7  -1  252.77   18.80
   4  -7  -1  333.07   17.30
  -4  -7   1  263.77   18.60
  -4   7   1  267.17   18.90
   4   7  -1  266.97   19.30
   4   7  -1  274.07   17.50
  -4   7   1  263.27   17.60
   3  -7  -1   66.89    9.20
   3  -7  -1   73.49    9.20
  -3  -7   1   86.49   10.60
  -3  -7   1   40.80    6.90
   3   7  -1   54.79    8.20
   3   7  -1   55.19    8.50
  -3   7   1   49.80    8.10
  -3   7   1   63.49    9.10
   2  -7  -1    2.20    5.10
   2  -7  -1   -2.10    4.50
  -2  -7   1    1.00    4.40
  -2  -7   1   -1.10    4.00
   2   7  -1   -3.10    3.80
  -2   7   1   -0.70    4.50
  -2   7   1    1.50    3.70
   1  -7  -1  381.16   16.90
  -1  -7   1  360.36   14.70
  -1  -7   1  395.06   14.50
   1  -7  -1  384.46   16.10
  -1   7   1  358.86   16.90
   1   7  -1  396.66   14.90
   1   7  -1  366.76   14.30
  -1   7   1  373.26   16.50
   0  -7   1   91.09    6.50
   0  -7  -1   90.89    8.10
   0  -7  -1   97.19    9.20
   0  -7   1   95.79    6.90
   0   7  -1   91.59    6.50
   0   7   1   97.99    9.70
   0   7   1   90.59    9.20
   0   7  -1   94.39    6.80
   1  -7   1   38.90    4.70
  -1  -7  -1   38.20    6.50
  -1  -7  -1   42.00    6.50
   1  -7   1   37.20    4.80
   1   7   1   36.50    5.90
  -1   7  -1   36.90    4.70
   1   7   1   40.70    6.80
  -1   7  -1   48.40    5.70
   2  -7   1  187.38   11.00
  -2  -7  -1  188.88   13.70
  -2  -7  -1  182.68   13.90
   2  -7   1  178.48   10.80
  -2   7  -1  177.18   10.70
   2   7   1  179.98   12.30
   2   7   1  190.48   13.80
  -2   7  -1  174.78   11.00
  -3  -7  -1  133.29   14.70
   3  -7   1  127.79   12.10
  -3  -7  -1  150.28   14.50
  -3   7  -1  136.09   11.60
   3   7   1  141.59   14.60
   4  -7   1   -8.10    6.80
   4  -7   1   -4.60    6.50
  -4  -7  -1    3.30    8.20
  -4   7  -1   -0.80    7.50
   4   7   1   14.20    7.60
  -4   7  -1   10.00    7.30
   4   7   1    6.80    9.00
  -5  -7  -1  212.68   22.90
   5  -7   1  249.88   20.40
  -5  -7  -1  228.68   25.70
   5  -7   1  191.88   19.80
   5   7   1  232.18   21.20
  -5   7  -1  204.98   21.30
  -5   7  -1  193.68   20.20
   6  -7   1    5.30   10.10
   6  -7   1   11.70   11.40
  -6  -7  -1    0.40   15.10
  -6  -7  -1   -2.70   16.10
  -6   7  -1    6.10   13.30
   6   7   1   31.80   19.40
   6   7   1    1.40   12.20
  -6   7  -1   25.30   15.40
   7  -7   1   40.10   20.60
  -7  -7  -1    3.50   23.10
  -7  -7  -1   67.39   30.30
   7  -7   1   19.30   19.00
   7   7   1  103.29   32.60
  -7   7  -1   23.30   18.20
   7   7   1   -3.20   16.80
  -7  -8   1  -19.50   17.10
  -7  -8   1    9.80   21.00
   7  -8  -1  -30.60   19.10
   7  -8  -1    1.00   17.90
   7   8  -1   -9.90   19.20
  -7   8   1  -42.90   18.10
  -7   8   1  -56.79   19.90
  -6  -8   1  167.48   22.20
  -6  -8   1  129.09   17.20
   6  -8  -1  104.59   19.30
   6  -8  -1  118.79   16.80
  -6   8   1  131.99   19.80
   6   8  -1  202.98   23.60
   6   8  -1  153.18   20.60
  -6   8   1  122.79   18.20
  -5  -8   1   15.20   13.20
  -5  -8   1    8.70   10.10
   5  -8  -1   -8.50   11.50
   5  -8  -1    6.20    8.20
  -5   8   1    7.90    7.60
  -5   8   1  -15.50   10.20
   5   8  -1   -5.70   11.70
   5   8  -1   -1.50    8.10
  -4  -8   1   26.80    9.20
   4  -8  -1    6.30    6.30
   4  -8  -1   14.10    6.70
  -4  -8   1   17.80    8.50
  -4   8   1    9.60    8.30
  -4   8   1   10.80    7.50
   4   8  -1   16.50    8.50
   4   8  -1   16.50    9.10
   3  -8  -1  466.85   22.50
  -3  -8   1  486.55   21.90
  -3   8   1  486.75   23.20
   3   8  -1  484.95   22.10
  -3   8   1  478.25   22.50
   3   8  -1  482.05   22.10
  -2  -8   1  126.79   10.70
   2  -8  -1  148.59   12.00
  -2  -8   1  138.29   10.50
   2  -8  -1  149.59   12.70
   2   8  -1  135.19   10.50
  -2   8   1  146.39   12.40
  -2   8   1  130.69   11.60
  -1  -8   1 3906.31  101.69
  -1  -8   1 3898.41  101.49
   1  -8  -1 3827.32  104.19
   1  -8  -1 3931.81  104.19
  -1   8   1 4005.50  104.49
   1   8  -1 3953.60  101.59
  -1   8   1 3963.50  104.19
   1   8  -1 3901.31  101.29
   0  -8  -1  699.03   24.20
   0  -8   1  679.03   21.40
   0  -8  -1  661.43   24.70
   0  -8   1  646.64   21.40
   0   8  -1  667.43   21.00
   0   8   1  661.73   24.40
   0   8   1  690.03   24.90
   0   8  -1  636.74   21.10
   1  -8   1  311.57   13.20
  -1  -8  -1  317.57   16.20
   1  -8   1  333.47   13.70
  -1  -8  -1  310.87   15.60
  -1   8  -1  318.37   12.90
  -1   8  -1  318.77   13.30
   1   8   1  324.07   17.00
   1   8   1  317.97   15.60
  -2  -8  -1    5.30    6.40
  -2  -8  -1   -0.10    5.60
   2  -8   1    8.70    4.60
   2  -8   1    1.00    4.10
  -2   8  -1    3.60    4.30
   2   8   1    8.40    5.10
  -2   8  -1    6.30    4.50
   2   8   1    4.70    6.40
  -3  -8  -1   26.60    8.80
   3  -8   1   20.50    7.00
   3   8   1    6.10    7.70
  -3   8  -1    7.00    6.00
  -3   8  -1    3.60    5.30
   3   8   1   10.40    6.20
   4  -8   1    4.00    7.70
  -4  -8  -1   11.00    9.50
   4  -8   1    7.00    7.30
  -4  -8  -1  -11.00    7.30
   4   8   1   25.90    8.70
   4   8   1   -4.50    9.90
  -4   8  -1    4.30    7.50
  -5  -8  -1   37.90   13.90
   5  -8   1   60.49   12.30
  -5  -8  -1   71.29   17.60
   5  -8   1   48.30   11.90
  -5   8  -1   42.20   12.20
   5   8   1   76.49   16.80
   5   8   1   42.80   14.50
   6  -8   1  103.89   17.10
  -6  -8  -1   96.19   17.80
  -6  -8  -1  164.98   27.10
   6  -8   1   69.49   16.30
  -6   8  -1  118.49   17.40
  -6   8  -1  108.59   17.00
   6   8   1   80.69   19.90
  -7  -9   1   61.59   18.80
   7  -9  -1   41.50   22.30
   7  -9  -1   42.90   22.30
  -7  -9   1   36.90   27.00
  -7   9   1   24.90   22.90
  -7   9   1   42.60   21.60
   7   9  -1   35.60   23.70
   6  -9  -1   -2.40   14.50
  -6  -9   1  -10.10   14.90
   6  -9  -1   -0.90   11.40
   6   9  -1    2.60   13.90
  -6   9   1   -0.40   14.30
   6   9  -1    0.20   14.80
  -6   9   1    8.00   14.10
   5  -9  -1   -2.40   10.10
  -5  -9   1   -3.50   11.40
   5  -9  -1   -2.00    7.90
  -5  -9   1   -8.60   10.80
  -5   9   1    1.30   10.80
   5   9  -1   -7.00   11.40
  -5   9   1   10.40    9.80
   5   9  -1    7.70   11.80
  -4  -9   1   -4.60    7.60
  -4  -9   1   19.50    9.30
   4  -9  -1   16.80    8.80
   4  -9  -1    3.30    8.20
   4   9  -1   -5.90    8.30
  -4   9   1  -12.60    8.30
   4   9  -1    2.80    8.80
  -4   9   1    8.50    8.70
  -3  -9   1  159.98   14.50
  -3  -9   1  137.99   13.50
   3  -9  -1  168.68   15.10
   3  -9  -1  217.08   14.80
   3   9  -1  163.68   15.30
   3   9  -1  144.29   14.00
  -3   9   1  169.78   15.20
  -3   9   1  157.58   14.90
  -2  -9   1   18.80    5.90
   2  -9  -1    6.60    5.80
  -2   9   1    6.30    5.50
  -2   9   1    8.90    5.70
  -1  -9   1   45.20    5.90
   1  -9  -1   39.20    7.40
  -1  -9   1   38.20    6.00
   1  -9  -1   42.60    7.10
  -1   9   1   36.10    6.70
   1   9  -1   30.40    5.40
  -1   9   1   37.50    7.40
   1   9  -1   31.40    5.70
   0  -9  -1   13.00    6.00
   0  -9   1    5.80    3.60
   0  -9  -1    9.00    5.00
   0  -9   1    7.50    4.00
   0   9  -1    7.10    3.80
   0   9  -1    9.40    4.00
   0   9   1    2.30    5.70
   0   9   1   12.80    5.70
  -1  -9  -1    3.80    4.20
   1  -9   1    4.90    4.30
   1  -9   1   11.70    3.90
  -1  -9  -1    2.30    4.40
  -1   9  -1    6.50    4.00
   1   9   1    1.10    5.40
   1   9   1   19.70    6.80
  -1   9  -1    3.20    3.70
  -2  -9  -1  100.99   12.70
   2  -9   1   97.29   10.40
  -2   9  -1  103.69    9.80
   2   9   1   85.29   10.70
  -2   9  -1   90.39    9.70
   2   9   1   94.19   10.70
  -3  -9  -1   27.80    7.70
   3  -9   1   25.80    6.70
  -3   9  -1   22.10    7.60
   3   9   1   22.10    9.10
   3   9   1   25.30    9.60
  -3   9  -1   31.70    7.10
  -4  -9  -1   15.20   11.00
  -4  -9  -1   10.30   10.40
   4  -9   1   22.20    9.70
   4  -9   1   20.50    9.90
   4   9   1   11.70    8.50
   5  -9   1   52.29   12.70
  -5  -9  -1   71.19   16.10
   5  -9   1   72.09   13.50
  -5  -9  -1   90.69   19.50
   5   9   1   84.89   17.00
   5   9   1   73.49   17.70
  -5   9  -1   86.19   14.30
  -6  -9  -1   30.00   23.10
   6  -9   1   30.40   15.80
   6  -9   1   -8.00   14.00
  -6  -9  -1   12.90   18.40
  -6   9  -1    1.30   13.80
   6   9   1    7.30   17.00
  -6   9  -1   21.20   15.90
   6 -10  -1    6.50   15.90
   6 -10  -1   14.80   16.00
  -6 -10   1   18.20   13.30
  -6 -10   1   -0.20   17.00
   6  10  -1  -14.20   16.70
  -6  10   1    4.90   17.30
  -6  10   1    3.10   14.80
   6  10  -1  -11.70   12.60
  -5 -10   1  137.29   18.40
   5 -10  -1  130.09   17.60
   5 -10  -1  124.49   16.70
  -5 -10   1  134.19   17.80
   5  10  -1  137.69   17.20
   5  10  -1  165.08   19.30
  -5  10   1  134.99   16.90
  -5  10   1  152.88   18.80
  -4 -10   1   45.80   12.80
   4 -10  -1   42.40   11.20
  -4 -10   1   63.39   11.60
  -4  10   1   50.79   11.20
   4  10  -1   51.89   11.40
   4  10  -1   59.89   11.20
  -4  10   1   42.50   11.10
  -3 -10   1   95.79   11.60
  -3 -10   1  133.49   14.00
   3 -10  -1  121.69   14.90
   3 -10  -1  109.19   14.40
  -3  10   1  113.79   15.10
   3  10  -1  148.89   14.60
   3  10  -1   92.19   11.50
  -3  10   1  126.19   14.50
   2 -10  -1    4.50    6.00
  -2 -10   1    5.80    6.60
  -2  10   1   -1.70    5.70
  -2  10   1   -0.60    6.00
   2  10  -1    4.30    6.50
   1 -10  -1  564.24   23.80
  -1 -10   1  467.25   19.90
  -1 -10   1  534.55   21.30
  -1  10   1  567.74   24.20
   1  10  -1  557.74   20.70
   1  10  -1  553.24   21.00
  -1  10   1  560.64   23.40
   0 -10   1  359.16   15.90
   0 -10   1  444.46   15.80
   0 -10  -1  352.36   18.80
   0  10  -1  366.76   15.50
   0  10   1  386.66   19.40
   0  10   1  336.57   18.60
   0  10  -1  355.56   15.60
   1 -10   1   87.39    8.00
  -1 -10  -1  105.29   12.60
   1 -10   1  102.59    9.60
   1  10   1  106.29   12.30
  -1  10  -1   97.99    8.90
   1  10   1  100.19   12.50
  -1  10  -1  108.19    9.20
   2 -10   1   62.39    7.70
   2  10   1   37.20    8.20
  -3 -10  -1   21.00    9.60
   3 -10   1   20.20    7.20
  -3 -10  -1   26.10    9.20
   3 -10   1   21.10    8.00
   3  10   1   25.50   10.20
  -3  10  -1   28.50    7.80
   3  10   1   18.70    9.90
  -4 -10  -1   13.40   10.70
   4 -10   1   16.60    8.70
   4 -10   1   10.40    8.90
  -4  10  -1    5.60   16.20
   4  10   1   16.10   12.00
   4  10   1    5.90   10.80
  -5 -10  -1   17.00   15.20
  -5 -10  -1   46.20   15.50
   5 -10   1   30.90   13.30
   5 -10   1   20.50   12.00
  -5  10  -1    4.10   11.90
   5  10   1   52.29   16.60
   5  10   1   28.50   13.10
  -5  10  -1   34.60   13.40
   6 -10   1  118.89   19.30
   6 -10   1  123.69   19.30
  -6 -10  -1  131.69   24.40
  -6 -10  -1  196.38   26.40
  -6  10  -1  105.89   18.10
   6  10   1  114.59   23.80
  -6  10  -1  142.19   20.80
  -6 -11   1   -4.20   17.60
  -6 -11   1    4.40   18.60
   6 -11  -1    1.90   17.20
   6 -11  -1  -18.40   16.10
   6  11  -1  -25.20   17.20
  -6  11   1    5.70   17.80
   6  11  -1    8.00   17.20
  -6  11   1   10.00   16.60
   5 -11  -1   68.89   15.70
  -5 -11   1   84.59   16.40
  -5 -11   1   98.09   16.10
   5 -11  -1  123.39   17.60
  -5  11   1   97.39   17.40
  -5  11   1  105.49   16.50
   5  11  -1  100.49   17.20
   5  11  -1  105.89   16.10
  -4 -11   1  536.65   29.10
   4 -11  -1  594.64   30.10
   4 -11  -1  557.64   29.90
  -4 -11   1  612.34   29.80
  -4  11   1  625.94   31.80
  -4  11   1  565.44   30.60
   4  11  -1  578.64   29.40
   3 -11  -1   11.70    8.50
  -3 -11   1    0.70    7.70
  -3 -11   1   -3.70    7.30
   3 -11  -1   13.70    8.60
  -3  11   1   -2.50    8.00
   3  11  -1   10.60    8.20
  -3  11   1    2.60    7.80
   2 -11  -1   79.79   10.60
  -2 -11   1   64.19    9.00
   2 -11  -1   73.99   10.50
   2  11  -1   76.79    9.60
  -2  11   1   73.19   10.60
  -2  11   1   70.19   10.50
   1 -11  -1  325.47   19.10
  -1 -11   1  329.17   17.30
  -1 -11   1  342.97   15.80
   1 -11  -1  332.57   18.50
  -1  11   1  323.77   19.30
   1  11  -1  331.17   16.10
   1  11  -1  339.77   16.60
  -1  11   1  320.57   18.50
   0 -11  -1  181.58   15.10
   0 -11   1  168.28   12.00
   0  11   1  164.58   15.10
   0  11   1  174.58   14.80
   0  11  -1  169.98   11.60
   0  11  -1  176.68   11.80
  -1 -11  -1  190.98   15.30
   1 -11   1  217.88   12.30
  -1 -11  -1  180.28   15.90
   1 -11   1  188.68   13.30
   1  11   1  184.28   15.40
   1  11   1  210.88   16.70
  -1  11  -1  189.28   12.60
  -1  11  -1  209.18   12.50
   2 -11   1  378.66   19.30
  -2 -11  -1  389.96   22.60
   2 -11   1  375.76   18.70
  -2 -11  -1  386.66   22.10
  -2  11  -1  396.06   18.70
   2  11   1  342.87   21.40
  -2  11  -1  384.36   18.10
   2  11   1  402.86   22.90
  -3 -11  -1  166.38   19.40
   3 -11   1  195.38   17.40
  -3 -11  -1  160.18   18.90
   3  11   1  199.38   20.20
  -3  11  -1  183.38   14.50
   3  11   1  187.28   19.60
  -3  11  -1  183.58   16.40
   4 -11   1  284.17   21.20
   4 -11   1  265.37   19.90
  -4 -11  -1  278.07   22.90
  -4 -11  -1  259.77   24.90
   4  11   1  265.87   25.80
  -4  11  -1  278.27   22.20
   4  11   1  313.67   26.20
   5 -11   1   84.29   15.00
  -5 -11  -1   62.29   19.00
  -5 -11  -1   43.80   17.30
   5 -11   1   80.19   15.00
  -5  11  -1   85.09   14.80
   5  11   1   43.10   17.30
   5  11   1   92.19   18.00
  -6 -11  -1  -12.70   23.30
   6 -11   1   -9.00   15.70
   6 -11   1    2.40   16.30
  -6 -11  -1   10.70   21.60
   6  11   1  -22.10   21.80
  -6  11  -1   -7.70   17.30
  -6  11  -1  -11.90   15.00
  -6 -12   1   48.60   20.90
   6 -12  -1   22.90   18.80
  -6 -12   1   10.10   20.00
   6 -12  -1   33.50   19.20
  -6  12   1  -15.00   17.80
   6  12  -1   27.30   20.30
   6  12  -1   -1.00   20.70
  -6  12   1   50.89   20.90
   5 -12  -1   17.60   13.90
   5 -12  -1   18.50   14.90
  -5 -12   1   40.90   15.50
  -5 -12   1   55.49   15.10
   5  12  -1   17.40   13.70
  -5  12   1   45.70   15.50
  -5  12   1   37.20   14.20
   5  12  -1   31.30   15.60
   4 -12  -1  124.49   16.30
  -4 -12   1  157.58   20.30
  -4 -12   1  200.48   19.90
   4 -12  -1  136.89   17.10
  -4  12   1  151.48   19.70
  -4  12   1  213.78   23.20
   4  12  -1  157.88   20.80
  -3 -12   1    0.80    7.40
   3 -12  -1   22.40    8.70
   3 -12  -1   -1.20    8.60
  -3 -12   1   -5.00    8.60
  -3  12   1  -15.30    8.50
  -2 -12   1   83.49   10.40
   2 -12  -1   90.89   11.60
   2 -12  -1   66.39   11.40
   2  12  -1   81.19   10.80
  -2  12   1   94.59   12.70
   1 -12  -1   -5.30    6.60
  -1 -12   1    3.50    6.50
  -1 -12   1   -5.90    4.70
   1 -12  -1    8.80    7.90
   1  12  -1    3.10    5.80
   1  12  -1   12.50    6.30
  -1  12   1   -1.20    8.20
  -1  12   1    0.10    7.60
   0 -12   1    0.90    5.10
   0 -12   1   -3.00    5.70
   0 -12  -1    8.10    7.80
   0  12   1   -9.60    6.60
   0  12   1   -4.90    7.60
   0  12  -1    3.20    5.30
   0  12  -1   -6.70    5.10
   1 -12   1    3.60    6.10
   1 -12   1   -6.60    5.00
  -1 -12  -1    4.70    7.20
  -1 -12  -1   16.50    7.90
   1  12   1    0.40    7.20
  -1  12  -1    2.60    5.60
  -1  12  -1    0.80    5.40
  -2 -12  -1  324.97   21.90
  -2 -12  -1  333.37   21.20
   2 -12   1  282.27   18.40
   2 -12   1  315.67   17.90
   2  12   1  313.17   22.00
  -2  12  -1  302.77   17.00
   2  12   1  297.27   21.40
  -2  12  -1  303.67   17.60
   3 -12   1  780.02   31.40
  -3 -12  -1  766.02   34.90
   3 -12   1  764.72   32.00
  -3 -12  -1  738.23   33.20
   3  12   1  759.82   35.70
   3  12   1  752.72   35.30
  -3  12  -1  731.93   30.00
   4 -12   1    0.20    9.60
  -4 -12  -1  -15.60   12.90
  -4 -12  -1   -3.10   13.80
   4  12   1    8.40   13.70
  -4  12  -1  -12.40    9.20
   4  12   1    7.70   13.40
  -4  12  -1   -7.40   10.40
   5 -12   1   28.40   13.10
  -5 -12  -1    5.10   17.10
   5 -12   1   11.50   13.50
  -5 -12  -1   13.00   17.50
  -5  12  -1   31.20   14.30
   5  12   1   39.70   14.60
   5  12   1    9.50   18.90
  -5  12  -1   22.20   13.50
  -5 -13   1   14.70   14.50
   5 -13  -1  -14.10   15.40
  -5 -13   1   -5.70   15.30
   5 -13  -1   19.50   14.40
   5  13  -1   -5.40   15.60
  -5  13   1   -4.40   14.60
   5  13  -1   -0.90   14.90
  -5  13   1   33.70   16.90
  -4 -13   1  197.58   22.00
  -4 -13   1  154.48   17.30
   4 -13  -1  143.99   17.90
   4 -13  -1  189.58   22.50
  -4  13   1  194.68   21.90
   4  13  -1  142.59   18.00
  -4  13   1  186.58   23.60
  -3 -13   1  451.95   24.80
   3 -13  -1  472.65   26.60
  -3 -13   1  487.75   26.60
   3 -13  -1  427.36   26.60
  -3  13   1  459.75   27.50
  -2 -13   1   -4.50    8.70
  -2 -13   1   22.60    7.60
   2 -13  -1   -1.10    9.10
   2 -13  -1   16.60    8.60
  -2  13   1   16.60    9.60
   2  13  -1   18.90    8.40
  -1 -13   1   68.09   10.40
   1 -13  -1   48.60   17.20
   1 -13  -1   72.09   11.40
  -1 -13   1   57.89    9.40
   1  13  -1   58.99    8.80
  -1  13   1   78.19   11.90
   1  13  -1   57.99    9.10
   0 -13   1   -2.90    6.60
   0 -13  -1   -4.90    8.10
   0 -13  -1   -5.10    8.00
   0 -13   1   -2.10    5.70
   0  13  -1   -4.30    6.60
   0  13   1  -12.40    7.80
   0  13  -1    0.90    5.90
  -1 -13  -1  633.04   29.50
   1 -13   1  587.64   27.60
   1 -13   1  627.34   25.80
   1  13   1  664.63   42.70
   1  13   1  615.84   29.20
  -1  13  -1  600.44   24.20
  -1  13  -1  625.64   24.20
   2 -13   1  317.17   18.90
   2 -13   1  287.97   18.20
  -2 -13  -1  322.47   22.70
  -2 -13  -1  275.97   21.80
  -2  13  -1  278.57   18.00
   2  13   1  286.57   23.00
  -2  13  -1  275.57   17.60
   2  13   1  307.47   22.50
   3 -13   1  -16.30    8.90
  -3 -13  -1   20.00   11.20
  -3 -13  -1    5.90    8.70
   3 -13   1    4.20    8.00
  -3  13  -1   -5.10    8.00
   3  13   1   14.70   12.10
   3  13   1    0.20   12.00
  -3  13  -1   -0.10    8.10
   4 -13   1  100.19   15.50
   4 -13   1   87.69   14.20
  -4 -13  -1  111.79   18.90
  -4 -13  -1  113.49   17.60
   4  13   1  131.29   19.30
   4  13   1   94.69   18.70
  -4  13  -1   95.69   13.80
  -4  13  -1  118.99   15.10
  -5 -13  -1   45.20   20.20
   5 -13   1   71.89   17.90
  -5 -13  -1   73.29   22.10
   5 -13   1   74.69   16.80
  -5  13  -1   61.29   15.70
  -5  13  -1   78.79   15.10
   5  13   1   93.89   22.70
   5  13   1   91.29   21.20
  -5 -14   1   -9.30   14.90
   5 -14  -1   18.40   17.60
  -5 -14   1   11.40   17.50
   5 -14  -1    2.40   17.60
  -5  14   1   -5.00   16.20
  -5  14   1   33.40   18.60
   5  14  -1   38.60   17.60
   5  14  -1   35.10   17.80
  -4 -14   1   -9.70   12.80
   4 -14  -1  -17.50   12.60
   4 -14  -1   13.10   12.40
  -4 -14   1  -11.90   11.50
  -4  14   1    0.80   12.80
   4  14  -1    2.60   13.90
  -4  14   1    7.00   13.30
   4  14  -1   24.00   14.50
  -3 -14   1   99.49   15.00
   3 -14  -1   92.39   15.10
  -3 -14   1   80.19   12.70
   3 -14  -1   82.19   14.20
  -3  14   1  105.09   15.30
   3  14  -1   97.29   15.40
  -2 -14   1   17.30    8.30
   2 -14  -1    9.40   10.00
   2 -14  -1    8.80    9.10
  -2 -14   1   33.40   11.30
  -2  14   1   34.50   11.30
   2  14  -1   17.40    9.00
  -1 -14   1   59.29    9.90
   1 -14  -1   59.79   12.10
  -1 -14   1   62.59   11.10
   1 -14  -1   56.89   11.30
  -1  14   1   72.19   12.30
   1  14  -1   75.59   10.30
   0 -14  -1  101.29   13.00
   0 -14  -1   92.69   13.60
   0 -14   1  133.79   14.20
   0 -14   1  149.49   15.20
   0  14   1  112.19   14.50
   0  14  -1  117.89   13.60
   0  14  -1  101.19   13.30
   1 -14   1   -6.30    6.70
   1 -14   1    9.50    7.70
  -1 -14  -1   25.10   10.70
  -1 -14  -1    4.40    8.90
  -1  14  -1    0.00    6.80
   1  14   1   15.20   10.40
  -2 -14  -1   81.09   14.70
   2 -14   1  171.88   17.60
   2 -14   1  135.79   15.90
  -2 -14  -1  131.89   15.70
  -2  14  -1  110.89   12.10
   2  14   1  114.09   14.80
   2  14   1  112.19   16.00
   3 -14   1   -3.30    9.20
   3 -14   1   -1.20   10.60
  -3 -14  -1  -14.30   12.00
  -3 -14  -1   18.50   12.30
   3  14   1   17.20   12.40
   3  14   1   18.50   13.90
  -3  14  -1  -12.50    8.70
  -3  14  -1    8.00    9.50
   4 -14   1   86.59   16.90
  -4 -14  -1   89.59   18.90
  -4 -14  -1  107.19   18.80
   4 -14   1  108.99   15.20
   4  14   1   81.79   17.60
  -4  14  -1   79.59   13.80
  -4  14  -1   73.79   14.50
   4  14   1   45.30   19.00
  -4 -15   1   11.10   13.00
   4 -15  -1   -3.20   15.30
  -4 -15   1   -3.60   14.70
   4 -15  -1   -2.60   13.30
  -4  15   1   19.90   15.80
   4  15  -1   -8.00   14.20
  -4  15   1    3.80   14.10
   3 -15  -1   52.99   15.50
   3 -15  -1   57.99   14.70
  -3 -15   1   56.99   14.00
  -3 -15   1   63.29   12.60
   3  15  -1   83.59   15.20
  -3  15   1   50.69   14.40
   3  15  -1   74.29   15.00
  -3  15   1   99.09   16.20
  -2 -15   1   25.90   11.80
  -2 -15   1   12.60    9.00
   2 -15  -1   12.30   12.50
   2 -15  -1    6.70   10.70
  -2  15   1    7.90   12.60
   2  15  -1    6.40    9.00
   1 -15  -1   -5.90   11.30
  -1 -15   1   -1.30    9.20
   1 -15  -1    3.40    9.70
  -1 -15   1   11.40    7.80
   1  15  -1   -1.40    7.90
   1  15  -1   -4.70    8.30
  -1  15   1   -3.10   11.10
   0 -15  -1   16.70   11.20
   0 -15   1   12.60    8.70
   0 -15  -1    5.30   10.30
   0 -15   1   20.90    8.70
   0  15   1   33.90   12.20
   0  15  -1   10.40    8.10
  -1 -15  -1   12.30    9.90
   1 -15   1   -3.10    8.20
   1 -15   1  -10.80    8.00
  -1 -15  -1    3.00   11.20
  -1  15  -1    5.10    7.60
   1  15   1  -11.50   11.10
  -1  15  -1   22.50    8.30
  -2 -15  -1   -0.60   11.30
   2 -15   1   15.90    9.30
   2 -15   1   24.60   10.70
  -2 -15  -1   -6.10   12.30
   2  15   1   -3.70   12.90
  -2  15  -1   12.60    8.70
  -2  15  -1    7.60    8.70
   2  15   1  -14.40   11.80
   3 -15   1   29.80   11.60
   3 -15   1   54.89   13.20
  -3 -15  -1   65.09   16.50
  -3 -15  -1   35.10   13.60
   3  15   1   59.09   16.30
  -3  15  -1   48.80   11.90
  -3  15  -1   26.50   11.40
   3  15   1   53.29   16.50
  -4 -15  -1   27.60   19.20
   4 -15   1   47.80   14.50
   4 -15   1    5.80   14.60
  -4 -15  -1   44.30   18.80
   4  15   1   -4.20   19.20
  -4  15  -1   44.40   14.70
  -4  15  -1   34.00   14.00
   4  15   1   34.30   19.80
   4 -16  -1  -20.20   17.60
   4 -16  -1   -7.00   15.60
  -4 -16   1   38.60   16.20
  -4 -16   1   15.50   17.20
  -4  16   1    6.20   18.80
   4  16  -1    3.40   18.90
  -4  16   1   -1.60   18.70
   3 -16  -1   31.00   15.70
   3 -16  -1   33.50   14.30
  -3 -16   1   57.79   13.60
  -3 -16   1   75.99   19.30
   3  16  -1   45.50   14.60
  -3  16   1   26.00   15.60
   3  16  -1   43.30   14.80
   2 -16  -1    8.60   13.60
  -2 -16   1   28.30   11.40
   2 -16  -1    5.80   12.90
  -2 -16   1   33.20   13.00
   2  16  -1   16.40   11.00
  -2  16   1   23.40   12.60
   1 -16  -1    8.60   10.40
   1 -16  -1    3.20   12.30
  -1 -16   1    9.50    9.40
  -1 -16   1    1.80   10.40
   1  16  -1    3.30    9.70
  -1  16   1    7.60   11.90
   1  16  -1    8.90    9.60
   0 -16  -1  -29.90   11.80
   0 -16  -1    1.80   11.00
   0 -16   1   13.00    8.80
   0 -16   1   -4.20    9.80
   0  16   1    2.10   11.80
   0  16  -1    9.20    9.00
   0  16   1   -1.20   12.00
   0  16  -1    9.30    8.80
  -1 -16  -1   29.50   11.90
   1 -16   1   18.30   10.60
   1 -16   1   22.00    9.70
  -1 -16  -1    6.10   13.10
   1  16   1    5.20   12.20
  -1  16  -1   10.70    8.90
  -1  16  -1   16.80    9.60
   1  16   1    9.40   13.70
  -2 -16  -1  -18.20   11.80
   2 -16   1  -11.00   11.10
   2 -16   1   16.30   10.10
  -2 -16  -1   10.60   13.80
  -2  16  -1   -6.90    9.90
   2  16   1    6.90   13.30
   2  16   1  -16.00   13.30
  -2  16  -1   -3.70    9.50
  -3 -16  -1    8.90   17.00
   3 -16   1   32.90   12.20
   3 -16   1    1.10   13.90
  -3 -16  -1   22.70   16.40
   3  16   1   23.60   16.60
  -3  16  -1   -0.70   11.70
  -3  16  -1    7.70   11.90
   3 -17  -1   85.89   20.30
   3 -17  -1  109.29   18.70
  -3 -17   1   97.79   16.80
   3  17  -1   74.49   17.40
   3  17  -1  103.39   19.10
  -3  17   1  129.09   20.70
   2 -17  -1   84.19   16.30
  -2 -17   1   73.59   17.00
  -2 -17   1   86.49   15.10
   2 -17  -1   87.29   18.90
  -2  17   1   84.49   17.60
   2  17  -1   72.89   14.60
   1 -17  -1   68.09   15.10
  -1 -17   1   38.10   11.30
  -1 -17   1   53.69   14.00
   1 -17  -1   43.70   15.70
  -1  17   1   56.99   14.70
   1  17  -1   65.79   13.00
   0 -17  -1  193.78   23.80
   0 -17  -1  212.68   26.60
   0 -17   1  202.48   19.70
   0 -17   1  232.98   22.80
   0  17   1  209.38   26.70
   0  17  -1  196.38   19.60
   0  17  -1  213.78   20.40
  -1 -17  -1  222.28   27.40
   1 -17   1  232.78   23.10
   1 -17   1  208.98   21.50
  -1 -17  -1  264.27   26.60
   1  17   1  198.98   25.20
  -1  17  -1  224.98   20.40
  -1  17  -1  217.68   21.10
   1  17   1  213.08   22.60
  -2 -17  -1   27.80   17.20
   2 -17   1    8.30   11.80
   2 -17   1    7.40   13.10
  -2 -17  -1   -2.80   14.50
   2  17   1   -4.20   15.30
   2  17   1   -1.10   15.50
  -2  17  -1    0.00   10.60
  -2  17  -1   -8.40   11.40
   2 -18  -1   47.60   19.20
  -2 -18   1   53.59   17.30
   2  18  -1   10.30   14.10
  -2  18   1    8.90   17.90
   2  18  -1   18.70   15.20
  -1 -18   1   11.90   11.90
   1 -18  -1   19.10   17.80
   1 -18  -1  -11.60   13.50
  -1 -18   1   -3.00   15.00
  -1  18   1   13.80   16.30
   1  18  -1   -1.90   11.70
  -1  18   1   14.30   17.90
   0 -18   1   53.69   12.70
   0 -18  -1   41.40   15.80
   0 -18   1   61.59   15.00
   0 -18  -1   49.60   18.30
   0  18  -1   21.70   12.10
   0  18   1   42.00   17.10
   0  18  -1   34.50   12.50
   1 -18   1   32.40   12.90
  -1 -18  -1    9.20   16.80
   1 -18   1   26.50   14.50
  -1 -18  -1   21.70   17.90
   1  18   1    3.10   27.70
   1  18   1   27.10   16.70
  -1  18  -1   36.70   12.30
  -1  18  -1   23.50   12.30
   8   0  -2  128.19   28.20
   8   0  -2   69.09   26.40
  -8   0   2   76.29   24.00
   7   0  -2  847.92   41.30
   7   0  -2  770.62   44.10
  -7   0   2  789.72   40.30
   6   0  -2  198.48   23.60
  -6   0   2  138.49   17.90
  -6   0   2  161.38   18.80
  -5   0   2  773.92   34.70
  -5   0   2  786.82   34.20
   5   0  -2  836.12   34.00
   5   0  -2  867.01   33.80
   4   0  -2 3420.16   95.79
  -4   0   2 3313.27   95.09
   4   0  -2 3524.95   95.99
  -4   0   2 3463.55   95.59
  -3   0   2   -1.20    4.90
  -3   0   2    2.00    4.70
   3   0  -2   -5.70    4.60
   3   0  -2    1.80    3.90
   2   0  -2 9789.52  245.28
   2   0  -2 9922.31  245.18
  -2   0   2 9999.00  245.48
  -2   0   2 9638.24  245.08
   1   0  -2 8957.20  221.48
   0   0  -2  641.34   19.10
   0   0   2  618.54   18.90
   0   0   2  653.83   19.10
  -1   0  -2 8790.12  218.28
   1   0   2 8817.22  218.38
   1   0   2 8770.52  218.28
  -2   0  -2  769.12   25.80
   2   0   2  768.02   26.00
  -2   0  -2  787.22   25.80
  -3   0  -2  231.58   13.60
  -3   0  -2  217.48   14.20
   3   0   2  241.08   13.60
   3   0   2  221.48   14.60
  -4   0  -2    9.80    6.10
   4   0   2   14.60    7.70
  -4   0  -2   -2.10    7.30
  -5   0  -2  298.27   26.00
   5   0   2  305.97   23.70
   5   0   2  287.57   23.20
  -5   0  -2  250.97   19.40
  -6   0  -2   10.60   15.10
   6   0   2   26.90   11.30
   6   0   2   27.40   14.60
  -6   0  -2   52.79   15.00
  -7   0  -2   28.00   18.60
   7   0   2   22.40   21.90
   7   0   2   26.10   19.60
  -8  -1   2   71.29   20.60
   8  -1  -2   52.69   25.70
   8  -1  -2   64.39   19.80
   8   1  -2   35.40   25.10
   8   1  -2   60.29   28.20
  -8   1   2   49.10   29.60
   7  -1  -2   29.10   17.50
   7  -1  -2   -3.30   16.10
  -7  -1   2    9.30   14.60
   7   1  -2   12.50   16.50
  -7   1   2   25.80   16.70
   7   1  -2   -8.20   11.70
  -7   1   2   21.90   19.30
   6  -1  -2   51.29   13.90
  -6  -1   2   51.89   15.00
  -6  -1   2   34.50   13.10
   6   1  -2   42.30   10.60
   6   1  -2   36.80   11.20
  -6   1   2   19.70   12.80
  -5  -1   2   20.40    8.90
   5  -1  -2   31.90   10.90
   5  -1  -2   28.10    8.10
   5   1  -2   24.90   10.30
  -5   1   2   21.50    9.80
   5   1  -2   22.30    9.20
  -5   1   2   26.20   10.00
  -4  -1   2  173.08   14.80
   4  -1  -2  125.49   13.80
   4  -1  -2  165.88   15.20
  -4  -1   2  167.28   13.00
   4   1  -2  139.89   14.00
  -4   1   2  141.79   12.30
  -4   1   2  138.49   12.70
   4   1  -2  132.99   14.30
   3  -1  -2  454.95   18.90
  -3  -1   2  435.16   19.20
   3  -1  -2  414.36   19.20
  -3  -1   2  417.86   18.00
  -3   1   2  450.55   18.80
   3   1  -2  452.85   19.30
   3   1  -2  435.46   18.40
  -3   1   2  433.76   19.50
  -2  -1   2  132.39    8.80
   2  -1  -2  124.29    8.40
  -2  -1   2  125.89    8.70
   2  -1  -2  109.69    8.30
  -2   1   2  121.39    8.60
   2   1  -2  107.69    8.50
  -2   1   2  115.79    8.20
   2   1  -2  119.79    8.60
   1  -1  -2 7025.20  165.28
   1  -1  -2 6676.13  165.18
  -1  -1   2 6784.42  163.88
  -1  -1   2 5687.13  164.98
   1   1  -2 6693.63  163.78
  -1   1   2 6720.43  165.08
  -1   1   2 6602.74  164.88
   0  -1  -2  168.88    8.30
   0  -1   2  156.18    6.80
   0  -1   2  164.78    6.70
   0  -1  -2  164.58    8.50
   0   1  -2  155.38    6.70
   0   1   2  147.59    8.20
   0   1   2  147.89    7.60
   0   1  -2  165.38    6.60
  -1  -1  -2   16.40    4.10
   1  -1   2   21.60    3.70
  -1  -1  -2   23.20    4.50
   1   1   2   18.40    4.20
  -1   1  -2   16.20    3.10
   1   1   2   17.10    4.20
  -2  -1  -2   36.10    5.50
   2  -1   2   23.40    5.00
   2  -1   2   28.00    4.70
  -2  -1  -2   33.60    5.20
  -2   1  -2   35.90    5.40
   2   1   2   33.00    6.10
  -2   1  -2   26.60    4.90
   2   1   2   36.00    6.00
   3  -1   2    2.20    4.70
  -3  -1  -2    2.30    5.40
  -3  -1  -2    3.10    5.80
   3  -1   2   -1.30    4.70
  -3   1  -2    2.00    4.80
   3   1   2    2.80    5.10
  -3   1  -2   -5.00    4.50
   3   1   2   -0.40    5.60
   4  -1   2  222.58   16.80
  -4  -1  -2  214.08   18.10
  -4  -1  -2  204.08   17.50
  -4   1  -2  204.48   16.50
   4   1   2  211.98   17.20
  -4   1  -2  227.58   16.60
   5  -1   2 1985.20   63.29
  -5  -1  -2 2078.59   65.39
  -5  -1  -2 1990.30   64.09
   5  -1   2 1882.31   62.69
  -5   1  -2 1987.00   63.99
   5   1   2 1867.01   63.29
   5   1   2 1918.91   63.79
  -6  -1  -2  -11.40   12.10
  -6  -1  -2    8.50   15.90
   6  -1   2  -15.20    9.70
   6  -1   2    6.40   13.40
   6   1   2   -8.30   15.50
  -6   1  -2    8.30   13.60
  -6   1  -2  -11.60    8.90
   6   1   2    7.20   13.80
  -7  -1  -2   41.90   20.50
   7  -1   2   31.70   20.50
   7  -1   2   35.00   18.90
  -7   1  -2   44.40   19.30
   7   1   2   10.00   20.80
   7   1   2   56.09   24.90
   8  -2  -2  127.29   27.30
   8   2  -2   80.99   27.20
  -8   2   2  101.99   32.10
   7  -2  -2  -68.89   30.80
   7  -2  -2  -32.00   16.40
  -7  -2   2   -0.10   16.30
  -7   2   2   -8.70   15.90
  -7   2   2   22.40   20.10
   7   2  -2   11.00   13.00
  -6  -2   2   37.00   12.40
  -6  -2   2   16.20   11.80
   6  -2  -2   13.80   10.10
   6   2  -2   14.40    9.60
  -6   2   2   14.90   12.40
   5  -2  -2  171.08   18.90
  -5  -2   2  200.98   16.20
   5  -2  -2  192.98   18.90
   5   2  -2  141.49   15.10
  -5   2   2  170.48   19.20
   5   2  -2  189.88   15.70
  -5   2   2  190.88   18.40
   4  -2  -2  243.28   17.10
  -4  -2   2  227.38   16.20
  -4  -2   2  236.78   16.60
   4  -2  -2  213.48   15.10
  -4   2   2  233.48   15.10
  -4   2   2  238.38   17.30
   4   2  -2  224.48   16.00
   4   2  -2  251.97   16.50
  -3  -2   2  206.48   12.90
  -3  -2   2  210.98   13.30
   3  -2  -2  208.18   13.70
   3  -2  -2  195.48   13.90
  -3   2   2  210.78   13.70
   3   2  -2  190.58   12.70
  -3   2   2  211.08   12.70
   3   2  -2  201.78   13.10
   2  -2  -2  490.25   18.10
  -2  -2   2  479.15   17.20
  -2  -2   2  479.25   17.30
   2  -2  -2  485.35   18.70
   2   2  -2  403.36   16.50
  -2   2   2  469.95   18.70
   2   2  -2  480.75   17.20
  -2   2   2  499.55   18.60
   1  -2  -2   88.09    6.70
  -1  -2   2   88.39    5.50
  -1  -2   2   92.69    5.40
   1  -2  -2   76.99    7.60
  -1   2   2   89.39    7.90
  -1   2   2   78.99    6.40
   1   2  -2   89.09    5.50
   1   2  -2   81.29    5.40
   0  -2  -2   73.69    7.10
   0  -2   2   80.79    4.00
   0  -2   2   78.89    3.90
   0  -2  -2   88.99    6.50
   0   2   2   71.39    7.00
   0   2  -2   78.29    3.70
   0   2  -2   81.49    3.70
   0   2   2   73.49    7.00
   1  -2   2   92.79    6.00
  -1  -2  -2   89.59    7.20
  -1  -2  -2   97.99    7.20
   1   2   2   96.89    8.20
   1   2   2   97.99    8.20
  -1   2  -2  101.89    6.10
  -1   2  -2   98.79    6.30
  -2  -2  -2  150.58   10.40
   2  -2   2  153.28    9.60
  -2  -2  -2  148.99   11.10
   2  -2   2  159.38   10.00
   2   2   2  141.49   10.00
  -2   2  -2  156.88    9.60
   2   2   2  154.18   11.70
  -3  -2  -2   -0.70    5.90
   3  -2   2   -3.60    5.00
  -3  -2  -2   11.70    6.20
   3  -2   2    1.50    4.70
   3   2   2    1.00    5.90
   3   2   2    7.40    6.50
  -3   2  -2   -6.90    4.30
  -3   2  -2   -7.10    4.60
   4  -2   2   60.49   10.00
  -4  -2  -2   69.39   10.70
  -4  -2  -2   63.09    9.90
   4   2   2   78.29   10.50
  -4   2  -2   63.19    9.90
  -4   2  -2   65.19    9.70
   4   2   2   50.29    8.80
   5  -2   2  494.65   27.70
  -5  -2  -2  485.55   30.20
  -5  -2  -2  535.85   30.40
   5  -2   2  509.95   28.10
  -5   2  -2  521.35   27.70
  -5   2  -2  500.75   28.10
   5   2   2  543.95   29.90
   5   2   2  554.24   31.00
   6  -2   2   -5.90   12.70
   6  -2   2   -9.40    9.30
  -6  -2  -2    0.50   13.50
   6   2   2   -0.50   13.80
   6   2   2   29.10   16.60
  -6   2  -2   -5.90   12.50
  -6   2  -2   -6.30   12.90
  -7  -2  -2  -19.90   18.10
   7  -2   2   -6.40   17.90
  -7  -2  -2   32.20   25.30
  -7   2  -2  -15.10   17.30
  -7   2  -2    4.00   18.60
   7   2   2  -14.70   25.30
   7   2   2   -8.70   20.30
   7  -3  -2  242.58   30.20
   7  -3  -2  164.18   26.20
  -7  -3   2  202.08   24.30
  -7   3   2  182.88   22.20
  -7   3   2  219.18   26.60
   7   3  -2  173.28   22.60
   6  -3  -2  164.68   19.20
   6  -3  -2  117.69   17.60
  -6  -3   2  162.28   17.90
  -6  -3   2  146.59   19.90
  -6   3   2  183.88   18.70
   6   3  -2  168.48   21.90
   6   3  -2  135.89   18.60
  -5  -3   2   69.29   11.90
   5  -3  -2   77.29   11.70
   5  -3  -2   80.19   13.50
   5   3  -2   72.49   12.00
   5   3  -2   75.99   11.00
  -5   3   2   90.89   12.20
  -5   3   2   71.69   12.00
  -4  -3   2    0.60    6.10
  -4  -3   2   15.80    6.90
   4  -3  -2    1.70    5.20
   4  -3  -2   -1.50    6.40
   4   3  -2    1.40    4.50
  -4   3   2   -5.70    6.80
   4   3  -2    0.30    6.60
  -4   3   2   -6.30    6.20
   3  -3  -2  137.99   11.00
  -3  -3   2  142.09   11.20
   3  -3  -2  134.79   10.80
  -3  -3   2  136.79   11.30
   3   3  -2  148.79   10.90
  -3   3   2  124.59   10.60
   3   3  -2  143.69   11.20
  -3   3   2  150.28   11.30
   2  -3  -2   86.69    9.10
  -2  -3   2   83.99    7.90
  -2  -3   2   81.69    7.20
   2  -3  -2   82.99    9.10
  -2   3   2   83.39    8.80
  -2   3   2  102.09    9.70
   2   3  -2   91.89    7.20
  -1  -3   2 1040.90   28.10
  -1  -3   2 1037.00   28.00
   1  -3  -2 1018.20   31.10
   1  -3  -2 1010.80   31.30
   1   3  -2 1037.30   27.80
  -1   3   2 1055.59   31.30
  -1   3   2 1011.00   31.10
   1   3  -2 1062.09   27.90
   0  -3  -2  979.20   29.60
   0  -3   2  943.01   24.20
   0  -3   2  978.70   24.20
   0  -3  -2  976.90   29.20
   0   3   2  975.00   29.60
   0   3   2  930.91   28.90
  -1  -3  -2  254.87   12.30
   1  -3   2  259.17    9.90
   1  -3   2  261.57    9.80
  -1  -3  -2  260.07   13.20
  -1   3  -2  266.77    9.60
  -1   3  -2  264.87    9.50
   1   3   2  252.47   13.00
   1   3   2  280.47   12.70
  -2  -3  -2  115.09    9.40
  -2  -3  -2  121.59   11.10
   2  -3   2  121.69    8.40
  -2   3  -2  124.99    8.70
   2   3   2  111.19   11.00
   2   3   2  123.29    9.70
  -3  -3  -2  929.21   33.00
   3  -3   2  925.21   31.10
   3  -3   2  908.31   31.30
  -3  -3  -2  859.71   32.60
  -3   3  -2  934.01   31.10
   3   3   2  921.11   33.50
  -3   3  -2  904.81   30.80
   4  -3   2   46.10    8.90
  -4  -3  -2   27.10    8.90
  -4  -3  -2   55.69   11.10
   4   3   2   47.60   10.50
  -4   3  -2   32.20    8.30
   4   3   2   39.10    9.80
  -4   3  -2   33.80    8.50
  -5  -3  -2   38.70   10.30
   5  -3   2   28.80   10.50
  -5  -3  -2    8.60   12.10
   5  -3   2   41.40   13.30
   5   3   2   41.90   12.40
  -5   3  -2   30.50    8.90
   5   3   2   26.40   10.80
  -5   3  -2   27.30   10.90
  -6  -3  -2  105.09   16.00
   6  -3   2   93.19   16.60
   6  -3   2   77.29   16.00
  -6   3  -2   79.59   16.50
   6   3   2  118.59   22.40
   6   3   2   90.99   18.70
  -6   3  -2   65.69   14.80
  -7  -3  -2  102.09   28.90
   7  -3   2   54.49   20.40
  -7  -3  -2   33.30   16.40
   7  -3   2  107.99   21.90
  -7   3  -2   48.20   19.00
  -7   3  -2   34.80   19.90
   7   3   2   89.39   28.70
   7   3   2   42.50   22.20
  -7  -4   2  -21.80   12.90
  -7  -4   2    1.40   16.50
   7  -4  -2   -5.90   13.10
  -7   4   2   25.00   16.80
   7   4  -2    9.70   17.30
  -7   4   2    7.20   19.90
   6  -4  -2  126.89   16.40
  -6  -4   2  117.69   17.00
   6  -4  -2  155.78   19.40
   6   4  -2  105.09   16.30
   6   4  -2  100.59   17.10
  -6   4   2  106.69   19.70
  -5  -4   2   10.30    6.90
  -5  -4   2   10.80    9.80
   5  -4  -2    9.30    9.60
   5   4  -2    6.80    9.20
  -5   4   2   -1.60    6.30
   5   4  -2   -1.80    8.90
  -5   4   2   14.90   10.00
   4  -4  -2   29.20    8.10
   4  -4  -2   12.30    6.60
  -4  -4   2   20.40    7.30
  -4   4   2   15.10    7.70
   4   4  -2   17.80    7.60
  -4   4   2   16.70    8.40
   4   4  -2   18.10    7.40
  -3  -4   2  897.21   29.80
   3  -4  -2  869.61   30.60
   3  -4  -2  869.21   30.90
  -3  -4   2  862.91   29.60
  -3   4   2  859.31   31.10
   3   4  -2  852.01   29.30
  -3   4   2  883.71   31.80
   3   4  -2  850.91   29.40
   2  -4  -2  113.29   10.20
  -2  -4   2  110.39    8.00
   2  -4  -2   93.19   10.10
   2   4  -2  104.59    7.50
  -2   4   2  107.89    9.10
  -2   4   2  106.19    8.70
   1  -4  -2   14.30    5.00
   1  -4  -2   19.10    4.30
  -1  -4   2   31.40    3.90
  -1  -4   2   23.00    2.80
  -1   4   2   15.30    3.90
   1   4  -2   29.30    3.70
   1   4  -2   21.00    2.60
  -1   4   2   17.10    5.20
   0  -4  -2 1405.76   40.20
   0  -4  -2 1364.16   40.50
   0   4   2 1333.07   40.10
   0   4   2 1424.06   40.70
   1  -4   2 3690.53   95.29
   1  -4   2 3754.42   95.29
  -1  -4  -2 3876.81  100.09
  -1  -4  -2 3799.52   99.99
   1   4   2 3894.51  100.29
  -1   4  -2 3766.62   94.79
   1   4   2 3907.01  100.29
  -1   4  -2 3709.33   94.79
  -2  -4  -2  851.61   29.60
   2  -4   2  830.62   26.00
   2  -4   2  830.22   26.20
  -2  -4  -2  822.72   29.30
   2   4   2  797.82   29.00
   2   4   2  789.92   29.10
  -2   4  -2  827.62   25.60
  -3  -4  -2  119.49   11.50
   3  -4   2  108.69   10.20
  -3  -4  -2  121.59   14.10
   3  -4   2  120.49   12.00
  -3   4  -2  109.19   10.70
   3   4   2  129.49   14.20
   4  -4   2   81.19   10.30
  -4  -4  -2   87.99   12.60
   4  -4   2  103.89   13.30
  -4  -4  -2   76.99   11.60
   4   4   2   89.79   13.50
   4   4   2   95.49   13.00
  -4   4  -2  101.59   12.90
  -5  -4  -2   18.90   10.70
  -5  -4  -2   15.40   12.10
   5  -4   2    8.30    8.70
   5  -4   2   -6.50    8.90
   5   4   2    9.70   10.80
  -5   4  -2    3.90    9.10
  -5   4  -2  -10.90    9.10
   6  -4   2   36.20   13.80
  -6  -4  -2   16.30   11.60
   6  -4   2    7.90   13.30
   6   4   2   17.90   16.20
  -6   4  -2   11.70   12.30
  -6   4  -2  -10.50   12.60
   7  -4   2  198.28   25.70
  -7  -4  -2  261.37   61.59
  -7  -4  -2  201.18   23.90
   7  -4   2  170.18   23.70
  -7   4  -2  137.59   22.60
  -7   4  -2  179.28   25.00
   7   4   2  192.68   28.60
   7   4   2  217.48   29.60
  -7  -5   2   27.20   17.70
   7  -5  -2    4.50   20.90
  -7  -5   2   14.10   18.60
   7  -5  -2   23.90   14.70
  -7   5   2   11.10   17.30
  -6  -5   2  290.67   22.90
   6  -5  -2  275.47   27.20
  -6  -5   2  218.58   24.90
   6  -5  -2  281.17   27.10
   6   5  -2  232.38   25.90
   6   5  -2  228.98   21.30
  -6   5   2  310.97   28.20
  -6   5   2  283.47   26.70
   5  -5  -2  182.48   20.00
  -5  -5   2  190.08   19.10
   5   5  -2  155.18   18.40
   5   5  -2  140.39   18.00
  -5   5   2  177.08   16.60
  -5   5   2  168.28   18.30
  -4  -5   2 1114.89   39.20
   4  -5  -2 1174.38   41.20
   4  -5  -2 1145.19   40.70
   4   5  -2 1186.98   39.90
   4   5  -2 1176.58   40.00
  -4   5   2 1104.39   40.20
  -4   5   2 1110.39   40.60
   3  -5  -2   46.90    8.30
   3  -5  -2   34.40    7.60
  -3  -5   2   42.90    7.20
   3   5  -2   39.20    6.50
   3   5  -2   50.09    7.20
  -3   5   2   40.80    7.00
  -3   5   2   46.60    8.60
   2  -5  -2  443.36   18.70
  -2  -5   2  447.56   17.00
   2  -5  -2  438.36   19.50
  -2   5   2  434.76   19.10
   2   5  -2  443.66   16.40
  -2   5   2  473.15   20.00
   2   5  -2  451.65   16.60
  -1  -5   2 2528.45   64.39
  -1  -5   2 2502.35   64.39
   1  -5  -2 2479.15   69.19
   1  -5  -2 2650.14   69.29
  -1   5   2 2539.65   69.19
   1   5  -2 2482.15   63.89
   1   5  -2 2513.85   63.89
  -1   5   2 2503.85   68.69
   0  -5  -2  289.67   14.40
   0  -5   2  286.97    7.70
   0  -5  -2  290.07   14.50
   0  -5   2  288.27    7.70
   0   5   2  285.77   14.20
   0   5   2  291.27   13.70
  -1  -5  -2 1333.37   41.10
  -1  -5  -2 1329.57   40.90
   1  -5   2 1346.17   35.80
   1  -5   2 1364.96   35.90
  -1   5  -2 1353.26   35.00
   1   5   2 1359.06   41.40
   1   5   2 1323.77   41.20
  -2  -5  -2  135.49   11.00
   2  -5   2  123.09    8.70
  -2  -5  -2  147.69   12.50
   2  -5   2  139.49    8.90
   2   5   2  121.99   12.20
   2   5   2  126.29   12.20
  -2   5  -2  135.69    8.50
  -3  -5  -2 1212.78   41.70
   3  -5   2 1280.67   38.00
   3  -5   2 1143.69   38.10
  -3  -5  -2 1254.77   42.40
   3   5   2 1213.78   42.20
  -3   5  -2 1200.28   37.90
   3   5   2 1160.18   41.50
  -4  -5  -2    8.00    9.00
   4  -5   2   11.10    7.00
   4  -5   2   11.00    7.10
  -4  -5  -2   -3.50    9.70
  -4   5  -2    5.40    6.60
   4   5   2   14.70    9.90
   4   5   2   10.20    9.20
   5  -5   2   91.09   13.60
   5  -5   2  114.89   14.10
  -5  -5  -2   97.09   16.20
  -5   5  -2  116.09   14.30
   5   5   2  126.09   17.20
  -6  -5  -2    5.60   13.00
   6  -5   2    6.70   13.30
  -6  -5  -2    6.20   14.90
   6  -5   2   -6.20   13.00
  -6   5  -2    3.40   12.70
   6   5   2    4.90   16.40
  -6   5  -2   11.40   13.00
  -7  -5  -2   24.60   30.90
   7  -5   2   37.00   20.70
   7  -5   2   58.89   20.70
  -7  -5  -2    9.50   17.40
  -7   5  -2   19.50   18.70
   7   5   2   33.20   28.50
  -7   5  -2   44.40   20.60
   7   5   2   62.79   24.40
   7  -6  -2   56.09   16.80
  -7  -6   2   47.30   20.00
   7  -6  -2   90.19   21.90
  -7  -6   2   97.49   20.40
  -7   6   2   52.79   19.50
   7   6  -2   75.89   20.50
  -6  -6   2   89.39   16.50
  -6  -6   2   73.99   16.70
   6  -6  -2  105.49   15.70
   6  -6  -2  102.79   18.40
  -6   6   2   86.79   18.60
   6   6  -2   86.09   13.70
   6   6  -2  101.79   16.80
  -6   6   2  101.19   15.00
   5  -6  -2   76.79   13.20
  -5  -6   2   78.19   12.70
   5  -6  -2   84.19   12.70
  -5  -6   2   77.49   12.50
  -5   6   2  111.89   15.60
  -5   6   2   66.59   11.70
   5   6  -2   87.39   12.20
   5   6  -2   92.49   14.00
   4  -6  -2   57.69    9.50
  -4  -6   2   73.59   10.40
  -4   6   2   66.59    9.90
   4   6  -2   78.29   10.20
  -4   6   2   61.89    9.90
   4   6  -2   60.99    9.60
  -3  -6   2   12.90    6.00
   3  -6  -2    8.80    6.10
   3  -6  -2    2.80    6.40
  -3  -6   2    5.20    4.50
  -3   6   2   18.10    6.90
   3   6  -2    5.90    5.10
  -3   6   2   11.40    6.50
   3   6  -2    0.90    4.70
  -2  -6   2  285.67   13.20
  -2  -6   2  283.17   12.80
   2  -6  -2  274.47   14.80
   2  -6  -2  276.47   15.50
   2   6  -2  291.17   12.90
  -2   6   2  270.07   14.40
  -2   6   2  263.57   15.60
   2   6  -2  266.77   12.40
   1  -6  -2   27.80    6.40
  -1  -6   2   26.90    3.50
  -1  -6   2   23.80    3.30
   1  -6  -2   20.40    6.20
   1   6  -2   33.10    4.10
   1   6  -2   31.90    4.10
  -1   6   2   24.30    5.90
  -1   6   2   28.80    6.70
   0  -6  -2   86.29    9.80
   0  -6  -2   83.99    8.40
   0  -6   2   91.79    4.00
   0  -6   2   91.39    4.00
   0   6   2   86.39    8.30
   0   6   2   86.79    8.80
   1  -6   2  204.48    8.30
   1  -6   2  201.88    8.40
  -1  -6  -2  217.08   14.00
  -1  -6  -2  195.18   13.20
   1   6   2  203.28   13.80
  -1   6  -2  209.38    7.50
  -1   6  -2  193.58    7.50
   1   6   2  192.98   12.20
  -2  -6  -2   93.19   11.90
   2  -6   2   87.99    7.70
   2  -6   2   82.99    7.90
  -2  -6  -2   84.39   10.00
  -2   6  -2   86.39    7.60
  -2   6  -2   77.79    7.20
   2   6   2   70.09    9.40
   2   6   2  112.39   12.20
  -3  -6  -2  410.56   21.50
   3  -6   2  407.56   19.70
  -3  -6  -2  445.66   23.20
  -3   6  -2  455.25   19.50
  -3   6  -2  450.45   18.90
   3   6   2  470.95   23.70
   3   6   2  416.86   23.00
  -4  -6  -2   62.89   12.80
   4  -6   2   50.79   10.00
  -4  -6  -2   62.89   12.40
   4  -6   2   53.29    9.30
   4   6   2   70.09   12.00
   4   6   2   69.19   12.70
   5  -6   2    5.70    9.30
  -5  -6  -2  -17.40   11.40
   5  -6   2   -6.30    9.80
   5   6   2   -6.00   12.30
   6  -6   2   27.50   13.90
   6  -6   2   -0.10   13.40
  -6  -6  -2   19.30   13.50
  -6  -6  -2   59.09   23.70
  -6   6  -2   25.70   14.30
   6   6   2   43.80   34.60
   6   6   2   23.70   13.80
  -6   6  -2   41.90   14.70
   7  -7  -2    6.70   20.70
   7  -7  -2   21.40   20.60
  -7  -7   2   22.50   19.50
  -7  -7   2   11.70   19.40
   7   7  -2    4.10   17.80
  -7   7   2   -5.80   18.70
   7   7  -2   11.80   15.00
  -6  -7   2   53.09   15.80
   6  -7  -2   42.40   16.00
  -6  -7   2   39.60   14.90
   6  -7  -2   47.90   15.70
  -6   7   2   48.50   14.50
   6   7  -2   57.59   16.10
  -6   7   2   65.59   15.00
   6   7  -2   47.20   14.80
   5  -7  -2  157.38   20.20
  -5  -7   2  118.49   14.60
   5  -7  -2   95.79   14.70
   5   7  -2  131.39   16.10
  -5   7   2  100.39   14.10
   5   7  -2  110.49   14.70
  -5   7   2   93.09   15.70
  -4  -7   2   60.69    9.00
   4  -7  -2   73.59   10.60
   4  -7  -2   41.10   10.50
  -4  -7   2  102.79   12.50
  -4   7   2   80.39   11.60
   4   7  -2   85.99   11.40
  -4   7   2   63.19   12.00
   4   7  -2   67.49   10.10
  -3  -7   2   16.60    6.30
   3  -7  -2    4.60    5.10
   3  -7  -2    5.10    6.90
   3   7  -2   10.30    5.80
  -3   7   2    4.60    7.20
  -3   7   2   19.40    7.40
  -2  -7   2   19.00    4.40
  -2  -7   2   17.10    4.70
   2  -7  -2   17.40    6.50
   2  -7  -2   24.70    5.70
  -2   7   2   21.30    5.50
   2   7  -2   28.70    4.90
  -2   7   2   15.90    6.70
   2   7  -2   18.50    4.60
   1  -7  -2  659.63   25.40
  -1  -7   2  676.03   20.30
  -1  -7   2  643.64   20.10
   1  -7  -2  655.63   24.80
  -1   7   2  681.73   25.90
   1   7  -2  658.93   19.50
   1   7  -2  680.33   19.80
  -1   7   2  658.03   25.20
   0  -7   2   84.09    4.80
   0  -7   2   85.59    4.90
   0  -7  -2   73.69    8.70
   0  -7  -2   94.09   10.70
   0   7  -2   88.89    3.10
   0   7   2   70.19    8.70
   0   7   2   84.59    8.80
  -1  -7  -2   26.90    5.90
  -1  -7  -2   29.00    7.20
   1  -7   2   28.30    3.60
   1  -7   2   42.40    4.60
   1   7   2   24.50    6.90
  -1   7  -2   38.60    4.00
   1   7   2   24.50    6.00
  -1   7  -2   28.80    3.80
   2  -7   2  396.56   15.80
   2  -7   2  401.16   15.60
  -2  -7  -2  372.26   20.30
  -2  -7  -2  390.66   20.70
  -2   7  -2  387.56   15.20
  -2   7  -2  397.76   15.10
   2   7   2  412.36   19.90
   2   7   2  374.66   20.30
  -3  -7  -2  139.89   16.10
   3  -7   2  137.49   12.50
  -3  -7  -2  132.39   16.00
   3   7   2   95.79   12.40
   3   7   2  121.59   13.10
  -3   7  -2  102.79   10.00
  -3   7  -2  107.99   10.60
  -4  -7  -2   20.20   10.70
   4  -7   2   21.50    7.20
   4  -7   2   14.20    8.30
   4   7   2    7.50   10.60
   4   7   2   13.70    8.40
   6  -7   2   -2.30   12.30
   6  -7   2   18.40   14.10
  -6  -7  -2   -2.90   17.10
  -6  -7  -2   54.09   23.80
   6   7   2  -31.10   23.00
  -6   7  -2   28.00   13.60
   6   7   2   17.60   17.80
  -7  -8   2   -7.20   15.90
  -7  -8   2    6.60   14.30
   7  -8  -2   -9.00   19.70
  -7   8   2    7.00   17.70
   7   8  -2  -18.70   21.20
   7   8  -2   -2.30   20.60
   6  -8  -2    1.40   12.10
  -6  -8   2   31.50   15.10
   6  -8  -2    5.60   15.00
  -6  -8   2    6.00   14.30
  -6   8   2    2.10   14.50
   6   8  -2   24.80   14.80
   6   8  -2    1.70   15.10
  -6   8   2   16.80   16.50
  -5  -8   2   -1.00    9.10
   5  -8  -2    4.00   11.40
   5  -8  -2   -5.30    8.40
  -5  -8   2   17.00   10.40
  -5   8   2    8.70    8.70
   5   8  -2   13.10   11.10
  -5   8   2   32.90   13.30
   5   8  -2    5.20    9.80
   4  -8  -2  583.74   28.50
   4  -8  -2  579.24   27.20
  -4  -8   2  608.44   27.20
  -4  -8   2  538.05   26.00
   4   8  -2  582.14   26.70
  -4   8   2  573.14   28.70
  -4   8   2  549.15   29.00
  -3  -8   2   45.70    8.00
   3  -8  -2   49.10    9.50
   3   8  -2   42.50    7.50
  -3   8   2   46.10    8.00
  -3   8   2   56.29   10.00
  -2  -8   2  519.05   19.90
   2  -8  -2  563.84   23.90
  -2  -8   2  507.85   19.60
   2  -8  -2  542.45   24.00
   2   8  -2  525.75   19.70
   2   8  -2  547.25   19.90
  -2   8   2  537.15   23.40
  -2   8   2  551.34   23.30
  -1  -8   2  314.67   12.50
   1  -8  -2  318.37   17.80
   1  -8  -2  325.47   17.60
  -1  -8   2  335.97   12.80
  -1   8   2  334.27   16.50
   1   8  -2  315.37   11.80
  -1   8   2  326.27   16.90
   1   8  -2  325.67   12.00
   0  -8   2   24.60    3.30
   0  -8  -2   26.50    6.80
   0  -8   2   27.10    3.30
   0  -8  -2   15.80    6.50
   0   8   2   27.00    7.10
   0   8  -2   29.60    3.20
   0   8   2   27.50    7.30
  -1  -8  -2   38.10    7.60
   1  -8   2   28.50    4.00
  -1  -8  -2   28.50    7.40
   1  -8   2   29.10    4.00
  -1   8  -2   25.90    3.30
   1   8   2   29.10    7.50
   1   8   2   25.20    7.30
  -1   8  -2   29.80    3.30
  -2  -8  -2   83.99   10.40
   2  -8   2   96.39    9.00
  -2  -8  -2  117.39   13.60
  -2   8  -2  112.99    8.60
   2   8   2   92.59   11.10
  -2   8  -2  104.39    8.30
   2   8   2  120.89   14.30
   3  -8   2    2.00    6.00
   3  -8   2   -7.10    4.50
  -3  -8  -2   -1.60    6.40
  -3   8  -2   -1.40    5.10
   3   8   2    1.20    6.30
  -3   8  -2    0.30    5.20
   3   8   2    7.50    8.90
  -4  -8  -2   -6.50   10.10
   4  -8   2   -0.80    8.60
   4  -8   2    0.60    9.40
  -4  -8  -2   -5.60   11.20
  -4   8  -2  -10.40    7.20
   4   8   2    5.80   11.20
  -5  -8  -2   11.50   16.90
   5  -8   2   10.10   10.50
   5  -8   2    4.20    9.90
  -5  -8  -2   21.60   11.50
   5   8   2   18.90   14.10
  -6  -8  -2  -19.30   22.30
  -6  -8  -2   -6.50   19.30
   6  -8   2  -22.30   13.50
   6  -8   2  -20.00   12.30
   6   8   2  -19.90   17.30
   6   8   2   -7.20   17.00
  -6   8  -2   -3.70   13.20
   7  -9  -2   26.90   22.50
  -7  -9   2   20.50   22.60
   7  -9  -2  -15.80   16.80
  -7  -9   2   27.90   22.00
   7   9  -2   23.40   23.50
  -7   9   2    3.50   21.20
   7   9  -2   31.50   20.70
   6  -9  -2   28.30   12.90
   6  -9  -2   31.10   17.60
  -6  -9   2   23.80   15.70
  -6  -9   2   39.40   12.80
   6   9  -2    0.80   16.00
   6   9  -2   14.90   15.10
  -6   9   2    4.10   15.50
  -6   9   2   21.80   15.90
   5  -9  -2  103.59   16.20
  -5  -9   2  137.69   16.50
  -5  -9   2   87.09   14.50
   5  -9  -2  125.69   16.70
   5   9  -2  113.19   15.20
  -5   9   2   86.39   13.40
  -5   9   2   99.19   16.90
   5   9  -2   85.09   14.60
  -4  -9   2  504.05   25.80
   4  -9  -2  538.55   28.20
   4  -9  -2  494.65   28.00
  -4  -9   2  462.05   25.10
   4   9  -2  565.34   26.00
  -4   9   2  483.35   25.80
   3  -9  -2  375.56   22.40
  -3  -9   2  378.66   18.90
  -3  -9   2  396.66   20.50
   3   9  -2  382.06   19.40
  -3   9   2  380.56   20.50
   3   9  -2  364.66   19.60
  -3   9   2  427.46   23.40
   2  -9  -2   14.60    7.50
  -2  -9   2   28.20    6.00
  -2   9   2   32.10    7.60
  -2   9   2   23.60    8.00
   2   9  -2   20.00    5.40
   2   9  -2   26.70    5.60
  -1  -9   2  535.25   18.20
   1  -9  -2  514.95   23.80
  -1  -9   2  536.85   18.40
   1  -9  -2  528.25   23.70
   1   9  -2  549.05   17.60
  -1   9   2  503.45   23.50
   1   9  -2  534.55   17.60
  -1   9   2  532.35   24.30
   0  -9  -2   11.80    5.50
   0  -9   2    8.40    3.00
   0  -9   2   10.00    3.10
   0  -9  -2    9.60    4.80
   0   9  -2   12.20    2.70
   0   9  -2   10.00    2.50
   0   9   2   15.40    7.30
   0   9   2    6.90    6.40
   1  -9   2   12.40    3.40
  -1  -9  -2   -4.30    6.40
  -1  -9  -2   -5.00    6.40
   1  -9   2   -1.70    3.20
  -1   9  -2    1.90    2.60
  -1   9  -2   -1.20    2.60
   1   9   2    2.10    6.10
   1   9   2   -2.30    6.60
  -2  -9  -2  470.65   25.00
  -2  -9  -2  579.64   24.60
   2  -9   2  466.25   19.00
   2   9   2  474.95   23.30
  -2   9  -2  485.45   18.10
  -2   9  -2  493.65   18.10
   2   9   2  516.35   25.60
  -3  -9  -2   33.80   11.30
   3  -9   2   57.29    8.30
   3  -9   2   45.80    8.20
  -3   9  -2   62.59    8.10
   3   9   2   84.59   13.80
  -3   9  -2   42.60    7.30
   3   9   2   61.29   12.30
  -4  -9  -2   18.00   12.00
   4  -9   2   28.60    8.70
  -4  -9  -2   17.40   11.80
   4  -9   2   12.80    9.90
   4   9   2   49.20   11.50
  -4   9  -2   19.50    9.20
  -5  -9  -2   24.20   17.80
   5  -9   2   10.30   11.50
  -5  -9  -2   30.20   16.10
   5  -9   2    8.90   10.80
   5   9   2   -5.40   11.10
  -5   9  -2    0.40   10.10
   6  -9   2   41.80   16.20
  -6  -9  -2   85.29   21.80
  -6  -9  -2   50.39   17.40
   6  -9   2   27.30   15.20
  -6   9  -2   15.30   15.10
   6   9   2   90.49   28.40
   6   9   2   55.79   21.70
  -6 -10   2   14.30   14.70
   6 -10  -2    8.10   17.20
  -6 -10   2  -14.00   15.30
   6 -10  -2   31.80   17.40
  -6  10   2   -1.40   16.50
   6  10  -2  -17.50   15.10
   6  10  -2    8.30   16.30
  -6  10   2    3.70   17.90
   5 -10  -2    4.90   13.20
  -5 -10   2   10.80   12.00
   5 -10  -2   -7.00    9.10
  -5 -10   2   -0.60   11.50
   5  10  -2   20.20   12.60
  -5  10   2    0.40   13.40
  -5  10   2   33.20   12.60
   5  10  -2    4.20   11.20
   4 -10  -2   17.20   11.10
  -4 -10   2   18.20    9.90
  -4 -10   2   14.70    8.60
   4  10  -2   24.60    9.60
  -4  10   2    8.00   10.80
  -4  10   2   14.10   10.90
   3 -10  -2   28.50    7.90
  -3 -10   2   20.40    6.90
   3 -10  -2   14.90    8.40
   3  10  -2    6.70    7.20
   3  10  -2   18.10    8.40
  -3  10   2   21.30    7.50
  -3  10   2   16.30    8.50
  -2 -10   2   60.99    7.80
   2 -10  -2   66.49    9.60
   2  10  -2   58.39    7.40
   2  10  -2   54.29    7.40
  -2  10   2   64.99   10.70
  -2  10   2   57.29    8.90
  -1 -10   2   21.70    4.90
   1 -10  -2   15.00    6.10
   1  10  -2   22.10    4.50
  -1  10   2   12.60    8.30
   1  10  -2   20.70    4.40
  -1  10   2   25.80    6.80
   0 -10   2  295.67   12.40
   0 -10  -2  301.77   18.90
   0 -10  -2  263.97   17.90
   0 -10   2  318.37   12.10
   0  10   2  289.47   18.60
   0  10   2  297.67   19.20
   0  10  -2  295.87   11.00
   0  10  -2  311.67   11.30
  -1 -10  -2 1434.46   47.50
   1 -10   2 1448.16   40.10
   1 -10   2 1213.28   39.30
  -1  10  -2 1410.26   38.10
   1  10   2 1457.95   46.80
  -1  10  -2 1406.86   38.30
   1  10   2 1470.95   47.80
   2 -10   2 2174.68   60.29
  -2 -10  -2 2260.27   66.99
  -2 -10  -2 2155.78   67.49
   2  10   2 2116.79   66.69
  -2  10  -2 2128.09   58.89
   2  10   2 2168.88   66.79
  -3 -10  -2   -8.10    7.30
   3 -10   2   -5.20    6.50
  -3 -10  -2   -5.80    7.40
   3 -10   2    0.90    6.20
  -3  10  -2   -5.10    5.40
   3  10   2    8.10   10.80
  -3  10  -2  -12.20    5.70
   3  10   2  -11.50    9.70
  -4 -10  -2   99.69   17.00
   4 -10   2  119.69   13.40
   4 -10   2  104.79   13.60
  -4  10  -2   97.79   12.40
   4  10   2  134.79   19.10
  -5 -10  -2   -8.30   15.20
   5 -10   2  -14.50   10.80
   5 -10   2  -13.00   10.50
  -5 -10  -2   -7.50   13.50
   5  10   2   38.30   13.80
  -5  10  -2  -12.90   10.20
  -5  10  -2   23.40   11.80
   5  10   2    6.70   16.50
  -6 -10  -2   25.30   23.10
   6 -10   2   51.59   17.40
   6 -10   2   23.70   16.60
  -6 -10  -2   -5.20   25.00
  -6  10  -2   37.50   16.40
   6  10   2   10.70   16.50
   6  10   2   44.90   23.90
  -6 -11   2   13.20   16.20
   6 -11  -2   -8.70   17.60
   6 -11  -2   34.70   18.90
  -6 -11   2   -7.90   14.90
   6  11  -2  -20.10   16.90
  -6  11   2  -16.20   17.90
   6  11  -2    5.00   17.40
  -6  11   2   -6.70   16.50
   5 -11  -2   72.29   16.90
  -5 -11   2   66.39   14.70
  -5 -11   2   27.50   13.60
   5 -11  -2   74.69   15.70
  -5  11   2  104.29   17.10
   5  11  -2   70.99   15.40
   5  11  -2   75.89   15.00
  -5  11   2   84.79   16.40
   4 -11  -2  517.05   30.80
   4 -11  -2  468.95   29.80
  -4 -11   2  532.55   26.80
  -4 -11   2  501.25   27.00
  -4  11   2  489.55   28.90
  -4  11   2  496.65   30.00
  -3 -11   2   17.80    8.20
   3 -11  -2   14.70    9.00
   3 -11  -2   11.50    9.40
   3  11  -2   14.20    7.10
   3  11  -2   17.10    7.80
  -3  11   2   18.00    7.90
  -3  11   2   13.50    7.30
  -2 -11   2  396.66   18.70
   2 -11  -2  355.06   22.80
   2 -11  -2  399.56   22.90
  -2 -11   2  399.06   18.40
   2  11  -2  390.46   18.20
  -2  11   2  354.46   22.50
  -2  11   2  398.56   23.00
   2  11  -2  380.36   17.90
  -1 -11   2  667.93   22.00
   1 -11  -2  596.34   26.50
   1 -11  -2  608.94   27.90
  -1 -11   2  606.44   22.30
  -1  11   2  638.44   28.60
   1  11  -2  603.94   21.00
  -1  11   2  598.64   27.60
   0 -11  -2   72.69   11.10
   0 -11   2   76.59    8.50
   0 -11   2   97.09    7.90
   0  11  -2   73.39    6.70
   0  11   2   76.29   11.60
   0  11   2   65.99   10.70
   0  11  -2   80.19    7.10
  -1 -11  -2   81.79   12.10
   1 -11   2   95.09    9.40
  -1 -11  -2   96.99   12.90
   1  11   2  101.59   13.10
  -1  11  -2  109.29    8.10
  -1  11  -2  105.59    7.90
   1  11   2  103.59   13.30
   2 -11   2  248.38   15.10
   2 -11   2  265.97   14.40
  -2 -11  -2  242.88   21.20
  -2 -11  -2  253.47   18.30
  -2  11  -2  248.98   13.20
   2  11   2  226.18   20.50
  -2  11  -2  250.57   13.40
   2  11   2  274.37   23.50
   3 -11   2  110.09   11.40
   3 -11   2  148.29   13.90
  -3 -11  -2  163.38   20.60
  -3 -11  -2  130.09   16.70
  -3  11  -2  128.29   13.30
   3  11   2  161.68   20.50
   3  11   2  134.59   16.20
  -3  11  -2  121.29   12.80
   4 -11   2   11.20   10.20
   4 -11   2    9.80    9.50
  -4 -11  -2    2.80   11.20
  -4 -11  -2    2.90   13.60
   4  11   2   35.30   14.70
  -4  11  -2   22.40    9.50
  -4  11  -2    8.00    8.50
   5 -11   2   37.90   12.70
  -5 -11  -2   15.30   18.10
  -5 -11  -2   35.60   20.70
   5  11   2   72.69   22.40
  -5  11  -2    9.10   12.30
  -5  11  -2   27.40   12.10
   5  11   2    6.20   17.70
  -6 -12   2   48.80   19.40
   6 -12  -2   62.79   20.30
   6 -12  -2   38.50   20.40
  -6 -12   2   47.80   18.30
  -6  12   2   63.79   20.40
  -6  12   2   41.90   18.90
   6  12  -2   42.80   20.50
   6  12  -2   44.30   18.70
  -5 -12   2   19.20   13.90
   5 -12  -2   28.20   15.60
  -5 -12   2   12.30   12.50
   5 -12  -2    5.70   15.90
   5  12  -2   11.30   13.10
  -5  12   2    8.10   15.10
  -5  12   2    3.50   14.80
   5  12  -2    8.90   14.20
   4 -12  -2  108.69   15.50
   4 -12  -2  139.39   18.20
  -4 -12   2  113.39   14.90
  -4 -12   2  140.99   18.00
  -4  12   2  134.79   16.80
  -4  12   2  144.19   18.40
  -3 -12   2  202.48   17.10
   3 -12  -2  174.48   20.50
  -3 -12   2  213.58   18.80
   3 -12  -2  178.38   20.30
   3  12  -2  196.48   17.20
  -3  12   2  144.79   19.10
  -3  12   2  205.68   18.20
   2 -12  -2    3.50    8.40
  -2 -12   2  -14.10    5.60
  -2 -12   2    3.00    5.70
   2 -12  -2    0.00    8.40
  -2  12   2   -8.30    8.80
   2  12  -2    0.90    6.00
   2  12  -2   -4.30    6.00
  -2  12   2   -3.60    8.90
   1 -12  -2  -12.90    8.30
   1 -12  -2    4.70    9.00
  -1 -12   2   -1.70    5.20
  -1 -12   2    3.20    4.80
   1  12  -2   -0.60    4.70
  -1  12   2   -6.80    8.00
   0 -12   2  139.29   11.00
   0 -12  -2  138.69   16.90
   0 -12   2  143.09   10.30
   0 -12  -2  110.49   13.60
   0  12  -2  134.09    9.20
   0  12   2  110.09   14.00
   0  12  -2  139.69    9.00
   1 -12   2  216.38   12.50
  -1 -12  -2  230.28   19.50
  -1 -12  -2  215.48   19.70
   1 -12   2  189.18   12.90
  -1  12  -2  206.18   10.90
   1  12   2  193.28   19.20
   1  12   2  149.29   19.00
  -1  12  -2  217.78   10.70
  -2 -12  -2   60.99   13.10
  -2 -12  -2   94.19   14.40
   2 -12   2   60.79    9.30
   2 -12   2   70.39    8.90
   2  12   2   68.89   13.40
  -2  12  -2   94.59   12.40
   2  12   2   63.89   12.90
  -2  12  -2   67.09    7.70
   3 -12   2   10.60    8.40
  -3 -12  -2   -8.80   12.20
   3 -12   2   15.40    8.00
  -3 -12  -2   16.20   10.10
  -3  12  -2   10.20    7.20
   3  12   2   11.40   12.90
   3  12   2   -6.10   11.30
  -4 -12  -2  -12.20   14.80
   4 -12   2    7.90    8.90
  -4 -12  -2  -12.50   14.00
   4 -12   2   13.30   11.00
  -4  12  -2   -5.80    8.70
  -4  12  -2   -0.30    9.30
   4  12   2   -1.90   15.70
   5 -12   2   32.60   14.30
   5 -12   2   -0.80   13.30
  -5 -12  -2   14.50   18.80
  -5 -12  -2   -2.50   20.30
   5  12   2   -0.90   17.10
   5  12   2   18.00   19.30
  -5  12  -2   -6.80   12.80
  -5  12  -2   25.50   12.40
  -5 -13   2  -16.70   12.30
   5 -13  -2   11.70   17.10
  -5 -13   2    5.80   15.40
   5 -13  -2   32.10   17.80
   5  13  -2  -27.30   15.10
  -5  13   2    6.80   17.20
  -5  13   2   23.00   16.90
   5  13  -2   -0.50   14.40
   4 -13  -2    4.70   13.20
  -4 -13   2    4.10   11.70
   4 -13  -2  -16.30   12.30
  -4 -13   2    8.90   10.40
   4  13  -2    5.90   10.30
  -4  13   2  -10.60   13.60
   4  13  -2    6.90   11.20
  -4  13   2   19.90   13.10
  -3 -13   2   -1.20    7.50
   3 -13  -2   11.10   11.50
  -3 -13   2   -1.20    9.70
   3 -13  -2    8.10   11.00
  -3  13   2   26.40   11.80
  -3  13   2   10.50   10.90
   3  13  -2    3.60    9.80
   3  13  -2    5.30    9.00
  -2 -13   2  155.78   15.20
   2 -13  -2  125.09   15.70
   2 -13  -2  170.48   15.90
  -2 -13   2  144.19   14.00
   2  13  -2  166.18   14.00
  -2  13   2  177.98   18.80
  -2  13   2  136.49   16.20
   2  13  -2  121.79   13.50
   1 -13  -2    1.40    9.60
  -1 -13   2   -1.20    5.90
  -1 -13   2   -2.70    6.10
  -1  13   2    1.00    8.80
   1  13  -2   -9.00    5.10
  -1  13   2  -20.60    9.30
   0 -13  -2    9.60    9.10
   0 -13   2    2.20    4.80
   0 -13   2    5.80    5.70
   0  13  -2   -2.40    4.10
   0  13  -2    2.80    4.50
   0  13   2   -8.90   10.40
   0  13   2   -5.50    9.20
   1 -13   2  115.19   11.40
  -1 -13  -2  109.79   15.90
  -1 -13  -2   83.29   14.20
   1 -13   2   84.09    9.90
  -1  13  -2   93.19    9.40
   1  13   2   84.59   13.80
   1  13   2   80.49   13.90
   2 -13   2    6.10    7.20
  -2 -13  -2    4.10    8.60
  -2 -13  -2    4.30   11.30
   2 -13   2    4.40   10.70
  -2  13  -2    2.40    5.50
   2  13   2   23.40   11.20
   2  13   2  -25.20   10.80
  -2  13  -2    4.50    5.90
  -3 -13  -2   -4.10   13.70
   3 -13   2   -4.00    8.60
   3 -13   2   -3.00    7.80
  -3 -13  -2   30.80   13.90
   3  13   2   -2.50   13.30
  -3  13  -2    9.00    7.60
   3  13   2   10.10   10.50
  -3  13  -2    8.00    7.50
  -4 -13  -2    2.50   16.10
  -4 -13  -2   30.00   13.90
   4 -13   2   -0.60   11.00
   4 -13   2   20.70   11.60
  -4  13  -2    6.40   10.40
   4  13   2   15.70   17.30
  -4  13  -2   19.80   10.80
  -5 -13  -2    0.50   16.80
   5 -13   2   -3.80   15.40
  -5 -13  -2    2.50   21.20
   5 -13   2   17.70   13.50
   5  13   2   31.20   24.90
  -5  13  -2    0.30   13.80
   5  13   2   -2.20   21.30
  -5  13  -2   11.60   14.40
  -5 -14   2   -2.00   15.80
  -5 -14   2    0.30   15.10
   5 -14  -2   16.20   17.50
   5 -14  -2   -9.90   18.10
  -5  14   2   10.10   18.90
  -5  14   2   49.60   19.50
   5  14  -2    8.80   17.60
  -4 -14   2  -11.90   13.20
   4 -14  -2    0.40   15.10
   4 -14  -2   19.10   15.00
  -4 -14   2   -5.60   10.50
  -4  14   2    0.00   13.10
  -4  14   2  -20.70   14.20
   4  14  -2   11.50   11.80
   4  14  -2   10.70   13.10
   3 -14  -2   21.40   12.60
  -3 -14   2   26.50   10.50
  -3 -14   2    2.50   10.00
   3 -14  -2   19.90   13.00
   3  14  -2   11.40    9.80
  -3  14   2   14.00   13.00
  -3  14   2   11.10   12.90
   3  14  -2   12.20   10.00
  -2 -14   2   80.39   10.90
   2 -14  -2   95.59   15.00
   2 -14  -2   90.39   14.40
  -2 -14   2  100.49   11.90
  -2  14   2   93.49   15.00
   2  14  -2  117.19   14.40
  -2  14   2   78.09   13.80
  -1 -14   2  396.36   20.20
   1 -14  -2  411.06   26.50
  -1 -14   2  387.56   19.20
   1 -14  -2  386.86   26.50
   1  14  -2  389.96   18.10
  -1  14   2  349.87   26.20
  -1  14   2  405.56   26.60
   0 -14  -2   62.39   12.40
   0 -14   2   43.80    8.10
   0 -14   2   52.39    7.60
   0 -14  -2   50.89   12.70
   0  14   2   63.19   13.90
   0  14   2   67.09   13.10
   0  14  -2   58.09    7.10
  -1 -14  -2  274.67   24.20
   1 -14   2  255.87   16.10
   1 -14   2  246.58   15.60
  -1 -14  -2  258.47   23.40
  -1  14  -2  270.97   13.30
   1  14   2  237.68   24.20
   1  14   2  266.87   23.90
  -1  14  -2  267.37   13.70
   2 -14   2   71.49   10.00
  -2 -14  -2   62.19   15.10
   2 -14   2   50.19    9.00
  -2 -14  -2   58.79   12.30
   2  14   2   37.00   13.50
   2  14   2   47.70   14.10
  -2  14  -2   49.99    7.90
   3 -14   2  141.69   17.40
  -3 -14  -2  134.79   20.10
   3 -14   2  146.79   18.80
  -3 -14  -2  118.19   19.20
  -3  14  -2  124.49   15.40
  -3  14  -2  106.29   11.70
   3  14   2  138.39   20.10
   3  14   2  111.59   19.10
   4 -14   2   -3.10   12.60
  -4 -14  -2  -35.80   17.10
   4 -14   2   11.00   12.00
  -4 -14  -2    8.50   14.40
   4  14   2   -4.20   17.10
  -4  14  -2  -15.30   10.40
  -4  14  -2   -0.20   11.10
   4 -15  -2   13.40   17.00
  -4 -15   2   13.00   12.10
   4 -15  -2  -10.00   16.60
   4  15  -2   26.20   13.80
  -4  15   2   10.50   16.90
  -4  15   2   10.90   16.40
   4  15  -2  -17.70   13.40
   3 -15  -2   34.60   15.50
   3 -15  -2   59.49   15.20
  -3 -15   2   71.79   12.40
  -3 -15   2   75.39   13.90
  -3  15   2   69.49   16.40
   3  15  -2   54.69   12.20
   3  15  -2   74.29   13.00
  -3  15   2   61.39   16.00
  -2 -15   2   61.19   11.50
   2 -15  -2   48.10   15.00
   2 -15  -2   48.40   14.10
  -2 -15   2   63.19   10.70
  -2  15   2   50.39   13.90
   2  15  -2   42.20    9.80
  -2  15   2   61.99   15.10
   2  15  -2   67.89   10.50
   1 -15  -2  114.69   16.10
  -1 -15   2  108.09   13.60
   1 -15  -2   70.09   14.70
  -1 -15   2  137.79   15.30
   1  15  -2  112.09   12.80
  -1  15   2   80.19   15.30
  -1  15   2   88.69   15.40
   0 -15  -2    1.70   11.00
   0 -15   2   14.20    7.50
   0 -15  -2   -5.70   10.50
   0 -15   2   -7.30    6.50
   0  15   2    6.60   12.00
   0  15   2  -10.90   12.00
   0  15  -2    5.90    6.10
  -1 -15  -2   65.29   14.70
   1 -15   2   85.29    9.90
  -1 -15  -2   65.39   15.10
   1 -15   2   78.59   10.10
   1  15   2  107.39   17.00
  -1  15  -2   69.09    8.00
   1  15   2   67.69   15.40
   2 -15   2  148.49   15.80
  -2 -15  -2  109.69   18.20
   2 -15   2  101.39   12.10
  -2 -15  -2  105.99   18.50
  -2  15  -2  128.29   12.90
   2  15   2   98.19   17.60
  -2  15  -2  115.89   13.30
   2  15   2  127.79   19.70
   3 -15   2   60.99   11.90
  -3 -15  -2   65.19   15.90
   3 -15   2   52.49   12.70
  -3 -15  -2   58.19   17.10
  -3  15  -2   36.80    9.40
  -3  15  -2   58.39   10.40
   3  15   2   23.40   16.20
   3  15   2   55.19   14.80
  -4 -15  -2  323.07   37.30
   4 -15   2  288.67   28.00
   4 -15   2  302.77   27.70
  -4 -15  -2  263.67   30.10
   4  15   2  246.58   30.30
  -4  15  -2  256.97   24.00
  -4  15  -2  290.47   24.60
  -4 -16   2   39.70   14.90
   4 -16  -2   31.20   19.80
   4 -16  -2   62.59   20.00
  -4 -16   2   97.59   20.10
   4  16  -2   93.49   21.40
   4  16  -2   29.00   15.90
  -4  16   2   64.79   19.70
  -3 -16   2   63.19   15.00
   3 -16  -2   41.20   16.50
  -3 -16   2   62.69   13.10
   3 -16  -2   60.19   17.40
  -3  16   2   53.09   16.60
   3  16  -2   63.59   13.50
   3  16  -2   56.19   13.20
  -3  16   2    8.90   17.80
  -2 -16   2   10.70   10.70
  -2 -16   2   11.00    9.70
   2 -16  -2    6.20   13.00
   2 -16  -2   -3.20   13.30
   2  16  -2    2.80    9.50
   2  16  -2  -21.20    9.30
  -2  16   2   -6.10   14.10
  -2  16   2   27.70   15.20
  -1 -16   2   -1.10    8.30
   1 -16  -2   38.20   14.70
   1 -16  -2   32.70   12.70
  -1 -16   2   16.30    9.70
  -1  16   2   -4.80   13.10
  -1  16   2   34.50   14.70
   1  16  -2   10.90    7.50
   1  16  -2   10.40    7.80
   0 -16   2    2.20    8.30
   0 -16  -2   -6.40   12.90
   0 -16   2  -13.80    7.10
   0 -16  -2   11.50   13.40
   0  16   2   -5.10   13.20
   0  16  -2  -12.90    6.40
   0  16   2    0.30   13.80
  -1 -16  -2   24.90   14.70
  -1 -16  -2   48.80   16.40
   1 -16   2   42.50    9.70
   1 -16   2   28.20    9.10
  -1  16  -2   37.00    6.90
   1  16   2   29.20   14.20
   1  16   2   33.50   15.40
  -1  16  -2   24.60    7.10
   2 -16   2   58.19   10.70
  -2 -16  -2   58.19   17.50
   2 -16   2   65.89   11.60
  -2 -16  -2   31.20   16.60
   2  16   2   66.29   18.60
  -2  16  -2   44.80    8.10
   2  16   2   42.50   17.20
  -2  16  -2   56.19    9.20
   3 -16   2    6.30   12.70
  -3 -16  -2   14.30   19.60
  -3 -16  -2   18.20   18.70
   3 -16   2   23.30   11.50
   3  16   2   10.90   20.30
   3  16   2   -1.60   18.90
  -3  16  -2    3.30   10.20
  -3  16  -2   -5.10    9.20
   3 -17  -2   -9.10   18.50
   3 -17  -2   20.20   18.50
  -3 -17   2   29.20   14.00
  -3 -17   2   23.00   15.80
   3  17  -2   16.30   13.40
  -3  17   2   -2.20   20.10
   3  17  -2   25.60   14.70
  -3  17   2   75.19   19.20
  -2 -17   2    0.60   12.20
   2 -17  -2   10.00   17.10
  -2 -17   2   20.00   11.10
   2 -17  -2    0.80   16.10
   2  17  -2   -0.50   10.80
  -2  17   2   25.50   16.20
   2  17  -2   13.40   10.80
  -2  17   2    3.30   16.50
   1 -17  -2   -5.00   16.00
  -1 -17   2   29.80    9.70
   1 -17  -2   47.00   15.60
  -1 -17   2   14.40   10.80
  -1  17   2   11.10   15.70
  -1  17   2   30.20   16.00
   1  17  -2    6.50    8.40
   1  17  -2   11.80    8.80
   0 -17   2   28.90   10.70
   0 -17  -2   28.00   16.00
   0 -17  -2   17.20   16.00
   0 -17   2   31.40    9.50
   0  17   2   -1.90   15.80
   0  17  -2   25.80    8.20
   0  17   2   24.70   17.50
   1 -17   2    0.80   10.00
  -1 -17  -2   13.30   16.60
   1 -17   2   -0.90    9.30
  -1 -17  -2    1.70   16.90
  -1  17  -2    6.80    6.70
  -1  17  -2   -0.20    7.50
   1  17   2   -3.50   17.00
   1  17   2    7.20   17.40
   2 -17   2   13.40   10.80
   2 -17   2    8.10   11.00
  -2 -17  -2   19.60   19.90
  -2 -17  -2   27.50   17.20
   2  17   2   20.90   18.90
  -2  17  -2    5.60    9.40
  -2  17  -2   12.10    7.90
   2  17   2   -2.00   18.80
   1 -18  -2    3.50   16.60
  -1 -18   2    3.90   12.10
   1 -18  -2   18.20   19.20
  -1 -18   2    6.70   10.90
   1  18  -2   -7.70    9.40
   1  18  -2   -2.60    9.80
  -1  18   2   11.20   17.30
  -1  18   2  -27.50   18.40
   0 -18  -2   26.30   17.90
   0 -18  -2   10.40   18.80
   0 -18   2   11.10   11.90
   0 -18   2    9.10   10.40
   0  18   2   50.99   19.10
   0  18  -2   10.60   15.60
   0  18   2   -4.00   18.70
  -7   0   3   -7.90   17.90
   7   0  -3   21.50   12.50
  -7   0   3   14.70   17.80
   7   0  -3   10.40   12.90
   6   0  -3   14.10   11.90
   6   0  -3   12.60   14.30
  -6   0   3   -2.60   13.10
  -6   0   3   -1.10    8.50
  -5   0   3  -21.30    9.10
   5   0  -3    4.70    6.90
   5   0  -3    4.10    8.50
  -5   0   3    4.90    8.40
   4   0  -3   -4.30    6.40
  -4   0   3   -4.10    6.70
  -4   0   3    7.20    5.40
   4   0  -3    5.20    7.10
   3   0  -3   -2.10    4.80
   3   0  -3   -2.50    3.60
  -3   0   3   -5.30    4.40
  -3   0   3    1.70    5.10
  -2   0   3    0.50    4.00
   2   0  -3   -0.20    3.90
  -2   0   3    0.50    3.90
   2   0  -3    4.20    4.40
   1   0  -3   -2.00    3.10
  -1   0   3    4.30    3.10
   1   0  -3   -1.40    2.70
  -1   0   3    5.30    3.30
   0   0   3   -0.50    2.90
   0   0  -3   -3.20    2.60
   0   0   3    0.20    3.10
  -1   0  -3    3.40    3.60
  -1   0  -3   -2.40    3.30
   1   0   3   -3.50    3.10
   1   0   3    1.50    3.40
   2   0   3    7.60    4.80
  -2   0  -3   -2.40    4.00
  -2   0  -3    1.90    4.40
   2   0   3    0.40    4.60
  -3   0  -3    0.70    5.50
   3   0   3   13.90    5.70
  -3   0  -3    4.30    6.30
   3   0   3    0.70    5.80
  -4   0  -3    0.20    5.50
  -4   0  -3   -8.30    7.80
   4   0   3   -9.70    8.20
   4   0   3   10.30    6.50
   5   0   3  -15.20   10.40
  -5   0  -3   -4.70   10.40
   5   0   3  -30.30   12.80
  -5   0  -3    1.80   10.30
  -6   0  -3    0.60   15.10
  -6   0  -3   -3.80   13.30
   6   0   3   -2.10   15.30
   6   0   3  -16.70   16.50
   7   0   3  -30.20   23.90
  -7   0  -3   -6.30   20.70
   7   0   3    8.60   21.80
  -7  -1   3    8.80   16.80
   7  -1  -3   18.70   13.20
  -7  -1   3   -1.00   19.00
   7  -1  -3   26.80   17.70
   7   1  -3    2.90   12.60
  -7   1   3   29.80   18.70
  -7   1   3   10.70   18.10
  -6  -1   3   46.90   13.70
  -6  -1   3   38.00   11.90
   6   1  -3   39.30   13.80
  -6   1   3   22.60   13.10
  -6   1   3   24.40   11.20
   6   1  -3   38.20   11.20
   5  -1  -3  -10.40    8.40
   5  -1  -3    5.00    9.40
  -5  -1   3   -3.90    8.40
   5   1  -3    0.60    8.40
  -5   1   3    1.60    6.40
   5   1  -3   12.00    8.60
  -4  -1   3  458.15   22.70
  -4  -1   3  440.96   21.90
   4  -1  -3  455.95   21.80
   4  -1  -3  412.26   22.10
   4   1  -3  445.86   21.30
  -4   1   3  460.25   23.00
   4   1  -3  423.26   22.10
  -4   1   3  416.86   20.90
  -3  -1   3   49.99    7.30
   3  -1  -3   48.00    7.20
   3  -1  -3   47.50    7.90
  -3  -1   3   56.69    7.70
   3   1  -3   54.29    7.80
  -3   1   3   76.79    8.80
   3   1  -3   67.89    8.10
  -3   1   3   54.99    7.30
  -2  -1   3  661.83   22.40
   2  -1  -3  692.53   23.20
   2  -1  -3  672.43   23.70
  -2  -1   3  654.63   22.50
   2   1  -3  576.64   21.70
  -2   1   3  663.13   23.40
  -2   1   3  669.43   23.60
   2   1  -3  632.34   22.30
  -1  -1   3 1606.34   43.10
   1  -1  -3 1602.84   44.30
   1  -1  -3 1591.64   44.50
  -1   1   3 1521.65   43.90
   1   1  -3 1546.75   42.80
  -1   1   3 1550.34   44.40
   0  -1   3   61.79    5.60
   0  -1  -3   63.19    6.90
   0  -1  -3   61.19    7.00
   0  -1   3   59.89    5.90
   0   1   3   52.89    7.10
   0   1   3   54.79    7.10
   0   1  -3   68.59    5.80
   0   1  -3   64.19    5.80
  -1  -1  -3    7.20    4.10
   1  -1   3    6.20    3.40
  -1  -1  -3    4.60    3.40
  -1   1  -3    7.10    3.20
   1   1   3    4.60    4.20
   1   1   3   14.30    4.70
  -2  -1  -3  174.08   12.20
   2  -1   3  174.68   11.30
  -2  -1  -3  199.08   12.80
   2   1   3  179.18   12.60
   2   1   3  171.78   12.50
  -2   1  -3  182.78   11.30
  -3  -1  -3   13.40    6.70
   3  -1   3    8.50    6.00
  -3  -1  -3   12.60    6.80
  -3   1  -3   12.10    6.20
  -3   1  -3    5.10    6.10
   3   1   3   16.20    5.80
  -4  -1  -3   67.99   10.60
   4  -1   3   79.99   11.50
  -4  -1  -3   67.59   10.30
   4  -1   3   56.99   10.30
   4   1   3   56.89   11.80
  -4   1  -3   65.19   10.90
  -4   1  -3   55.49   10.40
   4   1   3   76.09   11.60
   5  -1   3  651.93   32.50
  -5  -1  -3  606.54   33.00
  -5  -1  -3  627.44   33.70
   5  -1   3  614.94   30.10
  -5   1  -3  663.33   32.60
   5   1   3  596.14   30.40
  -5   1  -3  626.24   31.80
   6  -1   3  -13.30   12.70
   6  -1   3    3.40   15.50
  -6  -1  -3    6.40   15.20
  -6  -1  -3  -20.60   15.90
  -6   1  -3   -6.50   15.00
  -6   1  -3   16.80   14.70
   6   1   3   -5.90   15.00
   6   1   3   -0.80   17.40
   7  -1   3   -0.90   21.10
  -7  -1  -3    6.40   21.60
   7  -1   3    4.80   23.50
  -7   1  -3   -2.10   21.10
   7   1   3   -3.90   20.00
  -7   1  -3   57.79   21.80
   7   1   3    4.80   25.80
  -7  -2   3   93.19   18.70
   7  -2  -3   31.70   17.90
   7  -2  -3   71.59   20.30
  -7  -2   3   38.00   17.30
  -7   2   3   79.59   16.30
  -7   2   3   73.39   18.00
   7   2  -3   43.40   13.80
  -6  -2   3  -11.10   14.30
  -6  -2   3   -3.20   11.40
   6  -2  -3   16.90   12.70
   6   2  -3   -0.30   12.60
   6   2  -3   19.80   11.70
  -6   2   3    1.40    9.70
  -6   2   3    2.60    9.10
  -5  -2   3   16.20    9.50
   5  -2  -3  -16.20    8.90
  -5  -2   3   15.30    7.20
   5  -2  -3   -4.10    7.20
   5   2  -3   -1.20    9.30
   5   2  -3    3.60    8.30
  -5   2   3   16.30    9.40
   4  -2  -3  400.16   22.50
   4  -2  -3  417.76   22.40
  -4  -2   3  516.45   22.40
  -4  -2   3  427.86   21.50
  -4   2   3  424.66   21.10
  -4   2   3  409.76   22.80
   4   2  -3  425.46   21.90
   4   2  -3  452.55   21.90
  -3  -2   3 1203.18   37.70
   3  -2  -3 1225.58   38.70
  -3  -2   3 1098.09   36.90
   3  -2  -3 1132.39   38.20
   3   2  -3 1231.18   37.80
  -3   2   3 1153.78   38.10
   3   2  -3 1171.08   37.40
  -3   2   3 1193.98   38.70
   2  -2  -3  180.48   12.30
   2  -2  -3  180.58   11.30
  -2  -2   3  179.28   10.40
  -2  -2   3  189.78   10.80
   2   2  -3  203.68   11.00
  -2   2   3  178.78   11.90
  -2   2   3  169.78   12.10
  -1  -2   3  304.87   11.50
   1  -2  -3  308.27   14.30
   1  -2  -3  305.67   14.20
  -1  -2   3  309.17   11.60
   1   2  -3  303.87   11.50
  -1   2   3  293.97   14.20
   1   2  -3  306.07   11.40
  -1   2   3  290.57   13.80
   0  -2   3  926.71   25.80
   0  -2  -3  944.81   29.00
   0  -2   3  907.51   25.60
   0  -2  -3  912.71   29.10
   0   2   3  888.91   28.80
   0   2   3  896.11   29.00
   0   2  -3  909.31   25.30
   0   2  -3  923.41   25.40
   1  -2   3 2471.15   64.79
   1  -2   3 2515.55   64.89
  -1  -2  -3 2425.76   67.49
  -1  -2  -3 2566.44   67.89
   1   2   3 2395.96   67.39
  -1   2  -3 2398.26   64.39
   1   2   3 2518.55   68.09
  -1   2  -3 2445.56   64.49
   2  -2   3  242.08   12.40
  -2  -2  -3  228.98   13.20
   2  -2   3  194.58   14.00
  -2  -2  -3  214.48   13.90
   2   2   3  217.88   14.10
  -2   2  -3  216.78   11.70
   2   2   3  213.78   14.10
  -3  -2  -3  924.51   34.10
   3  -2   3  851.51   31.80
  -3  -2  -3  887.41   33.70
   3  -2   3  931.01   31.90
   3   2   3  949.01   34.70
  -3   2  -3  948.51   32.50
  -3   2  -3  951.40   32.30
   4  -2   3   34.00    8.90
  -4  -2  -3   37.40    9.00
  -4  -2  -3   26.50    9.60
   4  -2   3   31.20    9.00
  -4   2  -3   29.00    8.80
   4   2   3   20.80    9.20
  -4   2  -3   38.00    9.50
  -5  -2  -3  182.98   18.60
  -5  -2  -3  196.68   24.00
   5  -2   3  164.78   20.70
   5  -2   3  191.68   20.50
   5   2   3  159.68   21.20
   5   2   3  165.28   20.90
  -5   2  -3  155.28   20.40
  -5   2  -3  154.18   19.50
   6  -2   3   17.20   15.20
  -6  -2  -3   13.10   15.90
  -6  -2  -3   41.30   15.20
   6  -2   3  -20.10   14.20
  -6   2  -3   37.80   15.20
  -6   2  -3    4.70   14.80
   6   2   3    7.90   17.50
   6   2   3   13.70   12.40
  -7  -3   3   59.29   21.50
  -7  -3   3   59.69   15.30
   7  -3  -3   69.09   20.30
   7   3  -3   53.69   18.00
  -7   3   3  110.09   20.70
  -6  -3   3    4.30   10.20
   6  -3  -3   14.30   13.20
  -6  -3   3   -0.70    8.80
  -6   3   3    7.30   12.90
   6   3  -3    6.00   12.00
   6   3  -3   11.60   12.50
  -6   3   3  -16.30   13.50
   5  -3  -3  500.35   28.80
   5  -3  -3  524.45   26.70
  -5  -3   3  488.65   27.20
  -5  -3   3  485.85   26.60
  -5   3   3  531.45   28.60
   5   3  -3  550.54   27.30
   5   3  -3  523.15   27.50
  -5   3   3  561.04   26.60
   4  -3  -3    6.20    7.50
  -4  -3   3   -0.90    6.20
  -4  -3   3   -0.10    5.90
   4  -3  -3    3.10    7.60
   4   3  -3   -6.90    6.20
  -4   3   3   10.50    7.80
  -4   3   3   -1.20    5.10
   4   3  -3   13.10    6.70
  -3  -3   3  297.07   15.40
   3  -3  -3  332.17   16.60
  -3  -3   3  302.57   15.60
   3  -3  -3  293.37   16.30
   3   3  -3  296.57   15.30
   3   3  -3  315.67   15.60
  -3   3   3  312.27   17.50
  -3   3   3  303.47   17.50
  -2  -3   3  530.25   19.40
   2  -3  -3  535.95   22.00
  -2  -3   3  548.85   19.20
   2  -3  -3  550.74   21.80
   2   3  -3  542.05   19.20
  -2   3   3  542.15   21.90
   2   3  -3  523.85   18.90
  -2   3   3  542.85   20.90
   1  -3  -3 1794.42   52.09
  -1  -3   3 1802.82   47.70
  -1  -3   3 1826.82   47.90
   1  -3  -3 1850.71   51.89
  -1   3   3 1853.51   52.09
   1   3  -3 1845.12   47.50
   1   3  -3 1832.82   47.40
  -1   3   3 1769.82   51.59
   0  -3  -3  229.98   13.30
   0  -3   3  252.07    8.80
   0  -3   3  256.47    8.80
   0  -3  -3  274.27   13.80
   0   3  -3  252.17    8.10
   0   3   3  249.48   13.60
   0   3   3  255.77   12.60
   0   3  -3  245.08    8.10
  -1  -3  -3  400.86   18.40
   1  -3   3  420.76   14.50
  -1  -3  -3  420.16   18.70
   1   3   3  434.06   18.80
   1   3   3  425.46   18.40
  -1   3  -3  412.06   14.00
  -1   3  -3  420.06   14.00
  -2  -3  -3 1329.77   42.30
   2  -3   3 1326.37   38.80
  -2  -3  -3 1291.57   41.90
   2  -3   3 1307.87   38.80
   2   3   3 1285.27   41.60
  -2   3  -3 1305.77   38.30
   2   3   3 1270.17   41.70
  -2   3  -3 1346.37   38.60
   3  -3   3    0.70    5.50
  -3  -3  -3   14.80    7.60
  -3  -3  -3   -3.00    6.40
   3   3   3   10.40    7.60
   3   3   3    6.10    7.00
  -3   3  -3    5.50    5.60
  -4  -3  -3   41.60   10.80
   4  -3   3   45.20    9.60
  -4  -3  -3   35.80   11.70
   4  -3   3   36.90    8.80
  -4   3  -3   36.20    9.30
   4   3   3   22.70    9.80
   5  -3   3    6.10   10.20
   5  -3   3   41.90   11.30
  -5  -3  -3   24.30   13.10
  -5  -3  -3   25.30   14.40
  -5   3  -3    8.50   10.60
  -5   3  -3   21.80   11.00
   5   3   3   13.30   12.10
   5   3   3   48.50   16.10
   6  -3   3   30.80   14.00
   6  -3   3    9.10   14.10
  -6  -3  -3   19.50   12.90
   6   3   3   23.00   12.90
  -6   3  -3  -11.70   13.50
   6   3   3   15.90   15.60
  -6   3  -3  -13.00   13.70
  -7  -4   3    6.90   12.20
   7  -4  -3  -14.50   18.00
   7  -4  -3    5.40   14.70
   7   4  -3  -42.20   16.60
  -7   4   3  -24.50   22.80
  -7   4   3    7.20   12.70
   7   4  -3   12.30   16.60
   6  -4  -3  153.28   19.70
  -6  -4   3  145.79   17.70
   6  -4  -3  117.79   16.30
  -6  -4   3  168.98   19.90
  -6   4   3  102.19   15.40
   6   4  -3  144.49   18.00
   6   4  -3  126.99   17.50
  -5  -4   3   10.40    9.80
   5  -4  -3   13.20    8.80
  -5  -4   3    3.60    6.70
  -5   4   3    6.90    8.00
   5   4  -3    3.10    7.80
  -5   4   3  -11.10    9.60
  -4  -4   3  156.88   14.20
   4  -4  -3  153.08   13.90
   4  -4  -3  184.98   14.80
   4   4  -3  161.98   14.50
  -4   4   3  159.58   14.70
   4   4  -3  182.58   14.70
  -4   4   3  153.68   13.80
  -3  -4   3   -1.60    4.50
   3  -4  -3   -3.40    6.30
  -3  -4   3    4.60    4.50
   3  -4  -3    5.10    6.10
   3   4  -3    5.90    4.80
  -3   4   3   10.70    6.50
  -3   4   3   -3.80    4.00
  -2  -4   3  242.08   11.50
  -2  -4   3  245.58   11.60
   2  -4  -3  244.08   15.10
   2  -4  -3  251.67   13.80
  -2   4   3  247.58   13.60
  -2   4   3  226.98   14.60
   2   4  -3  239.68   11.30
   2   4  -3  227.38   11.20
  -1  -4   3   47.10    4.50
  -1  -4   3   46.10    4.30
   1  -4  -3   35.30    5.90
   1  -4  -3   41.30    6.90
   1   4  -3   39.50    3.90
  -1   4   3   36.40    5.90
  -1   4   3   31.70    6.70
   1   4  -3   38.30    3.70
   0  -4   3  203.38    6.60
   0  -4  -3  215.68   13.40
   0  -4   3  206.08    6.70
   0  -4  -3  207.28   12.20
   0   4   3  219.08   12.30
   0   4   3  195.48   12.90
   1  -4   3  611.34   18.50
  -1  -4  -3  622.44   24.00
   1  -4   3  603.64   18.60
  -1  -4  -3  612.84   24.10
  -1   4  -3  593.04   17.70
  -1   4  -3  614.54   17.70
   1   4   3  603.04   24.20
   1   4   3  603.74   23.80
   2  -4   3  211.98   11.50
   2  -4   3  214.18   11.60
  -2  -4  -3  207.88   15.10
  -2  -4  -3  213.08   15.80
   2   4   3  243.28   15.80
   2   4   3  207.48   15.20
  -2   4  -3  215.18   11.20
  -2   4  -3  206.88   10.90
   3  -4   3   57.09    8.60
  -3  -4  -3   65.59   10.60
  -3  -4  -3   71.69   11.00
  -3   4  -3   65.79    8.40
   3   4   3   63.99   10.70
   3   4   3   78.09   10.30
  -3   4  -3   71.79    8.70
  -4  -4  -3   10.20    9.80
  -4  -4  -3    2.90   10.60
   4  -4   3   -1.40    7.60
   4  -4   3    5.70    7.30
  -4   4  -3   24.30    8.60
   4   4   3   13.50    9.70
  -5  -4  -3   24.60   15.30
   5  -4   3    6.00   10.10
   5  -4   3   15.40   10.20
  -5  -4  -3  -18.10   11.90
   5   4   3   27.30   15.60
  -5   4  -3  -19.20    9.30
   5   4   3   -3.40   12.60
   6  -4   3   90.79   17.00
   6  -4   3   87.59   17.10
  -6  -4  -3   71.49   16.50
   6   4   3  126.19   25.30
  -6   4  -3   79.59   16.90
  -6   4  -3   95.29   17.00
   6   4   3  109.99   20.30
   7  -5  -3  176.78   22.60
   7  -5  -3  221.68   24.90
  -7  -5   3  202.68   25.10
   7   5  -3  205.68   24.60
  -7   5   3  194.38   25.10
  -7   5   3  216.58   28.90
   7   5  -3  262.27   32.80
  -6  -5   3   79.29   15.50
   6  -5  -3   76.09   17.50
   6  -5  -3   41.90   16.10
   6   5  -3   61.79   15.40
  -6   5   3   78.29   16.70
   6   5  -3   66.59   15.00
  -5  -5   3   12.00    7.30
   5  -5  -3    4.60   10.60
  -5  -5   3   -2.00    8.60
  -5   5   3   10.60    7.90
   5   5  -3   -3.10    9.00
  -5   5   3   17.70   11.00
   5   5  -3    8.30    8.60
   4  -5  -3   24.10    8.70
   4  -5  -3   23.50    8.80
  -4  -5   3   10.10    6.50
  -4   5   3   12.30    7.30
   4   5  -3    4.40    7.00
   4   5  -3   15.70    6.90
  -4   5   3   10.50    6.50
  -3  -5   3    3.30    5.10
  -3  -5   3    6.40    5.20
   3  -5  -3    4.80    4.70
   3  -5  -3   14.90    7.40
  -3   5   3    7.90    5.30
  -3   5   3    2.80    6.40
   3   5  -3    8.50    5.40
  -2  -5   3    5.80    3.60
  -2  -5   3   -3.40    2.90
   2  -5  -3    0.10    4.20
   2  -5  -3   -2.70    3.70
  -2   5   3   -7.50    4.80
  -2   5   3    0.30    4.20
   2   5  -3    7.00    3.30
   2   5  -3   -1.60    3.00
  -1  -5   3  360.36   11.50
   1  -5  -3  367.56   17.80
  -1  -5   3  349.07   11.40
   1  -5  -3  375.16   18.10
   1   5  -3  356.16   10.30
  -1   5   3  365.56   18.20
  -1   5   3  356.46   17.40
   1   5  -3  357.26   10.30
   0  -5  -3  791.42   28.20
   0  -5  -3  792.92   28.10
   0   5   3  782.22   27.70
   0   5   3  803.02   28.80
  -1  -5  -3  589.74   23.50
  -1  -5  -3  624.04   24.50
   1  -5   3  584.54   17.60
   1  -5   3  591.14   17.60
   1   5   3  580.54   23.40
  -1   5  -3  583.74   16.20
   1   5   3  578.54   24.10
  -1   5  -3  591.44   16.20
  -2  -5  -3   70.49   10.10
   2  -5   3   77.19    7.70
   2  -5   3   78.29    7.90
  -2  -5  -3   80.89   10.30
  -2   5  -3   82.49    7.40
  -2   5  -3   76.89    7.40
   2   5   3   78.19   10.10
   2   5   3   76.29    9.70
  -3  -5  -3  129.39   15.80
  -3  -5  -3  138.59   13.80
   3  -5   3  134.19   13.00
   3   5   3  120.99   15.80
   3   5   3  141.69   16.30
  -3   5  -3  125.69   11.20
  -3   5  -3  118.69   11.30
  -4  -5  -3   -2.30   10.20
   4  -5   3    9.20    7.20
  -4  -5  -3    1.50    7.90
   4  -5   3   16.40    8.10
   5  -5   3    5.70    9.30
   5  -5   3   -5.80    9.90
  -5  -5  -3   14.20   13.10
  -5  -5  -3    4.80   14.50
   5   5   3  -18.80   12.20
   5   5   3   26.60   11.90
  -5   5  -3    1.80   10.30
  -6  -5  -3   19.00   14.40
  -6  -5  -3  -25.70   16.20
   6  -5   3    2.40   14.30
   6  -5   3    0.50   13.90
  -6   5  -3  -11.10   13.30
   6   5   3    2.70   22.30
   6   5   3    8.00   18.20
  -6   5  -3   -3.00   14.30
   7  -6  -3  -14.90   19.40
  -7  -6   3   -8.70   16.80
   7  -6  -3    3.30   19.80
  -7  -6   3   -2.10   17.20
   7   6  -3   29.40   18.50
  -7   6   3   49.00   23.70
  -7   6   3   24.60   18.70
   7   6  -3    1.90   17.20
   6  -6  -3   11.00   14.50
  -6  -6   3   11.50   12.70
  -6   6   3    7.10   12.00
  -6   6   3    3.40   14.00
   6   6  -3  -17.00   12.00
   6   6  -3    2.10   13.60
  -5  -6   3   42.90   11.00
   5  -6  -3   61.99   12.00
   5  -6  -3   36.10   10.20
  -5   6   3   44.20   12.60
  -5   6   3   66.79   12.00
   5   6  -3   36.90   10.30
   5   6  -3   48.50   10.90
  -4  -6   3  507.85   24.30
   4  -6  -3  531.85   27.40
   4  -6  -3  548.45   27.80
  -4   6   3  540.35   26.10
  -4   6   3  501.85   25.00
   4   6  -3  560.14   24.40
   4   6  -3  523.75   24.00
   3  -6  -3  251.87   16.40
   3  -6  -3  257.17   16.30
  -3   6   3  279.97   18.30
  -3   6   3  256.07   17.70
   3   6  -3  268.57   14.20
   3   6  -3  253.57   14.20
  -2  -6   3  184.98   10.00
   2  -6  -3  162.38   14.20
   2  -6  -3  171.98   12.70
  -2   6   3  210.08   14.90
   2   6  -3  187.08    9.60
   2   6  -3  175.18    9.50
  -2   6   3  189.88   14.30
   1  -6  -3   75.39    8.80
  -1  -6   3   68.29    4.40
   1  -6  -3   69.89    9.20
  -1  -6   3   71.49    4.50
  -1   6   3   67.29    9.30
  -1   6   3   65.39    8.70
   0  -6  -3  333.97   16.60
   0  -6  -3  320.17   18.10
   0   6   3  339.37   17.00
   0   6   3  347.47   17.80
  -1  -6  -3  178.38   12.90
  -1  -6  -3  191.48   14.90
   1  -6   3  195.98    7.70
   1  -6   3  190.58    7.60
   1   6   3  179.08   12.90
   1   6   3  185.78   14.70
   2  -6   3  328.57   13.90
   2  -6   3  295.67   13.20
  -2  -6  -3  310.77   17.60
  -2  -6  -3  317.37   19.40
   2   6   3  316.67   19.60
   2   6   3  310.77   19.30
  -2   6  -3  300.27   12.50
  -2   6  -3  302.87   12.50
   3  -6   3  410.06   18.50
  -3  -6  -3  421.26   24.60
  -3  -6  -3  369.56   23.60
   3  -6   3  449.06   19.80
  -3   6  -3  384.66   17.80
   3   6   3  416.36   22.60
  -3   6  -3  418.76   18.60
   3   6   3  437.76   23.00
  -4  -6  -3    2.80   10.10
   4  -6   3   18.30    9.60
  -4  -6  -3   -2.00    8.30
  -4   6  -3    1.90    7.70
  -5  -6  -3  -19.00   13.20
   5  -6   3    8.90   10.70
   5  -6   3  -23.70    8.90
   5   6   3  -20.40    9.90
   5   6   3   12.10   16.70
  -6  -6  -3   -3.00   17.90
   6  -6   3  -22.70   13.70
  -6  -6  -3   13.80   14.30
   6  -6   3    4.50   13.50
  -6   6  -3   -1.90   14.80
  -6   6  -3    8.30   14.90
   6   6   3  -16.40   18.50
   6   6   3   17.90   23.40
  -7  -7   3  -30.20   17.10
   7  -7  -3  -24.00   22.00
  -7  -7   3    2.00   18.40
   7  -7  -3  -17.80   20.40
   7   7  -3  -18.20   18.70
   7   7  -3   -0.70   18.30
  -7   7   3  -14.80   17.40
  -7   7   3  -12.10   18.90
   6  -7  -3    4.50   15.10
   6  -7  -3   12.40   15.80
  -6  -7   3   -7.80   11.80
  -6  -7   3    5.00   13.00
  -6   7   3    1.30   10.90
   6   7  -3    2.00   11.90
   6   7  -3   14.00   13.30
  -5  -7   3   64.69   12.10
   5  -7  -3   40.60   13.90
   5  -7  -3   50.99   13.60
  -5  -7   3   41.60   11.50
   5   7  -3   53.99   11.50
   5   7  -3   40.30   16.80
  -5   7   3   71.39   14.50
  -4  -7   3   16.40    6.60
   4  -7  -3    0.70    6.60
  -4  -7   3   21.10    8.50
  -4   7   3   26.20   10.40
   4   7  -3    7.80    8.90
   4   7  -3   13.30    8.60
  -4   7   3   23.90   10.00
  -3  -7   3  145.09   12.50
   3  -7  -3  161.78   13.70
   3  -7  -3  180.68   17.00
  -3   7   3  144.59   16.20
   3   7  -3  154.98   12.30
   3   7  -3  162.88   12.40
  -3   7   3  179.28   16.20
  -2  -7   3    5.40    3.50
   2  -7  -3    9.00    6.60
   2  -7  -3    3.60    6.40
  -2  -7   3    5.00    3.60
   2   7  -3   11.40    3.70
  -2   7   3   -4.30    6.20
  -2   7   3   11.60    5.80
   2   7  -3    1.80    3.30
  -1  -7   3  629.34   18.40
  -1  -7   3  646.54   18.50
   1  -7  -3  632.04   26.60
   1  -7  -3  655.13   25.70
  -1   7   3  678.13   26.00
  -1   7   3  665.73   27.00
   0  -7  -3    3.80    6.40
   0  -7  -3    6.60    6.20
   0   7   3    6.60    5.00
   0   7   3    7.00    5.00
  -1  -7  -3   33.10    8.10
  -1  -7  -3   18.30    6.30
   1  -7   3   24.20    2.80
   1  -7   3   38.90    4.20
   1   7   3   22.20    7.80
   1   7   3   25.30    8.00
   2  -7   3   92.89    8.40
  -2  -7  -3   79.29   10.70
  -2  -7  -3   84.49   10.70
  -2   7  -3  100.89    7.30
   2   7   3   97.99   12.40
   2   7   3  117.29   12.30
  -2   7  -3  104.89    7.40
   3  -7   3   10.10    5.60
   3  -7   3   13.20    6.30
  -3  -7  -3   13.00   10.30
  -3  -7  -3    7.60    9.90
   3   7   3    8.10    9.60
  -3   7  -3    3.00    5.30
  -3   7  -3    7.80    5.20
   3   7   3   12.50    9.80
   4  -7   3   87.09   11.70
  -4  -7  -3   85.49   15.70
   4  -7   3  114.39   14.90
  -4   7  -3   96.69   11.40
  -4   7  -3   95.39   12.40
   5  -7   3  262.67   21.30
   5  -7   3  258.37   24.70
  -5  -7  -3  225.08   28.20
  -5  -7  -3  271.67   31.00
  -5   7  -3  201.68   21.70
   5   7   3  282.27   30.80
  -6  -7  -3   41.90   21.00
   6  -7   3   16.40   15.70
  -6  -7  -3   58.09   25.30
  -6   7  -3   38.00   15.80
  -6   7  -3   43.20   14.90
   6   7   3   31.00   15.70
   6   7   3   52.09   19.70
   7  -8  -3   23.40   22.80
  -7  -8   3   12.70   18.40
   7  -8  -3  -20.10   16.10
  -7  -8   3    7.70   19.50
  -7   8   3    0.80   19.50
   7   8  -3   -3.70   20.30
   7   8  -3   30.90   20.30
  -7   8   3  -26.60   24.60
  -6  -8   3   11.30   12.80
   6  -8  -3   13.30   16.10
   6  -8  -3   10.50   12.20
  -6  -8   3    0.70   12.70
  -6   8   3  -18.40   15.00
   6   8  -3    4.40   14.20
   6   8  -3   -9.10   12.30
   5  -8  -3   55.89   14.20
  -5  -8   3   43.50   12.10
  -5  -8   3   59.79   11.60
   5  -8  -3   47.30   15.00
   5   8  -3   37.00   12.10
  -5   8   3   29.60   12.80
  -5   8   3   40.50   15.50
  -4  -8   3   17.60    8.50
  -4  -8   3   29.00    8.00
   4  -8  -3   32.60    8.90
   4  -8  -3   27.10   11.10
  -4   8   3   36.40   11.40
  -4   8   3   15.80   10.30
  -3  -8   3  472.15   20.60
  -3  -8   3  531.15   21.90
   3  -8  -3  531.25   26.70
  -3   8   3  512.25   24.80
   3   8  -3  513.65   21.40
   3   8  -3  538.05   21.20
  -3   8   3  523.15   26.00
   2  -8  -3  597.04   27.20
  -2  -8   3  662.23   20.80
  -2  -8   3  626.14   21.20
   2  -8  -3  592.74   26.00
   2   8  -3  622.84   20.50
   2   8  -3  602.74   20.20
  -2   8   3  625.94   27.70
  -2   8   3  623.64   26.10
  -1  -8   3   31.50    4.00
   1  -8  -3   28.20    8.40
   1  -8  -3   25.70    6.90
  -1  -8   3   27.30    3.10
  -1   8   3   32.40    8.80
  -1   8   3   32.10    7.10
   0  -8  -3  267.37   17.90
   0  -8  -3  285.67   16.80
   0   8   3  329.67   19.20
   0   8   3  264.27   16.20
  -1  -8  -3  282.37   17.00
  -1  -8  -3  258.07   16.80
   1  -8   3  271.47    9.60
   1  -8   3  270.77    9.40
   1   8   3  277.97   18.50
   1   8   3  256.77   18.10
   2  -8   3    8.10    4.10
  -2  -8  -3    6.60    7.90
  -2  -8  -3    2.20    8.60
   2   8   3   -1.80    8.20
  -2   8  -3    2.60    3.20
  -2   8  -3    6.10    3.40
   2   8   3    1.40    7.90
  -3  -8  -3   11.30    7.90
   3  -8   3   27.10    7.00
   3  -8   3   16.90    6.00
   3   8   3   19.20    8.70
  -3   8  -3    4.10    5.30
  -3   8  -3   17.40    5.80
   3   8   3   17.80    8.50
   4  -8   3  509.65   25.10
  -4  -8  -3  482.55   33.30
  -4  -8  -3  533.25   32.60
   4  -8   3  530.95   25.40
   4   8   3  537.25   33.00
  -4   8  -3  533.05   24.10
   5  -8   3  -10.40    9.30
  -5  -8  -3   -6.40   11.60
   5  -8   3   -4.40   11.40
  -5  -8  -3   -4.90   12.90
  -5   8  -3   18.60   10.90
   5   8   3   14.90   12.60
  -5   8  -3   -6.90   10.90
   5   8   3  -21.10   13.00
  -6  -8  -3  -58.99   24.40
   6  -8   3   -6.60   14.00
   6  -8   3    2.50   16.10
  -6  -8  -3   11.70   22.50
  -6   8  -3   -6.20   14.90
   6   8   3    1.20   25.80
   6   8   3   16.90   22.20
   6  -9  -3    4.90   17.50
  -6  -9   3   -7.60   13.50
   6  -9  -3   14.80   16.70
  -6  -9   3    5.10   13.80
   6   9  -3    7.40   15.10
   6   9  -3  -10.60   14.20
  -6   9   3   13.20   16.90
  -5  -9   3    6.50    9.70
   5  -9  -3   10.30   10.70
  -5  -9   3   13.70   11.10
   5  -9  -3   -1.40   13.70
  -5   9   3   11.80   11.50
  -5   9   3   15.20   10.40
   5   9  -3   27.50   12.00
  -4  -9   3   68.59   10.90
   4  -9  -3   80.39   13.80
  -4  -9   3   76.19   12.60
   4  -9  -3   73.49   13.60
  -4   9   3   68.79   13.80
   4   9  -3   60.19   11.30
  -3  -9   3   13.90    6.60
   3  -9  -3   26.00    9.90
  -3  -9   3   32.60    7.10
   3   9  -3   28.90    6.60
   3   9  -3   25.70    7.00
  -3   9   3   18.40    7.50
  -3   9   3   15.30    9.50
   2  -9  -3   64.89   11.00
  -2  -9   3   47.40    6.10
  -2   9   3   42.30   10.10
   2   9  -3   57.69    7.40
  -2   9   3   61.59   11.00
   2   9  -3   43.20    5.40
  -1  -9   3  125.59    6.90
   1  -9  -3  129.29   12.80
   1  -9  -3  132.09   15.30
  -1  -9   3  135.29    7.10
  -1   9   3  165.18   13.80
  -1   9   3  136.49   15.10
   0  -9   3   88.39    3.50
   0  -9  -3   80.59   11.30
   0  -9  -3   71.59   11.20
   0  -9   3   86.59    3.40
   0   9   3   91.59   11.70
   0   9   3   81.99   11.50
  -1  -9  -3   -2.70    7.60
  -1  -9  -3    2.60    5.60
   1  -9   3    1.00    2.50
   1  -9   3    1.30    2.40
   1   9   3   -0.30    5.60
   1   9   3   19.30    8.50
  -2  -9  -3   55.19   10.80
   2  -9   3   42.80    6.20
  -2  -9  -3   36.40   10.50
  -2   9  -3   47.90    6.00
  -2   9  -3   52.99    5.90
   2   9   3   45.40    9.20
   2   9   3   61.89   11.90
   3  -9   3   14.00    6.00
   3  -9   3   -2.90    5.90
  -3  -9  -3   15.30   11.90
  -3   9  -3    5.20    5.10
   3   9   3    0.10    7.80
  -3   9  -3    1.90    6.30
   3   9   3    5.70   11.90
   4  -9   3   58.79   11.10
  -4  -9  -3   74.79   17.80
  -4  -9  -3   59.29   15.20
   4  -9   3   69.49   11.00
  -4   9  -3   63.99   10.30
   5  -9   3   34.70   12.20
   5  -9   3   42.80   14.00
  -5  -9  -3   31.70   17.90
  -5  -9  -3    4.90   19.50
  -5   9  -3    9.60   11.30
  -5   9  -3   -7.20   11.10
   5   9   3   27.80   20.10
   5   9   3    1.40   17.00
  -6  -9  -3   -0.50   29.10
  -6   9  -3   27.50   17.30
   6 -10  -3   58.79   21.00
   6 -10  -3   33.50   19.30
  -6 -10   3   23.90   16.60
  -6 -10   3   49.00   16.00
   6  10  -3    0.50   16.00
  -6  10   3   20.80   13.90
   6  10  -3   28.40   16.30
   5 -10  -3  108.49   19.40
  -5 -10   3  121.79   15.70
   5 -10  -3  141.99   19.60
  -5 -10   3  127.69   16.20
   5  10  -3  121.19   16.50
  -5  10   3  108.79   17.90
  -5  10   3  111.39   20.00
   4 -10  -3  115.69   19.70
  -4 -10   3  166.48   16.80
   4 -10  -3  138.69   17.10
  -4  10   3  205.38   21.40
   4  10  -3  171.98   16.70
  -4  10   3  201.28   19.20
  -3 -10   3   -6.50    5.20
  -3 -10   3    0.70    6.20
   3 -10  -3    2.50    9.40
   3 -10  -3    4.30    9.70
  -3  10   3   -3.20    9.30
   3  10  -3   -1.30    5.80
  -3  10   3    2.50    9.70
  -2 -10   3   72.29    9.00
  -2 -10   3   64.09    8.30
   2 -10  -3   52.99    9.50
   2  10  -3   64.19    7.80
  -2  10   3   49.50   10.60
  -2  10   3   66.29   11.90
   2  10  -3   61.39    7.80
   1 -10  -3  215.28   18.60
  -1 -10   3  191.08    9.10
  -1 -10   3  205.08    9.30
  -1  10   3  216.08   19.00
  -1  10   3  201.58   18.10
   0 -10   3    4.40    2.00
   0 -10   3    4.50    2.00
   0 -10  -3    5.50    8.50
   0  10   3    5.50    8.50
   0  10   3    2.50    8.50
   1 -10   3  473.65   14.90
  -1 -10  -3  438.96   25.60
   1  10   3  432.66   25.40
   1  10   3  467.25   24.10
   2 -10   3  243.88   12.20
  -2 -10  -3  237.48   18.80
   2 -10   3  227.48   12.50
  -2 -10  -3  274.97   20.70
   2  10   3  205.18   21.40
   2  10   3  227.98   18.80
  -2  10  -3  219.68    9.50
  -2  10  -3  218.28    9.40
   3 -10   3    7.00    6.40
   3 -10   3   -1.00    6.40
  -3 -10  -3   15.50   12.00
  -3 -10  -3  -11.20   10.90
   3  10   3   23.50   10.30
  -3  10  -3   -1.50    5.40
  -3  10  -3    6.70    5.60
  -4 -10  -3   28.40   14.60
  -4 -10  -3   46.90   22.90
   4 -10   3    1.10    8.50
   4 -10   3    9.60    9.60
  -4  10  -3   26.10    8.60
  -4  10  -3   19.10    8.40
   5 -10   3   11.30   12.10
  -5 -10  -3    0.20   13.80
   5 -10   3  -13.30   13.10
  -5 -10  -3   20.20   24.10
  -5  10  -3   17.60   12.00
  -5  10  -3   12.10   11.40
   5  10   3    2.90   18.20
   5  10   3   43.60   21.90
  -6 -11   3    2.20   15.60
   6 -11  -3   21.20   20.20
  -6 -11   3    7.00   16.20
   6 -11  -3  -23.80   20.00
   6  11  -3  -35.40   14.70
  -6  11   3   -1.90   19.40
   6  11  -3   18.10   16.20
   5 -11  -3  403.96   28.40
  -5 -11   3  349.07   28.50
   5 -11  -3  402.46   31.70
  -5 -11   3  385.86   27.40
   5  11  -3  291.67   26.10
  -5  11   3  346.77   30.90
  -5  11   3  313.77   34.30
   4 -11  -3   31.70   13.70
  -4 -11   3   49.99   12.00
   4 -11  -3   39.20   14.10
  -4 -11   3   48.50    9.90
  -4  11   3   38.10   11.00
  -4  11   3   47.60   14.20
   4  11  -3   46.90    9.90
  -3 -11   3  129.79   14.30
  -3 -11   3  137.39   15.30
   3 -11  -3  159.48   19.70
   3 -11  -3  121.49   15.50
  -3  11   3  115.59   15.40
   3  11  -3  139.39   12.90
   3  11  -3  131.99   13.70
  -3  11   3  137.49   16.40
  -2 -11   3   23.30    5.80
  -2 -11   3   34.00    5.90
   2 -11  -3   34.70   10.60
   2 -11  -3   40.40   11.60
  -2  11   3   23.70   11.00
  -2  11   3   21.80    8.40
   2  11  -3   22.40    5.10
   2  11  -3   22.00    5.10
   1 -11  -3   21.30   10.50
  -1 -11   3   26.80    4.40
   1 -11  -3   31.80   10.40
  -1  11   3   24.30    8.60
  -1  11   3   24.00   10.20
   0 -11  -3  361.96   21.60
   0 -11   3  375.36   12.50
   0 -11  -3  388.06   22.20
   0  11   3  401.56   24.70
   0  11   3  368.16   23.70
   1 -11   3  508.45   16.90
  -1 -11  -3  510.95   28.40
  -1 -11  -3  524.05   28.60
   1 -11   3  562.04   16.60
   1  11   3  494.75   26.50
   1  11   3  515.95   28.20
  -2 -11  -3  197.68   18.60
   2 -11   3  194.78   12.10
   2 -11   3  185.78   11.50
  -2 -11  -3  189.38   22.80
   2  11   3  200.98   22.40
  -2  11  -3  195.08    8.20
  -2  11  -3  192.58    7.90
  -3 -11  -3   67.79   18.10
  -3 -11  -3   29.20   11.10
   3 -11   3   51.29    8.60
   3 -11   3   50.59    9.80
  -3  11  -3   48.80    8.10
   3  11   3   74.99   15.80
   3  11   3   50.99   14.50
   4 -11   3   11.50    9.90
   4 -11   3   -6.10    8.80
  -4 -11  -3   14.10   13.30
  -4 -11  -3   -8.40   15.50
  -4  11  -3   -4.20    8.20
  -4  11  -3    5.80    8.50
  -5 -11  -3    6.90   21.10
   5 -11   3    9.30   13.00
   5 -11   3   21.80   13.90
  -5 -11  -3   45.40   23.60
  -5  11  -3   20.80   12.60
   5  11   3   12.80   16.20
   5  11   3    6.30   23.00
  -5  11  -3   17.80   12.90
   6 -12  -3   47.60   23.70
  -6 -12   3   21.30   17.00
   6  12  -3   16.00   18.20
   5 -12  -3   -2.30   16.90
  -5 -12   3   21.60   14.30
  -5 -12   3   15.80   12.40
   5 -12  -3   11.60   16.90
  -5  12   3   -1.30   14.20
   5  12  -3   27.30   12.80
   5  12  -3   31.20   13.30
  -5  12   3    1.60   17.80
   4 -12  -3   78.39   16.60
  -4 -12   3   80.69   12.70
  -4 -12   3   99.49   14.40
   4 -12  -3   70.99   14.00
   4  12  -3   93.59   12.20
  -4  12   3  100.29   17.20
  -4  12   3  109.99   18.10
   4  12  -3   87.59   12.30
   3 -12  -3   25.90   10.20
   3 -12  -3   14.80   12.10
  -3 -12   3   15.70    8.40
  -3 -12   3   22.20    7.80
  -3  12   3    7.60   12.10
   3  12  -3   17.30    7.30
  -3  12   3   14.10    9.10
  -2 -12   3    5.10    5.60
   2 -12  -3   -2.20   10.20
  -2 -12   3   -7.60    5.30
   2 -12  -3   -3.90   10.30
  -2  12   3   -7.70   10.20
   2  12  -3    9.10    4.90
  -2  12   3   -2.70    9.10
   1 -12  -3  -12.00    6.60
  -1 -12   3   -4.60    4.00
   1 -12  -3   -0.80   10.00
  -1 -12   3   -2.30    3.80
  -1  12   3    0.20    7.50
  -1  12   3  -10.20   10.80
   0 -12  -3  254.47   21.90
   0 -12  -3  278.27   23.40
   0 -12   3  253.57   10.90
   0 -12   3  252.97   10.60
   0  12   3  236.88   25.50
   0  12   3  246.68   22.30
  -1 -12  -3  755.92   34.80
   1 -12   3  814.02   24.60
  -1 -12  -3  871.01   38.00
   1 -12   3  815.32   24.60
   1  12   3  823.32   37.50
   1  12   3  845.82   37.70
   2 -12   3  228.58   13.50
  -2 -12  -3  240.58   24.30
  -2  12  -3  207.58    7.20
   2  12   3  218.38   24.50
   2  12   3  202.88   20.10
  -2  12  -3  188.48    6.80
   3 -12   3  -10.10    7.30
   3 -12   3   -2.60    6.70
  -3 -12  -3   -5.70   14.10
  -3 -12  -3   -3.10   10.10
   3  12   3    7.00   14.50
   3  12   3   -5.60   10.40
  -4 -12  -3   19.80   19.10
   4 -12   3   25.50   10.30
  -4 -12  -3   19.00   17.70
   4 -12   3   13.60   10.50
  -4  12  -3   31.00    9.30
  -4  12  -3   10.10    9.20
   5 -12   3   26.60   14.20
  -5 -12  -3   55.89   24.60
   5 -12   3   -2.40   13.60
  -5 -12  -3   -3.20   22.10
  -5  12  -3   32.80   13.70
   5  12   3  -12.80   26.20
  -5  12  -3    7.00   13.60
   5  12   3   39.40   17.50
   5 -13  -3   82.29   16.60
   5 -13  -3   73.39   20.60
  -5 -13   3   67.69   15.10
  -5 -13   3   67.09   17.60
  -5  13   3   62.69   21.50
   5  13  -3   72.59   15.70
  -5  13   3   90.19   20.50
   5  13  -3   45.20   15.60
   4 -13  -3   -5.80   11.50
  -4 -13   3   -2.90   11.80
  -4 -13   3    7.70   10.20
   4 -13  -3  -11.50   15.30
  -4  13   3    6.90   14.90
   4  13  -3   28.80   10.60
  -4  13   3    8.50   14.40
   4  13  -3   18.20   10.30
  -3 -13   3   10.20    8.40
  -3 -13   3    7.60    7.80
   3 -13  -3    3.40   10.00
   3 -13  -3    6.80   13.30
   3  13  -3    8.60    7.90
   3  13  -3    7.20    8.70
  -3  13   3  -21.30   11.40
  -3  13   3   26.70   14.00
   2 -13  -3   65.99   13.90
  -2 -13   3   36.30    7.70
   2 -13  -3   66.49   13.80
  -2 -13   3   42.10    7.50
  -2  13   3   56.89   13.90
   2  13  -3   41.20    6.20
  -2  13   3   44.80   13.90
   2  13  -3   47.40    6.60
  -1 -13   3    2.00    4.70
   1 -13  -3  -19.60   11.20
   1 -13  -3    2.30   11.40
  -1 -13   3    2.70    4.50
  -1  13   3  -16.50   11.50
  -1  13   3    3.80   10.70
   0 -13  -3  523.95   37.60
   0 -13  -3  493.85   29.80
   0 -13   3  517.85   17.50
   0 -13   3  504.05   17.50
   0  13   3  520.45   27.80
   0  13   3  480.75   27.40
   1 -13   3    4.20    4.20
  -1 -13  -3  -11.90   12.20
   1 -13   3   -0.60    4.40
  -1 -13  -3   19.00   12.40
   1  13   3  -21.70    7.80
   1  13   3  -28.40   11.60
   2 -13   3  612.04   23.30
  -2 -13  -3  662.63   33.40
  -2 -13  -3  651.13   36.20
   2 -13   3  632.24   23.30
   2  13   3  571.24   35.40
   2  13   3  614.44   35.70
   3 -13   3    2.70    8.30
   3 -13   3    3.00    7.70
  -3 -13  -3    4.30   11.70
  -3 -13  -3   14.30   14.70
  -3  13  -3    5.10    7.00
   3  13   3    8.20   15.20
   3  13   3   14.40   12.30
  -4 -13  -3  128.29   23.90
   4 -13   3  104.59   14.60
  -4 -13  -3  155.48   25.50
   4 -13   3  115.39   14.10
  -4  13  -3  102.19   11.80
  -4  13  -3  163.48   18.00
  -5 -14   3   24.90   14.90
   5 -14  -3   21.90   21.50
   5 -14  -3   26.90   22.20
  -5  14   3   34.50   21.60
   5  14  -3  -18.10   15.20
  -5  14   3   36.20   22.30
   5  14  -3   -9.80   15.00
  -4 -14   3   65.99   12.20
   4 -14  -3   80.79   16.90
   4 -14  -3   73.79   16.10
  -4 -14   3   71.59   14.30
   4  14  -3   58.09   13.00
  -4  14   3   64.19   17.40
  -4  14   3   43.20   17.00
   4  14  -3   68.59   13.50
  -3 -14   3   50.19   11.00
  -3 -14   3   39.80    9.80
   3 -14  -3   45.20   15.60
   3 -14  -3   36.90   15.00
  -3  14   3   43.40   15.50
   3  14  -3   43.00    9.60
  -3  14   3   21.90   14.40
   3  14  -3   44.20    9.70
   2 -14  -3  113.79   15.80
   2 -14  -3  117.19   17.40
  -2 -14   3   98.89   10.60
  -2 -14   3  102.49   12.90
   2  14  -3  132.59   11.20
  -2  14   3   87.99   14.30
  -2  14   3   80.39   16.30
  -1 -14   3  117.09   11.60
   1 -14  -3  103.39   15.00
  -1 -14   3  145.99   11.00
   1 -14  -3  117.29   17.50
  -1  14   3  111.39   15.20
  -1  14   3  107.69   16.90
   0 -14   3   24.50    5.40
   0 -14  -3   23.10   12.80
   0 -14  -3   23.10   14.10
   0 -14   3   17.10    6.00
   0  14   3   14.30   10.80
   0  14   3   17.70    9.80
   1 -14   3   19.00    5.40
   1 -14   3   19.40    5.30
  -1 -14  -3   12.40   13.70
  -1 -14  -3   24.10   11.40
   1  14   3   27.70   15.30
   1  14   3    8.40   14.30
  -2 -14  -3   51.19   16.70
   2 -14   3   25.50    7.40
  -2 -14  -3   46.60   13.40
   2 -14   3   32.60    7.10
   2  14   3   38.00   15.80
   2  14   3   45.40   16.90
   3 -14   3   57.79   10.20
  -3 -14  -3   63.49   19.10
  -3 -14  -3   62.79   16.00
   3 -14   3   34.60   10.50
   3  14   3  111.69   19.70
  -3  14  -3   55.79    6.50
  -3  14  -3   45.40    7.00
   3  14   3   63.79   19.90
   4 -14   3  -15.60   11.30
  -4 -14  -3  -22.70   20.80
   4 -14   3    1.30   12.70
  -4  14  -3    4.20    9.40
  -4  14  -3   -2.20   10.00
  -4 -15   3   89.79   16.70
  -4 -15   3  103.69   15.50
   4 -15  -3   60.19   17.30
   4 -15  -3   72.79   21.90
  -4  15   3   27.60   20.20
   4  15  -3   33.10   14.10
   4  15  -3   59.89   14.50
  -4  15   3   56.09   20.40
   3 -15  -3  -18.70   16.00
  -3 -15   3   12.00    9.10
  -3 -15   3   -4.70    9.90
   3 -15  -3   31.00   16.60
   3  15  -3  -13.60    8.80
   3  15  -3   -9.40    8.80
  -3  15   3    4.20   16.20
  -3  15   3   -7.00   16.50
  -2 -15   3   95.79   11.30
  -2 -15   3  102.69   11.20
   2 -15  -3   91.49   17.60
   2 -15  -3  113.99   19.30
  -2  15   3  130.69   19.50
   2  15  -3  113.79   11.80
  -2  15   3  113.99   18.80
  -1 -15   3   13.40    6.70
   1 -15  -3   -0.60   14.70
   1 -15  -3   45.90   15.30
  -1 -15   3   20.50    6.50
  -1  15   3    7.80   14.40
  -1  15   3    1.40   14.30
   0 -15  -3   -4.90   10.30
   0 -15   3   -2.50    5.10
   0 -15  -3    5.00   10.40
   0  15   3   22.70   12.10
   0  15   3   -7.70   12.30
   1 -15   3    7.20    5.70
  -1 -15  -3  -17.30   14.70
  -1 -15  -3   -1.90   14.60
   1  15   3    9.60   15.20
   1  15   3   -9.60   15.70
  -2 -15  -3    4.20   15.40
  -2 -15  -3    1.50   16.30
   2 -15   3   -1.30    6.80
   2  15   3   31.60   17.80
   2  15   3    2.70   16.10
   3 -15   3   -4.70    9.10
  -3 -15  -3  -48.90   18.40
   3 -15   3   -8.50    9.80
  -3 -15  -3   26.10   21.50
   3  15   3   10.50   20.20
  -3  15  -3   13.10    4.20
   3 -16  -3   27.30   18.90
   3 -16  -3  -15.80   13.70
  -3 -16   3   10.20   10.70
  -3 -16   3   -6.90   11.70
   3  16  -3    8.80   10.30
  -3  16   3   50.79   19.50
  -3  16   3  -29.00   17.40
   3  16  -3    6.30   10.20
  -2 -16   3    5.30    9.20
  -2 -16   3   -1.80    7.90
   2 -16  -3    8.10   17.90
   2 -16  -3   11.50   11.60
   2  16  -3   10.50    6.60
  -2  16   3    0.40   17.30
   2  16  -3  -13.10    6.40
  -2  16   3   38.20   17.10
   1 -16  -3   -5.80   16.40
  -1 -16   3    2.70    6.90
  -1 -16   3    0.80    7.10
   1 -16  -3   21.50   16.50
  -1  16   3    4.40   16.00
  -1  16   3    4.20   16.40
   0 -16  -3   28.50   16.20
   0 -16  -3  -28.20   13.90
   0 -16   3   -6.60    6.10
   0  16   3   -5.40   14.60
   0  16   3    0.60   15.10
  -1 -16  -3   14.20   17.60
   1 -16   3   33.10    7.40
  -1 -16  -3   16.30   17.30
   1  16   3   19.40   16.60
   1  16   3    2.80   16.60
  -2 -16  -3   29.50   20.90
  -2 -16  -3   43.30   19.70
   2  16   3   15.20   19.20
   2  16   3   40.70   19.90
   2 -17  -3    6.20   19.10
  -2 -17   3   35.10   11.60
   2 -17  -3   31.60   20.90
  -2 -17   3   43.50   10.80
  -2  17   3   38.00   21.10
   2  17  -3   34.60    6.40
  -2  17   3   45.20   19.80
   1 -17  -3    1.40   15.80
   1 -17  -3   38.00   19.50
  -1 -17   3   26.50    8.40
  -1  17   3   -9.70   17.20
  -1  17   3   -4.10   18.90
   0 -17  -3   95.89   21.30
   0 -17   3   86.09    9.40
   0 -17  -3   67.09   20.40
   0 -17   3  106.79   13.30
   0  17   3   88.79   20.00
   0  17   3   96.19   20.90
   1 -17   3   16.70    7.90
  -1 -17  -3   21.30   18.60
  -1 -17  -3    2.20   18.30
   1  17   3   -3.60   18.50
   1  17   3   13.30   18.50
  -7   0   4   16.00   17.70
  -7   0   4   25.10   19.40
   7   0  -4   34.70   16.80
  -6   0   4  -13.70   11.40
  -6   0   4   13.90   12.00
   6   0  -4   12.10   13.30
   6   0  -4   10.60   13.40
   5   0  -4   48.30    9.40
  -5   0   4   66.59   12.90
  -5   0   4   45.80    9.40
   5   0  -4   49.50   11.80
  -4   0   4   26.20    8.30
   4   0  -4   27.40    8.80
   4   0  -4   17.50    7.60
   3   0  -4 3856.01  104.79
  -3   0   4 4014.50  105.39
   3   0  -4 3924.71  104.79
  -3   0   4 3717.73  104.09
   2   0  -4  180.68   12.10
  -2   0   4  193.58   12.30
   2   0  -4  177.38   12.00
  -2   0   4  193.08   12.20
  -1   0   4   15.50    4.70
   1   0  -4   18.50    4.60
  -1   0   4   12.90    4.50
   0   0  -4   27.50    5.10
   0   0   4   33.70    5.50
   0   0   4   28.60    5.50
   1   0   4 1212.18   37.70
  -1   0  -4 1241.68   37.40
   1   0   4 1206.38   37.50
   2   0   4  571.44   23.20
  -2   0  -4  522.35   22.30
   2   0   4  576.94   22.90
  -2   0  -4  591.34   23.80
  -3   0  -4  927.01   34.50
  -3   0  -4  945.21   34.60
   3   0   4  924.21   34.80
   4   0   4  969.10   39.00
   4   0   4  985.70   40.10
  -4   0  -4 1065.69   40.10
  -4   0  -4  944.51   38.70
  -5   0  -4  149.49   18.00
  -5   0  -4  204.48   24.30
   5   0   4  166.68   21.80
   5   0   4  154.28   18.80
  -6   0  -4   64.89   18.20
  -6   0  -4   86.99   20.00
   6   0   4   97.49   20.70
   6   0   4   62.39   17.30
  -7  -1   4   98.09   21.60
  -7  -1   4   36.10   14.60
   7  -1  -4   33.80   17.50
  -7   1   4   28.60   19.70
  -7   1   4   81.09   18.50
   7   1  -4   40.30   18.60
  -6  -1   4   56.79   16.70
   6  -1  -4   72.39   16.50
   6  -1  -4   98.99   16.50
  -6  -1   4   62.59   12.60
  -6   1   4   91.59   16.70
   6   1  -4   71.39   15.50
   6   1  -4   84.89   13.70
   5  -1  -4   28.50   11.20
  -5  -1   4   38.10   10.80
  -5  -1   4   51.99   12.10
   5  -1  -4   32.40   11.10
  -5   1   4   44.80   10.40
  -5   1   4   52.49   11.90
   5   1  -4   52.49    9.60
   4  -1  -4   63.59    9.20
   4  -1  -4   49.90    9.80
  -4  -1   4   30.70   10.00
  -4  -1   4   47.70    8.10
  -4   1   4   50.59    9.80
  -4   1   4   66.49   10.80
   4   1  -4   62.49    9.60
   4   1  -4   41.30    9.20
  -3  -1   4  888.91   31.20
  -3  -1   4  875.51   30.90
   3  -1  -4  908.01   32.30
   3  -1  -4  875.01   32.30
   3   1  -4  848.82   30.70
   3   1  -4  870.31   30.30
  -3   1   4  855.21   31.70
  -3   1   4  859.91   32.30
  -2  -1   4 1920.41   54.89
  -2  -1   4 1930.31   54.69
   2  -1  -4 1959.40   55.89
   2  -1  -4 1921.81   55.99
   2   1  -4 1967.90   54.99
  -2   1   4 1980.90   56.39
  -2   1   4 1876.91   55.69
  -1  -1   4  212.78   11.60
   1  -1  -4  234.48   12.90
   1  -1  -4  259.17   13.20
  -1  -1   4  215.18   11.70
   1   1  -4  236.38   11.90
  -1   1   4  223.48   12.90
  -1   1   4  232.48   12.80
   1   1  -4  238.28   11.40
   0  -1   4 1763.52   49.30
   0  -1  -4 1795.72   50.89
   0  -1  -4 1803.02   51.19
   0  -1   4 1811.32   49.60
   0   1  -4 1817.02   49.40
   0   1   4 1787.22   51.29
   0   1  -4 1761.72   49.00
   0   1   4 1743.53   50.89
  -1  -1  -4  408.56   18.30
   1  -1   4  337.57   18.70
  -1  -1  -4  421.46   18.20
   1  -1   4  400.76   16.80
  -1   1  -4  401.26   16.60
  -1   1  -4  429.46   16.80
   1   1   4  427.66   18.40
   1   1   4  421.96   18.40
  -2  -1  -4   25.80    6.80
   2  -1   4   11.00    5.80
  -2  -1  -4   12.60    6.30
   2   1   4   18.70    5.00
  -2   1  -4   17.20    5.50
   2   1   4   -0.10    5.80
   3  -1   4  595.54   25.20
   3  -1   4  538.15   24.60
  -3  -1  -4  521.25   25.40
  -3  -1  -4  560.14   26.00
  -3   1  -4  550.24   24.20
  -3   1  -4  553.54   25.20
   3   1   4  610.84   26.30
   4  -1   4  896.71   36.60
  -4  -1  -4  944.21   38.80
  -4  -1  -4  969.10   38.60
   4   1   4  949.90   38.60
  -4   1  -4  919.81   37.30
   4   1   4  938.51   39.00
  -4   1  -4  979.10   37.90
   5  -1   4   13.60   12.20
  -5  -1  -4  -25.60   12.30
  -5  -1  -4   14.30   13.40
   5  -1   4   -2.00    8.50
   5   1   4   -7.20   12.90
  -5   1  -4   15.00   10.60
  -5   1  -4    1.40   12.80
   5   1   4   -0.30   12.20
   6  -1   4  162.28   20.00
  -6  -1  -4  137.29   22.30
  -6  -1  -4  203.28   25.50
   6  -1   4  175.88   22.60
   6   1   4  141.79   21.50
   6   1   4  144.89   24.50
  -6   1  -4  182.78   22.10
  -6   1  -4  148.49   22.70
   7  -2  -4  -10.90   18.90
  -7  -2   4   -4.40   18.00
   7  -2  -4    3.30   18.40
  -7  -2   4   -4.00   12.20
   7   2  -4   41.20   17.10
   7   2  -4   10.80   17.70
  -7   2   4   -4.60   17.80
  -7   2   4   20.10   16.00
   6  -2  -4   28.70   14.50
  -6  -2   4   -4.80   12.00
  -6  -2   4    3.20   13.00
   6   2  -4    9.30   12.40
  -6   2   4   12.50   10.20
   6   2  -4   18.30   12.30
  -6   2   4    1.50   15.00
  -5  -2   4    7.80    6.80
   5  -2  -4   15.00   10.40
  -5  -2   4   14.90    9.40
   5  -2  -4   14.10    8.60
  -5   2   4   10.40   10.70
   5   2  -4   -7.40    7.50
   5   2  -4   20.20    9.10
  -5   2   4    9.50    7.60
   4  -2  -4   83.59   11.80
  -4  -2   4   74.99   10.10
   4  -2  -4  121.19   15.00
   4   2  -4  111.79   13.70
  -4   2   4   86.59   11.50
   4   2  -4  102.29   13.10
   3  -2  -4  290.27   17.90
  -3  -2   4  307.57   16.30
  -3  -2   4  276.87   15.80
   3  -2  -4  296.17   16.60
   3   2  -4  306.07   16.20
  -3   2   4  291.27   17.70
  -3   2   4  288.67   17.60
   3   2  -4  312.27   16.30
   2  -2  -4   15.10    6.20
   2  -2  -4   18.00    6.20
  -2  -2   4   27.00    5.40
   2   2  -4   14.00    5.10
  -2   2   4   16.00    6.10
   2   2  -4   23.50    5.30
  -2   2   4   19.90    6.20
  -1  -2   4  200.38   10.60
   1  -2  -4  217.88   13.30
   1  -2  -4  214.58   12.20
  -1  -2   4  210.18   10.40
  -1   2   4  205.08   13.00
   1   2  -4  204.18   10.30
   1   2  -4  226.88   10.40
  -1   2   4  214.58   13.40
   0  -2   4   19.70    4.10
   0  -2   4   19.80    4.20
   0  -2  -4   14.80    5.60
   0  -2  -4   22.90    5.90
   0   2   4   24.20    6.10
   0   2  -4   16.50    3.80
   0   2  -4   26.80    4.20
   0   2   4   20.50    5.70
  -1  -2  -4  400.96   18.10
   1  -2   4  410.66   16.30
   1  -2   4  411.06   16.50
  -1  -2  -4  420.26   19.30
  -1   2  -4  433.96   16.30
  -1   2  -4  424.16   16.00
   1   2   4  426.66   19.30
   1   2   4  423.06   19.10
  -2  -2  -4   61.79    9.20
  -2  -2  -4   79.79    9.80
  -2   2  -4   68.19    8.10
   2   2   4   87.49   11.50
   2   2   4   62.09    9.30
  -2   2  -4   72.29    9.60
   3  -2   4    3.60    6.30
  -3  -2  -4   12.40    8.10
  -3  -2  -4   16.30    8.50
   3  -2   4    3.50    7.00
  -3   2  -4   19.90    6.90
   3   2   4    7.00    8.10
  -4  -2  -4   89.49   13.90
  -4  -2  -4   87.19   13.50
   4  -2   4   83.89   12.60
   4   2   4   86.19   14.00
  -4   2  -4  109.89   13.70
   4   2   4  135.79   16.70
   5  -2   4   28.70   11.50
  -5  -2  -4   54.69   12.70
  -5  -2  -4   32.50   12.80
   5  -2   4   23.70   12.80
   5   2   4   31.60   16.00
  -5   2  -4   43.60   13.30
   5   2   4   31.90   14.30
  -5   2  -4   63.49   13.80
  -6  -2  -4   49.10   20.10
   6  -2   4   10.60   16.00
  -6  -2  -4   18.80   20.40
   6  -2   4   16.60   16.30
   6   2   4   41.40   14.80
  -6   2  -4   38.20   17.20
  -6   2  -4   12.20   17.10
   6   2   4   49.70   17.40
   7  -3  -4   19.10   19.60
  -7  -3   4   19.60   14.00
  -7  -3   4    8.60   18.50
   7  -3  -4  -21.40   18.00
   7   3  -4  -10.20   15.20
  -7   3   4   23.90   15.00
  -7   3   4   -0.30   16.60
   7   3  -4   30.70   18.90
  -6  -3   4   65.69   15.40
  -6  -3   4   43.50   14.20
   6  -3  -4   31.70   14.50
   6   3  -4   55.79   15.10
   6   3  -4   44.40   13.60
  -6   3   4   56.89   17.60
  -6   3   4   72.69   16.40
  -5  -3   4   19.70    9.20
  -5  -3   4    5.10    9.50
   5  -3  -4   10.30    8.10
   5  -3  -4   19.70   10.90
   5   3  -4    9.80    9.20
   5   3  -4   25.80   10.20
  -5   3   4   19.10   11.10
  -4  -3   4    8.30    7.20
   4  -3  -4    9.20    8.90
   4  -3  -4    5.90    8.50
  -4  -3   4   15.60    6.70
   4   3  -4    0.70    6.60
   4   3  -4    1.90    6.60
  -4   3   4   -0.40    7.70
  -3  -3   4  103.49   10.70
   3  -3  -4   92.59   11.20
   3  -3  -4   97.29   11.10
  -3   3   4  114.39   13.20
  -3   3   4   85.99   10.60
   3   3  -4  108.99   11.30
  -2  -3   4   -0.40    3.80
   2  -3  -4   -0.90    4.30
   2  -3  -4   -3.90    5.60
  -2  -3   4    4.80    4.10
   2   3  -4    3.30    3.90
  -2   3   4   -2.00    3.80
   2   3  -4    2.60    4.00
  -2   3   4    4.10    5.70
   1  -3  -4  552.84   22.30
  -1  -3   4  565.64   18.70
   1  -3  -4  603.24   22.70
  -1  -3   4  564.04   18.50
  -1   3   4  578.44   23.30
   1   3  -4  570.54   18.20
   1   3  -4  581.24   18.20
  -1   3   4  551.84   22.70
   0  -3  -4   -2.30    5.10
   0  -3   4   -2.30    2.80
   0  -3   4    3.10    2.80
   0  -3  -4    3.10    4.30
   0   3  -4    0.30    2.30
   0   3   4    9.70    5.70
   0   3   4   -1.80    5.20
   0   3  -4    1.40    2.50
   1  -3   4  413.06   15.40
  -1  -3  -4  415.36   19.70
  -1  -3  -4  375.06   19.10
   1  -3   4  404.06   15.40
   1   3   4  398.76   18.50
   1   3   4  377.06   18.30
  -1   3  -4  390.86   14.60
  -1   3  -4  400.56   14.70
  -2  -3  -4  161.78   14.40
   2  -3   4  163.48   11.30
  -2  -3  -4  145.99   12.60
   2  -3   4  196.38   10.90
   2   3   4  155.58   14.70
  -2   3  -4  151.38   11.00
  -2   3  -4  158.88   11.00
   2   3   4  146.69   14.50
  -3  -3  -4   48.00   10.50
   3  -3   4   72.49    9.50
  -3  -3  -4   57.99    9.40
   3  -3   4   54.39   10.40
   3   3   4   72.09   11.80
  -3   3  -4   66.89    9.30
  -3   3  -4   59.09    8.70
   4  -3   4    1.70    8.70
  -4  -3  -4   -4.10   10.50
   4  -3   4   -3.70    8.20
  -4  -3  -4    9.40    8.20
   4   3   4   11.30   10.40
   4   3   4  -17.60   10.20
  -4   3  -4    9.20    9.70
   5  -3   4  -11.70   11.70
  -5  -3  -4   -5.80   13.20
   5  -3   4    2.20   10.90
  -5  -3  -4  -23.10   13.70
  -5   3  -4    0.80   10.80
   5   3   4   16.80   14.30
   5   3   4   39.40   16.70
  -5   3  -4  -17.70   10.90
   6  -3   4   -4.30   16.30
   6  -3   4   36.30   16.80
   6   3   4  -10.10   15.20
  -6   3  -4    8.20   16.20
   6   3   4  -19.40   14.80
   7  -4  -4   80.59   26.50
  -7  -4   4   90.29   17.00
  -7  -4   4   54.39   19.80
   7  -4  -4   72.99   21.50
   7   4  -4   83.59   20.10
   7   4  -4   70.69   19.70
  -7   4   4   68.09   20.60
  -7   4   4   43.40   20.20
  -6  -4   4   20.30   13.30
   6  -4  -4   13.90   11.00
  -6  -4   4   27.10   14.80
  -6   4   4   17.90   13.80
  -6   4   4   27.70   16.90
   6   4  -4   25.30   13.70
   6   4  -4   25.20   12.20
  -5  -4   4  412.66   24.60
   5  -4  -4  359.56   26.60
   5  -4  -4  382.36   26.40
   5   4  -4  333.27   23.10
   5   4  -4  410.36   24.40
  -5   4   4  393.46   23.90
   4  -4  -4   17.90    7.20
  -4  -4   4   14.40    7.50
   4  -4  -4    6.80    7.00
  -4  -4   4   -0.20    6.00
  -4   4   4   10.50    8.60
   4   4  -4    8.30    6.70
   4   4  -4   10.10    6.80
   3  -4  -4   27.50    8.30
   3  -4  -4   43.50    9.10
  -3  -4   4   24.20    6.20
   3   4  -4   37.40    6.80
  -3   4   4   32.10    7.20
  -3   4   4   32.70    8.50
   3   4  -4   23.70    6.40
   2  -4  -4  231.68   16.20
   2  -4  -4  242.78   16.10
  -2  -4   4  238.78   11.90
  -2  -4   4  229.58   11.90
   2   4  -4  240.88   11.70
  -2   4   4  244.48   15.80
   2   4  -4  242.48   11.70
  -2   4   4  250.07   16.30
  -1  -4   4    4.80    2.70
   1  -4  -4    1.20    5.90
   1  -4  -4   -2.10    4.30
  -1  -4   4    2.00    2.70
  -1   4   4    3.10    5.80
   1   4  -4    3.80    2.30
  -1   4   4    1.90    5.00
   1   4  -4    0.90    2.30
   0  -4   4 1007.20   27.40
   0  -4   4  984.50   27.30
   0  -4  -4 1042.10   34.40
   0  -4  -4  947.01   33.50
   0   4  -4  983.20   25.80
   0   4   4  957.20   33.80
   0   4   4 1011.30   34.10
   0   4  -4  989.00   25.80
   1  -4   4  771.72   23.90
  -1  -4  -4  772.72   29.10
  -1  -4  -4  793.02   30.20
  -1   4  -4  786.22   22.90
   1   4   4  773.32   29.70
  -1   4  -4  785.22   23.00
   1   4   4  807.92   29.50
  -2  -4  -4  214.98   14.90
  -2  -4  -4  207.98   16.50
   2  -4   4  230.98   12.70
   2   4   4  199.18   16.70
  -2   4  -4  219.78   12.10
   2   4   4  245.18   17.60
  -2   4  -4  202.68   11.90
  -3  -4  -4    8.00    9.10
   3  -4   4    2.50    6.00
   3  -4   4    0.90    6.40
  -3  -4  -4    1.90    9.50
  -3   4  -4   -5.90    6.00
   3   4   4  -10.60    8.30
  -3   4  -4  -12.90    5.20
   4  -4   4   23.00    9.00
   4  -4   4   21.70    9.70
  -4  -4  -4   30.30   12.80
  -4  -4  -4   27.50    9.80
  -4   4  -4   25.80   11.10
   4   4   4   35.30   12.90
  -5  -4  -4   13.80   15.20
   5  -4   4   -9.90   10.70
   5  -4   4    7.90   10.80
  -5  -4  -4   -3.90   13.90
  -5   4  -4   14.70   12.00
  -5   4  -4    3.70   12.30
   5   4   4   -9.30   15.50
   5   4   4   23.60   15.20
   6  -4   4    3.90   16.80
   6  -4   4    3.60   15.60
  -6  -4  -4   -1.80   19.50
   6   4   4   31.40   18.20
  -6   4  -4   20.00   16.10
  -6   4  -4  -12.30   15.70
   6   4   4   26.20   19.30
   7  -5  -4   -7.30   21.90
  -7  -5   4   21.00   16.70
   7  -5  -4   14.70   21.30
  -7   5   4    8.80   24.20
   7   5  -4   13.80   14.20
  -7   5   4   26.50   20.70
   7   5  -4   15.20   18.00
   6  -5  -4  -15.70   14.50
   6  -5  -4    6.10   14.60
  -6  -5   4  -21.20   12.80
  -6  -5   4  -15.40   11.90
   6   5  -4   18.70   12.40
  -6   5   4    1.40   16.20
  -6   5   4   -7.80   15.80
   6   5  -4    2.30   12.80
  -5  -5   4  324.67   23.30
   5  -5  -4  230.18   21.40
  -5  -5   4  299.17   21.20
   5  -5  -4  260.17   21.00
   5   5  -4  300.97   21.80
  -5   5   4  285.87   24.70
   5   5  -4  320.47   32.30
  -4  -5   4   -6.80    6.70
   4  -5  -4   -1.00    7.00
   4  -5  -4    0.50    9.30
  -4  -5   4    4.10    6.80
  -4   5   4   16.80    9.40
   4   5  -4    5.20    6.70
  -4   5   4    2.00    6.80
  -3  -5   4   35.20    6.80
   3  -5  -4   34.90    8.10
   3  -5  -4   33.50    9.10
  -3   5   4   39.60    9.00
  -3   5   4   42.30    8.10
   3   5  -4   27.10    6.20
   3   5  -4   31.80    6.50
  -2  -5   4  330.87   14.10
  -2  -5   4  337.37   13.90
   2  -5  -4  308.47   19.20
   2  -5  -4  344.87   19.30
  -2   5   4  325.47   17.50
   2   5  -4  338.67   13.60
   2   5  -4  331.37   13.30
  -2   5   4  333.07   18.10
   1  -5  -4 1673.83   52.19
  -1  -5   4 1709.63   44.50
   1  -5  -4 1760.12   52.89
  -1  -5   4 1666.23   44.50
  -1   5   4 1775.72   53.39
  -1   5   4 1704.13   52.59
   1   5  -4 1665.83   42.50
   1   5  -4 1681.83   42.50
   0  -5   4  562.64   15.80
   0  -5  -4  622.84   24.90
   0  -5   4  544.15   15.80
   0  -5  -4  551.34   24.60
   0   5   4  578.54   25.10
   0   5   4  572.84   23.60
  -1  -5  -4  184.18   15.60
  -1  -5  -4  225.08   16.40
   1  -5   4  199.08    9.10
   1  -5   4  206.58    9.30
   1   5   4  207.58   15.70
  -1   5  -4  188.58    7.20
  -1   5  -4  193.38    7.20
   1   5   4  194.38   14.10
  -2  -5  -4  129.29   12.80
   2  -5   4  121.39   10.20
  -2  -5  -4  109.69   12.70
  -2   5  -4  112.19    8.80
   2   5   4  117.89   12.70
   2   5   4  121.39   12.90
  -2   5  -4  131.29    9.10
  -3  -5  -4   65.29   12.60
  -3  -5  -4   83.39   13.30
   3  -5   4   56.89    8.40
   3  -5   4   67.09    9.50
   3   5   4   42.30   11.60
  -3   5  -4   51.29    8.00
  -3   5  -4   59.79    8.20
  -4  -5  -4  -20.10    8.40
  -4  -5  -4  -17.80   11.40
   4  -5   4   -2.00    7.60
  -4   5  -4   -3.00    8.70
   4   5   4  -13.60    8.40
  -5  -5  -4    2.60   15.30
   5  -5   4   12.50   12.00
   5  -5   4   -7.00   10.30
   5   5   4   30.30   16.60
  -5   5  -4   12.50   10.50
   5   5   4    6.10   16.40
  -6  -5  -4  301.47   37.30
   6  -5   4  183.98   22.40
   6  -5   4  255.27   29.90
  -6  -5  -4  287.17   32.50
   6   5   4  167.18   27.70
  -6   5  -4  186.48   22.70
   6   5   4  297.97   32.10
  -6   5  -4  224.78   29.10
   7  -6  -4  -11.20   24.10
   7  -6  -4   15.90   21.30
  -7  -6   4  -25.40   16.80
   7   6  -4   14.70   18.50
   7   6  -4   23.10   19.20
  -7   6   4   10.10   15.70
  -7   6   4   23.00   25.80
   6  -6  -4   10.50   16.30
   6  -6  -4   14.50   15.80
  -6  -6   4    5.10   12.40
   6   6  -4   -7.10   11.40
  -6   6   4  -13.70   13.80
   6   6  -4   -0.50   12.10
  -6   6   4   16.10   13.20
   5  -6  -4  111.79   16.90
  -5  -6   4  163.78   18.30
  -5  -6   4  166.28   19.60
  -5   6   4  219.28   20.90
   5   6  -4  158.08   20.10
  -5   6   4  135.89   17.80
   4  -6  -4  171.38   19.40
   4  -6  -4  192.98   16.60
  -4  -6   4  122.29   15.30
  -4  -6   4  131.79   14.20
  -4   6   4  144.69   19.20
  -4   6   4  156.18   18.80
   3  -6  -4    7.10    8.20
  -3  -6   4   -4.60    4.50
   3  -6  -4    9.80    8.50
  -3   6   4  -11.40    7.20
   3   6  -4   -2.80    5.10
  -3   6   4    4.00    6.10
   3   6  -4   -3.30    4.90
   2  -6  -4  181.68   16.10
   2  -6  -4  189.48   14.50
  -2  -6   4  177.08   10.20
  -2  -6   4  176.68    9.90
   2   6  -4  190.68    9.40
  -2   6   4  204.88   16.00
   2   6  -4  186.28    9.40
  -2   6   4  193.98   16.60
  -1  -6   4  130.29    6.00
  -1  -6   4  138.39    5.90
   1  -6  -4  117.39   12.10
   1  -6  -4  121.49   12.20
  -1   6   4  124.79   15.00
  -1   6   4  124.49   13.80
   0  -6  -4  156.98   14.60
   0  -6  -4  158.18   13.20
   0   6   4  162.58   14.90
   0   6   4  169.88   13.50
  -1  -6  -4  214.38   15.40
   1  -6   4  195.88    8.30
   1  -6   4  200.78    8.50
  -1  -6  -4  206.78   17.00
   1   6   4  232.58   17.20
   1   6   4  199.08   15.00
  -2  -6  -4  262.17   19.80
   2  -6   4  263.17   13.10
   2  -6   4  269.27   12.80
  -2  -6  -4  253.57   19.80
  -2   6  -4  255.07   11.50
   2   6   4  274.67   17.80
   2   6   4  255.37   19.90
  -2   6  -4  273.87   11.70
  -3  -6  -4   29.20   11.90
  -3  -6  -4   16.80   10.90
   3  -6   4   40.90    7.80
   3  -6   4   27.70    6.80
  -3   6  -4   39.60    7.20
   3   6   4   37.30    9.50
   4  -6   4   79.69   12.10
  -4  -6  -4   90.69   16.80
  -4  -6  -4  128.99   16.70
   4  -6   4   92.49   12.70
  -4   6  -4   84.89   11.30
   4   6   4  123.89   18.00
  -5  -6  -4   -1.60   16.00
   5  -6   4   10.20   12.90
   5  -6   4   12.00   10.50
  -5   6  -4    5.20   11.20
   5   6   4   -9.00   12.50
  -5   6  -4   -7.70   11.80
   5   6   4   -9.30   13.30
   6  -6   4   24.10   16.90
  -6  -6  -4   30.20   23.20
   6  -6   4   41.40   17.90
  -6  -6  -4  104.69   22.40
  -6   6  -4    6.90   16.70
   6   6   4   78.89   26.60
   6   6   4   27.30   23.40
   7  -7  -4  -20.40   24.80
   7  -7  -4   11.90   17.40
  -7  -7   4   -7.20   18.40
  -7  -7   4  -18.00   17.40
   7   7  -4  -13.70   18.40
  -7   7   4  -29.60   21.40
   7   7  -4   15.80   18.80
  -7   7   4   -2.70   19.50
  -6  -7   4   25.40   14.30
   6  -7  -4   49.99   15.60
   6  -7  -4   52.19   15.40
  -6   7   4   59.69   18.30
   6   7  -4   66.79   15.40
  -6   7   4   96.19   20.90
   6   7  -4   30.00   14.60
   5  -7  -4  538.05   33.70
   5  -7  -4  543.75   33.20
  -5  -7   4  526.05   28.10
  -5   7   4  536.35   34.10
   5   7  -4  531.05   28.30
   4  -7  -4   26.00    9.40
   4   7  -4   49.90    9.70
  -4   7   4   31.00   11.40
  -4   7   4   36.90   10.40
   4   7  -4   28.60    8.80
   3  -7  -4  321.07   22.30
  -3  -7   4  309.27   16.30
   3  -7  -4  331.07   22.00
  -3   7   4  330.47   22.60
   3   7  -4  335.17   15.80
  -3   7   4  311.47   19.50
   3   7  -4  338.87   16.20
   2  -7  -4   56.69   10.70
  -2  -7   4   62.49    7.20
   2  -7  -4   73.69   11.40
   2   7  -4   70.49    6.20
   2   7  -4   68.89    6.30
  -2   7   4   77.29   11.70
  -2   7   4   61.29   10.20
   1  -7  -4   21.60    7.10
   1  -7  -4   24.30    8.60
  -1  -7   4   22.20    2.60
  -1  -7   4   22.20    2.70
  -1   7   4   35.20    8.70
  -1   7   4   24.50    7.60
   0  -7  -4   -0.90    5.40
   0  -7  -4   -9.30    6.90
   0   7   4    9.50    8.20
   0   7   4    8.10    5.80
  -1  -7  -4  248.18   17.00
   1  -7   4  260.47    8.70
  -1  -7  -4  246.58   19.40
   1  -7   4  262.97    8.70
   1   7   4  252.57   18.80
   1   7   4  261.17   19.00
  -2  -7  -4   -8.20    9.20
   2  -7   4    9.40    4.50
  -2  -7  -4    3.20    9.30
  -2   7  -4    8.40    3.20
   2   7   4   11.10    9.20
  -2   7  -4   14.20    3.50
   3  -7   4  162.38   12.90
  -3  -7  -4  128.89   16.30
   3  -7   4  111.79   13.00
  -3  -7  -4  116.59   14.60
  -3   7  -4  133.29   11.70
   3   7   4  121.19   16.00
  -3   7  -4  125.89   11.90
   4  -7   4  157.28   16.90
  -4  -7  -4  121.89   18.80
   4  -7   4  141.49   17.60
   4   7   4  143.79   21.00
  -4   7  -4  144.69   15.90
  -5  -7  -4   -8.40   12.10
   5  -7   4   -5.80   14.00
   5  -7   4   30.20   11.80
  -5  -7  -4  -13.20   20.60
   5   7   4   24.80   18.50
  -5   7  -4   -0.90   10.50
  -5   7  -4   -9.40   11.00
   5   7   4   25.30   15.10
   6  -8  -4  113.99   22.30
   6  -8  -4   57.39   19.40
  -6  -8   4   59.89   15.40
  -6  -8   4   52.69   15.50
   6   8  -4   59.69   15.60
  -6   8   4   22.80   18.40
   6   8  -4   60.69   15.90
  -6   8   4   53.39   21.00
   5  -8  -4  212.98   22.30
  -5  -8   4  217.28   21.10
  -5  -8   4  251.27   20.30
   5  -8  -4  217.38   22.70
  -5   8   4  233.68   26.60
   4  -8  -4   -6.30   11.30
  -4  -8   4   20.60    8.40
  -4  -8   4   -6.10    6.40
  -4   8   4    0.80   11.60
  -4   8   4   13.00    8.50
   4   8  -4   11.20    7.20
   4   8  -4    0.90    7.00
  -3  -8   4  253.57   14.90
   3  -8  -4  317.87   18.30
  -3  -8   4  232.48   14.20
   3  -8  -4  242.78   18.40
  -3   8   4  258.67   21.20
   3   8  -4  266.07   14.70
  -3   8   4  211.28   20.90
   3   8  -4  244.28   14.20
   2  -8  -4   34.40    8.70
   2  -8  -4   38.60   10.30
  -2  -8   4   27.90    4.50
  -2   8   4   21.30    9.90
   2   8  -4   26.80    3.50
   2   8  -4   24.50    3.60
  -2   8   4   28.10    7.90
   1  -8  -4   -0.50    7.70
   1  -8  -4   11.30    6.70
  -1   8   4    3.80    8.10
  -1   8   4    6.90    6.90
   0  -8  -4   -6.40    7.80
   0  -8  -4    0.70    5.90
   0   8   4    3.90    6.40
   0   8   4   -5.50    7.60
  -1  -8  -4    8.70    9.50
  -1  -8  -4  -11.00    7.60
   1   8   4    7.90    8.70
   1   8   4    9.30    8.30
   2  -8   4    8.30    4.30
  -2  -8  -4   14.80   10.20
   2  -8   4   13.70    4.40
  -2  -8  -4  -10.10    9.90
   2   8   4   11.70    9.90
  -2   8  -4    7.90    2.00
  -2   8  -4   11.10    2.30
   3  -8   4   15.20    6.70
   3  -8   4   20.90    8.00
  -3  -8  -4   -2.80   11.80
  -3   8  -4   10.30    5.40
   3   8   4   13.40   12.10
  -3   8  -4    8.30    5.60
  -4  -8  -4    7.10   11.70
   4  -8   4   -2.10    8.40
   4  -8   4   20.80    9.60
  -4  -8  -4   -2.80   10.80
   4   8   4   19.70   11.90
   4   8   4   11.70   16.30
  -4   8  -4   18.40    8.00
  -4   8  -4   28.20    8.60
   5  -8   4  -15.60   13.30
  -5  -8  -4    4.00   26.90
   5  -8   4   -3.20   11.90
  -5  -8  -4   -3.10   17.80
  -5   8  -4    6.90   11.30
   5   8   4   39.70   22.20
  -5   8  -4    4.10   11.20
   5   8   4   10.40   14.00
   6  -9  -4  -16.40   21.00
   6  -9  -4   36.20   20.50
  -6  -9   4   22.50   14.10
  -6  -9   4    1.90   15.40
  -6   9   4  -26.50   17.10
   6   9  -4    7.30   15.10
  -6   9   4  -32.50   19.70
   6   9  -4   16.30   15.50
   5  -9  -4  180.48   22.50
  -5  -9   4  243.98   20.80
   5  -9  -4  242.38   29.90
  -5  -9   4  227.38   24.00
   5   9  -4  216.58   22.50
  -5   9   4  253.57   23.00
   4  -9  -4    6.90   12.10
   4  -9  -4    1.00   11.50
  -4  -9   4    5.40    7.90
  -4  -9   4   16.80    7.90
  -4   9   4   17.10   12.40
   4   9  -4    7.00    8.10
  -3  -9   4   51.59    7.70
   3  -9  -4   27.60   11.50
  -3  -9   4   44.50    7.20
  -3   9   4   26.20    8.90
  -3   9   4   48.30   10.60
   3   9  -4   53.79    8.30
   3   9  -4   46.00    7.00
  -2  -9   4   11.80    4.10
   2  -9  -4   17.10    9.90
   2   9  -4   18.20    3.00
  -2   9   4   24.80   10.20
   2   9  -4   14.80    2.70
  -2   9   4    3.60    9.90
   1  -9  -4   16.80    6.90
   1  -9  -4   -0.30    6.50
  -1   9   4   11.00   10.20
  -1   9   4   -9.20    8.10
   0  -9  -4   58.69   12.20
   0  -9  -4   65.39   10.50
   0   9   4   53.09   10.20
   0   9   4   59.39   10.20
  -1  -9  -4   49.40   12.10
   1   9   4   79.39   13.20
   1   9   4   52.09   11.70
   2  -9   4   34.70    5.20
   2  -9   4   31.60    5.00
  -2  -9  -4   25.00    9.60
   2   9   4   45.50   12.30
  -3  -9  -4    2.00    9.80
   3  -9   4   17.90    6.60
  -3  -9  -4   23.80   12.70
   3  -9   4    9.20    6.60
  -3   9  -4    5.10    5.20
   3   9   4   -3.80    9.80
  -3   9  -4    8.90    4.80
   4  -9   4  257.77   20.40
  -4  -9  -4  327.07   26.90
   4  -9   4  290.97   20.20
  -4  -9  -4  296.37   30.60
   4   9   4  320.37   27.60
  -4   9  -4  271.27   18.60
   4   9   4  290.67   31.20
  -4   9  -4  298.87   18.90
   5  -9   4  -18.60   13.10
  -5  -9  -4    8.70   20.40
  -5  -9  -4   -7.50   22.30
   5  -9   4   13.90   12.40
   5   9   4   44.50   26.10
   5   9   4    2.40   20.40
  -5   9  -4    1.90   11.50
  -5   9  -4    5.70   11.80
   6 -10  -4   45.30   18.70
  -6 -10   4   -7.40   13.80
   6 -10  -4   34.80   17.50
  -6 -10   4   37.70   16.20
  -6  10   4   85.99   20.60
   6  10  -4   51.09   20.70
  -6  10   4   57.49   21.30
   6  10  -4   42.70   18.30
  -5 -10   4  321.17   25.00
   5 -10  -4  302.07   27.40
   5 -10  -4  321.47   32.70
  -5 -10   4  274.37   24.30
   5  10  -4  285.97   23.10
   5  10  -4  291.17   23.30
  -5  10   4  286.67   30.10
   4 -10  -4  -24.50   11.50
  -4 -10   4  -13.80    7.20
   4 -10  -4   28.20   16.20
  -4 -10   4   10.80    8.30
   4  10  -4  -15.70    7.40
  -4  10   4    5.00    9.70
  -4  10   4   -3.40    8.90
  -3 -10   4    6.30    6.20
   3 -10  -4   15.80   11.40
   3 -10  -4   -2.40   11.20
  -3  10   4    7.30    8.50
   3  10  -4    7.30    5.80
  -3  10   4  -23.50   10.90
   3  10  -4   12.70    5.60
  -2 -10   4  138.79    9.00
  -2 -10   4  134.19    9.20
   2 -10  -4  148.19   16.20
  -2  10   4  130.19   16.90
  -2  10   4  107.89   15.40
   1 -10  -4   16.40    7.80
  -1  10   4   -1.20    9.70
  -1  10   4    1.80    8.00
   0 -10  -4 1175.48   45.50
   0  10   4 1226.68   46.40
   0  10   4 1205.78   45.30
  -1 -10  -4 1347.57   49.90
  -1 -10  -4 1322.67   49.30
   1  10   4 1375.26   50.69
   1  10   4 1310.37   49.60
   2 -10   4   47.40    5.60
   2 -10   4   46.90    5.60
  -2 -10  -4   23.90   13.30
  -2 -10  -4   37.00   11.20
   2  10   4   45.80   14.00
   3 -10   4   51.99    7.80
  -3 -10  -4   38.50   15.50
   3 -10   4   31.10    7.90
  -3 -10  -4   41.20   12.90
   3  10   4   51.19   13.30
  -3  10  -4   45.90    5.90
   3  10   4   78.89   16.50
  -3  10  -4   41.60    5.60
  -4 -10  -4   56.49   18.70
   4 -10   4   33.90   10.60
   4 -10   4   42.50   10.20
  -4 -10  -4   33.10   18.60
   4  10   4  -15.70   19.30
   4  10   4   38.50   18.40
  -4  10  -4   46.70    9.30
  -4  10  -4   54.69    9.40
  -5 -10  -4  -12.20   21.60
   5 -10   4  -19.50   13.00
  -5 -10  -4   10.50   24.50
   5 -10   4   -0.90   14.10
  -5  10  -4  -11.90   11.90
   5  10   4    0.00   26.10
  -5  10  -4  -16.80   11.70
   5  10   4   -7.30   22.10
   6 -11  -4  117.19   25.90
  -6 -11   4   85.19   20.40
   6 -11  -4   83.69   27.10
  -6 -11   4  109.29   19.40
  -6  11   4   88.09   23.80
  -6  11   4  115.99   27.80
   6  11  -4  104.19   20.30
  -5 -11   4   12.30   15.10
   5 -11  -4  -40.80   18.10
   5 -11  -4   -1.00   13.50
  -5 -11   4  -11.70   10.30
   5  11  -4  -11.70   11.80
   5  11  -4  -11.70   10.50
  -5  11   4   -0.20   12.10
  -4 -11   4   16.60    9.50
   4 -11  -4   10.00   15.20
  -4 -11   4   28.20   10.00
   4 -11  -4   51.09   13.70
   4  11  -4   12.60    8.80
  -4  11   4    8.50   14.50
   4  11  -4   18.70    9.10
  -4  11   4    8.80   11.10
  -3 -11   4    2.80    6.90
  -3 -11   4   15.10    6.90
   3 -11  -4   19.70   10.20
   3 -11  -4   -1.40    9.60
  -3  11   4   -0.40    8.90
   3  11  -4    0.50    5.70
  -3  11   4   16.70   12.00
   3  11  -4    0.80    5.40
  -2 -11   4   15.80    4.70
   2 -11  -4   14.90    9.40
  -2 -11   4   20.70    4.70
   2 -11  -4   19.70    9.70
  -2  11   4   18.30   12.50
   1 -11  -4   87.09   14.80
   1 -11  -4   41.10   12.40
  -1  11   4   36.70   12.60
  -1  11   4   34.20   13.30
   0 -11  -4   57.29   11.50
   0 -11  -4   75.39   15.20
   0  11   4   60.89   13.80
   0  11   4   57.59   14.80
  -1 -11  -4   11.70    9.50
  -1 -11  -4   18.50   10.00
   1  11   4   28.00   13.30
   1  11   4   31.30   13.70
  -2 -11  -4   36.90   12.00
  -2 -11  -4   33.60   15.10
   2 -11   4   49.50    5.60
   2 -11   4   58.29    7.40
   2  11   4   46.00   15.30
   2  11   4   50.09   10.70
   3 -11   4   11.00    6.70
  -3 -11  -4    6.90   15.50
   3 -11   4   19.20    7.30
   3  11   4  -20.00   11.80
  -3  11  -4   12.10    4.00
  -3  11  -4    4.20    3.40
   3  11   4   14.00   12.00
  -4 -11  -4   60.29   16.90
  -4 -11  -4   39.80   21.60
   4 -11   4   49.99   11.70
   4 -11   4   62.69   11.20
  -4  11  -4   44.20    9.00
  -4  11  -4   54.49    9.70
   4  11   4  101.39   27.00
   4  11   4   43.20   20.50
   5 -12  -4    9.10   19.30
   5 -12  -4  -11.00   19.60
  -5 -12   4   18.10   13.10
  -5 -12   4   24.40   15.30
  -5  12   4    6.90   18.60
   5  12  -4   -2.30   13.20
   5  12  -4  -11.10   11.60
  -4 -12   4   10.00   10.60
   4 -12  -4   22.10   16.50
   4 -12  -4   26.90   13.00
  -4 -12   4   45.30   10.20
  -4  12   4   33.20   12.60
  -4  12   4   24.10   12.10
   4  12  -4   23.40    9.80
   4  12  -4   29.30    9.90
  -3 -12   4  225.08   15.50
   3 -12  -4  236.98   22.90
  -3 -12   4  231.58   16.70
   3 -12  -4  196.58   25.30
  -3  12   4  205.28   24.90
   3  12  -4  236.18   13.70
  -3  12   4  222.78   26.00
   2 -12  -4   -4.40    8.80
   2 -12  -4  -19.20   15.70
  -2 -12   4   20.80    5.20
  -2 -12   4   13.30    7.00
  -2  12   4    9.40    9.70
  -2  12   4   12.90   10.10
   1 -12  -4   33.70   13.30
   1 -12  -4   39.40   11.40
  -1  12   4   43.20   12.00
  -1  12   4   48.10   13.80
   0 -12  -4    8.80   12.30
   0 -12  -4    4.90   12.90
   0  12   4   -4.10   12.40
   0  12   4   -8.60   11.60
  -1 -12  -4   43.10   15.00
  -1 -12  -4   43.50   12.70
   1  12   4   62.79   15.10
   1  12   4   35.70   11.70
  -2 -12  -4   75.39   16.60
   2 -12   4   82.19    8.00
  -2 -12  -4   84.39   18.70
   2  12   4   56.69   16.20
   3 -12   4  122.19   13.60
   3 -12   4   92.19   10.30
  -3 -12  -4   99.09   23.20
  -3 -12  -4  156.28   23.70
   3  12   4  115.19   18.70
   3  12   4   91.09   19.80
  -4 -12  -4   49.90   23.40
  -4 -12  -4    7.70   15.80
   4 -12   4    0.50   10.70
   4 -12   4   15.30   10.40
   4  12   4   31.90   22.30
  -4  12  -4   20.60    8.20
  -4  12  -4   16.60    7.90
  -5 -13   4   29.50   13.70
  -5 -13   4   27.30   16.40
   5 -13  -4   51.19   19.20
   5 -13  -4  109.99   24.30
   5  13  -4   24.00   15.20
   5  13  -4   56.39   14.70
  -5  13   4   40.50   20.50
  -4 -13   4    4.20   10.70
   4 -13  -4  -16.00   17.90
  -4 -13   4   17.00    9.30
   4 -13  -4    4.20   17.20
  -4  13   4    7.80   16.90
   4  13  -4    9.00   10.10
  -4  13   4   15.70   12.70
   4  13  -4   -1.70    9.70
  -3 -13   4   22.00    8.40
   3 -13  -4  -14.50   14.90
   3 -13  -4   12.90   12.40
  -3 -13   4   22.50    7.70
  -3  13   4   17.50   16.00
  -3  13   4    7.10   15.50
   3  13  -4   11.00    6.30
   2 -13  -4   99.59   18.30
  -2 -13   4   54.39    6.50
  -2 -13   4   44.20    6.60
   2 -13  -4   30.00   14.30
  -2  13   4   27.10   14.60
  -2  13   4   12.30   14.60
   1 -13  -4   15.10   14.60
   1 -13  -4   -7.40   12.90
  -1  13   4   33.60   15.80
  -1  13   4   16.00   13.30
   0 -13  -4  148.99   18.60
   0 -13  -4   85.59   14.60
   0  13   4  103.79   15.50
  -1 -13  -4   27.50   15.10
  -1 -13  -4   45.20   15.80
   1  13   4   33.00   15.00
   1  13   4   47.60   15.50
  -2 -13  -4  159.98   22.20
  -2 -13  -4  135.19   22.10
   2 -13   4  189.08    9.60
   2 -13   4  212.18    9.10
   2  13   4  131.39   20.60
  -3 -13  -4   45.30   21.10
   3 -13   4   20.20    7.60
   3  13   4  -27.10   19.00
   3  13   4    3.60   18.70
   4  13   4   47.40   24.80
  -4 -14   4   12.10   12.70
  -4 -14   4   15.40   10.50
   4 -14  -4   13.50   20.80
   4 -14  -4   16.50   20.60
   4  14  -4    4.90   10.90
   4  14  -4  -14.00   10.00
  -4  14   4   18.50   14.80
   3 -14  -4   15.80   18.20
  -3 -14   4   33.60    8.60
  -3 -14   4   38.60    9.50
   3 -14  -4   17.10   17.70
  -3  14   4   40.80   18.10
   3  14  -4   47.10    7.10
   3  14  -4   24.80    6.90
  -3  14   4   49.10   14.70
  -2 -14   4   61.79    7.00
   2 -14  -4   48.00   17.30
   2 -14  -4   52.89   17.90
  -2 -14   4   81.19   10.10
  -2  14   4   52.59   14.60
  -2  14   4   80.89   18.20
   1 -14  -4   23.60   12.80
   1 -14  -4   21.80   15.40
  -1  14   4   15.30   16.90
  -1  14   4   17.80   15.10
   0 -14  -4    7.60   15.70
   0 -14  -4  -37.40   15.80
   0  14   4   11.60   16.00
   0  14   4    6.30   10.80
  -1 -14  -4    4.30   16.10
  -1 -14  -4   30.00   17.70
   1  14   4    3.00   15.50
   2 -14   4  139.29    8.20
   2 -14   4  130.79    7.30
  -2 -14  -4  141.09   23.90
  -2 -14  -4  116.49   22.50
   2  14   4  109.49   22.10
  -3 -14  -4  117.99   25.10
   3 -14   4  139.69   14.80
   3 -14   4  177.78   15.50
  -3 -14  -4  164.58   27.10
   3  14   4  103.39   24.50
   3  14   4   89.09   24.70
   4 -15  -4   13.50   20.30
   4  15  -4   24.30   11.50
   4  15  -4   19.90   11.70
  -3 -15   4  167.28   18.40
   3 -15  -4  183.08   24.70
   3 -15  -4  134.89   24.40
  -3 -15   4  148.09   17.40
  -3  15   4  159.28   20.30
   3  15  -4  140.49   11.10
  -3  15   4  111.19   23.00
   2 -15  -4  114.99   19.00
  -2 -15   4   92.19   11.30
   2 -15  -4  118.09   21.50
  -2  15   4  153.88   21.40
  -2  15   4   72.99   20.40
   1 -15  -4   22.90   17.50
   1 -15  -4  -23.00   17.30
  -1  15   4   10.60   17.10
  -1  15   4   13.00   13.60
   0 -15  -4  -31.00   17.60
   0 -15  -4  -14.90   17.00
   0  15   4    9.50   18.40
   0  15   4  -11.00   15.50
  -1 -15  -4    4.40   18.40
  -1 -15  -4   17.30   20.10
   1  15   4   21.40   14.40
  -2 -15  -4  -20.60   20.80
  -2 -15  -4   10.00   15.90
   2  15   4   -2.60   17.90
   3 -16  -4   40.40   21.70
  -3 -16   4   56.09   10.80
   3 -16  -4   45.20   24.10
  -3  16   4   62.99   23.70
  -3  16   4   57.69   22.60
   2 -16  -4   73.99   22.00
   2 -16  -4   69.69   22.60
  -2  16   4   31.80   19.70
  -2  16   4   44.80   20.50
   1 -16  -4  -33.10   17.30
   1 -16  -4  -10.00   18.60
  -1  16   4  -25.50   18.30
  -1  16   4    6.70   18.10
   0 -16  -4   -7.10   18.60
   0 -16  -4   12.30   29.00
   0  16   4   21.70   19.80
   0  16   4    2.00   20.90
  -1 -16  -4  -14.00   20.90
  -1 -16  -4   20.40   22.60
   1  16   4  -23.40   20.80
  -7   0   5   -0.20   20.20
  -7   0   5   14.40   17.50
   7   0  -5   19.30   19.60
  -6   0   5  -14.40   13.60
  -6   0   5  -10.20   13.30
   6   0  -5   10.60   13.10
   6   0  -5  -14.00   13.00
   5   0  -5    3.70   10.50
  -5   0   5    8.40   10.30
   5   0  -5    0.80   10.70
   4   0  -5   -6.50    8.00
  -4   0   5   16.80    6.70
   4   0  -5   -7.70    7.70
  -4   0   5   -0.60    6.90
  -3   0   5    5.20    5.90
   3   0  -5    5.50    6.60
   3   0  -5   10.60    6.80
   2   0  -5    6.50    5.20
  -2   0   5   -2.10    4.80
   2   0  -5    7.20    5.70
   1   0  -5   -5.20    4.50
  -1   0   5    1.20    5.10
  -1   0   5   -4.60    4.40
   0   0  -5    3.00    4.90
   0   0   5    1.10    4.80
   1   0   5    1.00    5.90
  -1   0  -5   -0.50    5.50
  -2   0  -5   11.50    6.90
  -2   0  -5    3.10    6.00
   2   0   5    9.70    6.20
   2   0   5   -6.30    6.50
   3   0   5   -7.30    7.70
  -4   0  -5   -6.50    9.70
  -4   0  -5    5.20   10.50
   4   0   5   -0.60   10.20
   4   0   5   -0.90   10.40
   5   0   5  -36.80   13.50
  -5   0  -5   -1.40   13.90
   5   0   5    6.00   13.30
  -5   0  -5   -8.40   14.30
   7  -1  -5   -1.10   18.70
  -7  -1   5   14.30   16.70
  -7  -1   5   20.00   20.10
  -7   1   5   17.10   19.60
   7   1  -5  -30.60   18.50
  -7   1   5  -54.49   20.20
   7   1  -5   33.10   17.90
  -6  -1   5  113.09   18.80
   6  -1  -5  135.89   19.30
  -6  -1   5   81.99   16.70
   6  -1  -5  116.39   15.90
   6   1  -5   83.69   16.30
  -6   1   5   90.89   17.30
  -6   1   5  121.09   17.60
   6   1  -5   91.69   17.30
   5  -1  -5   41.90   12.40
  -5  -1   5   29.70   11.50
   5  -1  -5   36.20   12.70
  -5   1   5   52.89   11.40
   5   1  -5   44.50   11.80
  -5   1   5   62.19   12.50
   5   1  -5   33.40   11.50
  -4  -1   5    7.60    8.10
   4  -1  -5   -3.20    8.40
  -4  -1   5   -0.50    7.40
   4  -1  -5    2.80    8.10
   4   1  -5   11.90    9.10
   4   1  -5    1.30    7.90
  -4   1   5   -8.60    7.80
  -4   1   5    8.50    8.90
  -3  -1   5   60.79    9.10
   3  -1  -5   65.59    9.90
   3  -1  -5   65.69   10.20
   3   1  -5   74.09    9.40
  -3   1   5   80.69   10.50
   3   1  -5  106.29   11.90
  -2  -1   5  193.38   13.70
   2  -1  -5  189.88   13.90
   2  -1  -5  202.08   14.30
  -2   1   5  175.98   13.60
   2   1  -5  204.48   13.50
  -1  -1   5  106.19    9.90
   1  -1  -5  119.69   11.40
  -1  -1   5  112.59   10.10
   1  -1  -5  143.49   11.90
   1   1  -5  121.49   10.60
  -1   1   5  130.19   12.00
   1   1  -5  121.99   10.00
  -1   1   5  110.99   11.20
   0  -1   5   33.50    5.90
   0  -1  -5   25.50    6.30
   0  -1  -5   40.80    7.10
   0  -1   5   23.90    5.60
   0   1   5   38.00    6.90
   0   1  -5   35.50    6.10
   0   1   5   44.00    6.40
   0   1  -5   25.20    5.60
   1  -1   5  745.83   27.90
  -1  -1  -5  812.82   29.40
  -1  -1  -5  812.82   29.10
  -1   1  -5  776.12   26.90
  -1   1  -5  725.23   26.80
   1   1   5  766.42   29.00
  -2  -1  -5   73.69   10.00
  -2  -1  -5   83.99   10.90
   2  -1   5   97.79   11.70
   2  -1   5   84.69   10.30
  -2   1  -5   76.99    9.40
   2   1   5   85.09   10.50
   2   1   5   76.49   10.30
  -3  -1  -5 1001.80   38.10
   3  -1   5  915.31   39.50
  -3  -1  -5  998.70   38.30
   3  -1   5  966.40   37.00
   3   1   5  981.60   38.00
   3   1   5 1002.40   38.60
   4  -1   5    8.90   10.30
  -4  -1  -5   -1.90   11.90
   4  -1   5   -8.50    9.50
  -4  -1  -5   17.80   11.00
   4   1   5   12.50   10.90
   4   1   5    7.30   11.00
  -4   1  -5   -5.00   10.10
  -5  -1  -5   20.80   13.70
  -5  -1  -5    1.40   13.50
   5  -1   5    7.20   13.70
   5  -1   5   -8.50   13.30
  -5   1  -5   22.50   14.30
  -5   1  -5   30.40   14.10
   5   1   5   -6.80   13.70
   5   1   5    7.20   14.90
   7  -2  -5   41.40   21.10
   7  -2  -5   45.90   20.50
  -7  -2   5   47.10   19.20
  -7  -2   5   36.00   17.40
   7   2  -5   40.60   17.70
   7   2  -5   69.89   20.60
  -7   2   5   20.60   23.60
   6  -2  -5   56.79   13.30
  -6  -2   5   50.69   15.40
  -6  -2   5   66.09   15.40
   6  -2  -5   88.99   17.50
   6   2  -5   78.79   15.90
  -6   2   5   33.80   17.30
  -6   2   5   33.80   12.00
   6   2  -5   61.99   15.40
  -5  -2   5   -4.00    9.00
   5  -2  -5   -2.00    8.60
  -5  -2   5   -0.60    9.40
   5  -2  -5    1.10   11.20
  -5   2   5   -0.90   10.70
   5   2  -5  -12.30    9.60
   5   2  -5   13.50   10.30
  -5   2   5   -5.00   11.60
   4  -2  -5   28.30   10.10
   4  -2  -5   22.60   10.10
  -4  -2   5   24.60    8.60
  -4  -2   5   20.20    8.30
   4   2  -5   12.10    7.70
  -4   2   5   16.10    7.80
   4   2  -5   25.40   10.10
  -4   2   5   33.30    8.60
  -3  -2   5   -3.20    5.60
   3  -2  -5   -0.10    7.30
   3  -2  -5   -6.50    6.90
   3   2  -5    4.70    6.40
  -3   2   5   -1.50    6.80
  -2  -2   5  133.59   11.90
   2  -2  -5  150.48   13.70
   2  -2  -5  126.79   13.30
   2   2  -5  135.49   11.30
   2   2  -5  123.09   11.40
  -2   2   5  134.99   12.90
  -1  -2   5 1066.89   33.00
   1  -2  -5 1036.30   36.00
  -1  -2   5 1068.49   33.00
   1  -2  -5 1091.89   36.60
  -1   2   5 1102.19   36.80
  -1   2   5 1070.89   36.20
   1   2  -5 1061.49   32.50
   1   2  -5 1076.89   32.90
   0  -2  -5  238.38   15.30
   0  -2   5  236.68   12.30
   0  -2  -5  233.78   15.20
   0  -2   5  218.58   12.00
   0   2   5  240.58   14.50
   0   2  -5  222.38   12.00
   0   2   5  219.38   14.70
   0   2  -5  215.78   11.50
  -1  -2  -5   89.79   10.60
   1  -2   5  103.79   10.30
  -1  -2  -5  108.99   12.60
   1   2   5   74.69    9.80
  -1   2  -5   84.69    9.40
  -1   2  -5  102.89    9.70
   2  -2   5   19.80    6.40
  -2  -2  -5   17.60    8.60
  -2  -2  -5   33.90    9.10
   2   2   5   22.00    7.80
   2   2   5   29.60    9.00
  -2   2  -5   19.40    6.50
  -2   2  -5   15.30    6.40
  -3  -2  -5   83.49   12.90
  -3  -2  -5   55.79   10.10
   3  -2   5   99.29   12.00
   3   2   5   71.69   12.70
  -3   2  -5   83.79   13.30
   3   2   5   87.09   13.50
  -4  -2  -5   59.29   13.90
   4  -2   5   72.59   12.50
   4  -2   5   98.69   13.60
  -4  -2  -5   80.99   14.80
   4   2   5   80.39   14.90
  -4   2  -5   72.59   13.60
   4   2   5   70.79   14.60
  -5  -2  -5   11.60   16.20
  -5  -2  -5   11.70   16.00
   5  -2   5  -19.30   11.70
   5  -2   5   10.40   13.70
  -5   2  -5  -26.10   12.20
   5   2   5   -7.50   15.70
   5   2   5   39.50   16.40
  -5   2  -5  -17.50   12.60
  -7  -3   5   18.10   20.60
   7  -3  -5   44.90   18.10
  -7  -3   5  -11.70   16.30
   7  -3  -5   18.50   20.40
  -7   3   5   33.70   21.30
  -7   3   5  -50.29   23.10
   7   3  -5   -4.70   13.80
   7   3  -5  -28.50   17.10
  -6  -3   5   47.60   14.60
   6  -3  -5   39.40   14.70
  -6  -3   5   40.90   14.10
   6   3  -5   34.70   14.90
  -6   3   5   32.70   15.40
   6   3  -5   24.70   13.70
  -6   3   5   68.89   19.30
  -5  -3   5    6.10    8.40
   5  -3  -5   -7.00   11.60
  -5  -3   5    2.70    9.90
   5  -3  -5   17.20   11.60
   5   3  -5   -1.10    9.50
   5   3  -5   27.40   10.70
  -5   3   5   -3.90    8.10
  -5   3   5   -4.50   12.60
  -4  -3   5    4.00    7.40
  -4  -3   5    6.10    7.70
   4  -3  -5   -6.80    9.50
   4  -3  -5   10.90    7.40
  -4   3   5    4.30    9.30
  -4   3   5   10.50    9.00
   4   3  -5    4.60    7.40
   3  -3  -5  160.38   16.40
   3  -3  -5  175.78   17.10
  -3  -3   5  179.68   13.30
   3   3  -5  191.28   13.70
   3   3  -5  159.48   13.30
  -3   3   5  163.98   15.80
   2  -3  -5  505.45   23.90
  -2  -3   5  469.55   19.60
   2  -3  -5  480.25   23.70
  -2   3   5  509.25   23.50
   2   3  -5  501.95   19.50
  -2   3   5  560.24   23.50
   2   3  -5  497.25   19.50
   1  -3  -5   14.10    7.00
  -1  -3   5   28.30    5.10
  -1  -3   5   17.40    4.60
   1  -3  -5   28.30    7.50
   1   3  -5   20.60    4.50
  -1   3   5   11.30    6.40
  -1   3   5   12.90    7.20
   1   3  -5   20.90    4.50
   0  -3  -5    2.30    4.80
   0  -3  -5   -4.20    5.90
   0  -3   5    5.00    3.70
   0  -3   5    1.70    3.60
   0   3   5    3.30    5.90
   0   3  -5   -0.20    3.30
   0   3  -5   -1.10    3.50
  -1  -3  -5   82.39   10.70
   1  -3   5  123.79    9.90
  -1  -3  -5   87.19   11.00
  -1   3  -5   91.19    8.70
   1   3   5   76.99   10.70
  -1   3  -5   96.29    9.00
  -2  -3  -5  108.69   12.90
  -2  -3  -5   97.59   12.70
   2  -3   5  118.69   12.00
  -2   3  -5  123.49   11.90
  -2   3  -5  122.19   11.40
   2   3   5  109.89   13.20
   2   3   5  111.49   13.00
  -3  -3  -5  201.38   20.20
  -3  -3  -5  235.08   20.00
   3  -3   5  197.98   18.20
  -3   3  -5  230.28   16.70
   3   3   5  208.28   20.90
  -3   3  -5  229.68   16.20
   3   3   5  199.18   20.40
   4  -3   5    9.00   10.40
  -4  -3  -5   17.20   13.20
  -4  -3  -5    3.40   12.30
   4  -3   5    8.30    9.20
   4   3   5   17.00   13.10
  -4   3  -5    3.50   11.00
   5  -3   5    2.10   13.80
  -5  -3  -5   22.20   16.60
  -5  -3  -5   24.10   17.30
   5  -3   5   -6.60   12.80
  -5   3  -5    3.20   14.50
   5   3   5   -7.20   16.90
   5   3   5   -9.10   16.20
  -5   3  -5   26.80   12.90
   7  -4  -5   21.60   19.60
  -7  -4   5    5.60   18.10
   7  -4  -5   -3.10   20.60
  -7  -4   5    6.50   17.70
  -7   4   5   12.40   25.50
  -7   4   5   13.00   20.70
   7   4  -5    4.70   19.00
   7   4  -5  -13.70   17.60
   6  -4  -5   -3.10   14.10
  -6  -4   5  -10.00   12.10
  -6  -4   5   11.40   14.10
   6   4  -5   -5.50   13.00
  -6   4   5  -12.20   16.80
  -6   4   5   23.50   16.50
   6   4  -5    6.10   13.50
   5  -4  -5    9.20    9.50
  -5  -4   5    7.90   10.60
  -5  -4   5   -1.20    9.10
   5  -4  -5    4.00   12.50
   5   4  -5    4.30    9.10
  -5   4   5   12.00   11.90
  -5   4   5    1.20   13.70
  -4  -4   5    6.70    7.70
   4  -4  -5   22.30   10.70
   4  -4  -5   14.80   10.80
  -4  -4   5   13.90    8.10
  -4   4   5   18.50   10.00
  -4   4   5    4.60    9.80
   3  -4  -5  260.07   19.80
   3  -4  -5  268.47   20.40
  -3  -4   5  261.67   15.60
  -3  -4   5  260.67   16.20
  -3   4   5  238.08   19.10
   3   4  -5  257.17   15.60
   3   4  -5  265.37   15.50
   2  -4  -5  496.85   24.10
   2  -4  -5  549.74   25.70
  -2  -4   5  523.25   20.00
  -2   4   5  652.63   25.80
  -2   4   5  516.55   24.80
   2   4  -5  534.45   19.50
   2   4  -5  515.55   19.10
  -1  -4   5   -2.50    3.40
   1  -4  -5   -7.60    6.40
   1  -4  -5   -5.40    6.80
  -1  -4   5   -3.20    3.30
  -1   4   5    4.90    5.10
  -1   4   5    0.80    5.30
   1   4  -5    2.60    2.90
   1   4  -5    0.50    3.00
   0  -4   5  423.16   15.70
   0  -4   5  449.76   15.70
   0  -4  -5  450.45   21.20
   0  -4  -5  446.26   22.20
   0   4   5  415.16   20.60
   0   4  -5  428.16   14.00
   0   4  -5  435.26   14.10
  -1  -4  -5  451.45   23.70
  -1  -4  -5  467.35   22.50
   1  -4   5  466.05   17.60
   1   4   5  452.75   22.30
  -1   4  -5  468.95   16.40
  -1   4  -5  471.75   16.50
  -2  -4  -5  376.26   23.10
  -2  -4  -5  381.26   21.40
   2  -4   5  372.36   17.90
   2  -4   5  375.56   17.40
  -2   4  -5  389.16   17.20
   2   4   5  373.76   23.20
  -2   4  -5  390.36   17.00
   2   4   5  371.36   23.40
   3  -4   5   15.00    8.20
   3  -4   5   13.20    8.20
  -3  -4  -5   34.50   11.20
  -3  -4  -5   38.30   12.10
  -3   4  -5   26.90    7.60
  -3   4  -5   37.30    7.90
   3   4   5   22.20   11.10
   3   4   5   22.90   11.10
   4  -4   5  197.48   18.50
  -4  -4  -5  200.88   22.00
  -4  -4  -5  178.18   20.30
   4   4   5  218.38   21.60
  -4   4  -5  198.38   19.40
   5  -4   5   34.90   15.60
  -5  -4  -5   37.10   17.00
   5  -4   5   59.09   14.90
  -5  -4  -5   70.79   16.20
  -5   4  -5   26.00   17.00
   5   4   5   60.89   20.00
   5   4   5   16.60   17.50
  -5   4  -5   42.30   14.50
   7  -5  -5    1.30   18.70
  -7  -5   5    4.20   18.50
  -7  -5   5   16.40   20.50
   7  -5  -5  -17.40   21.10
  -7   5   5   22.70   26.10
   7   5  -5    2.40   18.90
  -7   5   5    6.50   16.20
   7   5  -5  -31.60   17.50
  -6  -5   5    6.50   14.20
  -6  -5   5   -4.00   12.80
   6  -5  -5    6.30   17.60
   6  -5  -5    3.00   16.10
   6   5  -5  -17.80   12.30
  -6   5   5    6.70   13.80
   6   5  -5    8.00   13.70
  -5  -5   5  118.29   14.80
  -5  -5   5  116.79   14.60
   5  -5  -5   92.09   15.00
  -5   5   5   98.59   16.80
   5   5  -5  114.39   14.10
  -5   5   5  103.49   18.80
   4  -5  -5  134.39   16.50
  -4  -5   5  143.79   18.90
   4  -5  -5  157.98   20.30
  -4  -5   5  152.28   15.30
  -4   5   5  110.19   14.30
  -4   5   5  142.69   16.20
   4   5  -5  135.09   15.90
  -3  -5   5   51.59    8.10
   3  -5  -5   63.39   11.60
  -3  -5   5   50.09    7.90
   3  -5  -5   52.59   11.80
   3   5  -5   48.00    7.80
  -3   5   5   38.60    9.90
   3   5  -5   43.90    7.10
  -2  -5   5   53.49    6.30
   2  -5  -5   57.29   11.00
   2  -5  -5   62.59   10.60
   2   5  -5   59.29    7.60
  -2   5   5   65.39   10.70
   2   5  -5   64.59    7.30
   1  -5  -5  273.67   17.40
  -1  -5   5  273.97   11.40
   1  -5  -5  301.77   19.70
  -1  -5   5  290.27   11.60
   1   5  -5  289.57    9.10
   1   5  -5  272.57    9.00
  -1   5   5  281.47   19.10
  -1   5   5  318.37   19.40
   0  -5   5   68.79    6.00
   0  -5   5   64.89    5.60
   0  -5  -5   65.29   10.70
   0  -5  -5   86.39   11.50
   0   5   5   72.89   10.60
  -1  -5  -5    0.50    8.30
  -1  -5  -5   -8.90    5.50
   1  -5   5    5.40    3.70
  -1   5  -5    0.60    2.60
   1   5   5   -5.60    7.90
  -1   5  -5    0.20    2.40
   2  -5   5  211.68   12.90
  -2  -5  -5  171.08   16.90
   2  -5   5  187.38   13.30
  -2  -5  -5  191.18   19.00
   2   5   5  231.68   20.40
  -2   5  -5  198.88   12.00
   2   5   5  228.28   19.90
  -2   5  -5  193.58   11.70
   3  -5   5  138.89   15.80
  -3  -5  -5  131.29   16.30
  -3  -5  -5  125.39   17.00
   3  -5   5  150.98   14.90
  -3   5  -5  168.78   14.10
   3   5   5  139.99   17.00
   3   5   5  164.48   19.40
  -3   5  -5  157.48   14.10
   4  -5   5   -2.20   10.80
  -4  -5  -5  -10.00    9.80
  -4  -5  -5  -11.40   12.80
   4  -5   5  -11.90    9.40
  -4   5  -5    9.70    9.20
  -4   5  -5   -0.90    9.20
   4   5   5   26.30   12.00
  -5  -5  -5   11.50   17.80
   5  -5   5   21.10   14.00
   5  -5   5   38.70   14.50
  -5   5  -5   50.59   14.10
   5   5   5   49.80   21.30
  -5   5  -5   42.60   13.30
   5   5   5   51.99   16.00
  -7  -6   5    5.30   19.60
   7  -6  -5   70.49   25.80
   7  -6  -5   -9.40   23.20
  -7   6   5   54.39   22.00
  -7   6   5   17.00   22.90
   7   6  -5  -24.50   18.10
   7   6  -5    7.90   22.30
   6  -6  -5  -37.50   18.90
  -6  -6   5   -5.80   13.20
   6  -6  -5   -1.10   17.00
  -6  -6   5   27.10   15.00
   6   6  -5    9.80   13.10
  -6   6   5    7.80   16.70
   6   6  -5   -7.40   13.20
  -6   6   5  -19.30   13.80
   5  -6  -5    8.70   13.80
  -5  -6   5   18.00   10.60
  -5  -6   5   -0.30    9.90
  -5   6   5   16.60   10.50
  -5   6   5   16.40   11.50
   4  -6  -5   93.29   14.90
  -4  -6   5   81.09   11.40
  -4  -6   5   61.49   10.60
   4  -6  -5   76.89   12.60
  -4   6   5   78.79   14.10
   4   6  -5   61.09   10.10
  -4   6   5   65.49   11.90
   4   6  -5   59.29   10.00
   3  -6  -5  141.39   18.40
   3  -6  -5  102.99   14.60
  -3  -6   5  131.79   12.40
  -3  -6   5  140.69   12.10
   3   6  -5  124.99   12.00
  -3   6   5  125.09   13.90
   3   6  -5  139.29   11.60
   2  -6  -5   91.09   13.20
  -2  -6   5  119.09    9.10
   2  -6  -5  142.99   16.50
  -2  -6   5  137.49    8.50
  -2   6   5  106.49   13.00
   2   6  -5  111.89    7.60
   2   6  -5  102.89    7.70
  -1  -6   5  163.38    7.80
  -1  -6   5  168.58    7.60
   1  -6  -5  147.69   16.50
   1  -6  -5  143.29   17.10
  -1   6   5  200.78   15.10
  -1   6   5  173.68   17.30
   0  -6  -5   63.79   11.50
   0  -6  -5   80.89   10.90
   0  -6   5   83.19    4.50
   0   6   5   60.39   10.80
  -1  -6  -5  119.59   14.50
  -1  -6  -5  132.89   17.20
   1  -6   5  118.89    8.00
   1   6   5   83.39   14.50
   1   6   5  109.99   13.80
   2  -6   5   14.20    5.40
   2  -6   5    6.00    5.50
  -2  -6  -5   13.00   10.50
  -2  -6  -5   15.00   11.10
  -2   6  -5   11.00    4.10
  -2   6  -5    8.10    4.10
   2   6   5   12.80   10.90
   2   6   5   14.70   10.80
   3  -6   5   11.10    7.50
  -3  -6  -5    2.40   12.50
   3  -6   5   12.10    7.20
  -3  -6  -5   21.60   12.40
   3   6   5   18.40   13.10
   3   6   5   15.70   12.70
  -3   6  -5   13.00    6.60
  -3   6  -5    1.50    6.30
  -4  -6  -5  113.09   15.70
   4  -6   5   86.69   13.10
  -4  -6  -5   78.99   17.70
   4  -6   5   78.39   12.50
   4   6   5  104.89   17.60
  -4   6  -5   77.19   11.70
  -4   6  -5   91.39   12.20
  -5  -6  -5    1.70   19.70
   5  -6   5   -0.80   12.10
   5  -6   5   34.90   15.00
  -5   6  -5   -0.40   12.00
   5   6   5   59.89   21.50
  -5   6  -5   -3.60   12.10
   5   6   5   -5.10   22.00
   6  -7  -5    8.40   24.50
   6  -7  -5  -29.60   18.40
  -6  -7   5   -7.90   13.50
  -6   7   5   40.50   18.70
  -6   7   5   51.59   22.10
   6   7  -5   -8.80   14.20
   6   7  -5  -11.10   13.20
  -5  -7   5    0.10   10.20
  -5  -7   5    6.40   11.00
   5  -7  -5   15.20   15.90
   5  -7  -5   12.40   15.70
  -5   7   5    5.70   15.80
   5   7  -5   15.80   10.60
  -4  -7   5   77.39   11.20
  -4  -7   5   95.69   12.10
   4  -7  -5   94.19   14.20
  -4   7   5   75.49   12.40
   4   7  -5   83.49   10.50
   3  -7  -5  193.88   20.50
   3  -7  -5  123.79   16.60
  -3  -7   5  154.48   12.50
  -3  -7   5  172.08   13.10
   3   7  -5  134.29   11.30
  -3   7   5  149.99   19.70
   3   7  -5  170.88   12.20
   2  -7  -5  120.09   14.80
  -2  -7   5  134.59    8.80
   2  -7  -5  139.09   18.10
  -2   7   5  115.99   13.80
   2   7  -5  135.19    6.50
   2   7  -5  128.99    6.30
  -1  -7   5   18.10    2.40
   1  -7  -5   23.50   10.00
   1  -7  -5   26.10   10.20
  -1   7   5   10.20    7.00
   0  -7  -5   22.10   10.10
   0  -7  -5   38.30    9.10
   0   7   5   43.30    9.60
   0   7   5   24.70    7.70
  -1  -7  -5  199.48   17.50
   1  -7   5  218.58    8.30
  -1  -7  -5  188.88   20.60
   1   7   5  214.48   20.00
   1   7   5  193.78   19.90
  -2  -7  -5   99.79   13.90
   2  -7   5   92.19    9.40
   2  -7   5  103.79   10.00
  -2  -7  -5  106.49   13.80
  -2   7  -5  115.09    6.10
   2   7   5  112.79   16.10
  -2   7  -5  110.19    5.80
   2   7   5   88.79   14.60
  -3  -7  -5   64.89   13.50
   3  -7   5   93.99   10.50
  -3  -7  -5   78.49   13.80
   3  -7   5   87.79   10.40
  -3   7  -5   93.99   11.50
   3   7   5  111.29   20.50
   3   7   5   83.39   16.30
  -3   7  -5   95.29   12.50
   4  -7   5   15.40   10.90
   4  -7   5   33.50   10.20
  -4  -7  -5   21.70   17.30
  -4   7  -5   27.60    9.70
   4   7   5   23.40   17.20
  -4   7  -5   36.00    9.70
   4   7   5   48.10   16.60
   5  -7   5   43.20   15.10
  -5  -7  -5   59.69   22.90
   5  -7   5   46.40   16.30
  -5  -7  -5   75.39   24.00
  -5   7  -5   64.19   14.20
   5   7   5   57.99   22.20
  -5   7  -5   47.10   14.10
   5   7   5   88.59   26.90
   6  -8  -5   33.10   19.90
  -6  -8   5   48.80   15.90
   6  -8  -5   50.19   18.40
   6   8  -5   46.40   15.40
  -6   8   5   39.80   16.00
  -6   8   5   25.90   18.50
   5  -8  -5   -2.00   15.50
   5  -8  -5    9.30   17.00
   5   8  -5    0.40    9.50
  -5   8   5   26.00   16.20
  -5   8   5   -7.30   14.50
   5   8  -5    7.20   10.20
  -4  -8   5   69.59   11.10
   4  -8  -5   69.29   15.80
   4   8  -5   90.89   10.60
  -4   8   5   98.79   16.40
  -4   8   5   66.49   14.60
  -3  -8   5   21.10    6.30
   3  -8  -5   24.60   12.30
   3   8  -5   19.00    5.70
  -3   8   5    5.00   10.60
   2  -8  -5   62.09   11.10
   2  -8  -5   66.49   11.40
  -2  -8   5   67.39    7.00
  -2   8   5   63.39   10.70
  -2   8   5  130.09   17.00
   1  -8  -5   16.10   10.30
   1  -8  -5   40.90   11.40
  -1   8   5   24.10    8.00
   0  -8  -5   10.70   10.50
   0  -8  -5   20.70   10.40
   0   8   5    2.30    9.00
  -1  -8  -5  254.37   22.70
  -1  -8  -5  207.58   22.20
   1   8   5  204.48   18.20
  -2  -8  -5   74.19   14.80
   2  -8   5   75.69    8.60
   2  -8   5   82.79    8.30
  -2  -8  -5   75.99   16.20
   2   8   5   85.19   13.30
   2   8   5   85.49   15.60
  -3  -8  -5  203.38   22.50
   3  -8   5  209.18   15.90
   3  -8   5  171.48   14.80
  -3   8  -5  227.98   12.60
   3   8   5  209.58   23.00
  -4  -8  -5  -32.30   17.00
  -4  -8  -5  -11.10   12.70
   4  -8   5    8.00    9.40
   4  -8   5    0.90   10.10
   4   8   5   27.60   15.90
  -4   8  -5    2.50    8.60
  -4   8  -5    2.50    8.30
   5  -8   5  116.69   16.30
   5  -8   5   83.39   17.30
  -5  -8  -5   60.59   19.20
   5   8   5  138.19   31.50
  -5   8  -5   96.19   15.20
   5   8   5   88.79   26.30
  -5   8  -5   96.29   15.30
  -6  -9   5   47.80   16.00
  -6  -9   5   43.80   16.60
   6  -9  -5   41.30   18.00
   6  -9  -5   63.19   24.80
   6   9  -5   27.50   17.00
   6   9  -5   39.60   18.60
  -6   9   5    3.90   25.00
  -6   9   5   36.10   21.10
  -5  -9   5   18.60   10.50
   5  -9  -5  -21.20   15.40
   5  -9  -5   29.60   18.70
  -5  -9   5   44.30   13.80
   5   9  -5   18.60   11.10
   5   9  -5   20.40   12.10
  -5   9   5   14.10   12.60
  -5   9   5   37.50   18.80
   4  -9  -5   68.69   17.00
  -4  -9   5   89.99   11.50
  -4  -9   5   84.79   11.10
   4  -9  -5   97.09   17.80
  -4   9   5   86.49   15.40
   4   9  -5   72.59   10.40
  -4   9   5   84.09   20.00
   3  -9  -5   18.50   12.60
  -3  -9   5   16.50    6.40
  -3   9   5   22.00    9.80
   3   9  -5   14.60    6.00
   3   9  -5   12.80    5.30
  -2  -9   5   18.60    3.80
   2  -9  -5   27.10    9.70
  -2  -9   5   18.90    3.80
  -2   9   5   14.40    8.70
  -2   9   5   17.00   11.30
  -1   9   5  161.28   16.00
   0  -9  -5   13.80    8.20
   0   9   5    2.30    7.50
   2  -9   5   66.99    7.60
   2  -9   5   75.09    7.30
   2   9   5   87.99   16.40
   2   9   5   42.20   12.20
   3  -9   5   -3.60    6.60
  -3  -9  -5   11.50   16.30
  -3  -9  -5   -2.10   14.50
   3  -9   5    3.80    6.90
  -3   9  -5   -0.60    3.90
  -3   9  -5   -0.90    3.90
   3   9   5  -18.30   14.50
   4  -9   5   10.20    9.60
  -4  -9  -5  -33.70   19.50
   4  -9   5    4.20   10.10
  -4  -9  -5   -1.70   19.20
  -4   9  -5   12.80    8.60
  -4   9  -5  -11.80    7.90
   4   9   5  -13.00   14.00
   4   9   5   12.30   20.50
   6 -10  -5    5.00   22.10
   6 -10  -5   -4.70   19.00
  -6 -10   5   22.00   14.60
  -6 -10   5   41.80   17.70
  -6  10   5   20.00   23.70
   6  10  -5   22.40   20.30
   6  10  -5    6.50   16.90
  -6  10   5  -11.20   27.10
  -5 -10   5   48.30   13.20
   5 -10  -5   65.79   16.30
   5 -10  -5   30.10   20.70
  -5 -10   5   46.30   11.60
  -5  10   5   28.10   19.10
  -5  10   5   45.90   19.10
   5  10  -5   34.40   12.60
   5  10  -5   11.40   12.30
   4 -10  -5   46.70   30.80
  -4 -10   5   21.70    8.70
  -4 -10   5   30.10    9.70
   4 -10  -5   31.50   16.80
   4  10  -5   38.50    9.20
   4  10  -5   53.99    9.80
  -4  10   5   77.49   14.70
  -4  10   5    3.40   16.50
  -3 -10   5  255.37   15.20
   3 -10  -5  301.57   27.70
  -3 -10   5  243.08   14.60
   3 -10  -5  234.68   22.10
  -3  10   5  192.68   21.40
   3  10  -5  238.48   12.10
   3  10  -5  253.77   11.90
  -2 -10   5   20.80    3.60
   2 -10  -5   41.30   13.70
   2 -10  -5   24.00   10.50
  -2 -10   5   23.60    3.80
  -2  10   5   41.90   11.00
   1 -10  -5   10.30   12.20
  -1  10   5   -6.80   10.80
   0 -10  -5   41.60   13.50
   0  10   5    7.90   11.70
  -1 -10  -5   -6.60   12.60
   1  10   5   -3.00   12.60
  -2 -10  -5    4.00   14.20
   2 -10   5    1.40    3.00
  -2 -10  -5  -22.90   15.30
   2  10   5   14.60   14.50
   2  10   5    1.30   15.70
   3 -10   5   30.80    7.70
  -3 -10  -5   26.90   13.60
   3 -10   5   26.00    7.90
  -3 -10  -5   42.70   19.60
   3  10   5   12.20   17.00
   3  10   5   15.00   23.40
  -4 -10  -5   25.80   20.30
   4 -10   5    4.10   10.30
   4 -10   5   -0.20   10.80
  -4 -10  -5   38.30   23.20
  -4  10  -5   25.10    7.50
   4  10   5   18.50   24.00
  -4  10  -5   13.60    8.30
   4  10   5   21.20   16.50
   5 -11  -5   11.40   19.80
   5 -11  -5    1.40   22.80
  -5 -11   5   38.20   12.40
  -5 -11   5   17.00   14.00
   5  11  -5    5.30   11.70
  -5  11   5   42.10   16.80
  -5  11   5   14.90   18.10
   5  11  -5   -0.90   12.80
   4 -11  -5  136.59   22.30
  -4 -11   5  122.39   16.10
   4 -11  -5  143.99   20.20
  -4 -11   5  144.59   18.30
   4  11  -5  105.59   11.70
   4  11  -5  112.79   15.10
  -4  11   5  134.59   22.50
  -4  11   5  117.49   19.80
   3 -11  -5   64.89   30.90
  -3 -11   5   45.60    7.50
   3 -11  -5   43.70   13.20
  -3 -11   5   36.00    7.50
  -3  11   5   22.90   14.80
   3  11  -5   37.80    4.70
   3  11  -5   51.39    6.70
   2 -11  -5  291.27   28.00
  -2 -11   5  258.57    9.50
   2 -11  -5  273.07   26.70
  -2 -11   5  239.08    9.40
  -2  11   5  243.58   25.50
   1 -11  -5   51.89   12.30
   1 -11  -5   25.90   11.10
   0 -11  -5   21.20   15.20
   0 -11  -5   -7.00    9.30
   0  11   5   -9.90   10.70
   0  11   5  -16.80   16.60
  -1 -11  -5   -4.90   14.60
  -1 -11  -5   11.50   14.40
   1  11   5   17.00   15.90
   1  11   5    6.40   14.30
  -2 -11  -5   53.49   18.20
  -2 -11  -5   56.29   14.90
   2  11   5   36.70   17.10
   2  11   5   82.59   18.90
   3 -11   5   -7.90    6.40
  -3 -11  -5   -8.80   20.00
  -3 -11  -5   -2.40   17.90
   3 -11   5  -14.20    6.50
   3  11   5   20.60   20.90
   3  11   5    9.70   18.00
   4 -11   5   11.60   10.50
  -4 -11  -5   17.00   25.80
  -4 -11  -5   -7.20   16.80
   4 -11   5    0.60   11.50
   4  11   5   21.20   26.60
   4  11   5    2.20   17.40
  -4  11  -5   -3.10    5.00
  -5 -12   5   57.89   14.40
   5 -12  -5   86.29   26.30
   5 -12  -5   38.30   23.80
  -5 -12   5   54.89   15.60
   5  12  -5   53.09   13.90
  -5  12   5   64.69   19.90
   5  12  -5   46.80   14.90
  -5  12   5   69.89   22.40
   4 -12  -5  -14.90   14.50
  -4 -12   5  -11.80    8.40
  -4 -12   5   -9.70    9.50
   4  12  -5    2.10    8.30
   4  12  -5   -4.70    8.60
  -4  12   5    1.60   17.30
  -4  12   5    2.90   18.80
   3 -12  -5    1.70   12.50
  -3 -12   5    2.60    6.30
  -3 -12   5    1.40    6.30
   3 -12  -5  -18.90   17.50
  -3  12   5   -6.70   15.40
  -2 -12   5    3.40    2.10
   2 -12  -5  -11.60   11.60
   2 -12  -5   -4.90   14.50
  -2  12   5    6.70   14.10
   1 -12  -5  269.87   36.90
   1 -12  -5  265.17   24.20
  -1  12   5  339.47   29.20
   0 -12  -5  555.84   37.60
   0 -12  -5  485.45   34.60
   0  12   5  426.26   32.70
  -1 -12  -5   -2.40   11.50
  -1 -12  -5   32.40   32.10
   1  12   5  -27.30   16.30
   1  12   5   16.10   15.10
  -2 -12  -5    1.90   18.00
  -2 -12  -5  -12.90   13.50
   2  12   5   11.10   17.40
   2  12   5    1.50   18.50
   3 -12   5   31.40    7.10
  -3 -12  -5   16.20   21.20
  -3 -12  -5   18.30   22.60
   3  12   5   55.99   23.30
   3  12   5   35.00   17.10
   4 -13  -5   -4.70   16.00
   4 -13  -5    0.80   18.70
  -4 -13   5   19.70    9.70
  -4 -13   5   14.10   10.70
   4  13  -5   18.70    8.80
  -4  13   5    4.20   14.80
   4  13  -5    4.10    8.60
  -4  13   5   12.90   20.90
   3 -13  -5   31.00   20.60
  -3 -13   5   36.20    7.50
   3 -13  -5   27.50   14.50
  -3  13   5   63.89   16.00
   2 -13  -5   23.20   14.50
   2 -13  -5   27.10   17.70
  -2  13   5   15.10   15.80
  -2  13   5   -1.50   15.20
   1 -13  -5    6.80   17.70
   1 -13  -5  -15.60   15.80
  -1  13   5  -27.20   19.80
  -1  13   5   -8.00   14.90
   0 -13  -5  207.18   26.80
   0 -13  -5  150.28   19.20
   0  13   5  128.29   20.40
  -1 -13  -5  213.28   23.50
   1  13   5  244.68   27.50
   1  13   5  236.48   30.90
  -2 -13  -5  -11.40   19.30
  -2 -13  -5    9.70   21.30
   2  13   5   -3.50   20.80
   2  13   5   19.20   15.00
   3 -13   5  171.58   11.20
  -3 -13  -5  207.08   30.60
  -3 -13  -5  180.38   28.60
   3  13   5  218.78   30.80
   3  13   5  160.28   24.00
  -4 -14   5   -7.90   10.00
   4 -14  -5   17.30   19.20
  -4 -14   5   -6.20   11.10
   4 -14  -5   20.00   23.30
   4  14  -5   -0.60    7.60
  -4  14   5    2.10   22.60
  -4  14   5  -14.50   17.80
   3 -14  -5   25.10   21.90
   3 -14  -5   15.50   22.60
  -3 -14   5   29.70    7.50
  -3  14   5   17.90   18.90
   2 -14  -5   24.80   19.60
   2 -14  -5   -7.50   20.90
  -2  14   5    3.60   18.20
   1 -14  -5   -6.80   18.80
   1 -14  -5   10.40   18.50
  -1  14   5   -6.90   16.50
   0 -14  -5  -40.40   19.30
   0 -14  -5   24.10   19.40
   0  14   5  -10.50   17.20
  -1 -14  -5  -10.10   19.90
  -1 -14  -5   14.20   22.40
   1  14   5   -4.60   21.10
   1  14   5   -4.50   19.50
  -2 -14  -5   -7.20   20.50
  -2 -14  -5   14.20   24.00
   2  14   5   10.70   22.40
   2  14   5  -12.70   27.20
  -3 -15   5   21.70    8.00
   3 -15  -5   45.20   19.60
  -3 -15   5   23.10    7.80
  -3  15   5  -26.50   21.60
   2 -15  -5  -38.10   21.10
   2 -15  -5  -20.30   21.00
  -2  15   5   58.29   21.50
   1 -15  -5   15.50   22.50
   1 -15  -5   31.80   20.90
  -1  15   5   -8.00   19.40
   0 -15  -5   28.00   18.50
   0  15   5   43.80   16.90
   0  15   5    9.10   18.00
  -1 -15  -5   18.90   21.30
  -1 -15  -5   28.70   26.40
   1  15   5  -24.30   25.20
   1  15   5   -3.80   16.30
   7   0  -6  129.19   24.60
  -7   0   6  113.39   21.70
   7   0  -6  125.89   24.90
  -7   0   6  125.29   24.30
   6   0  -6   -5.40   15.10
   6   0  -6   -1.00   14.50
  -6   0   6   12.50   11.80
  -6   0   6    1.60   16.10
   5   0  -6    9.90   11.40
  -5   0   6   -6.50   11.70
   5   0  -6    1.30   11.00
  -5   0   6  -14.20   10.70
   4   0  -6   55.49   11.30
  -4   0   6   51.49   11.90
   4   0  -6   51.59   11.40
   3   0  -6   -3.00    7.50
  -3   0   6    9.30    7.90
  -3   0   6   -3.60    7.50
   2   0  -6  123.69   13.00
  -2   0   6  118.89   13.40
  -2   0   6  111.49   13.30
  -1   0   6   35.10    7.60
  -1   0   6   32.50    8.00
   1   0  -6   22.80    7.00
   0   0   6  323.97   17.80
   0   0  -6  286.37   18.60
   0   0   6  303.37   17.60
   0   0  -6  317.57   17.90
   1   0   6  615.44   26.50
   1   0   6  623.94   26.90
  -1   0  -6  664.03   29.80
   2   0   6 1994.10   62.19
   3   0   6   77.39   13.20
  -3   0  -6   78.59   13.00
   4   0   6   53.39   14.30
   4   0   6   29.70   14.30
  -4   0  -6   67.59   15.20
  -4   0  -6   38.40   14.10
  -5   0  -6   30.80   17.70
  -5   0  -6   -2.00   18.10
   5   0   6    0.50   17.00
   5   0   6   26.60   18.30
  -7  -1   6  -10.60   19.50
   7  -1  -6   23.90   22.40
  -7  -1   6   37.60   22.80
  -7   1   6   11.10   20.90
  -7   1   6   40.50   22.70
   7   1  -6   14.90   19.20
   7   1  -6    1.40   20.00
   6  -1  -6   -2.60   15.30
  -6  -1   6   -5.20   10.50
   6  -1  -6    1.70   16.40
  -6  -1   6  -18.40   13.70
   6   1  -6   -0.60   14.80
   6   1  -6   -0.90   14.20
  -6   1   6   11.30   17.40
  -6   1   6   16.70   14.50
   5  -1  -6   27.40   13.00
  -5  -1   6  -18.30   10.60
   5  -1  -6   12.90   12.40
  -5  -1   6   -0.70   11.80
  -5   1   6    2.60   11.40
   5   1  -6   -3.20   10.60
   5   1  -6   12.80   11.30
  -5   1   6    7.30   13.40
   4  -1  -6  729.83   34.20
  -4  -1   6  705.03   32.00
  -4  -1   6  785.52   34.00
   4  -1  -6  758.32   33.80
   4   1  -6  735.83   32.50
  -4   1   6  736.83   33.60
   3  -1  -6  192.08   17.90
  -3  -1   6  196.18   16.20
  -3  -1   6  194.88   16.50
  -3   1   6  174.78   17.00
  -3   1   6  190.48   17.60
   2  -1  -6   19.50    7.70
  -2  -1   6   24.90    7.20
  -2  -1   6   13.10    7.40
   2  -1  -6    6.90    7.20
  -2   1   6    9.90    7.10
  -2   1   6   11.90    7.30
   2   1  -6   14.20    7.30
   2   1  -6   18.70    6.80
  -1  -1   6  124.29   11.60
   1  -1  -6  110.39   13.20
   1  -1  -6  142.99   13.80
  -1  -1   6  127.29   12.40
  -1   1   6  138.29   14.60
  -1   1   6  120.69   13.50
   1   1  -6  117.29   12.40
   1   1  -6  125.39   11.50
   0  -1   6  133.89   13.00
   0  -1  -6   94.49   12.60
   0  -1  -6  107.39   13.70
   0  -1   6  128.69   12.00
   0   1   6  112.09   14.60
   0   1   6  103.39   13.00
   0   1  -6   96.69   11.70
   0   1  -6   97.69   11.80
   1  -1   6   92.59   12.00
  -1  -1  -6   73.49   10.60
   1  -1   6   78.69   10.50
  -1   1  -6   81.69   11.20
   1   1   6  113.89   14.60
   1   1   6   87.69   11.20
  -1   1  -6   75.99    9.30
   2  -1   6  455.15   29.10
  -2  -1  -6  386.16   23.60
   2  -1   6  387.16   26.20
   2   1   6  372.26   28.00
   2   1   6  425.76   24.20
  -2   1  -6  438.26   23.30
  -3  -1  -6   -6.20   10.40
   3  -1   6    0.30    9.30
   3   1   6   -6.00    9.60
   3   1   6    1.80   10.90
   4  -1   6   -2.70   11.80
  -4  -1  -6   11.60   13.90
  -4  -1  -6  -16.70   12.50
   4  -1   6    0.10   11.60
  -4   1  -6   16.70   12.60
   4   1   6   21.50   14.10
  -4   1  -6   -1.30   11.80
   4   1   6   10.20   13.40
  -5  -1  -6   15.00   17.40
  -5  -1  -6    0.60   17.50
   5  -1   6  -10.00   15.90
   5  -1   6    7.30   16.00
   5   1   6  -14.00   16.80
  -5   1  -6  -21.50   16.20
   5   1   6   23.50   18.40
  -5   1  -6   24.90   17.00
  -7  -2   6   -3.30   21.20
   7  -2  -6  -45.90   21.20
  -7  -2   6   11.10   20.90
  -7   2   6  -41.30   21.70
  -7   2   6   41.80   24.70
   7   2  -6   10.60   19.40
   7   2  -6   29.60   21.50
  -6  -2   6    9.10   13.10
  -6  -2   6   18.80   15.80
   6  -2  -6  -16.60   15.70
   6  -2  -6   21.00   17.20
   6   2  -6   13.90   13.50
  -6   2   6   10.90   17.20
   6   2  -6    5.20   14.70
  -6   2   6    4.70   15.70
  -5  -2   6   19.60   11.70
  -5  -2   6    5.00   11.10
   5  -2  -6   19.10   13.50
   5  -2  -6   11.50   10.20
   5   2  -6   -0.70   11.30
   5   2  -6   15.00   11.50
  -5   2   6   22.00   14.20
  -5   2   6   18.60   10.30
   4  -2  -6   47.60   12.60
  -4  -2   6   68.39   11.90
  -4  -2   6   58.79   11.20
   4  -2  -6   54.89   13.30
  -4   2   6   38.90   11.90
   4   2  -6   74.69   12.00
  -3  -2   6  264.27   18.20
   3  -2  -6  257.97   20.10
  -3  -2   6  214.68   17.00
  -3   2   6  229.38   19.70
  -3   2   6  221.88   18.80
   3   2  -6  225.38   17.20
  -2  -2   6   36.20    7.30
   2  -2  -6   34.20    8.90
  -2  -2   6   31.80    7.10
   2  -2  -6   24.30    9.00
  -2   2   6   16.60    6.60
  -2   2   6   19.10    6.80
   2   2  -6   14.30    6.50
   2   2  -6   18.00    7.10
  -1  -2   6  198.58   13.50
  -1  -2   6  197.18   13.30
   1  -2  -6  210.68   16.20
   1  -2  -6  194.68   16.60
  -1   2   6  220.98   16.50
   1   2  -6  192.38   13.10
   1   2  -6  193.08   12.70
  -1   2   6  199.88   16.20
   0  -2   6   28.10    6.50
   0  -2   6   38.10    7.10
   0  -2  -6   19.50    8.50
   0  -2  -6   31.80    8.80
   0   2  -6   39.10    6.60
   0   2   6   18.90    8.10
   0   2  -6   34.90    6.50
   0   2   6   44.90    9.40
   1  -2   6   -9.00    6.20
   1  -2   6   -1.70    6.00
  -1  -2  -6   -3.00    7.40
   1   2   6    2.20    7.70
  -1   2  -6   -0.40    5.90
  -1   2  -6   -3.30    5.60
   1   2   6    7.00    8.00
  -2  -2  -6   -4.50    9.00
  -2  -2  -6  -12.50    8.50
   2  -2   6   14.20    8.50
   2  -2   6  -15.10    6.80
  -2   2  -6   -4.10    6.80
  -2   2  -6    7.90    7.00
   2   2   6   -1.00    8.10
   2   2   6  -15.80    9.90
  -3  -2  -6  408.86   25.70
   3  -2   6  390.06   24.20
  -3  -2  -6  374.96   26.30
   3   2   6  317.47   26.10
  -3   2  -6  357.46   23.20
   3   2   6  335.57   26.50
   4  -2   6    9.80   11.70
  -4  -2  -6  -19.50   13.90
   4  -2   6   -9.20   12.60
  -4  -2  -6   -9.70   13.50
  -4   2  -6   -1.10   12.40
  -4   2  -6   28.50   22.30
   4   2   6    6.10   14.20
   4   2   6  -27.90   13.90
   5  -2   6   60.09   18.60
  -5  -2  -6  101.89   21.00
   5  -2   6   71.09   18.70
  -5  -2  -6   39.20   21.10
   5   2   6   75.69   21.30
   5   2   6   85.79   21.60
  -5   2  -6   77.89   21.60
  -5   2  -6   60.89   18.70
  -7  -3   6  -11.20   19.40
   7  -3  -6  -13.50   18.20
  -7  -3   6  -11.80   19.90
   7  -3  -6  -12.80   22.00
   7   3  -6    0.40   20.90
  -7   3   6    1.90   22.50
  -7   3   6   -9.40   19.00
   7   3  -6    5.20   20.00
  -6  -3   6   14.70   13.30
  -6  -3   6   -1.90   14.60
   6  -3  -6   33.60   18.40
   6   3  -6   21.50   14.80
   6   3  -6   -8.20   14.30
  -6   3   6    2.40   18.30
  -6   3   6   11.30   17.00
   5  -3  -6   -1.10   13.20
   5  -3  -6  -20.80   12.60
  -5  -3   6   16.30   11.30
  -5  -3   6    8.50   10.40
   5   3  -6   -3.00   10.80
  -5   3   6   15.30   11.40
  -5   3   6   -7.00    9.40
   4  -3  -6   52.79   12.50
  -4  -3   6   27.70    9.80
  -4  -3   6   34.50    9.90
   4  -3  -6   34.90   12.90
  -4   3   6   49.10   14.60
  -4   3   6   39.70   11.60
   3  -3  -6  226.18   20.00
  -3  -3   6  248.88   18.10
  -3  -3   6  250.47   16.90
   3   3  -6  191.68   19.00
  -3   3   6  238.68   19.90
   3   3  -6  256.37   16.90
  -3   3   6  245.88   20.40
  -2  -3   6   73.39    8.60
  -2  -3   6   68.39    8.70
   2  -3  -6   67.19   11.20
   2  -3  -6   70.89   11.10
  -2   3   6   60.89   11.10
   2   3  -6   61.99    8.00
  -2   3   6   75.59   11.50
   2   3  -6   67.99    8.20
  -1  -3   6    2.90    5.20
   1  -3  -6    2.40    7.80
   1  -3  -6  -18.30    7.00
  -1  -3   6    3.20    5.00
  -1   3   6    8.70    8.10
   1   3  -6   10.80    5.00
   1   3  -6   -2.20    4.40
  -1   3   6   -7.00    6.80
   0  -3   6   78.19    8.30
   0  -3   6   77.89   10.00
   0  -3  -6   67.99    9.90
   0  -3  -6   70.39   12.70
   0   3   6   67.49   11.30
   0   3  -6   81.89    9.30
   0   3   6   42.90    9.80
   0   3  -6   86.99    9.30
   1  -3   6   13.90    6.10
   1  -3   6    9.70    6.10
  -1  -3  -6    7.60    8.70
  -1   3  -6    6.50    5.20
  -1   3  -6   10.80    5.80
   1   3   6   13.60    8.40
   1   3   6   -0.70    7.70
   2  -3   6  185.28   16.40
  -2  -3  -6  181.58   20.30
  -2  -3  -6  211.18   17.80
   2   3   6  150.68   20.70
  -2   3  -6  206.48   15.30
   2   3   6  226.58   20.50
  -2   3  -6  208.38   15.00
   3  -3   6   69.29   11.20
  -3  -3  -6   67.39   14.40
  -3  -3  -6   64.09   14.30
   3  -3   6   53.49   12.40
  -3   3  -6   55.79   11.00
   3   3   6   54.09   14.60
   3   3   6   82.59   15.20
  -3   3  -6   43.20   10.40
   4  -3   6  181.18   22.70
   4  -3   6  193.58   23.50
  -4  -3  -6  213.98   28.10
  -4  -3  -6  208.48   22.30
  -4   3  -6  228.78   23.10
   4   3   6  191.08   23.00
  -4   3  -6  191.98   21.10
   5  -3   6   79.49   19.20
  -5  -3  -6   93.89   21.70
  -5  -3  -6   82.39   22.30
   5  -3   6   73.59   18.30
   5   3   6   69.79   23.00
  -5   3  -6   56.39   18.80
   5   3   6   91.19   23.00
  -5   3  -6   73.79   17.70
   6  -4  -6  114.69   21.70
  -6  -4   6  152.58   19.90
  -6  -4   6  103.89   17.90
   6   4  -6  201.78   25.40
  -6   4   6  164.78   24.90
  -6   4   6  143.49   22.40
   6   4  -6  124.19   18.50
  -5  -4   6    3.80   10.60
  -5  -4   6    9.30   11.10
   5  -4  -6  -12.80   13.50
   5  -4  -6  -14.20   13.80
   5   4  -6    6.80   11.80
  -5   4   6  -21.00   13.60
  -5   4   6  -21.30   12.20
  -4  -4   6   61.79   12.70
  -4  -4   6   69.79   12.20
   4  -4  -6   93.99   15.00
   4  -4  -6   97.39   13.70
  -4   4   6   74.59   17.90
   4   4  -6   57.69   10.70
  -4   4   6   76.09   12.60
  -3  -4   6   27.40    8.20
   3  -4  -6   38.20    9.40
  -3  -4   6   32.40    7.90
   3   4  -6   25.20    7.30
   3   4  -6   31.00    8.00
  -3   4   6   27.30   10.90
  -3   4   6   40.70   11.40
  -2  -4   6  248.98   14.50
  -2  -4   6  267.77   14.70
   2  -4  -6  250.27   20.70
   2  -4  -6  246.28   20.00
  -2   4   6  251.27   20.90
  -2   4   6  240.68   19.70
   2   4  -6  254.77   14.20
   1  -4  -6   16.80    9.10
   1  -4  -6   -2.10    8.30
  -1  -4   6   -1.70    4.70
  -1  -4   6   19.80    5.10
  -1   4   6   13.20    8.50
   1   4  -6   10.90    4.20
   1   4  -6    7.70    4.10
  -1   4   6    8.80    9.60
   0  -4  -6   20.10   10.20
   0  -4   6   48.30    6.60
   0  -4   6   45.60    6.20
   0  -4  -6   61.79   11.50
   0   4   6   59.39   11.20
   0   4   6   53.59   11.30
   0   4  -6   44.10    5.30
   0   4  -6   58.59    7.00
   1  -4   6    5.40    5.70
  -1  -4  -6   -9.50    9.70
  -1  -4  -6   10.30    9.40
   1  -4   6    6.80    5.60
  -1   4  -6    2.10    4.60
   1   4   6    4.70    9.20
   1   4   6   -3.40    9.10
  -1   4  -6   -2.10    4.30
  -2  -4  -6   58.49   13.30
   2  -4   6   50.39    9.00
  -2  -4  -6   44.50   12.30
   2  -4   6   43.10    8.50
   2   4   6   65.39   13.70
  -2   4  -6   57.09    7.90
   2   4   6   47.00   12.50
  -2   4  -6   47.50    8.00
  -3  -4  -6  -12.60   10.80
   3  -4   6    2.50    8.50
   3  -4   6   -1.40    8.80
  -3  -4  -6   -9.00   12.30
   3   4   6   14.30   12.60
  -3   4  -6   -1.70    8.10
   3   4   6   25.50   13.60
  -3   4  -6    9.30    8.30
   4  -4   6    9.80   12.00
  -4  -4  -6    5.60   15.50
   4  -4   6    3.10   10.80
  -4  -4  -6   13.20   15.30
  -4   4  -6   -2.80   10.80
   4   4   6   -0.70   16.00
  -4   4  -6    6.00   11.20
  -5  -4  -6   -8.90   20.80
   5  -4   6   29.70   17.00
  -5  -4  -6   40.80   21.30
   5  -4   6   16.30   16.40
  -5   4  -6   16.30   18.20
   5   4   6   18.10   23.70
   5   4   6   18.80   21.60
  -5   4  -6   11.10   15.70
   6  -5  -6   32.50   19.50
   6  -5  -6   22.20   21.60
  -6  -5   6   45.10   16.20
  -6  -5   6    3.70   14.40
   6   5  -6   15.10   14.50
   6   5  -6   25.30   15.10
  -6   5   6   64.09   22.60
  -5  -5   6   46.60   12.90
   5  -5  -6   70.09   17.60
  -5  -5   6   47.50   12.70
  -5   5   6   59.09   16.50
  -5   5   6   55.89   17.80
   4  -5  -6  136.29   16.30
  -4  -5   6  101.89   12.70
  -4  -5   6  158.28   18.20
   4  -5  -6  104.49   16.40
   4   5  -6   85.09   11.60
  -4   5   6   87.29   13.60
  -4   5   6  118.09   20.40
   3  -5  -6   92.69   12.90
  -3  -5   6  104.69   13.10
  -3  -5   6   98.29   13.40
  -3   5   6   79.79   13.70
   3   5  -6   85.29    9.40
  -3   5   6  116.99   15.40
   3   5  -6  117.89   12.40
   2  -5  -6   33.40   11.40
  -2  -5   6   12.40    5.40
  -2  -5   6   26.10    5.90
   2  -5  -6   16.90   10.20
   2   5  -6   20.60    5.20
  -2   5   6   20.90   10.40
   2   5  -6   20.50    5.20
  -2   5   6   21.90    8.80
   1  -5  -6  183.28   19.50
   1  -5  -6  180.58   15.80
  -1  -5   6  183.88   10.90
  -1  -5   6  182.58   10.20
   1   5  -6  166.48    7.70
   1   5  -6  165.28    7.70
  -1   5   6  166.28   18.00
  -1   5   6  139.29   16.10
   0  -5  -6  556.34   28.60
   0  -5   6  542.45   18.80
   0  -5  -6  530.85   28.90
   0  -5   6  558.34   19.20
   0   5   6  541.95   28.30
   0   5  -6  545.25   14.90
   0   5   6  533.25   28.10
   0   5  -6  541.75   14.90
   1  -5   6   22.60    5.90
  -1  -5  -6   20.30   10.90
  -1  -5  -6   22.20   10.50
  -1   5  -6   27.70    4.20
   1   5   6   21.20    8.50
   1   5   6   17.20   10.60
  -1   5  -6   25.30    4.10
  -2  -5  -6   -2.30   10.90
   2  -5   6   10.70    6.70
   2  -5   6   11.70    7.10
  -2  -5  -6   13.60   12.10
  -2   5  -6   11.10    5.30
  -2   5  -6    6.60    5.40
   2   5   6    6.00    8.60
   2   5   6   13.70    9.30
   3  -5   6    6.60    8.70
   3  -5   6   -8.60    8.40
  -3  -5  -6   12.70   14.20
  -3  -5  -6   12.10   14.00
  -3   5  -6    0.60    7.60
  -3   5  -6   10.30    7.90
   3   5   6  -11.40   12.60
   3   5   6  -18.90    9.60
   4  -5   6   23.70   13.60
  -4  -5  -6   51.19   18.10
  -4  -5  -6   69.39   18.70
   4  -5   6   41.80   13.20
  -4   5  -6   78.49   13.50
  -4   5  -6   31.40   11.60
   4   5   6   68.29   20.60
  -6  -6   6   55.89   17.70
   6  -6  -6   52.79   21.30
  -6  -6   6   46.60   15.70
   6  -6  -6   80.99   23.30
  -6   6   6   45.80   23.30
  -6   6   6   21.00   18.80
   6   6  -6   36.20   27.80
   6   6  -6   66.39   16.60
  -5  -6   6   15.70   12.80
  -5  -6   6   35.40   13.00
   5  -6  -6   40.30   16.90
   5   6  -6   34.50   12.00
   5   6  -6   23.60   11.80
  -5   6   6   40.70   17.70
  -5   6   6   30.20   15.90
   4  -6  -6   40.50   12.20
  -4  -6   6   53.89   11.20
  -4  -6   6   53.29   10.10
   4  -6  -6   65.49   13.50
   4   6  -6   67.09   10.50
  -4   6   6   48.40   15.30
  -4   6   6   37.00   14.10
  -3  -6   6   21.70    7.20
  -3  -6   6   14.90   13.20
   3  -6  -6   24.90   11.70
  -3   6   6   12.50    9.30
  -3   6   6   18.40   11.30
   3   6  -6   17.80    6.60
   3   6  -6   15.80    6.30
  -2  -6   6   78.69    9.70
   2  -6  -6   64.49   13.40
   2  -6  -6   56.99   11.10
  -2  -6   6   56.79    6.70
   2   6  -6   62.49    6.80
  -2   6   6   60.59   12.50
   2   6  -6   67.49    6.80
  -2   6   6   59.19   13.20
   1  -6  -6   -3.60    9.90
   1  -6  -6   -2.90   10.30
  -1  -6   6   10.50    3.70
  -1   6   6    1.30    9.40
  -1   6   6   -0.10   10.70
   0  -6  -6   69.49   13.80
   0  -6  -6   68.69   15.30
   0  -6   6   96.39    6.80
   0   6   6   63.39   12.80
   0   6   6   93.59   14.00
  -1  -6  -6    7.30   11.50
   1  -6   6    9.00    4.70
   1  -6   6   14.00    4.90
  -1  -6  -6   11.10    7.90
   1   6   6  -26.40    9.70
   1   6   6   33.70   12.60
   2  -6   6   26.80    7.10
  -2  -6  -6   26.30   10.30
   2  -6   6    7.80    6.80
  -2  -6  -6   13.50   10.30
   2   6   6   18.70   13.60
   2   6   6    5.20   12.70
  -2   6  -6   17.90    4.80
  -2   6  -6   12.90    4.70
  -3  -6  -6   34.40   12.90
   3  -6   6   23.20    9.40
  -3  -6  -6   18.50   14.40
   3  -6   6   23.20    8.90
  -3   6  -6   36.60    8.00
  -3   6  -6   26.50    7.60
   3   6   6    9.70   15.40
   3   6   6  -19.60   14.90
   4  -6   6   12.80   12.30
  -4  -6  -6   44.10   20.20
   4  -6   6    0.90   12.00
  -4   6  -6   20.20   11.10
   4   6   6   28.80   15.20
  -4   6  -6    6.40   10.90
   4   6   6   25.50   20.70
  -6  -7   6   95.49   18.20
   6  -7  -6  134.69   31.10
   6  -7  -6  102.59   25.20
  -6  -7   6  116.39   19.70
   6   7  -6  103.69   18.50
  -6   7   6  162.98   29.50
  -6   7   6  128.59   20.10
   6   7  -6   82.39   19.50
  -5  -7   6   10.30   11.10
   5  -7  -6   -6.50   18.10
   5  -7  -6    5.70   16.90
  -5  -7   6    3.50   12.30
   5   7  -6   -2.40   11.10
  -5   7   6    1.50   13.90
   5   7  -6    0.40   10.50
  -4  -7   6  171.58   17.10
  -4  -7   6  136.59   14.80
   4  -7  -6  114.89   16.80
  -4   7   6  127.29   18.40
   4   7  -6  144.29   16.30
   3  -7  -6   95.09   16.80
  -3  -7   6  102.39   12.40
   3  -7  -6  103.69   16.20
  -3  -7   6  107.69   13.30
  -3   7   6  103.69   17.30
   3   7  -6  106.59   10.80
  -3   7   6   93.99   13.60
   3   7  -6  105.59   11.30
   2  -7  -6   84.89   14.70
  -2  -7   6   78.19    9.30
   2  -7  -6   64.49   14.30
  -2  -7   6   73.09    8.10
  -2   7   6   98.89   15.80
  -2   7   6   55.69   11.50
   1  -7  -6  164.38   20.60
  -1  -7   6  153.38    6.30
   1  -7  -6  147.89   17.40
  -1   7   6  147.69   16.80
  -1   7   6  145.79   18.00
   0  -7  -6    2.80   11.40
   0   7   6   17.00   12.00
   0   7   6   -2.70    7.50
   1  -7   6   12.60    3.90
  -1  -7  -6    1.90   12.30
  -1  -7  -6   45.80   12.90
   1  -7   6   14.40    3.90
   1   7   6   32.20   10.70
   1   7   6   -3.00   11.70
  -2  -7  -6   12.50   14.10
  -2  -7  -6    3.30   13.20
   2  -7   6    5.00    5.70
   2  -7   6   11.20    5.90
   2   7   6   -0.80   13.50
   2   7   6   -3.40   13.50
  -3  -7  -6   -7.40   16.10
   3  -7   6    1.70    8.40
   3  -7   6   12.80    8.20
   3   7   6    1.20   16.90
  -3   7  -6   10.00    6.50
   3   7   6  -10.20   15.50
  -3   7  -6    7.20    6.10
   4  -7   6    3.80   10.70
  -4  -7  -6   29.30   21.10
   4  -7   6   19.80   12.60
   4   7   6   33.80   22.40
  -4   7  -6    2.40   10.00
   4   7   6    9.20   21.30
  -4   7  -6   24.00   10.40
   6  -8  -6   46.40   20.30
  -6  -8   6   19.00   16.20
   6  -8  -6  -11.60   23.30
   6   8  -6   17.40   16.00
  -6   8   6    9.80   27.30
   6   8  -6   53.49   17.80
  -6   8   6   27.90   22.10
   5  -8  -6   21.40   18.70
   5  -8  -6   23.20   15.50
  -5  -8   6   -3.00   10.80
  -5   8   6   -1.30   19.00
   5   8  -6  -15.20   11.00
  -5   8   6    2.20   12.60
   5   8  -6   10.10   11.60
  -4  -8   6    3.80    9.00
   4  -8  -6   36.70   13.10
   4   8  -6    5.20    8.10
   4   8  -6   30.30    8.90
  -4   8   6   13.50   15.20
   3  -8  -6   40.80   15.50
  -3  -8   6   43.40    7.50
   3   8  -6   43.60    5.80
   3   8  -6   42.40    6.20
  -3   8   6   33.60   15.10
  -3   8   6   60.59   12.40
   2  -8  -6   -9.80   12.00
  -2  -8   6    0.30    3.40
  -2   8   6   -5.80    8.30
  -2   8   6   29.90   14.10
   1  -8  -6   86.29   15.90
  -1   8   6   98.09   15.50
  -1   8   6   81.89   17.50
   0  -8  -6   30.30   13.90
   0  -8  -6   24.80   14.90
   0   8   6   19.80   12.40
   0   8   6   18.80   11.30
  -1  -8  -6   89.29   16.00
  -1  -8  -6   66.89   15.60
   1   8   6  103.59   18.60
   1   8   6   49.60   14.90
  -2  -8  -6   33.10   16.00
   2  -8   6   47.20    6.20
   2  -8   6   42.50    6.40
   2   8   6   71.09   17.30
   2   8   6   41.40   15.90
  -3  -8  -6   -3.40   16.50
   3  -8   6   18.20    8.00
  -3  -8  -6    4.30   17.70
   3  -8   6   22.10    8.40
   3   8   6   -5.20   18.80
  -3   8  -6   14.40    4.60
   3   8   6   10.20   14.00
   4  -8   6  -12.00   10.90
  -4  -8  -6  -17.00   19.90
  -4  -8  -6   -3.90   22.50
   4  -8   6   -6.90   11.70
  -4   8  -6   14.20    9.00
   4   8   6  -17.80   23.10
  -4   8  -6   -5.70    9.20
   4   8   6    1.70   21.70
  -5  -9   6    7.30   12.20
   5  -9  -6   19.80   20.40
   5  -9  -6   27.50   22.00
  -5   9   6   -2.20   20.80
   5   9  -6    0.70   11.30
  -5   9   6  -17.90   17.30
   5   9  -6  -19.70   11.70
  -4  -9   6   15.80    9.00
   4  -9  -6  -22.30   16.90
   4  -9  -6    4.10   11.90
  -4   9   6   15.70   23.00
  -4   9   6   11.10   15.60
   4   9  -6    1.80    7.80
   4   9  -6    6.40    8.10
   3  -9  -6   18.80   14.80
  -3  -9   6   25.00    6.80
  -3  -9   6   21.00    6.50
  -3   9   6   44.90   17.00
  -3   9   6   39.50   12.90
   3   9  -6   34.00    4.10
   2  -9  -6   -1.70   13.90
  -2  -9   6    3.70    2.80
  -2   9   6   -8.40   12.10
  -2   9   6    4.50   14.40
  -1   9   6   82.09   15.30
  -1   9   6   51.29   14.10
   0  -9  -6  669.93   34.80
   0  -9  -6  703.33   37.30
   0   9   6  724.33   38.80
   0   9   6  724.13   34.60
  -1  -9  -6   24.10   14.80
   1   9   6   -9.10   13.30
   1   9   6   39.30   28.40
   2  -9   6  269.67   10.80
  -2  -9  -6  258.77   25.00
   2  -9   6  249.38   11.00
   2   9   6  286.07   26.00
   2   9   6  265.97   30.90
  -3  -9  -6    0.90   14.60
   3  -9   6   -8.50    7.30
  -3  -9  -6   18.10   20.40
   3   9   6   19.20   21.80
   3   9   6  -21.90   20.10
  -5 -10   6   18.90   13.10
   5 -10  -6   26.60   18.50
  -5 -10   6    5.30   11.20
   5 -10  -6   12.00   21.80
   5  10  -6    5.90   12.10
   5  10  -6    0.90   11.70
  -5  10   6   40.50   21.80
  -5  10   6   29.50   17.80
   4 -10  -6    4.00   14.10
  -4 -10   6   -3.70    8.20
  -4 -10   6   -4.50    9.20
   4 -10  -6   -9.50   16.60
  -4  10   6   17.10   16.50
   4  10  -6  -10.30    7.20
   4  10  -6   -1.50    7.40
  -4  10   6   14.40   13.30
   3 -10  -6   40.80   13.70
   3 -10  -6   71.99   19.40
  -3 -10   6   33.50    6.90
  -3 -10   6   46.10    6.90
  -3  10   6  107.89   20.50
  -3  10   6   44.90   13.60
   2 -10  -6   52.69   14.20
   2 -10  -6   88.89   15.60
  -2  10   6  102.49   20.00
  -2  10   6   90.59   17.80
   1 -10  -6  372.66   30.10
  -1  10   6  397.76   31.90
  -1  10   6  313.67   25.40
   0 -10  -6   73.99   17.80
   0  10   6  102.09   18.10
   0  10   6  116.89   18.50
  -1 -10  -6    1.90   15.20
  -1 -10  -6  -11.00   16.10
   1  10   6   -8.40   11.40
  -2 -10  -6   32.80   14.10
  -2 -10  -6   34.10   19.60
   2  10   6   68.29   17.50
   2  10   6   23.10   18.60
  -3 -10  -6   25.90   21.80
  -3 -10  -6   47.00   26.90
   3 -10   6   41.20    8.10
   3  10   6   36.00   21.30
   3  10   6   15.90   22.70
  -5 -11   6   -9.20   13.30
   5 -11  -6   15.00   25.10
   5 -11  -6   23.60   25.60
  -5 -11   6   -2.30   12.30
   5  11  -6    0.40   11.30
  -5  11   6    8.10   19.50
  -5  11   6   -3.50   22.20
   5  11  -6   -1.90   12.30
  -4 -11   6   84.19   11.40
  -4 -11   6   73.99   11.40
   4 -11  -6   87.59   24.80
   4 -11  -6  101.59   19.60
  -4  11   6  100.79   22.80
   4  11  -6  106.39   13.10
   4  11  -6   73.89    8.70
  -4  11   6  101.79   20.70
   3 -11  -6   14.20   22.80
   3 -11  -6    0.90   12.90
  -3 -11   6   11.50    5.70
  -3  11   6   -0.90   15.00
  -3  11   6    3.20   19.70
   2 -11  -6    7.60   16.50
   2 -11  -6   37.80   14.30
  -2  11   6   19.30   16.00
  -2  11   6   -3.10   14.60
   1 -11  -6   64.69   20.30
   1 -11  -6   47.10   17.40
  -1  11   6   71.09   17.90
  -1  11   6   76.79   21.80
   0 -11  -6   67.79   21.00
   0 -11  -6   18.60   12.80
   0  11   6   43.30   19.90
   0  11   6   26.90   13.10
  -1 -11  -6    8.60   17.90
  -1 -11  -6   19.20   13.60
   1  11   6  -19.40   14.80
   1  11   6   -1.80   16.60
  -2 -11  -6    9.60   14.20
   2  11   6    7.20   19.40
   2  11   6   -2.50   20.80
  -3 -11  -6   74.99   23.70
  -3 -11  -6   51.69   26.10
   3 -11   6   65.79    7.40
   3  11   6   71.39   25.90
   3  11   6   33.80   23.50
  -4 -12   6   -5.20    9.30
   4 -12  -6   64.59   26.40
   4 -12  -6    0.90   16.60
  -4 -12   6   30.50    9.30
  -4  12   6   27.50   22.10
  -4  12   6   58.99   22.60
   3 -12  -6   -6.60   21.20
  -3 -12   6    3.40    5.40
   3 -12  -6   -3.00   14.10
  -3  12   6   -7.00   18.30
   2 -12  -6  137.89   22.80
   2 -12  -6  156.78   21.70
  -2  12   6  120.99   22.00
  -2  12   6  135.19   25.00
   1 -12  -6   73.09   19.50
   1 -12  -6   52.29   17.50
  -1  12   6   24.00   17.70
  -1  12   6   51.49   17.70
   0 -12  -6   28.10   18.60
   0 -12  -6    0.30   15.80
   0  12   6  -19.90   35.10
   0  12   6   -2.70   17.50
  -1 -12  -6   -7.30   18.40
  -1 -12  -6    1.50   21.90
   1  12   6   29.90   18.90
   1  12   6    9.90   22.20
  -2 -12  -6   13.30   16.70
  -2 -12  -6  -28.20   23.20
   2  12   6   33.40   26.70
   2  12   6    8.30   16.30
  -3 -13   6   33.30    5.40
   3 -13  -6   62.09   25.90
   3 -13  -6   19.10   17.10
  -3  13   6   74.39   41.50
  -3  13   6   36.00   21.70
   2 -13  -6   -3.70   23.50
   2 -13  -6   25.80   20.40
  -2  13   6   10.80   20.20
  -2  13   6   14.60   26.90
   1 -13  -6   58.99   24.50
   1 -13  -6   21.70   15.40
  -1  13   6   22.80   28.00
  -1  13   6   15.50   19.40
   0 -13  -6   -9.40   23.70
   0 -13  -6   18.80   15.50
   0  13   6  -22.40   17.90
   0  13   6  -26.70   20.70
  -1 -13  -6   17.50   16.70
  -1 -13  -6  111.39   28.30
   1  13   6   25.30   21.00
   1  13   6   35.90   25.80
   2 -14  -6  -51.39   25.10
   2 -14  -6   -6.50   17.30
  -2  14   6  -12.10   21.60
   1 -14  -6   20.40   22.90
   1 -14  -6   18.80   26.30
  -1  14   6   20.80   17.00
  -1  14   6  -63.79   48.70
   0 -14  -6    6.40   23.40
   0 -14  -6    2.70   26.30
   0  14   6    8.40   16.70
   0  14   6   58.09   29.50
  -6   0   7   26.70   20.00
   6   0  -7   12.20   16.50
   6   0  -7   15.40   17.90
  -6   0   7   13.70   17.60
   5   0  -7  -15.90   13.60
  -5   0   7    7.50   13.90
  -5   0   7    8.90   13.20
   5   0  -7    3.30   12.70
   4   0  -7    4.30   11.00
  -4   0   7   -6.10   10.40
  -4   0   7    9.90   11.30
   3   0  -7   14.70    9.50
  -3   0   7    0.20    8.80
  -3   0   7    2.10    8.60
  -2   0   7    2.90    8.40
  -2   0   7    6.20    8.60
   1   0  -7   -4.40    7.40
  -1   0   7    4.40    8.10
   0   0   7   -5.30    7.80
   0   0  -7   -2.50    8.30
   0   0   7    4.80    8.10
   1   0   7   -3.00    8.80
  -1   0  -7    3.50    9.40
   1   0   7    2.70    8.70
  -2   0  -7    5.30   11.40
   2   0   7   11.00   10.40
   2   0   7  -11.10   10.40
   3   0   7  -23.10   11.90
  -3   0  -7    0.90   12.70
  -4   0  -7    2.50   16.80
  -4   0  -7   20.70   16.50
   4   0   7   21.40   16.50
   4   0   7    1.40   15.80
  -6  -1   7   -8.50   15.60
  -6  -1   7   16.70   17.00
   6  -1  -7   22.50   19.40
   6  -1  -7    2.50   18.00
  -6   1   7   23.20   18.20
   6   1  -7    1.60   17.60
   6   1  -7   33.30   17.40
  -6   1   7  -28.70   18.50
   5  -1  -7  -12.30   13.20
  -5  -1   7  -10.30   12.40
  -5  -1   7  -13.10   13.00
   5  -1  -7  -23.10   14.40
  -5   1   7   -2.30   13.80
   5   1  -7  -23.10   12.90
  -5   1   7   22.90   14.80
   5   1  -7    3.30   13.10
  -4  -1   7  340.97   24.20
   4  -1  -7  292.67   25.60
  -4  -1   7  320.47   26.20
   4  -1  -7  346.97   26.10
   4   1  -7  383.76   25.30
  -4   1   7  324.17   25.80
  -4   1   7  300.97   25.40
   3  -1  -7   -3.20   10.00
  -3  -1   7   -2.40    9.00
  -3  -1   7    6.50    8.60
  -3   1   7   -4.40    9.10
  -3   1   7   -7.00    9.00
   2  -1  -7   -3.30    8.20
  -2  -1   7    5.00    8.40
  -2   1   7    1.80    8.30
  -2   1   7    6.60    8.60
   2   1  -7   -5.20    7.70
   1  -1  -7  205.88   18.80
  -1  -1   7  300.97   18.40
   1   1  -7  272.77   17.80
  -1   1   7  295.97   20.10
   1   1  -7  259.27   16.90
  -1   1   7  231.08   24.80
   0  -1   7  -10.00    8.00
   0  -1   7    5.20    7.20
   0   1   7    2.30    8.90
   0   1  -7  -11.30    7.30
   0   1  -7    0.70    6.50
   0   1   7    0.50    8.30
   1  -1   7  189.58   19.40
   1  -1   7  180.98   16.70
   1   1   7  132.79   15.20
   1   1   7  188.18   19.10
  -1   1  -7  148.69   16.60
   2  -1   7  162.38   18.70
  -2  -1  -7  173.28   20.50
   2   1   7  135.79   16.60
  -2   1  -7  154.38   18.50
   2   1   7  132.09   16.40
  -2   1  -7  151.48   18.80
   3  -1   7   55.89   13.00
  -3  -1  -7   41.90   14.10
  -3  -1  -7   35.50   14.60
   3   1   7   50.99   14.30
   3   1   7   40.60   14.70
  -3   1  -7   51.69   13.80
  -3   1  -7   46.70   13.60
  -4  -1  -7   16.00   16.20
  -4  -1  -7    1.30   16.60
   4  -1   7    3.60   15.90
   4  -1   7   13.00   16.30
  -4   1  -7    8.10   16.30
   4   1   7    0.20   16.90
   4   1   7  -14.70   17.00
  -6  -2   7   -2.10   17.40
   6  -2  -7   -6.50   16.90
   6  -2  -7   -6.10   14.00
  -6  -2   7    3.70   15.50
   6   2  -7   -2.90   16.90
  -6   2   7   33.10   19.60
  -6   2   7    7.90   18.50
   6   2  -7  -44.00   16.50
   5  -2  -7   -5.80   14.60
  -5  -2   7   19.60   13.20
  -5  -2   7    7.90   12.50
   5  -2  -7    6.30   15.50
   5   2  -7   -0.70   12.80
  -5   2   7   31.30   15.10
   5   2  -7   10.00   13.90
  -5   2   7   -2.30   14.80
  -4  -2   7   40.50   12.10
   4  -2  -7   19.70   13.70
   4  -2  -7   54.19   13.60
  -4  -2   7   33.30   12.10
  -4   2   7    8.30   11.50
  -4   2   7   27.30   13.10
   3  -2  -7   -0.30   10.40
   3  -2  -7   -5.00   10.20
  -3  -2   7   -6.80    8.80
   3   2  -7    9.90    8.70
  -3   2   7   10.80   10.50
  -3   2   7   15.10   10.00
   2  -2  -7    7.00    8.90
  -2  -2   7    6.10    8.10
   2  -2  -7  -11.10   13.50
  -2  -2   7    3.10    7.80
   2   2  -7   15.50    7.60
  -2   2   7    9.50    9.40
   2   2  -7    9.30    7.10
  -2   2   7   19.30    9.50
   1  -2  -7   -5.10    8.70
  -1  -2   7    6.10    7.10
   1   2  -7   20.30    6.80
   1   2  -7   14.10    7.20
  -1   2   7    6.70    8.80
  -1   2   7    5.70    9.60
   0  -2  -7    2.80    8.90
   0  -2   7    1.80    7.30
   0  -2   7   -1.80    7.00
   0   2   7    0.30    8.80
   0   2  -7    4.70    6.80
   0   2  -7    7.30    6.40
   0   2   7   18.60   10.40
   1  -2   7   69.79   10.90
   1  -2   7   54.29    9.80
  -1  -2  -7   58.99   12.70
   1   2   7   74.49   12.80
  -1   2  -7   51.39    9.00
   1   2   7   90.89   13.90
   2  -2   7   47.60   11.40
  -2  -2  -7   51.59   14.50
  -2  -2  -7   75.19   14.20
   2  -2   7   61.69   12.90
   2   2   7   61.39   14.10
   2   2   7   50.69   12.80
  -2   2  -7   63.09   11.00
  -2   2  -7   61.99   10.90
  -3  -2  -7   49.90   15.10
  -3  -2  -7   63.89   16.20
   3  -2   7   39.90   11.90
   3  -2   7   63.09   14.10
   3   2   7   27.70   15.50
  -3   2  -7   44.20   11.80
   3   2   7   50.79   14.90
  -3   2  -7   50.49   12.80
   4  -2   7   25.60   17.10
   4  -2   7   25.80   15.30
  -4  -2  -7   64.39   19.00
  -4  -2  -7   36.40   18.50
  -4   2  -7   46.90   15.90
   4   2   7   46.80   19.40
   4   2   7   29.30   18.30
  -4   2  -7   23.70   16.30
  -6  -3   7    2.90   15.40
  -6  -3   7   17.00   15.20
   6  -3  -7   19.30   19.30
   6  -3  -7  -16.80   20.10
  -6   3   7   10.70   19.90
  -6   3   7  -20.00   20.30
   6   3  -7    6.60   16.30
   6   3  -7    4.80   16.00
  -5  -3   7    4.60   12.70
   5  -3  -7    1.80   11.70
  -5  -3   7    6.20   13.00
   5  -3  -7    8.80   11.60
  -5   3   7   -4.70   14.70
   5   3  -7    7.80   12.40
   5   3  -7    5.40   15.30
  -5   3   7  -12.10   15.10
  -4  -3   7   -7.20    9.90
  -4  -3   7   -2.30   10.70
   4  -3  -7   -6.70   12.30
   4  -3  -7  -16.80   11.50
   4   3  -7   -8.50    9.80
  -4   3   7  -18.20   12.60
  -4   3   7   -2.70   11.10
   4   3  -7    9.10   10.00
  -3  -3   7   12.10    8.70
   3  -3  -7   -9.10   10.40
  -3  -3   7   -0.30    8.90
   3  -3  -7   18.60   10.30
  -3   3   7   12.50    8.50
  -3   3   7    8.30   11.60
   3   3  -7   12.30    8.20
  -2  -3   7   36.30    8.60
   2  -3  -7   40.20   11.80
   2  -3  -7   44.20   11.50
  -2  -3   7   38.00    8.70
   2   3  -7   36.80    7.90
  -2   3   7   42.20   11.20
  -2   3   7   56.39   13.10
   2   3  -7   56.49    8.70
  -1  -3   7    0.80    6.60
   1  -3  -7    9.80    9.50
   1  -3  -7  -12.50    9.40
   1   3  -7    5.80    5.90
   1   3  -7    1.50    6.00
  -1   3   7    5.70    9.20
  -1   3   7    4.80   10.50
   0  -3   7    5.10    6.60
   0  -3   7   -2.30    7.00
   0  -3  -7    3.30    9.20
   0  -3  -7    9.60    8.80
   0   3  -7    3.90    5.90
   0   3   7   20.50   11.30
   0   3  -7   -6.10    5.60
   0   3   7    6.50    9.70
  -1  -3  -7   11.70   10.20
   1  -3   7   12.30    8.40
  -1  -3  -7   11.20   10.60
   1  -3   7   16.30    8.40
  -1   3  -7   16.60    6.90
   1   3   7   14.10   10.80
   1   3   7   -7.70   10.70
  -2  -3  -7  180.88   22.60
   2  -3   7  163.18   18.90
  -2  -3  -7  149.49   18.30
   2   3   7  176.48   23.30
  -2   3  -7  189.58   16.90
  -2   3  -7  184.48   16.90
   2   3   7  192.58   23.70
   3  -3   7   53.19   13.90
  -3  -3  -7  107.29   17.40
  -3  -3  -7   47.40   16.30
   3  -3   7   56.99   13.60
  -3   3  -7   76.09   13.20
   3   3   7  100.49   18.60
  -3   3  -7   61.09   12.60
   3   3   7   53.59   17.00
   4  -3   7  330.17   33.00
  -4  -3  -7  287.87   36.10
  -4  -3  -7  228.28   26.60
   4  -3   7  264.87   27.00
  -4   3  -7  269.77   27.30
   4   3   7  296.77   35.30
  -4   3  -7  282.37   28.00
  -6  -4   7    8.90   16.10
   6  -4  -7   41.80   22.70
  -6  -4   7   16.00   17.50
  -6   4   7   20.90   22.20
  -6   4   7   38.30   21.20
   6   4  -7   -0.10   16.60
   6   4  -7   28.40   16.30
  -5  -4   7   -6.30   13.40
   5  -4  -7    1.40   16.70
   5  -4  -7    6.40   15.80
  -5  -4   7   -0.50   12.10
   5   4  -7    7.70   13.10
  -5   4   7   13.30   16.30
   5   4  -7   10.10   12.20
  -5   4   7   11.80   18.10
  -4  -4   7  184.08   19.80
   4  -4  -7  125.59   19.10
  -4  -4   7  149.49   18.80
   4  -4  -7  192.18   25.40
   4   4  -7  175.48   19.30
   4   4  -7  199.68   19.90
  -4   4   7  170.18   19.60
  -4   4   7  176.58   20.50
  -3  -4   7  284.77   19.80
  -3  -4   7  288.17   20.20
   3  -4  -7  255.27   20.90
   3  -4  -7  306.17   26.10
  -3   4   7  292.77   24.70
   3   4  -7  242.58   18.00
  -3   4   7  320.27   22.70
  -2  -4   7  166.18   14.80
   2  -4  -7  180.58   21.80
   2  -4  -7  157.68   20.10
  -2  -4   7  184.18   15.80
  -2   4   7  203.88   21.70
   2   4  -7  168.68   13.60
   2   4  -7  178.28   13.40
  -2   4   7  178.88   20.60
   1  -4  -7  194.28   21.10
   1  -4  -7  188.68   21.30
  -1  -4   7  197.18   14.10
   1   4  -7  184.28   12.00
   1   4  -7  199.58   12.30
  -1   4   7  210.58   21.70
  -1   4   7  169.88   20.10
   0  -4  -7    7.20   11.20
   0  -4  -7   27.60   11.40
   0  -4   7   26.50    6.70
   0  -4   7   19.80    6.90
   0   4  -7   18.50    5.40
   0   4  -7   19.90    5.50
   0   4   7   15.00   10.60
   0   4   7   18.60   11.70
   1  -4   7   -2.40    6.90
  -1  -4  -7   -9.20    9.90
  -1  -4  -7    3.20   10.70
   1  -4   7   -2.40    8.10
  -1   4  -7   -2.80    6.50
   1   4   7   13.10   11.40
   1   4   7    6.90   11.80
  -1   4  -7    1.20    5.70
  -2  -4  -7   -5.70   12.40
  -2  -4  -7    3.10   13.50
   2  -4   7   -0.70    8.50
   2  -4   7    5.80    8.80
  -2   4  -7   -1.50    7.50
   2   4   7    4.20   12.20
   2   4   7   -2.40   12.10
  -2   4  -7    2.20    7.50
  -3  -4  -7   44.80   16.50
  -3  -4  -7   14.80   15.70
   3  -4   7   32.30   11.60
   3  -4   7   26.10   12.50
   3   4   7   22.60   13.70
  -3   4  -7   31.70   11.10
  -3   4  -7   49.90   11.40
   3   4   7   27.50   14.80
  -4  -4  -7   62.79   21.50
   4  -4   7   49.30   15.90
   4  -4   7   49.50   17.50
  -4  -4  -7   36.10   22.80
   4   4   7   46.90   21.70
  -4   4  -7   44.70   14.20
  -4   4  -7   41.80   15.10
  -6  -5   7   -8.00   16.40
   6  -5  -7   20.60   23.30
  -6  -5   7   12.80   17.40
   6  -5  -7   -4.20   22.00
   6   5  -7    3.90   17.20
  -6   5   7   -3.40   24.60
  -5  -5   7   13.20   13.70
   5  -5  -7   -0.10   18.20
  -5   5   7    7.80   19.00
  -5   5   7    3.40   16.80
   5   5  -7   -7.60   12.60
   5   5  -7    8.60   13.00
   4  -5  -7   14.10   15.20
  -4  -5   7    8.70   10.50
  -4  -5   7    4.70   10.70
   4  -5  -7   30.60   15.70
   4   5  -7   15.00   10.10
  -4   5   7   13.10   10.90
   4   5  -7    3.70    9.30
  -4   5   7   23.70   14.90
   3  -5  -7   24.90   12.70
  -3  -5   7   26.50    8.80
   3  -5  -7   23.10   10.60
  -3  -5   7   24.80    8.60
   3   5  -7   29.40    7.90
  -3   5   7   42.70   13.90
  -3   5   7   64.99   15.20
  -2  -5   7  208.28   14.70
   2  -5  -7  217.98   24.10
  -2  -5   7  223.08   15.30
   2  -5  -7  195.68   22.50
   2   5  -7  211.28   12.80
   2   5  -7  206.48   12.60
  -2   5   7  212.28   24.50
  -2   5   7  221.08   19.70
  -1  -5   7    8.80    5.30
   1  -5  -7   15.50   12.20
   1  -5  -7    6.30   11.10
   1   5  -7    4.00    5.30
  -1   5   7    4.40   10.20
   1   5  -7   10.70    3.80
  -1   5   7   -2.80   12.10
   0  -5  -7   43.50   13.30
   0  -5   7   37.20   10.40
   0  -5   7   46.40    6.70
   0  -5  -7   39.40   13.70
   0   5   7   45.20   14.10
   0   5  -7   55.99    5.60
   0   5   7   52.39   13.00
   0   5  -7   52.59    5.60
  -1  -5  -7   34.50   14.10
   1  -5   7   47.90    8.50
  -1  -5  -7   38.70   10.80
   1   5   7   66.09   14.80
  -1   5  -7   43.50    5.40
   1   5   7   59.89   12.60
  -1   5  -7   48.30    5.60
  -2  -5  -7   14.20   14.50
   2  -5   7   14.80    9.40
  -2  -5  -7   31.20   15.50
   2  -5   7   25.70    9.00
  -2   5  -7   18.10    6.70
   2   5   7    3.50   14.70
   2   5   7   35.20   15.10
  -2   5  -7   -4.60    7.00
   3  -5   7    1.90   10.70
  -3  -5  -7   18.60   17.90
   3  -5   7    9.00   11.60
  -3  -5  -7  -40.40   16.20
  -3   5  -7    8.30    9.40
  -3   5  -7    0.90    8.80
   3   5   7  -12.70   17.30
   3   5   7  -31.80   16.50
  -5  -6   7   36.40   15.40
  -5  -6   7   36.90   14.20
   5  -6  -7   44.30   18.30
   5  -6  -7    8.20   18.80
  -5   6   7   35.50   15.90
   5   6  -7   20.20   13.30
  -5   6   7   21.60   18.60
   5   6  -7   49.30   14.20
   4  -6  -7    1.30   15.20
  -4  -6   7    4.30    9.40
   4  -6  -7   -6.20   10.80
  -4  -6   7    2.70   10.50
  -4   6   7   -6.70   10.80
  -4   6   7   19.10   17.40
   4   6  -7   -2.20    9.00
   4   6  -7   12.10    9.80
  -3  -6   7    7.40    7.70
   3  -6  -7    2.90   14.20
  -3  -6   7    4.10    8.30
   3  -6  -7   29.20   15.00
  -3   6   7   -7.50   12.80
   3   6  -7   -0.40    6.60
  -3   6   7   -0.10   10.30
   2  -6  -7   47.70   11.90
   2  -6  -7   77.79   15.50
  -2  -6   7   96.99   12.30
  -2  -6   7   76.49    8.30
  -2   6   7   82.09   14.60
  -2   6   7   68.29   15.60
   2   6  -7   76.79    7.30
   1  -6  -7   19.90   13.20
  -1  -6   7   13.90    4.90
   1  -6  -7    6.80   12.40
  -1   6   7   26.40   12.50
  -1   6   7   29.70   14.10
   0  -6  -7   83.49   16.50
   0  -6  -7   56.59   12.60
   0   6   7  108.29   17.90
   0   6   7   80.09   15.40
  -1  -6  -7   59.99   14.70
  -1  -6  -7   48.70   14.80
   1  -6   7   46.50    7.70
   1  -6   7   61.49    8.10
   1   6   7   63.09   16.90
   1   6   7   74.49   16.10
   2  -6   7   46.40    9.40
  -2  -6  -7   11.10   11.80
  -2  -6  -7   43.00   17.00
   2  -6   7   37.60    9.70
  -2   6  -7   31.40    5.30
   2   6   7   38.40   16.80
   2   6   7   43.60   13.30
  -3  -6  -7   19.00   19.90
  -3  -6  -7  -22.10   16.30
   3  -6   7  -14.80   10.50
   3  -6   7   20.70   11.40
   3   6   7   20.70   19.00
   3   6   7  -12.80   17.00
  -3   6  -7    1.50    8.10
  -3   6  -7  -10.90    7.60
   5  -7  -7   39.30   19.90
  -5  -7   7   21.30   13.10
  -5  -7   7   39.50   14.00
   5  -7  -7   37.70   21.90
   5   7  -7   12.20   12.20
  -5   7   7   37.80   23.00
  -5   7   7   43.80   20.50
   5   7  -7   22.40   13.50
  -4  -7   7  121.69   14.90
  -4  -7   7   94.89   13.20
   4  -7  -7  144.29   21.30
   4   7  -7  124.69   16.30
  -4   7   7  125.39   18.00
  -4   7   7  114.19   18.90
   4   7  -7  109.69   12.60
  -3  -7   7   22.50    7.90
  -3  -7   7   36.90    9.40
   3  -7  -7   38.10   16.00
   3  -7  -7   18.60   15.60
  -3   7   7   22.30   16.00
  -3   7   7   26.40   15.10
   3   7  -7   25.00    6.20
   2  -7  -7   18.10   13.70
  -2  -7   7    4.40    5.90
  -2  -7   7   -1.10    4.90
   2  -7  -7   17.60   14.50
  -2   7   7   12.80   14.10
  -2   7   7  -10.40   12.50
   1  -7  -7   13.80   14.20
   1  -7  -7   20.90   11.30
  -1  -7   7   39.40    4.80
  -1   7   7   47.40   16.40
  -1   7   7   56.69   14.90
   0  -7   7   50.79    5.10
   0  -7  -7   59.89   15.40
   0  -7  -7   23.40   15.10
   0   7   7   66.19   16.10
   0   7   7   60.99   16.30
   1  -7   7   66.99    6.80
  -1  -7  -7   88.29   17.50
  -1  -7  -7   45.10   16.90
   1   7   7   81.49   15.10
   1   7   7   78.29   17.70
  -2  -7  -7   36.80   18.40
   2  -7   7   54.59    8.30
   2  -7   7   32.10    8.40
  -2  -7  -7   23.50   13.30
   2   7   7   43.20   14.70
   2   7   7    5.50   17.40
  -3  -7  -7   70.79   18.20
   3  -7   7   58.49   11.90
   3  -7   7   64.09   12.20
  -3   7  -7   81.89   10.40
   3   7   7   72.99   23.60
   3   7   7   17.60   15.80
   5  -8  -7   21.90   17.00
  -5  -8   7  -12.40   13.50
  -5  -8   7   14.80   13.80
   5  -8  -7    8.00   24.40
  -5   8   7   18.70   18.10
  -5   8   7    9.70   21.00
   5   8  -7  -10.10   13.20
   5   8  -7   20.10   12.30
  -4  -8   7   -8.80   10.10
   4  -8  -7  -23.30   19.00
  -4  -8   7   10.90   10.10
   4  -8  -7   40.70   19.70
   4   8  -7    2.50    8.30
   4   8  -7   12.20    8.80
  -4   8   7   11.20   19.90
  -3  -8   7   14.50    7.90
   3  -8  -7   29.20   13.60
  -3  -8   7   17.80    7.50
  -3   8   7   10.50   18.00
  -3   8   7   11.40   15.10
   3   8  -7   19.80    6.20
   2  -8  -7   17.10   11.80
  -2   8   7   -3.10   10.50
  -2   8   7   48.00   17.00
   1  -8  -7   30.80   16.70
   1  -8  -7   26.30   14.60
  -1   8   7    3.60   13.40
  -1   8   7  -11.90   16.90
   0  -8  -7  123.39   20.10
   0  -8  -7   75.79   14.80
   0   8   7   75.19   18.90
   0   8   7   85.59   17.40
  -1  -8  -7  281.17   32.50
  -1  -8  -7  192.18   23.60
   1   8   7  231.78   26.40
   1   8   7  242.98   30.80
  -2  -8  -7    1.10   17.10
   2  -8   7    2.40    6.70
   2   8   7  -34.40   17.50
   2   8   7   -9.40   13.90
  -3  -8  -7    1.00   22.40
   3  -8   7    5.50   10.00
   3  -8   7  -18.60    9.60
   3   8   7   41.80   26.50
   3   8   7   10.00   22.90
   5  -9  -7   20.70   22.80
   5  -9  -7   23.20   25.20
  -5  -9   7   14.40   13.40
   5   9  -7   12.30   12.50
  -5   9   7   11.30   26.10
   5   9  -7   16.40   13.30
  -5   9   7  -14.50   22.50
   4  -9  -7   10.70   20.40
  -4  -9   7   32.30   10.30
   4  -9  -7   30.30   20.90
   4   9  -7   26.10    8.40
  -4   9   7    8.50   21.60
   4   9  -7   24.90    7.60
  -4   9   7   23.10   14.80
   3  -9  -7   25.40   18.30
   3  -9  -7   25.30   14.90
  -3   9   7   45.00   20.00
   2  -9  -7   22.20   16.70
  -2   9   7    9.50   14.10
  -2   9   7  -10.10   15.50
   1  -9  -7    4.30   15.70
  -1   9   7  -49.60   17.60
  -1   9   7   20.00   15.90
   0  -9  -7    2.00   12.40
   0   9   7   23.70   20.10
   0   9   7   46.50   16.70
  -1  -9  -7   24.00   18.70
   1   9   7  -13.80   17.90
   1   9   7    9.80   14.80
  -2  -9  -7    4.10   15.70
   2   9   7   -0.20   16.60
   2   9   7    8.50   18.00
  -4 -10   7   -5.30   10.00
   4 -10  -7   32.20   22.90
  -4 -10   7   16.80    9.60
   4 -10  -7   56.29   23.50
  -4  10   7   23.00   17.10
   4  10  -7   19.20    5.70
  -4  10   7    8.70   24.00
   3 -10  -7    7.70   19.00
   3 -10  -7   -5.20   20.60
  -3 -10   7    0.70    5.70
  -3  10   7   -8.70   20.70
  -3  10   7   25.00   15.10
   2 -10  -7   37.40   15.10
   2 -10  -7   20.70   19.90
  -2  10   7   27.60   17.00
  -2  10   7   14.80   18.90
   1 -10  -7  -17.20   19.80
   1 -10  -7   37.70   15.20
  -1  10   7   36.60   16.70
   0 -10  -7   10.10   17.50
   0 -10  -7   47.10   22.50
   0  10   7   27.00   16.20
  -1 -10  -7  -12.50   19.90
  -1 -10  -7   17.00   21.90
   1  10   7    1.70   19.30
  -2 -10  -7   46.90   22.70
  -2 -10  -7   27.40   24.20
   2  10   7   29.40   17.70
   2  10   7   38.80   26.40
   3 -11  -7   34.50   17.50
   3 -11  -7   76.09   26.30
  -3 -11   7   46.40    5.10
  -3  11   7   53.39   26.40
  -3  11   7   34.10   17.40
   2 -11  -7   12.00   37.00
   2 -11  -7    7.10   20.10
  -2  11   7   -4.80   19.00
  -2  11   7  -15.30   22.10
   1 -11  -7   12.90   24.10
   1 -11  -7   12.10   20.10
  -1  11   7   30.00   15.40
  -1  11   7   75.79   25.90
   0 -11  -7   21.10   17.90
   0 -11  -7    0.80   20.50
   0  11   7   -6.30   14.40
   0  11   7    2.70   24.90
  -1 -11  -7   25.10   22.70
  -1 -11  -7  -26.90   46.00
   1  11   7   57.29   24.80
   1  11   7   -9.20   15.40
   3 -12  -7  -23.70   17.70
   3 -12  -7   24.50   27.70
  -3  12   7  -55.29   26.80
  -3  12   7  -18.20   16.40
   2 -12  -7  150.78   29.90
   2 -12  -7   85.49   24.70
  -2  12   7   81.49   20.20
  -2  12   7  132.49   29.80
   1 -12  -7   73.09   21.60
   1 -12  -7   25.30   17.10
  -1  12   7   37.90   22.30
  -1  12   7   78.69   30.00
   0 -12  -7   27.30   27.70
   0 -12  -7  -21.50   20.80
   0  12   7   42.10   23.30
   0  12   7    7.90   20.80
  -5   0   8  165.48   21.90
   5   0  -8  166.68   21.10
   5   0  -8  115.79   20.90
  -5   0   8  122.69   20.70
  -4   0   8   10.90   13.40
   4   0  -8   -1.50   13.20
  -4   0   8   19.60   13.70
   4   0  -8  -11.60   12.40
   3   0  -8   15.80   13.60
  -3   0   8    5.30   12.10
  -3   0   8   -7.90   10.90
   2   0  -8   38.50   12.40
  -2   0   8   30.00   12.30
  -2   0   8   27.40   11.10
   1   0  -8   11.30   10.60
  -1   0   8   51.89   14.00
   1   0  -8   55.39   11.90
  -1   0   8   35.30   12.20
   0   0   8  115.59   14.70
   0   0  -8   84.19   13.30
   0   0  -8  149.88   19.60
   1   0   8  463.45   27.80
  -1   0  -8  434.56   26.10
  -1   0  -8  444.66   27.90
  -2   0  -8   39.00   14.60
   2   0   8   37.10   15.70
   2   0   8   43.90   15.10
  -2   0  -8   51.29   14.70
  -3   0  -8   19.60   16.10
  -3   0  -8    6.30   15.70
   3   0   8    3.70   16.50
  -5  -1   8  -10.70   15.10
   5  -1  -8   40.40   19.60
   5  -1  -8   44.70   18.30
  -5  -1   8   48.00   17.00
   5   1  -8   -4.80   18.00
   5   1  -8   -3.70   15.80
  -5   1   8   16.80   15.90
  -5   1   8    0.10   18.00
  -4  -1   8    0.90   12.60
   4  -1  -8   -5.60   14.80
  -4  -1   8   -3.10   12.70
   4  -1  -8    0.30   14.20
   4   1  -8    5.50   13.20
  -4   1   8   -7.50   12.20
  -4   1   8  -22.30   13.70
   3  -1  -8   24.00   12.90
   3  -1  -8   -0.30   11.90
  -3  -1   8   26.20   12.00
  -3  -1   8   38.70   12.30
   3   1  -8   15.40   11.90
  -3   1   8   18.00   12.20
  -3   1   8   24.80   12.70
   3   1  -8   24.60   12.10
   2  -1  -8   50.19   13.00
  -2  -1   8   84.49   13.30
  -2  -1   8   71.89   13.50
   2   1  -8   86.99   12.40
   2   1  -8   86.69   13.10
  -2   1   8   65.39   13.50
  -2   1   8   67.29   13.30
  -1  -1   8   12.60   10.10
  -1  -1   8   11.90   10.50
   1   1  -8   24.10    9.90
   1   1  -8    9.90    9.20
  -1   1   8   21.20   12.10
  -1   1   8   14.40   11.70
   0  -1   8    1.10   10.00
   0  -1   8   -6.20    9.60
   0   1  -8   -2.80    9.60
   0   1   8    6.10   11.10
   0   1   8    5.70   11.90
   0   1  -8  -11.20    8.90
  -1  -1  -8   21.50   13.10
   1  -1   8    8.30   12.20
   1  -1   8   -3.80   10.90
  -1   1  -8   -0.80   10.50
   1   1   8   20.50   12.90
  -1   1  -8   -8.40    9.60
   1   1   8   -1.90   12.80
   2  -1   8    2.00   13.50
   2  -1   8   74.49   17.00
  -2  -1  -8   40.30   15.10
  -2   1  -8   57.29   14.30
   2   1   8   46.80   16.00
  -2   1  -8   50.29   13.40
   2   1   8   45.00   16.10
   3  -1   8  -38.60   14.60
  -3  -1  -8   17.40   19.40
  -3  -1  -8   11.10   17.20
  -3   1  -8  -15.10   14.80
  -3   1  -8   -9.40   14.80
   3   1   8   -0.60   16.90
   5  -2  -8   68.09   19.10
  -5  -2   8   71.99   17.80
  -5  -2   8   74.09   18.00
   5  -2  -8   73.69   19.70
  -5   2   8   58.69   19.50
  -5   2   8   61.79   21.00
   5   2  -8   48.00   17.20
  -4  -2   8   42.90   14.00
   4  -2  -8   47.20   14.80
   4  -2  -8   40.90   16.60
  -4  -2   8   28.20   13.40
  -4   2   8   46.10   15.80
   4   2  -8   58.29   14.20
  -4   2   8   20.80   15.10
   4   2  -8   21.80   12.20
  -3  -2   8   -4.90   11.30
  -3  -2   8   32.80   11.60
   3  -2  -8   17.00   12.90
   3  -2  -8    5.10   13.70
   3   2  -8    4.00   11.20
  -3   2   8  -10.50   12.40
  -3   2   8    2.20   13.10
   3   2  -8    5.70   10.00
  -2  -2   8  138.09   16.90
  -2  -2   8   91.79   13.50
   2  -2  -8  103.49   15.60
   2  -2  -8   74.29   19.10
  -2   2   8   96.29   15.30
  -2   2   8  101.69   15.60
   2   2  -8  131.99   17.30
   2   2  -8   94.09   12.50
  -1  -2   8   32.40    9.70
  -1  -2   8   29.20   10.30
   1  -2  -8   16.60   12.50
   1   2  -8   25.10    9.30
  -1   2   8    2.00   11.30
   1   2  -8   29.30    9.00
  -1   2   8   27.40   12.40
   0  -2   8    5.90    9.80
   0  -2   8    9.40    9.70
   0  -2  -8   10.10   12.60
   0   2  -8   27.10    8.90
   0   2   8    5.50   11.70
   0   2  -8    8.60    8.70
   0   2   8   -7.00   11.70
  -1  -2  -8  127.59   17.00
   1  -2   8  109.69   14.40
   1  -2   8  122.09   14.80
   1   2   8   96.19   16.20
   1   2   8  144.79   18.20
  -1   2  -8  149.79   18.40
  -1   2  -8  136.89   17.90
  -2  -2  -8   12.10   14.40
  -2  -2  -8  -13.40   13.10
   2  -2   8  -26.80   11.70
   2   2   8   33.40   16.20
  -2   2  -8    2.80   11.10
  -2   2  -8    3.10   11.70
   2   2   8    2.20   15.50
   3  -2   8  -24.90   14.00
  -3  -2  -8  -44.60   19.10
   3  -2   8   -0.10   16.10
  -3  -2  -8    2.40   16.80
   3   2   8  -18.80   17.90
   3   2   8  -16.40   18.20
  -3   2  -8   20.60   14.20
  -3   2  -8   27.40   15.90
   5  -3  -8  168.78   23.10
  -5  -3   8  146.19   20.50
  -5  -3   8  104.29   18.50
   5  -3  -8  142.59   24.30
  -5   3   8  131.39   22.70
  -5   3   8  110.99   23.50
   5   3  -8  123.89   19.70
   5   3  -8  103.39   18.70
   4  -3  -8   64.49   17.50
  -4  -3   8   26.30   13.20
   4  -3  -8   31.60   18.10
  -4  -3   8   35.20   15.00
   4   3  -8   30.00   12.60
   4   3  -8   26.70   13.70
  -4   3   8   37.20   17.00
  -4   3   8   38.70   16.10
  -3  -3   8   23.90   10.80
  -3  -3   8   31.20   11.30
   3  -3  -8   44.50   14.70
   3  -3  -8   17.00   15.50
  -3   3   8   44.70   14.20
   3   3  -8   40.00   10.60
   3   3  -8   27.70   11.10
  -3   3   8   -0.20   13.40
  -2  -3   8   -5.40    8.80
  -2  -3   8   13.40    9.90
   2  -3  -8    8.80   13.20
   2  -3  -8    8.00   12.90
   2   3  -8    3.20    8.10
  -2   3   8    3.70   12.40
  -2   3   8   14.80   12.40
   2   3  -8    9.20    8.80
   1  -3  -8  200.88   23.80
   1  -3  -8  262.57   24.30
  -1  -3   8  198.88   18.70
  -1  -3   8  194.18   17.30
   1   3  -8  241.28   16.90
  -1   3   8  229.18   24.30
  -1   3   8  216.58   23.60
   0  -3   8  131.49   17.20
   0  -3  -8  138.49   17.50
   0  -3   8  140.29   16.20
   0  -3  -8   87.99   16.10
   0   3   8  117.59   16.60
   0   3   8  126.79   17.90
   0   3  -8  132.19   15.20
   0   3  -8  122.39   14.70
  -1  -3  -8  104.79   16.80
   1  -3   8   97.39   13.50
  -1  -3  -8   58.79   16.20
   1  -3   8   95.39   13.00
  -1   3  -8   97.39   11.60
   1   3   8   75.69   16.60
  -1   3  -8   94.39   11.50
   1   3   8   88.59   17.10
   2  -3   8    8.10   12.20
  -2  -3  -8  -22.90   15.50
  -2  -3  -8   14.60   14.30
  -2   3  -8    5.70   10.80
   2   3   8    7.10   15.60
   2   3   8  -20.20   15.40
  -2   3  -8    2.80   10.30
  -3  -3  -8   32.20   31.10
   3  -3   8   16.70   16.30
   3  -3   8   11.20   15.30
  -3  -3  -8  -25.60   17.50
   3   3   8  -21.80   19.10
  -3   3  -8   25.30   13.40
   3   3   8   -0.60   19.10
  -3   3  -8   11.90   13.70
  -5  -4   8   66.99   18.00
   5  -4  -8   47.90   17.50
   5  -4  -8   76.79   22.40
   5   4  -8   42.80   16.20
   5   4  -8   46.60   16.00
  -5   4   8   84.89   22.70
  -5   4   8   33.70   20.10
   4  -4  -8    6.00   16.40
   4  -4  -8   51.39   17.00
  -4  -4   8   17.50   13.30
  -4  -4   8   48.10   12.80
   4   4  -8   18.30   11.50
   4   4  -8    4.10   12.50
  -4   4   8   25.10   17.30
  -4   4   8   25.10   15.50
  -3  -4   8    3.40   10.00
  -3  -4   8   -0.70    9.80
   3  -4  -8    5.70   14.40
   3  -4  -8  -25.60   14.40
  -3   4   8   -8.60   13.80
   3   4  -8   -4.30    8.80
  -3   4   8   10.90   13.40
   3   4  -8    5.80    9.60
   2  -4  -8  -18.80   13.20
  -2  -4   8  -13.20    8.00
   2  -4  -8   -6.50   12.60
  -2  -4   8   -6.00    8.90
  -2   4   8   -8.20   14.10
  -2   4   8   14.30   10.50
   2   4  -8   -7.80    7.30
   2   4  -8    6.20    7.50
  -1  -4   8   -6.70    8.20
   1  -4  -8   15.40   13.70
   1  -4  -8   23.00   13.30
  -1  -4   8   -0.10    7.50
   1   4  -8   10.70    6.60
  -1   4   8   10.10   12.40
  -1   4   8   15.20   14.40
   0  -4  -8   33.80   14.80
   0  -4   8   22.30    9.20
   0  -4   8    8.00    8.10
   0  -4  -8   28.40   14.70
   0   4  -8   -6.80    7.50
   0   4   8   44.70   13.90
   0   4  -8   18.10    6.70
   0   4   8   17.10   12.70
   1  -4   8    1.10    9.50
  -1  -4  -8  -11.10   14.70
   1  -4   8   22.00   10.20
  -1  -4  -8   13.40   15.20
  -1   4  -8    9.20    7.70
   1   4   8   14.80   14.00
   1   4   8    8.90   14.20
  -1   4  -8    8.80    7.70
   2  -4   8   -0.70   11.70
  -2  -4  -8   12.30   15.30
   2  -4   8   -2.70   11.20
  -2  -4  -8  -11.40   16.50
  -2   4  -8    1.30    9.50
   2   4   8   -3.70   14.70
  -2   4  -8   10.70    9.50
   2   4   8  -19.90   16.20
  -5  -5   8   -5.30   15.20
  -5  -5   8   -3.70   15.30
   5  -5  -8    9.60   22.30
   5   5  -8   11.90   15.50
  -5   5   8  -11.20   16.50
  -5   5   8   13.10   19.50
   5   5  -8    4.60   13.90
   4  -5  -8   30.90   18.50
  -4  -5   8   22.30   12.00
  -4  -5   8   26.40   13.40
   4  -5  -8    0.30   18.60
   4   5  -8   31.30   11.50
   4   5  -8   20.50   11.80
  -4   5   8   41.60   18.20
  -4   5   8   53.89   18.10
   3  -5  -8   -7.60   15.80
  -3  -5   8   12.50    9.70
  -3  -5   8    1.90   10.50
   3  -5  -8    3.20   15.70
   3   5  -8   17.90    8.80
   3   5  -8   11.90    8.90
  -3   5   8   46.40   16.40
  -3   5   8   37.00   16.60
   2  -5  -8   13.70   13.60
   2  -5  -8   31.60   15.40
  -2  -5   8   35.20    9.40
  -2  -5   8    6.80    7.80
   2   5  -8   -3.40    7.00
  -2   5   8   12.20   14.90
  -2   5   8   22.50   14.90
   2   5  -8   36.80    7.20
   1  -5  -8   96.29   17.60
  -1  -5   8   54.49    8.60
  -1  -5   8   66.49    9.90
   1  -5  -8   58.29   16.40
  -1   5   8   76.59   17.60
   1   5  -8   67.09    8.20
  -1   5   8   72.89   14.20
   0  -5  -8   -4.20   15.00
   0  -5   8   19.70    8.60
   0  -5  -8    5.00   13.90
   0  -5   8    6.30    7.10
   0   5   8   10.00   11.30
   0   5   8    4.70   13.40
   0   5  -8    8.00    4.40
   1  -5   8   58.99   10.70
  -1  -5  -8   56.29   16.70
  -1  -5  -8   56.99   18.00
  -1   5  -8   71.49    9.30
   1   5   8   39.00   16.60
   1   5   8   51.09   17.90
  -2  -5  -8   -8.90   18.70
   2  -5   8  -12.10   11.10
  -2  -5  -8   -2.60   16.80
   2  -5   8   13.90   11.90
  -2   5  -8   -5.20    7.30
  -2   5  -8   -0.40    7.80
   2   5   8   -6.50   17.90
   2   5   8   -6.90   18.60
   4  -6  -8   10.70   18.20
  -4  -6   8   17.20   12.20
   4  -6  -8    3.20   14.30
  -4  -6   8   20.90   12.70
  -4   6   8   15.10   20.20
   4   6  -8   16.40   11.00
   4   6  -8    8.50   11.10
  -4   6   8    4.90   18.70
   3  -6  -8    8.60   18.30
   3  -6  -8   -9.80   15.40
  -3  -6   8   -3.50   10.00
  -3  -6   8   -2.70    8.80
  -3   6   8    3.00   12.90
   3   6  -8   -1.10    7.50
   3   6  -8    2.10    7.30
  -3   6   8    9.80   12.80
   2  -6  -8   36.60   17.50
   2  -6  -8   37.90   17.20
  -2  -6   8   18.00    9.00
  -2  -6   8   26.20    7.40
  -2   6   8   19.00   17.60
  -2   6   8   33.40   15.40
  -1  -6   8   57.19    8.30
   1  -6  -8   24.10   15.40
  -1  -6   8   39.50    6.70
   1  -6  -8   46.30   16.90
  -1   6   8   38.30   18.00
  -1   6   8   24.80   15.90
   0  -6  -8    5.00   15.50
   0  -6   8   -4.60    7.00
   0  -6  -8   -2.20   14.80
   0   6   8   14.70   14.70
   0   6   8   41.00   16.80
  -1  -6  -8   29.90   18.00
   1   6   8  -13.50   18.00
   1   6   8   -6.80   17.20
  -2  -6  -8    2.90   19.30
   2  -6   8   30.90   11.40
  -2  -6  -8   75.59   21.90
   2   6   8   58.09   21.10
   2   6   8   23.30   21.30
   4  -7  -8  -27.10   20.30
  -4  -7   8   -0.30   12.70
  -4  -7   8    0.40   11.80
   4   7  -8   -3.40    9.30
  -4   7   8   22.10   21.50
  -4   7   8  -19.60   15.90
   4   7  -8    9.00    9.70
   3  -7  -8   45.10   18.60
   3  -7  -8   51.99   16.00
  -3  -7   8   29.50   10.80
  -3  -7   8   17.30    9.10
  -3   7   8   45.20   19.60
  -3   7   8   25.20   19.60
  -2  -7   8   -3.10    7.80
   2  -7  -8    6.10   13.30
   2  -7  -8   -1.60   16.40
  -2   7   8  -26.40   16.10
  -2   7   8  -29.40   17.90
   1  -7  -8   47.10   17.80
  -1  -7   8   70.09    7.10
   1  -7  -8   59.29   18.50
  -1   7   8  102.29   21.70
  -1   7   8   37.00   18.00
   0  -7   8    9.80    5.00
   0  -7  -8  -18.70   13.20
   0  -7  -8   47.20   19.00
   0  -7   8    7.70    4.80
   0   7   8  -14.30   11.90
   0   7   8    1.60   18.90
   1  -7   8    0.60    6.90
  -1  -7  -8   39.00   19.70
  -1  -7  -8  -18.80   19.50
   1  -7   8   12.60    6.60
   1   7   8  -20.40   18.70
   1   7   8  -18.00   19.70
  -2  -7  -8   74.09   24.70
   2  -7   8   47.50   10.60
  -2  -7  -8   34.80   22.20
   2   7   8   78.89   19.40
   2   7   8   77.39   25.40
   4  -8  -8    5.40   23.50
   4  -8  -8   71.89   24.40
  -4  -8   8   29.40   11.80
  -4  -8   8   -4.10   12.30
   4   8  -8   28.20    8.60
  -4   8   8   20.50   22.80
  -4   8   8   40.80   24.60
   3  -8  -8  -10.90   20.30
  -3  -8   8   11.10    9.20
  -3   8   8   10.70   20.90
  -3   8   8   35.70   21.30
  -2  -8   8  193.68   10.40
   2  -8  -8  161.38   24.40
  -2   8   8  224.98   28.20
  -2   8   8  208.18   26.60
   1  -8  -8   25.20   19.30
  -1   8   8    8.40   14.00
  -1   8   8   77.59   23.30
   0  -8  -8   76.59   22.10
   0  -8  -8  100.89   17.70
   0   8   8   78.09   24.80
   0   8   8   87.79   21.20
  -1  -8  -8   29.80   17.00
   1   8   8    6.00   21.80
   1   8   8   15.40   21.30
   3  -9  -8   37.30   24.00
   3  -9  -8    0.30   17.00
  -3   9   8   -4.00   24.00
  -3   9   8  -20.60   20.10
   2  -9  -8  200.38   27.60
  -2   9   8  242.88   30.50
  -2   9   8  192.58   30.70
  -1   9   8  121.79   23.70
  -1   9   8   65.39   25.90
   0  -9  -8   39.90   23.10
   0  -9  -8   66.39   17.60
   0   9   8   14.60   23.20
   0   9   8    7.40   21.50
  -1  -9  -8    7.70   22.50
   1   9   8  127.39   29.80
   2 -10  -8   44.00   18.70
   2 -10  -8   -5.60   24.90
  -2  10   8   81.89   28.00
  -2  10   8    9.60   22.10
   1 -10  -8  -33.80   20.50
   1 -10  -8   11.70   25.60
  -1  10   8  -48.10   25.70
  -1  10   8  -14.00   15.70
   0 -10  -8  -41.60   21.90
   0 -10  -8   24.60   26.10
   0  10   8  -21.60   21.30
   0  10   8  -27.10   27.30
  -4   0   9  -37.30   15.30
  -4   0   9   -0.90   16.50
   4   0  -9   16.80   19.20
   3   0  -9   20.10   15.00
   3   0  -9    3.90   14.50
  -3   0   9   26.90   14.50
  -3   0   9    4.40   15.40
  -2   0   9   -0.80   12.90
   2   0  -9   30.90   14.40
  -2   0   9  -11.90   13.60
   2   0  -9    7.60   12.90
   1   0  -9   -2.30   11.20
  -1   0   9    8.00   13.10
   1   0  -9   13.00   13.50
   0   0   9   11.90   13.00
   0   0  -9    7.00   13.60
   0   0   9   32.40   16.50
   0   0  -9  -11.00   12.20
  -1   0  -9   12.60   14.70
   1   0   9   26.70   17.10
   1   0   9    2.90   16.10
  -1   0  -9   14.60   15.50
  -4  -1   9  -34.30   16.70
   4  -1  -9   -5.10   18.50
   4  -1  -9  -15.90   17.60
  -4  -1   9   -6.00   15.10
  -4   1   9   44.30   19.20
   4   1  -9   12.30   15.30
  -4   1   9  -21.60   17.20
   4   1  -9    8.10   17.90
  -3  -1   9   13.80   14.90
   3  -1  -9   30.40   18.70
   3  -1  -9  -40.30   15.70
   3   1  -9    4.70   14.90
  -3   1   9    1.20   15.60
  -3   1   9   -0.20   15.80
   3   1  -9   15.50   13.20
  -2  -1   9   64.19   16.10
  -2  -1   9   43.90   15.00
   2  -1  -9   71.09   17.00
   2   1  -9   84.39   15.10
   2   1  -9   59.79   13.70
  -2   1   9   56.39   16.10
  -2   1   9   55.09   15.70
   1  -1  -9   10.90   14.50
  -1  -1   9    3.60   13.10
  -1  -1   9    7.80   13.40
   1  -1  -9   22.70   14.40
  -1   1   9   18.00   14.10
   1   1  -9   -6.50   11.10
   1   1  -9   29.30   12.70
  -1   1   9    5.90   14.30
   0  -1   9   54.59   14.00
   0  -1  -9    9.60   14.00
   0  -1   9   24.50   14.80
   0  -1  -9   40.70   16.00
   0   1   9   47.90   16.90
   0   1  -9   14.20   11.50
   0   1  -9   46.70   13.40
   0   1   9   36.10   16.30
   1  -1   9   41.50   15.70
   1  -1   9    2.20   15.40
  -1  -1  -9   28.60   16.50
  -1  -1  -9   45.90   18.20
  -1   1  -9   -7.80   13.90
   1   1   9   30.50   17.00
  -1   1  -9   43.50   14.00
   1   1   9   33.20   16.50
   4  -2  -9   12.20   21.60
   4  -2  -9   15.30   18.00
  -4  -2   9   -0.80   16.60
  -4   2   9   -3.20   16.40
  -4   2   9   -0.80   19.00
   4   2  -9   39.10   17.40
   4   2  -9   -9.50   15.00
   3  -2  -9  -10.10   15.90
  -3  -2   9    9.30   13.10
  -3  -2   9  -24.90   12.60
   3  -2  -9  -10.90   17.90
   3   2  -9  -17.00   13.30
   3   2  -9    9.20   12.60
  -3   2   9  -19.30   16.30
  -3   2   9   17.90   16.60
  -2  -2   9  -12.20   12.20
  -2  -2   9    0.50   12.60
   2  -2  -9    6.80   15.10
   2  -2  -9   -9.70   14.50
   2   2  -9    4.80   11.70
  -2   2   9    8.20   15.10
   2   2  -9    3.70   11.20
  -2   2   9   -1.50   14.80
   1  -2  -9   20.00   15.30
  -1  -2   9   17.80   12.70
  -1  -2   9  -10.00   11.80
   1  -2  -9   22.90   15.00
   1   2  -9    3.20   11.30
  -1   2   9   -5.60   14.10
  -1   2   9   23.20   14.50
   1   2  -9    4.50   10.80
   0  -2   9  -30.60   11.50
   0  -2   9   17.00   12.90
   0  -2  -9   15.90   16.00
   0   2   9  -39.70   15.30
   0   2   9   22.90   15.60
   0   2  -9   27.00   11.60
   0   2  -9    2.50   10.80
   1  -2   9   49.30   15.50
  -1  -2  -9   42.60   18.10
   1  -2   9   80.89   16.10
   1   2   9   17.20   18.20
   1   2   9   35.80   18.20
  -1   2  -9   38.30   13.00
  -1   2  -9   23.20   13.60
   4  -3  -9  -11.20   18.70
   4  -3  -9  -17.80   24.50
  -4  -3   9   -0.20   16.70
  -4  -3   9   -4.60   15.10
  -4   3   9   -8.30   19.30
  -4   3   9   17.90   20.10
   4   3  -9   -8.20   14.10
   4   3  -9    3.80   17.10
  -3  -3   9   52.99   14.40
   3  -3  -9   22.50   17.40
  -3  -3   9   64.29   15.00
   3  -3  -9   25.70   20.00
   3   3  -9   50.69   14.10
  -3   3   9   46.00   18.40
   3   3  -9   26.80   12.60
  -3   3   9   58.89   18.70
   2  -3  -9  -14.80   16.00
  -2  -3   9    8.90   12.00
  -2  -3   9   14.00   12.30
   2  -3  -9   34.20   16.50
  -2   3   9  -18.10   15.50
   2   3  -9   19.40   10.80
  -2   3   9   20.60   16.50
   2   3  -9   16.60   10.70
   1  -3  -9   12.60   14.90
  -1  -3   9   -0.60   11.20
   1  -3  -9  -18.10   14.90
  -1  -3   9   13.50   11.50
   1   3  -9    7.00   10.40
   1   3  -9   -2.90    9.40
  -1   3   9    5.50   16.20
  -1   3   9    7.40   14.30
   0  -3   9   35.20   13.20
   0  -3  -9   59.69   18.00
   0  -3  -9   29.80   17.10
   0  -3   9   35.00   12.80
   0   3  -9   45.40   10.80
   0   3   9   52.19   16.50
   0   3   9   22.20   18.50
   0   3  -9   36.90   10.30
  -1  -3  -9   39.40   21.50
   1  -3   9   40.70   14.60
   1  -3   9   76.19   15.80
  -1  -3  -9   24.60   18.50
  -1   3  -9   41.50   11.80
   1   3   9   50.89   20.40
   1   3   9    0.90   19.00
  -1   3  -9   18.10   11.90
  -3  -4   9    8.00   13.00
   3  -4  -9   -7.10   20.30
  -3  -4   9   15.00   13.40
   3  -4  -9   16.80   18.10
   3   4  -9   28.90   11.80
  -3   4   9   39.30   20.10
   3   4  -9   27.90   11.80
  -3   4   9   -4.30   18.70
  -2  -4   9   -8.70   11.50
  -2  -4   9    2.30   10.80
   2  -4  -9   28.10   18.20
   2  -4  -9   39.70   18.70
  -2   4   9    2.00   17.30
  -2   4   9    8.10   17.20
   2   4  -9   15.40    9.70
   2   4  -9   16.10    9.30
   1  -4  -9    2.00   16.70
   1  -4  -9   43.50   17.30
  -1  -4   9    3.20   11.40
  -1  -4   9    8.70   10.60
   1   4  -9   25.80    8.50
   1   4  -9   15.40    8.30
  -1   4   9   42.90   17.50
  -1   4   9   30.90   15.90
   0  -4   9    3.60   11.50
   0  -4  -9   -3.10   18.10
   0  -4   9    7.00   10.30
   0  -4  -9    7.90   18.10
   0   4   9  -13.90   16.90
   0   4   9   -2.40   18.10
   0   4  -9    1.30    8.10
   0   4  -9   -1.70    8.00
  -1  -4  -9  -24.90   18.00
  -1   4  -9   -4.50    9.30
  -1   4  -9   19.90    9.70
   1   4   9   34.20   21.20
  -3  -5   9    0.60   13.10
   3  -5  -9   17.10   19.90
   3  -5  -9   27.10   20.50
  -3  -5   9   -5.20   12.10
  -3   5   9    4.80   17.70
   3   5  -9   -7.30   10.00
  -3   5   9   35.80   18.30
   3   5  -9    6.30   10.00
   2  -5  -9   55.39   19.90
  -2  -5   9   -2.80   11.40
   2  -5  -9   -5.70   18.10
  -2  -5   9   -2.20   10.00
   2   5  -9    8.30    9.00
  -2   5   9  -35.20   18.20
  -2   5   9   12.50   17.70
   2   5  -9   -3.40    7.00
  -1  -5   9   -0.60   10.40
   1  -5  -9   -7.30   17.80
   1  -5  -9  -35.40   18.40
  -1  -5   9   -9.10    9.20
  -1   5   9    8.30   19.10
  -1   5   9   25.40   17.90
   0  -5  -9   67.39   21.30
   0  -5  -9   23.60   19.80
   0  -5   9   41.80   11.50
   0   5   9   49.20   21.50
   0   5   9   60.29   21.20
   3  -6  -9   31.00   24.20
   3   6  -9   26.30    7.70
  -2  -6   9   83.19   12.70
   2  -6  -9   62.59   22.60
   2  -6  -9   66.99   22.20
  -2   6   9   75.79   23.60
  -2   6   9   45.30   20.50
   1  -6  -9  -14.70   20.50
  -1  -6   9    1.60    8.00
   1  -6  -9  -28.70   19.30
  -1  -6   9    2.10    9.00
  -1   6   9    9.80   19.40
  -1   6   9   -4.20   20.80
   0  -6  -9  -10.80   21.40
   0  -6   9   -1.00    9.60
   0  -6  -9   51.09   20.80
   0   6   9   11.90   21.60
   0   6   9   19.80   22.70
   0   0   0    0.00    0.00

_computing_structure_solution     'SHELXT 2018/2 (Sheldrick, 2018)'
;
loop_
_space_group_symop_operation_xyz
'x, y, z'
'-x, y+1/2, -z+1/2'
'-x, -y, -z'
'x, -y-1/2, z-1/2'
loop_
_atom_site_label
_atom_site_type_symbol
_atom_site_fract_x
_atom_site_fract_y
_atom_site_fract_z
_atom_site_U_iso_or_equiv
_atom_site_adp_type
_atom_site_occupancy
_atom_site_site_symmetry_order
_atom_site_calc_flag
_atom_site_refinement_flags_posn
_atom_site_refinement_flags_adp
_atom_site_refinement_flags_occupancy
_atom_site_disorder_assembly
_atom_site_disorder_group
C1 C 0.2564(3) 0.24552(14) 0.6831(3) 0.0226(5) Uani 1 1 d . . . . .
C2 C 0.4344(3) 0.30516(14) 0.7697(3) 0.0212(5) Uani 1 1 d . . . . .
C3 C 0.4464(3) 0.39823(14) 0.7541(3) 0.0237(5) Uani 1 1 d . . . . .
C4 C 0.6210(4) 0.44297(15) 0.8461(3) 0.0281(6) Uani 1 1 d . . . . .
H4 H 0.633039 0.506139 0.836468 0.034 Uiso 1 1 calc R . . . .
C5 C 0.7774(4) 0.39415(15) 0.9522(3) 0.0282(6) Uani 1 1 d . . . . .
H5 H 0.896206 0.425157 1.015853 0.034 Uiso 1 1 calc R . . . .
C6 C 0.6021(3) 0.26272(14) 0.8778(3) 0.0237(5) Uani 1 1 d . . . . .
H6 H 0.597746 0.199304 0.887286 0.028 Uiso 1 1 calc R . . . .
C7 C 0.2776(4) 0.45240(15) 0.6375(3) 0.0307(6) Uani 1 1 d . . . . .
F1 F 0.1061(2) 0.46464(9) 0.70817(18) 0.0385(4) Uani 1 1 d . . . . .
F2 F 0.3486(2) 0.53504(8) 0.6096(2) 0.0458(5) Uani 1 1 d . . . . .
F3 F 0.2174(2) 0.41500(9) 0.48051(17) 0.0383(4) Uani 1 1 d . . . . .
N1 N 0.7683(3) 0.30548(12) 0.9687(2) 0.0264(5) Uani 1 1 d . . . . .
O1 O 0.0700(3) 0.28262(11) 0.6696(2) 0.0339(5) Uani 1 1 d . . . . .
O2 O 0.2894(3) 0.17027(10) 0.6368(2) 0.0307(4) Uani 1 1 d . . . . .
H1 H -0.031(6) 0.249(2) 0.597(5) 0.091(12) Uiso 1 1 d . . . . .
loop_
_atom_site_aniso_label
_atom_site_aniso_U_11
_atom_site_aniso_U_22
_atom_site_aniso_U_33
_atom_site_aniso_U_23
_atom_site_aniso_U_13
_atom_site_aniso_U_12
C1 0.0221(12) 0.0239(11) 0.0207(11) 0.0034(10) 0.0015(9) 0.0003(9)
C2 0.0212(12) 0.0234(11) 0.0187(10) 0.0014(9) 0.0027(9) 0.0014(9)
C3 0.0226(12) 0.0234(11) 0.0249(11) 0.0004(9) 0.0043(9) 0.0021(9)
C4 0.0289(13) 0.0218(11) 0.0328(12) -0.0013(10) 0.0039(10) -0.0035(9)
C5 0.0204(12) 0.0290(13) 0.0330(13) -0.0045(10) -0.0007(10) -0.0030(9)
C6 0.0207(11) 0.0209(11) 0.0291(11) 0.0002(9) 0.0036(9) -0.0001(9)
C7 0.0301(14) 0.0244(12) 0.0352(13) 0.0023(10) 0.0002(11) 0.0015(9)
F1 0.0270(8) 0.0356(8) 0.0510(9) -0.0031(6) 0.0021(7) 0.0114(6)
F2 0.0453(10) 0.0243(8) 0.0620(10) 0.0137(7) -0.0048(8) 0.0021(6)
F3 0.0398(9) 0.0414(9) 0.0280(8) 0.0031(6) -0.0081(6) 0.0056(6)
N1 0.0192(10) 0.0303(11) 0.0277(10) -0.0013(8) -0.0003(8) -0.0002(8)
O1 0.0187(9) 0.0343(9) 0.0450(10) -0.0095(8) -0.0036(7) 0.0007(7)
O2 0.0297(9) 0.0225(9) 0.0372(9) -0.0036(7) -0.0006(7) -0.0010(7)
loop_
_atom_type_symbol
_atom_type_description
_atom_type_scat_dispersion_real
_atom_type_scat_dispersion_imag
_atom_type_scat_source
C C 0.0033 0.0016 'International Tables Vol C Tables 4.2.6.8 and 6.1.1.4'
H H 0.0000 0.0000 'International Tables Vol C Tables 4.2.6.8 and 6.1.1.4'
F F 0.0171 0.0103 'International Tables Vol C Tables 4.2.6.8 and 6.1.1.4'
O O 0.0106 0.0060 'International Tables Vol C Tables 4.2.6.8 and 6.1.1.4'
N N 0.0061 0.0033 'International Tables Vol C Tables 4.2.6.8 and 6.1.1.4'
loop_
_geom_angle_atom_site_label_1
_geom_angle_atom_site_label_2
_geom_angle_atom_site_label_3
_geom_angle
_geom_angle_site_symmetry_1
_geom_angle_site_symmetry_3
O1 C1 C2 113.33(18) . .
O2 C1 C2 121.25(19) . .
O2 C1 O1 125.4(2) . .
C3 C2 C1 126.75(18) . .
C6 C2 C1 116.16(18) . .
C6 C2 C3 117.09(19) . .
C2 C3 C7 122.52(19) . .
C4 C3 C2 119.1(2) . .
C4 C3 C7 118.32(19) . .
C3 C4 H4 120.5 . .
C5 C4 C3 118.9(2) . .
C5 C4 H4 120.5 . .
C4 C5 H5 118.7 . .
N1 C5 C4 122.7(2) . .
N1 C5 H5 118.7 . .
C2 C6 H6 118.0 . .
N1 C6 C2 124.0(2) . .
N1 C6 H6 118.0 . .
F1 C7 C3 112.53(18) . .
F1 C7 F2 105.89(18) . .
F2 C7 C3 110.99(19) . .
F3 C7 C3 112.21(18) . .
F3 C7 F1 108.33(19) . .
F3 C7 F2 106.51(19) . .
C6 N1 C5 118.11(19) . .
C1 O1 H1 110(2) . .
loop_
_geom_bond_atom_site_label_1
_geom_bond_atom_site_label_2
_geom_bond_distance
_geom_bond_site_symmetry_2
C1 C2 1.507(3) .
C1 O1 1.309(3) .
C1 O2 1.210(2) .
C2 C3 1.397(3) .
C2 C6 1.391(3) .
C3 C4 1.385(3) .
C3 C7 1.512(3) .
C4 H4 0.9500 .
C4 C5 1.384(3) .
C5 H5 0.9500 .
C5 N1 1.332(3) .
C6 H6 0.9500 .
C6 N1 1.330(3) .
C7 F1 1.338(3) .
C7 F2 1.347(3) .
C7 F3 1.333(3) .
O1 H1 0.93(4) .
