#------------------------------------------------------------------------------
#$Date: 2022-06-13 12:03:28 +0300 (Mon, 13 Jun 2022) $
#$Revision: 275995 $
#$URL: file:///home/coder/svn-repositories/cod/cif/8/10/54/8105400.cif $
#------------------------------------------------------------------------------
#
# This file is available in the Crystallography Open Database (COD),
# http://www.crystallography.net/
#
# All data on this site have been placed in the public domain by the
# contributors.
#
data_8105400
loop_
_publ_author_name
'Wu, Chong'
'Wu, Shou-Ting'
'Zhang, Qi-Long'
'Zou, Juan'
_publ_section_title
;
 Crystal structure of 4-(3-(pyridin-3-yl)ureido)benzoic acid --- adipic
 acid (2/1), C16H16N3O5
;
_journal_issue                   5
_journal_name_full
'Zeitschrift f\"ur Kristallographie - New Crystal Structures'
_journal_page_first              1135
_journal_page_last               1136
_journal_paper_doi               10.1515/ncrs-2020-0203
_journal_volume                  235
_journal_year                    2020
_chemical_formula_moiety         'C13 H11 N3 O3, C3 H5 O2'
_chemical_formula_sum            'C16 H16 N3 O5'
_chemical_formula_weight         330.32
_space_group_crystal_system      triclinic
_space_group_IT_number           2
_space_group_name_Hall           '-P 1'
_space_group_name_H-M_alt        'P -1'
_atom_sites_solution_hydrogens   geom
_cell_angle_alpha                116.680(2)
_cell_angle_beta                 113.268(2)
_cell_angle_gamma                95.809(2)
_cell_formula_units_Z            2
_cell_length_a                   9.6481(6)
_cell_length_b                   10.0123(6)
_cell_length_c                   10.1667(6)
_cell_measurement_reflns_used    1650
_cell_measurement_temperature    293(2)
_cell_measurement_theta_max      26.29
_cell_measurement_theta_min      2.68
_cell_volume                     758.31(8)
_computing_cell_refinement       'SAINT (Brucker, 2012)[2]'
_computing_data_collection       'APEX2 (Brucker, 2012)[2]'
_computing_data_reduction        'SAINT (Brucker, 2012)[2]'
_computing_molecular_graphics    'Diamond 4.0[4]'
_computing_publication_material  'Olex2 (Dolomanov et al., 2009)[1]'
_computing_structure_refinement  'ShelXL (Sheldrick, 2015)[3]'
_diffrn_ambient_temperature      293(2)
_diffrn_measured_fraction_theta_full 0.999
_diffrn_measured_fraction_theta_max 0.999
_diffrn_measurement_device_type  'CCD area detector'
_diffrn_measurement_method       'phi and omega scans'
_diffrn_radiation_monochromator  graphite
_diffrn_radiation_type           MoK\a
_diffrn_radiation_wavelength     0.71073
_diffrn_reflns_av_R_equivalents  0.0156
_diffrn_reflns_av_unetI/netI     0.0259
_diffrn_reflns_Laue_measured_fraction_full 0.999
_diffrn_reflns_Laue_measured_fraction_max 0.999
_diffrn_reflns_limit_h_max       11
_diffrn_reflns_limit_h_min       -10
_diffrn_reflns_limit_k_max       8
_diffrn_reflns_limit_k_min       -11
_diffrn_reflns_limit_l_max       12
_diffrn_reflns_limit_l_min       -12
_diffrn_reflns_number            4933
_diffrn_reflns_point_group_measured_fraction_full 0.999
_diffrn_reflns_point_group_measured_fraction_max 0.999
_diffrn_reflns_theta_full        24.961
_diffrn_reflns_theta_max         24.961
_diffrn_reflns_theta_min         2.416
_exptl_absorpt_coefficient_mu    0.110
_exptl_absorpt_correction_T_max  0.9774
_exptl_absorpt_correction_T_min  0.9731
_exptl_absorpt_correction_type   multi-scan
_exptl_crystal_colour            COLOURLESS
_exptl_crystal_density_diffrn    1.447
_exptl_crystal_density_method    'not measured'
_exptl_crystal_description       BLOCK
_exptl_crystal_F_000             346
_exptl_crystal_size_max          0.25
_exptl_crystal_size_mid          0.24
_exptl_crystal_size_min          0.21
_refine_diff_density_max         0.278
_refine_diff_density_min         -0.283
_refine_diff_density_rms         0.057
_refine_ls_extinction_coef       .
_refine_ls_extinction_method     none
_refine_ls_goodness_of_fit_ref   1.052
_refine_ls_hydrogen_treatment    constr
_refine_ls_matrix_type           full
_refine_ls_number_parameters     217
_refine_ls_number_reflns         2663
_refine_ls_number_restraints     0
_refine_ls_restrained_S_all      1.052
_refine_ls_R_factor_all          0.0547
_refine_ls_R_factor_gt           0.0426
_refine_ls_shift/su_max          0.000
_refine_ls_shift/su_mean         0.000
_refine_ls_structure_factor_coef Fsqd
_refine_ls_weighting_details
'w=1/[\s^2^(Fo^2^)+(0.0625P)^2^+0.1881P] where P=(Fo^2^+2Fc^2^)/3'
_refine_ls_weighting_scheme      calc
_refine_ls_wR_factor_gt          0.1101
_refine_ls_wR_factor_ref         0.1212
_reflns_Friedel_coverage         0.000
_reflns_Friedel_fraction_full    .
_reflns_Friedel_fraction_max     .
_reflns_number_gt                2131
_reflns_number_total             2663
_reflns_threshold_expression     'I > 2\s(I)'
_cod_data_source_file            suppl_ncrs-2020-0203_suppl.cif
_cod_data_source_block           a
_cod_database_code               8105400
_shelx_space_group_comment
;
The symmetry employed for this shelxl refinement is uniquely defined
by the following loop, which should always be used as a source of
symmetry information in preference to the above space-group names.
They are only intended as comments.
;
_shelx_estimated_absorpt_t_max   0.977
_shelx_estimated_absorpt_t_min   0.973
_olex2_refinement_description
;
1. Fixed Uiso
 At 1.2 times of:
  All C(H) groups, All C(H,H) groups, All N(H) groups
 At 1.5 times of:
  All O(H) groups
2.a Secondary CH2 refined with riding coordinates:
 C15(H15A,H15B), C16(H16A,H16B)
2.b Aromatic/amide H refined with riding coordinates:
 C3(H3), C4(H4), C6(H6), C7(H7), C10(H10), C11(H11), C12(H12), C13(H13),
 N1(H1), N2(H2)
2.c Tetrahedral OH refined with riding coordinates:
 O2(H2A), O4(H4A)
;
_shelx_res_file
;
    a.res created by SHELXL-2014/7

TITL a in P -1
CELL 0.71073 9.6481 10.0123 10.1667 116.68 113.268 95.809
ZERR 2 0.0006 0.0006 0.0006 0.002 0.002 0.002
LATT 1
SFAC C H N O
UNIT 32 32 6 10
EQIV $1 -1+X,-1+Y,+Z
EQIV $2 2-X,-Y,1-Z
EQIV $3 2-X,1-Y,-Z
EQIV $4 +X,+Y,-1+Z

L.S. 4
PLAN  25
SIZE 0.21 0.24 0.25
HTAB C4 O1
HTAB C10 O1
HTAB C12 O3_$1
HTAB N1 O5_$2
HTAB N2 O5_$2
HTAB O2 O3_$3
HTAB O4 N3_$4
BOND $H
fmap 2
acta
MERG 2
OMIT -3 50
REM <olex2.extras>
REM <HklSrc "%.\\A.hkl">
REM </olex2.extras>

WGHT    0.062500    0.188100
FVAR       0.16515
C1    1    0.953721    0.388500    0.096804    11.00000    0.03859    0.04873 =
         0.03898    0.02912    0.01543    0.00842
C2    1    0.919925    0.314582    0.182021    11.00000    0.04160    0.04428 =
         0.03790    0.02704    0.01867    0.01068
C3    1    0.771518    0.207226    0.114192    11.00000    0.04012    0.04962 =
         0.03482    0.02693    0.01311    0.00828
AFIX  43
H3    2    0.689197    0.177510    0.008489    11.00000   -1.20000
AFIX   0
C4    1    0.743903    0.143817    0.200676    11.00000    0.03945    0.05045 =
         0.03898    0.02823    0.01464    0.00307
AFIX  43
H4    2    0.643571    0.072608    0.154173    11.00000   -1.20000
AFIX   0
C5    1    0.868095    0.187510    0.358978    11.00000    0.04229    0.04376 =
         0.03664    0.02585    0.01852    0.00858
C6    1    1.016594    0.294224    0.426327    11.00000    0.03989    0.06003 =
         0.03773    0.03293    0.01063    0.00585
AFIX  43
H6    2    1.099764    0.322866    0.531126    11.00000   -1.20000
AFIX   0
C7    1    1.042087    0.357865    0.340215    11.00000    0.03806    0.05742 =
         0.04602    0.03499    0.01446    0.00259
AFIX  43
H7    2    1.141847    0.430624    0.387784    11.00000   -1.20000
AFIX   0
C8    1    0.731747    0.017652    0.421740    11.00000    0.04373    0.04550 =
         0.03724    0.02754    0.01795    0.00858
C9    1    0.673637   -0.101491    0.570779    11.00000    0.03948    0.04242 =
         0.03701    0.02513    0.01765    0.00776
C10   1    0.518598   -0.203252    0.447311    11.00000    0.04139    0.05254 =
         0.03790    0.02763    0.01372    0.00509
AFIX  43
H10   2    0.468487   -0.207397    0.345735    11.00000   -1.20000
AFIX   0
C11   1    0.741109   -0.100265    0.719945    11.00000    0.03944    0.05084 =
         0.04103    0.02993    0.01449    0.00342
AFIX  43
H11   2    0.845088   -0.031413    0.803779    11.00000   -1.20000
AFIX   0
C12   1    0.440314   -0.298334    0.478715    11.00000    0.04011    0.05729 =
         0.04774    0.02993    0.01334   -0.00166
AFIX  43
H12   2    0.336078   -0.368097    0.397490    11.00000   -1.20000
AFIX   0
C13   1    0.515249   -0.290529    0.628774    11.00000    0.04761    0.05247 =
         0.05028    0.03310    0.02173    0.00244
AFIX  43
H13   2    0.460234   -0.355675    0.647515    11.00000   -1.20000
AFIX   0
C14   1    0.804682   -0.251908    0.084613    11.00000    0.03897    0.05126 =
         0.03925    0.02813    0.01635    0.00893
C15   1    0.633080   -0.358352   -0.018704    11.00000    0.03680    0.05062 =
         0.03581    0.02701    0.01436    0.00780
AFIX  23
H15A  2    0.611780   -0.434626   -0.131826    11.00000   -1.20000
H15B  2    0.564935   -0.294594   -0.028841    11.00000   -1.20000
AFIX   0
C16   1    0.587344   -0.448162    0.053010    11.00000    0.04053    0.05157 =
         0.04249    0.03106    0.01854    0.00978
AFIX  23
H16A  2    0.653332   -0.514180    0.060810    11.00000   -1.20000
H16B  2    0.609719   -0.372495    0.166765    11.00000   -1.20000
AFIX   0
N1    3    0.769073    0.001447    0.558088    11.00000    0.03981    0.05973 =
         0.03928    0.03434    0.00911   -0.00348
AFIX  43
H1    2    0.862117    0.061854    0.645696    11.00000   -1.20000
AFIX   0
N2    3    0.855149    0.133047    0.459210    11.00000    0.04305    0.06225 =
         0.03627    0.03394    0.00861   -0.00334
AFIX  43
H2    2    0.936666    0.178666    0.559235    11.00000   -1.20000
AFIX   0
N3    3    0.664284   -0.192892    0.749064    11.00000    0.04526    0.05181 =
         0.04457    0.03302    0.01923    0.00690
O1    4    0.607401   -0.060039    0.287588    11.00000    0.05059    0.05442 =
         0.03569    0.02725    0.01065   -0.00224
O2    4    0.839276    0.333999   -0.057902    11.00000    0.04373    0.06767 =
         0.04323    0.03952    0.01251    0.00076
AFIX  83
H2A   2    0.867618    0.381100   -0.096249    11.00000   -1.50000
AFIX   0
O3    4    1.080463    0.494165    0.166003    11.00000    0.04869    0.06795 =
         0.04922    0.04275    0.00946   -0.00518
O4    4    0.854016   -0.170335    0.031393    11.00000    0.03910    0.06087 =
         0.05714    0.04144    0.01661    0.00434
AFIX  83
H4A   2    0.791888   -0.123789    0.008979    11.00000   -1.50000
AFIX   0
O5    4    0.898966   -0.240367    0.213821    11.00000    0.04260    0.09757 =
         0.05155    0.05312    0.00382   -0.00002
HKLF 4

REM  a in P -1
REM R1 =  0.0426 for    2131 Fo > 4sig(Fo)  and  0.0547 for all    2663 data
REM    217 parameters refined using      0 restraints

END

WGHT      0.0625      0.1881

REM Highest difference peak  0.278,  deepest hole -0.283,  1-sigma level  0.057
Q1    1   0.7684 -0.2109 -0.1026  11.00000  0.05    0.28
Q2    1   0.5685 -0.2200  0.0601  11.00000  0.05    0.14
Q3    1   0.5259 -0.2799  0.1962  11.00000  0.05    0.13
Q4    1   0.5912 -0.0726  0.8362  11.00000  0.05    0.13
Q5    1   0.9352  0.2399 -0.1803  11.00000  0.05    0.13
Q6    1   0.5985 -0.3784  0.4058  11.00000  0.05    0.13
Q7    1   0.8719  0.1123  0.9253  11.00000  0.05    0.13
Q8    1   0.8768 -0.3017  0.1198  11.00000  0.05    0.12
Q9    1   0.2995 -0.2911  0.4427  11.00000  0.05    0.12
Q10   1   0.6293 -0.6132 -0.0644  11.00000  0.05    0.12
Q11   1   0.4990 -0.2647  0.3046  11.00000  0.05    0.12
Q12   1   0.9024  0.3578  0.6040  11.00000  0.05    0.11
Q13   1   0.4437 -0.5425  0.4911  11.00000  0.05    0.11
Q14   1   0.9061  0.2982 -0.2554  11.00000  0.05    0.11
Q15   1   0.6402 -0.2913  0.3708  11.00000  0.05    0.11
Q16   1   0.8886  0.1839 -0.1039  11.00000  0.05    0.11
Q17   1   0.7228 -0.3317  0.6329  11.00000  0.05    0.11
Q18   1   0.5512  0.0552  0.3596  11.00000  0.05    0.11
Q19   1   1.0687  0.4324  0.5980  11.00000  0.05    0.11
Q20   1   0.5437  0.0051  0.6341  11.00000  0.05    0.11
Q21   1   0.7439 -0.0806  0.2354  11.00000  0.05    0.11
Q22   1   0.8534 -0.1262  0.2798  11.00000  0.05    0.11
Q23   1   0.4734  0.1487  0.1519  11.00000  0.05    0.11
Q24   1   0.7319 -0.5508  0.0787  11.00000  0.05    0.11
Q25   1   1.0223  0.1862  0.1182  11.00000  0.05    0.11
;
_shelx_hkl_file
;
  -1   0   0   20.49    0.30
  -1   0   0   20.77    0.30
   1   0   0   20.94    0.30
   1   0   0   21.74    0.30
  -2   0   0    0.79    0.04
  -2   0   0    0.69    0.04
   2   0   0    0.72    0.04
  -3   0   0    9.05    0.18
   3   0   0    9.37    0.18
  -4   0   0    6.73    0.17
   4   0   0    6.83    0.17
   5   0   0    0.82    0.06
   6   0   0    0.33    0.05
   7   0   0    0.01    0.03
   8   0   0    1.08    0.11
   9   0   0    0.13    0.05
  10  -1   0    0.13    0.05
   9  -1   0    0.22    0.06
   8  -1   0    0.90    0.09
   7  -1   0    3.08    0.14
   6  -1   0    0.96    0.07
   5  -1   0    2.27    0.10
   4  -1   0   12.51    0.24
   3  -1   0    1.14    0.05
   2  -1   0  240.13    3.42
   1  -1   0    2.94    0.05
  -1   1   0    2.93    0.06
   0  -1   0   12.81    0.19
   0  -1   0   13.06    0.19
   0   1   0   12.92    0.18
  -1  -1   0   28.66    0.41
  -1  -1   0   29.23    0.40
  -1  -1   0   28.64    0.42
   1   1   0   29.18    0.42
  -2  -1   0   32.48    0.48
  -2  -1   0   31.90    0.48
   2   1   0   31.83    0.44
  -3  -1   0   11.48    0.22
  -3  -1   0   11.27    0.22
   3   1   0   11.26    0.17
  -4  -1   0    0.04    0.02
  -4  -1   0    0.05    0.02
   4   1   0    0.02    0.01
  -5  -1   0    0.72    0.07
   5   1   0    0.58    0.06
  -6  -1   0    0.41    0.06
   6   1   0    0.38    0.06
  -7  -1   0    0.10    0.04
   7   1   0    0.09    0.04
   8   1   0    3.73    0.17
   9   1   0    0.00    0.03
  10  -2   0    0.00    0.04
   9  -2   0    1.49    0.11
   8  -2   0    0.07    0.04
   7  -2   0    1.84    0.11
   6  -2   0   14.14    0.30
   5  -2   0    0.10    0.03
   4  -2   0    0.34    0.04
   3  -2   0   35.80    0.53
   2  -2   0   13.94    0.22
   1  -2   0    0.36    0.02
   1  -2   0    0.30    0.02
  -1   2   0    0.33    0.02
   0  -2   0   52.55    0.81
   0  -2   0   53.67    0.78
   0   2   0   52.91    0.77
  -1  -2   0   14.80    0.24
  -1  -2   0   14.63    0.24
  -2  -2   0    5.86    0.13
  -2  -2   0    5.71    0.13
  -3  -2   0   10.61    0.21
  -3  -2   0   10.56    0.22
  -4  -2   0    0.06    0.02
  -4  -2   0    0.09    0.03
  -5  -2   0    3.12    0.12
  -5  -2   0    3.40    0.13
  -6  -2   0    2.86    0.13
   6   2   0    2.89    0.13
  -7  -2   0    0.81    0.09
   7   2   0    0.82    0.09
  -8  -2   0    0.01    0.03
   8   2   0   -0.02    0.02
   9   2   0    0.00    0.03
  10  -3   0    0.18    0.06
   9  -3   0    0.80    0.09
   8  -3   0    0.00    0.03
   7  -3   0    3.05    0.13
   6  -3   0    0.01    0.02
   5  -3   0    7.49    0.18
   4  -3   0    2.88    0.09
   3  -3   0    6.58    0.13
   2  -3   0    6.32    0.14
   2  -3   0    6.33    0.12
   1  -3   0    0.15    0.02
   1  -3   0    0.13    0.01
   0  -3   0    0.00    0.01
   0  -3   0   -0.01    0.01
  -1  -3   0    1.91    0.06
  -1  -3   0    1.91    0.06
  -2  -3   0   43.52    0.66
  -2  -3   0   43.05    0.65
  -3  -3   0    1.14    0.06
  -3  -3   0    1.13    0.07
  -4  -3   0    4.86    0.15
  -4  -3   0    5.05    0.15
  -5  -3   0    2.91    0.13
  -5  -3   0    2.63    0.12
  -6  -3   0    0.68    0.08
   6   3   0    0.58    0.08
  -7  -3   0    0.21    0.06
   7   3   0    0.23    0.05
  -8  -3   0    0.55    0.09
   8   3   0    0.47    0.08
  10  -4   0    2.45    0.15
   9  -4   0    2.84    0.15
   8  -4   0    0.01    0.04
   7  -4   0    2.88    0.13
   6  -4   0    0.04    0.03
   5  -4   0    0.78    0.06
   4  -4   0    7.28    0.16
   4  -4   0    7.25    0.18
   3  -4   0   13.86    0.26
   3  -4   0   13.38    0.23
   2  -4   0    0.13    0.02
   2  -4   0    0.15    0.02
   1  -4   0    0.73    0.03
   1  -4   0    0.74    0.04
   0  -4   0    0.10    0.02
   0  -4   0    0.04    0.01
  -1  -4   0    0.03    0.01
  -1  -4   0    0.02    0.01
  -2  -4   0    2.37    0.09
  -2  -4   0    2.41    0.09
  -3  -4   0   -0.01    0.02
  -3  -4   0    0.03    0.02
  -4  -4   0    0.15    0.04
  -4  -4   0    0.23    0.04
  -5  -4   0    0.93    0.09
  -5  -4   0    0.77    0.08
  -6  -4   0    4.60    0.18
   6   4   0    4.49    0.18
  -7  -4   0    0.08    0.05
   7   4   0    0.10    0.04
  10  -5   0    0.24    0.07
   9  -5   0    0.39    0.07
   8  -5   0    0.71    0.08
   7  -5   0    0.82    0.08
   6  -5   0    0.00    0.02
   5  -5   0    0.15    0.04
   5  -5   0    0.15    0.03
   4  -5   0    1.25    0.06
   4  -5   0    1.01    0.07
   3  -5   0    1.07    0.05
   3  -5   0    1.08    0.06
   2  -5   0    0.40    0.03
   2  -5   0    0.35    0.04
   1  -5   0    5.37    0.13
   1  -5   0    5.02    0.11
   0  -5   0   -0.01    0.01
   0  -5   0   -0.01    0.01
  -1  -5   0    4.32    0.12
  -1  -5   0    4.46    0.12
  -2  -5   0    7.95    0.19
  -2  -5   0    7.59    0.19
  -3  -5   0    2.17    0.05
  -3  -5   0    2.34    0.11
  -3  -5   0    2.50    0.11
  -4  -5   0    1.53    0.09
  -4  -5   0    1.42    0.09
  -5  -5   0    0.13    0.05
  -5  -5   0    0.09    0.04
  -6  -5   0    0.18    0.06
  -6  -5   0    0.11    0.04
   6   5   0    0.15    0.05
  -7  -5   0   -0.01    0.03
   7   5   0    0.03    0.03
  10  -6   0    1.07    0.11
   9  -6   0    0.09    0.04
   8  -6   0    0.00    0.03
   8  -6   0    0.04    0.04
   7  -6   0    0.12    0.04
   7  -6   0    0.06    0.04
   6  -6   0    0.03    0.03
   6  -6   0    0.01    0.03
   5  -6   0    3.03    0.10
   5  -6   0    3.19    0.13
   4  -6   0    0.18    0.03
   4  -6   0    0.16    0.03
   3  -6   0    0.07    0.02
   3  -6   0    0.04    0.01
   2  -6   0    1.28    0.07
   2  -6   0    1.29    0.05
   1  -6   0    2.89    0.10
   1  -6   0    2.99    0.09
   0  -6   0    5.82    0.15
   0  -6   0    6.23    0.16
  -1  -6   0    1.84    0.08
  -1  -6   0    1.69    0.08
  -2  -6   0    0.04    0.02
  -2  -6   0    0.02    0.02
  -3  -6   0    3.27    0.13
  -3  -6   0    3.28    0.13
  -4  -6   0    0.01    0.03
  -4  -6   0    0.02    0.03
  -5  -6   0    0.00    0.03
  -5  -6   0   -0.04    0.03
  -6  -6   0    0.02    0.03
   6   6   0    0.05    0.03
   9  -7   0    0.03    0.04
   9  -7   0    0.11    0.05
   8  -7   0    0.31    0.05
   8  -7   0    0.33    0.07
   7  -7   0    1.75    0.09
   7  -7   0    1.85    0.12
   6  -7   0    0.02    0.03
   6  -7   0   -0.02    0.02
   5  -7   0    0.00    0.02
   5  -7   0    0.01    0.02
   4  -7   0    1.01    0.07
   4  -7   0    1.14    0.06
   3  -7   0    0.01    0.02
   3  -7   0    0.00    0.01
   2  -7   0    1.34    0.07
   2  -7   0    1.24    0.06
   1  -7   0    1.27    0.07
   1  -7   0    1.33    0.07
   0  -7   0    0.14    0.03
   0  -7   0    0.17    0.03
  -1  -7   0    0.85    0.07
  -1  -7   0    0.83    0.06
  -2  -7   0    0.10    0.03
  -2  -7   0    0.02    0.02
  -3  -7   0    2.03    0.11
  -3  -7   0    1.79    0.11
  -4  -7   0    0.60    0.08
  -4  -7   0    0.89    0.10
  -5  -7   0    0.00    0.03
  -5  -7   0   -0.01    0.03
   9  -8   0    0.05    0.04
   9  -8   0    0.05    0.05
   8  -8   0    0.06    0.03
   8  -8   0    0.00    0.03
   7  -8   0    0.07    0.03
   7  -8   0    0.07    0.04
   6  -8   0    0.09    0.03
   6  -8   0    0.05    0.03
   5  -8   0    0.36    0.04
   5  -8   0    0.35    0.05
   4  -8   0    0.03    0.02
   4  -8   0    0.01    0.02
   3  -8   0    0.08    0.03
   3  -8   0    0.13    0.03
   2  -8   0    0.02    0.02
   2  -8   0    0.00    0.01
   1  -8   0    0.03    0.02
   1  -8   0    0.01    0.02
   0  -8   0    0.09    0.03
   0  -8   0    0.08    0.03
  -1  -8   0    2.69    0.12
  -1  -8   0    2.32    0.11
  -2  -8   0    2.18    0.11
  -2  -8   0    1.89    0.11
  -3  -8   0    0.01    0.03
  -3  -8   0    0.04    0.03
   8  -9   0    0.13    0.03
   8  -9   0    0.04    0.03
   7  -9   0    0.06    0.02
   7  -9   0    0.13    0.04
   6  -9   0    0.08    0.03
   6  -9   0    0.09    0.03
   5  -9   0    0.02    0.02
   5  -9   0   -0.02    0.02
   4  -9   0    0.04    0.02
   4  -9   0    0.01    0.02
   3  -9   0    0.45    0.06
   3  -9   0    0.53    0.05
   2  -9   0    0.11    0.03
   2  -9   0    0.01    0.02
   1  -9   0    0.17    0.04
   1  -9   0    0.13    0.04
   0  -9   0    0.05    0.03
   0  -9   0   -0.02    0.02
  -1  -9   0    0.03    0.03
  -1  -9   0    0.02    0.03
  -2  -9   0    1.37    0.10
   6 -10   0    0.03    0.03
   5 -10   0    0.39    0.06
   4 -10   0    0.35    0.06
   3 -10   0    0.00    0.03
   2 -10   0    0.02    0.03
   1 -10   0    0.39    0.06
   3 -11   1    0.00    0.02
  -1 -10   1    1.40    0.10
   0 -10   1    1.14    0.09
   1 -10   1    0.03    0.03
   2 -10   1   -0.01    0.02
   3 -10   1    0.03    0.03
   4 -10   1    0.03    0.03
   5 -10   1    0.13    0.04
   6 -10   1    0.21    0.05
   7 -10   1    0.01    0.03
  -3  -9   1   -0.02    0.02
  -2  -9   1    0.02    0.03
  -1  -9   1    0.68    0.07
   0  -9   1    0.60    0.07
   1  -9   1    0.01    0.02
   2  -9   1    0.40    0.05
   3  -9   1   -0.02    0.02
   4  -9   1    0.03    0.02
   4  -9   1    0.06    0.02
   5  -9   1    0.50    0.07
   5  -9   1    0.66    0.05
   6  -9   1    0.05    0.02
   6  -9   1    0.05    0.03
   7  -9   1    0.12    0.05
   7  -9   1    0.14    0.03
   8  -9   1    0.13    0.04
   8  -9   1    0.12    0.05
  -4  -8   1    0.34    0.06
  -4  -8   1    0.33    0.06
  -3  -8   1    0.59    0.07
  -3  -8   1    0.63    0.07
  -2  -8   1    1.18    0.08
  -2  -8   1    1.06    0.08
  -1  -8   1    0.95    0.07
  -1  -8   1    1.16    0.08
   0  -8   1    0.00    0.02
   0  -8   1   -0.01    0.02
   1  -8   1    0.25    0.03
   1  -8   1    0.20    0.04
   2  -8   1    2.93    0.09
   2  -8   1    3.30    0.12
   3  -8   1    2.50    0.11
   3  -8   1    2.27    0.07
   4  -8   1    0.00    0.02
   4  -8   1    0.01    0.01
   5  -8   1    0.38    0.04
   5  -8   1    0.35    0.05
   6  -8   1    0.04    0.03
   6  -8   1    0.09    0.03
   7  -8   1    0.21    0.05
   7  -8   1    0.31    0.05
   8  -8   1    0.03    0.03
   8  -8   1    0.02    0.04
   9  -8   1   -0.05    0.03
   9  -8   1   -0.02    0.04
   5   7  -1    1.28    0.09
  -5  -7   1    1.02    0.11
  -4  -7   1    3.59    0.14
  -4  -7   1    3.38    0.15
  -3  -7   1    0.03    0.03
  -3  -7   1    0.02    0.02
  -2  -7   1    0.29    0.04
  -2  -7   1    0.29    0.05
  -1  -7   1    0.39    0.05
  -1  -7   1    0.42    0.05
   0  -7   1    0.93    0.05
   0  -7   1    0.91    0.06
   1  -7   1    1.71    0.08
   1  -7   1    1.67    0.06
   2  -7   1    0.35    0.04
   2  -7   1    0.42    0.03
   3  -7   1   -0.01    0.02
   3  -7   1    0.00    0.01
   4  -7   1    0.63    0.04
   4  -7   1    0.57    0.06
   5  -7   1    0.55    0.07
   5  -7   1    0.46    0.05
   6  -7   1    0.35    0.06
   6  -7   1    0.29    0.04
   7  -7   1    0.06    0.03
   7  -7   1    0.03    0.03
   8  -7   1    0.00    0.03
   8  -7   1    0.04    0.04
   9  -7   1    0.02    0.04
   9  -7   1    0.09    0.05
   6   6  -1    2.44    0.13
  -6  -6   1    2.44    0.14
   5   6  -1    0.08    0.03
  -5  -6   1    0.17    0.05
  -4  -6   1    5.40    0.17
  -4  -6   1    5.62    0.18
  -3  -6   1    7.13    0.19
  -3  -6   1    7.00    0.14
  -3  -6   1    7.08    0.19
  -2  -6   1   -0.01    0.01
  -2  -6   1   -0.02    0.01
  -1  -6   1    1.08    0.06
  -1  -6   1    1.30    0.07
   0  -6   1    0.34    0.04
   0  -6   1    0.45    0.04
   1  -6   1    0.14    0.02
   1  -6   1    0.12    0.03
   2  -6   1    1.18    0.06
   2  -6   1    1.15    0.04
   3  -6   1    4.06    0.09
   3  -6   1    4.24    0.13
   4  -6   1    0.27    0.03
   4  -6   1    0.42    0.05
   5  -6   1    0.60    0.07
   5  -6   1    0.69    0.06
   6  -6   1   -0.01    0.03
   6  -6   1   -0.01    0.03
   7  -6   1    0.15    0.04
   7  -6   1    0.18    0.05
   8  -6   1    0.05    0.04
   9  -6   1    0.51    0.08
   7   5  -1    0.27    0.06
  -7  -5   1    0.34    0.07
   6   5  -1    2.64    0.13
  -6  -5   1    2.47    0.14
   5   5  -1    3.07    0.13
  -5  -5   1    2.81    0.13
  -4  -5   1    0.02    0.03
  -4  -5   1    0.01    0.02
  -4  -5   1    0.02    0.01
  -3  -5   1    0.19    0.04
  -3  -5   1    0.37    0.03
  -3  -5   1    0.29    0.04
  -2  -5   1    1.93    0.08
  -2  -5   1    1.69    0.08
  -1  -5   1    4.80    0.12
  -1  -5   1    4.77    0.11
   0  -5   1    5.80    0.14
   0  -5   1    5.66    0.12
   1  -5   1    0.61    0.03
   1  -5   1    0.64    0.04
   2  -5   1    7.01    0.16
   2  -5   1    6.90    0.12
   3  -5   1    0.01    0.02
   3  -5   1   -0.01    0.01
   4  -5   1    0.12    0.03
   4  -5   1    0.09    0.03
   5  -5   1   11.76    0.24
   5  -5   1   11.76    0.28
   6  -5   1    2.65    0.11
   7  -5   1    0.62    0.07
   8  -5   1    0.06    0.04
   9  -5   1   -0.05    0.03
  10  -5   1    0.05    0.05
   8   4  -1    0.05    0.04
  -8  -4   1   -0.01    0.03
   7   4  -1    0.02    0.03
  -7  -4   1    0.01    0.03
   6   4  -1    0.03    0.02
  -6  -4   1   -0.02    0.03
   5   4  -1    7.48    0.21
  -5  -4   1    7.20    0.21
  -4  -4   1    0.13    0.01
  -4  -4   1    0.14    0.03
  -4  -4   1    0.11    0.03
  -3  -4   1    3.64    0.08
  -3  -4   1    3.38    0.11
  -3  -4   1    3.64    0.11
  -2  -4   1   24.51    0.40
  -2  -4   1   24.64    0.39
  -1  -4   1   12.89    0.22
  -1  -4   1   13.57    0.24
   0   4  -1    5.68    0.10
   0  -4   1    5.93    0.11
   0  -4   1    5.74    0.13
  -1   4  -1    1.28    0.04
   1  -4   1    1.25    0.03
   1  -4   1    1.35    0.05
   2  -4   1    0.46    0.04
   2  -4   1    0.44    0.03
   3  -4   1   12.83    0.22
   3  -4   1   12.75    0.25
   4  -4   1    0.20    0.03
   5  -4   1    0.02    0.02
   6  -4   1   -0.02    0.02
   7  -4   1    0.43    0.06
   8  -4   1    3.86    0.16
   9  -4   1    0.02    0.04
  10  -4   1    0.12    0.06
   9   3  -1   -0.02    0.03
  -9  -3   1    0.02    0.04
   8   3  -1    0.08    0.04
  -8  -3   1    0.05    0.04
   7   3  -1    0.39    0.07
  -7  -3   1    0.32    0.06
   6   3  -1    1.08    0.08
  -6  -3   1    1.15    0.09
   5   3  -1    3.83    0.14
  -5  -3   1    3.72    0.14
   4   3  -1   13.52    0.27
  -4  -3   1   13.63    0.27
  -4  -3   1   13.01    0.27
  -3  -3   1   10.24    0.21
  -3  -3   1   10.19    0.16
  -3  -3   1   10.28    0.21
  -2  -3   1    5.51    0.12
  -2  -3   1    5.22    0.10
  -2  -3   1    5.59    0.12
  -1  -3   1   21.99    0.33
  -1  -3   1   22.39    0.34
   0   3  -1    2.84    0.05
   0  -3   1    2.81    0.07
   0  -3   1    2.75    0.05
  -1   3  -1    4.59    0.08
   1  -3   1    4.72    0.10
   1  -3   1    4.60    0.08
   2  -3   1   11.79    0.20
   2  -3   1   12.56    0.22
   3  -3   1    0.11    0.02
   4  -3   1    0.00    0.01
   5  -3   1    4.06    0.13
   6  -3   1    2.51    0.11
   7  -3   1    1.26    0.09
   8  -3   1    0.50    0.07
   9  -3   1    0.97    0.10
  10  -3   1    0.71    0.10
   9   2  -1    0.36    0.07
   8   2  -1    4.33    0.18
  -8  -2   1    4.40    0.18
   7   2  -1    0.64    0.08
  -7  -2   1    0.55    0.07
   6   2  -1    0.32    0.05
  -6  -2   1    0.37    0.05
   5   2  -1    0.39    0.05
  -5  -2   1    0.41    0.05
   4   2  -1    2.79    0.06
   4   2  -1    2.81    0.10
  -4  -2   1    2.86    0.10
   3   2  -1    0.04    0.01
   3   2  -1    0.01    0.01
  -3  -2   1    0.03    0.01
  -3  -2   1    0.01    0.01
  -2  -2   1    0.76    0.04
  -2  -2   1    0.73    0.03
  -2  -2   1    0.73    0.04
   1   2  -1   10.23    0.16
  -1  -2   1   10.30    0.16
  -1  -2   1   10.29    0.17
   0  -2   1    0.03    0.01
   1  -2   1   45.47    0.65
   1  -2   1   44.04    0.63
   1  -2   1   44.22    0.65
   2  -2   1   24.16    0.36
   3  -2   1    3.13    0.09
   4  -2   1    0.50    0.05
   5  -2   1   14.20    0.29
   6  -2   1    0.24    0.05
   7  -2   1    9.75    0.26
   8  -2   1    7.87    0.24
   9  -2   1    1.89    0.13
  10   1  -1    0.16    0.05
   9   1  -1    0.21    0.06
   8   1  -1    0.39    0.07
   7   1  -1    2.04    0.11
  -7  -1   1    1.95    0.11
   6   1  -1    4.09    0.14
  -6  -1   1    3.96    0.14
   5   1  -1    2.63    0.10
  -5  -1   1    2.53    0.10
   4   1  -1   54.32    0.80
  -4  -1   1   53.40    0.80
   3   1  -1    5.85    0.13
   3   1  -1    6.09    0.10
  -3  -1   1    5.85    0.13
   2   1  -1    0.35    0.03
   2   1  -1    0.31    0.02
  -2  -1   1    0.33    0.03
  -2  -1   1    0.31    0.02
   1   1  -1    5.83    0.10
   1   1  -1    5.95    0.10
   1   1  -1    5.83    0.10
  -1  -1   1    5.96    0.10
  -1  -1   1    5.87    0.10
  -1  -1   1    6.01    0.10
   0   1  -1   16.65    0.24
   0   1  -1   16.77    0.24
   0  -1   1   16.37    0.23
   0  -1   1   16.31    0.24
  -1   1  -1   26.94    0.38
   1  -1   1   26.47    0.38
  -2   1  -1    6.29    0.13
  -3   1  -1   52.23    0.77
  -4   1  -1    1.10    0.06
   4  -1   1    0.94    0.06
   5  -1   1    7.54    0.19
   6  -1   1    0.04    0.03
   7  -1   1    1.82    0.11
   8  -1   1    0.38    0.06
   9  -1   1    0.05    0.04
  10   0  -1    0.05    0.04
   9   0  -1    0.15    0.05
   8   0  -1    0.98    0.09
   7   0  -1    2.34    0.11
   6   0  -1    0.25    0.04
   5   0  -1    4.14    0.13
   4   0  -1    9.32    0.19
  -4   0   1    9.30    0.20
   3   0  -1    8.70    0.17
  -3   0   1    8.61    0.17
   2   0  -1   33.79    0.48
   2   0  -1   33.52    0.48
   2   0  -1   33.09    0.47
  -2   0   1   33.77    0.48
   1   0  -1    3.96    0.07
   1   0  -1    4.14    0.07
  -1   0   1    3.89    0.07
  -1   0   1    3.99    0.07
   0   0  -1    0.21    0.01
   0   0  -1    0.20    0.01
   0   0  -1    0.21    0.01
   0   0   1    0.22    0.01
   0   0   1    0.20    0.01
  -1   0  -1   41.21    0.58
  -1   0  -1   40.88    0.58
   1   0   1   40.34    0.57
  -2   0  -1    0.44    0.03
  -2   0  -1    0.50    0.03
  -3   0  -1    1.44    0.06
  -3   0  -1    1.36    0.06
  -4   0  -1   36.14    0.58
  -4   0  -1   36.08    0.59
  -5   0  -1    2.43    0.11
   5   0   1    2.40    0.11
   6   0   1    0.62    0.07
   8   0   1    0.14    0.05
   9   0   1    0.72    0.10
  10  -1  -1    1.83    0.13
   9  -1  -1    0.00    0.03
   8  -1  -1    0.32    0.06
   7  -1  -1    0.21    0.04
   6  -1  -1    0.17    0.04
   5  -1  -1    3.46    0.11
   4  -1  -1   21.20    0.35
   3  -1  -1   24.84    0.38
   2  -1  -1    5.70    0.11
   1  -1  -1    0.63    0.02
   1  -1  -1    0.63    0.02
  -1   1   1    0.64    0.02
  -1   1   1    0.65    0.02
   0  -1  -1  209.98    4.23
   0  -1  -1  202.13    4.33
   0  -1  -1  219.52    3.01
   0   1   1  208.63    2.92
  -1  -1  -1   -0.03    0.01
  -1  -1  -1   -0.04    0.01
  -1  -1  -1   -0.04    0.00
  -2  -1  -1   11.89    0.23
  -2  -1  -1   12.03    0.22
  -3  -1  -1    4.29    0.13
  -3  -1  -1    4.21    0.12
  -4  -1  -1    0.37    0.05
  -4  -1  -1    0.41    0.05
  -5  -1  -1    4.52    0.15
  -5  -1  -1    5.00    0.16
  -6  -1  -1    2.15    0.12
  -6  -1  -1    2.18    0.12
   6   1   1    2.09    0.12
   7   1   1    0.42    0.07
   8   1   1    0.14    0.05
  10  -2  -1    0.44    0.08
   9  -2  -1    0.06    0.04
   8  -2  -1    0.09    0.04
   7  -2  -1    0.60    0.07
   6  -2  -1    1.53    0.08
   5  -2  -1    0.72    0.05
   4  -2  -1    0.04    0.02
   3  -2  -1   15.70    0.26
   2  -2  -1 1000.00   17.12
   2  -2  -1  996.05   17.38
   1  -2  -1    7.13    0.13
   1  -2  -1    7.19    0.13
   0  -2  -1    4.39    0.09
   0  -2  -1    4.49    0.10
  -1  -2  -1   18.08    0.26
  -1  -2  -1   18.31    0.30
  -1  -2  -1   17.85    0.29
  -2  -2  -1    2.50    0.08
  -2  -2  -1    2.47    0.09
  -3  -2  -1    0.19    0.04
  -3  -2  -1    0.21    0.03
  -4  -2  -1    0.54    0.06
  -4  -2  -1    0.49    0.06
  -5  -2  -1    0.03    0.03
  -5  -2  -1    0.02    0.03
  -6  -2  -1    1.11    0.10
  -6  -2  -1    1.14    0.11
  -7  -2  -1    0.10    0.05
   7   2   1    0.04    0.03
   8   2   1    0.52    0.08
  10  -3  -1    0.13    0.05
   9  -3  -1    1.08    0.10
   8  -3  -1    0.66    0.07
   7  -3  -1    1.09    0.09
   6  -3  -1    3.38    0.12
   5  -3  -1    0.67    0.06
   4  -3  -1   63.55    0.91
   3  -3  -1    3.57    0.10
   3  -3  -1    3.61    0.09
   2  -3  -1   11.82    0.20
   2  -3  -1   11.62    0.21
   1  -3  -1    7.80    0.15
   1  -3  -1    7.62    0.14
   0  -3  -1   11.84    0.21
   0  -3  -1   12.10    0.22
  -1  -3  -1    4.24    0.11
  -1  -3  -1    4.28    0.12
  -2  -3  -1    0.04    0.02
  -2  -3  -1    0.05    0.02
  -3  -3  -1    0.86    0.06
  -3  -3  -1    0.93    0.07
  -4  -3  -1    0.14    0.04
  -4  -3  -1    0.20    0.04
  -5  -3  -1    0.19    0.04
  -5  -3  -1    0.19    0.05
  -6  -3  -1    4.22    0.18
  -6  -3  -1    3.76    0.16
  -7  -3  -1    0.07    0.04
   7   3   1    0.07    0.04
  10  -4  -1   -0.01    0.04
   9  -4  -1    0.68    0.08
   8  -4  -1    3.00    0.14
   7  -4  -1    0.02    0.03
   6  -4  -1    0.55    0.06
   5  -4  -1    9.45    0.23
   5  -4  -1    9.59    0.20
   4  -4  -1    9.10    0.20
   4  -4  -1    8.97    0.18
   3  -4  -1    1.29    0.06
   3  -4  -1    1.22    0.05
   2  -4  -1   17.49    0.28
   2  -4  -1   17.31    0.29
   1  -4  -1    4.89    0.12
   1  -4  -1    4.87    0.12
   0  -4  -1    0.10    0.02
   0  -4  -1    0.07    0.02
  -1  -4  -1    4.31    0.13
  -1  -4  -1    4.48    0.12
  -2  -4  -1    0.00    0.01
  -2  -4  -1    0.00    0.02
  -2  -4  -1    0.01    0.01
  -3  -4  -1    1.19    0.08
  -3  -4  -1    1.18    0.08
  -4  -4  -1    4.00    0.16
  -4  -4  -1    3.78    0.15
  -5  -4  -1    1.06    0.11
  -5  -4  -1    0.99    0.10
  -6  -4  -1    0.01    0.03
  -6  -4  -1    0.00    0.03
  -7  -4  -1    0.11    0.05
   7   4   1    0.11    0.05
  10  -5  -1    0.00    0.04
   9  -5  -1    1.01    0.10
   8  -5  -1    0.04    0.04
   7  -5  -1    0.21    0.05
   6  -5  -1    0.76    0.06
   6  -5  -1    0.67    0.07
   5  -5  -1    1.83    0.09
   5  -5  -1    1.95    0.08
   4  -5  -1    0.57    0.06
   4  -5  -1    0.48    0.04
   3  -5  -1    1.44    0.06
   3  -5  -1    1.43    0.07
   2  -5  -1    0.00    0.01
   2  -5  -1   -0.01    0.01
   1  -5  -1    0.19    0.03
   1  -5  -1    0.17    0.03
   0  -5  -1    9.71    0.21
   0  -5  -1    9.53    0.20
  -1  -5  -1    0.27    0.04
  -1  -5  -1    0.29    0.04
  -2  -5  -1    2.41    0.11
  -2  -5  -1    2.12    0.10
  -3  -5  -1    1.58    0.10
  -3  -5  -1    1.63    0.09
  -4  -5  -1    0.30    0.06
  -4  -5  -1    0.35    0.06
  -5  -5  -1    0.04    0.04
  -6  -5  -1    0.46    0.08
  -6  -5  -1    0.56    0.09
  10  -6  -1   -0.04    0.04
   9  -6  -1    0.20    0.06
   9  -6  -1    0.17    0.05
   8  -6  -1   -0.01    0.03
   8  -6  -1    0.02    0.03
   7  -6  -1    0.09    0.04
   7  -6  -1    0.08    0.03
   6  -6  -1    1.29    0.09
   6  -6  -1    1.27    0.08
   5  -6  -1    3.17    0.10
   5  -6  -1    3.31    0.13
   4  -6  -1   -0.02    0.01
   4  -6  -1    0.00    0.01
   3  -6  -1    0.00    0.01
   3  -6  -1    0.00    0.02
   2  -6  -1    0.03    0.02
   2  -6  -1    0.02    0.02
   1  -6  -1    0.08    0.02
   1  -6  -1    0.06    0.02
   0  -6  -1    0.30    0.04
   0  -6  -1    0.38    0.05
  -1  -6  -1    0.18    0.04
  -1  -6  -1    0.20    0.04
  -2  -6  -1    0.15    0.04
  -2  -6  -1    0.20    0.04
  -3  -6  -1    0.19    0.05
  -3  -6  -1    0.15    0.04
  -4  -6  -1    2.05    0.12
  -4  -6  -1    2.03    0.12
  -5  -6  -1   -0.01    0.03
  -5  -6  -1   -0.03    0.03
   9  -7  -1    0.06    0.04
   9  -7  -1    0.04    0.04
   8  -7  -1    0.02    0.03
   8  -7  -1    0.02    0.03
   7  -7  -1    0.16    0.04
   7  -7  -1    0.09    0.04
   6  -7  -1    0.05    0.03
   6  -7  -1    0.04    0.02
   5  -7  -1    0.03    0.03
   5  -7  -1    0.07    0.03
   4  -7  -1    0.05    0.02
   4  -7  -1    0.09    0.03
   3  -7  -1    0.46    0.05
   3  -7  -1    0.57    0.05
   2  -7  -1    0.11    0.03
   2  -7  -1    0.14    0.03
   1  -7  -1    0.67    0.06
   1  -7  -1    0.59    0.06
   0  -7  -1    1.74    0.09
   0  -7  -1    1.86    0.09
  -1  -7  -1    0.58    0.07
  -1  -7  -1    0.43    0.06
  -2  -7  -1    0.80    0.09
  -2  -7  -1    0.74    0.08
  -3  -7  -1    0.00    0.02
  -3  -7  -1    0.00    0.03
  -4  -7  -1    0.12    0.04
  -4  -7  -1    0.09    0.04
   9  -8  -1    0.04    0.03
   9  -8  -1    0.09    0.04
   8  -8  -1    0.03    0.03
   8  -8  -1    0.01    0.03
   7  -8  -1    0.45    0.07
   7  -8  -1    0.47    0.05
   6  -8  -1    0.08    0.03
   6  -8  -1    0.12    0.04
   5  -8  -1   -0.02    0.02
   5  -8  -1    0.01    0.02
   4  -8  -1    0.13    0.03
   4  -8  -1    0.17    0.04
   3  -8  -1    0.35    0.05
   3  -8  -1    0.31    0.05
   2  -8  -1    1.05    0.07
   2  -8  -1    0.88    0.07
   1  -8  -1    0.59    0.07
   1  -8  -1    0.55    0.06
   0  -8  -1    0.00    0.02
   0  -8  -1   -0.01    0.02
  -1  -8  -1    0.66    0.08
  -1  -8  -1    0.72    0.08
  -2  -8  -1   -0.04    0.02
  -2  -8  -1    0.01    0.03
   8  -9  -1   -0.04    0.02
   7  -9  -1    0.01    0.03
   7  -9  -1    0.03    0.02
   6  -9  -1    0.10    0.03
   6  -9  -1    0.10    0.04
   5  -9  -1    0.00    0.02
   5  -9  -1    0.05    0.02
   4  -9  -1    0.23    0.04
   4  -9  -1    0.20    0.05
   3  -9  -1    0.20    0.04
   3  -9  -1    0.21    0.05
   2  -9  -1    0.01    0.02
   2  -9  -1    0.04    0.02
   1  -9  -1    0.42    0.06
   1  -9  -1    0.55    0.07
   0  -9  -1    0.01    0.03
   0  -9  -1    0.06    0.03
   5 -10  -1    0.02    0.03
   4 -10  -1   -0.03    0.02
   3 -10  -1    0.05    0.03
   1 -11   2    0.02    0.03
   2 -11   2    0.00    0.02
   3 -11   2   -0.03    0.02
   4 -11   2    0.03    0.03
   5 -11   2    0.02    0.03
  -2 -10   2    1.28    0.10
  -1 -10   2   -0.02    0.02
   0 -10   2    0.02    0.03
   1 -10   2   -0.01    0.02
   2 -10   2    0.03    0.03
   3 -10   2    0.00    0.03
   4 -10   2    1.39    0.09
   5 -10   2    0.08    0.04
   6 -10   2    0.18    0.05
   7 -10   2   -0.02    0.03
  -4  -9   2    0.01    0.03
  -3  -9   2    0.34    0.06
  -2  -9   2    1.38    0.10
  -1  -9   2    2.06    0.11
   0  -9   2    0.08    0.03
   1  -9   2   -0.01    0.02
   2  -9   2    2.23    0.11
   3  -9   2   -0.01    0.02
   4  -9   2    0.31    0.05
   5  -9   2    0.04    0.03
   6  -9   2    0.45    0.07
   7  -9   2    0.10    0.04
   8  -9   2   -0.02    0.03
   5   8  -2    0.35    0.06
  -5  -8   2    0.37    0.07
   4   8  -2    0.51    0.06
  -4  -8   2    0.43    0.07
  -3  -8   2    3.72    0.13
  -3  -8   2    3.91    0.15
  -2  -8   2    4.34    0.15
  -2  -8   2    4.31    0.13
  -1  -8   2    0.46    0.06
   0  -8   2    0.07    0.03
   0  -8   2    0.06    0.02
   1  -8   2    0.40    0.05
   1  -8   2    0.51    0.03
   2  -8   2    0.12    0.03
   2  -8   2    0.09    0.02
   3  -8   2    0.28    0.05
   3  -8   2    0.36    0.03
   4  -8   2    1.65    0.10
   4  -8   2    1.62    0.06
   5  -8   2    0.01    0.02
   5  -8   2    0.02    0.02
   6  -8   2    0.17    0.05
   6  -8   2    0.13    0.03
   7  -8   2    0.04    0.03
   7  -8   2   -0.01    0.03
   8  -8   2    0.04    0.04
   8  -8   2   -0.01    0.03
   6   7  -2    0.11    0.04
  -6  -7   2    0.07    0.04
   5   7  -2    0.12    0.04
  -5  -7   2    0.12    0.05
   4   7  -2    0.01    0.02
  -4  -7   2    0.01    0.03
  -3  -7   2    1.41    0.09
  -3  -7   2    1.35    0.08
  -3  -7   2    1.38    0.07
  -2  -7   2    2.61    0.09
  -2  -7   2    2.59    0.11
  -1  -7   2    0.13    0.03
  -1  -7   2    0.14    0.02
   0  -7   2    4.59    0.10
   0  -7   2    4.95    0.14
  -1   7  -2    0.09    0.02
   1  -7   2    0.07    0.02
   1  -7   2    0.14    0.02
   2  -7   2    2.15    0.05
   2  -7   2    2.24    0.09
   3  -7   2    3.84    0.08
   3  -7   2    4.02    0.13
   4  -7   2    0.71    0.05
   4  -7   2    0.71    0.07
   5  -7   2    0.71    0.06
   5  -7   2    0.56    0.07
   6  -7   2    1.75    0.09
   6  -7   2    1.73    0.11
   7  -7   2    0.83    0.10
   7  -7   2    1.10    0.09
   8  -7   2    0.14    0.05
   8  -7   2    0.15    0.05
   9  -7   2    0.53    0.08
   9  -7   2    0.62    0.10
   7   6  -2    0.17    0.05
  -7  -6   2    0.14    0.05
   6   6  -2    0.88    0.09
  -6  -6   2    0.82    0.09
   5   6  -2    0.41    0.06
  -5  -6   2    0.45    0.07
   4   6  -2    1.95    0.09
  -4  -6   2    1.97    0.10
  -4  -6   2    1.93    0.06
  -3  -6   2    0.95    0.06
  -3  -6   2    0.92    0.05
  -3  -6   2    0.90    0.06
  -2  -6   2    0.00    0.01
  -2  -6   2    0.00    0.01
  -1  -6   2    1.70    0.06
  -1  -6   2    1.57    0.07
   0   6  -2   16.31    0.24
   0  -6   2   16.38    0.30
   0  -6   2   16.65    0.25
  -1   6  -2   14.38    0.22
   1  -6   2   15.20    0.28
   1  -6   2   14.49    0.22
   2  -6   2    0.42    0.02
   2  -6   2    0.45    0.05
   3  -6   2    5.15    0.15
   3  -6   2    5.32    0.11
   4  -6   2    1.26    0.08
   4  -6   2    1.12    0.06
   5  -6   2    1.56    0.08
   5  -6   2    1.88    0.10
   6  -6   2    0.09    0.04
   6  -6   2    0.15    0.04
   7  -6   2   -0.03    0.03
   8  -6   2    0.66    0.08
   9  -6   2    0.03    0.05
   8   5  -2    0.25    0.06
  -8  -5   2    0.42    0.08
   7   5  -2    1.37    0.10
  -7  -5   2    1.16    0.12
   6   5  -2    4.01    0.16
  -6  -5   2    3.75    0.16
   5   5  -2    0.05    0.03
  -5  -5   2    0.07    0.03
  -5  -5   2    0.09    0.01
   4   5  -2    1.14    0.07
  -4  -5   2    1.29    0.08
  -4  -5   2    1.19    0.05
   3   5  -2    0.95    0.06
  -3  -5   2    1.02    0.05
  -3  -5   2    1.08    0.06
  -2  -5   2    8.80    0.17
  -2  -5   2    9.05    0.19
  -1  -5   2    5.73    0.14
  -1  -5   2    5.90    0.11
   0  -5   2    1.82    0.07
   0  -5   2    1.91    0.04
   1  -5   2    0.16    0.03
   1  -5   2    0.19    0.01
   2  -5   2    4.84    0.13
   2  -5   2    4.73    0.09
   3  -5   2    4.60    0.14
   3  -5   2    4.59    0.11
   4  -5   2    0.89    0.07
   4  -5   2    0.94    0.06
   5  -5   2    0.05    0.03
   6  -5   2    0.57    0.06
   7  -5   2    0.56    0.07
   8  -5   2    1.31    0.11
   9  -5   2    1.81    0.12
   9   4  -2    0.25    0.06
  -9  -4   2    0.36    0.08
   8   4  -2    2.63    0.14
  -8  -4   2    2.56    0.15
   7   4  -2    0.10    0.04
  -7  -4   2    0.11    0.04
   6   4  -2    8.25    0.23
  -6  -4   2    8.56    0.24
   5   4  -2   10.15    0.24
  -5  -4   2   10.43    0.17
  -5  -4   2   10.68    0.25
   4   4  -2    0.44    0.05
  -4  -4   2    0.31    0.02
  -4  -4   2    0.39    0.05
   3   4  -2    3.67    0.10
  -3  -4   2    3.78    0.11
  -3  -4   2    3.81    0.09
   2   4  -2    4.54    0.10
  -2  -4   2    4.42    0.11
  -2  -4   2    4.46    0.11
   1   4  -2    0.06    0.01
   1   4  -2    0.05    0.01
  -1  -4   2    0.04    0.01
   0  -4   2    9.84    0.18
   1  -4   2   14.88    0.21
   1  -4   2   14.96    0.22
   1  -4   2   15.11    0.26
   2  -4   2    0.86    0.04
   2  -4   2    0.94    0.05
   3  -4   2    2.15    0.07
   4  -4   2    0.95    0.06
   5  -4   2    0.45    0.05
   6  -4   2    1.44    0.09
   7  -4   2    0.97    0.09
   8  -4   2    2.70    0.14
   9  -4   2    0.15    0.05
   9   3  -2    0.42    0.07
  -9  -3   2    0.67    0.10
   8   3  -2    3.16    0.15
  -8  -3   2    2.99    0.15
   7   3  -2    2.28    0.12
  -7  -3   2    2.23    0.12
   6   3  -2    0.03    0.03
  -6  -3   2    0.09    0.03
   5   3  -2    0.12    0.03
  -5  -3   2    0.16    0.02
  -5  -3   2    0.17    0.03
   4   3  -2    3.78    0.12
  -4  -3   2    3.90    0.08
  -4  -3   2    3.91    0.12
   3   3  -2    7.46    0.16
  -3  -3   2    7.57    0.14
  -3  -3   2    7.73    0.16
   2   3  -2    7.98    0.15
  -2  -3   2    8.03    0.15
  -2  -3   2    7.85    0.15
   1   3  -2    7.24    0.11
   1   3  -2    7.30    0.12
  -1  -3   2    7.16    0.13
   0  -3   2   19.80    0.30
   1  -3   2    0.01    0.01
   1  -3   2    0.01    0.01
   1  -3   2    0.01    0.01
   2  -3   2    0.53    0.03
   3  -3   2   39.97    0.60
   4  -3   2   14.46    0.28
   5  -3   2    1.81    0.09
   6  -3   2    0.27    0.05
   7  -3   2    0.00    0.02
   8  -3   2    0.76    0.09
   9  -3   2    0.01    0.04
  10   2  -2    0.02    0.04
   9   2  -2    0.04    0.04
   8   2  -2    0.13    0.04
  -8  -2   2    0.04    0.03
   7   2  -2    6.34    0.19
  -7  -2   2    6.31    0.20
   6   2  -2    0.28    0.05
  -6  -2   2    0.21    0.04
   5   2  -2    3.25    0.11
  -5  -2   2    3.02    0.11
   4   2  -2   32.05    0.51
  -4  -2   2   31.92    0.51
  -4  -2   2   32.44    0.47
   3   2  -2   18.38    0.30
  -3  -2   2   18.52    0.30
  -3  -2   2   18.41    0.28
  -2  -2   2    7.89    0.14
  -2  -2   2    8.04    0.14
   1   2  -2    8.01    0.12
  -1  -2   2    7.91    0.13
  -1  -2   2    8.07    0.12
  -1  -2   2    8.07    0.15
   0   2  -2    0.51    0.02
   0  -2   2    0.50    0.03
   0  -2   2    0.49    0.02
  -1   2  -2   27.87    0.41
  -2   2  -2    0.03    0.01
  -3   2  -2    1.55    0.07
  -4   2  -2    0.01    0.02
   5  -2   2    1.31    0.08
   6  -2   2    5.12    0.17
   7  -2   2    0.39    0.07
   8  -2   2    0.72    0.09
   9  -2   2    0.40    0.08
  10   1  -2   -0.04    0.03
   9   1  -2    0.24    0.06
   8   1  -2    0.60    0.07
   7   1  -2    2.52    0.12
  -7  -1   2    2.27    0.12
   6   1  -2    7.08    0.19
  -6  -1   2    7.05    0.19
   5   1  -2    3.86    0.12
  -5  -1   2    3.91    0.12
   4   1  -2   15.73    0.28
  -4  -1   2   16.10    0.28
  -4  -1   2   15.83    0.26
  -3  -1   2   20.24    0.32
  -3  -1   2   19.80    0.30
   2   1  -2    6.84    0.12
   2   1  -2    7.08    0.12
  -2  -1   2    6.93    0.12
  -2  -1   2    6.91    0.12
   1   1  -2    2.63    0.05
   1   1  -2    2.61    0.05
  -1  -1   2    2.60    0.06
  -1  -1   2    2.66    0.05
  -1  -1   2    2.70    0.05
   0   1  -2   43.83    0.68
   0  -1   2   43.92    0.61
   0  -1   2   44.00    0.65
  -1   1  -2    0.52    0.03
  -2   1  -2   -0.01    0.01
  -3   1  -2    7.48    0.18
  -4   1  -2    4.66    0.15
  -5   1  -2    2.98    0.13
   6  -1   2    0.77    0.08
   7  -1   2    2.46    0.14
   8  -1   2    1.56    0.12
   9  -1   2    0.09    0.05
  10   0  -2    1.81    0.13
   9   0  -2    0.03    0.03
   8   0  -2    0.28    0.05
   7   0  -2    0.49    0.06
   6   0  -2    0.61    0.06
   5   0  -2    1.18    0.07
   4   0  -2    1.50    0.06
   3   0  -2   16.04    0.26
  -3   0   2   16.04    0.26
   2   0  -2    0.01    0.01
   2   0  -2    0.02    0.01
  -2   0   2    0.01    0.01
   1   0  -2   31.58    0.45
   1   0  -2   32.20    0.44
  -1   0   2   31.66    0.46
   0   0  -2   23.18    0.35
   0   0  -2   23.25    0.33
   0   0  -2   23.52    0.34
   0   0   2   23.30    0.34
   0   0   2   23.02    0.32
  -1   0  -2    4.72    0.10
  -1   0  -2    4.66    0.11
   1   0   2    4.67    0.09
  -2   0  -2    0.79    0.05
  -2   0  -2    0.70    0.04
   2   0   2    0.73    0.03
  -3   0  -2   22.41    0.40
  -3   0  -2   21.76    0.38
  -4   0  -2    0.96    0.07
  -4   0  -2    1.06    0.07
  -5   0  -2   17.04    0.36
  -6   0  -2   11.87    0.30
   7   0   2    2.59    0.14
   8   0   2    0.14    0.05
  10  -1  -2    0.06    0.04
   8  -1  -2    1.05    0.10
   7  -1  -2    2.08    0.11
   6  -1  -2   17.27    0.33
   5  -1  -2    2.11    0.08
   4  -1  -2    1.51    0.06
   3  -1  -2   13.53    0.23
   2  -1  -2    2.78    0.06
   1  -1  -2   21.07    0.32
   1  -1  -2   21.05    0.30
  -1   1   2   21.74    0.32
  -1   1   2   21.05    0.31
   0  -1  -2    6.21    0.11
   0  -1  -2    6.08    0.13
   0  -1  -2    6.55    0.12
   0   1   2    6.29    0.11
  -1  -1  -2   69.58    1.05
  -1  -1  -2   69.30    0.99
  -1  -1  -2   71.08    1.00
   1   1   2   69.65    0.99
  -2  -1  -2    0.92    0.05
  -2  -1  -2    0.82    0.06
   2   1   2    0.89    0.03
  -3  -1  -2   11.81    0.25
  -3  -1  -2   12.46    0.27
  -4  -1  -2    0.10    0.03
  -4  -1  -2    0.05    0.03
  -5  -1  -2    2.73    0.13
  -5  -1  -2    2.64    0.12
  -6  -1  -2    1.54    0.11
  -6  -1  -2    1.56    0.11
   7   1   2    0.14    0.05
   8   1   2    0.73    0.10
  11  -2  -2   -0.04    0.04
  10  -2  -2    0.24    0.06
   9  -2  -2    0.35    0.06
   8  -2  -2    0.30    0.06
   7  -2  -2    0.39    0.06
   6  -2  -2    2.32    0.10
   5  -2  -2    1.10    0.06
   4  -2  -2    3.54    0.10
   3  -2  -2    9.47    0.18
   3  -2  -2    9.39    0.17
   2  -2  -2    2.10    0.06
   2  -2  -2    2.18    0.06
   1  -2  -2   11.15    0.18
   1  -2  -2   11.17    0.20
   0  -2  -2    1.79    0.05
   0  -2  -2    1.88    0.07
  -1  -2  -2    1.09    0.03
  -1  -2  -2    1.07    0.05
  -1  -2  -2    1.10    0.06
  -2  -2  -2   27.93    0.46
  -2  -2  -2   28.63    0.48
  -3  -2  -2    1.94    0.09
  -3  -2  -2    1.94    0.10
  -4  -2  -2    1.31    0.09
  -4  -2  -2    1.28    0.09
  -5  -2  -2    8.83    0.26
  -5  -2  -2    8.88    0.25
  -6  -2  -2    0.08    0.04
  -6  -2  -2    0.20    0.06
  -7  -2  -2    0.70    0.10
  -7  -2  -2    0.87    0.10
   7   2   2    0.78    0.10
  11  -3  -2    0.03    0.05
  10  -3  -2    0.10    0.05
   9  -3  -2    0.04    0.04
   8  -3  -2    0.01    0.04
   7  -3  -2    0.42    0.06
   6  -3  -2    4.28    0.13
   5  -3  -2    5.58    0.14
   4  -3  -2    0.87    0.05
   4  -3  -2    0.79    0.06
   3  -3  -2    0.27    0.03
   3  -3  -2    0.24    0.03
   2  -3  -2   47.85    0.69
   2  -3  -2   47.33    0.68
   1  -3  -2    1.29    0.05
   1  -3  -2    1.24    0.06
   0  -3  -2    1.48    0.06
   0  -3  -2    1.48    0.07
  -1  -3  -2    1.68    0.08
  -1  -3  -2    1.82    0.07
  -2  -3  -2    0.01    0.02
  -2  -3  -2    0.03    0.02
  -3  -3  -2    7.10    0.19
  -3  -3  -2    6.80    0.20
  -4  -3  -2    2.64    0.12
  -4  -3  -2    2.43    0.12
  -5  -3  -2    0.81    0.10
  -5  -3  -2    0.83    0.09
  -6  -3  -2    0.01    0.03
  -6  -3  -2   -0.02    0.03
  -7  -3  -2    0.23    0.06
  -7  -3  -2    0.13    0.05
  11  -4  -2    0.03    0.05
  10  -4  -2   -0.04    0.03
   9  -4  -2    0.05    0.04
   8  -4  -2    0.16    0.05
   7  -4  -2    0.06    0.03
   6  -4  -2    0.08    0.03
   6  -4  -2    0.10    0.03
   5  -4  -2    2.09    0.10
   5  -4  -2    2.10    0.09
   4  -4  -2  157.76    2.17
   4  -4  -2  153.86    2.19
   3  -4  -2    0.33    0.04
   3  -4  -2    0.41    0.04
   2  -4  -2    2.63    0.08
   2  -4  -2    2.57    0.09
   1  -4  -2    6.35    0.14
   1  -4  -2    5.97    0.15
   0  -4  -2    0.15    0.03
   0  -4  -2    0.17    0.03
  -1  -4  -2    0.04    0.02
  -1  -4  -2    0.01    0.02
  -2  -4  -2    0.41    0.05
  -2  -4  -2    0.49    0.06
  -3  -4  -2    0.04    0.03
  -3  -4  -2    0.03    0.03
  -4  -4  -2    0.56    0.08
  -4  -4  -2    0.41    0.07
  -5  -4  -2    0.01    0.03
  -5  -4  -2   -0.06    0.03
  -6  -4  -2    0.28    0.06
  -6  -4  -2    0.26    0.07
  10  -5  -2    0.31    0.06
   9  -5  -2    0.45    0.07
   8  -5  -2    0.48    0.06
   7  -5  -2    0.10    0.04
   7  -5  -2    0.09    0.04
   6  -5  -2   10.58    0.26
   6  -5  -2   10.24    0.23
   5  -5  -2    0.44    0.05
   5  -5  -2    0.42    0.05
   4  -5  -2    2.83    0.10
   4  -5  -2    2.87    0.10
   3  -5  -2    0.31    0.04
   3  -5  -2    0.34    0.04
   2  -5  -2    1.30    0.07
   2  -5  -2    1.23    0.06
   1  -5  -2    0.49    0.05
   1  -5  -2    0.53    0.06
   0  -5  -2    0.29    0.04
   0  -5  -2    0.28    0.05
  -1  -5  -2    0.29    0.05
  -1  -5  -2    0.24    0.04
  -2  -5  -2    0.04    0.03
  -2  -5  -2    0.06    0.03
  -3  -5  -2    0.01    0.02
  -3  -5  -2   -0.01    0.03
  -4  -5  -2    1.73    0.11
  -4  -5  -2    1.63    0.11
  -5  -5  -2   -0.05    0.03
  -5  -5  -2   -0.01    0.03
  10  -6  -2    0.37    0.07
  10  -6  -2    0.39    0.08
   9  -6  -2    0.00    0.03
   9  -6  -2   -0.03    0.03
   8  -6  -2    0.18    0.05
   8  -6  -2    0.19    0.05
   7  -6  -2    1.58    0.09
   7  -6  -2    1.47    0.10
   6  -6  -2    2.03    0.09
   6  -6  -2    2.14    0.11
   5  -6  -2    0.88    0.06
   5  -6  -2    0.85    0.07
   4  -6  -2    2.84    0.11
   4  -6  -2    2.83    0.10
   3  -6  -2    0.56    0.06
   3  -6  -2    0.52    0.05
   2  -6  -2   -0.03    0.01
   2  -6  -2   -0.02    0.01
   1  -6  -2    0.90    0.08
   1  -6  -2    0.80    0.06
   0  -6  -2    0.01    0.02
   0  -6  -2    0.02    0.02
  -1  -6  -2    0.07    0.03
  -1  -6  -2    0.10    0.03
  -2  -6  -2    1.82    0.10
  -2  -6  -2    1.79    0.11
  -3  -6  -2    0.35    0.07
  -3  -6  -2    0.49    0.07
  -4  -6  -2   -0.05    0.02
  -4  -6  -2   -0.04    0.02
   9  -7  -2    0.01    0.03
   9  -7  -2    0.02    0.03
   8  -7  -2    0.23    0.06
   8  -7  -2    0.17    0.04
   7  -7  -2    0.54    0.07
   7  -7  -2    0.52    0.06
   6  -7  -2    0.05    0.03
   6  -7  -2    0.03    0.03
   5  -7  -2    0.82    0.06
   5  -7  -2    0.62    0.07
   4  -7  -2   -0.03    0.01
   4  -7  -2    0.01    0.02
   3  -7  -2    0.04    0.02
   3  -7  -2    0.06    0.03
   2  -7  -2    1.36    0.08
   2  -7  -2    1.47    0.08
   1  -7  -2    0.02    0.02
   1  -7  -2    0.04    0.03
   0  -7  -2    0.50    0.06
   0  -7  -2    0.45    0.06
  -1  -7  -2    0.42    0.06
  -1  -7  -2    0.50    0.07
  -2  -7  -2    0.13    0.04
  -2  -7  -2    0.10    0.04
  -3  -7  -2    0.06    0.04
  -3  -7  -2    0.03    0.04
   8  -8  -2    0.19    0.05
   8  -8  -2    0.12    0.03
   7  -8  -2    0.99    0.07
   7  -8  -2    0.78    0.08
   6  -8  -2    0.01    0.02
   6  -8  -2    0.02    0.02
   5  -8  -2    0.01    0.02
   5  -8  -2    0.05    0.02
   4  -8  -2    0.02    0.02
   4  -8  -2    0.02    0.02
   3  -8  -2    0.03    0.02
   3  -8  -2    0.09    0.03
   2  -8  -2    0.00    0.02
   2  -8  -2   -0.03    0.01
   1  -8  -2    0.01    0.02
   1  -8  -2    0.06    0.03
   0  -8  -2    0.12    0.04
   0  -8  -2    0.08    0.04
  -1  -8  -2    0.01    0.03
  -1  -8  -2    0.01    0.03
   7  -9  -2    0.04    0.02
   7  -9  -2   -0.02    0.03
   6  -9  -2    0.02    0.02
   6  -9  -2    0.01    0.03
   5  -9  -2    0.09    0.03
   5  -9  -2    0.03    0.03
   4  -9  -2    0.00    0.02
   4  -9  -2    0.05    0.03
   3  -9  -2    0.05    0.03
   3  -9  -2    0.05    0.03
   2  -9  -2    0.31    0.05
   2  -9  -2    0.28    0.05
   1  -9  -2    0.04    0.03
   1  -9  -2    0.11    0.04
  -1 -11   3    0.53    0.08
   0 -11   3    3.05    0.14
   1 -11   3    1.38    0.09
   2 -11   3    0.00    0.02
   3 -11   3    0.08    0.03
   4 -11   3    0.02    0.03
   5 -11   3    0.10    0.04
  -3 -10   3   -0.01    0.02
  -2 -10   3    1.65    0.11
  -1 -10   3    0.08    0.03
   0 -10   3    1.08    0.08
   1 -10   3    0.06    0.03
   2 -10   3    0.49    0.06
   3 -10   3    0.18    0.04
   4 -10   3    0.63    0.08
   5 -10   3   -0.01    0.02
   6 -10   3    0.00    0.03
  -4  -9   3   -0.02    0.03
  -3  -9   3    0.62    0.08
  -2  -9   3    1.40    0.09
  -1  -9   3    0.03    0.02
   0  -9   3    0.04    0.02
   1  -9   3    0.00    0.02
   2  -9   3    0.44    0.05
   3  -9   3    0.16    0.04
   4  -9   3    0.14    0.04
   5  -9   3    0.07    0.03
   6  -9   3    0.09    0.04
   7  -9   3    0.13    0.05
   6   8  -3    0.68    0.08
  -6  -8   3    0.48    0.08
   5   8  -3   -0.01    0.02
  -5  -8   3    0.01    0.03
   4   8  -3    4.18    0.14
  -4  -8   3    4.26    0.16
   3   8  -3   -0.01    0.02
  -3  -8   3   -0.01    0.02
  -3  -8   3   -0.02    0.02
   2   8  -3    0.02    0.02
  -2  -8   3   -0.02    0.02
   1   8  -3    0.47    0.03
  -1  -8   3    0.62    0.06
   0  -8   3    0.17    0.03
   1  -8   3    0.09    0.03
   2  -8   3    5.22    0.16
   3  -8   3    1.11    0.08
   3  -8   3    1.30    0.04
   4  -8   3    0.52    0.07
   4  -8   3    0.52    0.04
   5  -8   3    0.17    0.05
   5  -8   3    0.12    0.03
   6  -8   3    0.04    0.03
   6  -8   3    0.07    0.04
   7  -8   3    0.06    0.04
   7  -8   3    0.11    0.05
   8  -8   3    0.05    0.04
   8  -8   3    0.22    0.06
   7   7  -3   -0.01    0.03
  -7  -7   3   -0.02    0.03
   6   7  -3    0.15    0.04
  -6  -7   3    0.15    0.05
   5   7  -3    0.59    0.07
  -5  -7   3    0.79    0.09
   4   7  -3    3.52    0.12
  -4  -7   3    3.18    0.10
  -4  -7   3    3.37    0.14
   3   7  -3    6.51    0.16
  -3  -7   3    6.47    0.16
  -3  -7   3    6.55    0.18
   2   7  -3    0.02    0.01
  -2  -7   3    0.02    0.02
   1   7  -3    0.29    0.02
   1   7  -3    0.31    0.02
  -1  -7   3    0.23    0.04
   0  -7   3    7.75    0.18
   1  -7   3    0.01    0.02
   2  -7   3    0.42    0.05
   2  -7   3    0.40    0.02
   2  -7   3    0.37    0.02
   3  -7   3    0.71    0.04
   3  -7   3    0.62    0.06
   4  -7   3    2.23    0.11
   4  -7   3    2.47    0.08
   5  -7   3    0.90    0.09
   5  -7   3    0.96    0.07
   6  -7   3    0.44    0.06
   6  -7   3    0.49    0.07
   7  -7   3    0.60    0.09
   8  -7   3    0.55    0.08
   8  -7   3    0.50    0.09
   8   6  -3    0.03    0.04
  -8  -6   3    0.03    0.04
   7   6  -3    0.59    0.08
  -7  -6   3    0.84    0.10
   6   6  -3    1.62    0.10
  -6  -6   3    1.68    0.11
   5   6  -3    7.29    0.19
  -5  -6   3    7.21    0.15
  -5  -6   3    7.15    0.21
   4   6  -3   11.51    0.24
  -4  -6   3   11.67    0.22
  -4  -6   3   11.92    0.27
   3   6  -3    1.47    0.07
  -3  -6   3    1.55    0.08
  -3  -6   3    1.47    0.07
   2   6  -3    0.42    0.03
  -2  -6   3    0.52    0.05
   1   6  -3    2.74    0.05
  -1  -6   3    2.80    0.09
   0  -6   3    0.18    0.03
   1  -6   3    0.00    0.01
   2  -6   3    8.48    0.20
   2  -6   3    8.86    0.15
   2  -6   3    8.67    0.14
   3  -6   3    0.21    0.03
   3  -6   3    0.15    0.03
   4  -6   3    1.26    0.07
   4  -6   3    1.19    0.08
   5  -6   3    0.22    0.05
   5  -6   3    0.21    0.04
   6  -6   3    0.12    0.04
   7  -6   3    0.29    0.06
   8  -6   3   -0.03    0.03
   8   5  -3   -0.01    0.03
  -8  -5   3    0.09    0.04
   7   5  -3    0.38    0.06
  -7  -5   3    0.43    0.07
   6   5  -3    0.11    0.03
  -6  -5   3    0.08    0.02
  -6  -5   3    0.03    0.03
   5   5  -3    1.60    0.09
  -5  -5   3    1.73    0.06
  -5  -5   3    1.54    0.09
   4   5  -3    5.30    0.14
  -4  -5   3    5.39    0.15
  -4  -5   3    5.39    0.13
   3   5  -3    0.52    0.04
  -3  -5   3    0.48    0.05
  -3  -5   3    0.54    0.04
   2   5  -3   19.36    0.30
  -2  -5   3   19.06    0.34
  -2  -5   3   19.34    0.33
   1   5  -3    5.86    0.09
  -1  -5   3    5.87    0.13
   0  -5   3   17.25    0.29
   1  -5   3   15.43    0.22
   1  -5   3   15.30    0.22
   1  -5   3   15.72    0.28
   2  -5   3    7.61    0.14
   2  -5   3    7.72    0.18
   3  -5   3    0.97    0.06
   3  -5   3    1.04    0.05
   4  -5   3   10.67    0.22
   5  -5   3    2.77    0.11
   6  -5   3    0.39    0.06
   7  -5   3    3.56    0.15
   8  -5   3    0.08    0.04
   9  -5   3    0.01    0.03
   9   4  -3    0.09    0.04
  -9  -4   3    0.14    0.06
   8   4  -3    1.17    0.11
  -8  -4   3    1.40    0.11
   7   4  -3    0.02    0.03
  -7  -4   3    0.05    0.03
   6   4  -3    2.65    0.12
  -6  -4   3    2.69    0.08
  -6  -4   3    2.57    0.12
   5   4  -3   -0.01    0.02
  -5  -4   3    0.01    0.02
  -5  -4   3    0.00    0.01
   4   4  -3   -0.01    0.01
  -4  -4   3    0.01    0.01
  -4  -4   3    0.01    0.01
   3   4  -3    2.70    0.08
  -3  -4   3    2.74    0.08
  -3  -4   3    2.77    0.09
   2   4  -3   40.33    0.57
  -2  -4   3   40.75    0.62
  -2  -4   3   41.19    0.60
   1   4  -3   67.93    0.96
  -1  -4   3   69.94    1.03
   0  -4   3    1.74    0.06
  -1   4  -3   26.20    0.38
   1  -4   3   26.10    0.37
   1  -4   3   26.16    0.41
  -2   4  -3    9.31    0.17
   2  -4   3    9.32    0.20
   3  -4   3    8.83    0.18
   4  -4   3    0.83    0.06
   5  -4   3    0.26    0.04
   6  -4   3    2.08    0.11
   7  -4   3    0.56    0.08
   8  -4   3    0.14    0.05
   9  -4   3    0.24    0.06
  10   3  -3    0.17    0.06
   9   3  -3    0.51    0.07
  -9  -3   3    0.47    0.08
   8   3  -3    2.04    0.12
  -8  -3   3    1.99    0.12
   7   3  -3    0.30    0.05
  -7  -3   3    0.22    0.05
   6   3  -3    1.97    0.10
  -6  -3   3    2.00    0.07
  -6  -3   3    2.13    0.10
   5   3  -3    1.59    0.08
  -5  -3   3    1.57    0.06
  -5  -3   3    1.59    0.08
   4   3  -3   18.72    0.32
  -4  -3   3   18.84    0.33
  -4  -3   3   18.38    0.30
   3   3  -3   10.71    0.19
  -3  -3   3   10.49    0.19
  -3  -3   3   10.54    0.20
   2   3  -3    1.95    0.05
  -2  -3   3    2.01    0.07
  -2  -3   3    1.95    0.06
   1   3  -3    1.05    0.03
  -1  -3   3    1.15    0.05
  -1  -3   3    1.04    0.04
  -1  -3   3    1.09    0.03
   0   3  -3   16.75    0.25
   0  -3   3   16.66    0.24
   0  -3   3   16.63    0.26
  -1   3  -3   24.56    0.37
   1  -3   3   24.52    0.38
  -2   3  -3    0.01    0.01
  -3   3  -3    1.98    0.08
  -4   3  -3    3.64    0.12
   5  -3   3    1.72    0.09
   6  -3   3    2.19    0.12
   7  -3   3    5.33    0.20
   8  -3   3   -0.01    0.03
  10   2  -3    1.31    0.12
   9   2  -3    0.10    0.05
   8   2  -3    6.66    0.20
  -8  -2   3    6.54    0.21
   7   2  -3    6.41    0.19
  -7  -2   3    6.23    0.19
   6   2  -3    0.72    0.06
  -6  -2   3    0.74    0.07
   5   2  -3    2.29    0.09
  -5  -2   3    2.49    0.07
  -5  -2   3    2.44    0.09
   4   2  -3   10.72    0.21
  -4  -2   3   10.68    0.19
  -4  -2   3   10.53    0.21
   3   2  -3    0.03    0.01
  -3  -2   3    0.03    0.01
  -3  -2   3    0.06    0.01
   2   2  -3   15.82    0.24
  -2  -2   3   15.71    0.26
  -2  -2   3   15.81    0.24
   1   2  -3    9.94    0.16
   1   2  -3   10.13    0.16
  -1  -2   3   10.31    0.19
  -1  -2   3   10.32    0.16
   0   2  -3    0.02    0.01
   0  -2   3    0.02    0.01
   0  -2   3    0.02    0.01
  -1   2  -3    5.02    0.11
  -2   2  -3    1.99    0.08
  -3   2  -3    2.04    0.09
  -4   2  -3    6.19    0.17
  -5   2  -3    1.11    0.08
  -6   2  -3    5.22    0.18
   6  -2   3    5.10    0.18
   7  -2   3    0.06    0.04
   8  -2   3    0.61    0.09
  10   1  -3    1.62    0.12
   9   1  -3    1.00    0.10
   8   1  -3    0.21    0.05
   7   1  -3    0.43    0.06
   6   1  -3    1.34    0.08
  -6  -1   3    1.47    0.08
   5   1  -3    3.66    0.11
  -5  -1   3    3.53    0.10
  -5  -1   3    3.71    0.11
   4   1  -3    0.88    0.05
  -4  -1   3    0.92    0.05
  -4  -1   3    0.97    0.04
   3   1  -3   10.78    0.19
  -3  -1   3   10.42    0.19
  -3  -1   3   10.78    0.18
   2   1  -3   10.51    0.16
   2   1  -3   10.53    0.18
  -2  -1   3   10.61    0.18
  -2  -1   3   10.63    0.16
   1   1  -3    0.12    0.02
  -1  -1   3    0.12    0.02
  -1  -1   3    0.10    0.01
   0   1  -3    0.00    0.01
   0  -1   3    0.01    0.01
   0  -1   3    0.01    0.01
  -1   1  -3   56.56    0.82
   1  -1   3   56.23    0.81
  -2   1  -3   30.12    0.49
   2  -1   3   30.36    0.46
  -3   1  -3    2.00    0.09
  -4   1  -3    1.85    0.10
  -5   1  -3    0.34    0.06
  -6   1  -3    2.39    0.13
   7  -1   3    0.00    0.03
   8  -1   3    0.45    0.08
  11   0  -3    0.04    0.05
  10   0  -3    0.09    0.05
   9   0  -3    2.19    0.13
   8   0  -3    0.18    0.05
   7   0  -3    1.29    0.09
   6   0  -3   12.52    0.26
   5   0  -3    4.89    0.13
   4   0  -3    2.87    0.09
  -4   0   3    2.75    0.08
   3   0  -3    6.20    0.13
   2   0  -3    0.48    0.03
  -2   0   3    0.52    0.03
   1   0  -3   19.93    0.27
   1   0  -3   20.11    0.31
  -1   0   3   19.76    0.27
  -1   0   3   19.55    0.31
   0   0  -3    0.78    0.03
   0   0  -3    0.71    0.04
   0   0   3    0.75    0.03
   0   0   3    0.74    0.03
  -1   0  -3    4.01    0.11
  -1   0  -3    3.96    0.10
   1   0   3    3.88    0.09
  -2   0  -3    0.20    0.03
  -2   0  -3    0.12    0.02
   2   0   3    0.15    0.02
  -3   0  -3    1.36    0.07
  -3   0  -3    1.56    0.09
   3   0   3    1.37    0.05
  -4   0  -3    2.37    0.12
   4   0   3    2.36    0.06
  -5   0  -3    1.72    0.11
   5   0   3    1.90    0.06
  -6   0  -3    1.45    0.13
  -7   0  -3    0.88    0.11
   7   0   3    0.80    0.10
  11  -1  -3    0.07    0.05
  10  -1  -3    0.14    0.05
   9  -1  -3    0.58    0.07
   8  -1  -3    1.42    0.10
   7  -1  -3    0.07    0.03
   6  -1  -3    6.95    0.18
   5  -1  -3    4.09    0.12
   3  -1  -3    0.00    0.01
   2  -1  -3   21.41    0.34
   2  -1  -3   21.33    0.31
  -2   1   3   20.95    0.34
   1  -1  -3    1.83    0.04
   1  -1  -3    1.86    0.07
  -1   1   3    1.90    0.05
  -1   1   3    1.83    0.06
   0  -1  -3    0.05    0.01
   0  -1  -3    0.08    0.02
   0   1   3    0.08    0.01
  -1  -1  -3    4.11    0.10
  -1  -1  -3    4.20    0.13
   1   1   3    4.13    0.09
  -2  -1  -3    3.06    0.10
  -2  -1  -3    3.21    0.12
   2   1   3    3.18    0.07
  -3  -1  -3    4.89    0.16
  -3  -1  -3    4.63    0.14
   3   1   3    4.47    0.08
  -4  -1  -3    0.50    0.07
  -4  -1  -3    0.51    0.06
  -5  -1  -3    2.92    0.14
  -5  -1  -3    2.71    0.13
  -6  -1  -3    2.02    0.13
  -7  -1  -3    0.08    0.05
  11  -2  -3    0.08    0.05
  10  -2  -3    0.10    0.05
   9  -2  -3    0.09    0.05
   8  -2  -3    0.02    0.04
   7  -2  -3    1.25    0.08
   6  -2  -3    0.53    0.06
   5  -2  -3    5.18    0.14
   4  -2  -3    0.00    0.02
   4  -2  -3    0.00    0.01
   3  -2  -3    3.54    0.10
   3  -2  -3    3.53    0.09
   2  -2  -3    5.09    0.12
   2  -2  -3    5.01    0.10
   1  -2  -3    2.32    0.08
   1  -2  -3    2.31    0.06
   0  -2  -3    0.16    0.02
   0  -2  -3    0.15    0.03
  -1  -2  -3    9.72    0.22
  -1  -2  -3    9.67    0.20
  -2  -2  -3    0.74    0.07
  -2  -2  -3    0.78    0.06
  -3  -2  -3   12.55    0.27
  -3  -2  -3   12.22    0.30
  -4  -2  -3    8.98    0.24
  -4  -2  -3    8.63    0.25
  -5  -2  -3    1.26    0.10
  -5  -2  -3    1.34    0.12
  -6  -2  -3    0.60    0.09
  -6  -2  -3    0.50    0.09
  11  -3  -3    0.04    0.05
  10  -3  -3    0.18    0.05
   9  -3  -3    0.51    0.07
   8  -3  -3    3.35    0.14
   7  -3  -3    0.42    0.06
   6  -3  -3    0.53    0.06
   5  -3  -3    3.25    0.11
   5  -3  -3    3.40    0.11
   4  -3  -3    0.01    0.02
   4  -3  -3    0.06    0.02
   3  -3  -3    4.50    0.12
   3  -3  -3    4.46    0.11
   2  -3  -3    1.69    0.06
   2  -3  -3    1.53    0.07
   1  -3  -3   19.41    0.31
   1  -3  -3   18.91    0.34
   0  -3  -3   -0.03    0.01
   0  -3  -3    0.00    0.01
  -1  -3  -3    6.62    0.19
  -1  -3  -3    6.61    0.16
  -2  -3  -3    0.01    0.02
  -2  -3  -3    0.00    0.02
  -3  -3  -3    1.45    0.10
  -3  -3  -3    1.39    0.09
  -4  -3  -3    2.60    0.13
  -4  -3  -3    2.42    0.14
  -5  -3  -3    0.17    0.06
  -5  -3  -3    0.19    0.05
  -6  -3  -3    0.44    0.09
  -6  -3  -3    0.52    0.09
  11  -4  -3    0.09    0.05
  10  -4  -3    0.11    0.05
   9  -4  -3    0.13    0.04
   8  -4  -3    0.24    0.05
   7  -4  -3    0.02    0.03
   7  -4  -3   -0.03    0.02
   6  -4  -3    0.27    0.04
   6  -4  -3    0.24    0.04
   5  -4  -3    2.17    0.09
   5  -4  -3    2.16    0.09
   4  -4  -3    1.40    0.07
   4  -4  -3    1.31    0.07
   3  -4  -3    0.87    0.06
   3  -4  -3    0.84    0.05
   2  -4  -3    0.57    0.05
   2  -4  -3    0.53    0.04
   1  -4  -3    0.31    0.04
   1  -4  -3    0.28    0.04
   0  -4  -3    7.64    0.20
   0  -4  -3    7.57    0.17
  -1  -4  -3    0.99    0.08
  -1  -4  -3    1.06    0.07
  -2  -4  -3    1.51    0.10
  -2  -4  -3    1.38    0.08
  -3  -4  -3    6.61    0.22
  -3  -4  -3    6.27    0.20
  -4  -4  -3    0.01    0.03
  -4  -4  -3    0.04    0.04
  -5  -4  -3    0.58    0.08
  -5  -4  -3    0.51    0.09
  10  -5  -3    0.02    0.03
   9  -5  -3    0.12    0.04
   9  -5  -3    0.14    0.05
   8  -5  -3    0.49    0.06
   8  -5  -3    0.41    0.07
   7  -5  -3    0.71    0.07
   7  -5  -3    0.73    0.07
   6  -5  -3    0.02    0.03
   6  -5  -3   -0.01    0.02
   5  -5  -3   -0.05    0.02
   5  -5  -3    0.00    0.02
   4  -5  -3    7.55    0.18
   4  -5  -3    7.30    0.18
   3  -5  -3    0.90    0.06
   3  -5  -3    0.76    0.07
   2  -5  -3    0.08    0.02
   2  -5  -3    0.08    0.03
   1  -5  -3    0.50    0.06
   1  -5  -3    0.53    0.05
   0  -5  -3    0.01    0.02
   0  -5  -3   -0.01    0.02
  -1  -5  -3    4.83    0.15
  -1  -5  -3    4.84    0.17
  -2  -5  -3    1.26    0.12
  -2  -5  -3    1.04    0.08
  -3  -5  -3    0.50    0.07
  -3  -5  -3    0.53    0.08
  -4  -5  -3   -0.03    0.02
  -4  -5  -3    0.01    0.03
  10  -6  -3    0.05    0.04
  10  -6  -3    0.03    0.04
   9  -6  -3    0.08    0.04
   9  -6  -3    0.05    0.04
   8  -6  -3    0.05    0.03
   8  -6  -3    0.00    0.03
   7  -6  -3    0.12    0.04
   7  -6  -3    0.12    0.04
   6  -6  -3   17.76    0.36
   6  -6  -3   18.08    0.35
   5  -6  -3    0.03    0.02
   5  -6  -3    0.02    0.02
   4  -6  -3    0.50    0.06
   4  -6  -3    0.60    0.06
   3  -6  -3    0.80    0.07
   3  -6  -3    0.86    0.06
   2  -6  -3    0.53    0.06
   2  -6  -3    0.39    0.05
   1  -6  -3    0.01    0.02
   1  -6  -3    0.00    0.02
   0  -6  -3    0.30    0.05
   0  -6  -3    0.29    0.05
  -1  -6  -3    0.06    0.03
  -1  -6  -3   -0.01    0.02
  -2  -6  -3    0.06    0.03
  -2  -6  -3    0.03    0.04
  -3  -6  -3    0.02    0.04
  -3  -6  -3    0.02    0.03
   9  -7  -3    0.05    0.03
   9  -7  -3   -0.02    0.03
   8  -7  -3    1.48    0.09
   8  -7  -3    1.01    0.10
   7  -7  -3    0.02    0.03
   7  -7  -3    0.05    0.03
   6  -7  -3    0.51    0.06
   6  -7  -3    0.51    0.06
   5  -7  -3    0.04    0.03
   5  -7  -3   -0.01    0.02
   4  -7  -3    0.08    0.03
   4  -7  -3    0.05    0.03
   3  -7  -3    0.03    0.02
   3  -7  -3    0.02    0.03
   2  -7  -3    0.39    0.06
   2  -7  -3    0.25    0.04
   1  -7  -3    0.01    0.03
   1  -7  -3    0.01    0.02
   0  -7  -3    0.03    0.03
   0  -7  -3    0.02    0.02
  -1  -7  -3    0.01    0.03
  -1  -7  -3    0.07    0.03
   8  -8  -3    0.33    0.05
   8  -8  -3    0.26    0.05
   7  -8  -3    0.28    0.05
   7  -8  -3    0.23    0.05
   6  -8  -3    0.36    0.06
   6  -8  -3    0.41    0.06
   5  -8  -3    0.04    0.03
   5  -8  -3    0.04    0.03
   4  -8  -3    0.00    0.02
   4  -8  -3    0.03    0.03
   3  -8  -3    0.16    0.04
   3  -8  -3    0.14    0.04
   2  -8  -3    0.04    0.03
   2  -8  -3    0.04    0.03
   1  -8  -3    0.00    0.02
   1  -8  -3   -0.01    0.03
  -2 -11   4    0.60    0.08
  -2 -11   4    0.69    0.09
  -1 -11   4    2.02    0.12
   0 -11   4    0.30    0.06
   1 -11   4    0.08    0.03
   2 -11   4    0.13    0.04
   3 -11   4    0.74    0.08
   4 -11   4    0.02    0.03
   5 -11   4    0.14    0.04
  -4 -10   4    0.15    0.05
  -3 -10   4    0.29    0.06
  -2 -10   4    0.21    0.05
  -1 -10   4    0.43    0.06
   0 -10   4    1.84    0.10
   1 -10   4    0.20    0.04
   2 -10   4    0.16    0.04
   3 -10   4    0.02    0.03
   4 -10   4    0.62    0.07
   5 -10   4    0.49    0.07
   6 -10   4    0.19    0.05
  -5  -9   4    0.33    0.07
  -4  -9   4    0.02    0.03
  -3  -9   4    3.12    0.13
  -3  -9   4    3.05    0.14
  -2  -9   4   11.34    0.27
  -1  -9   4    6.34    0.18
   0  -9   4    0.06    0.03
   1  -9   4    0.30    0.05
   2  -9   4    0.11    0.03
   3  -9   4    0.21    0.05
   4  -9   4    0.54    0.07
   5  -9   4    0.04    0.03
   6  -9   4   -0.01    0.03
   7  -9   4    0.35    0.07
   6   8  -4    0.07    0.04
  -6  -8   4    0.15    0.05
   5   8  -4    0.05    0.03
  -5  -8   4    0.02    0.03
   4   8  -4    2.76    0.10
  -4  -8   4    2.84    0.13
  -4  -8   4    2.80    0.11
   3   8  -4    0.43    0.04
  -3  -8   4    0.33    0.05
  -3  -8   4    0.37    0.05
  -2  -8   4    2.90    0.12
  -1  -8   4    0.91    0.06
   0  -8   4    2.46    0.10
   1  -8   4    0.93    0.06
   2  -8   4    2.21    0.10
   3  -8   4    0.72    0.07
   3  -8   4    0.64    0.03
   4  -8   4    0.03    0.02
   4  -8   4    0.02    0.02
   5  -8   4    0.07    0.04
   5  -8   4    0.03    0.03
   6  -8   4    0.39    0.05
   6  -8   4    0.27    0.06
   7  -8   4    0.71    0.08
   7  -8   4    0.74    0.10
   7   7  -4    0.54    0.07
  -7  -7   4    0.55    0.08
   6   7  -4    0.02    0.03
  -6  -7   4   -0.01    0.02
   5   7  -4    1.89    0.09
  -5  -7   4    1.92    0.11
  -5  -7   4    1.74    0.08
   4   7  -4    4.82    0.13
  -4  -7   4    4.64    0.14
  -4  -7   4    4.93    0.16
   3   7  -4    0.80    0.05
  -3  -7   4    0.71    0.06
  -3  -7   4    0.81    0.07
   2   7  -4    0.45    0.03
   2   7  -4    0.56    0.03
  -2  -7   4    0.50    0.05
  -1  -7   4    0.42    0.04
   0  -7   4    3.31    0.11
   1  -7   4    1.04    0.06
   2  -7   4    0.50    0.02
   2  -7   4    0.51    0.02
   2  -7   4    0.50    0.05
   3  -7   4    0.44    0.05
   3  -7   4    0.36    0.03
   4  -7   4    0.29    0.05
   4  -7   4    0.40    0.04
   5  -7   4    0.67    0.08
   5  -7   4    0.66    0.06
   6  -7   4    0.32    0.06
   6  -7   4    0.36    0.06
   7  -7   4    0.37    0.07
   7  -7   4    0.37    0.06
   8  -7   4    0.22    0.06
   8   6  -4    1.12    0.10
  -8  -6   4    1.32    0.13
   7   6  -4    0.07    0.04
  -7  -6   4    0.13    0.05
   6   6  -4    5.97    0.18
  -6  -6   4    5.88    0.14
  -6  -6   4    5.86    0.20
   5   6  -4    0.00    0.02
  -5  -6   4    0.02    0.02
  -5  -6   4   -0.01    0.02
   4   6  -4    0.06    0.02
  -4  -6   4    0.08    0.03
  -4  -6   4    0.10    0.02
   3   6  -4    2.03    0.07
  -3  -6   4    2.07    0.09
  -3  -6   4    1.93    0.09
   2   6  -4    0.23    0.02
   2   6  -4    0.19    0.02
  -2  -6   4    0.24    0.04
  -2  -6   4    0.24    0.03
  -1  -6   4    0.89    0.05
   0  -6   4   16.10    0.29
   1  -6   4    9.31    0.20
   2  -6   4    2.20    0.06
   2  -6   4    2.21    0.09
   3  -6   4    1.53    0.08
   3  -6   4    1.49    0.07
   4  -6   4    0.01    0.02
   4  -6   4    0.04    0.02
   5  -6   4    0.08    0.03
   5  -6   4    0.06    0.04
   6  -6   4    0.51    0.06
   7  -6   4    0.80    0.09
   8  -6   4    0.93    0.10
   9   5  -4   -0.05    0.03
  -9  -5   4    0.02    0.04
   8   5  -4    0.10    0.04
  -8  -5   4    0.08    0.04
   7   5  -4    0.95    0.09
  -7  -5   4    0.71    0.05
  -7  -5   4    0.86    0.09
   6   5  -4    4.10    0.14
  -6  -5   4    4.15    0.11
  -6  -5   4    4.08    0.15
   5   5  -4   13.33    0.27
  -5  -5   4   13.14    0.25
  -5  -5   4   13.32    0.29
   4   5  -4    0.06    0.02
  -4  -5   4    0.04    0.02
  -4  -5   4    0.04    0.02
   3   5  -4    0.71    0.04
  -3  -5   4    0.78    0.05
  -3  -5   4    0.73    0.05
   2   5  -4   12.12    0.20
   2   5  -4   11.85    0.19
  -2  -5   4   12.08    0.25
  -2  -5   4   12.05    0.22
   1   5  -4    0.25    0.01
  -1  -5   4    0.30    0.03
   0   5  -4    0.19    0.01
   0  -5   4    0.18    0.03
   0  -5   4    0.19    0.01
  -1   5  -4    8.00    0.14
   1  -5   4    8.24    0.17
  -2   5  -4    5.20    0.12
   2  -5   4    5.01    0.14
   3  -5   4    6.53    0.17
   3  -5   4    6.20    0.15
   4  -5   4    3.90    0.13
   5  -5   4    3.17    0.13
   6  -5   4    2.67    0.13
   7  -5   4    1.35    0.10
   8  -5   4    0.44    0.08
   9   4  -4    0.28    0.06
  -9  -4   4    0.45    0.08
   8   4  -4    2.66    0.13
  -8  -4   4    2.61    0.14
   7   4  -4    6.43    0.19
  -7  -4   4    6.16    0.15
  -7  -4   4    6.50    0.20
   6   4  -4   13.08    0.28
  -6  -4   4   12.85    0.29
  -6  -4   4   12.43    0.24
   5   4  -4    0.73    0.06
  -5  -4   4    0.66    0.06
  -5  -4   4    0.61    0.04
   4   4  -4    1.14    0.06
  -4  -4   4    1.14    0.06
  -4  -4   4    1.01    0.05
   3   4  -4    6.83    0.13
  -3  -4   4    6.49    0.15
  -3  -4   4    6.63    0.14
   2   4  -4    0.92    0.03
  -2  -4   4    0.85    0.04
  -2  -4   4    0.86    0.05
   1   4  -4    8.09    0.13
  -1  -4   4    8.02    0.13
  -1  -4   4    8.07    0.15
  -1  -4   4    8.17    0.18
   0   4  -4   25.28    0.37
   0  -4   4   25.78    0.39
  -1   4  -4    0.42    0.03
   1  -4   4    0.45    0.04
  -2   4  -4    3.17    0.09
   2  -4   4    3.12    0.10
  -3   4  -4    0.28    0.04
  -4   4  -4    0.96    0.07
   5  -4   4    0.49    0.06
   6  -4   4    0.38    0.06
   7  -4   4    0.20    0.05
   8  -4   4   -0.01    0.03
  10   3  -4    0.04    0.04
   9   3  -4    0.22    0.06
  -9  -3   4    0.23    0.06
   8   3  -4    0.17    0.05
  -8  -3   4    0.29    0.06
   7   3  -4    0.65    0.07
  -7  -3   4    0.73    0.08
   6   3  -4    4.86    0.15
  -6  -3   4    4.67    0.15
  -6  -3   4    4.53    0.12
   5   3  -4    0.44    0.05
  -5  -3   4    0.50    0.04
  -5  -3   4    0.47    0.05
   4   3  -4   22.68    0.37
  -4  -3   4   23.06    0.37
  -4  -3   4   22.87    0.38
   3   3  -4   16.38    0.26
  -3  -3   4   16.39    0.29
  -3  -3   4   16.22    0.27
   2   3  -4   32.09    0.46
  -2  -3   4   32.00    0.46
  -2  -3   4   32.48    0.50
   1   3  -4   22.41    0.34
  -1  -3   4   22.68    0.33
  -1  -3   4   23.08    0.38
   0   3  -4   28.30    0.42
   0  -3   4   27.95    0.46
   0  -3   4   28.11    0.42
  -1   3  -4    0.09    0.02
   1  -3   4    0.11    0.02
  -2   3  -4   19.59    0.34
  -3   3  -4    2.59    0.10
  -4   3  -4    0.29    0.05
  -5   3  -4   10.77    0.27
  -6   3  -4    0.07    0.04
   6  -3   4    0.09    0.04
   7  -3   4    0.34    0.07
   8  -3   4   -0.03    0.03
  10   2  -4    1.11    0.11
   9   2  -4   -0.05    0.03
   8   2  -4    2.34    0.12
  -8  -2   4    2.47    0.13
   7   2  -4    0.26    0.05
  -7  -2   4    0.33    0.05
   6   2  -4   -0.02    0.02
  -6  -2   4    0.02    0.01
  -6  -2   4    0.00    0.02
   5   2  -4    1.08    0.06
  -5  -2   4    1.10    0.06
  -5  -2   4    1.19    0.06
   4   2  -4   16.89    0.29
  -4  -2   4   16.83    0.29
  -4  -2   4   17.01    0.29
   3   2  -4   74.33    1.12
  -3  -2   4   74.23    1.03
  -3  -2   4   73.35    1.05
   2   2  -4    0.93    0.04
   2   2  -4    0.92    0.03
  -2  -2   4    0.99    0.05
  -2  -2   4    0.97    0.03
   1   2  -4   28.11    0.42
  -1  -2   4   28.22    0.39
  -1  -2   4   28.75    0.45
   0   2  -4   12.77    0.23
   0  -2   4   12.96    0.24
   0  -2   4   12.27    0.20
  -1   2  -4   18.26    0.32
   1  -2   4   18.61    0.32
  -2   2  -4    1.76    0.08
   2  -2   4    1.81    0.07
  -3   2  -4    0.81    0.08
  -4   2  -4    3.52    0.14
  -5   2  -4    2.29    0.12
  -6   2  -4    0.19    0.05
   7  -2   4    0.84    0.10
  11   1  -4    0.12    0.05
  10   1  -4    0.71    0.09
   9   1  -4    0.57    0.08
   8   1  -4    1.41    0.10
   7   1  -4    1.12    0.09
   6   1  -4   10.08    0.22
   5   1  -4    5.22    0.14
  -5  -1   4    4.97    0.13
  -5  -1   4    5.09    0.13
   4   1  -4    1.56    0.07
  -4  -1   4    1.58    0.06
  -4  -1   4    1.56    0.06
   3   1  -4    0.24    0.02
   3   1  -4    0.24    0.03
  -3  -1   4    0.21    0.03
   2   1  -4   14.80    0.24
  -2  -1   4   14.51    0.25
   1   1  -4   24.12    0.38
  -1  -1   4   24.09    0.38
   0   1  -4    0.57    0.04
   0  -1   4    0.59    0.03
   0  -1   4    0.63    0.04
  -1   1  -4    6.90    0.17
   1  -1   4    6.95    0.15
  -2   1  -4    7.68    0.19
   2  -1   4    7.81    0.16
  -3   1  -4    1.51    0.09
   3  -1   4    1.47    0.06
  -4   1  -4    0.84    0.08
   4  -1   4    0.90    0.05
  -5   1  -4   10.13    0.28
   5  -1   4    9.62    0.19
  -6   1  -4    0.03    0.03
  -7   1  -4    1.47    0.15
  11   0  -4   -0.02    0.04
  10   0  -4    3.65    0.16
   9   0  -4    1.85    0.12
   8   0  -4    0.32    0.06
   7   0  -4    0.26    0.05
   6   0  -4    5.20    0.15
   5   0  -4    0.30    0.04
  -5   0   4    0.36    0.04
   4   0  -4    5.80    0.13
  -4   0   4    5.67    0.14
   3   0  -4    0.46    0.04
   3   0  -4    0.40    0.02
  -3   0   4    0.39    0.04
   2   0  -4    0.67    0.04
   2   0  -4    0.76    0.02
  -2   0   4    0.80    0.04
   1   0  -4   10.15    0.20
   1   0  -4    9.97    0.15
  -1   0   4    9.89    0.18
  -1   0   4    9.81    0.15
   0   0  -4    1.14    0.06
   0   0  -4    1.20    0.04
   0   0   4    1.13    0.05
  -1   0  -4    5.31    0.12
  -1   0  -4    5.27    0.15
   1   0   4    5.15    0.11
  -2   0  -4    8.00    0.18
  -2   0  -4    7.97    0.21
   2   0   4    7.77    0.15
  -3   0  -4    1.24    0.08
   3   0   4    1.15    0.05
  -4   0  -4    5.04    0.18
   4   0   4    5.25    0.11
  -5   0  -4    0.04    0.03
  -6   0  -4    1.07    0.11
  -7   0  -4    0.66    0.10
  11  -1  -4    0.09    0.06
  10  -1  -4    0.05    0.05
   9  -1  -4    0.03    0.04
   8  -1  -4    0.01    0.03
   7  -1  -4    0.73    0.07
   6  -1  -4    0.02    0.02
   5  -1  -4    3.06    0.10
   4  -1  -4    0.57    0.04
   3  -1  -4    0.04    0.01
   3  -1  -4    0.03    0.01
   2  -1  -4    0.58    0.04
   2  -1  -4    0.68    0.02
  -2   1   4    0.65    0.04
  -2   1   4    0.65    0.03
   1  -1  -4   25.70    0.37
   1  -1  -4   25.68    0.43
  -1   1   4   25.40    0.40
   0  -1  -4   16.38    0.27
   0  -1  -4   16.31    0.31
   0   1   4   16.31    0.27
  -1  -1  -4    0.41    0.04
  -1  -1  -4    0.38    0.05
   1   1   4    0.43    0.03
  -2  -1  -4    2.31    0.11
  -2  -1  -4    2.50    0.10
   2   1   4    2.35    0.06
  -3  -1  -4    0.31    0.06
  -3  -1  -4    0.37    0.05
   3   1   4    0.33    0.02
  -4  -1  -4    2.66    0.14
  -4  -1  -4    2.47    0.12
  -5  -1  -4    0.10    0.04
  -6  -1  -4    0.83    0.11
  11  -2  -4    0.37    0.08
  10  -2  -4    0.08    0.05
   9  -2  -4    0.23    0.05
   8  -2  -4    2.06    0.11
   7  -2  -4    0.33    0.05
   6  -2  -4    0.39    0.05
   5  -2  -4    0.98    0.06
   5  -2  -4    1.01    0.06
   4  -2  -4    0.41    0.04
   4  -2  -4    0.46    0.04
   3  -2  -4    4.53    0.10
   3  -2  -4    4.60    0.12
   2  -2  -4    0.48    0.03
   2  -2  -4    0.47    0.05
   1  -2  -4    0.75    0.04
   1  -2  -4    0.77    0.05
   0  -2  -4    0.89    0.06
   0  -2  -4    0.85    0.05
  -1  -2  -4    0.24    0.04
  -1  -2  -4    0.26    0.04
  -2  -2  -4    0.32    0.05
  -2  -2  -4    0.23    0.05
  -3  -2  -4    2.55    0.12
  -3  -2  -4    2.58    0.13
  -4  -2  -4    0.78    0.10
  -4  -2  -4    0.82    0.09
  -5  -2  -4    0.47    0.08
  -5  -2  -4    0.40    0.08
  11  -3  -4    0.12    0.05
  10  -3  -4    0.21    0.05
   9  -3  -4    0.00    0.03
   8  -3  -4    1.62    0.10
   7  -3  -4    0.21    0.05
   6  -3  -4    0.94    0.07
   6  -3  -4    0.95    0.07
   5  -3  -4    0.04    0.02
   5  -3  -4    0.07    0.03
   4  -3  -4    3.27    0.11
   4  -3  -4    3.03    0.09
   3  -3  -4    1.23    0.05
   3  -3  -4    1.19    0.07
   2  -3  -4    0.02    0.01
   2  -3  -4    0.00    0.02
   1  -3  -4    0.97    0.05
   1  -3  -4    0.87    0.06
   0  -3  -4    0.41    0.06
   0  -3  -4    0.44    0.04
  -1  -3  -4    4.35    0.16
  -1  -3  -4    4.38    0.13
  -2  -3  -4    0.03    0.03
  -2  -3  -4    0.06    0.03
  -3  -3  -4    1.59    0.10
  -3  -3  -4    2.07    0.13
  -4  -3  -4    1.51    0.14
  -4  -3  -4    1.57    0.11
  -5  -3  -4   -0.01    0.03
  -5  -3  -4    0.07    0.04
  11  -4  -4    0.01    0.04
  10  -4  -4    0.13    0.05
   9  -4  -4    0.20    0.05
   8  -4  -4    0.20    0.04
   8  -4  -4    0.16    0.04
   7  -4  -4    0.64    0.07
   7  -4  -4    0.51    0.06
   6  -4  -4    0.04    0.03
   6  -4  -4    0.06    0.03
   5  -4  -4    0.37    0.04
   5  -4  -4    0.42    0.05
   4  -4  -4    0.96    0.07
   4  -4  -4    0.97    0.05
   3  -4  -4    0.39    0.05
   3  -4  -4    0.41    0.04
   2  -4  -4    0.01    0.01
   2  -4  -4   -0.01    0.02
   1  -4  -4    1.37    0.06
   1  -4  -4    1.37    0.09
   0  -4  -4    0.07    0.03
   0  -4  -4    0.10    0.03
  -1  -4  -4    4.20    0.14
  -1  -4  -4    4.06    0.17
  -2  -4  -4    3.74    0.15
  -2  -4  -4    3.68    0.17
  -3  -4  -4    0.32    0.06
  -3  -4  -4    0.43    0.08
  -4  -4  -4    0.41    0.08
  -4  -4  -4    0.44    0.07
  10  -5  -4    0.63    0.08
  10  -5  -4    0.45    0.08
   9  -5  -4    0.03    0.03
   9  -5  -4    0.04    0.04
   8  -5  -4    0.10    0.04
   8  -5  -4    0.08    0.04
   7  -5  -4    0.28    0.05
   7  -5  -4    0.32    0.05
   6  -5  -4    0.15    0.03
   6  -5  -4    0.16    0.03
   5  -5  -4    0.91    0.07
   5  -5  -4    0.83    0.06
   4  -5  -4    0.00    0.02
   4  -5  -4    0.03    0.02
   3  -5  -4    1.96    0.10
   3  -5  -4    2.08    0.08
   2  -5  -4    0.10    0.04
   2  -5  -4    0.07    0.02
   1  -5  -4    1.55    0.10
   1  -5  -4    1.89    0.08
   0  -5  -4    0.00    0.03
   0  -5  -4    0.04    0.02
  -1  -5  -4    0.36    0.06
  -1  -5  -4    0.43    0.07
  -2  -5  -4    2.10    0.12
  -2  -5  -4    2.07    0.14
  -3  -5  -4    0.22    0.06
  -3  -5  -4    0.16    0.06
  10  -6  -4    0.04    0.04
   9  -6  -4    0.03    0.03
   9  -6  -4    0.03    0.03
   8  -6  -4    0.07    0.03
   8  -6  -4    0.05    0.03
   7  -6  -4    0.18    0.04
   7  -6  -4    0.21    0.04
   6  -6  -4    0.36    0.05
   6  -6  -4    0.38    0.05
   5  -6  -4    0.00    0.03
   5  -6  -4    0.00    0.02
   4  -6  -4    0.01    0.02
   4  -6  -4    0.00    0.02
   3  -6  -4    0.06    0.02
   3  -6  -4    0.09    0.03
   2  -6  -4    1.06    0.07
   2  -6  -4    1.26    0.09
   1  -6  -4    0.51    0.06
   1  -6  -4    0.49    0.07
   0  -6  -4    0.92    0.08
   0  -6  -4    0.74    0.09
  -1  -6  -4    2.56    0.13
  -1  -6  -4    2.71    0.15
   8  -7  -4    0.04    0.03
   8  -7  -4    0.03    0.03
   7  -7  -4   -0.02    0.02
   7  -7  -4    0.00    0.02
   6  -7  -4    1.44    0.10
   6  -7  -4    1.51    0.09
   5  -7  -4    0.16    0.04
   5  -7  -4    0.13    0.04
   4  -7  -4    0.00    0.02
   4  -7  -4    0.00    0.03
   3  -7  -4    0.10    0.04
   3  -7  -4    0.08    0.03
   2  -7  -4    0.04    0.03
   2  -7  -4    0.05    0.03
   1  -7  -4    1.60    0.09
   1  -7  -4    1.64    0.11
   0  -7  -4    0.22    0.05
   0  -7  -4    0.23    0.06
   6  -8  -4    0.08    0.03
   6  -8  -4    0.07    0.04
   5  -8  -4    0.05    0.04
   5  -8  -4    0.08    0.03
   4  -8  -4    0.13    0.04
   4  -8  -4    0.10    0.03
   3  -8  -4    0.02    0.02
   3  -8  -4    0.03    0.03
  -2 -11   5    0.20    0.05
  -2 -11   5    0.15    0.04
  -1 -11   5    0.04    0.03
   0 -11   5    0.52    0.07
   1 -11   5    0.09    0.04
   2 -11   5    0.39    0.06
   3 -11   5    0.68    0.08
   4 -11   5    0.77    0.08
  -4 -10   5   -0.02    0.02
  -3 -10   5    0.08    0.03
  -3 -10   5    0.12    0.04
  -2 -10   5    0.18    0.05
  -2 -10   5    0.20    0.04
  -1 -10   5    2.84    0.12
   0 -10   5    0.27    0.05
   1 -10   5    1.20    0.08
   2 -10   5    0.08    0.03
   3 -10   5    0.27    0.05
   4 -10   5    0.59    0.07
   5 -10   5    0.29    0.06
   6 -10   5    0.01    0.03
  -6  -9   5   -0.04    0.03
  -5  -9   5    0.10    0.04
  -4  -9   5    1.28    0.09
  -4  -9   5    1.37    0.08
  -3  -9   5    3.56    0.14
  -3  -9   5    3.48    0.14
  -2  -9   5    0.96    0.09
  -2  -9   5    1.08    0.07
  -1  -9   5    0.63    0.07
   0  -9   5    0.25    0.04
   1  -9   5    4.66    0.15
   2  -9   5   -0.01    0.02
   3  -9   5    0.66    0.07
   4  -9   5    0.02    0.02
   5  -9   5    0.49    0.07
   6  -9   5    0.21    0.06
  -7  -8   5    0.63    0.09
  -6  -8   5    0.62    0.08
  -5  -8   5    0.28    0.04
  -5  -8   5    0.20    0.05
  -4  -8   5    0.86    0.08
  -4  -8   5    1.09    0.08
  -3  -8   5    1.89    0.10
  -3  -8   5    1.95    0.10
  -2  -8   5    5.48    0.16
  -2  -8   5    5.42    0.18
  -1  -8   5    0.17    0.03
   0  -8   5    1.15    0.07
   1  -8   5    0.01    0.02
   2  -8   5    3.79    0.13
   3  -8   5    2.32    0.07
   3  -8   5    2.21    0.11
   4  -8   5    0.67    0.08
   4  -8   5    0.63    0.05
   5  -8   5    0.16    0.04
   5  -8   5    0.15    0.04
   6  -8   5    1.11    0.09
   6  -8   5    1.22    0.12
   7  -8   5    0.75    0.10
   7  -8   5    0.78    0.09
   8   7  -5   -0.03    0.03
  -8  -7   5    0.01    0.04
   7   7  -5    0.67    0.08
  -7  -7   5    0.87    0.10
   6   7  -5    0.28    0.05
  -6  -7   5    0.35    0.06
   5   7  -5    8.78    0.20
  -5  -7   5    8.63    0.23
  -5  -7   5    8.86    0.21
   4   7  -5   28.62    0.45
  -4  -7   5   28.54    0.50
  -4  -7   5   28.23    0.49
   3   7  -5   14.16    0.23
  -3  -7   5   14.55    0.29
  -3  -7   5   14.30    0.30
  -2  -7   5    0.50    0.06
  -2  -7   5    0.49    0.05
  -1  -7   5    1.53    0.07
   0  -7   5    1.27    0.07
   1  -7   5    0.16    0.03
   2  -7   5    1.67    0.08
   2  -7   5    1.64    0.06
   3  -7   5    0.17    0.04
   3  -7   5    0.20    0.03
   4  -7   5    0.09    0.04
   4  -7   5    0.09    0.03
   5  -7   5    1.22    0.09
   5  -7   5    1.23    0.08
   6  -7   5    0.79    0.08
   6  -7   5    0.71    0.09
   7  -7   5    0.07    0.05
   7  -7   5    0.05    0.04
   8   6  -5   -0.04    0.03
  -8  -6   5    0.04    0.04
   7   6  -5    0.03    0.03
  -7  -6   5    0.10    0.03
  -7  -6   5    0.07    0.04
   6   6  -5    2.74    0.11
  -6  -6   5    2.93    0.13
  -6  -6   5    2.77    0.10
   5   6  -5    0.33    0.04
  -5  -6   5    0.38    0.06
  -5  -6   5    0.45    0.05
   4   6  -5    4.64    0.12
  -4  -6   5    4.79    0.14
  -4  -6   5    4.54    0.14
   3   6  -5    3.44    0.08
  -3  -6   5    3.56    0.11
  -3  -6   5    3.42    0.12
   2   6  -5    6.11    0.11
   2   6  -5    6.02    0.10
  -2  -6   5    6.16    0.17
  -2  -6   5    6.25    0.15
  -1  -6   5    2.35    0.08
   0   6  -5    3.80    0.07
   0  -6   5    3.79    0.11
   0  -6   5    3.91    0.07
  -1   6  -5    4.04    0.09
   1  -6   5    4.00    0.12
   2  -6   5    0.09    0.02
   2  -6   5    0.07    0.03
   3  -6   5    0.00    0.01
   3  -6   5    0.00    0.02
   4  -6   5    2.78    0.11
   4  -6   5    2.98    0.13
   5  -6   5    1.71    0.10
   5  -6   5    1.53    0.10
   6  -6   5    1.12    0.10
   7  -6   5    0.50    0.08
   9   5  -5    0.22    0.06
  -9  -5   5    0.38    0.07
   8   5  -5    0.00    0.03
  -8  -5   5    0.01    0.02
  -8  -5   5    0.01    0.03
   7   5  -5    2.72    0.12
  -7  -5   5    2.54    0.13
  -7  -5   5    2.59    0.09
   6   5  -5    5.53    0.16
  -6  -5   5    5.06    0.14
  -6  -5   5    5.51    0.17
   5   5  -5    5.62    0.15
  -5  -5   5    5.57    0.15
  -5  -5   5    5.41    0.16
   4   5  -5    2.06    0.08
  -4  -5   5    2.08    0.09
  -4  -5   5    2.21    0.08
   3   5  -5    2.59    0.07
  -3  -5   5    2.56    0.08
  -3  -5   5    2.51    0.10
   2   5  -5    8.50    0.14
  -2  -5   5    8.66    0.17
  -2  -5   5    8.74    0.21
   1   5  -5    6.27    0.11
  -1  -5   5    6.27    0.13
  -1  -5   5    6.26    0.17
   0   5  -5    0.75    0.04
   0  -5   5    0.69    0.04
  -1   5  -5    0.47    0.04
   1  -5   5    0.56    0.05
  -2   5  -5    0.95    0.05
   2  -5   5    0.98    0.06
  -3   5  -5    2.25    0.09
   3  -5   5    2.47    0.11
  -4   5  -5    0.80    0.07
   5  -5   5    1.11    0.08
   6  -5   5    0.80    0.09
   7  -5   5    1.67    0.12
  10   4  -5    0.70    0.09
 -10  -4   5    0.73    0.10
   9   4  -5    0.02    0.03
  -9  -4   5    0.08    0.04
   8   4  -5    3.45    0.14
  -8  -4   5    3.74    0.16
   7   4  -5    0.05    0.03
  -7  -4   5   -0.02    0.02
  -7  -4   5    0.09    0.03
   6   4  -5    0.09    0.04
  -6  -4   5    0.08    0.03
  -6  -4   5    0.10    0.02
   5   4  -5    1.80    0.08
  -5  -4   5    1.70    0.07
  -5  -4   5    2.06    0.09
   4   4  -5    0.05    0.02
  -4  -4   5    0.08    0.02
  -4  -4   5    0.02    0.01
   3   4  -5    1.99    0.06
  -3  -4   5    1.91    0.06
  -3  -4   5    1.93    0.08
   2   4  -5   23.89    0.37
  -2  -4   5   25.03    0.37
  -2  -4   5   25.11    0.42
   1   4  -5   21.41    0.33
  -1  -4   5   21.78    0.39
  -1  -4   5   21.43    0.33
   0   4  -5    5.18    0.12
   0  -4   5    5.07    0.14
   0  -4   5    4.89    0.11
  -1   4  -5    7.16    0.16
   1  -4   5    7.24    0.16
  -2   4  -5    0.01    0.01
  -3   4  -5    0.04    0.02
  -4   4  -5    0.80    0.08
  -5   4  -5    2.01    0.12
   6  -4   5    2.04    0.12
   7  -4   5    1.27    0.13
  10   3  -5    0.04    0.05
   9   3  -5    0.41    0.07
  -9  -3   5    0.57    0.08
   8   3  -5    1.94    0.11
  -8  -3   5    1.93    0.11
   7   3  -5   10.43    0.24
  -7  -3   5   10.22    0.22
  -7  -3   5   10.31    0.25
   6   3  -5    0.30    0.05
  -6  -3   5    0.26    0.04
  -6  -3   5    0.28    0.04
   5   3  -5    0.25    0.04
  -5  -3   5    0.28    0.04
  -5  -3   5    0.28    0.04
   4   3  -5    2.73    0.08
  -4  -3   5    2.53    0.08
  -4  -3   5    2.61    0.09
   3   3  -5    0.69    0.04
  -3  -3   5    0.64    0.03
  -3  -3   5    0.69    0.05
   2   3  -5    0.03    0.01
  -2  -3   5    0.02    0.01
  -2  -3   5    0.04    0.02
   1   3  -5   12.44    0.22
  -1  -3   5   12.38    0.19
  -1  -3   5   12.46    0.25
   0   3  -5    3.03    0.09
   0  -3   5    2.94    0.08
  -1   3  -5   13.52    0.26
   1  -3   5   13.72    0.27
  -2   3  -5    9.95    0.23
   2  -3   5    9.62    0.22
  -3   3  -5    7.38    0.20
   3  -3   5    7.46    0.19
  -4   3  -5    7.18    0.21
  -5   3  -5    2.07    0.12
   5  -3   5    2.09    0.10
  -6   3  -5    0.80    0.10
   6  -3   5    0.90    0.08
   7  -3   5    0.18    0.05
  10   2  -5    1.60    0.12
   9   2  -5    2.79    0.14
   8   2  -5    4.77    0.17
   7   2  -5    0.01    0.03
  -7  -2   5    0.00    0.02
  -7  -2   5    0.02    0.03
   6   2  -5    0.61    0.06
  -6  -2   5    0.58    0.06
  -6  -2   5    0.60    0.05
   5   2  -5    5.41    0.14
  -5  -2   5    5.40    0.14
  -5  -2   5    5.63    0.14
   4   2  -5    0.10    0.02
  -4  -2   5    0.12    0.03
  -4  -2   5    0.07    0.02
   3   2  -5   13.81    0.21
   3   2  -5   13.83    0.24
  -3  -2   5   13.30    0.21
  -3  -2   5   13.88    0.26
   2   2  -5   27.47    0.43
  -2  -2   5   28.27    0.45
  -2  -2   5   27.10    0.38
   1   2  -5    0.02    0.01
  -1  -2   5    0.05    0.01
  -1  -2   5    0.04    0.02
   0   2  -5    3.97    0.12
   0  -2   5    4.09    0.11
  -1   2  -5    0.24    0.04
   1  -2   5    0.10    0.02
  -2   2  -5    2.24    0.10
   2  -2   5    2.25    0.09
  -3   2  -5    0.92    0.09
   3  -2   5    0.82    0.06
  -4   2  -5    2.23    0.12
   4  -2   5    2.37    0.09
  -5   2  -5    0.29    0.06
   5  -2   5    0.36    0.05
  -6   2  -5    0.03    0.04
  -7   2  -5   -0.01    0.03
  11   1  -5   -0.06    0.04
  10   1  -5    0.23    0.06
   9   1  -5    0.18    0.05
   8   1  -5    1.71    0.10
   7   1  -5    0.11    0.04
   6   1  -5    7.32    0.18
  -6  -1   5    7.29    0.18
   5   1  -5    6.19    0.15
  -5  -1   5    6.10    0.15
   4   1  -5   18.72    0.32
  -4  -1   5   19.22    0.33
   3   1  -5    7.08    0.15
  -3  -1   5    6.89    0.16
   2   1  -5   21.45    0.36
  -2  -1   5   21.61    0.36
   1   1  -5    0.00    0.01
  -1  -1   5    0.07    0.02
   0   1  -5   12.15    0.25
   0  -1   5   11.84    0.23
  -1   1  -5    0.05    0.02
   1  -1   5    0.06    0.02
  -2   1  -5    0.46    0.06
   2  -1   5    0.65    0.04
  -3   1  -5   13.90    0.32
   3  -1   5   13.82    0.25
  -4   1  -5    0.00    0.03
   4  -1   5    0.00    0.01
  -5   1  -5    1.31    0.12
  -6   1  -5    0.00    0.03
  11   0  -5   -0.06    0.03
  10   0  -5    0.88    0.10
   9   0  -5    0.20    0.05
   8   0  -5   -0.03    0.03
   7   0  -5    0.01    0.03
   6   0  -5    1.09    0.07
   5   0  -5   21.57    0.37
  -5   0   5   21.68    0.38
   4   0  -5    0.00    0.01
  -4   0   5    0.01    0.02
   3   0  -5    4.99    0.08
   3   0  -5    5.04    0.13
  -3   0   5    5.17    0.13
   2   0  -5    2.24    0.08
  -2   0   5    2.14    0.08
   1   0  -5    5.44    0.15
   1   0  -5    5.42    0.10
  -1   0   5    5.56    0.13
  -1   0   5    5.27    0.09
   0   0  -5    1.58    0.06
   0   0  -5    1.45    0.08
   0   0   5    1.59    0.06
  -1   0  -5    0.07    0.02
  -1   0  -5    0.13    0.03
   1   0   5    0.11    0.02
  -2   0  -5    1.42    0.09
   2   0   5    1.35    0.06
  -3   0  -5    3.60    0.16
   3   0   5    3.38    0.09
  -4   0  -5    0.32    0.07
  -5   0  -5    0.97    0.11
  -6   0  -5    0.03    0.04
  11  -1  -5    0.29    0.07
  10  -1  -5    0.58    0.08
   9  -1  -5    0.18    0.05
   8  -1  -5    2.01    0.11
   7  -1  -5    1.71    0.09
   6  -1  -5    0.28    0.04
   5  -1  -5   -0.02    0.01
   4  -1  -5    4.31    0.09
   4  -1  -5    4.09    0.12
  -4   1   5    4.19    0.12
   3  -1  -5    6.21    0.11
   3  -1  -5    6.32    0.16
  -3   1   5    6.41    0.15
   2  -1  -5    0.16    0.03
   2  -1  -5    0.19    0.02
  -2   1   5    0.21    0.03
   1  -1  -5    5.11    0.11
   1  -1  -5    5.04    0.15
  -1   1   5    5.15    0.13
   0  -1  -5    4.54    0.11
   0  -1  -5    4.47    0.15
   0   1   5    4.59    0.12
  -1  -1  -5    0.07    0.02
  -1  -1  -5    0.07    0.03
   1   1   5    0.07    0.02
  -2  -1  -5    0.22    0.05
  -2  -1  -5    0.21    0.04
   2   1   5    0.18    0.03
  -3  -1  -5    8.00    0.25
  -3  -1  -5    8.07    0.22
  -4  -1  -5   -0.01    0.03
  -5  -1  -5    0.92    0.11
  11  -2  -5    0.21    0.06
  10  -2  -5    0.06    0.04
   9  -2  -5    0.05    0.03
   8  -2  -5    1.10    0.09
   7  -2  -5    0.43    0.06
   6  -2  -5    0.57    0.05
   6  -2  -5    0.57    0.06
   5  -2  -5    0.08    0.02
   5  -2  -5    0.07    0.02
   4  -2  -5    0.25    0.04
   4  -2  -5    0.21    0.02
   3  -2  -5    5.30    0.15
   3  -2  -5    5.29    0.11
   2  -2  -5    0.16    0.02
   2  -2  -5    0.13    0.03
   1  -2  -5    3.20    0.09
   1  -2  -5    3.19    0.13
   0  -2  -5    2.76    0.09
   0  -2  -5    2.52    0.12
  -1  -2  -5    1.07    0.07
  -1  -2  -5    1.03    0.10
  -2  -2  -5    2.58    0.14
  -2  -2  -5    2.80    0.12
  -3  -2  -5    0.15    0.06
  -3  -2  -5    0.17    0.04
  -4  -2  -5    0.64    0.10
  -4  -2  -5    0.58    0.08
  11  -3  -5    0.05    0.04
  10  -3  -5   -0.01    0.03
   9  -3  -5    0.16    0.05
   8  -3  -5   -0.03    0.02
   7  -3  -5    0.34    0.05
   7  -3  -5    0.40    0.05
   6  -3  -5    0.00    0.02
   6  -3  -5    0.01    0.02
   5  -3  -5    0.00    0.01
   5  -3  -5    0.00    0.02
   4  -3  -5    0.27    0.04
   4  -3  -5    0.35    0.03
   3  -3  -5    5.76    0.13
   3  -3  -5    6.03    0.17
   2  -3  -5    3.30    0.09
   2  -3  -5    3.30    0.13
   1  -3  -5    0.02    0.02
   1  -3  -5    0.00    0.02
   0  -3  -5    1.10    0.10
   0  -3  -5    1.00    0.06
  -1  -3  -5    0.09    0.03
  -1  -3  -5    0.06    0.03
  -2  -3  -5    1.01    0.11
  -2  -3  -5    0.79    0.08
  -3  -3  -5    0.03    0.04
  -3  -3  -5    0.04    0.03
  10  -4  -5    0.08    0.04
  10  -4  -5    0.26    0.06
   9  -4  -5    0.03    0.03
   9  -4  -5   -0.01    0.02
   8  -4  -5    0.07    0.03
   8  -4  -5    0.08    0.03
   7  -4  -5    0.14    0.04
   7  -4  -5    0.16    0.04
   6  -4  -5    0.16    0.03
   6  -4  -5    0.11    0.03
   5  -4  -5    0.62    0.06
   5  -4  -5    0.72    0.05
   4  -4  -5    0.05    0.02
   4  -4  -5    0.02    0.02
   3  -4  -5    0.00    0.01
   3  -4  -5   -0.02    0.02
   2  -4  -5    0.73    0.05
   2  -4  -5    0.62    0.07
   1  -4  -5    0.01    0.02
   1  -4  -5    0.04    0.02
   0  -4  -5    0.01    0.02
   0  -4  -5    0.00    0.02
  -1  -4  -5    1.38    0.13
  -1  -4  -5    1.22    0.08
  -2  -4  -5    0.21    0.06
  -2  -4  -5    0.26    0.05
  10  -5  -5    0.25    0.05
  10  -5  -5    0.17    0.05
   9  -5  -5    0.01    0.03
   9  -5  -5   -0.02    0.02
   8  -5  -5    0.07    0.03
   8  -5  -5    0.11    0.04
   7  -5  -5    0.02    0.03
   7  -5  -5    0.02    0.02
   6  -5  -5    0.28    0.05
   6  -5  -5    0.28    0.04
   5  -5  -5    0.32    0.05
   5  -5  -5    0.32    0.04
   4  -5  -5    0.01    0.02
   4  -5  -5    0.03    0.02
   3  -5  -5    0.25    0.04
   3  -5  -5    0.26    0.05
   2  -5  -5    0.01    0.02
   2  -5  -5    0.01    0.03
   1  -5  -5    1.81    0.09
   1  -5  -5    1.78    0.11
   0  -5  -5   -0.01    0.03
   0  -5  -5   -0.03    0.02
  -1  -5  -5    0.55    0.07
  -1  -5  -5    0.45    0.08
   9  -6  -5    0.06    0.03
   9  -6  -5    0.10    0.04
   8  -6  -5    0.06    0.03
   8  -6  -5    0.06    0.03
   7  -6  -5    0.08    0.03
   7  -6  -5    0.08    0.03
   6  -6  -5    0.24    0.04
   6  -6  -5    0.22    0.05
   5  -6  -5    0.02    0.02
   5  -6  -5   -0.02    0.02
   4  -6  -5    0.00    0.03
   4  -6  -5    0.05    0.02
   3  -6  -5    0.05    0.02
   3  -6  -5    0.06    0.04
   2  -6  -5    0.03    0.03
   2  -6  -5    0.00    0.02
   1  -6  -5    0.84    0.08
   1  -6  -5    0.81    0.10
   0  -6  -5    0.71    0.10
   0  -6  -5    0.71    0.08
   7  -7  -5    0.12    0.03
   7  -7  -5    0.10    0.04
   6  -7  -5    0.03    0.03
   6  -7  -5    0.00    0.02
   5  -7  -5    0.05    0.03
   5  -7  -5    0.12    0.04
   4  -7  -5    0.01    0.02
   4  -7  -5    0.01    0.03
   3  -7  -5    0.31    0.06
   3  -7  -5    0.30    0.05
  -3 -11   6    0.73    0.08
  -3 -11   6    0.93    0.10
  -2 -11   6    0.12    0.05
  -2 -11   6    0.16    0.04
  -1 -11   6    0.51    0.07
   0 -11   6    0.15    0.04
   1 -11   6    0.39    0.06
   2 -11   6    1.82    0.11
   3 -11   6    1.69    0.10
   4 -11   6    0.89    0.09
  -4 -10   6   -0.02    0.02
  -4 -10   6    0.03    0.03
  -3 -10   6    0.05    0.03
  -3 -10   6    0.07    0.03
  -2 -10   6    0.75    0.09
  -2 -10   6    0.66    0.07
  -1 -10   6    0.10    0.03
   0 -10   6    1.99    0.10
   1 -10   6    1.11    0.08
   2 -10   6    0.04    0.03
   3 -10   6    1.76    0.10
   4 -10   6    0.23    0.05
   5 -10   6    0.56    0.08
  -6  -9   6    0.53    0.08
  -5  -9   6   -0.03    0.02
  -5  -9   6    0.03    0.03
  -4  -9   6    0.40    0.06
  -4  -9   6    0.41    0.06
  -3  -9   6    0.54    0.07
  -3  -9   6    0.47    0.06
  -2  -9   6    2.47    0.12
  -2  -9   6    2.06    0.10
  -1  -9   6    0.65    0.06
   0  -9   6    3.29    0.12
   1  -9   6    1.66    0.09
   2  -9   6    2.83    0.12
   3  -9   6    6.47    0.19
   4  -9   6    4.78    0.18
   5  -9   6    2.51    0.14
   6  -9   6    0.06    0.04
  -7  -8   6   -0.02    0.03
  -6  -8   6    0.03    0.02
  -6  -8   6    0.08    0.03
  -5  -8   6    0.47    0.06
  -5  -8   6    0.48    0.07
  -4  -8   6   -0.03    0.02
  -4  -8   6    0.01    0.02
  -3  -8   6    5.61    0.16
  -3  -8   6    5.58    0.18
  -2  -8   6    1.65    0.08
  -2  -8   6    1.66    0.10
  -1  -8   6    2.44    0.10
   0  -8   6    0.93    0.06
   1  -8   6    0.18    0.04
   2  -8   6    1.25    0.08
   3  -8   6    0.55    0.07
   3  -8   6    0.58    0.05
   4  -8   6    0.21    0.04
   4  -8   6    0.16    0.05
   5  -8   6    0.40    0.06
   5  -8   6    0.42    0.07
   6  -8   6    0.27    0.05
   6  -8   6    0.33    0.06
   8   7  -6   -0.01    0.03
  -8  -7   6    0.00    0.03
   7   7  -6    0.12    0.04
  -7  -7   6    0.15    0.05
  -7  -7   6    0.14    0.03
   6   7  -6    1.13    0.08
  -6  -7   6    1.13    0.08
  -6  -7   6    1.16    0.07
   5   7  -6    3.85    0.12
  -5  -7   6    3.90    0.14
  -5  -7   6    3.63    0.13
   4   7  -6    1.70    0.07
  -4  -7   6    1.74    0.09
  -4  -7   6    1.77    0.09
   3   7  -6    1.43    0.04
  -3  -7   6    1.36    0.09
  -3  -7   6    1.46    0.07
   2   7  -6    0.31    0.02
  -2  -7   6    0.34    0.04
  -2  -7   6    0.36    0.05
  -1  -7   6   15.08    0.33
  -1  -7   6   15.43    0.28
   0  -7   6    0.26    0.04
   1  -7   6    1.39    0.05
   1  -7   6    1.37    0.07
   2  -7   6    0.41    0.04
   2  -7   6    0.31    0.04
   3  -7   6    2.99    0.12
   3  -7   6    3.11    0.11
   4  -7   6    1.69    0.10
   4  -7   6    1.74    0.09
   5  -7   6    0.52    0.07
   5  -7   6    0.59    0.07
   6  -7   6    0.20    0.05
   6  -7   6    0.22    0.06
   9   6  -6    0.96    0.10
  -9  -6   6    0.81    0.10
   8   6  -6    0.84    0.09
  -8  -6   6    0.92    0.06
  -8  -6   6    0.96    0.10
   7   6  -6    0.03    0.03
  -7  -6   6    0.09    0.04
  -7  -6   6    0.05    0.02
   6   6  -6    1.52    0.09
  -6  -6   6    1.52    0.09
  -6  -6   6    1.64    0.08
   5   6  -6    2.61    0.10
  -5  -6   6    2.75    0.11
  -5  -6   6    2.66    0.11
   4   6  -6    8.56    0.17
  -4  -6   6    8.61    0.21
  -4  -6   6    8.62    0.20
   3   6  -6    0.13    0.02
  -3  -6   6    0.11    0.03
  -3  -6   6    0.11    0.02
   2   6  -6    2.20    0.06
  -2  -6   6    2.05    0.07
  -2  -6   6    1.99    0.10
   1   6  -6    0.17    0.02
  -1  -6   6    0.14    0.02
  -1  -6   6    0.17    0.04
   0   6  -6    8.80    0.16
   0  -6   6    8.96    0.18
   0  -6   6    8.82    0.23
  -1   6  -6    4.16    0.11
   1  -6   6    4.15    0.12
  -2   6  -6    1.87    0.08
   2  -6   6    1.83    0.09
  -3   6  -6    0.16    0.03
   3  -6   6    0.14    0.04
  -4   6  -6    2.44    0.11
   4  -6   6    2.53    0.12
   5  -6   6    1.85    0.11
   6  -6   6    0.78    0.09
   9   5  -6    0.57    0.07
  -9  -5   6    0.56    0.09
   8   5  -6    0.64    0.08
  -8  -5   6    0.50    0.06
  -8  -5   6    0.54    0.08
   7   5  -6   11.16    0.26
  -7  -5   6   11.20    0.28
  -7  -5   6   11.38    0.25
   6   5  -6   32.83    0.54
  -6  -5   6   34.01    0.57
  -6  -5   6   33.27    0.55
   5   5  -6   12.23    0.23
  -5  -5   6   11.79    0.26
  -5  -5   6   11.90    0.25
   4   5  -6    1.91    0.07
  -4  -5   6    1.96    0.09
  -4  -5   6    1.89    0.08
   3   5  -6    2.22    0.07
  -3  -5   6    2.24    0.10
  -3  -5   6    2.11    0.07
   2   5  -6    3.36    0.08
  -2  -5   6    3.54    0.12
  -2  -5   6    3.39    0.09
   1   5  -6    0.39    0.03
  -1  -5   6    0.34    0.05
  -1  -5   6    0.37    0.03
   0   5  -6    3.33    0.09
   0  -5   6    3.13    0.12
   0  -5   6    3.20    0.09
  -1   5  -6    0.51    0.05
   1  -5   6    0.51    0.05
   1  -5   6    0.53    0.06
  -2   5  -6    0.27    0.04
   2  -5   6    0.24    0.04
  -3   5  -6    1.69    0.09
   3  -5   6    1.59    0.09
  -4   5  -6    1.20    0.09
  -5   5  -6   -0.01    0.02
   6  -5   6    1.12    0.11
  10   4  -6   -0.06    0.03
 -10  -4   6    0.00    0.04
   9   4  -6    0.04    0.04
  -9  -4   6    0.05    0.04
   8   4  -6    1.56    0.10
  -8  -4   6    1.40    0.10
  -8  -4   6    1.67    0.09
   7   4  -6    0.37    0.06
  -7  -4   6    0.23    0.05
  -7  -4   6    0.32    0.05
   6   4  -6    2.65    0.11
  -6  -4   6    2.45    0.10
  -6  -4   6    2.64    0.10
   5   4  -6    4.19    0.12
  -5  -4   6    4.42    0.12
  -5  -4   6    4.16    0.13
   4   4  -6    6.45    0.14
  -4  -4   6    6.27    0.14
  -4  -4   6    6.10    0.16
   3   4  -6    2.73    0.08
  -3  -4   6    2.65    0.10
  -3  -4   6    2.66    0.07
   2   4  -6    3.56    0.09
  -2  -4   6    3.38    0.12
  -2  -4   6    3.44    0.08
   1   4  -6    5.59    0.13
  -1  -4   6    5.76    0.11
  -1  -4   6    5.78    0.16
   0   4  -6    0.67    0.05
   0  -4   6    0.73    0.04
   0  -4   6    0.81    0.07
  -1   4  -6    0.17    0.03
   1  -4   6    0.23    0.03
   1  -4   6    0.28    0.04
  -2   4  -6    7.59    0.20
   2  -4   6    7.82    0.20
  -3   4  -6    1.69    0.10
   3  -4   6    1.87    0.10
  -4   4  -6    2.95    0.14
   4  -4   6    2.89    0.12
  -5   4  -6    2.04    0.12
   5  -4   6    1.68    0.10
  -6   4  -6    0.34    0.07
   6  -4   6    0.34    0.05
  10   3  -6    0.00    0.03
   9   3  -6    1.70    0.11
  -9  -3   6    1.78    0.12
   8   3  -6    1.27    0.10
  -8  -3   6    1.33    0.08
  -8  -3   6    1.48    0.10
   7   3  -6    8.32    0.21
  -7  -3   6    8.50    0.22
  -7  -3   6    8.33    0.20
   6   3  -6    3.39    0.12
  -6  -3   6    3.20    0.11
  -6  -3   6    3.22    0.11
   5   3  -6    2.42    0.09
  -5  -3   6    2.54    0.09
  -5  -3   6    2.55    0.10
   4   3  -6    4.69    0.12
  -4  -3   6    4.82    0.11
  -4  -3   6    4.42    0.13
   3   3  -6    8.21    0.17
  -3  -3   6    8.65    0.15
  -3  -3   6    8.90    0.20
   2   3  -6    0.50    0.04
  -2  -3   6    0.50    0.05
  -2  -3   6    0.46    0.02
   1   3  -6    0.34    0.04
  -1  -3   6    0.31    0.02
  -1  -3   6    0.21    0.03
   0   3  -6    1.83    0.08
   0  -3   6    1.90    0.06
   0  -3   6    1.88    0.09
  -1   3  -6    4.38    0.14
   1  -3   6    4.52    0.14
  -2   3  -6    1.17    0.08
   2  -3   6    1.05    0.07
  -3   3  -6    1.87    0.11
   3  -3   6    1.91    0.09
  -4   3  -6    0.82    0.09
   4  -3   6    0.81    0.07
  -5   3  -6    2.06    0.13
   5  -3   6    2.27    0.10
  -6   3  -6    0.17    0.06
  11   2  -6   -0.01    0.04
  10   2  -6    1.15    0.11
   9   2  -6    0.16    0.05
   8   2  -6    0.02    0.03
   7   2  -6    0.33    0.05
  -7  -2   6    0.48    0.05
   6   2  -6    0.73    0.06
  -6  -2   6    0.63    0.06
   5   2  -6    0.42    0.04
  -5  -2   6    0.51    0.05
  -5  -2   6    0.49    0.04
   4   2  -6    9.54    0.20
  -4  -2   6   10.15    0.21
   3   2  -6   14.98    0.26
   3   2  -6   13.53    0.21
  -3  -2   6   15.21    0.28
   2   2  -6    3.22    0.10
  -2  -2   6    3.41    0.11
   1   2  -6    8.28    0.19
  -1  -2   6    8.25    0.12
  -1  -2   6    8.62    0.19
  -1  -2   6    8.19    0.12
   0   2  -6    0.10    0.03
   0  -2   6    0.11    0.02
  -1   2  -6    1.00    0.07
   1  -2   6    1.08    0.06
  -2   2  -6    0.44    0.06
   2  -2   6    0.59    0.06
  -3   2  -6    2.05    0.12
   3  -2   6    1.97    0.09
  -4   2  -6    1.94    0.13
   4  -2   6    2.17    0.09
  -5   2  -6    2.14    0.13
  -6   2  -6    0.19    0.06
  11   1  -6    0.09    0.05
  10   1  -6    0.45    0.07
   9   1  -6    4.18    0.16
   8   1  -6    0.21    0.05
   7   1  -6   -0.03    0.02
  -7  -1   6    0.00    0.02
   6   1  -6    0.02    0.03
  -6  -1   6    0.03    0.02
   5   1  -6    0.02    0.02
  -5  -1   6    0.01    0.02
   4   1  -6    0.00    0.00
   4   1  -6    0.03    0.02
  -4  -1   6    0.01    0.02
   3   1  -6    2.58    0.09
  -3  -1   6    2.51    0.09
   2   1  -6    0.35    0.04
  -2  -1   6    0.33    0.04
   1   1  -6    5.64    0.16
  -1  -1   6    5.77    0.14
   0   1  -6    8.25    0.21
   0  -1   6    7.88    0.18
  -1   1  -6    4.92    0.17
   1  -1   6    4.84    0.13
  -2   1  -6    9.15    0.25
   2  -1   6    9.21    0.20
  -3   1  -6    2.19    0.13
   3  -1   6    2.18    0.08
  -4   1  -6    0.62    0.09
  -5   1  -6    0.08    0.05
  11   0  -6    0.82    0.10
  10   0  -6    0.80    0.09
   9   0  -6    0.02    0.03
   8   0  -6    0.03    0.03
   7   0  -6    1.34    0.08
   6   0  -6   -0.03    0.02
  -6   0   6    0.03    0.02
   5   0  -6    4.73    0.14
  -5   0   6    4.55    0.14
   4   0  -6    9.04    0.20
   4   0  -6    7.69    0.14
   4   0  -6    9.20    0.14
  -4   0   6    9.65    0.21
   3   0  -6    0.09    0.03
  -3   0   6    0.11    0.03
   2   0  -6    2.36    0.10
  -2   0   6    2.44    0.09
   1   0  -6    0.04    0.02
  -1   0   6    0.07    0.01
  -1   0   6    0.05    0.02
   0   0  -6    2.05    0.10
   0   0   6    1.87    0.08
  -1   0  -6    0.95    0.09
   1   0   6    0.86    0.05
  -2   0  -6    3.84    0.16
   2   0   6    3.65    0.10
  -3   0  -6    0.23    0.06
  -4   0  -6    0.17    0.06
  -5   0  -6   -0.03    0.03
  11  -1  -6    0.07    0.05
  10  -1  -6    0.19    0.05
   9  -1  -6    0.00    0.03
   8  -1  -6    0.73    0.07
   7  -1  -6    1.00    0.07
   6  -1  -6    3.26    0.12
   6  -1  -6    3.23    0.10
   5  -1  -6    1.53    0.06
   5  -1  -6    1.51    0.08
   4  -1  -6    4.79    0.14
   4  -1  -6    4.54    0.09
  -4   1   6    5.04    0.15
   3  -1  -6    0.05    0.02
  -3   1   6    0.03    0.02
   2  -1  -6    2.20    0.10
   2  -1  -6    1.99    0.05
  -2   1   6    2.11    0.09
   1  -1  -6    0.50    0.06
   1  -1  -6    0.60    0.04
  -1   1   6    0.56    0.05
   0  -1  -6    1.25    0.06
   0  -1  -6    1.25    0.09
   0   1   6    1.12    0.06
  -1  -1  -6    8.19    0.24
  -1  -1  -6    8.39    0.20
   1   1   6    7.95    0.18
  -2  -1  -6    0.00    0.02
  -2  -1  -6   -0.03    0.02
  -3  -1  -6    1.86    0.13
  -4  -1  -6   -0.03    0.03
  11  -2  -6    0.11    0.05
  10  -2  -6    0.04    0.03
   9  -2  -6    0.06    0.04
   8  -2  -6    0.00    0.02
   7  -2  -6    3.79    0.13
   7  -2  -6    3.56    0.12
   6  -2  -6    0.21    0.03
   6  -2  -6    0.16    0.04
   5  -2  -6    0.11    0.02
   5  -2  -6    0.10    0.03
   4  -2  -6    0.19    0.02
   4  -2  -6    0.20    0.04
   3  -2  -6    0.38    0.05
   3  -2  -6    0.35    0.03
   2  -2  -6    0.50    0.03
   2  -2  -6    0.55    0.07
   1  -2  -6    0.05    0.02
   1  -2  -6    0.05    0.03
   0  -2  -6    0.17    0.03
   0  -2  -6    0.12    0.04
  -1  -2  -6    2.36    0.10
  -1  -2  -6    2.22    0.13
  -2  -2  -6    0.34    0.05
  -2  -2  -6    0.37    0.07
  -3  -2  -6    0.66    0.10
  -3  -2  -6    0.57    0.07
  10  -3  -6    0.25    0.06
   9  -3  -6    0.41    0.06
   9  -3  -6    0.34    0.06
   8  -3  -6    0.01    0.02
   8  -3  -6    0.06    0.03
   7  -3  -6    0.03    0.02
   7  -3  -6    0.07    0.03
   6  -3  -6    0.65    0.07
   6  -3  -6    0.60    0.05
   5  -3  -6    1.16    0.05
   5  -3  -6    1.19    0.08
   4  -3  -6    0.03    0.01
   4  -3  -6    0.00    0.02
   3  -3  -6    1.15    0.05
   3  -3  -6    1.13    0.08
   2  -3  -6    1.50    0.10
   2  -3  -6    1.60    0.07
   1  -3  -6    0.05    0.03
   1  -3  -6    0.07    0.02
   0  -3  -6    0.02    0.02
   0  -3  -6    0.02    0.03
  -1  -3  -6    2.86    0.12
  -1  -3  -6    2.87    0.16
  -2  -3  -6   -0.01    0.03
  -2  -3  -6    0.03    0.03
  10  -4  -6    0.11    0.04
  10  -4  -6    0.13    0.04
   9  -4  -6    0.19    0.04
   9  -4  -6    0.23    0.05
   8  -4  -6    0.07    0.03
   8  -4  -6    0.03    0.03
   7  -4  -6    0.08    0.03
   7  -4  -6    0.04    0.03
   6  -4  -6    0.03    0.03
   6  -4  -6    0.01    0.02
   5  -4  -6    1.54    0.07
   5  -4  -6    1.63    0.10
   4  -4  -6    0.01    0.01
   4  -4  -6   -0.02    0.02
   3  -4  -6    0.72    0.08
   3  -4  -6    0.58    0.05
   2  -4  -6    0.22    0.05
   2  -4  -6    0.23    0.04
   1  -4  -6    0.30    0.06
   1  -4  -6    0.36    0.05
   0  -4  -6    0.72    0.07
   0  -4  -6    0.81    0.10
  -1  -4  -6    0.03    0.04
   9  -5  -6    0.00    0.02
   9  -5  -6    0.10    0.04
   8  -5  -6    0.03    0.02
   8  -5  -6    0.00    0.02
   7  -5  -6    0.02    0.03
   7  -5  -6    0.00    0.02
   6  -5  -6    0.03    0.02
   6  -5  -6    0.04    0.03
   5  -5  -6    1.02    0.06
   5  -5  -6    1.07    0.10
   4  -5  -6    0.29    0.04
   4  -5  -6    0.40    0.07
   3  -5  -6    0.00    0.02
   3  -5  -6    0.01    0.03
   2  -5  -6    0.35    0.07
   1  -5  -6    0.00    0.03
   8  -6  -6    0.04    0.03
   8  -6  -6   -0.01    0.03
   7  -6  -6    0.09    0.03
   7  -6  -6    0.11    0.04
   6  -6  -6    0.01    0.02
   6  -6  -6   -0.01    0.03
   5  -6  -6    0.05    0.04
   4  -6  -6    0.26    0.06
   3  -6  -6   -0.02    0.03
  -3 -11   7    0.22    0.05
  -3 -11   7    0.37    0.06
  -2 -11   7    0.83    0.09
  -2 -11   7    0.95    0.10
  -1 -11   7    0.14    0.04
  -1 -11   7    0.13    0.05
   0 -11   7    0.13    0.04
   1 -11   7    0.00    0.03
   2 -11   7    0.55    0.07
   3 -11   7    0.22    0.05
  -5 -10   7    0.03    0.03
  -5 -10   7    0.07    0.04
  -4 -10   7    0.16    0.04
  -4 -10   7    0.25    0.05
  -3 -10   7    0.13    0.04
  -3 -10   7    0.16    0.04
  -2 -10   7    0.05    0.03
  -2 -10   7    0.06    0.03
  -1 -10   7    3.01    0.12
  -1 -10   7    2.97    0.15
   0 -10   7    3.66    0.14
   1 -10   7    0.08    0.03
   2 -10   7    0.59    0.07
   3 -10   7    0.04    0.03
   4 -10   7    0.41    0.06
  -6  -9   7    0.00    0.03
  -6  -9   7    0.04    0.03
  -5  -9   7    1.26    0.09
  -5  -9   7    1.34    0.09
  -4  -9   7    0.69    0.08
  -4  -9   7    0.56    0.07
  -3  -9   7    0.67    0.08
  -2  -9   7    0.21    0.04
  -2  -9   7    0.22    0.05
  -1  -9   7    0.37    0.06
  -1  -9   7    0.38    0.05
   0  -9   7    4.40    0.14
   1  -9   7    4.00    0.14
   2  -9   7    3.20    0.13
   3  -9   7    0.17    0.04
   4  -9   7    1.93    0.11
   5  -9   7    0.02    0.03
  -7  -8   7    0.95    0.10
  -7  -8   7    0.90    0.07
  -6  -8   7    0.01    0.03
  -6  -8   7    0.05    0.03
  -5  -8   7    0.36    0.06
  -5  -8   7    0.33    0.05
  -4  -8   7    1.37    0.08
  -4  -8   7    1.61    0.10
  -3  -8   7    0.35    0.06
  -3  -8   7    0.46    0.05
  -2  -8   7    4.15    0.16
  -2  -8   7    4.37    0.13
  -1  -8   7    1.71    0.11
  -1  -8   7    1.75    0.08
   0  -8   7    0.00    0.02
   0  -8   7    0.00    0.02
   1  -8   7    4.95    0.15
   2  -8   7    1.47    0.08
   3  -8   7    1.31    0.08
   4  -8   7    0.51    0.06
   4  -8   7    0.48    0.07
   5  -8   7   -0.02    0.03
   5  -8   7   -0.06    0.02
   8   7  -7    0.65    0.07
  -8  -7   7    0.73    0.09
  -8  -7   7    0.68    0.07
   7   7  -7    0.03    0.03
  -7  -7   7    0.02    0.03
  -7  -7   7    0.02    0.02
   6   7  -7    0.60    0.06
  -6  -7   7    0.68    0.07
  -6  -7   7    0.71    0.08
   5   7  -7    0.80    0.05
  -5  -7   7    0.78    0.08
  -5  -7   7    0.79    0.07
   4   7  -7    4.07    0.10
  -4  -7   7    3.99    0.15
  -4  -7   7    3.94    0.13
   3   7  -7    2.23    0.06
  -3  -7   7    2.12    0.09
  -3  -7   7    2.12    0.11
   2   7  -7   10.24    0.17
  -2  -7   7   10.20    0.26
  -2  -7   7   10.04    0.21
   1   7  -7    2.48    0.07
  -1  -7   7    2.59    0.13
  -1  -7   7    2.72    0.09
   0   7  -7    3.65    0.09
   0  -7   7    3.69    0.11
   0  -7   7    3.50    0.15
  -1   7  -7   18.53    0.32
   1  -7   7   18.75    0.34
  -2   7  -7   10.74    0.23
   2  -7   7   11.05    0.24
  -3   7  -7    6.17    0.17
   3  -7   7    6.57    0.19
   4  -7   7    0.07    0.03
   4  -7   7    0.02    0.02
   5  -7   7    0.77    0.09
   5  -7   7    0.70    0.09
   9   6  -7   -0.01    0.03
  -9  -6   7    0.00    0.04
   8   6  -7    0.12    0.04
  -8  -6   7    0.13    0.04
  -8  -6   7    0.09    0.03
   7   6  -7    0.79    0.07
  -7  -6   7    0.88    0.09
  -7  -6   7    0.74    0.07
   6   6  -7    0.34    0.05
  -6  -6   7    0.20    0.04
  -6  -6   7    0.27    0.04
   5   6  -7    7.30    0.16
  -5  -6   7    7.52    0.19
  -5  -6   7    7.58    0.20
   4   6  -7    3.92    0.10
  -4  -6   7    4.09    0.12
  -4  -6   7    4.19    0.15
   3   6  -7    2.87    0.08
  -3  -6   7    2.65    0.12
  -3  -6   7    2.83    0.09
   2   6  -7    2.01    0.07
  -2  -6   7    2.05    0.11
  -2  -6   7    2.13    0.07
   1   6  -7    0.00    0.01
  -1  -6   7    0.00    0.01
  -1  -6   7    0.02    0.02
   0   6  -7    1.50    0.07
   0  -6   7    1.53    0.07
   0  -6   7    1.62    0.10
  -1   6  -7    0.62    0.06
   1  -6   7    0.53    0.05
   1  -6   7    0.56    0.07
  -2   6  -7    0.42    0.05
   2  -6   7    0.42    0.05
   2  -6   7    0.39    0.06
  -3   6  -7    1.31    0.08
   3  -6   7    1.17    0.08
  -4   6  -7    0.52    0.07
   4  -6   7    0.54    0.07
  -5   6  -7    0.55    0.08
   5  -6   7    0.46    0.07
   9   5  -7    0.03    0.04
  -9  -5   7    0.06    0.03
  -9  -5   7    0.11    0.04
   8   5  -7    0.22    0.05
  -8  -5   7    0.22    0.04
  -8  -5   7    0.12    0.04
   7   5  -7    2.12    0.10
  -7  -5   7    2.11    0.10
  -7  -5   7    1.90    0.10
   6   5  -7    1.49    0.08
  -6  -5   7    1.43    0.08
  -6  -5   7    1.76    0.09
   5   5  -7    1.73    0.07
  -5  -5   7    1.82    0.09
  -5  -5   7    1.62    0.08
   4   5  -7    0.50    0.04
  -4  -5   7    0.46    0.04
  -4  -5   7    0.43    0.06
   3   5  -7   20.94    0.34
  -3  -5   7   21.19    0.40
  -3  -5   7   20.69    0.34
   2   5  -7    1.06    0.05
  -2  -5   7    1.00    0.04
  -2  -5   7    1.20    0.08
   1   5  -7    1.64    0.07
  -1  -5   7    1.48    0.05
  -1  -5   7    1.56    0.09
   0   5  -7    1.45    0.07
   0  -5   7    1.48    0.09
   0  -5   7    1.53    0.06
  -1   5  -7    8.71    0.21
   1  -5   7    8.74    0.23
   1  -5   7    9.00    0.19
  -2   5  -7    6.37    0.18
   2  -5   7    6.19    0.19
   2  -5   7    6.41    0.17
  -3   5  -7    0.54    0.07
   3  -5   7    0.57    0.06
   3  -5   7    0.57    0.07
  -4   5  -7    0.43    0.06
   4  -5   7    0.60    0.07
  -5   5  -7    0.20    0.05
   5  -5   7    0.17    0.04
  10   4  -7    0.82    0.09
 -10  -4   7    0.90    0.11
   9   4  -7   -0.02    0.03
  -9  -4   7    0.00    0.02
  -9  -4   7    0.01    0.03
   8   4  -7    0.53    0.07
  -8  -4   7    0.66    0.08
  -8  -4   7    0.58    0.06
   7   4  -7    2.03    0.10
  -7  -4   7    1.75    0.09
  -7  -4   7    1.64    0.09
   6   4  -7    7.23    0.18
  -6  -4   7    7.10    0.18
  -6  -4   7    7.28    0.19
   5   4  -7    0.68    0.06
  -5  -4   7    0.61    0.06
  -5  -4   7    0.55    0.05
   4   4  -7    0.67    0.05
  -4  -4   7    0.76    0.07
  -4  -4   7    0.78    0.04
   3   4  -7    1.00    0.05
  -3  -4   7    0.92    0.07
  -3  -4   7    1.03    0.04
   2   4  -7    8.90    0.19
  -2  -4   7    9.36    0.22
  -2  -4   7    9.12    0.15
   1   4  -7    4.26    0.12
  -1  -4   7    4.14    0.09
  -1  -4   7    4.05    0.14
   0   4  -7    4.10    0.13
   0  -4   7    3.96    0.10
   0  -4   7    4.16    0.14
  -1   4  -7    0.34    0.05
   1  -4   7    0.35    0.04
   1  -4   7    0.34    0.05
  -2   4  -7    3.46    0.14
   2  -4   7    3.49    0.14
  -3   4  -7    2.86    0.14
   3  -4   7    3.22    0.13
  -4   4  -7    0.77    0.09
   4  -4   7    0.86    0.08
  -5   4  -7    0.02    0.03
   5  -4   7    0.03    0.02
  10   3  -7    0.45    0.07
   9   3  -7    6.30    0.20
   8   3  -7   16.03    0.34
  -8  -3   7   16.61    0.35
  -8  -3   7   16.87    0.34
   7   3  -7    3.86    0.13
  -7  -3   7    3.91    0.13
  -7  -3   7    3.63    0.13
   6   3  -7    2.20    0.10
  -6  -3   7    2.52    0.10
  -6  -3   7    2.28    0.09
   5   3  -7    0.76    0.06
  -5  -3   7    0.73    0.05
  -5  -3   7    0.72    0.07
   4   3  -7    2.40    0.08
  -4  -3   7    2.42    0.10
  -4  -3   7    2.22    0.06
   3   3  -7    0.76    0.05
  -3  -3   7    0.78    0.06
  -3  -3   7    0.73    0.03
   2   3  -7    3.29    0.11
  -2  -3   7    2.99    0.11
   1   3  -7    0.75    0.07
  -1  -3   7    0.73    0.07
  -1  -3   7    0.67    0.03
  -1  -3   7    0.67    0.02
   0   3  -7    0.93    0.07
   0  -3   7    0.99    0.07
   0  -3   7    0.89    0.04
  -1   3  -7    1.06    0.08
   1  -3   7    0.98    0.07
  -2   3  -7    0.72    0.08
   2  -3   7    0.82    0.07
  -3   3  -7    0.16    0.05
   3  -3   7    0.17    0.04
  -4   3  -7    1.17    0.12
   4  -3   7    0.97    0.07
  -5   3  -7    0.41    0.08
  10   2  -7    0.56    0.08
   9   2  -7    0.10    0.04
   8   2  -7    0.57    0.07
  -8  -2   7    0.64    0.07
   7   2  -7    2.00    0.10
  -7  -2   7    2.18    0.10
   6   2  -7    1.95    0.09
  -6  -2   7    2.06    0.09
   5   2  -7    0.79    0.06
  -5  -2   7    0.82    0.06
   4   2  -7    1.46    0.07
  -4  -2   7    1.36    0.07
   3   2  -7    1.33    0.07
  -3  -2   7    1.27    0.07
   2   2  -7    0.73    0.06
  -2  -2   7    0.73    0.06
   1   2  -7    0.16    0.04
   0   2  -7    7.07    0.20
   0  -2   7    7.18    0.18
  -1   2  -7    0.69    0.08
   1  -2   7    0.64    0.06
  -2   2  -7    4.06    0.17
   2  -2   7    4.06    0.13
  -3   2  -7    2.73    0.15
   3  -2   7    2.72    0.11
  -4   2  -7    0.92    0.11
  -5   2  -7    0.07    0.04
  11   1  -7    0.53    0.08
  10   1  -7    0.07    0.05
   9   1  -7    5.44    0.18
   8   1  -7    1.51    0.09
   7   1  -7    0.68    0.07
  -7  -1   7    0.75    0.07
   6   1  -7    0.60    0.06
  -6  -1   7    0.53    0.06
   5   1  -7    2.95    0.11
  -5  -1   7    3.18    0.12
   4   1  -7    0.28    0.04
  -4  -1   7    0.28    0.04
   3   1  -7    0.15    0.03
  -3  -1   7    0.09    0.03
   2   1  -7    1.56    0.09
  -2  -1   7    1.66    0.08
   1   1  -7    3.02    0.12
  -1  -1   7    2.88    0.10
   0   1  -7    0.81    0.08
   0  -1   7    0.88    0.06
  -1   1  -7    1.59    0.10
   1  -1   7    1.66    0.08
  -2   1  -7    0.51    0.08
   2  -1   7    0.50    0.05
  -3   1  -7    1.48    0.13
  -4   1  -7    0.06    0.04
  11   0  -7    0.17    0.05
  10   0  -7    0.09    0.05
   9   0  -7    0.02    0.03
   8   0  -7    0.54    0.07
   7   0  -7    0.08    0.03
   6   0  -7    2.15    0.10
  -6   0   7    1.94    0.10
   5   0  -7    3.35    0.12
   5   0  -7    3.28    0.07
  -5   0   7    3.31    0.12
   4   0  -7    0.66    0.07
  -4   0   7    0.78    0.07
   3   0  -7    3.32    0.12
  -3   0   7    3.05    0.11
   2   0  -7    0.31    0.05
  -2   0   7    0.32    0.04
   1   0  -7    1.37    0.09
  -1   0   7    1.31    0.07
   0   0  -7    0.19    0.04
   0   0   7    0.19    0.03
  -1   0  -7    0.87    0.10
   1   0   7    0.92    0.06
  -2   0  -7    0.60    0.09
  -3   0  -7    2.00    0.14
  11  -1  -7    1.17    0.11
  10  -1  -7    0.01    0.03
   9  -1  -7    0.03    0.03
   8  -1  -7    0.10    0.04
   7  -1  -7    0.01    0.02
   7  -1  -7    0.03    0.02
   6  -1  -7    0.02    0.02
   6  -1  -7    0.05    0.02
   5  -1  -7    0.07    0.03
   5  -1  -7    0.10    0.01
   4  -1  -7    0.07    0.03
  -4   1   7    0.09    0.03
   3  -1  -7    0.42    0.06
  -3   1   7    0.47    0.05
   2  -1  -7    2.16    0.11
  -2   1   7    2.24    0.10
   1  -1  -7    1.14    0.10
  -1   1   7    1.30    0.07
   0  -1  -7    4.97    0.19
   0   1   7    5.17    0.14
  -1  -1  -7    1.66    0.12
   1   1   7    1.53    0.08
  -2  -1  -7    0.23    0.06
  -3  -1  -7    0.00    0.04
  10  -2  -7   -0.01    0.03
   9  -2  -7    0.19    0.05
   9  -2  -7    0.11    0.04
   8  -2  -7   -0.02    0.02
   8  -2  -7    0.00    0.02
   7  -2  -7    1.08    0.08
   7  -2  -7    1.01    0.06
   6  -2  -7    1.63    0.10
   6  -2  -7    1.65    0.06
   5  -2  -7    0.07    0.03
   4  -2  -7    0.50    0.06
   3  -2  -7    0.00    0.02
   2  -2  -7    0.96    0.10
   1  -2  -7    0.61    0.08
   0  -2  -7    2.29    0.14
  -1  -2  -7    0.21    0.06
  -2  -2  -7    0.37    0.08
  10  -3  -7    0.07    0.03
  10  -3  -7    0.08    0.03
   9  -3  -7    0.09    0.04
   9  -3  -7    0.16    0.04
   8  -3  -7    0.28    0.05
   8  -3  -7    0.31    0.04
   7  -3  -7    0.50    0.07
   7  -3  -7    0.62    0.06
   6  -3  -7    0.49    0.06
   5  -3  -7    0.00    0.02
   4  -3  -7    0.08    0.03
   3  -3  -7    0.24    0.05
   2  -3  -7    1.12    0.11
   1  -3  -7    2.76    0.15
   0  -3  -7   -0.03    0.03
  -1  -3  -7    1.00    0.12
   9  -4  -7    0.56    0.08
   8  -4  -7    0.10    0.04
   7  -4  -7    0.02    0.03
   6  -4  -7    0.08    0.03
   5  -4  -7    0.02    0.03
   4  -4  -7    0.10    0.04
   3  -4  -7    0.09    0.04
   2  -4  -7    0.00    0.03
   1  -4  -7    0.85    0.11
   8  -5  -7    0.05    0.03
   7  -5  -7    0.16    0.05
   6  -5  -7   -0.02    0.02
   5  -5  -7    0.14    0.05
   4  -5  -7    0.46    0.08
   3  -5  -7    0.07    0.05
  -3 -11   8    0.03    0.03
  -3 -11   8    0.06    0.03
  -2 -11   8    0.04    0.03
  -2 -11   8    0.08    0.03
  -1 -11   8    0.01    0.02
  -1 -11   8    0.01    0.03
   0 -11   8    0.92    0.11
   0 -11   8    0.76    0.08
   1 -11   8   -0.03    0.02
   2 -11   8    0.32    0.05
  -5 -10   8    0.36    0.06
  -5 -10   8    0.32    0.06
  -4 -10   8    0.05    0.03
  -4 -10   8    0.05    0.03
  -3 -10   8    0.01    0.02
  -3 -10   8    0.04    0.03
  -2 -10   8    0.50    0.06
  -2 -10   8    0.49    0.08
  -1 -10   8    0.21    0.04
  -1 -10   8    0.16    0.05
   0 -10   8    0.70    0.09
   0 -10   8    0.87    0.08
   1 -10   8    0.05    0.03
   2 -10   8    0.30    0.05
   3 -10   8    0.35    0.06
  -6  -9   8    0.43    0.07
  -6  -9   8    0.26    0.05
  -5  -9   8    0.72    0.08
  -5  -9   8    0.85    0.09
  -4  -9   8    1.08    0.08
  -4  -9   8    1.11    0.10
  -3  -9   8    0.88    0.07
  -3  -9   8    0.73    0.09
  -2  -9   8    0.32    0.05
  -2  -9   8    0.27    0.06
  -1  -9   8    0.26    0.04
  -1  -9   8    0.32    0.07
   0  -9   8    1.77    0.12
   0  -9   8    1.66    0.09
   1  -9   8    0.14    0.05
   1  -9   8    0.14    0.04
   2  -9   8    0.04    0.03
   3  -9   8   -0.01    0.02
   4  -9   8    0.00    0.02
  -7  -8   8    0.09    0.04
  -7  -8   8    0.14    0.05
  -6  -8   8    0.21    0.05
  -6  -8   8    0.20    0.05
  -5  -8   8    0.03    0.03
  -5  -8   8    0.02    0.02
  -4  -8   8    0.06    0.03
  -4  -8   8   -0.01    0.02
  -3  -8   8    5.57    0.19
  -3  -8   8    5.94    0.16
  -2  -8   8    6.67    0.22
  -2  -8   8    6.76    0.17
  -1  -8   8    0.52    0.05
  -1  -8   8    0.42    0.07
   0  -8   8    3.27    0.15
   0  -8   8    3.53    0.12
   1  -8   8    1.09    0.07
   1  -8   8    1.09    0.11
   2  -8   8    0.84    0.10
   2  -8   8    0.58    0.06
   3  -8   8    1.09    0.08
   4  -8   8    0.12    0.04
   8   7  -8    0.04    0.03
  -8  -7   8    0.06    0.03
  -8  -7   8    0.04    0.04
   7   7  -8    0.82    0.07
  -7  -7   8    0.99    0.09
  -7  -7   8    1.12    0.08
   6   7  -8    1.16    0.07
  -6  -7   8    1.10    0.08
  -6  -7   8    1.12    0.08
   5   7  -8    0.87    0.05
  -5  -7   8    0.84    0.06
  -5  -7   8    0.78    0.08
   4   7  -8    0.34    0.03
  -4  -7   8    0.28    0.04
  -4  -7   8    0.33    0.06
   3   7  -8    0.03    0.01
  -3  -7   8    0.03    0.02
  -3  -7   8    0.01    0.03
   2   7  -8    5.95    0.13
  -2  -7   8    6.18    0.15
  -2  -7   8    6.09    0.20
   1   7  -8    5.50    0.13
  -1  -7   8    5.34    0.19
  -1  -7   8    5.53    0.14
   0   7  -8    4.19    0.12
   0  -7   8    4.55    0.17
   0  -7   8    4.44    0.12
  -1   7  -8    0.82    0.07
   1  -7   8    0.66    0.08
   1  -7   8    0.74    0.06
  -2   7  -8    5.87    0.17
   2  -7   8    5.97    0.17
   2  -7   8    6.02    0.21
  -3   7  -8    0.00    0.02
   3  -7   8    0.00    0.02
   3  -7   8    0.00    0.03
  -4   7  -8    0.73    0.08
   4  -7   8    0.76    0.09
   4  -7   8    0.83    0.08
   9   6  -8    0.89    0.09
  -9  -6   8    0.72    0.09
  -9  -6   8    0.80    0.08
   8   6  -8    0.06    0.03
  -8  -6   8    0.09    0.04
  -8  -6   8    0.06    0.03
   7   6  -8    0.69    0.06
  -7  -6   8    0.56    0.07
  -7  -6   8    0.63    0.07
   6   6  -8    1.10    0.06
  -6  -6   8    1.24    0.08
  -6  -6   8    1.08    0.08
   5   6  -8    0.46    0.04
  -5  -6   8    0.42    0.06
  -5  -6   8    0.48    0.05
   4   6  -8    5.04    0.12
  -4  -6   8    4.93    0.13
  -4  -6   8    4.85    0.17
   3   6  -8    0.99    0.05
  -3  -6   8    0.90    0.05
  -3  -6   8    0.82    0.08
   2   6  -8    0.03    0.02
  -2  -6   8    0.04    0.03
  -2  -6   8    0.04    0.02
   1   6  -8    6.71    0.16
  -1  -6   8    6.62    0.21
  -1  -6   8    7.00    0.15
   0   6  -8    3.22    0.11
   0  -6   8    3.04    0.09
   0  -6   8    3.13    0.14
  -1   6  -8    1.38    0.08
   1  -6   8    1.51    0.07
   1  -6   8    1.53    0.10
  -2   6  -8    0.55    0.07
   2  -6   8    0.50    0.06
   2  -6   8    0.43    0.06
  -3   6  -8    0.04    0.03
   3  -6   8    0.05    0.03
   3  -6   8    0.06    0.03
  -4   6  -8    0.17    0.05
   4  -6   8    0.21    0.05
   4  -6   8    0.15    0.04
   9   5  -8    0.03    0.03
  -9  -5   8    0.03    0.03
  -9  -5   8    0.06    0.03
   8   5  -8    0.57    0.06
  -8  -5   8    0.76    0.08
  -8  -5   8    0.67    0.08
   7   5  -8    0.62    0.06
  -7  -5   8    0.61    0.07
  -7  -5   8    0.55    0.06
   6   5  -8    3.75    0.12
  -6  -5   8    3.48    0.14
  -6  -5   8    3.68    0.12
   5   5  -8    2.27    0.09
  -5  -5   8    2.22    0.11
  -5  -5   8    2.40    0.09
   4   5  -8   10.70    0.22
  -4  -5   8   10.74    0.26
  -4  -5   8   11.02    0.21
   3   5  -8    3.03    0.10
  -3  -5   8    3.08    0.08
  -3  -5   8    3.17    0.13
   2   5  -8    1.90    0.08
  -2  -5   8    1.77    0.10
  -2  -5   8    1.69    0.06
   1   5  -8   25.75    0.44
  -1  -5   8   25.42    0.48
  -1  -5   8   25.68    0.39
   0   5  -8   10.83    0.25
   0  -5   8   10.63    0.20
   0  -5   8   10.36    0.27
  -1   5  -8    7.48    0.21
   1  -5   8    7.59    0.17
   1  -5   8    7.45    0.22
  -2   5  -8    0.01    0.03
   2  -5   8    0.04    0.03
   2  -5   8    0.01    0.02
  -3   5  -8    1.28    0.10
   3  -5   8    1.26    0.09
   3  -5   8    1.42    0.09
  -4   5  -8    0.02    0.03
   4  -5   8    0.07    0.03
  10   4  -8    0.11    0.05
   9   4  -8    0.56    0.07
  -9  -4   8    0.43    0.06
  -9  -4   8    0.50    0.07
   8   4  -8    0.45    0.06
  -8  -4   8    0.39    0.06
  -8  -4   8    0.53    0.07
   7   4  -8    6.13    0.17
  -7  -4   8    5.98    0.18
  -7  -4   8    6.21    0.17
   6   4  -8    3.62    0.12
  -6  -4   8    3.61    0.14
  -6  -4   8    3.46    0.11
   5   4  -8    1.42    0.07
  -5  -4   8    1.55    0.09
  -5  -4   8    1.50    0.06
   4   4  -8    1.36    0.07
  -4  -4   8    1.31    0.08
  -4  -4   8    1.31    0.05
   3   4  -8    0.00    0.01
  -3  -4   8    0.00    0.01
  -3  -4   8    0.04    0.02
   2   4  -8    0.80    0.06
  -2  -4   8    0.89    0.08
  -2  -4   8    0.80    0.03
   1   4  -8    0.56    0.06
  -1  -4   8    0.53    0.06
  -1  -4   8    0.53    0.03
   0   4  -8    0.83    0.08
   0  -4   8    0.90    0.05
   0  -4   8    0.82    0.08
  -1   4  -8    2.01    0.11
   1  -4   8    2.08    0.08
   1  -4   8    2.02    0.10
  -2   4  -8    0.82    0.09
   2  -4   8    0.84    0.06
   2  -4   8    0.63    0.07
  -3   4  -8    0.67    0.09
   3  -4   8    0.59    0.07
  -4   4  -8    0.68    0.10
   4  -4   8    0.79    0.08
  10   3  -8   -0.01    0.03
   9   3  -8    0.64    0.08
  -9  -3   8    0.65    0.07
   8   3  -8    0.74    0.08
  -8  -3   8    0.66    0.07
   7   3  -8    0.94    0.08
  -7  -3   8    0.74    0.07
   6   3  -8    0.44    0.05
  -6  -3   8    0.42    0.06
   5   3  -8   11.87    0.25
  -5  -3   8   12.27    0.27
   4   3  -8    1.10    0.07
  -4  -3   8    1.23    0.08
   3   3  -8    0.85    0.07
  -3  -3   8    0.72    0.07
   2   3  -8    2.91    0.11
  -2  -3   8    2.50    0.11
   1   3  -8   12.25    0.28
  -1  -3   8   12.20    0.28
   0   3  -8    7.23    0.21
   0  -3   8    6.87    0.19
   0  -3   8    6.88    0.13
  -1   3  -8    0.24    0.05
   1  -3   8    0.18    0.04
  -2   3  -8    1.36    0.12
   2  -3   8    1.02    0.08
  -3   3  -8    0.02    0.03
   3  -3   8    0.04    0.03
  -4   3  -8    0.00    0.04
  10   2  -8    0.02    0.04
   9   2  -8    0.70    0.08
   8   2  -8    3.82    0.14
  -8  -2   8    3.97    0.15
   7   2  -8    0.28    0.04
  -7  -2   8    0.32    0.05
   6   2  -8    0.00    0.02
  -6  -2   8   -0.01    0.02
   5   2  -8    1.17    0.07
  -5  -2   8    1.20    0.08
   4   2  -8    4.60    0.14
  -4  -2   8    4.66    0.15
   3   2  -8    2.57    0.11
  -3  -2   8    2.43    0.11
   2   2  -8    4.34    0.15
  -2  -2   8    4.27    0.14
   1   2  -8    0.45    0.06
  -1  -2   8    0.34    0.05
   0   2  -8    2.40    0.12
   0  -2   8    2.74    0.11
  -1   2  -8    2.46    0.13
   1  -2   8    2.42    0.10
  -2   2  -8    0.50    0.08
   2  -2   8    0.60    0.06
  -3   2  -8   -0.02    0.03
  10   1  -8    4.65    0.18
   9   1  -8    0.25    0.05
   8   1  -8    0.99    0.09
   7   1  -8    0.05    0.03
  -7  -1   8    0.02    0.03
   6   1  -8    0.73    0.07
  -6  -1   8    0.69    0.07
   5   1  -8    0.78    0.07
  -5  -1   8    0.67    0.07
   4   1  -8    1.74    0.09
  -4  -1   8    1.68    0.09
   3   1  -8    0.25    0.05
  -3  -1   8    0.28    0.05
   2   1  -8    1.13    0.08
  -2  -1   8    1.27    0.07
   1   1  -8    0.18    0.04
  -1  -1   8    0.24    0.04
   0   1  -8    0.23    0.05
   0  -1   8    0.17    0.03
  -1   1  -8    0.12    0.05
   1  -1   8    0.08    0.03
  -2   1  -8    0.40    0.07
  -3   1  -8    0.19    0.07
  10   0  -8    0.04    0.03
   9   0  -8    0.80    0.08
   8   0  -8    0.17    0.04
   7   0  -8    0.08    0.03
   6   0  -8    0.54    0.06
  -6   0   8    0.45    0.06
   5   0  -8    0.08    0.03
  -5   0   8    0.05    0.03
   4   0  -8    0.06    0.03
  -4   0   8    0.09    0.03
   3   0  -8    0.01    0.02
  -3   0   8    0.00    0.02
   2   0  -8    2.08    0.11
  -2   0   8    1.99    0.09
   1   0  -8    0.04    0.03
  -1   0   8    0.05    0.02
   0   0  -8    2.21    0.13
   0   0   8    2.55    0.10
  -1   0  -8    1.94    0.13
   1   0   8    1.98    0.09
  -2   0  -8    0.65    0.10
  10  -1  -8    0.34    0.06
   9  -1  -8    0.13    0.04
   8  -1  -8    0.04    0.03
   7  -1  -8    0.53    0.07
   6  -1  -8    0.24    0.04
   5  -1  -8    0.04    0.02
   4  -1  -8    0.46    0.06
  -4   1   8    0.52    0.06
   3  -1  -8    0.76    0.08
  -3   1   8    0.70    0.07
   2  -1  -8    0.45    0.07
  -2   1   8    0.38    0.05
   1  -1  -8    0.89    0.10
  -1   1   8    0.94    0.07
   0  -1  -8    0.05    0.04
   0   1   8    0.04    0.03
  -1  -1  -8    0.50    0.09
  10  -2  -8    0.10    0.04
   9  -2  -8    0.02    0.03
   8  -2  -8    0.26    0.05
   7  -2  -8    0.18    0.04
   6  -2  -8    0.06    0.03
   5  -2  -8    0.53    0.07
   4  -2  -8    0.22    0.05
   3  -2  -8    0.49    0.08
   2  -2  -8    0.05    0.03
   1  -2  -8    0.17    0.06
   0  -2  -8    0.08    0.05
   9  -3  -8    0.08    0.04
   8  -3  -8    0.06    0.03
   7  -3  -8    0.07    0.04
   6  -3  -8    0.19    0.05
   5  -3  -8   -0.02    0.02
   4  -3  -8    0.32    0.06
   3  -3  -8    0.18    0.05
   2  -3  -8    1.94    0.13
   1  -3  -8    0.56    0.09
   7  -4  -8    0.13    0.04
   6  -4  -8    0.10    0.04
   5  -4  -8    0.02    0.03
   4  -4  -8    0.37    0.07
  -1 -11   9    0.23    0.05
  -1 -11   9    0.22    0.06
  -4 -10   9    0.00    0.02
  -4 -10   9   -0.03    0.03
  -3 -10   9    0.76    0.10
  -3 -10   9    0.74    0.07
  -2 -10   9    0.12    0.05
  -2 -10   9    0.29    0.05
  -1 -10   9    0.47    0.06
  -1 -10   9    0.52    0.09
   0 -10   9    0.01    0.03
   0 -10   9    0.00    0.02
   1 -10   9    0.15    0.04
   1 -10   9    0.16    0.05
   2 -10   9    0.10    0.05
   2 -10   9    0.08    0.03
  -6  -9   9    1.11    0.10
  -6  -9   9    1.31    0.10
  -5  -9   9    0.03    0.03
  -5  -9   9    0.08    0.04
  -4  -9   9    0.20    0.05
  -4  -9   9    0.30    0.05
  -3  -9   9    0.01    0.03
  -3  -9   9    0.00    0.02
  -2  -9   9    1.73    0.12
  -2  -9   9    1.70    0.08
  -1  -9   9    0.00    0.03
  -1  -9   9    0.01    0.02
   0  -9   9    0.90    0.10
   0  -9   9    1.04    0.07
   1  -9   9    0.21    0.04
   1  -9   9    0.14    0.05
   2  -9   9    0.02    0.02
   2  -9   9   -0.02    0.03
  -7  -8   9    0.17    0.05
  -7  -8   9    0.24    0.05
  -6  -8   9    0.00    0.02
  -6  -8   9    0.00    0.02
  -5  -8   9    0.09    0.04
  -5  -8   9    0.07    0.03
  -4  -8   9    0.60    0.08
  -4  -8   9    0.65    0.06
  -3  -8   9    0.07    0.04
  -3  -8   9    0.08    0.02
  -2  -8   9    2.33    0.09
  -2  -8   9    2.45    0.13
  -1  -8   9    0.03    0.02
  -1  -8   9    0.05    0.03
   0  -8   9    0.25    0.04
   0  -8   9    0.15    0.05
   1  -8   9    1.54    0.11
   1  -8   9    1.58    0.08
   2  -8   9    1.27    0.08
   2  -8   9    1.10    0.11
   3  -8   9    0.35    0.07
   3  -8   9    0.26    0.05
   8   7  -9    0.24    0.04
  -8  -7   9    0.16    0.05
  -8  -7   9    0.16    0.04
   7   7  -9    0.66    0.06
  -7  -7   9    0.64    0.08
  -7  -7   9    0.60    0.07
   6   7  -9    0.60    0.05
  -6  -7   9    0.61    0.08
  -6  -7   9    0.54    0.06
   5   7  -9    1.30    0.06
  -5  -7   9    1.32    0.11
  -5  -7   9    1.35    0.08
   4   7  -9    0.63    0.05
  -4  -7   9    0.55    0.05
  -4  -7   9    0.71    0.08
   3   7  -9    0.65    0.05
  -3  -7   9    0.72    0.08
  -3  -7   9    0.60    0.05
   2   7  -9    2.87    0.10
  -2  -7   9    2.86    0.14
  -2  -7   9    2.96    0.09
   1   7  -9    0.00    0.02
  -1  -7   9    0.02    0.02
  -1  -7   9   -0.01    0.02
   0   7  -9    0.00    0.02
   0  -7   9    0.03    0.03
   0  -7   9    0.05    0.02
  -1   7  -9    0.02    0.02
   1  -7   9    0.02    0.03
   1  -7   9    0.03    0.02
  -2   7  -9   -0.03    0.02
   2  -7   9   -0.02    0.02
   2  -7   9    0.01    0.02
  -3   7  -9    1.09    0.10
   3  -7   9    1.18    0.09
   3  -7   9    0.94    0.10
   9   6  -9    0.10    0.04
  -9  -6   9    0.09    0.03
  -9  -6   9    0.06    0.04
   8   6  -9    0.09    0.03
  -8  -6   9    0.05    0.03
  -8  -6   9    0.11    0.04
   7   6  -9    0.03    0.02
  -7  -6   9    0.01    0.02
  -7  -6   9    0.00    0.02
   6   6  -9    0.01    0.01
  -6  -6   9    0.01    0.02
  -6  -6   9    0.00    0.02
   5   6  -9    5.64    0.15
  -5  -6   9    5.71    0.19
  -5  -6   9    5.72    0.15
   4   6  -9    5.41    0.14
  -4  -6   9    5.08    0.18
  -4  -6   9    5.10    0.13
   3   6  -9    0.82    0.07
  -3  -6   9    0.77    0.08
  -3  -6   9    0.78    0.05
   2   6  -9    7.19    0.18
  -2  -6   9    7.09    0.22
  -2  -6   9    7.22    0.14
   1   6  -9    3.01    0.12
  -1  -6   9    3.29    0.14
  -1  -6   9    3.00    0.08
   0   6  -9    0.99    0.07
   0  -6   9    0.83    0.09
   0  -6   9    0.92    0.05
  -1   6  -9    1.07    0.08
   1  -6   9    1.24    0.06
   1  -6   9    1.09    0.11
  -2   6  -9    0.65    0.08
   2  -6   9    0.59    0.08
   2  -6   9    0.62    0.06
  -3   6  -9    2.99    0.15
   3  -6   9    3.08    0.15
   9   5  -9    0.30    0.05
  -9  -5   9    0.33    0.06
  -9  -5   9    0.24    0.05
   8   5  -9    0.81    0.07
  -8  -5   9    0.96    0.09
  -8  -5   9    0.83    0.09
   7   5  -9    0.83    0.07
  -7  -5   9    0.69    0.07
  -7  -5   9    0.86    0.09
   6   5  -9    0.14    0.03
  -6  -5   9    0.08    0.03
  -6  -5   9    0.06    0.02
   5   5  -9    0.29    0.04
  -5  -5   9    0.28    0.03
  -5  -5   9    0.29    0.05
   4   5  -9    5.52    0.15
  -4  -5   9    6.01    0.19
  -4  -5   9    5.52    0.12
   3   5  -9    2.50    0.10
  -3  -5   9    2.51    0.12
   2   5  -9    3.32    0.13
  -2  -5   9    3.37    0.14
   1   5  -9    2.19    0.10
  -1  -5   9    1.92    0.11
   0   5  -9    8.03    0.22
   0  -5   9    7.83    0.23
  -1   5  -9    0.09    0.03
   1  -5   9    0.03    0.03
  -2   5  -9    1.02    0.10
   2  -5   9    1.05    0.10
  -3   5  -9    1.05    0.11
   3  -5   9    1.06    0.10
   9   4  -9    0.56    0.07
  -9  -4   9    0.59    0.07
   8   4  -9    0.53    0.06
  -8  -4   9    0.38    0.06
   7   4  -9    0.10    0.03
  -7  -4   9    0.04    0.03
   6   4  -9    3.45    0.12
  -6  -4   9    3.44    0.14
  -6  -4   9    3.36    0.10
   5   4  -9    0.06    0.03
  -5  -4   9    0.03    0.03
   4   4  -9    0.14    0.03
  -4  -4   9    0.07    0.03
   3   4  -9    5.13    0.16
  -3  -4   9    5.21    0.17
   2   4  -9    2.42    0.11
  -2  -4   9    2.35    0.11
   1   4  -9    0.80    0.08
  -1  -4   9    0.71    0.08
   0   4  -9    0.40    0.06
   0  -4   9    0.29    0.05
  -1   4  -9    0.26    0.06
   1  -4   9    0.18    0.04
  -2   4  -9    0.36    0.07
   2  -4   9    0.36    0.06
  -3   4  -9    0.63    0.10
   3  -4   9    0.49    0.07
  10   3  -9    0.42    0.06
   9   3  -9    0.17    0.04
  -9  -3   9    0.21    0.05
   8   3  -9    1.80    0.10
  -8  -3   9    1.68    0.10
   7   3  -9    0.63    0.07
  -7  -3   9    0.71    0.08
   6   3  -9    4.70    0.15
  -6  -3   9    4.63    0.16
   5   3  -9    2.09    0.10
  -5  -3   9    2.26    0.11
   4   3  -9    0.41    0.06
  -4  -3   9    0.39    0.06
   3   3  -9   15.74    0.33
  -3  -3   9   15.61    0.33
   2   3  -9    3.84    0.15
  -2  -3   9    3.69    0.14
   1   3  -9    4.18    0.16
  -1  -3   9    4.09    0.15
   0   3  -9    0.34    0.06
   0  -3   9    0.42    0.06
  -1   3  -9    1.03    0.11
   1  -3   9    0.79    0.08
  -2   3  -9    0.01    0.04
   2  -3   9   -0.01    0.02
  10   2  -9    0.22    0.05
   9   2  -9    2.86    0.13
  -9  -2   9    2.67    0.13
   8   2  -9    1.14    0.08
  -8  -2   9    1.04    0.10
   7   2  -9    0.56    0.07
  -7  -2   9    0.58    0.07
   6   2  -9    0.15    0.04
  -6  -2   9    0.17    0.04
   5   2  -9    0.02    0.02
  -5  -2   9    0.02    0.03
   4   2  -9    0.11    0.03
  -4  -2   9    0.11    0.04
   3   2  -9    0.38    0.06
  -3  -2   9    0.47    0.06
   2   2  -9    0.96    0.09
  -2  -2   9    1.02    0.08
   1   2  -9    2.36    0.13
  -1  -2   9    2.26    0.11
   0   2  -9    0.65    0.09
   0  -2   9    0.64    0.07
  -1   2  -9    0.12    0.05
   1  -2   9    0.12    0.04
  -2   2  -9    0.62    0.10
  10   1  -9    0.20    0.05
   9   1  -9    0.18    0.04
   8   1  -9    0.18    0.04
  -8  -1   9    0.22    0.05
   7   1  -9    3.74    0.14
  -7  -1   9    3.51    0.14
   6   1  -9    0.43    0.06
  -6  -1   9    0.40    0.06
   5   1  -9    0.16    0.04
  -5  -1   9    0.22    0.05
   4   1  -9    1.98    0.11
  -4  -1   9    1.96    0.10
   3   1  -9    8.10    0.23
  -3  -1   9    8.12    0.22
   2   1  -9    2.86    0.14
  -2  -1   9    2.83    0.12
   1   1  -9   -0.01    0.03
  -1  -1   9   -0.01    0.02
   0   1  -9    1.11    0.12
   0  -1   9    1.04    0.07
  -1   1  -9    0.02    0.03
  10   0  -9    1.42    0.10
   9   0  -9    0.08    0.03
   8   0  -9    0.06    0.03
   7   0  -9    0.45    0.06
   6   0  -9    1.66    0.10
  -6   0   9    1.77    0.11
   5   0  -9    1.03    0.09
  -5   0   9    1.28    0.09
   4   0  -9    2.00    0.11
  -4   0   9    1.93    0.11
   3   0  -9    0.16    0.05
  -3   0   9    0.13    0.04
   2   0  -9    1.06    0.11
  -2   0   9    1.13    0.08
   1   0  -9    0.89    0.11
  -1   0   9    0.84    0.08
   0   0  -9    0.10    0.05
   0   0   9    0.13    0.03
   9  -1  -9    0.01    0.03
   8  -1  -9    0.15    0.04
   7  -1  -9    0.27    0.05
   6  -1  -9    0.58    0.08
   5  -1  -9    0.02    0.03
   4  -1  -9    0.68    0.09
   3  -1  -9    0.01    0.03
   2  -1  -9    0.03    0.03
   1  -1  -9   -0.01    0.03
   8  -2  -9    0.15    0.04
   7  -2  -9    0.02    0.03
   6  -2  -9    0.04    0.03
   5  -2  -9    0.05    0.04
   4  -2  -9    0.22    0.06
   3  -2  -9    0.05    0.04
   2  -2  -9    0.78    0.11
   6  -3  -9    0.11    0.04
   5  -3  -9    0.10    0.04
  -3 -10  10    0.75    0.07
  -3 -10  10    0.79    0.10
  -2 -10  10    0.03    0.02
  -2 -10  10    0.01    0.03
  -1 -10  10    0.04    0.02
  -1 -10  10    0.01    0.04
   0 -10  10    0.19    0.06
   0 -10  10    0.10    0.03
  -5  -9  10    0.74    0.09
  -5  -9  10    0.58    0.07
  -4  -9  10    0.44    0.05
  -4  -9  10    0.34    0.06
  -3  -9  10    0.10    0.03
  -3  -9  10    0.01    0.03
  -2  -9  10    0.00    0.02
  -2  -9  10    0.02    0.03
  -1  -9  10    0.05    0.02
  -1  -9  10    0.03    0.03
   0  -9  10    0.09    0.05
   0  -9  10    0.13    0.03
   1  -9  10    0.31    0.07
  -6  -8  10    0.15    0.04
  -6  -8  10    0.20    0.04
  -5  -8  10    1.25    0.12
  -5  -8  10    1.25    0.08
  -4  -8  10    0.39    0.05
  -4  -8  10    0.35    0.07
  -3  -8  10    0.34    0.06
  -3  -8  10    0.45    0.05
  -2  -8  10    0.03    0.03
  -1  -8  10    0.19    0.05
   0  -8  10    0.17    0.05
   1  -8  10    0.15    0.05
   7   7 -10    0.04    0.02
  -7  -7  10    0.01    0.02
  -7  -7  10    0.04    0.03
   6   7 -10    0.18    0.03
  -6  -7  10    0.21    0.04
  -6  -7  10    0.15    0.04
   5   7 -10    0.00    0.01
  -5  -7  10    0.01    0.03
   4   7 -10    1.58    0.08
  -4  -7  10    1.55    0.11
   3   7 -10    0.02    0.02
  -3  -7  10    0.04    0.03
   2   7 -10    1.56    0.08
  -2  -7  10    1.72    0.11
   1   7 -10    0.35    0.05
  -1  -7  10    0.27    0.06
   0   7 -10    0.03    0.02
   0  -7  10    0.03    0.03
  -1   7 -10    0.13    0.04
   1  -7  10    0.24    0.06
  -2   7 -10    0.38    0.06
   2  -7  10    0.42    0.08
   8   6 -10    0.01    0.02
  -8  -6  10    0.03    0.02
   7   6 -10    0.08    0.03
  -7  -6  10    0.05    0.03
   6   6 -10    0.34    0.05
  -6  -6  10    0.34    0.06
   5   6 -10    0.09    0.03
  -5  -6  10    0.05    0.03
   4   6 -10    2.56    0.10
  -4  -6  10    2.86    0.14
   3   6 -10    0.03    0.02
  -3  -6  10    0.02    0.03
   2   6 -10    0.03    0.02
  -2  -6  10    0.01    0.02
   1   6 -10    2.66    0.12
  -1  -6  10    2.83    0.14
   0   6 -10    1.13    0.09
   0  -6  10    0.88    0.09
  -1   6 -10    0.63    0.08
   1  -6  10    0.38    0.07
  -2   6 -10    0.77    0.09
   2  -6  10    1.03    0.11
   9   5 -10    0.16    0.04
  -9  -5  10    0.08    0.04
   8   5 -10    0.12    0.03
  -8  -5  10    0.07    0.04
   7   5 -10    0.48    0.06
  -7  -5  10    0.35    0.06
   6   5 -10    0.76    0.07
  -6  -5  10    0.89    0.09
   5   5 -10    0.34    0.05
  -5  -5  10    0.26    0.05
   4   5 -10    2.53    0.11
  -4  -5  10    2.53    0.13
   3   5 -10    0.01    0.02
  -3  -5  10   -0.02    0.02
   2   5 -10    0.14    0.04
  -2  -5  10    0.06    0.03
   1   5 -10    0.09    0.03
  -1  -5  10    0.07    0.04
   0   5 -10    0.04    0.03
   0  -5  10    0.05    0.03
  -1   5 -10    0.89    0.10
   1  -5  10    1.07    0.10
  -9  -4  10    0.03    0.03
   8   4 -10    0.01    0.02
  -8  -4  10    0.00    0.02
   7   4 -10    2.89    0.12
  -7  -4  10    2.68    0.13
   6   4 -10    1.87    0.10
  -6  -4  10    1.86    0.11
   5   4 -10    0.40    0.05
  -5  -4  10    0.40    0.06
   4   4 -10    5.37    0.17
  -4  -4  10    5.50    0.18
   3   4 -10    2.48    0.12
  -3  -4  10    2.21    0.12
   2   4 -10    1.20    0.09
  -2  -4  10    1.44    0.10
   1   4 -10    0.66    0.08
  -1  -4  10    0.48    0.07
   0   4 -10    1.03    0.11
   0  -4  10    0.83    0.09
  -1   4 -10    2.55    0.14
   1  -4  10    2.77    0.13
   9   3 -10    0.25    0.05
  -9  -3  10    0.35    0.06
   8   3 -10   -0.01    0.02
  -8  -3  10    0.00    0.02
   7   3 -10    0.35    0.05
  -7  -3  10    0.36    0.06
   6   3 -10    3.76    0.14
  -6  -3  10    3.64    0.15
   5   3 -10    0.37    0.06
  -5  -3  10    0.31    0.05
   4   3 -10    1.51    0.10
  -4  -3  10    1.31    0.09
   3   3 -10    2.09    0.12
  -3  -3  10    1.98    0.11
   2   3 -10    4.22    0.17
  -2  -3  10    4.63    0.17
   1   3 -10    0.14    0.04
  -1  -3  10    0.15    0.04
   0   3 -10    0.47    0.08
   0  -3  10    0.53    0.07
  -1   3 -10    0.97    0.11
   1  -3  10    1.05    0.09
   9   2 -10    0.04    0.03
  -9  -2  10   -0.01    0.03
   8   2 -10    1.23    0.09
  -8  -2  10    1.33    0.10
   7   2 -10    0.02    0.02
  -7  -2  10    0.02    0.03
   6   2 -10    0.12    0.04
  -6  -2  10    0.03    0.03
   5   2 -10    1.94    0.11
  -5  -2  10    2.06    0.11
   4   2 -10    0.86    0.09
  -4  -2  10    0.78    0.08
   3   2 -10    0.25    0.05
  -3  -2  10    0.27    0.05
   2   2 -10    0.27    0.06
  -2  -2  10    0.29    0.05
   1   2 -10    0.25    0.06
  -1  -2  10    0.25    0.05
   0   2 -10    0.32    0.07
   0  -2  10    0.31    0.05
   9   1 -10    0.10    0.04
   8   1 -10    1.00    0.10
  -8  -1  10    0.96    0.10
   7   1 -10    0.79    0.09
  -7  -1  10    0.65    0.08
   6   1 -10    0.04    0.03
  -6  -1  10    0.02    0.03
   5   1 -10    4.36    0.17
  -5  -1  10    4.07    0.16
   4   1 -10    0.46    0.07
  -4  -1  10    0.43    0.06
   3   1 -10    1.10    0.11
  -3  -1  10    1.22    0.09
   2   1 -10    0.46    0.08
  -2  -1  10    0.51    0.07
   1   1 -10    0.26    0.06
  -1  -1  10    0.25    0.05
   8   0 -10    0.05    0.03
   7   0 -10    0.06    0.03
   6   0 -10    0.02    0.03
  -6   0  10   -0.02    0.02
   5   0 -10    0.18    0.05
  -5   0  10    0.09    0.04
   4   0 -10    0.54    0.08
  -4   0  10    0.75    0.09
   3   0 -10    1.19    0.12
  -3   0  10    1.29    0.09
   2   0 -10    0.20    0.06
  -2   0  10    0.22    0.05
   7  -1 -10    0.04    0.03
   6  -1 -10    0.73    0.09
   5  -1 -10    2.86    0.16
   4  -1 -10    0.45    0.08
  -4  -9  11    0.08    0.04
  -3  -9  11    1.23    0.13
  -2  -9  11    1.94    0.13
  -5  -8  11    1.09    0.11
  -4  -8  11    0.01    0.03
  -3  -8  11    0.00    0.02
  -2  -8  11    0.24    0.06
  -1  -8  11    1.19    0.12
  -6  -7  11    0.24    0.05
  -5  -7  11    0.03    0.03
  -4  -7  11   -0.03    0.02
   3   7 -11    0.03    0.02
  -3  -7  11   -0.02    0.02
   2   7 -11    0.03    0.03
  -2  -7  11    0.03    0.03
   1   7 -11    0.56    0.07
  -1  -7  11    0.55    0.08
   0   7 -11    0.27    0.06
   0  -7  11    0.26    0.06
   7   6 -11    0.56    0.06
  -7  -6  11    0.73    0.09
   6   6 -11    0.18    0.04
  -6  -6  11    0.19    0.05
   5   6 -11    0.13    0.03
   4   6 -11    0.42    0.06
  -4  -6  11    0.19    0.05
   3   6 -11    0.14    0.04
  -3  -6  11    0.08    0.04
   2   6 -11    0.09    0.03
  -2  -6  11    0.05    0.03
   1   6 -11    0.61    0.08
  -1  -6  11    0.32    0.06
   0   6 -11    0.04    0.03
   0  -6  11   -0.01    0.03
   8   5 -11    0.12    0.04
  -8  -5  11    0.08    0.04
   7   5 -11    0.00    0.02
  -7  -5  11    0.00    0.02
   6   5 -11    0.72    0.08
  -6  -5  11    0.69    0.08
   5   5 -11    0.06    0.03
  -5  -5  11    0.02    0.03
   4   5 -11    1.01    0.09
  -4  -5  11    1.16    0.10
   3   5 -11    0.15    0.04
  -3  -5  11    0.18    0.05
   2   5 -11   -0.01    0.02
  -2  -5  11    0.04    0.03
   1   5 -11    0.19    0.05
  -1  -5  11    0.22    0.05
   0   5 -11    0.49    0.08
   0  -5  11    0.64    0.08
   8   4 -11    0.11    0.03
  -8  -4  11    0.09    0.04
   7   4 -11    0.18    0.04
  -7  -4  11    0.19    0.05
   6   4 -11    1.43    0.09
  -6  -4  11    1.26    0.09
   5   4 -11   -0.02    0.02
  -5  -4  11    0.00    0.02
   4   4 -11    0.06    0.03
  -4  -4  11    0.06    0.03
   3   4 -11    1.97    0.12
  -3  -4  11    2.03    0.12
   2   4 -11    0.25    0.05
  -2  -4  11    0.23    0.05
   1   4 -11    0.36    0.07
  -1  -4  11    0.34    0.06
   8   3 -11    0.42    0.06
  -8  -3  11    0.45    0.07
   7   3 -11    0.03    0.03
  -7  -3  11    0.10    0.04
   6   3 -11    1.00    0.10
  -6  -3  11    0.83    0.09
   5   3 -11    0.03    0.03
  -5  -3  11    0.00    0.02
   4   3 -11    0.11    0.04
  -4  -3  11    0.05    0.03
   3   3 -11    0.16    0.05
  -3  -3  11    0.15    0.04
   2   3 -11    0.13    0.05
  -2  -3  11    0.06    0.03
   8   2 -11    0.26    0.05
  -8  -2  11    0.31    0.06
   7   2 -11    0.11    0.04
  -7  -2  11    0.11    0.04
   6   2 -11    2.45    0.13
  -6  -2  11    2.14    0.12
  -5  -2  11    0.67    0.08
   4   2 -11    0.66    0.09
  -4  -2  11    0.89    0.09
   3   2 -11    0.13    0.05
  -3  -2  11    0.19    0.05
   2   2 -11    0.50    0.08
   7   1 -11   -0.02    0.02
  -7  -1  11   -0.01    0.03
   6   1 -11    0.38    0.07
  -6  -1  11    0.38    0.06
   5   1 -11    0.75    0.10
  -5  -1  11    0.89    0.10
   4   1 -11    1.14    0.12
  -4  -1  11    1.29    0.10
   5   6 -12    0.01    0.02
  -5  -6  12    0.01    0.03
   4   6 -12    0.29    0.06
  -4  -6  12    0.15    0.05
   5   5 -12    0.01    0.02
  -5  -5  12   -0.01    0.02
   4   5 -12    0.05    0.03
  -4  -5  12    0.05    0.03
   0   0   0    0.00    0.00
;
loop_
_space_group_symop_operation_xyz
'x, y, z'
'-x, -y, -z'
loop_
_atom_site_label
_atom_site_type_symbol
_atom_site_fract_x
_atom_site_fract_y
_atom_site_fract_z
_atom_site_U_iso_or_equiv
_atom_site_adp_type
_atom_site_occupancy
_atom_site_site_symmetry_order
_atom_site_calc_flag
_atom_site_refinement_flags_posn
_atom_site_refinement_flags_adp
_atom_site_refinement_flags_occupancy
_atom_site_disorder_assembly
_atom_site_disorder_group
C1 C 0.9537(2) 0.3885(2) 0.0968(2) 0.0416(5) Uani 1 1 d . . . . .
C2 C 0.9199(2) 0.3146(2) 0.1820(2) 0.0397(4) Uani 1 1 d . . . . .
C3 C 0.7715(2) 0.2072(2) 0.1142(2) 0.0423(5) Uani 1 1 d . . . . .
H3 H 0.6892 0.1775 0.0085 0.051 Uiso 1 1 calc R . . . .
C4 C 0.7439(2) 0.1438(2) 0.2007(2) 0.0440(5) Uani 1 1 d . . . . .
H4 H 0.6436 0.0726 0.1542 0.053 Uiso 1 1 calc R . . . .
C5 C 0.8681(2) 0.1875(2) 0.3590(2) 0.0399(4) Uani 1 1 d . . . . .
C6 C 1.0166(2) 0.2942(2) 0.4263(2) 0.0472(5) Uani 1 1 d . . . . .
H6 H 1.0998 0.3229 0.5311 0.057 Uiso 1 1 calc R . . . .
C7 C 1.0421(2) 0.3579(2) 0.3402(3) 0.0476(5) Uani 1 1 d . . . . .
H7 H 1.1418 0.4306 0.3878 0.057 Uiso 1 1 calc R . . . .
C8 C 0.7317(2) 0.0177(2) 0.4217(2) 0.0411(5) Uani 1 1 d . . . . .
C9 C 0.6736(2) -0.1015(2) 0.5708(2) 0.0389(4) Uani 1 1 d . . . . .
C10 C 0.5186(2) -0.2033(2) 0.4473(2) 0.0457(5) Uani 1 1 d . . . . .
H10 H 0.4685 -0.2074 0.3457 0.055 Uiso 1 1 calc R . . . .
C11 C 0.7411(2) -0.1003(2) 0.7199(2) 0.0446(5) Uani 1 1 d . . . . .
H11 H 0.8451 -0.0314 0.8038 0.053 Uiso 1 1 calc R . . . .
C12 C 0.4403(3) -0.2983(3) 0.4787(3) 0.0525(5) Uani 1 1 d . . . . .
H12 H 0.3361 -0.3681 0.3975 0.063 Uiso 1 1 calc R . . . .
C13 C 0.5152(3) -0.2905(2) 0.6288(3) 0.0499(5) Uani 1 1 d . . . . .
H13 H 0.4602 -0.3557 0.6475 0.060 Uiso 1 1 calc R . . . .
C14 C 0.8047(2) -0.2519(2) 0.0846(2) 0.0431(5) Uani 1 1 d . . . . .
C15 C 0.6331(2) -0.3584(2) -0.0187(2) 0.0414(5) Uani 1 1 d . . . . .
H15A H 0.6118 -0.4346 -0.1318 0.050 Uiso 1 1 calc R . . . .
H15B H 0.5649 -0.2946 -0.0288 0.050 Uiso 1 1 calc R . . . .
C16 C 0.5873(2) -0.4482(2) 0.0530(2) 0.0435(5) Uani 1 1 d . . . . .
H16A H 0.6533 -0.5142 0.0608 0.052 Uiso 1 1 calc R . . . .
H16B H 0.6097 -0.3725 0.1668 0.052 Uiso 1 1 calc R . . . .
N1 N 0.7691(2) 0.0014(2) 0.5581(2) 0.0487(5) Uani 1 1 d . . . . .
H1 H 0.8621 0.0619 0.6457 0.058 Uiso 1 1 calc R . . . .
N2 N 0.8551(2) 0.1330(2) 0.4592(2) 0.0500(5) Uani 1 1 d . . . . .
H2 H 0.9367 0.1787 0.5592 0.060 Uiso 1 1 calc R . . . .
N3 N 0.6643(2) -0.19289(19) 0.7491(2) 0.0460(4) Uani 1 1 d . . . . .
O1 O 0.60740(17) -0.06004(16) 0.28759(16) 0.0515(4) Uani 1 1 d . . . . .
O2 O 0.83928(17) 0.33400(17) -0.05790(17) 0.0523(4) Uani 1 1 d . . . . .
H2A H 0.8676 0.3811 -0.0962 0.078 Uiso 1 1 calc R . . . .
O3 O 1.08046(18) 0.49416(18) 0.16600(18) 0.0582(4) Uani 1 1 d . . . . .
O4 O 0.85402(16) -0.17033(17) 0.03139(18) 0.0519(4) Uani 1 1 d . . . . .
H4A H 0.7919 -0.1238 0.0090 0.078 Uiso 1 1 calc R . . . .
O5 O 0.89897(18) -0.2404(2) 0.21382(19) 0.0677(5) Uani 1 1 d . . . . .
loop_
_atom_site_aniso_label
_atom_site_aniso_U_11
_atom_site_aniso_U_22
_atom_site_aniso_U_33
_atom_site_aniso_U_23
_atom_site_aniso_U_13
_atom_site_aniso_U_12
C1 0.0386(11) 0.0487(11) 0.0390(10) 0.0291(9) 0.0154(9) 0.0084(9)
C2 0.0416(11) 0.0443(10) 0.0379(10) 0.0270(9) 0.0187(9) 0.0107(9)
C3 0.0401(11) 0.0496(11) 0.0348(10) 0.0269(9) 0.0131(9) 0.0083(9)
C4 0.0395(11) 0.0504(11) 0.0390(10) 0.0282(9) 0.0146(9) 0.0031(9)
C5 0.0423(11) 0.0438(10) 0.0366(10) 0.0258(9) 0.0185(9) 0.0086(9)
C6 0.0399(12) 0.0600(12) 0.0377(10) 0.0329(10) 0.0106(9) 0.0058(9)
C7 0.0381(11) 0.0574(12) 0.0460(11) 0.0350(10) 0.0145(9) 0.0026(9)
C8 0.0437(12) 0.0455(10) 0.0372(10) 0.0275(9) 0.0180(10) 0.0086(9)
C9 0.0395(11) 0.0424(10) 0.0370(10) 0.0251(8) 0.0177(9) 0.0078(8)
C10 0.0414(12) 0.0525(11) 0.0379(10) 0.0276(9) 0.0137(9) 0.0051(9)
C11 0.0394(11) 0.0508(11) 0.0410(10) 0.0299(9) 0.0145(9) 0.0034(9)
C12 0.0401(12) 0.0573(13) 0.0477(12) 0.0299(10) 0.0133(10) -0.0017(10)
C13 0.0476(13) 0.0525(12) 0.0503(12) 0.0331(10) 0.0217(10) 0.0024(10)
C14 0.0390(11) 0.0513(11) 0.0393(10) 0.0281(9) 0.0164(9) 0.0089(9)
C15 0.0368(11) 0.0506(11) 0.0358(10) 0.0270(9) 0.0144(8) 0.0078(9)
C16 0.0405(11) 0.0516(11) 0.0425(10) 0.0311(9) 0.0185(9) 0.0098(9)
N1 0.0398(10) 0.0597(10) 0.0393(9) 0.0343(8) 0.0091(8) -0.0035(8)
N2 0.0430(10) 0.0622(11) 0.0363(9) 0.0339(8) 0.0086(8) -0.0033(8)
N3 0.0453(10) 0.0518(9) 0.0446(9) 0.0330(8) 0.0192(8) 0.0069(8)
O1 0.0506(9) 0.0544(8) 0.0357(7) 0.0273(7) 0.0107(7) -0.0022(7)
O2 0.0437(8) 0.0677(9) 0.0432(8) 0.0395(7) 0.0125(7) 0.0008(7)
O3 0.0487(9) 0.0679(10) 0.0492(8) 0.0428(8) 0.0095(7) -0.0052(7)
O4 0.0391(8) 0.0609(9) 0.0571(9) 0.0414(7) 0.0166(7) 0.0043(7)
O5 0.0426(9) 0.0976(12) 0.0516(9) 0.0531(9) 0.0038(7) 0.0000(8)
loop_
_atom_type_symbol
_atom_type_description
_atom_type_scat_dispersion_real
_atom_type_scat_dispersion_imag
_atom_type_scat_source
C C 0.0033 0.0016 'International Tables Vol C Tables 4.2.6.8 and 6.1.1.4'
H H 0.0000 0.0000 'International Tables Vol C Tables 4.2.6.8 and 6.1.1.4'
N N 0.0061 0.0033 'International Tables Vol C Tables 4.2.6.8 and 6.1.1.4'
O O 0.0106 0.0060 'International Tables Vol C Tables 4.2.6.8 and 6.1.1.4'
loop_
_geom_angle_atom_site_label_1
_geom_angle_atom_site_label_2
_geom_angle_atom_site_label_3
_geom_angle
_geom_angle_site_symmetry_1
_geom_angle_site_symmetry_3
O2 C1 C2 115.64(16) . .
O3 C1 C2 121.95(17) . .
O3 C1 O2 122.40(16) . .
C3 C2 C1 123.12(17) . .
C3 C2 C7 118.81(17) . .
C7 C2 C1 118.05(17) . .
C2 C3 H3 119.4 . .
C4 C3 C2 121.16(18) . .
C4 C3 H3 119.4 . .
C3 C4 H4 120.3 . .
C3 C4 C5 119.40(18) . .
C5 C4 H4 120.3 . .
C6 C5 C4 119.40(16) . .
C6 C5 N2 115.66(16) . .
N2 C5 C4 124.93(17) . .
C5 C6 H6 119.7 . .
C7 C6 C5 120.68(18) . .
C7 C6 H6 119.7 . .
C2 C7 H7 119.7 . .
C6 C7 C2 120.53(18) . .
C6 C7 H7 119.7 . .
N2 C8 N1 110.24(16) . .
O1 C8 N1 124.76(17) . .
O1 C8 N2 125.01(16) . .
C10 C9 C11 118.03(17) . .
C10 C9 N1 125.21(16) . .
C11 C9 N1 116.77(17) . .
C9 C10 H10 120.9 . .
C12 C10 C9 118.23(18) . .
C12 C10 H10 120.9 . .
C9 C11 H11 118.4 . .
N3 C11 C9 123.27(19) . .
N3 C11 H11 118.4 . .
C10 C12 H12 119.9 . .
C13 C12 C10 120.23(19) . .
C13 C12 H12 119.9 . .
C12 C13 H13 118.9 . .
N3 C13 C12 122.26(17) . .
N3 C13 H13 118.9 . .
O4 C14 C15 118.43(16) . .
O5 C14 C15 122.42(17) . .
O5 C14 O4 119.15(18) . .
C14 C15 H15A 108.6 . .
C14 C15 H15B 108.6 . .
C14 C15 C16 114.55(16) . .
H15A C15 H15B 107.6 . .
C16 C15 H15A 108.6 . .
C16 C15 H15B 108.6 . .
C15 C16 H16A 109.0 . .
C15 C16 H16B 109.0 . .
C16 C16 C15 112.95(19) 2_645 .
C16 C16 H16A 109.0 2_645 .
C16 C16 H16B 109.0 2_645 .
H16A C16 H16B 107.8 . .
C8 N1 C9 127.63(16) . .
C8 N1 H1 116.2 . .
C9 N1 H1 116.2 . .
C5 N2 H2 115.3 . .
C8 N2 C5 129.38(16) . .
C8 N2 H2 115.3 . .
C13 N3 C11 117.99(17) . .
C1 O2 H2A 109.5 . .
C14 O4 H4A 109.5 . .
loop_
_geom_bond_atom_site_label_1
_geom_bond_atom_site_label_2
_geom_bond_distance
_geom_bond_site_symmetry_2
C1 C2 1.468(2) .
C1 O2 1.314(2) .
C1 O3 1.225(2) .
C2 C3 1.387(3) .
C2 C7 1.392(3) .
C3 H3 0.9300 .
C3 C4 1.378(3) .
C4 H4 0.9300 .
C4 C5 1.398(3) .
C5 C6 1.386(3) .
C5 N2 1.392(2) .
C6 H6 0.9300 .
C6 C7 1.368(3) .
C7 H7 0.9300 .
C8 N1 1.377(2) .
C8 N2 1.366(2) .
C8 O1 1.213(2) .
C9 C10 1.382(3) .
C9 C11 1.388(3) .
C9 N1 1.396(2) .
C10 H10 0.9300 .
C10 C12 1.377(3) .
C11 H11 0.9300 .
C11 N3 1.333(2) .
C12 H12 0.9300 .
C12 C13 1.366(3) .
C13 H13 0.9300 .
C13 N3 1.331(3) .
C14 C15 1.498(3) .
C14 O4 1.307(2) .
C14 O5 1.210(2) .
C15 H15A 0.9700 .
C15 H15B 0.9700 .
C15 C16 1.516(2) .
C16 C16 1.512(4) 2_645
C16 H16A 0.9700 .
C16 H16B 0.9700 .
N1 H1 0.8600 .
N2 H2 0.8600 .
O2 H2A 0.8200 .
O4 H4A 0.8200 .
loop_
_geom_hbond_atom_site_label_D
_geom_hbond_atom_site_label_H
_geom_hbond_atom_site_label_A
_geom_hbond_distance_DH
_geom_hbond_distance_HA
_geom_hbond_distance_DA
_geom_hbond_angle_DHA
_geom_hbond_site_symmetry_A
C4 H4 O1 0.93 2.37 2.946(2) 119.7 .
C10 H10 O1 0.93 2.31 2.893(2) 120.4 .
C12 H12 O3 0.93 2.31 3.220(3) 165.9 1_445
N1 H1 O5 0.86 2.20 2.993(2) 154.1 2_756
N2 H2 O5 0.86 1.96 2.807(2) 167.0 2_756
O2 H2A O3 0.82 1.81 2.6207(17) 171.9 2_765
O4 H4A N3 0.82 2.14 2.612(2) 116.3 1_554
