#------------------------------------------------------------------------------
#$Date: 2022-09-20 12:08:41 +0300 (Tue, 20 Sep 2022) $
#$Revision: 277999 $
#$URL: file:///home/coder/svn-repositories/cod/cif/8/10/57/8105798.cif $
#------------------------------------------------------------------------------
#
# This file is available in the Crystallography Open Database (COD),
# http://www.crystallography.net/
#
# All data on this site have been placed in the public domain by the
# contributors.
#
data_8105798
loop_
_publ_author_name
'Han, Min-Le'
_publ_section_title
;
 Crystal structure of
 catena-poly[diaqua-bis(3-carboxy-5-methoxybenzoato-\kO)-(1,2-bis(imidazol-1-yl)ethane-\k2
 N:N&#x2032;)cobalt(II)], C26H28CoN4O12, [Co(C9H6O5)2(H2O)2(C8H10N4)]
;
_journal_issue                   4
_journal_name_full
'Zeitschrift f\"ur Kristallographie - New Crystal Structures'
_journal_page_first              617
_journal_page_last               618
_journal_paper_doi               10.1515/ncrs-2018-0555
_journal_volume                  234
_journal_year                    2019
_chemical_formula_moiety         'C26 H28 Co N4 O12'
_chemical_formula_sum            'C26 H28 Co N4 O12'
_chemical_formula_weight         647.45
_space_group_crystal_system      triclinic
_space_group_IT_number           2
_space_group_name_Hall           '-P 1'
_space_group_name_H-M_alt        'P -1'
_atom_sites_solution_hydrogens   geom
_atom_sites_solution_primary     dual
_atom_sites_solution_secondary   difmap
_cell_angle_alpha                79.365(2)
_cell_angle_beta                 77.535(2)
_cell_angle_gamma                89.226(2)
_cell_formula_units_Z            1
_cell_length_a                   6.5186(10)
_cell_length_b                   9.4111(14)
_cell_length_c                   12.1777(18)
_cell_measurement_reflns_used    2333
_cell_measurement_temperature    296(2)
_cell_measurement_theta_max      26.66
_cell_measurement_theta_min      2.54
_cell_volume                     716.66(19)
_computing_cell_refinement       'Bruker SMART'
_computing_data_collection       'Bruker SMART'
_computing_data_reduction        'Bruker SAINT'
_computing_molecular_graphics    'Olex2 (Dolomanov et al., 2009)'
_computing_publication_material  'Olex2 (Dolomanov et al., 2009)'
_computing_structure_refinement  'olex2.refine (Bourhis et al., 2015)'
_computing_structure_solution    'ShelXT (Sheldrick, 2015)'
_diffrn_ambient_temperature      296.15
_diffrn_measured_fraction_theta_full 0.994
_diffrn_measured_fraction_theta_max 0.994
_diffrn_measurement_device_type  'CCD area detector'
_diffrn_measurement_method       'phi and omega scans'
_diffrn_radiation_monochromator  graphite
_diffrn_radiation_type           MoK\a
_diffrn_radiation_wavelength     0.71073
_diffrn_reflns_av_R_equivalents  0.0179
_diffrn_reflns_av_unetI/netI     0.0281
_diffrn_reflns_limit_h_max       7
_diffrn_reflns_limit_h_min       -7
_diffrn_reflns_limit_k_max       11
_diffrn_reflns_limit_k_min       -11
_diffrn_reflns_limit_l_max       14
_diffrn_reflns_limit_l_min       -14
_diffrn_reflns_number            5365
_diffrn_reflns_theta_full        25.50
_diffrn_reflns_theta_max         25.50
_diffrn_reflns_theta_min         2.54
_diffrn_source                   'fine-focus sealed tube'
_exptl_absorpt_coefficient_mu    0.669
_exptl_absorpt_correction_T_max  0.9122
_exptl_absorpt_correction_T_min  0.8613
_exptl_absorpt_correction_type   none
_exptl_crystal_colour            'clear light pink'
_exptl_crystal_colour_lustre     clear
_exptl_crystal_colour_modifier   light
_exptl_crystal_colour_primary    pink
_exptl_crystal_density_diffrn    1.500
_exptl_crystal_density_meas      .
_exptl_crystal_density_method    'not measured'
_exptl_crystal_description       block
_exptl_crystal_F_000             335
_exptl_crystal_size_max          0.23
_exptl_crystal_size_mid          0.18
_exptl_crystal_size_min          0.14
_refine_diff_density_max         0.209
_refine_diff_density_min         -0.189
_refine_diff_density_rms         0.044
_refine_ls_extinction_method     none
_refine_ls_goodness_of_fit_ref   1.043
_refine_ls_hydrogen_treatment    constr
_refine_ls_matrix_type           full
_refine_ls_number_parameters     198
_refine_ls_number_reflns         2650
_refine_ls_number_restraints     0
_refine_ls_restrained_S_all      1.043
_refine_ls_R_factor_all          0.0348
_refine_ls_R_factor_gt           0.0304
_refine_ls_shift/su_max          0.001
_refine_ls_shift/su_mean         0.000
_refine_ls_structure_factor_coef Fsqd
_refine_ls_weighting_details
'calc w=1/[\s^2^(Fo^2^)+(0.0378P)^2^+0.2245P] where P=(Fo^2^+2Fc^2^)/3'
_refine_ls_weighting_scheme      calc
_refine_ls_wR_factor_gt          0.0743
_refine_ls_wR_factor_ref         0.0778
_reflns_number_gt                2401
_reflns_number_total             2650
_reflns_threshold_expression     >2sigma(I)
_iucr_refine_instructions_details
;
TITL B in P1                          P-1
CELL  0.71073    6.5186    9.4111   12.1777    79.365    77.535    89.226
ZERR 1           0.0010    0.0014    0.0018     0.002     0.002     0.002
LATT 1
SFAC C  H  Co N  O
UNIT 26  28  1  4  12
OMIT -3 51
L.S. 10
ACTA
BOND $H
PLAN 5
SIZE 0.23 0.18 0.14
CONF
HTAB
HTAB O6 O1_$2
HTAB O6 O1
HTAB O3 O4_$1
EQIV $2 -x, -y, -z
EQIV $1 -x-1, -y+1, -z+1
TEMP    23
WGHT    0.037800    0.224500
FVAR       0.66677
MOLE 1
CO1   3    0.500000    0.000000    0.000000    10.50000    0.02247    0.02846 =
         0.02236   -0.00998   -0.00468   -0.00101
O1    5    0.043915    0.125430    0.129383    11.00000    0.03490    0.06164 =
         0.03313   -0.02472   -0.01527    0.01341
O2    5    0.354688    0.047758    0.161723    11.00000    0.03043    0.04743 =
         0.02484   -0.01468   -0.00732    0.01134
O3    5   -0.373956    0.417404    0.382245    11.00000    0.05469    0.06915 =
         0.03970   -0.02051   -0.01564    0.03775
AFIX 147
H3    2   -0.472860    0.466622    0.405581    11.00000   -1.50000
AFIX   0
O4    5   -0.316030    0.413393    0.556991    11.00000    0.05240    0.06342 =
         0.03686   -0.02551   -0.00931    0.02824
O5    5    0.354328    0.131953    0.553049    11.00000    0.05297    0.08252 =
         0.03258   -0.02757   -0.02376    0.03306
O6    5    0.238475    0.073706   -0.073374    11.00000    0.03030    0.04773 =
         0.02787   -0.01348   -0.00728   -0.00046
AFIX   3
H1W   2    0.159875    0.091026   -0.012154    11.00000   -1.50000
H2W   2    0.182324    0.003106   -0.091764    11.00000   -1.50000
AFIX   0
N1    4    0.379897   -0.213825    0.047667    11.00000    0.04223    0.03489 =
         0.03547   -0.00490   -0.01586   -0.00966
N2    4    0.225985   -0.415971    0.037941    11.00000    0.06775    0.03465 =
         0.07119   -0.00308   -0.03629   -0.01784
C1    1    0.180292    0.103814    0.189680    11.00000    0.02880    0.02678 =
         0.02319   -0.00723   -0.00448    0.00086
C2    1    0.129599    0.152565    0.303456    11.00000    0.02933    0.02919 =
         0.02367   -0.00872   -0.00537    0.00312
C3    1    0.261255    0.122027    0.379731    11.00000    0.03364    0.04125 =
         0.02956   -0.01321   -0.00825    0.01381
AFIX  43
H3A   2    0.381887    0.069908    0.360868    11.00000   -1.20000
AFIX   0
C4    1    0.215067    0.168427    0.484180    11.00000    0.03757    0.04529 =
         0.02742   -0.01257   -0.01290    0.01159
C5    1    0.038301    0.249132    0.511556    11.00000    0.04027    0.04194 =
         0.02194   -0.01344   -0.00690    0.00953
AFIX  43
H5    2    0.006816    0.280910    0.581068    11.00000   -1.20000
AFIX   0
C6    1   -0.091456    0.282105    0.434095    11.00000    0.03287    0.03346 =
         0.02811   -0.00853   -0.00397    0.00743
C7    1   -0.048787    0.232605    0.331671    11.00000    0.03127    0.03291 =
         0.02541   -0.00807   -0.00885    0.00620
AFIX  43
H7    2   -0.139282    0.252789    0.281626    11.00000   -1.20000
AFIX   0
C8    1   -0.272407    0.375760    0.462750    11.00000    0.03757    0.04036 =
         0.03013   -0.01077   -0.00547    0.01102
C9    1    0.296084    0.158558    0.666519    11.00000    0.05208    0.06732 =
         0.02617   -0.01592   -0.01665    0.00864
AFIX 137
H9A   2    0.292151    0.260961    0.664696    11.00000   -1.50000
H9B   2    0.397012    0.117145    0.709256    11.00000   -1.50000
H9C   2    0.159700    0.115560    0.702347    11.00000   -1.50000
AFIX   0
C10   1    0.329817   -0.298264    0.154486    11.00000    0.08807    0.05858 =
         0.04341    0.00548   -0.03011   -0.03320
AFIX  43
H10   2    0.356856   -0.273663    0.220640    11.00000   -1.20000
AFIX   0
C11   1    0.235870   -0.421803    0.149189    11.00000    0.10753    0.06051 =
         0.06763    0.02191   -0.04218   -0.04347
AFIX  43
H11   2    0.186720   -0.497251    0.210003    11.00000   -1.20000
AFIX   0
C12   1    0.314770   -0.288667   -0.019657    11.00000    0.04864    0.03469 =
         0.04688   -0.00710   -0.02114   -0.00699
AFIX  43
H12   2    0.328550   -0.257168   -0.097974    11.00000   -1.20000
AFIX   0
C13   1    0.115145   -0.516239   -0.009036    11.00000    0.07806    0.03829 =
         0.10545   -0.01744   -0.04758   -0.01583
AFIX  23
H13A  2    0.132663   -0.614687    0.028120    11.00000   -1.20000
H13B  2    0.174623   -0.507771   -0.090245    11.00000   -1.20000
HKLF 4 1  1.0000  0.0000  0.0000  0.0000  1.0000  0.0000  0.0000  0.0000  1.0000
 
REM  B in P1                          P-1
REM R1 =  0.0304 for   2401 Fo > 4sig(Fo)  and  0.0348 for all   2650 data
REM    198 parameters refined using      0 restraints
 
END  
     
WGHT      0.0336      0.2588 
REM Highest difference peak  0.209,  deepest hole -0.189,  1-sigma level  0.044
Q1    1   0.4531 -0.1276  0.0191  11.00000  0.05    0.21
Q2    1  -0.0316  0.2910  0.3701  11.00000  0.05    0.19
Q3    1   0.1479  0.1149  0.2616  11.00000  0.05    0.18
Q4    1  -0.0232  0.2813  0.4612  11.00000  0.05    0.18
Q5    1  -0.1732  0.3157  0.4423  11.00000  0.05    0.18
;
_cod_data_source_file            suppl_ncrs-2018-0555_suppl.cif
_cod_data_source_block           b
_cod_database_code               8105798
_olex2_refinement_description
;
1. Fixed Uiso
 At 1.2 times of:
  All C(H) groups, All C(H,H) groups
 At 1.5 times of:
  All C(H,H,H) groups, All O(H) groups, All O(H,H) groups
2.a Riding coordinates:
 O6(H1W,H2W)
2.b Secondary CH2 refined with riding coordinates:
 C13(H13A,H13B)
2.c Aromatic/amide H refined with riding coordinates:
 C3(H3A), C5(H5), C7(H7), C10(H10), C11(H11), C12(H12)
2.d Idealised Me refined as rotating group:
 C9(H9A,H9B,H9C)
2.e Idealised tetrahedral OH refined as rotating group:
 O3(H3)
;
_olex2_submission_special_instructions 'No special instructions were received'
loop_
_space_group_symop_id
_space_group_symop_operation_xyz
1 'x, y, z'
2 '-x, -y, -z'
loop_
_atom_site_label
_atom_site_type_symbol
_atom_site_fract_x
_atom_site_fract_y
_atom_site_fract_z
_atom_site_U_iso_or_equiv
_atom_site_adp_type
_atom_site_occupancy
_atom_site_calc_flag
_atom_site_disorder_assembly
_atom_site_disorder_group
_atom_site_site_symmetry_order
_atom_site_refinement_flags_posn
_atom_site_refinement_flags_adp
_atom_site_refinement_flags_occupancy
Co1 Co 0.5000 0.0000 0.0000 0.02376(12) Uani 1 d . . 2 S T P
O1 O 0.0439(2) 0.12543(17) 0.12938(12) 0.0401(4) Uani 1 d . . 1 . . .
O2 O 0.3547(2) 0.04776(15) 0.16172(10) 0.0331(3) Uani 1 d . . 1 . . .
O3 O -0.3740(3) 0.41740(19) 0.38224(13) 0.0527(4) Uani 1 d . . 1 . . .
H3 H -0.4729 0.4666 0.4056 0.079 Uiso 1 calc . . 1 GR . .
O4 O -0.3160(2) 0.41339(18) 0.55699(12) 0.0491(4) Uani 1 d . . 1 . . .
O5 O 0.3543(2) 0.13195(19) 0.55305(12) 0.0519(4) Uani 1 d . . 1 . . .
O6 O 0.2385(2) 0.07371(15) -0.07337(11) 0.0343(3) Uani 1 d . . 1 . . .
H1W H 0.1599 0.0910 -0.0122 0.051 Uiso 1 d . . 1 R . .
H2W H 0.1823 0.0031 -0.0918 0.051 Uiso 1 d . . 1 R . .
N1 N 0.3799(3) -0.21383(18) 0.04767(14) 0.0365(4) Uani 1 d . . 1 . . .
N2 N 0.2260(3) -0.4160(2) 0.03794(19) 0.0553(6) Uani 1 d . . 1 . . .
C1 C 0.1803(3) 0.10381(19) 0.18968(15) 0.0261(4) Uani 1 d . . 1 . . .
C2 C 0.1296(3) 0.15257(19) 0.30346(15) 0.0270(4) Uani 1 d . . 1 . . .
C3 C 0.2613(3) 0.1220(2) 0.37973(16) 0.0339(4) Uani 1 d . . 1 . . .
H3A H 0.3819 0.0699 0.3609 0.041 Uiso 1 calc . . 1 R . .
C4 C 0.2151(3) 0.1684(2) 0.48418(16) 0.0352(5) Uani 1 d . . 1 . . .
C5 C 0.0383(3) 0.2491(2) 0.51156(16) 0.0338(4) Uani 1 d . . 1 . . .
H5 H 0.0068 0.2809 0.5811 0.041 Uiso 1 calc . . 1 R . .
C6 C -0.0915(3) 0.2821(2) 0.43410(16) 0.0316(4) Uani 1 d . . 1 . . .
C7 C -0.0488(3) 0.2326(2) 0.33167(15) 0.0292(4) Uani 1 d . . 1 . . .
H7 H -0.1393 0.2528 0.2816 0.035 Uiso 1 calc . . 1 R . .
C8 C -0.2724(3) 0.3758(2) 0.46275(17) 0.0359(5) Uani 1 d . . 1 . . .
C9 C 0.2961(4) 0.1586(3) 0.66652(17) 0.0464(6) Uani 1 d . . 1 . . .
H9A H 0.2922 0.2610 0.6647 0.070 Uiso 1 calc . . 1 GR . .
H9B H 0.3970 0.1171 0.7093 0.070 Uiso 1 calc . . 1 GR . .
H9C H 0.1597 0.1156 0.7023 0.070 Uiso 1 calc . . 1 GR . .
C10 C 0.3298(5) -0.2983(3) 0.1545(2) 0.0625(8) Uani 1 d . . 1 . . .
H10 H 0.3569 -0.2737 0.2206 0.075 Uiso 1 calc . . 1 R . .
C11 C 0.2359(5) -0.4218(3) 0.1492(3) 0.0790(10) Uani 1 d . . 1 . . .
H11 H 0.1867 -0.4973 0.2100 0.095 Uiso 1 calc . . 1 R . .
C12 C 0.3148(3) -0.2887(2) -0.01966(19) 0.0417(5) Uani 1 d . . 1 . . .
H12 H 0.3286 -0.2572 -0.0980 0.050 Uiso 1 calc . . 1 R . .
C13 C 0.1151(4) -0.5162(3) -0.0090(3) 0.0690(8) Uani 1 d . . 1 . . .
H13A H 0.1327 -0.6147 0.0281 0.083 Uiso 1 calc . . 1 R . .
H13B H 0.1746 -0.5078 -0.0902 0.083 Uiso 1 calc . . 1 R . .
loop_
_atom_site_aniso_label
_atom_site_aniso_U_11
_atom_site_aniso_U_22
_atom_site_aniso_U_33
_atom_site_aniso_U_23
_atom_site_aniso_U_13
_atom_site_aniso_U_12
Co1 0.02247(19) 0.0285(2) 0.02236(19) -0.00998(14) -0.00468(13) -0.00101(13)
O1 0.0349(8) 0.0616(10) 0.0331(7) -0.0247(7) -0.0153(6) 0.0134(7)
O2 0.0304(7) 0.0474(8) 0.0248(7) -0.0147(6) -0.0073(5) 0.0113(6)
O3 0.0547(10) 0.0691(11) 0.0397(9) -0.0205(8) -0.0156(7) 0.0378(8)
O4 0.0524(9) 0.0634(10) 0.0369(8) -0.0255(8) -0.0093(7) 0.0282(8)
O5 0.0530(9) 0.0825(12) 0.0326(8) -0.0276(8) -0.0238(7) 0.0331(9)
O6 0.0303(7) 0.0477(8) 0.0279(7) -0.0135(6) -0.0073(6) -0.0005(6)
N1 0.0422(10) 0.0349(9) 0.0355(9) -0.0049(7) -0.0159(8) -0.0097(8)
N2 0.0678(13) 0.0346(10) 0.0712(14) -0.0031(10) -0.0363(11) -0.0178(10)
C1 0.0288(9) 0.0268(9) 0.0232(9) -0.0072(7) -0.0045(7) 0.0009(7)
C2 0.0293(9) 0.0292(10) 0.0237(9) -0.0087(7) -0.0054(7) 0.0031(8)
C3 0.0336(10) 0.0412(11) 0.0296(10) -0.0132(9) -0.0083(8) 0.0138(9)
C4 0.0376(11) 0.0453(12) 0.0274(10) -0.0126(9) -0.0129(8) 0.0116(9)
C5 0.0403(11) 0.0419(11) 0.0219(9) -0.0134(8) -0.0069(8) 0.0095(9)
C6 0.0329(10) 0.0335(10) 0.0281(10) -0.0085(8) -0.0040(8) 0.0074(8)
C7 0.0313(10) 0.0329(10) 0.0254(9) -0.0081(8) -0.0088(8) 0.0062(8)
C8 0.0376(11) 0.0404(11) 0.0301(11) -0.0108(9) -0.0055(9) 0.0110(9)
C9 0.0521(13) 0.0673(15) 0.0262(11) -0.0159(10) -0.0167(10) 0.0086(11)
C10 0.088(2) 0.0586(16) 0.0434(14) 0.0055(12) -0.0301(13) -0.0332(15)
C11 0.108(2) 0.0605(18) 0.0676(19) 0.0219(14) -0.0422(18) -0.0435(17)
C12 0.0486(13) 0.0347(11) 0.0469(13) -0.0071(10) -0.0211(10) -0.0070(10)
C13 0.0781(18) 0.0383(14) 0.105(2) -0.0174(14) -0.0476(18) -0.0158(13)
loop_
_atom_type_symbol
_atom_type_description
_atom_type_scat_dispersion_real
_atom_type_scat_dispersion_imag
_atom_type_scat_source
C C 0.0033 0.0016 'International Tables Vol C Tables 4.2.6.8 and 6.1.1.4'
H H 0.0000 0.0000 'International Tables Vol C Tables 4.2.6.8 and 6.1.1.4'
Co Co 0.3494 0.9721 'International Tables Vol C Tables 4.2.6.8 and 6.1.1.4'
N N 0.0061 0.0033 'International Tables Vol C Tables 4.2.6.8 and 6.1.1.4'
O O 0.0106 0.0060 'International Tables Vol C Tables 4.2.6.8 and 6.1.1.4'
loop_
_geom_angle_atom_site_label_1
_geom_angle_atom_site_label_2
_geom_angle_atom_site_label_3
_geom_angle
_geom_angle_site_symmetry_1
_geom_angle_site_symmetry_3
O2 Co1 O2 180.0 2_655 .
O2 Co1 O6 92.73(5) 2_655 2_655
O2 Co1 O6 87.26(5) . 2_655
O2 Co1 O6 92.73(5) . .
O2 Co1 O6 87.27(5) 2_655 .
O6 Co1 O6 180.0 . 2_655
N1 Co1 O2 91.72(6) 2_655 2_655
N1 Co1 O2 91.72(6) . .
N1 Co1 O2 88.28(6) 2_655 .
N1 Co1 O2 88.28(6) . 2_655
N1 Co1 O6 92.51(6) . .
N1 Co1 O6 87.49(6) 2_655 .
N1 Co1 O6 92.51(6) 2_655 2_655
N1 Co1 O6 87.49(6) . 2_655
N1 Co1 N1 180.0 . 2_655
C1 O2 Co1 128.11(12) . .
C8 O3 H3 109.5 . .
C4 O5 C9 117.25(16) . .
Co1 O6 H1W 96.5 . .
Co1 O6 H2W 109.6 . .
H1W O6 H2W 107.4 . .
C10 N1 Co1 128.71(14) . .
C12 N1 Co1 125.68(14) . .
C12 N1 C10 105.21(18) . .
C11 N2 C13 127.8(2) . .
C12 N2 C11 106.30(19) . .
C12 N2 C13 125.3(2) . .
O1 C1 C2 116.89(16) . .
O2 C1 O1 125.34(16) . .
O2 C1 C2 117.75(16) . .
C3 C2 C1 120.93(16) . .
C3 C2 C7 119.19(16) . .
C7 C2 C1 119.87(16) . .
C2 C3 H3A 119.6 . .
C2 C3 C4 120.77(18) . .
C4 C3 H3A 119.6 . .
O5 C4 C3 116.02(17) . .
O5 C4 C5 124.10(17) . .
C5 C4 C3 119.87(17) . .
C4 C5 H5 120.3 . .
C4 C5 C6 119.33(17) . .
C6 C5 H5 120.3 . .
C5 C6 C8 118.09(17) . .
C7 C6 C5 120.81(17) . .
C7 C6 C8 121.06(17) . .
C2 C7 H7 120.0 . .
C6 C7 C2 120.00(17) . .
C6 C7 H7 120.0 . .
O3 C8 C6 115.74(17) . .
O4 C8 O3 123.57(18) . .
O4 C8 C6 120.66(18) . .
O5 C9 H9A 109.5 . .
O5 C9 H9B 109.5 . .
O5 C9 H9C 109.5 . .
H9A C9 H9B 109.5 . .
H9A C9 H9C 109.5 . .
H9B C9 H9C 109.5 . .
N1 C10 H10 125.2 . .
C11 C10 N1 109.6(2) . .
C11 C10 H10 125.2 . .
N2 C11 H11 126.5 . .
C10 C11 N2 107.0(2) . .
C10 C11 H11 126.5 . .
N1 C12 N2 111.9(2) . .
N1 C12 H12 124.1 . .
N2 C12 H12 124.1 . .
N2 C13 C13 110.4(3) . 2_545
N2 C13 H13A 109.6 . .
N2 C13 H13B 109.6 . .
C13 C13 H13A 109.6 2_545 .
C13 C13 H13B 109.6 2_545 .
H13A C13 H13B 108.1 . .
loop_
_geom_bond_atom_site_label_1
_geom_bond_atom_site_label_2
_geom_bond_distance
_geom_bond_site_symmetry_2
Co1 O2 2.1184(12) 2_655
Co1 O2 2.1184(12) .
Co1 O6 2.1407(13) .
Co1 O6 2.1407(13) 2_655
Co1 N1 2.1011(16) .
Co1 N1 2.1011(16) 2_655
O1 C1 1.262(2) .
O2 C1 1.253(2) .
O3 H3 0.8200 .
O3 C8 1.298(2) .
O4 C8 1.237(2) .
O5 C4 1.364(2) .
O5 C9 1.419(2) .
O6 H1W 0.8501 .
O6 H2W 0.8500 .
N1 C10 1.368(3) .
N1 C12 1.311(3) .
N2 C11 1.361(3) .
N2 C12 1.340(3) .
N2 C13 1.461(3) .
C1 C2 1.507(2) .
C2 C3 1.386(3) .
C2 C7 1.392(3) .
C3 H3A 0.9300 .
C3 C4 1.391(3) .
C4 C5 1.386(3) .
C5 H5 0.9300 .
C5 C6 1.390(3) .
C6 C7 1.383(3) .
C6 C8 1.482(3) .
C7 H7 0.9300 .
C9 H9A 0.9600 .
C9 H9B 0.9600 .
C9 H9C 0.9600 .
C10 H10 0.9300 .
C10 C11 1.340(3) .
C11 H11 0.9300 .
C12 H12 0.9300 .
C13 C13 1.505(6) 2_545
C13 H13A 0.9700 .
C13 H13B 0.9700 .
loop_
_geom_hbond_atom_site_label_D
_geom_hbond_atom_site_label_H
_geom_hbond_atom_site_label_A
_geom_hbond_distance_DH
_geom_hbond_distance_HA
_geom_hbond_distance_DA
_geom_hbond_angle_DHA
_geom_hbond_site_symmetry_A
O3 H3 O4 0.82 1.80 2.621(2) 174.2 2_466
O6 H1W O1 0.85 1.81 2.6490(18) 167.7 .
O6 H2W O1 0.85 2.10 2.911(2) 160.5 2
loop_
_geom_torsion_atom_site_label_1
_geom_torsion_atom_site_label_2
_geom_torsion_atom_site_label_3
_geom_torsion_atom_site_label_4
_geom_torsion
_geom_torsion_site_symmetry_1
_geom_torsion_site_symmetry_2
_geom_torsion_site_symmetry_3
_geom_torsion_site_symmetry_4
Co1 O2 C1 O1 10.0(3) . . . .
Co1 O2 C1 C2 -168.66(11) . . . .
Co1 N1 C10 C11 173.0(2) . . . .
Co1 N1 C12 N2 -173.28(15) . . . .
O1 C1 C2 C3 174.29(18) . . . .
O1 C1 C2 C7 -7.4(3) . . . .
O2 Co1 O2 C1 117(6) 2_655 . . .
O2 Co1 N1 C10 151.7(2) 2_655 . . .
O2 Co1 N1 C10 -28.3(2) . . . .
O2 Co1 N1 C12 -36.60(18) 2_655 . . .
O2 Co1 N1 C12 143.40(18) . . . .
O2 C1 C2 C3 -6.9(3) . . . .
O2 C1 C2 C7 171.41(17) . . . .
O5 C4 C5 C6 179.0(2) . . . .
O6 Co1 O2 C1 -2.11(16) . . . .
O6 Co1 O2 C1 177.89(16) 2_655 . . .
O6 Co1 N1 C10 -121.1(2) . . . .
O6 Co1 N1 C10 58.9(2) 2_655 . . .
O6 Co1 N1 C12 -129.42(18) 2_655 . . .
O6 Co1 N1 C12 50.58(18) . . . .
N1 Co1 O2 C1 -94.71(16) . . . .
N1 Co1 O2 C1 85.29(16) 2_655 . . .
N1 Co1 N1 C10 61(26) 2_655 . . .
N1 Co1 N1 C12 -128(26) 2_655 . . .
N1 C10 C11 N2 0.0(4) . . . .
C1 C2 C3 C4 179.36(18) . . . .
C1 C2 C7 C6 -177.57(17) . . . .
C2 C3 C4 O5 179.66(19) . . . .
C2 C3 C4 C5 -1.6(3) . . . .
C3 C2 C7 C6 0.8(3) . . . .
C3 C4 C5 C6 0.3(3) . . . .
C4 C5 C6 C7 1.5(3) . . . .
C4 C5 C6 C8 -176.49(19) . . . .
C5 C6 C7 C2 -2.1(3) . . . .
C5 C6 C8 O3 172.17(19) . . . .
C5 C6 C8 O4 -5.8(3) . . . .
C7 C2 C3 C4 1.0(3) . . . .
C7 C6 C8 O3 -5.8(3) . . . .
C7 C6 C8 O4 176.2(2) . . . .
C8 C6 C7 C2 175.87(18) . . . .
C9 O5 C4 C3 -170.8(2) . . . .
C9 O5 C4 C5 10.5(3) . . . .
C10 N1 C12 N2 0.0(3) . . . .
C11 N2 C12 N1 0.0(3) . . . .
C11 N2 C13 C13 80.0(4) . . . 2_545
C12 N1 C10 C11 0.0(3) . . . .
C12 N2 C11 C10 0.0(4) . . . .
C12 N2 C13 C13 -90.3(4) . . . 2_545
C13 N2 C11 C10 -171.8(3) . . . .
C13 N2 C12 N1 172.1(2) . . . .
loop_
_refln_index_h
_refln_index_k
_refln_index_l
_refln_F_squared_meas
_refln_F_squared_sigma
1 0 0 72.9 1.54
1 0 0 72.21 1.66
2 0 0 615.92 8.18
2 0 0 618.29 8.71
-2 0 0 606.3 7.64
3 0 0 193.84 4.27
-3 0 0 195.61 3.79
3 0 0 195.76 4.7
4 0 0 37.11 2.3
-4 0 0 36.93 1.78
4 0 0 37.08 2
-5 0 0 60.11 2.52
5 0 0 64.89 3.36
5 0 0 56.21 2.84
6 0 0 35.09 2.58
6 0 0 29.51 2.74
-7 0 0 66 4.26
-8 0 0 16.79 2.79
-8 1 0 25.18 3.26
7 -1 0 31.18 3.26
6 -1 0 70.54 3.99
5 -1 0 1.67 0.77
5 -1 0 2.02 0.91
-5 1 0 0.41 0.68
4 -1 0 29.47 2.13
4 -1 0 27.66 1.69
-4 1 0 31.25 1.83
3 -1 0 243.72 4.58
3 -1 0 245.4 5.5
-3 1 0 240.19 4.71
2 -1 0 1071.58 12.34
-2 1 0 1047.09 12.7
2 -1 0 1073.61 13.71
-1 1 0 173.95 2.92
1 -1 0 171.3 3.08
-1 -1 0 106.62 2.21
1 1 0 106.86 2.26
-2 -1 0 2.02 0.53
2 1 0 3.32 0.63
-2 -1 0 1.97 0.38
-3 -1 0 40.66 2.03
3 1 0 39.05 1.94
-3 -1 0 43.29 1.51
-4 -1 0 214.29 5.59
-4 -1 0 211.6 4.19
4 1 0 215.6 5.42
-5 -1 0 31.67 2.43
5 1 0 32.32 2.27
6 1 0 25.7 2.45
-6 -1 0 26.19 2.54
7 1 0 54.41 3.61
-7 -1 0 48.48 3.63
-8 -1 0 17.35 2.86
8 -2 0 21.58 3.19
7 -2 0 20.66 2.78
6 -2 0 85.01 4.42
5 -2 0 28.41 2.47
-5 2 0 27.83 2.13
4 -2 0 267.33 5.25
4 -2 0 268.6 6.68
-4 2 0 279.42 6.01
3 -2 0 787.47 9.99
3 -2 0 782.67 12.09
-3 2 0 780.44 11.14
-2 2 0 161.82 3.65
2 -2 0 164.04 2.64
2 -2 0 164.5 3.88
1 -2 0 2571.16 28.95
-1 2 0 2602.25 27.79
0 -2 0 70.11 1.95
0 2 0 72.12 1.57
0 -2 0 72.63 1.83
1 2 0 9638.73 100.85
-1 -2 0 9540.91 106.45
-1 -2 0 9998.02 100.66
-2 -2 0 52.9 1.46
-2 -2 0 54.49 2.05
2 2 0 49.88 2.04
-3 -2 0 97.53 3.23
-3 -2 0 102.03 2.36
3 2 0 97.73 3.31
-4 -2 0 20.74 1.29
-4 -2 0 20.58 1.83
4 2 0 18.69 1.82
5 2 0 42.72 2.74
-5 -2 0 42.13 2.74
6 2 0 15.19 2.1
-6 -2 0 19.4 2.33
7 2 0 20.48 2.64
-7 -2 0 24.91 2.91
8 2 0 28.11 3.2
-8 -2 0 22.46 3.06
8 -3 0 2.38 1.84
7 -3 0 15.98 2.52
-6 3 0 67.38 3.58
6 -3 0 63.72 3.95
-5 3 0 86.67 3.77
5 -3 0 90.03 4.23
4 -3 0 140.71 4.83
-4 3 0 141.25 4.43
3 -3 0 2.02 0.83
-3 3 0 1.75 0.74
3 -3 0 2.2 0.42
-2 3 0 317.86 5.98
2 -3 0 309.76 6.17
1 -3 0 64.33 2.31
-1 3 0 62.69 2.2
0 3 0 75.24 1.88
0 -3 0 69.36 2.19
0 -3 0 76.16 2.44
-1 -3 0 1634.59 18.19
-1 -3 0 1602.6 19.76
1 3 0 1619.31 18.93
-2 -3 0 74.88 2.01
2 3 0 72.83 2.7
-2 -3 0 75.06 2.69
3 3 0 210.24 5.35
-3 -3 0 211.22 3.84
-3 -3 0 214.11 5.21
4 3 0 39.9 2.52
-4 -3 0 36.61 2.4
5 3 0 46.7 2.98
-5 -3 0 40.75 2.77
6 3 0 13.3 2.14
-6 -3 0 16.83 2.28
-7 -3 0 24.11 2.89
7 3 0 21.67 2.86
-8 -3 0 10.75 2.47
8 3 0 5.47 2.03
8 -4 0 1.66 1.79
7 -4 0 32.91 3.45
-6 4 0 93.73 4.39
6 -4 0 92.64 4.95
5 -4 0 60.09 3.61
-5 4 0 64.26 3.38
4 -4 0 11.01 1.67
-4 4 0 9.34 1.5
-3 4 0 125.31 4.1
3 -4 0 138.18 4.48
2 -4 0 252.91 5.84
-2 4 0 260.38 5.7
1 -4 0 55.87 2.44
-1 4 0 58.17 2.37
-1 4 0 56.04 1.39
0 4 0 14.06 1.01
0 -4 0 13 1.18
0 -4 0 13.05 1.26
-1 -4 0 483.76 8.45
-1 -4 0 479.54 7.35
1 4 0 475.16 7.66
-2 -4 0 1300.02 17.77
-2 -4 0 1311.58 15.63
2 4 0 1322.41 17.4
-3 -4 0 7.99 1.28
3 4 0 10.02 1.45
-3 -4 0 7.11 0.85
4 4 0 34.49 2.48
-4 -4 0 36.71 2.53
5 4 0 88.75 4.32
-5 -4 0 90.99 4.11
-6 -4 0 -0.81 0.7
6 4 0 -0.49 0.82
-7 -4 0 11.89 2.21
7 4 0 16.51 2.73
7 -5 0 14.29 2.63
6 -5 0 25.98 2.92
-6 5 0 23.01 2.53
-5 5 0 11.84 1.86
5 -5 0 12.77 2.15
-4 5 0 11.33 1.68
4 -5 0 6.52 1.5
-3 5 0 55.3 2.96
3 -5 0 56.33 3.04
2 -5 0 33.77 2.26
-2 5 0 34.44 2.15
-1 5 0 1085.23 12.33
1 -5 0 1030.06 15.3
-1 5 0 1059.88 14.87
0 5 0 55.99 2.04
0 -5 0 58.79 2.7
0 -5 0 60.28 2.59
-1 -5 0 44.13 2.14
-1 -5 0 43.25 2.52
1 5 0 45.85 2.21
-2 -5 0 82.29 2.75
-2 -5 0 80.04 3.45
2 5 0 82.9 3.33
3 5 0 26.16 2.24
-3 -5 0 29.69 2.28
4 5 0 104.76 4.48
-4 -5 0 95.6 4.2
5 5 0 5.21 1.5
-5 -5 0 4.96 1.54
6 5 0 10.56 2.17
-6 -5 0 4.78 1.57
7 5 0 11.92 2.51
-7 -5 0 13.61 2.49
-7 6 0 4.79 1.53
7 -6 0 4.3 1.85
-6 6 0 14.42 2.25
6 -6 0 9.67 2.25
-5 6 0 93.96 4.57
5 -6 0 91.28 4.82
-4 6 0 15.28 2.01
4 -6 0 15.49 2.14
-3 6 0 197.34 5.95
3 -6 0 197.37 6.21
-2 6 0 59.84 3.05
2 -6 0 68.48 3.38
1 -6 0 169.55 5.22
-1 6 0 170.93 5.02
0 6 0 28.97 1.96
0 -6 0 31.35 2.27
0 6 0 34.19 1.79
-1 -6 0 26.95 2.24
-1 -6 0 24.07 1.84
1 6 0 23.37 1.79
-2 -6 0 258.6 7.01
2 6 0 265.73 6.49
-2 -6 0 265.54 5.77
3 6 0 77.61 3.7
-3 -6 0 74.82 3.8
-4 -6 0 0.96 1.1
4 6 0 0.28 0.8
-5 -6 0 45.77 3.43
5 6 0 47 3.42
6 6 0 42.77 3.8
-6 -6 0 38.55 3.54
7 6 0 1.77 1.7
7 -7 0 13.51 2.87
-7 7 0 17.63 2.82
6 -7 0 14.24 2.59
-6 7 0 9.44 2.07
-5 7 0 80.03 4.47
5 -7 0 78.71 4.75
-4 7 0 16.61 2.27
4 -7 0 15.72 2.32
-3 7 0 9.49 1.71
3 -7 0 8.48 1.73
2 -7 0 -0.24 0.74
-2 7 0 -0.25 0.73
1 -7 0 6.83 1.5
-1 7 0 5.71 1.35
0 -7 0 283.29 7.27
0 7 0 287.83 5.79
0 7 0 275.49 6.72
1 7 0 121.61 4.04
-1 -7 0 127.4 4.83
2 7 0 19.59 2.06
-2 -7 0 19.9 1.85
-2 -7 0 22.48 2.45
-3 -7 0 19.52 2.39
3 7 0 16.4 2.05
4 7 0 33.27 3.03
-4 -7 0 33.45 3.09
5 7 0 38.53 3.45
-5 -7 0 45.57 3.58
-6 -7 0 25.08 3.19
6 7 0 26.95 3.34
6 -8 0 8.1 2.51
-6 8 0 8.5 2.2
-5 8 0 30.71 3.2
5 -8 0 20.36 2.91
4 -8 0 34.52 3.28
-4 8 0 34.2 3.2
-3 8 0 7.56 1.73
3 -8 0 4.4 1.47
-2 8 0 75.46 4.08
2 -8 0 83.02 4.25
1 -8 0 17.69 2.23
-1 8 0 18.13 2.1
0 8 0 75.84 3.69
0 -8 0 69.01 3.79
1 8 0 16.45 1.79
1 8 0 13.75 1.73
-1 -8 0 18.9 2.25
2 8 0 150.88 5.17
-2 -8 0 142.02 5.69
3 8 0 79.68 4.17
-3 -8 0 85.86 4.73
-4 -8 0 18.93 2.75
4 8 0 19.05 2.52
-5 -8 0 17.53 2.86
5 8 0 12.59 2.48
6 8 0 3.93 1.99
5 -9 0 8.01 2.17
-5 9 0 7.81 2.04
-4 9 0 63.79 4.29
4 -9 0 62.97 4.4
-3 9 0 0.09 1.16
3 -9 0 1.84 1.37
-2 9 0 22.9 2.75
2 -9 0 24.5 2.77
1 -9 0 2.19 1.33
-1 9 0 0.96 1.05
0 9 0 6.18 1.57
0 -9 0 4.37 1.47
1 9 0 114.66 4.68
-1 -9 0 126.79 5.43
2 9 0 71.76 3.75
-2 -9 0 71.55 4.32
3 9 0 27.89 2.76
-3 -9 0 32.47 3.3
4 9 0 7.08 1.89
-4 -9 0 9.58 2.47
5 9 0 0.21 1.29
-5 10 0 2.32 2.07
5 -10 0 3.8 1.89
-4 10 0 19.08 3.06
4 -10 0 20.83 3.13
-3 10 0 15.63 2.74
3 -10 0 17.97 2.79
-2 10 0 5.83 1.88
2 -10 0 4.05 1.6
1 -10 0 49.27 3.74
-1 10 0 48.74 3.62
0 10 0 24.37 2.68
0 -10 0 28.91 3.05
-1 -10 0 8.63 1.94
-2 -10 0 5.22 1.77
-3 -10 0 17.51 2.76
3 10 0 14.82 2.35
4 10 0 0.67 1.25
4 -11 0 9.27 2.52
-3 11 0 31.32 3.7
3 -11 0 33.26 3.71
2 -11 0 7.02 2.26
-2 11 0 6.63 2.16
-1 11 0 14.83 2.62
1 -11 0 19.21 2.96
0 11 0 -0.4 1.25
0 -11 0 -0.41 1.24
-1 -11 0 1.2 1.58
-2 -11 0 1.45 1.68
-2 12 0 2.77 2.11
2 -12 0 2.84 1.94
1 -12 0 3.63 1.85
-1 12 0 0.89 1.75
0 -12 0 9.13 2.38
-1 12 -1 2.93 2.04
0 -11 1 8.45 2.18
0 11 -1 9.43 2.23
1 -11 1 4.06 1.74
-1 11 -1 3.91 1.79
-2 11 -1 10.32 2.49
2 -11 1 17.82 2.83
-3 11 -1 1.91 1.87
3 -11 1 4.11 1.83
4 10 -1 1.65 1.44
3 10 -1 15.28 2.42
-1 -10 1 1.03 1.34
0 -10 1 59.3 4
0 10 -1 67.3 4.1
1 -10 1 21.5 2.77
-1 10 -1 22.59 2.85
-2 10 -1 9.37 2.26
2 -10 1 11.1 2.31
3 -10 1 1.24 1.39
-3 10 -1 0.27 1.41
4 -10 1 20.47 3.03
-4 10 -1 19.64 3.1
5 -10 1 8.22 2.46
5 9 -1 0.51 1.52
4 9 -1 8.03 1.99
3 9 -1 31 3.01
2 9 -1 16.75 2.14
-2 -9 1 16.99 2.44
1 9 -1 10.8 1.85
-1 -9 1 11.19 2.02
0 -9 1 90.14 4.52
0 9 -1 90.4 4.4
-1 9 -1 8.98 1.99
1 -9 1 12.56 2.15
-2 9 -1 19.29 2.56
2 -9 1 17.65 2.38
-3 9 -1 11.94 2.31
3 -9 1 8.45 1.98
-4 9 -1 19.88 2.84
4 -9 1 22.55 2.95
-5 9 -1 19.44 2.94
5 -9 1 13.51 2.68
6 8 -1 3.85 1.98
5 8 -1 10.42 2.27
4 8 -1 4.51 1.51
3 8 -1 147.3 5.74
-3 -8 1 153.03 6.08
2 8 -1 234.7 6.8
-2 -8 1 241.15 7.29
-1 -8 1 1.86 0.96
1 8 -1 3.92 1.26
-1 -8 1 4.9 1.47
0 -8 1 0.51 0.99
0 8 -1 -0.23 0.79
-1 8 -1 60.32 3.56
1 -8 1 68.93 3.8
-2 8 -1 18.11 2.36
2 -8 1 20.73 2.35
-3 8 -1 9.07 2
3 -8 1 8.52 1.88
-4 8 -1 4.21 1.51
4 -8 1 3.17 1.36
5 -8 1 26.57 3.21
-5 8 -1 33.09 3.34
6 -8 1 8.82 2.5
-6 8 -1 7.86 1.93
6 7 -1 16.85 2.81
5 7 -1 12.88 2.26
4 7 -1 65.55 3.98
-4 -7 1 68.69 4.15
3 7 -1 64.52 3.7
-3 -7 1 61.07 3.78
2 7 -1 87.44 3.84
-2 -7 1 89.95 3.71
-2 -7 1 87.12 4.06
-1 -7 1 18.01 2.02
-1 -7 1 15.99 1.86
1 7 -1 21.16 1.93
0 7 -1 5.06 1.09
0 -7 1 2.4 1.05
0 -7 1 4.03 1.27
1 -7 1 144.71 5.08
-1 7 -1 150.38 5.11
-2 7 -1 7.77 1.58
2 -7 1 7.65 1.57
-3 7 -1 13.1 1.96
3 -7 1 13.29 1.98
4 -7 1 58.12 3.8
-4 7 -1 53.24 3.47
5 -7 1 84.65 4.85
-5 7 -1 76.43 4.41
6 -7 1 27.91 3.33
-6 7 -1 37.86 3.45
-7 7 -1 1.14 1.32
7 -7 1 2.32 1.78
7 6 -1 15.18 2.96
6 6 -1 44.7 3.97
5 6 -1 59.19 3.94
-5 -6 1 61.32 3.93
4 6 -1 0.87 0.94
-4 -6 1 -1.02 0.9
3 6 -1 117.99 4.65
-3 -6 1 112.95 4.67
-2 -6 1 570.17 10.97
-2 -6 1 579.63 9.67
2 6 -1 556.51 10.48
-1 -6 1 351.69 7.69
1 6 -1 353.82 7.18
-1 -6 1 346.47 7.27
0 -6 1 34.91 2.34
0 6 -1 32.53 1.89
0 -6 1 33.77 2.24
-1 6 -1 13.29 1.61
-1 6 -1 13.63 1.15
1 -6 1 15.97 1.73
-2 6 -1 41.58 2.68
2 -6 1 44.58 2.79
3 -6 1 49.5 3.04
-3 6 -1 54.67 3.12
4 -6 1 5.36 1.41
-4 6 -1 7.9 1.57
5 -6 1 84.87 4.67
-5 6 -1 86.14 4.36
6 -6 1 17.33 2.74
-6 6 -1 15.39 2.34
7 -6 1 3.62 1.98
-7 6 -1 6.28 1.76
7 5 -1 36.38 3.86
-6 -5 1 14.51 2.35
6 5 -1 10.74 2.23
5 5 -1 2.51 1.19
-5 -5 1 3.18 1.43
-4 -5 1 7.27 1.54
4 5 -1 5.76 1.48
3 5 -1 60.63 3.26
-3 -5 1 58.57 2.47
-3 -5 1 53.51 2.98
-2 -5 1 225.38 5.11
2 5 -1 240.76 5.99
-2 -5 1 223.92 5.84
-1 -5 1 584.99 10.04
1 5 -1 595.28 9.59
-1 -5 1 584.84 9.4
0 -5 1 2.99 0.87
0 -5 1 1.78 0.79
0 5 -1 2.27 0.71
-1 5 -1 38.7 1.56
1 -5 1 41.31 2.35
1 -5 1 39.92 2.26
-2 5 -1 174.09 5.03
2 -5 1 179.59 5.09
-3 5 -1 18.15 1.86
3 -5 1 18.87 1.99
-4 5 -1 0.57 0.74
4 -5 1 2.04 1.03
-5 5 -1 44.08 2.99
5 -5 1 47.35 3.34
-6 5 -1 41.36 3.11
6 -5 1 39.8 3.54
7 -5 1 59.84 4.42
-7 -4 1 3.11 1.56
7 4 -1 4.47 1.73
-6 -4 1 8.47 1.79
6 4 -1 6.22 1.74
-5 -4 1 165.49 5.6
5 4 -1 162.72 6.03
4 4 -1 49.17 3.06
-4 -4 1 55.44 3.03
-3 -4 1 -0.07 0.6
3 4 -1 0.47 0.72
-3 -4 1 1.35 0.8
-2 -4 1 551.78 9.32
2 4 -1 555.58 9.51
-2 -4 1 550.96 8.35
1 4 -1 2128.75 24.78
-1 -4 1 2075.87 25.61
-1 -4 1 2114.02 24.26
0 -4 1 762.87 11.16
0 -4 1 774.56 11.06
0 4 -1 784.66 10.29
-1 4 -1 376.42 5.45
1 -4 1 375.34 6.97
1 -4 1 391.72 7.21
2 -4 1 179.9 4.72
-2 4 -1 181.97 4.74
-3 4 -1 7.49 1.27
3 -4 1 5.44 1.16
4 -4 1 11.2 1.7
-4 4 -1 14.43 1.7
5 -4 1 9.33 1.78
-5 4 -1 6.46 1.34
6 -4 1 126.72 5.8
-6 4 -1 123.05 4.95
7 -4 1 16.44 2.7
8 -4 1 14.08 2.98
8 3 -1 1.87 1.74
7 3 -1 19.02 2.74
-7 -3 1 17.37 2.57
-6 -3 1 65.19 3.84
6 3 -1 66.53 3.99
5 3 -1 23.77 2.41
-5 -3 1 21.69 2.19
4 3 -1 9.39 1.56
-4 -3 1 8.86 1.38
-3 -3 1 44.41 1.89
3 3 -1 44.61 2.46
-3 -3 1 37.78 2.12
-2 -3 1 11.86 1.14
2 3 -1 13.64 1.37
-2 -3 1 10.32 0.95
-1 -3 1 2051.27 24.24
1 3 -1 2084.14 23.75
-1 -3 1 2050.3 22.99
0 3 -1 753.02 9.55
0 -3 1 756.69 10.13
0 -3 1 747.29 10.19
1 -3 1 161.93 3.87
1 -3 1 159.26 3.68
-1 3 -1 163.44 2.8
-2 3 -1 3 0.73
2 -3 1 2.52 0.69
-3 3 -1 1.01 0.64
3 -3 1 0.74 0.35
3 -3 1 -0.55 0.42
4 -3 1 40.31 2.57
-4 3 -1 38.38 2.31
-5 3 -1 2.64 1.07
5 -3 1 2.09 1.08
-6 3 -1 131.11 4.85
6 -3 1 126.53 5.58
7 -3 1 26.87 3.08
8 -3 1 39.62 4.06
-8 -2 1 11.12 2.45
8 2 -1 12.38 2.51
-7 -2 1 35.83 3.24
7 2 -1 35.57 3.33
-6 -2 1 9.12 1.82
6 2 -1 9.84 1.8
-5 -2 1 64.66 3.38
5 2 -1 63.29 3.38
4 2 -1 407.84 8.5
-4 -2 1 422.34 8.4
-4 -2 1 412.27 6.87
-3 -2 1 275.97 5.79
-3 -2 1 279.6 4.91
3 2 -1 273.78 6.09
-2 -2 1 2.05 0.5
-2 -2 1 1.85 0.55
2 2 -1 0.56 0.47
-1 -2 1 2050.57 23.3
-1 -2 1 2060.44 22.35
0 2 -1 2872.13 30.08
0 -2 1 2905.85 30.2
0 -2 1 2736.23 31.11
1 -2 1 51.21 1.82
1 -2 1 54.84 1.79
-1 2 -1 56.24 1.3
2 -2 1 822.43 9.71
-2 2 -1 822.57 10.89
2 -2 1 833.83 11.52
-3 2 -1 742.41 10.6
3 -2 1 742.75 11.57
3 -2 1 743.85 9.61
4 -2 1 39.97 1.86
4 -2 1 39.52 2.5
-4 2 -1 42.58 2.22
-5 2 -1 3.09 1.03
5 -2 1 5.19 1.27
6 -2 1 41.4 3.15
7 -2 1 34.57 3.36
8 -2 1 10.89 2.55
-8 -1 1 14.68 2.67
-7 -1 1 20.79 2.69
7 1 -1 17.55 2.43
-6 -1 1 65.58 3.67
6 1 -1 66.43 3.62
-5 -1 1 144.99 4.99
5 1 -1 136.13 4.8
4 1 -1 43.5 2.41
-4 -1 1 40.26 2.35
-4 -1 1 41.37 1.93
-3 -1 1 1.37 0.52
-3 -1 1 0.63 0.48
3 1 -1 2.35 0.73
-2 -1 1 164.99 3.15
-2 -1 1 154.88 3.45
2 1 -1 160.59 3.68
-1 -1 1 251.74 3.82
1 1 -1 257.26 4.21
-1 -1 1 253.62 3.83
0 -1 1 1001.4 11.39
0 1 -1 1016.42 11.37
1 -1 1 591.57 6.99
1 -1 1 592.72 7.65
1 -1 1 590.61 7.42
-2 1 -1 2034.75 22.21
2 -1 1 2051.47 22.19
2 -1 1 2012.98 23.78
3 -1 1 144.28 4.09
3 -1 1 148.64 3.42
-3 1 -1 145.01 3.4
-4 1 -1 79.09 2.72
4 -1 1 74.63 3.34
4 -1 1 79.13 2.8
5 -1 1 0.09 0.53
-5 1 -1 0.63 0.7
5 -1 1 0.16 0.56
6 -1 1 3.39 1.2
7 -1 1 37.02 3.46
-8 1 -1 10.15 2.35
-8 0 1 14.83 2.63
-7 0 1 18.84 2.64
6 0 -1 55.99 3.21
6 0 -1 54.34 3.47
5 0 -1 46.16 2.87
-5 0 1 42.24 2.31
5 0 -1 43.13 2.49
4 0 -1 59.11 2.84
4 0 -1 59.12 2.61
-4 0 1 60.83 2.42
3 0 -1 483.45 8.23
3 0 -1 488.54 7.85
-3 0 1 485.56 7.37
-2 0 1 123.6 2.76
2 0 -1 127.97 3.04
2 0 -1 125.24 2.92
1 0 -1 0.05 0.23
1 0 -1 0.2 0.26
-1 0 1 0.07 0.21
1 0 1 1001.95 11.25
1 0 1 978.16 11.63
2 0 1 36.05 1.41
-2 0 -1 36.29 1.16
2 0 1 34.46 1.55
3 0 1 480.55 7.64
3 0 1 480.71 8.26
-3 0 -1 487.5 6.76
4 0 1 135.21 4.4
-4 0 -1 140.01 3.34
4 0 1 137.09 3.97
5 0 1 -0.49 0.53
5 0 1 0 0.56
6 0 1 35.73 3.01
6 0 1 35.33 2.53
-7 0 -1 51.24 3.76
-8 0 -1 14.38 2.59
-8 1 1 20.08 2.99
7 -1 -1 25.73 3
6 -1 -1 52.91 3.45
5 -1 -1 60.81 2.79
-5 1 1 58.3 2.8
5 -1 -1 60.11 3.26
-4 1 1 188.77 4.67
4 -1 -1 184.91 5.29
4 -1 -1 191.81 4.61
3 -1 -1 247.73 5.46
-3 1 1 240.35 4.91
3 -1 -1 244.58 4.64
2 -1 -1 390.63 5.6
2 -1 -1 396.24 6.49
-2 1 1 393.68 6.12
1 -1 -1 2983.46 33.01
-1 1 1 3061.87 31.7
0 -1 -1 113 2.09
1 1 1 1071.99 12.28
-1 -1 -1 1054.49 12.68
2 1 1 65.49 2.11
-3 -1 -1 178.42 3
-3 -1 -1 178.01 4.47
3 1 1 170.18 4.19
4 1 1 97.33 3.52
-4 -1 -1 93.99 2.43
-4 -1 -1 93.36 3.61
-5 -1 -1 48.09 2.95
5 1 1 42.33 2.62
-6 -1 -1 44.28 3.15
6 1 1 41.84 2.83
-7 -1 -1 28.08 3.04
7 1 1 25.14 2.67
-8 -1 -1 6.36 1.93
8 -2 -1 10.28 2.54
7 -2 -1 4.27 1.58
-6 2 1 24.88 2.22
6 -2 -1 26.98 2.7
5 -2 -1 3.44 1.07
-5 2 1 2.5 0.98
4 -2 -1 177.81 4.1
-4 2 1 177.35 4.8
4 -2 -1 172.92 5.22
-3 2 1 270.74 5.61
3 -2 -1 265.55 5.96
3 -2 -1 269.83 4.56
2 -2 -1 1210.96 13.27
2 -2 -1 1172.98 15.38
-2 2 1 1185.95 14.82
1 -2 -1 86.59 2.37
-1 2 1 85.99 2.29
0 -2 -1 327.4 5.26
0 2 1 339.24 4.77
0 2 1 346.49 4.39
-1 -2 -1 68.34 2.12
1 2 1 68.23 1.92
-2 -2 -1 4.7 0.77
2 2 1 5.05 0.78
-3 -2 -1 232.77 5.32
3 2 1 238.65 5.31
-4 -2 -1 183.38 5.28
4 2 1 196.44 5.29
-5 -2 -1 174.04 5.69
5 2 1 171.08 5.52
-6 -2 -1 7.45 1.7
6 2 1 9.51 1.77
7 2 1 87.58 4.65
-7 -2 -1 86.17 4.8
8 2 1 23.46 3.03
-8 -2 -1 10.44 2.35
8 -3 -1 8.97 2.53
7 -3 -1 4.72 1.72
6 -3 -1 72.89 4.2
-6 3 1 63.61 3.46
-5 3 1 145.32 4.93
5 -3 -1 146.43 5.42
-4 3 1 485.36 9.14
4 -3 -1 472.66 9.74
3 -3 -1 111.03 3.86
3 -3 -1 119.47 2.39
-3 3 1 115.67 3.76
2 -3 -1 801.42 11.77
-2 3 1 799.34 11.38
1 -3 -1 -0.16 0.49
-1 3 1 -0.2 0.36
0 3 1 201.34 3.76
0 -3 -1 199.24 4.28
0 3 1 201.9 3.25
1 3 1 1294.46 15.36
-1 -3 -1 1256.26 16.36
-1 -3 -1 1278.26 14.39
-2 -3 -1 640.44 10.01
-2 -3 -1 658.8 7.81
2 3 1 651.28 9.83
-3 -3 -1 177.33 4.76
3 3 1 175.06 4.75
4 3 1 62.83 3.11
-4 -3 -1 64.6 3.14
-5 -3 -1 16.84 2.01
5 3 1 21.47 2.25
-6 -3 -1 5 1.46
6 3 1 6.16 1.63
-7 -3 -1 66.7 4.33
7 3 1 48.29 3.67
-8 -3 -1 6.49 2.06
8 3 1 4.22 1.86
7 -4 -1 33.46 3.53
-6 4 1 47.27 3.23
6 -4 -1 44.14 3.46
5 -4 -1 82.26 4.2
-5 4 1 77.74 3.8
4 -4 -1 8.2 1.5
-4 4 1 11.56 1.64
3 -4 -1 136.92 4.52
-3 4 1 132.38 4.26
-2 4 1 88.46 3.17
2 -4 -1 86.37 3.26
1 -4 -1 554.58 9.15
-1 4 1 544.38 8.66
0 4 1 464.82 7.27
0 4 1 468.85 6.47
0 -4 -1 459.37 8.06
-1 -4 -1 1198.28 16.51
1 4 1 1203.62 15.05
1 4 1 1201.12 14.34
-2 -4 -1 107.02 2.54
2 4 1 102.68 3.4
-2 -4 -1 108.76 3.7
-3 -4 -1 2.76 0.56
-3 -4 -1 4.23 1.07
3 4 1 2.3 0.95
4 4 1 79.65 3.63
-4 -4 -1 66.44 3.32
-5 -4 -1 114.61 4.7
5 4 1 104.93 4.64
6 4 1 4.98 1.54
-6 -4 -1 6.67 1.68
-7 -4 -1 4.54 1.8
7 4 1 4.26 1.66
-8 -4 -1 58.22 4.36
8 4 1 56.89 4.64
7 -5 -1 20.12 3.05
-7 5 1 17.13 2.48
-6 5 1 0.58 0.79
6 -5 -1 -0.24 0.83
5 -5 -1 79.61 4.36
-5 5 1 81.09 4.04
-4 5 1 80 3.77
4 -5 -1 77.37 3.9
3 -5 -1 424.93 9.08
-3 5 1 422.44 8.78
-2 5 1 62.74 2.88
2 -5 -1 67.12 3.11
-1 5 1 7.99 1.15
1 -5 -1 8.84 1.29
0 5 1 2.51 0.7
0 5 1 3.33 0.65
0 -5 -1 3.65 1.03
-1 -5 -1 168.53 4.94
1 5 1 167.89 3.92
1 5 1 168.4 4.16
-2 -5 -1 135.36 3.35
2 5 1 138.15 4.21
-2 -5 -1 130.42 4.47
3 5 1 231.16 6.21
-3 -5 -1 240.94 6.44
-4 -5 -1 109.15 4.47
4 5 1 110.07 4.5
-5 -5 -1 1.56 1.12
5 5 1 0.78 0.95
-6 -5 -1 11.37 2.17
6 5 1 6.47 1.72
7 5 1 0.33 1.31
-7 -5 -1 -0.14 1.3
-7 6 1 13.56 2.47
7 -6 -1 15.16 3.01
-6 6 1 14.71 2.3
6 -6 -1 14.7 2.5
5 -6 -1 61.44 3.94
-5 6 1 46.47 3.33
4 -6 -1 52.62 3.51
-4 6 1 57.97 3.38
-3 6 1 66.88 3.4
3 -6 -1 54.55 3.33
-2 6 1 124.44 4.42
2 -6 -1 134.03 4.75
-1 6 1 25.78 2.01
1 -6 -1 24.56 2.12
0 -6 -1 72.61 3.39
0 6 1 82.02 3.13
0 6 1 73.51 2.43
1 6 1 52.63 2.37
1 6 1 49.11 2.38
-1 -6 -1 55.73 3.11
-2 -6 -1 563.13 11.16
2 6 1 573.56 10.22
3 6 1 19.68 2.01
-3 -6 -1 18.59 2.18
-4 -6 -1 0.01 0.96
4 6 1 0.05 0.73
-5 -6 -1 60.19 3.93
5 6 1 66.07 3.99
6 6 1 41.36 3.76
-6 -6 -1 47.34 3.69
-7 -6 -1 5.24 2.09
7 6 1 2.57 1.81
-7 7 1 0.77 1.64
6 -7 -1 6.45 2
-6 7 1 3.23 1.55
-5 7 1 1.49 1.2
5 -7 -1 1.29 1.29
4 -7 -1 155.03 6.16
-4 7 1 152.39 5.86
3 -7 -1 69.52 3.88
-3 7 1 71.54 3.79
-2 7 1 217.24 6.35
2 -7 -1 200.52 6.38
1 -7 -1 4.29 1.39
-1 7 1 5.07 1.25
0 -7 -1 13.53 1.84
0 7 1 10.3 1.47
1 7 1 20.38 1.77
-1 -7 -1 20.43 2.24
1 7 1 20.16 1.76
-2 -7 -1 9.2 1.84
2 7 1 10.45 1.6
3 7 1 19.36 2.14
-3 -7 -1 18.53 2.35
-4 -7 -1 131.13 5.73
4 7 1 129.79 5.38
-5 -7 -1 52.53 3.84
5 7 1 63.54 4.14
-6 -7 -1 26.04 3.27
6 7 1 29.71 3.46
-7 -7 -1 1.7 2.04
6 -8 -1 18.79 3.17
-6 8 1 17.67 2.85
5 -8 -1 15.76 2.65
-5 8 1 12.51 2.32
4 -8 -1 45.5 3.8
-4 8 1 44.53 3.57
3 -8 -1 29.8 2.93
-3 8 1 26.1 2.74
-2 8 1 41.49 3.03
2 -8 -1 37.54 3.15
-1 8 1 42.79 2.95
1 -8 -1 49.57 3.36
0 -8 -1 0.85 0.99
0 8 1 0.91 0.9
1 8 1 2.39 0.92
-1 -8 -1 -0.07 0.95
1 8 1 0.57 0.9
2 8 1 91.04 3.88
-2 -8 -1 86.04 4.48
-3 -8 -1 153.82 6.27
3 8 1 139.27 5.33
-4 -8 -1 29.64 3.18
4 8 1 28.23 2.91
5 8 1 10.73 2.2
-5 -8 -1 11.35 2.59
6 8 1 21.19 3.21
-6 -8 -1 20.02 3.17
5 -9 -1 0.58 1.26
-5 9 1 -0.32 1.2
4 -9 -1 0.12 1.19
-4 9 1 1.81 1.38
3 -9 -1 76.54 4.64
-3 9 1 81.11 4.65
2 -9 -1 55.76 3.91
-2 9 1 56.69 3.73
1 -9 -1 18.38 2.5
-1 9 1 18.39 2.33
0 -9 -1 10.09 2
0 9 1 8.77 1.7
-1 -9 -1 70.05 4.21
1 9 1 71.03 3.59
-2 -9 -1 35.72 3.32
2 9 1 33.62 2.54
-3 -9 -1 15.49 2.55
3 9 1 16.76 2.26
-4 -9 -1 11.82 2.67
4 9 1 13.51 2.35
-5 -9 -1 5.09 2.34
5 9 1 1.41 1.5
5 -10 -1 2.48 1.82
-5 10 1 4.17 2.13
-4 10 1 6.7 2.25
4 -10 -1 8.47 2.3
-3 10 1 26.14 3.2
3 -10 -1 25.99 3.19
-2 10 1 6.17 1.96
2 -10 -1 9.65 2.2
1 -10 -1 29.8 3.16
-1 10 1 26.85 2.97
0 -10 -1 46.99 3.71
0 10 1 43.52 3.36
-1 -10 -1 3.28 1.61
-2 -10 -1 15.5 2.62
-3 -10 -1 13.27 2.64
3 10 1 15.33 2.31
4 10 1 2.54 1.48
-4 -10 -1 3.24 1.88
4 -11 -1 -1.64 1.4
3 -11 -1 1.84 1.71
-3 11 1 0.4 1.66
2 -11 -1 61.02 4.61
-2 11 1 69.94 4.71
1 -11 -1 31.07 3.45
-1 11 1 25.5 3.1
0 11 1 3.81 1.73
0 -11 -1 3.3 1.52
-1 -11 -1 10.76 2.46
-2 -11 -1 2.71 1.75
-3 -11 -1 9.31 2.41
2 -12 -1 12.09 2.82
-2 12 1 17.21 3.06
1 -12 -1 6.66 2.37
-1 12 1 7.59 2.18
0 -12 -1 4.41 2.05
-1 -12 -1 2.27 1.74
-2 -12 -1 1.26 1.91
0 11 -2 18.38 2.84
-1 11 -2 2.08 1.62
-2 11 -2 4.93 1.88
2 -11 2 3.15 1.73
-3 11 -2 5.57 2.15
3 -11 2 2.97 1.69
4 10 -2 1.03 1.63
3 10 -2 10.77 2.05
0 10 -2 29.92 3.04
-1 10 -2 22.55 2.9
1 -10 2 23.74 2.75
-2 10 -2 1.4 1.34
2 -10 2 2.09 1.35
3 -10 2 5.37 1.89
-3 10 -2 7.23 2.11
-4 10 -2 26.25 3.44
4 -10 2 28.88 3.46
5 9 -2 0.56 1.68
4 9 -2 1.1 1.21
3 9 -2 4.28 1.44
2 9 -2 23.22 2.53
-1 -9 2 81.89 4.27
0 9 -2 21.95 2.56
0 -9 2 19.69 2.36
1 -9 2 48.12 3.4
-1 9 -2 50.78 3.6
-2 9 -2 13.65 2.29
2 -9 2 19.89 2.52
3 -9 2 -0.53 0.92
-3 9 -2 1 1.17
-4 9 -2 8.03 2.03
4 -9 2 8.86 2.21
5 -9 2 1.41 1.55
-5 9 -2 -1.12 1.11
5 8 -2 8.91 2.14
4 8 -2 35.08 3.4
3 8 -2 1.1 1.1
-2 -8 2 133.95 4.97
2 8 -2 136.92 5.24
-1 -8 2 31.98 2.65
-1 -8 2 30.43 2.57
1 8 -2 30.69 2.33
0 -8 2 32.8 2.76
0 -8 2 28.51 2.51
-1 8 -2 101.82 4.66
1 -8 2 100.4 4.49
2 -8 2 8.7 1.74
-2 8 -2 6 1.65
-3 8 -2 0.66 1.14
3 -8 2 0.57 0.93
4 -8 2 0.04 1.02
-4 8 -2 0.7 1.05
5 -8 2 57.17 4.22
-5 8 -2 50.84 3.84
6 -8 2 24.16 3.33
-6 8 -2 19.4 2.97
6 7 -2 11.76 2.78
5 7 -2 8.62 2.03
4 7 -2 71.48 4.29
3 7 -2 4.73 1.41
-2 -7 2 12.13 1.86
2 7 -2 13.41 1.83
-2 -7 2 19.27 2
1 7 -2 65.18 3.24
-1 -7 2 72.14 3.52
-1 -7 2 74.96 3.59
0 -7 2 71.6 3.43
0 7 -2 79.43 3.2
0 -7 2 80.23 3.76
1 -7 2 76.42 3.64
1 -7 2 72.78 3.75
2 -7 2 32.59 2.62
-2 7 -2 34.21 2.76
3 -7 2 22.88 2.42
-3 7 -2 26.97 2.64
-4 7 -2 7.6 1.72
4 -7 2 6.32 1.65
-5 7 -2 28.41 2.97
5 -7 2 30.55 3.19
-6 7 -2 0.8 1.19
6 -7 2 0.62 1.34
7 -7 2 29.2 3.9
6 6 -2 10.89 2.4
5 6 -2 43.11 3.66
4 6 -2 17.38 2.32
3 6 -2 103.93 4.53
-3 -6 2 107.78 4.5
-2 -6 2 4.4 1.32
2 6 -2 4.63 1.26
-2 -6 2 3.7 1.11
1 6 -2 138.37 4.4
-1 -6 2 139.8 4.49
-1 -6 2 134.75 4.44
0 -6 2 5.3 1.27
0 6 -2 3.78 0.99
0 -6 2 5.95 1.21
-1 6 -2 87.14 2.81
1 -6 2 87.35 3.56
1 -6 2 92.72 3.95
-2 6 -2 259.03 6.89
2 -6 2 260.97 6.7
-3 6 -2 41.51 2.8
3 -6 2 43.26 2.9
-4 6 -2 0.95 0.86
4 -6 2 1.23 0.88
5 -6 2 19.87 2.6
-5 6 -2 20.02 2.32
6 -6 2 29.7 3.24
-6 6 -2 26.77 2.81
-7 6 -2 12.18 2.22
7 -6 2 8.63 2.53
7 5 -2 24.09 3.4
6 5 -2 63.83 4.4
5 5 -2 6.6 1.69
4 5 -2 3.65 1.23
-4 -5 2 6.6 1.5
3 5 -2 153.12 5.31
-3 -5 2 168.7 5.13
-3 -5 2 168.56 4.57
-2 -5 2 43.51 2.55
-2 -5 2 40.83 2.25
2 5 -2 35.21 2.37
1 5 -2 123 3.95
-1 -5 2 123.78 3.94
-1 -5 2 126.88 3.97
0 5 -2 38.65 1.98
0 -5 2 37.88 2.12
0 -5 2 39.55 2.31
1 -5 2 510.94 9.06
1 -5 2 512.18 9.46
-1 5 -2 513.64 7.74
-2 5 -2 208.59 5.66
-2 5 -2 208.92 3.95
2 -5 2 208.62 5.5
-3 5 -2 39.33 2.62
3 -5 2 40.78 2.62
-4 5 -2 108.99 4.36
4 -5 2 98.22 4.37
-5 5 -2 4.7 1.26
5 -5 2 5.19 1.51
6 -5 2 15.11 2.45
-6 5 -2 13.01 2.02
7 -5 2 3.43 1.78
7 4 -2 15.36 2.63
6 4 -2 36.53 3.39
5 4 -2 11.65 2.09
-5 -4 2 16.32 1.98
-4 -4 2 6.71 1.38
4 4 -2 8.44 1.7
-3 -4 2 64.97 2.7
3 4 -2 62.18 3.21
-3 -4 2 57.81 2.78
2 4 -2 401.4 8.1
-2 -4 2 422.32 7.44
-2 -4 2 421.25 7.65
-1 -4 2 75.31 2.75
-1 -4 2 76.99 2.79
1 4 -2 80.41 2.92
0 -4 2 360.01 6.81
0 4 -2 358.85 6.23
0 -4 2 362.08 6.37
1 -4 2 4.89 1.01
-1 4 -2 3.31 0.67
1 -4 2 3.99 0.83
2 -4 2 256.87 5.83
2 -4 2 261.3 6.06
-2 4 -2 262.56 4.36
-3 4 -2 212.18 3.82
3 -4 2 216.1 5.75
-3 4 -2 213.91 5.56
-4 4 -2 8.8 1.49
4 -4 2 6.57 1.46
-5 4 -2 8.01 1.47
5 -4 2 7.76 1.64
-6 4 -2 66.68 3.63
6 -4 2 56.5 3.91
7 -4 2 10.57 2.34
8 -4 2 24.68 3.52
7 3 -2 1.91 1.39
6 3 -2 44.94 3.38
-6 -3 2 51.25 3.4
5 3 -2 120.05 5.05
-5 -3 2 124.65 4.73
4 3 -2 13.23 1.78
-4 -3 2 13.14 1.37
-4 -3 2 13.3 1.56
-3 -3 2 43.24 2.21
3 3 -2 36.65 2.36
-3 -3 2 46.52 2.16
-2 -3 2 637.33 9.27
-2 -3 2 616.51 9.36
2 3 -2 625.6 10.22
1 3 -2 20.51 1.43
-1 -3 2 18.79 1.27
-1 -3 2 19.09 1.36
0 -3 2 245.67 4.4
0 3 -2 241.67 4.5
0 -3 2 236.75 4.83
-1 3 -2 64.69 1.89
1 -3 2 59.51 2.12
1 -3 2 59.09 2.31
-2 3 -2 361.19 5.25
2 -3 2 351.92 6.58
2 -3 2 345.13 6.66
3 -3 2 0.72 0.58
3 -3 2 0.45 0.35
-3 3 -2 1.72 0.71
-4 3 -2 24.25 1.91
4 -3 2 24.89 2.16
-5 3 -2 186.62 5.46
5 -3 2 183.49 6.24
-6 3 -2 118.34 4.5
6 -3 2 116.81 5.39
7 -3 2 10.64 2.13
8 -3 2 3.2 1.67
-7 -2 2 10.57 2.08
6 2 -2 26.27 2.7
-6 -2 2 31.84 2.75
5 2 -2 205.23 6.34
-5 -2 2 194.27 5.9
-4 -2 2 0.91 0.73
-4 -2 2 0.1 0.61
4 2 -2 0.01 0.73
-3 -2 2 5.15 0.85
3 2 -2 3.67 0.98
-3 -2 2 4.12 0.82
-2 -2 2 162.99 3.61
2 2 -2 159.21 4.13
-2 -2 2 159.05 3.63
-1 -2 2 875.12 10.81
1 2 -2 874.08 11.53
-1 -2 2 855.78 11.06
0 2 -2 1069.96 12.87
0 -2 2 1070.74 13.13
0 -2 2 1068.69 12.57
-1 2 -2 48.2 1.5
1 -2 2 48.36 1.86
1 -2 2 50.93 1.7
2 -2 2 93.18 2.22
2 -2 2 90.15 2.75
2 -2 2 88.36 2.73
3 -2 2 295.64 5.07
-3 2 -2 287.82 5.61
3 -2 2 290.47 6.25
-4 2 -2 203.59 4.87
4 -2 2 196.88 5.7
4 -2 2 196.2 4.45
-5 2 -2 2.68 1.03
5 -2 2 4.09 0.9
5 -2 2 1.26 0.95
6 -2 2 80.52 4.36
7 -2 2 36.68 3.45
8 -2 2 1.03 1.42
7 1 -2 4.81 1.47
-7 -1 2 3.79 1.56
-6 -1 2 28.55 2.59
6 1 -2 28.46 2.68
-5 -1 2 139.29 4.89
5 1 -2 148.63 5.04
4 1 -2 370 7.78
-4 -1 2 363.86 7.54
-4 -1 2 358.98 6.72
-3 -1 2 1.41 0.6
3 1 -2 2.5 0.8
-2 -1 2 115.24 2.84
2 1 -2 114.05 3.2
-2 -1 2 121.58 2.98
-1 -1 2 271.85 3.95
1 1 -2 274.63 4.74
-1 -1 2 269.75 4.49
0 1 -2 446.78 6.07
0 -1 2 441.98 6.13
1 -1 2 718.35 8.76
1 -1 2 699.21 8.93
1 -1 2 728.15 9
2 -1 2 1335.13 15.43
2 -1 2 1322.93 15.51
2 -1 2 1332.69 16.53
3 -1 2 282.98 5.99
-3 1 -2 283.37 5.03
3 -1 2 282.95 5.14
4 -1 2 12.56 1.54
-4 1 -2 16.14 1.35
4 -1 2 14.66 1.32
5 -1 2 27.09 2.39
5 -1 2 28.41 1.96
-5 1 -2 32.77 2
6 -1 2 164.34 6.14
6 -1 2 161.52 5.19
7 -1 2 99.12 5.32
-8 1 -2 3.34 1.64
-8 0 2 16.51 2.75
-7 0 2 9.23 1.99
6 0 -2 81.38 3.87
6 0 -2 85.21 4.33
5 0 -2 96.4 4.07
5 0 -2 95.99 3.84
-5 0 2 97.14 3.56
4 0 -2 428.88 8.16
-4 0 2 434.99 7.78
4 0 -2 431.17 8.44
3 0 -2 203.54 4.66
3 0 -2 195.32 4.67
-3 0 2 209.25 4.52
2 0 -2 133.96 3.22
-2 0 2 132.21 3.18
2 0 -2 137.09 3.15
1 0 -2 76.08 1.69
1 0 -2 75.2 1.98
-1 0 2 75.69 2.02
0 0 -2 3810.95 39.99
0 0 2 3882.3 40.93
1 0 2 2292.08 25.08
1 0 2 2287 24.41
1 0 2 2230.89 23.92
2 0 2 176.57 3.55
2 0 2 178.1 3.81
-3 0 -2 504.04 6.77
3 0 2 492.71 7.83
3 0 2 487.37 8.43
4 0 2 18.99 1.55
4 0 2 11.83 1.47
-4 0 -2 18.67 1.23
5 0 2 28.72 2.05
5 0 2 26.15 2.36
6 0 2 25.32 2.28
6 0 2 25.13 2.61
-7 0 -2 107.21 5.39
-8 0 -2 18.06 2.87
-8 1 2 30.46 3.5
7 -1 -2 -0.22 1.14
6 -1 -2 25.42 2.57
5 -1 -2 18.25 1.75
-5 1 2 15.58 1.73
5 -1 -2 18.44 1.99
-4 1 2 271.58 6.04
4 -1 -2 268.96 5.76
4 -1 -2 262.57 6.45
3 -1 -2 65.52 2.67
-3 1 2 66.95 2.56
3 -1 -2 65.03 2.31
-2 1 2 187.38 4.01
2 -1 -2 190.62 4.02
2 -1 -2 190.14 3.62
1 -1 -2 1487.52 17.29
1 -1 -2 1512.23 16.59
-1 1 2 1510.24 17.06
0 -1 -2 82.48 1.84
0 1 2 85.81 1.76
0 1 2 84.28 1.83
1 1 2 1.42 0.39
-1 -1 -2 0.98 0.38
2 1 2 115.74 2.95
-3 -1 -2 873.7 9.87
3 1 2 879.51 12.24
-3 -1 -2 862.41 12.7
-4 -1 -2 54.8 1.64
4 1 2 54.41 2.61
-4 -1 -2 51.8 2.69
-5 -1 -2 6.05 1.32
5 1 2 6.15 1.3
-6 -1 -2 41.73 3.11
6 1 2 37.41 2.72
-7 -1 -2 160.07 6.57
7 1 2 165.97 6.14
-8 -1 -2 43.81 4.08
8 -2 -2 5.38 2.07
7 -2 -2 1.39 1.2
-6 2 2 12.11 1.76
6 -2 -2 12.12 2.01
-5 2 2 156.02 5.03
5 -2 -2 154.94 5.49
4 -2 -2 261.19 5.32
4 -2 -2 266.56 6.61
-4 2 2 270.44 6.27
3 -2 -2 1292.67 15.53
3 -2 -2 1304.95 17.7
-3 2 2 1306.06 16.98
2 -2 -2 123.06 2.45
-2 2 2 122.3 3.32
2 -2 -2 119.7 3.33
-1 2 2 5.71 0.74
1 -2 -2 3.02 0.64
1 -2 -2 5.36 0.45
0 2 2 176.94 2.88
0 -2 -2 173.53 3.57
0 2 2 178.91 3.19
-1 -2 -2 419.83 6.58
1 2 2 417.36 5.13
1 2 2 419.16 6.11
-2 -2 -2 324.96 5.92
2 2 2 320.83 5.77
3 2 2 184.83 4.65
-3 -2 -2 189.21 4.75
-4 -2 -2 292.88 6.93
4 2 2 304.78 6.85
-5 -2 -2 192.91 6.04
5 2 2 182.18 5.67
-6 -2 -2 1.45 1.11
6 2 2 0.37 0.8
-7 -2 -2 -1.55 0.91
7 2 2 0.51 1.06
-8 -2 -2 53.87 4.14
8 2 2 62.31 4.25
8 -3 -2 6.23 2.28
7 -3 -2 24.76 3.04
-6 3 2 4.22 1.35
6 -3 -2 4.1 1.39
5 -3 -2 119.66 4.88
-5 3 2 116.24 4.43
-4 3 2 168.25 5.1
4 -3 -2 172.91 5.48
3 -3 -2 399.77 8.04
-3 3 2 407.03 7.87
3 -3 -2 412.28 5.81
2 -3 -2 3.17 0.8
2 -3 -2 3.65 0.37
-2 3 2 3.85 0.84
-1 3 2 308.46 5.58
1 -3 -2 310.46 5.83
0 -3 -2 57.23 2.3
0 3 2 55.12 1.85
0 3 2 56.87 1.55
1 3 2 83.97 2.41
1 3 2 85.09 1.94
-2 -3 -2 3.77 0.82
2 3 2 4.03 0.83
-3 -3 -2 447.35 8.38
3 3 2 449.57 8.34
4 3 2 531.41 10.09
-4 -3 -2 524.75 10.12
5 3 2 25.04 2.39
-5 -3 -2 31.01 2.62
-6 -3 -2 23.97 2.64
6 3 2 25 2.61
7 3 2 19.32 2.69
-7 -3 -2 15.93 2.53
-8 -3 -2 50.64 4.32
8 3 2 44.79 4
7 -4 -2 15.4 2.69
-6 4 2 -0.68 0.8
6 -4 -2 -0.53 0.83
5 -4 -2 70.2 3.89
-5 4 2 64.48 3.55
-4 4 2 135.31 4.78
4 -4 -2 138.7 5
3 -4 -2 359.34 7.87
-3 4 2 360.16 7.64
2 -4 -2 204.18 5.23
-2 4 2 200.14 5.04
-1 4 2 10.44 1.13
1 -4 -2 12.26 1.33
0 4 2 41.02 1.44
0 -4 -2 35.55 2.04
0 4 2 41.77 1.8
1 4 2 14.38 1.2
-1 -4 -2 16.85 1.58
1 4 2 12.41 0.95
2 4 2 515.52 6.72
-2 -4 -2 517.06 9.3
2 4 2 520.4 8.77
3 4 2 107.21 3.88
-3 -4 -2 104.89 3.91
-4 -4 -2 41.79 2.71
4 4 2 45.46 2.8
-5 -4 -2 167.67 5.77
5 4 2 169.24 5.96
-6 -4 -2 42.88 3.24
6 4 2 41.54 3.38
-7 -4 -2 1.08 1.33
7 4 2 4.03 1.54
-8 -4 -2 11.22 2.6
8 4 2 6.25 2.28
7 -5 -2 48.02 4.23
-7 5 2 48.51 3.86
6 -5 -2 9.09 2.05
-6 5 2 5.99 1.72
-5 5 2 15.36 2.07
5 -5 -2 10.61 1.99
4 -5 -2 61.61 3.48
-4 5 2 50.94 3.07
3 -5 -2 90.42 3.95
-3 5 2 85.03 3.73
-2 5 2 133.84 4.34
2 -5 -2 137.24 4.54
-1 5 2 66.39 2.76
1 -5 -2 68.73 3.04
0 -5 -2 554.09 9.99
0 5 2 569.07 7.87
0 5 2 558.38 8.86
1 5 2 227.4 4.62
1 5 2 230.85 4.93
-1 -5 -2 230.15 6.02
2 5 2 1 0.44
2 5 2 1.36 0.71
-2 -5 -2 0.48 0.88
3 5 2 23.67 2.13
-3 -5 -2 23.63 2.22
4 5 2 156.9 5.49
-4 -5 -2 168.51 5.67
5 5 2 40.02 3.03
-5 -5 -2 36.99 3.07
-6 -5 -2 25.81 2.92
6 5 2 25.49 2.93
7 5 2 9.48 2.17
-7 -5 -2 7.87 2.2
7 -6 -2 12.95 2.79
-7 6 2 16.45 2.65
6 -6 -2 0.42 1.12
-6 6 2 1.13 1.04
-5 6 2 9.68 1.91
5 -6 -2 9.7 1.99
-4 6 2 61.27 3.52
4 -6 -2 57.73 3.57
3 -6 -2 245.23 7.04
-3 6 2 246.68 6.83
2 -6 -2 284.1 7.31
-2 6 2 301.76 7.19
1 -6 -2 90.56 3.84
-1 6 2 95.07 3.61
0 6 2 36.99 1.72
0 -6 -2 36.36 2.52
0 6 2 33.94 2.04
1 6 2 2.19 0.81
-1 -6 -2 1.65 1.13
1 6 2 1.55 0.62
2 6 2 127.32 4.26
-2 -6 -2 136.32 5.06
2 6 2 136.9 3.49
3 6 2 31.3 2.36
-3 -6 -2 36.41 2.79
-4 -6 -2 20.2 2.43
4 6 2 24.27 2.46
-5 -6 -2 12.79 2.2
5 6 2 15.3 2.29
-6 -6 -2 59.14 4.11
6 6 2 63.24 4.29
-7 -6 -2 20.91 3.03
7 6 2 27.92 3.5
-6 7 2 63.27 4.28
6 -7 -2 54.5 4.49
-5 7 2 10.6 2.12
5 -7 -2 9.02 2.01
4 -7 -2 3.88 1.26
-4 7 2 1.99 1.18
-3 7 2 72.03 3.83
3 -7 -2 64.45 3.8
-2 7 2 87.74 3.97
2 -7 -2 94.47 4.37
-1 7 2 0.59 0.74
1 -7 -2 -1.16 0.7
0 7 2 54.92 2.81
0 -7 -2 51.44 3.22
1 7 2 169.6 4.7
1 7 2 162.5 4.57
-1 -7 -2 172.62 5.83
-2 -7 -2 38.38 3.02
2 7 2 40.3 2.6
3 7 2 0.93 0.84
-3 -7 -2 1.64 1.17
4 7 2 78.27 4.17
-4 -7 -2 74.84 4.42
-5 -7 -2 42.21 3.61
5 7 2 40 3.47
-6 -7 -2 34.15 3.65
6 7 2 43.29 3.93
-7 -7 -2 6.89 2.53
7 7 2 7.53 2.25
6 -8 -2 40.06 4.2
-5 8 2 0.46 1.13
5 -8 -2 1.49 1.18
4 -8 -2 2.4 1.35
-4 8 2 0.21 0.94
3 -8 -2 44.38 3.47
-3 8 2 55.74 3.62
-2 8 2 113.21 4.82
2 -8 -2 100.78 4.86
1 -8 -2 66.25 3.9
-1 8 2 64.72 3.5
0 -8 -2 42.58 3.13
0 8 2 46.1 2.83
1 8 2 1.24 0.8
-1 -8 -2 1.94 1.3
2 8 2 52.45 2.99
-2 -8 -2 49.55 3.52
-3 -8 -2 76.39 4.56
3 8 2 78.5 3.97
4 8 2 43.05 3.43
-4 -8 -2 37.91 3.65
-5 -8 -2 34.28 3.61
5 8 2 41.87 3.69
6 8 2 0.93 1.31
-6 -8 -2 -0.3 1.39
-5 9 2 24.35 3.17
5 -9 -2 30.07 3.64
4 -9 -2 13.97 2.51
-4 9 2 12.34 2.49
3 -9 -2 4.87 1.66
-3 9 2 4.21 1.65
-2 9 2 60.84 3.84
2 -9 -2 71.21 4.37
-1 9 2 15.15 2.14
1 -9 -2 22.2 2.65
0 -9 -2 1.37 1.22
0 9 2 0.4 0.93
-1 -9 -2 88.59 4.77
-2 -9 -2 39.46 3.47
2 9 2 33.78 2.56
-3 -9 -2 57.77 4.23
3 9 2 55.22 3.5
4 9 2 5.17 1.6
-4 -9 -2 1.86 1.84
-5 -9 -2 16.2 3.09
5 9 2 13.76 2.54
4 -10 -2 1.34 1.49
-4 10 2 1 1.62
-3 10 2 0.79 1.2
3 -10 -2 -0.73 1.05
-2 10 2 26.9 3.08
2 -10 -2 25.31 3.07
1 -10 -2 45.84 3.92
-1 10 2 49.81 3.58
0 -10 -2 43.8 3.71
0 10 2 45.58 3.29
-1 -10 -2 32.22 3.33
-2 -10 -2 5.02 1.93
-3 -10 -2 8.21 2.31
4 10 2 2.13 1.34
-4 -10 -2 2.62 1.78
5 10 2 3.83 2.07
-5 -10 -2 8.32 2.78
3 -11 -2 3.88 2.07
-3 11 2 5.65 2.25
-2 11 2 20.39 2.97
2 -11 -2 22.8 3.22
1 -11 -2 38.8 3.89
-1 11 2 33.45 3.36
0 -11 -2 11.17 2.38
-1 -11 -2 3.8 1.79
-2 -11 -2 2.36 1.68
-3 -11 -2 1.69 1.78
-4 -11 -2 4 2.23
2 -12 -2 1.63 1.67
-2 12 2 0.34 1.8
-1 12 2 12.36 2.64
1 -12 -2 21.38 3.44
0 -12 -2 0.57 1.56
-1 -12 -2 4.42 2.05
-2 -12 -2 10.3 2.63
0 11 -3 6.93 2.07
-1 11 -3 1.81 1.76
-2 11 -3 6.92 2.51
-3 11 -3 2.35 1.9
3 10 -3 0.65 1.27
-1 -10 3 5.68 1.74
0 10 -3 5.81 1.97
-1 10 -3 34.19 3.42
-2 10 -3 15.46 2.66
-3 10 -3 10.58 2.42
3 -10 3 14.8 2.51
-4 10 -3 6.98 2.24
4 -10 3 6.91 2.07
4 9 -3 50.23 4.25
3 9 -3 0.6 1.06
2 9 -3 1.2 1.12
-1 -9 3 20.58 2.52
0 -9 3 49.13 3.56
1 -9 3 44.65 3.17
-1 9 -3 36.76 3.3
2 -9 3 2.92 1.3
-2 9 -3 2.46 1.49
3 -9 3 15.12 2.38
-3 9 -3 14.57 2.66
-4 9 -3 12.88 2.59
4 -9 3 13.86 2.45
5 -9 3 28.86 3.48
-5 9 -3 28.81 3.42
5 8 -3 4.82 2.05
4 8 -3 3.2 1.62
3 8 -3 26.72 2.91
-2 -8 3 11.24 1.83
2 8 -3 11.29 1.9
-1 -8 3 48.06 3.17
1 8 -3 55.11 3.19
0 -8 3 56.23 3.55
0 -8 3 62.96 3.44
1 -8 3 22.57 2.27
1 -8 3 22.6 2.58
-2 8 -3 39.7 3.27
2 -8 3 37.25 2.9
3 -8 3 11.39 2.05
-3 8 -3 11.74 2.24
-4 8 -3 5.29 1.6
4 -8 3 5.9 1.71
5 -8 3 19.39 2.9
-5 8 -3 21.32 2.92
6 -8 3 1.39 1.7
-6 8 -3 0.4 1.23
6 7 -3 13.18 2.94
5 7 -3 3.71 1.57
4 7 -3 13.26 2.3
3 7 -3 189.74 6.66
-2 -7 3 -0.77 0.72
2 7 -3 -0.12 0.8
-1 -7 3 50.16 2.87
1 7 -3 48.92 2.92
-1 -7 3 46.13 2.88
0 -7 3 23.1 2.06
0 -7 3 26.66 2.42
0 7 -3 26.36 2.12
1 -7 3 111.66 4.72
1 -7 3 106.82 4.19
2 -7 3 15.36 1.92
3 -7 3 27.83 2.57
-3 7 -3 28.68 2.8
-4 7 -3 32.7 2.98
4 -7 3 26.08 2.71
-5 7 -3 65.32 4.11
5 -7 3 56.08 4.04
6 -7 3 70.8 4.8
-6 7 -3 63.79 4.23
7 -7 3 -1.46 1.37
-7 7 -3 0.02 1.12
5 6 -3 28.78 3.27
4 6 -3 20.79 2.62
3 6 -3 29.24 2.72
-3 -6 3 32.5 2.42
2 6 -3 16.45 1.95
-2 -6 3 20.13 1.99
-1 -6 3 12.33 1.55
-1 -6 3 16.02 1.84
1 6 -3 17.93 1.9
0 -6 3 38.12 2.54
0 6 -3 32.69 2.14
0 -6 3 37.39 2.28
1 -6 3 77.83 3.28
1 -6 3 70.37 3.59
-1 6 -3 73.93 2.82
2 -6 3 54.81 2.99
2 -6 3 58.16 3.31
3 -6 3 109.87 4.46
-3 6 -3 115.79 4.69
-4 6 -3 16.11 2.11
4 -6 3 17.49 2.23
-5 6 -3 63.98 3.75
5 -6 3 63.69 4.06
6 -6 3 39.79 3.69
-6 6 -3 33.89 3.09
7 -6 3 12.56 2.64
6 5 -3 40.78 3.83
5 5 -3 25.15 2.95
4 5 -3 2.49 1.07
-3 -5 3 23.88 2.09
3 5 -3 23.6 2.35
2 5 -3 174.35 5.42
-2 -5 3 168.44 4.82
-2 -5 3 167.98 4.85
1 5 -3 6.47 1.26
-1 -5 3 8.59 1.31
-1 -5 3 8.41 1.21
0 5 -3 65.41 2.73
0 -5 3 67.37 3.06
0 -5 3 60.58 2.58
1 -5 3 575.83 9.53
1 -5 3 558.48 10.3
-1 5 -3 563.69 8.77
2 -5 3 442.42 9.18
2 -5 3 431.96 8.53
-2 5 -3 447.91 7.16
3 -5 3 52.28 2.95
-3 5 -3 53.59 3.03
4 -5 3 89.5 4.17
-4 5 -3 85.48 3.94
5 -5 3 0.5 0.94
-5 5 -3 0.65 0.82
-6 5 -3 59.58 3.61
6 -5 3 56.21 4.05
7 -5 3 39.83 4
7 4 -3 8.44 2.44
6 4 -3 4.29 1.72
5 4 -3 119.68 5.42
4 4 -3 12.24 1.95
3 4 -3 33.42 2.47
-3 -4 3 35.97 2.21
-3 -4 3 35.58 2.28
-2 -4 3 33.13 2.02
-2 -4 3 29.22 2.02
2 4 -3 26.93 2.15
-1 -4 3 27.09 1.87
-1 -4 3 34.65 1.85
1 4 -3 31.09 1.97
0 -4 3 443.24 8.11
0 4 -3 443.07 7.58
0 -4 3 451.66 7.28
1 -4 3 82 2.78
-1 4 -3 89.42 2.73
1 -4 3 87 3.29
2 -4 3 325.87 6.67
-2 4 -3 333.26 5.68
2 -4 3 334.31 7.17
-3 4 -3 22.21 1.94
3 -4 3 23.92 1.97
-3 4 -3 23.41 1.4
4 -4 3 21.38 2.14
-4 4 -3 19.33 1.95
5 -4 3 0.08 0.81
-5 4 -3 0.12 0.73
-6 4 -3 97.36 4.34
6 -4 3 97.14 5.02
7 -4 3 24.81 3.11
8 -4 3 0.49 1.56
7 3 -3 5.89 2.12
6 3 -3 29.05 3.03
5 3 -3 71.29 3.98
4 3 -3 20.59 2.21
-4 -3 3 21.93 1.85
-4 -3 3 22.78 1.89
-3 -3 3 23.56 1.77
-3 -3 3 24.6 1.69
3 3 -3 23.93 2.13
2 3 -3 332.37 7.02
-2 -3 3 318.8 5.85
-2 -3 3 318.51 6.31
-1 -3 3 286.92 5.78
-1 -3 3 288.16 5.08
1 3 -3 289.75 5.95
0 3 -3 37.25 1.81
0 -3 3 39.7 1.55
0 -3 3 41.86 2.01
-1 3 -3 45.37 1.82
1 -3 3 39.68 2.04
1 -3 3 42.7 1.75
-2 3 -3 1070.05 13.13
2 -3 3 1066 14.5
2 -3 3 1059.34 14.66
3 -3 3 195.02 5.18
3 -3 3 198.39 4.1
-3 3 -3 200.39 5.02
-4 3 -3 256.56 6
4 -3 3 252.53 5.12
4 -3 3 241.92 6.49
-5 3 -3 179.43 5.31
5 -3 3 174.62 6.06
6 -3 3 12.01 2.08
7 -3 3 38.56 3.63
8 -3 3 29.33 3.63
7 2 -3 0.99 1.31
6 2 -3 30.57 2.98
-5 -2 3 46.08 2.8
5 2 -3 42.12 2.95
4 2 -3 370.88 8.4
-4 -2 3 366.65 7.22
-4 -2 3 367.06 7.57
3 2 -3 95.57 3.69
-3 -2 3 96.34 3.07
-3 -2 3 98.63 3.28
-2 -2 3 326.39 6.1
-2 -2 3 322.6 5.47
2 2 -3 326.4 6.59
-1 -2 3 46.04 2
1 2 -3 44.74 2.01
-1 -2 3 43.58 1.45
0 -2 3 2.81 0.69
0 2 -3 3.2 0.7
0 -2 3 3.22 0.43
1 -2 3 41.16 1.8
-1 2 -3 36.91 1.56
1 -2 3 38.48 1.42
2 -2 3 237.1 4.37
2 -2 3 239.21 4.83
2 -2 3 233.83 4.87
-3 2 -3 449.16 7.56
3 -2 3 454.55 8.23
3 -2 3 441.77 7.1
4 -2 3 118.8 3.47
-4 2 -3 119.25 3.65
4 -2 3 118.06 4.3
-5 2 -3 53.74 2.72
5 -2 3 64.38 3.5
5 -2 3 56.52 2.67
6 -2 3 0.95 0.99
7 -2 3 61.11 4.19
8 -2 3 8.71 2.29
7 1 -3 2.99 1.41
6 1 -3 67.21 3.83
-6 -1 3 57.95 3.47
5 1 -3 115.63 4.61
-5 -1 3 116.1 4.37
-5 -1 3 116.5 4.1
4 1 -3 308.44 7.2
-4 -1 3 302.64 6.7
-4 -1 3 306.19 6.49
-3 -1 3 11.2 1.23
3 1 -3 9.95 1.31
-3 -1 3 8.88 1.05
-2 -1 3 115.23 2.77
2 1 -3 111.63 3.35
-2 -1 3 115.52 3.24
1 1 -3 239.98 4.72
-1 -1 3 238.98 4.61
-1 -1 3 246.8 3.52
0 1 -3 2.69 0.56
0 -1 3 1.33 0.43
1 -1 3 6.13 0.71
1 -1 3 6.82 0.6
1 -1 3 7.02 0.74
2 -1 3 184.38 3.97
2 -1 3 185.62 3.75
2 -1 3 183.44 3.78
3 -1 3 1197.79 15.18
-3 1 -3 1203.16 14.71
3 -1 3 1196.89 16.33
4 -1 3 285.64 6.84
-4 1 -3 297.67 5.64
4 -1 3 291.57 6.07
-5 1 -3 365.51 6.92
5 -1 3 374.24 7.64
5 -1 3 355.52 8.63
6 -1 3 101.37 4.86
6 -1 3 103.25 4.16
7 -1 3 13.69 2.42
-8 1 -3 2.61 1.48
-7 0 3 0.56 1.11
6 0 -3 10.92 1.79
6 0 -3 9.29 1.81
5 0 -3 70.11 3.41
-5 0 3 69.47 3.2
5 0 -3 68.6 3.42
-4 0 3 58.74 2.73
4 0 -3 64.59 2.96
4 0 -3 63.5 2.93
3 0 -3 330.62 6.56
3 0 -3 330.79 6.33
-3 0 3 327.16 6.38
-2 0 3 90.73 2.81
2 0 -3 93.75 2.84
2 0 -3 94.66 2.55
-1 0 3 547.95 7.83
1 0 -3 534.99 7.73
1 0 -3 549.69 6.87
0 0 3 72.23 2.04
0 0 -3 70.71 2.01
-1 0 -3 78.76 1.87
1 0 3 76.4 2.09
1 0 3 78.4 1.97
2 0 3 317.12 5.58
2 0 3 320.7 5.48
2 0 3 316.34 4.75
3 0 3 269.79 5.4
-3 0 -3 275.53 4.49
3 0 3 266.27 5.79
4 0 3 31.01 1.92
-4 0 -3 30.64 1.52
4 0 3 28.61 2.09
5 0 3 225.51 6.63
5 0 3 224.33 5.91
6 0 3 2.12 1.03
-6 0 -3 3.6 1.3
7 0 3 14.35 2.14
-7 0 -3 9.55 2.11
-8 0 -3 15.7 2.73
7 -1 -3 16.59 2.53
6 -1 -3 2.69 1.16
5 -1 -3 85.08 3.89
5 -1 -3 79.59 3.41
-5 1 3 79.37 3.56
-4 1 3 169.3 4.87
4 -1 -3 164.82 4.51
4 -1 -3 153.72 4.78
-3 1 3 176.79 4.57
3 -1 -3 175.64 4.23
3 -1 -3 176.54 4.5
2 -1 -3 0.9 0.45
-2 1 3 0.6 0.45
2 -1 -3 1.62 0.55
1 -1 -3 1162.79 13.76
1 -1 -3 1161.34 13.91
-1 1 3 1183.02 14.35
0 1 3 90.76 2.23
0 -1 -3 88.33 2.05
0 1 3 88.93 2.14
1 1 3 172.88 2.91
-1 -1 -3 174.21 3.34
1 1 3 171.17 3.45
-2 -1 -3 9 0.96
2 1 3 6.44 0.81
2 1 3 7.12 0.49
-3 -1 -3 163.68 4.33
3 1 3 157.5 4.16
-4 -1 -3 170.13 5.02
4 1 3 161.11 4.65
5 1 3 66.56 3.22
-5 -1 -3 71.21 3.56
6 1 3 227.67 6.79
-6 -1 -3 230.26 7.29
7 1 3 3.71 1.54
-7 -1 -3 4.68 1.64
-8 -1 -3 17.8 2.99
7 -2 -3 38.17 3.51
-6 2 3 10.46 1.81
6 -2 -3 16.36 2.28
5 -2 -3 13.81 1.85
-5 2 3 12.97 1.74
-4 2 3 53.22 2.79
4 -2 -3 52.1 2.32
4 -2 -3 55.5 2.93
3 -2 -3 318.26 5.68
3 -2 -3 322.53 6.71
-3 2 3 330.44 6.79
-2 2 3 311.42 6.06
2 -2 -3 312.28 5.03
2 -2 -3 310.38 5.88
1 -2 -3 584.94 7.48
-1 2 3 571.53 8.42
1 -2 -3 582.11 8.41
0 2 3 305.92 4.94
0 2 3 307.82 4.66
0 -2 -3 315.67 5.3
1 2 3 1.33 0.37
1 2 3 1.85 0.5
-1 -2 -3 2.58 0.66
-2 -2 -3 110.62 3.21
2 2 3 109.58 3.15
3 2 3 297.58 6.19
-3 -2 -3 300.41 6.4
-4 -2 -3 4.52 1.09
4 2 3 3.21 0.97
5 2 3 39.78 2.68
-5 -2 -3 44.01 2.89
6 2 3 122.46 5
-6 -2 -3 122.97 5.3
-7 -2 -3 15.33 2.43
7 2 3 11.55 2.11
8 2 3 30.73 3.39
-8 -2 -3 34.03 3.7
7 -3 -3 35.05 3.48
-6 3 3 9.22 1.8
6 -3 -3 9.61 1.96
5 -3 -3 19.71 2.22
-5 3 3 17.33 2.01
4 -3 -3 224.97 6.34
-4 3 3 228.17 6.18
3 -3 -3 305.19 4.98
-3 3 3 291.72 6.62
3 -3 -3 289.19 6.64
-2 3 3 26.14 1.78
2 -3 -3 26.21 1.07
2 -3 -3 25.1 1.76
-1 3 3 99.87 3.02
1 -3 -3 95.38 2.04
1 -3 -3 98.94 3.07
0 3 3 91.77 2.55
0 -3 -3 87.43 2.87
0 3 3 96.15 2.26
1 3 3 43.8 1.44
1 3 3 41.89 1.75
2 3 3 18.15 1.42
-2 -3 -3 21.65 1.62
3 3 3 358.09 7.24
-3 -3 -3 350.4 7.29
-4 -3 -3 265.38 6.72
4 3 3 256.27 6.55
-5 -3 -3 21.49 2.27
5 3 3 20.03 2.17
6 3 3 87.8 4.44
-6 -3 -3 83.36 4.48
-7 -3 -3 51.05 3.96
7 3 3 58.38 3.95
8 3 3 0.41 1.39
-8 -3 -3 0.12 1.36
7 -4 -3 65.93 4.63
6 -4 -3 65.06 4.23
-6 4 3 65.6 3.95
-5 4 3 2.77 1.15
5 -4 -3 1.53 0.98
4 -4 -3 24.97 2.26
-4 4 3 21.02 2.07
3 -4 -3 89.01 3.68
-3 4 3 85.9 3.6
2 -4 -3 16.48 1.66
-2 4 3 17.38 1.63
1 -4 -3 108.04 3.53
-1 4 3 97.24 3.22
-1 4 3 101.07 1.96
0 -4 -3 209.38 5.1
0 4 3 207.72 4.42
0 4 3 205.97 3.79
1 4 3 25.62 1.5
-1 -4 -3 37.31 2.24
1 4 3 25.77 1.3
2 4 3 372.92 7.11
2 4 3 392.57 5.27
-3 -4 -3 181.02 5.29
3 4 3 175.04 5.01
-4 -4 -3 334.07 8.08
4 4 3 341.42 7.98
5 4 3 6.72 1.54
-5 -4 -3 10.22 1.79
-6 -4 -3 1.51 1.22
6 4 3 0.3 0.94
7 4 3 10.21 2.19
-7 -4 -3 9.56 2.15
-8 -4 -3 2.41 1.8
8 4 3 4.96 2.05
-7 5 3 13.78 2.46
7 -5 -3 14.12 2.72
-6 5 3 12.38 2.2
6 -5 -3 15.8 2.53
5 -5 -3 4.93 1.44
-5 5 3 7.18 1.66
4 -5 -3 50.42 3.23
-4 5 3 44.02 2.89
-3 5 3 122.38 4.52
3 -5 -3 122.71 4.65
2 -5 -3 200.84 5.62
-2 5 3 203.9 5.5
1 -5 -3 11.53 1.51
-1 5 3 7.54 0.59
-1 5 3 8.15 1.2
0 5 3 417.36 6.35
0 -5 -3 421.38 8.46
0 5 3 423.9 7.42
1 5 3 112.94 3.09
1 5 3 111.66 3.26
-1 -5 -3 108.16 4.12
-2 -5 -3 29.94 2.34
2 5 3 29.24 1.35
2 5 3 27.02 1.85
3 5 3 6.5 1.35
-3 -5 -3 8.26 1.53
4 5 3 289.61 7.6
-4 -5 -3 302.81 7.94
-5 -5 -3 0.15 0.97
5 5 3 0.65 0.8
-6 -5 -3 8.23 2.01
6 5 3 6.88 1.77
-7 -5 -3 24.73 3.17
7 5 3 20.11 2.99
-7 6 3 3.97 1.73
7 -6 -3 2.61 1.87
-6 6 3 47.8 3.76
6 -6 -3 40.66 3.71
-5 6 3 32.72 2.98
5 -6 -3 23.55 2.78
4 -6 -3 15.84 2.16
-4 6 3 14.51 2.03
3 -6 -3 76.85 3.87
-3 6 3 67.64 3.56
-2 6 3 147.93 4.99
2 -6 -3 146.74 5.12
1 -6 -3 33.55 2.52
-1 6 3 35.11 2.28
0 -6 -3 270.71 6.95
0 6 3 273.37 5
0 6 3 261.91 5.96
1 6 3 0.38 0.52
-1 -6 -3 -0.06 0.91
1 6 3 -0.09 0.57
-2 -6 -3 81.91 4.08
2 6 3 87.94 3.48
3 6 3 8.62 1.54
-3 -6 -3 8.98 1.76
-4 -6 -3 40.25 3.09
4 6 3 43.18 2.98
-5 -6 -3 142.81 5.96
5 6 3 140.05 5.81
6 6 3 14.35 2.47
-6 -6 -3 12.64 2.41
7 6 3 20.74 3.18
-7 -6 -3 19.74 3.08
6 -7 -3 7.66 2.17
-6 7 3 7.44 2.12
-5 7 3 1.42 0.98
5 -7 -3 2.31 1.14
-4 7 3 32.09 2.95
4 -7 -3 39.07 3.29
-3 7 3 75.88 4.02
3 -7 -3 82.53 4.27
2 -7 -3 141.24 5.36
-2 7 3 136.7 5.09
-1 7 3 67.01 3.33
1 -7 -3 64.35 3.56
0 -7 -3 45.51 3.11
0 7 3 48.82 2.64
1 7 3 176.91 4.8
-1 -7 -3 187.28 6.18
1 7 3 177.09 4.76
2 7 3 10.24 1.55
-2 -7 -3 10.31 2
3 7 3 9.09 1.63
-3 -7 -3 7.67 1.86
-4 -7 -3 36.44 3.26
4 7 3 42.88 3.09
-5 -7 -3 154.65 6.6
6 7 3 10.05 2.29
-6 -7 -3 7.28 2.14
-7 -7 -3 7.07 2.45
7 7 3 9.21 2.44
-6 8 3 8.32 2.46
6 -8 -3 10.47 2.62
5 -8 -3 13.19 2.51
-5 8 3 12.98 2.42
4 -8 -3 23.28 2.83
-4 8 3 32.15 3.12
-3 8 3 24.37 2.74
3 -8 -3 22.81 2.64
2 -8 -3 59.91 3.79
-2 8 3 56.77 3.47
-1 8 3 64.99 3.54
1 -8 -3 71.79 4.04
0 8 3 13.68 1.75
0 -8 -3 14.96 2.23
1 8 3 46.77 2.62
-2 -8 -3 1.64 1.2
2 8 3 2.13 1.05
-3 -8 -3 73.15 4.54
3 8 3 68.94 3.71
-4 -8 -3 19.68 2.88
4 8 3 17.48 2.35
5 8 3 55.06 3.91
-5 -8 -3 55.07 4.29
6 8 3 10.02 2.34
-6 -8 -3 10.31 2.55
-5 9 3 -0.63 1.2
5 -9 -3 2.41 1.54
-4 9 3 -0.41 1.11
4 -9 -3 -0.13 0.97
-3 9 3 14.97 2.51
3 -9 -3 14.05 2.47
-2 9 3 77.68 4.37
2 -9 -3 79.55 4.61
1 -9 -3 5.86 1.69
-1 9 3 6.22 1.68
0 -9 -3 7.77 1.98
0 9 3 11.39 1.78
-1 -9 -3 157.53 6.39
-2 -9 -3 59.93 4.12
-3 -9 -3 6.25 2.1
3 9 3 4.67 1.28
4 9 3 7.02 1.8
-4 -9 -3 3.71 1.95
-5 -9 -3 6.75 2.38
5 9 3 10.87 2.28
-6 -9 -3 20.75 3.57
6 9 3 24.85 3.6
4 -10 -3 2.37 1.67
-4 10 3 -0.27 1.34
3 -10 -3 9.4 2.25
-3 10 3 13.18 2.55
2 -10 -3 6.9 2.05
-2 10 3 7.16 1.94
1 -10 -3 57 4.19
-1 10 3 56.21 3.87
0 -10 -3 49.5 4.07
0 10 3 46.59 3.31
-1 -10 -3 19.03 2.74
-2 -10 -3 45.57 4.01
-3 -10 -3 1.38 1.6
4 10 3 15.44 2.54
-4 -10 -3 10.03 2.68
5 10 3 3.67 1.67
-5 -10 -3 0.91 2.13
3 -11 -3 -1.33 1.29
-3 11 3 2.46 1.91
-2 11 3 24.25 3.2
2 -11 -3 16.25 2.9
-1 11 3 82.34 4.81
1 -11 -3 78.9 5.19
0 -11 -3 0.99 1.32
-1 -11 -3 25.18 3.25
-2 -11 -3 16.69 2.94
-3 -11 -3 7.75 2.41
-4 -11 -3 0.75 2.05
2 -12 -3 0.19 1.49
-2 12 3 6.45 2.36
1 -12 -3 11.06 2.71
-1 12 3 8.98 2.36
0 -12 -3 4.77 2.21
-1 -12 -3 3.95 2.1
-2 -12 -3 11.92 2.87
0 11 -4 5.83 2.24
-1 11 -4 20.7 3.3
-2 11 -4 1.7 1.62
3 10 -4 4.3 1.75
-1 -10 4 8.98 2.04
0 -10 4 23.39 3.06
-1 10 -4 3.87 1.8
-2 10 -4 3.18 1.81
-3 10 -4 1.1 1.64
-4 10 -4 4.29 1.99
4 9 -4 -0.11 1.8
3 9 -4 35.94 3.53
2 9 -4 0.1 1.01
-1 -9 4 5.11 1.65
0 -9 4 11.41 2.2
1 -9 4 19.59 2.75
-2 9 -4 148.27 6.49
-3 9 -4 8.99 2.31
4 -9 4 -0.28 1.11
-4 9 -4 -0.97 1.05
5 -9 4 -0.88 1.4
-5 9 -4 -1.68 1.46
5 8 -4 2.48 1.96
4 8 -4 11.53 2.37
3 8 -4 20.19 2.69
2 8 -4 1.07 1.12
-2 -8 4 1.44 1.02
-1 -8 4 16.85 2.19
1 8 -4 18.37 2.17
0 -8 4 69.93 4.02
1 -8 4 90.47 4.65
2 -8 4 21.78 2.32
2 -8 4 22.22 2.73
-3 8 -4 5.04 1.56
3 -8 4 4.23 1.5
-4 8 -4 7.43 1.89
4 -8 4 12.21 2.24
5 -8 4 3.05 1.57
-5 8 -4 6.24 1.84
-6 8 -4 48.01 4.2
6 -8 4 47.8 4.4
5 7 -4 5.76 1.82
4 7 -4 17.11 2.56
3 7 -4 24.18 2.75
-2 -7 4 59.05 3.44
2 7 -4 49.07 3.27
1 7 -4 32.91 2.61
-1 -7 4 36.59 2.69
0 -7 4 6.2 1.39
0 7 -4 8.4 1.55
1 -7 4 17.54 1.86
1 -7 4 16.14 2.13
2 -7 4 0.18 0.81
2 -7 4 -0.48 0.77
3 -7 4 290.35 7.9
-3 7 -4 282.45 8.28
4 -7 4 24.04 2.64
-4 7 -4 31.08 3.06
-5 7 -4 0.49 1.09
5 -7 4 2.52 1.43
6 -7 4 1.83 1.36
-6 7 -4 0.69 1.23
6 6 -4 6.7 2.25
5 6 -4 28.47 3.26
4 6 -4 17.68 2.57
3 6 -4 106.51 4.87
-3 -6 4 101.93 4.2
2 6 -4 52.16 3.26
-2 -6 4 53.05 3
1 6 -4 11.21 1.69
-1 -6 4 10.17 1.59
0 -6 4 28.31 1.99
0 6 -4 32.88 2.27
0 -6 4 26.93 2.35
1 -6 4 40.27 2.79
-1 6 -4 39.17 2.28
1 -6 4 38.07 2.36
2 -6 4 103.69 4.54
2 -6 4 109.43 4.13
3 -6 4 170.71 5.64
4 -6 4 40.15 2.98
-4 6 -4 37.37 3.03
5 -6 4 2.33 1.39
-5 6 -4 1.32 1.16
-6 6 -4 1.65 1.19
6 -6 4 2.22 1.51
7 -6 4 13.35 2.78
6 5 -4 12.21 2.53
5 5 -4 47.24 3.86
4 5 -4 35.71 3.19
3 5 -4 59.65 3.56
-3 -5 4 66.99 3.43
-2 -5 4 13.36 1.72
2 5 -4 11.42 1.72
-1 -5 4 0.34 0.77
1 5 -4 0.65 0.82
0 -5 4 43.11 2.63
0 5 -4 44.66 2.49
0 -5 4 45.63 2.17
1 -5 4 86.58 3.12
-1 5 -4 86.38 3.18
1 -5 4 83.31 3.7
2 -5 4 86.13 3.84
2 -5 4 90.62 3.48
-2 5 -4 92.19 3.07
3 -5 4 1.42 0.91
3 -5 4 0.16 0.65
4 -5 4 797.64 14.39
-4 5 -4 777.43 13.91
-5 5 -4 5.48 1.42
5 -5 4 5.37 1.48
-6 5 -4 0.12 0.99
6 -5 4 0.53 1.19
7 -5 4 2.27 1.59
7 4 -4 5.9 2.03
6 4 -4 25.51 3.21
5 4 -4 15.19 2.44
4 4 -4 20.66 2.45
-3 -4 4 13.23 1.64
3 4 -4 10.29 1.78
2 4 -4 160.44 5.12
-2 -4 4 161.57 4.81
1 4 -4 25.42 1.93
-1 -4 4 25.36 2.02
-1 -4 4 29.97 1.63
0 -4 4 99.26 3.66
0 4 -4 99.77 3.39
0 -4 4 103.65 2.84
1 -4 4 244.1 5.04
-1 4 -4 247.53 5.34
1 -4 4 250.07 6.11
2 -4 4 224.78 5.89
-2 4 -4 224.15 4.84
2 -4 4 236.85 5.39
3 -4 4 4.93 1.2
3 -4 4 6.75 1.22
-3 4 -4 8.01 1.03
-4 4 -4 143.48 4.87
4 -4 4 145.94 5.12
-5 4 -4 24.64 2.25
5 -4 4 17.31 2.26
6 -4 4 0.18 1.06
-6 4 -4 0.84 0.83
7 -4 4 4.31 1.68
8 -4 4 21.23 3.44
7 3 -4 0.43 1.3
6 3 -4 16.17 2.59
5 3 -4 2.58 1.31
-4 -3 4 78.03 3.43
4 3 -4 73.2 3.88
3 3 -4 71.84 3.52
-3 -3 4 77.54 3.25
-2 -3 4 670.02 9.5
2 3 -4 652.82 11.19
-2 -3 4 644.51 10.59
-1 -3 4 166.32 3.34
-1 -3 4 161.13 4.46
1 3 -4 167.5 4.56
0 -3 4 0.93 0.63
0 -3 4 1.88 0.46
0 3 -4 2.53 0.76
1 -3 4 205.21 4.06
1 -3 4 203.54 5.01
-1 3 -4 203.44 4.5
2 -3 4 3.53 0.76
2 -3 4 3.91 0.88
-2 3 -4 3.41 0.74
3 -3 4 36.58 2.23
3 -3 4 30.85 2.06
3 -3 4 32.28 1.73
4 -3 4 5.25 1.25
4 -3 4 4.66 0.89
-4 3 -4 4.18 1.1
-5 3 -4 734.31 12.42
5 -3 4 759.21 14.11
6 -3 4 23.09 2.65
7 -3 4 13.01 2.44
8 -3 4 -0.09 1.52
7 2 -4 -0.24 1.18
6 2 -4 12.07 2.29
5 2 -4 46.49 3.26
-4 -2 4 80.4 3.42
4 2 -4 83.96 3.93
-4 -2 4 80.35 3.17
-3 -2 4 177.32 4.86
-3 -2 4 185.12 4.39
3 2 -4 186.2 5.45
-2 -2 4 243.26 5.52
2 2 -4 243.3 5.83
-2 -2 4 250.03 4.46
-1 -2 4 30.14 1.13
-1 -2 4 30.01 1.82
1 2 -4 30.61 1.85
0 -2 4 68.74 2.61
0 2 -4 66.2 2.44
1 -2 4 0.56 0.33
1 -2 4 0.38 0.45
-1 2 -4 0.85 0.51
2 -2 4 828.09 11.17
2 -2 4 806.49 11.28
2 -2 4 816.2 11.68
3 -2 4 415.48 7.49
3 -2 4 408.98 7.8
3 -2 4 400.51 6.98
4 -2 4 -0.31 0.57
-4 2 -4 0.64 0.64
4 -2 4 0.34 0.53
5 -2 4 282.6 7.6
-5 2 -4 266.76 6.2
5 -2 4 265.38 6.24
6 -2 4 0.49 0.95
7 -2 4 14.42 2.52
8 -2 4 3.88 1.96
6 1 -4 9.8 2.07
-5 -1 4 63.87 3.18
5 1 -4 65.02 3.59
-5 -1 4 56.76 3.04
-4 -1 4 63.15 2.99
-4 -1 4 63.56 2.82
4 1 -4 64.35 3.31
-3 -1 4 40.48 1.95
-3 -1 4 40.23 2.27
3 1 -4 38.99 2.33
2 1 -4 137.03 4.01
-2 -1 4 137.67 3
-2 -1 4 133.45 3.85
-1 -1 4 544.38 8.6
1 1 -4 557.94 8.71
0 -1 4 1.49 0.57
0 1 -4 4.9 0.8
1 -1 4 188.04 4.12
-1 1 -4 189.84 4.01
1 -1 4 195.12 3.29
2 -1 4 1033.52 13.34
2 -1 4 1066.53 13.6
2 -1 4 1052.34 13.62
3 -1 4 74.95 2.91
3 -1 4 78.53 2.61
3 -1 4 80.45 2.78
4 -1 4 44.95 2.61
4 -1 4 41.61 2.22
-4 1 -4 43.94 2.1
5 -1 4 10.32 1.67
5 -1 4 12.96 1.6
6 -1 4 315.97 7.81
6 -1 4 316.56 8.97
7 -1 4 22.25 2.9
-8 1 -4 2.66 1.45
6 0 -4 11.93 1.98
5 0 -4 65.97 3.46
5 0 -4 64.46 3.34
-5 0 4 63.51 3.24
4 0 -4 41.92 2.55
4 0 -4 41.13 2.4
-4 0 4 45.03 2.57
3 0 -4 51.58 2.25
3 0 -4 49.15 2.47
-3 0 4 54.21 2.55
2 0 -4 148.18 3.94
2 0 -4 152.23 3.31
-2 0 4 150.28 4.02
1 0 -4 531 6.7
1 0 -4 529.59 8.14
-1 0 4 531.11 8.24
0 0 -4 26.34 1.36
0 0 4 22.54 1.33
1 0 4 106.14 2.72
1 0 4 108.04 2.88
-1 0 -4 110.68 2.34
2 0 4 47.49 1.99
-2 0 -4 51.04 1.97
2 0 4 51.33 1.76
3 0 4 1494.31 18.89
3 0 4 1499.92 17.37
3 0 4 1515.53 19.64
4 0 4 129.09 4.06
4 0 4 126.68 4.35
-4 0 -4 128.25 3.11
5 0 4 44.65 2.58
-5 0 -4 44.7 2.89
6 0 4 73.58 3.69
-6 0 -4 68.24 3.95
7 0 4 0.72 1
-7 0 -4 1.47 1.03
-8 0 -4 8.26 2.25
6 -1 -4 9.68 1.77
5 -1 -4 33.16 2.38
5 -1 -4 35.51 2.56
-5 1 4 40.39 2.65
-4 1 4 44.18 2.64
4 -1 -4 49.29 2.73
4 -1 -4 48.67 2.55
3 -1 -4 63.61 2.62
3 -1 -4 62.03 2.58
-3 1 4 62.52 2.82
2 -1 -4 43.5 1.91
2 -1 -4 45.61 1.85
-2 1 4 44.26 2.17
1 -1 -4 1291.24 15.2
1 -1 -4 1274.95 15.54
0 -1 -4 40.71 1.41
0 1 4 40.04 1.67
1 1 4 183.91 3.49
1 1 4 185.97 3.93
-1 -1 -4 185.04 3.63
2 1 4 48.3 2.04
2 1 4 50.03 1.52
-2 -1 -4 48.74 2
3 1 4 1385.83 15.21
3 1 4 1357.55 17.7
-3 -1 -4 1337.89 18.2
4 1 4 49.51 2.57
-4 -1 -4 55.86 2.87
5 1 4 31.52 2.35
-5 -1 -4 35 2.55
-6 -1 -4 11.79 2
6 1 4 16.2 2.12
7 1 4 56.03 3.65
-7 -1 -4 60.34 4.17
-8 -1 -4 23.8 3.29
8 1 4 30.79 3.16
7 -2 -4 3.03 1.53
-6 2 4 14.71 2.06
6 -2 -4 10.44 1.98
5 -2 -4 33.83 2.56
-5 2 4 30.64 2.57
-4 2 4 67.73 3.3
4 -2 -4 71.53 3.34
4 -2 -4 67.29 2.79
3 -2 -4 399.09 7.68
-3 2 4 396.79 7.96
3 -2 -4 379.03 6.78
2 -2 -4 102.63 3.12
-2 2 4 101 3.42
2 -2 -4 105.08 2.82
1 -2 -4 886.89 11.1
-1 2 4 870.44 11.99
1 -2 -4 868.89 11.64
0 2 4 202.29 4.12
0 -2 -4 200.11 4.06
0 2 4 203.12 3.9
-1 -2 -4 50.19 2.08
1 2 4 54.19 1.7
1 2 4 49.11 1.92
-2 -2 -4 5.13 0.88
2 2 4 5.86 0.91
2 2 4 5.72 0.51
3 2 4 7.73 1.14
-3 -2 -4 4.76 1.04
4 2 4 309.29 7.1
-4 -2 -4 298.4 7.08
5 2 4 108.38 4.46
-5 -2 -4 111.35 4.53
-6 -2 -4 103.03 4.88
6 2 4 103.23 4.73
-7 -2 -4 60.17 4.08
7 2 4 60.51 3.96
8 2 4 2.99 1.7
-8 -2 -4 3.26 1.73
7 -3 -4 13.38 2.48
6 -3 -4 1.84 1.11
-6 3 4 1.76 1.2
5 -3 -4 29.97 2.62
-5 3 4 29.16 2.61
-4 3 4 183.14 5.62
4 -3 -4 176.31 5.62
3 -3 -4 102.65 3.79
3 -3 -4 102.26 2.85
-3 3 4 102.49 3.87
2 -3 -4 108.51 2.68
-2 3 4 107.6 3.64
2 -3 -4 108.45 3.51
1 -3 -4 122.54 2.72
1 -3 -4 119.14 3.43
-1 3 4 120.09 3.5
0 3 4 549.8 8.12
0 -3 -4 541.82 8.68
0 3 4 534.99 7.58
-1 -3 -4 19.93 1.61
1 3 4 17.38 1.24
1 3 4 18.67 1.08
2 3 4 0.08 0.46
-2 -3 -4 0.08 0.57
2 3 4 0.38 0.29
-3 -3 -4 34.07 2.21
3 3 4 30.89 2.06
-4 -3 -4 937.63 15.15
4 3 4 955.93 14.96
5 3 4 30.44 2.59
-5 -3 -4 29.35 2.58
6 3 4 78.33 4.25
-6 -3 -4 71.13 4.15
-7 -3 -4 13.39 2.4
7 3 4 9.18 2.04
-8 -3 -4 0.68 1.51
8 3 4 1.93 1.58
7 -4 -4 5.72 1.98
-7 4 4 9.67 2.18
6 -4 -4 1.63 1.18
-6 4 4 1.53 1.08
5 -4 -4 17.85 2.24
-5 4 4 16.12 2.15
-4 4 4 26.79 2.43
4 -4 -4 28.77 2.42
3 -4 -4 46.01 2.75
-3 4 4 55.1 2.94
-2 4 4 303.19 6.79
2 -4 -4 312.72 6.87
-1 4 4 123.65 3.78
1 -4 -4 122.78 3.87
1 -4 -4 124.67 2.63
0 -4 -4 1061.09 15.11
0 4 4 1065.68 13.9
0 4 4 1051.95 13.05
1 4 4 148.12 3.73
1 4 4 154.77 3.4
-2 -4 -4 118.33 4.13
2 4 4 118.75 2.45
2 4 4 124.1 3.77
3 4 4 27.72 2.05
-3 -4 -4 27.29 2.15
-4 -4 -4 141.13 5.05
4 4 4 139.32 4.87
-5 -4 -4 100.22 4.53
5 4 4 100.4 4.55
6 4 4 14.63 2.25
-6 -4 -4 12.42 2.15
7 4 4 19.61 2.8
-7 -4 -4 18.83 2.75
8 4 4 9.82 2.5
-8 -4 -4 7.92 2.27
-7 5 4 12.41 2.53
7 -5 -4 15.64 2.79
6 -5 -4 15.01 2.47
-6 5 4 15.2 2.45
-5 5 4 0.11 0.97
5 -5 -4 0.81 1.07
-4 5 4 19.76 2.23
4 -5 -4 20.28 2.27
-3 5 4 97.18 4.13
3 -5 -4 103.21 4.29
2 -5 -4 79.11 3.5
-2 5 4 80.81 3.47
-1 5 4 21.47 1.77
1 -5 -4 19.19 1.82
-1 5 4 22.22 1.06
0 5 4 380.22 6.21
0 5 4 384 7.14
0 -5 -4 402.8 8.26
1 5 4 365.59 6.36
1 5 4 370.19 6.68
-1 -5 -4 378.13 8.25
-2 -5 -4 8.3 1.54
2 5 4 8.42 1.27
2 5 4 5.83 0.71
-3 -5 -4 72.36 3.69
3 5 4 69.98 3.29
4 5 4 36.17 2.71
-4 -5 -4 43.09 2.98
-5 -5 -4 42.15 3.19
5 5 4 39.64 3.01
6 5 4 4.78 1.59
-6 -5 -4 1.77 1.29
7 5 4 44.21 3.95
-7 -5 -4 41.7 3.95
8 5 4 16.44 3.17
-8 -5 -4 15.99 3.11
-6 6 4 16.31 2.63
6 -6 -4 19.09 2.82
-5 6 4 -0.11 0.84
5 -6 -4 0.15 0.93
4 -6 -4 12.98 2
-4 6 4 13.25 2.07
-3 6 4 11.14 1.78
3 -6 -4 12.71 1.87
-2 6 4 24.74 2.25
2 -6 -4 27.39 2.41
1 -6 -4 214.99 6.2
-1 6 4 209.93 5.68
0 -6 -4 441.09 9.4
0 6 4 442.16 8.23
0 6 4 434.95 6.98
1 6 4 513.95 8.44
1 6 4 499.47 8.54
-1 -6 -4 496.97 10.39
2 6 4 7.22 1.28
-2 -6 -4 6.49 1.62
-3 -6 -4 1.95 1.16
3 6 4 1.3 0.89
4 6 4 0.06 0.64
-4 -6 -4 -0.42 1.02
5 6 4 64.53 4.01
-5 -6 -4 66.65 4.21
-6 -6 -4 13.99 2.5
6 6 4 15.93 2.6
7 6 4 47.26 4.22
-7 -6 -4 39.57 3.98
-6 7 4 34.83 3.54
6 -7 -4 27.88 3.47
-5 7 4 5.73 1.63
5 -7 -4 5.23 1.59
4 -7 -4 8.51 1.91
-4 7 4 3.28 1.17
3 -7 -4 5.46 1.53
-3 7 4 6.02 1.61
2 -7 -4 238.77 7.15
-2 7 4 227.2 6.69
-1 7 4 34.08 2.52
1 -7 -4 39.2 2.83
0 7 4 29.95 2.18
0 -7 -4 38.73 2.83
-1 -7 -4 213.75 6.75
1 7 4 214.62 5.37
1 7 4 219.99 5.38
-2 -7 -4 4.9 1.7
2 7 4 2.78 1.06
-3 -7 -4 7.23 1.9
3 7 4 9.03 1.65
-4 -7 -4 75.7 4.46
4 7 4 68.52 3.93
5 7 4 62.95 4.06
-5 -7 -4 72.25 4.62
-6 -7 -4 29.3 3.41
6 7 4 26.12 3.23
-7 -7 -4 8.61 2.63
7 7 4 5.09 2.09
-6 8 4 9.29 2.6
6 -8 -4 4.83 2.18
5 -8 -4 20.82 2.94
-5 8 4 20.09 2.88
4 -8 -4 7.51 1.96
-4 8 4 7.99 1.86
3 -8 -4 25.76 2.79
-3 8 4 18.54 2.5
-2 8 4 22.5 2.48
2 -8 -4 17.82 2.38
-1 8 4 4.21 1.26
1 -8 -4 3.1 1.22
0 8 4 19.53 2.02
0 -8 -4 19.69 2.41
1 8 4 86.89 3.56
-1 -8 -4 86.06 4.61
2 8 4 169.69 5.37
3 8 4 5.64 1.49
-3 -8 -4 2.52 1.52
-4 -8 -4 38.12 3.73
4 8 4 38.09 3.27
5 8 4 41.11 3.66
-5 -8 -4 29.33 3.48
-6 -8 -4 1.17 1.67
6 8 4 2.27 1.47
-5 9 4 29.6 3.62
5 -9 -4 34.68 3.93
4 -9 -4 5.87 1.82
-4 9 4 5.82 1.83
-3 9 4 6.83 1.82
3 -9 -4 11.13 2.19
2 -9 -4 1.9 1.22
-2 9 4 0.35 1.04
-1 9 4 106.19 4.83
1 -9 -4 108.33 5.35
0 -9 -4 0 1.08
0 9 4 0.62 0.9
-1 -9 -4 126.02 5.8
-2 -9 -4 97.39 5.32
-3 -9 -4 9.23 2.27
3 9 4 1.93 1.11
-4 -9 -4 4.09 1.9
4 9 4 1.84 1.19
5 9 4 9.9 2.29
-5 -9 -4 15.62 3.02
6 9 4 17.83 3.22
-6 -9 -4 18.57 3.45
4 -10 -4 3.32 1.67
-4 10 4 4.79 2.08
3 -10 -4 7.01 1.97
-3 10 4 8.02 2.23
-2 10 4 1.34 1.4
2 -10 -4 0.81 1.25
1 -10 -4 70.92 4.67
-1 10 4 70.94 4.28
0 -10 -4 8.23 2.15
0 10 4 3.76 1.45
-1 -10 -4 27.26 3.19
-2 -10 -4 57.97 4.45
-3 -10 -4 12.03 2.64
-4 -10 -4 -0.32 1.36
4 10 4 0.38 1.13
5 10 4 19.4 2.93
-5 -10 -4 16.18 3.41
3 -11 -4 -0.61 1.53
-3 11 4 -1.23 1.47
-2 11 4 7.99 2.29
2 -11 -4 10.4 2.48
-1 11 4 16.24 2.64
1 -11 -4 13.22 2.75
0 -11 -4 62.07 4.62
-1 -11 -4 1.05 1.62
-2 -11 -4 15.11 2.84
-3 -11 -4 25.18 3.51
-4 -11 -4 2.68 1.96
-2 12 4 10.47 2.75
-1 12 4 -0.17 1.56
1 -12 -4 1.48 1.89
0 -12 -4 36.39 4.04
-1 -12 -4 3.05 1.95
-2 -12 -4 26.09 3.58
-1 11 -5 1.76 2.12
-1 -10 5 5.05 1.84
0 -10 5 11.43 2.33
1 -10 5 -0.38 1.3
-2 10 -5 19.82 3.17
-3 10 -5 53.37 4.73
3 9 -5 12.18 2.5
2 9 -5 0.61 1.18
-1 -9 5 17.94 2.54
0 -9 5 14.5 2.45
1 -9 5 24.07 3
2 -9 5 4.52 1.72
-3 9 -5 95.52 5.4
-4 9 -5 9.64 2.34
-5 9 -5 0.8 1.76
4 8 -5 11.81 2.53
3 8 -5 16.79 2.64
-2 -8 5 4.34 1.47
2 8 -5 6.49 1.71
-1 -8 5 0.27 0.95
1 8 -5 0.11 0.97
0 -8 5 39.75 3.32
1 -8 5 46.05 3.66
2 -8 5 0.42 0.99
-3 8 -5 73.4 4.51
4 -8 5 25.65 2.88
-4 8 -5 28.24 3.29
5 -8 5 3.95 1.68
-5 8 -5 4.59 1.65
6 -8 5 0.89 1.74
-6 8 -5 1.96 1.8
5 7 -5 8.24 2.38
4 7 -5 6.34 1.9
3 7 -5 43.57 3.65
-2 -7 5 19.1 2.3
2 7 -5 16.89 2.36
1 7 -5 10.77 1.83
-1 -7 5 14.32 2.04
0 -7 5 117.98 5.03
0 7 -5 109.97 4.38
1 -7 5 65.28 3.84
2 -7 5 1.75 1.05
3 -7 5 53.81 3.81
3 -7 5 54.07 3.37
-4 7 -5 127.04 5.67
4 -7 5 134.17 5.66
5 -7 5 6.38 1.97
-5 7 -5 6.57 1.89
6 -7 5 21.18 3.1
-6 7 -5 22.05 2.92
5 6 -5 7.15 2.12
4 6 -5 23.57 2.9
3 6 -5 103.21 5.02
-3 -6 5 100.15 4.37
2 6 -5 121.53 5.05
-2 -6 5 119.97 4.79
1 6 -5 5.84 1.36
-1 -6 5 3.96 1.17
0 -6 5 0.48 0.71
0 6 -5 1.07 1.02
1 -6 5 2.07 1.02
-1 6 -5 3.81 1.14
2 -6 5 51.02 3.31
2 -6 5 47.55 2.73
3 -6 5 -0.69 0.72
3 -6 5 0.12 1
-4 6 -5 269.4 7.86
4 -6 5 257.88 7.68
5 -6 5 44.22 3.45
-5 6 -5 43 3.41
6 -6 5 5.56 2.02
-6 6 -5 3.99 1.54
7 -6 5 -0.71 1.53
6 5 -5 17.69 3.06
5 5 -5 8.65 2.15
4 5 -5 44.58 3.63
-3 -5 5 51.44 3.06
3 5 -5 45.54 3.23
-2 -5 5 42.81 2.75
2 5 -5 39.06 2.83
-1 -5 5 3.9 1.19
1 5 -5 3.38 1.12
0 5 -5 10.4 1.48
0 -5 5 8.26 1.51
1 -5 5 389.95 8.87
-1 5 -5 400.84 7.96
1 -5 5 421.91 7.5
-2 5 -5 403.44 7.63
2 -5 5 404.41 9.13
2 -5 5 398.14 7.92
3 -5 5 48.04 3.11
3 -5 5 52.65 2.93
-4 5 -5 0.8 0.88
4 -5 5 0.22 0.81
5 -5 5 24.54 2.68
-5 5 -5 25.81 2.58
6 -5 5 0.5 1.27
-6 5 -5 0.07 0.87
7 -5 5 9.81 2.32
6 4 -5 21.29 3.11
5 4 -5 15.77 2.52
4 4 -5 4.42 1.6
-4 -4 5 9.53 1.6
-3 -4 5 17.49 1.98
3 4 -5 20.66 2.36
-2 -4 5 105.22 4.13
2 4 -5 109.04 4.36
-1 -4 5 95.4 3.87
1 4 -5 96.14 3.84
0 -4 5 187.87 5.31
0 4 -5 173.16 4.95
1 -4 5 51.07 2.8
1 -4 5 50.04 2.06
-1 4 -5 50.55 2.49
-2 4 -5 106.82 3.46
2 -4 5 99.45 3.94
2 -4 5 104.52 3.4
3 -4 5 19.42 1.8
-3 4 -5 19.31 1.61
3 -4 5 19.92 1.98
-4 4 -5 6.58 1.4
4 -4 5 5.96 1.36
-5 4 -5 264.42 7.13
5 -4 5 281.49 8.05
6 -4 5 8.96 1.99
-6 4 -5 7.54 1.61
7 -4 5 4.73 1.86
8 -4 5 1.08 1.69
7 3 -5 2.96 1.81
6 3 -5 13.01 2.43
5 3 -5 7.68 1.82
4 3 -5 12.27 2.05
-4 -3 5 10.78 1.62
3 3 -5 53.95 3.19
-3 -3 5 55.54 3.02
-2 -3 5 341.56 7.5
2 3 -5 342.11 7.79
1 3 -5 139.5 4.36
-1 -3 5 137.9 4.37
0 3 -5 1.14 0.72
0 -3 5 0.33 0.33
0 -3 5 0.24 0.63
1 -3 5 20 1.14
-1 3 -5 20.63 1.62
1 -3 5 19.08 1.68
-2 3 -5 289.72 5.91
2 -3 5 288.04 5.66
3 -3 5 259.25 5.57
3 -3 5 254.93 6.25
3 -3 5 244.69 5.88
4 -3 5 153.44 4.32
4 -3 5 150.52 4.83
4 -3 5 154.43 5.08
5 -3 5 42.32 2.97
-5 3 -5 42.37 2.74
6 -3 5 1.56 1.22
7 -3 5 0.95 1.29
8 -3 5 1.12 1.66
7 2 -5 11.21 2.48
6 2 -5 9.43 2.14
5 2 -5 10.05 1.99
4 2 -5 55.8 3.44
-4 -2 5 51.84 2.96
3 2 -5 116.64 4.46
-3 -2 5 116.1 4.15
-2 -2 5 455.5 8.6
2 2 -5 450.54 8.88
-1 -2 5 135.1 4.11
1 2 -5 141.71 4.24
0 2 -5 14.99 1.39
0 -2 5 17.56 1.53
1 -2 5 12.12 1.33
-1 2 -5 12.45 1.26
1 -2 5 13.72 0.86
2 -2 5 5.26 0.98
2 -2 5 8.42 1.09
2 -2 5 6.01 0.84
3 -2 5 208.26 5.15
3 -2 5 210.53 5.16
3 -2 5 210.38 4.95
4 -2 5 16.84 1.62
4 -2 5 14.38 1.46
4 -2 5 12.75 1.59
5 -2 5 84.23 4.02
-5 2 -5 75.33 3.27
5 -2 5 73.92 3.3
6 -2 5 144.82 5.89
7 -2 5 8.57 2.21
-8 2 -5 4.31 1.7
6 1 -5 7.24 1.87
-5 -1 5 53.49 3.11
5 1 -5 50.67 3.32
4 1 -5 97.29 4.27
-4 -1 5 91.6 3.88
3 1 -5 145.18 4.77
-3 -1 5 155.01 4.75
-2 -1 5 153.82 4.44
2 1 -5 147.56 4.41
-2 -1 5 147.84 3.08
1 1 -5 282.89 6
-1 -1 5 295.44 6.11
0 -1 5 227.66 5.05
0 1 -5 230.63 5.01
-1 1 -5 139.56 3.66
1 -1 5 134.44 3.71
-1 1 -5 145.11 2.74
2 -1 5 36.46 1.91
2 -1 5 34.1 1.79
2 -1 5 35.77 1.65
3 -1 5 384.84 6.87
3 -1 5 394.74 7.34
3 -1 5 402.5 7.5
4 -1 5 164.79 4.28
4 -1 5 161.28 4.67
4 -1 5 174.52 5.14
5 -1 5 284.61 7.66
5 -1 5 282.45 6.91
6 -1 5 108.58 4.51
6 -1 5 112.15 5.18
-7 1 -5 -0.24 0.93
-8 1 -5 1.4 1.06
5 0 -5 50.33 3.19
-5 0 5 50.43 3.03
4 0 -5 2.67 1.01
-4 0 5 2.89 1.03
4 0 -5 3.11 1.11
3 0 -5 45.03 2.53
-3 0 5 42.58 2.5
3 0 -5 42.74 2.04
2 0 -5 15.54 1.45
-2 0 5 14.8 1.53
2 0 -5 14.64 1.08
1 0 -5 1401.25 15.81
1 0 -5 1394.36 17.67
-1 0 5 1404.55 17.84
0 0 5 193.03 4.38
0 0 -5 192.01 4.33
1 0 5 201.1 4.5
-1 0 -5 211.98 3.63
1 0 5 208.23 4.4
2 0 5 74.67 2.67
-2 0 -5 71.56 2.4
2 0 5 69.9 2.36
-3 0 -5 55.7 2.53
3 0 5 58.53 2.09
3 0 5 57.39 2.56
4 0 5 33.6 2.18
-4 0 -5 38.29 1.8
-4 0 -5 35.67 2.37
5 0 5 60.03 3.13
-5 0 -5 66.12 3.5
6 0 5 70.87 3.75
-6 0 -5 84.76 4.38
7 0 5 33.81 3.09
-7 0 -5 29.39 3.13
-8 0 -5 1.69 1.22
-6 1 5 10.1 1.87
-5 1 5 0.77 0.88
5 -1 -5 0.26 0.88
5 -1 -5 -0.05 0.64
4 -1 -5 2.67 1.08
4 -1 -5 4.42 1.12
-4 1 5 2.66 1.02
3 -1 -5 59.67 2.57
3 -1 -5 58.71 2.7
-3 1 5 60.82 2.98
2 -1 -5 507.61 8.39
-2 1 5 497.47 8.81
2 -1 -5 474.85 7.57
-1 1 5 1741.58 21.47
1 -1 -5 1811.79 20.41
1 -1 -5 1773.78 21.16
0 -1 -5 123.16 2.61
0 1 5 120.31 3.31
0 -1 -5 118.92 3.18
1 1 5 107.49 2.85
-1 -1 -5 109.23 2.73
1 1 5 106.55 3.13
-2 -1 -5 122.68 3.36
2 1 5 120.33 2.88
2 1 5 124.25 3.57
3 1 5 6.37 0.67
-3 -1 -5 6.05 1.09
3 1 5 7.45 1.14
4 1 5 208.3 5.63
-4 -1 -5 202.15 5.74
-5 -1 -5 1.45 0.85
5 1 5 1.81 1
-6 -1 -5 200.49 6.91
6 1 5 196.76 6.39
-7 -1 -5 37.54 3.51
7 1 5 41.13 3.37
8 1 5 -0.06 1.47
-8 -1 -5 2.57 1.45
6 -2 -5 5.78 1.58
-6 2 5 7.62 1.7
5 -2 -5 47.63 3.05
-5 2 5 43.05 3.02
-4 2 5 51.81 3.05
4 -2 -5 56.8 3.04
4 -2 -5 55.08 2.7
3 -2 -5 6.77 1.16
-3 2 5 8.22 1.44
3 -2 -5 8.8 1.16
2 -2 -5 66.54 2.5
-2 2 5 64.44 2.91
2 -2 -5 62.54 2.46
1 -2 -5 50.93 2.01
1 -2 -5 47.92 1.96
-1 2 5 53.05 2.39
0 2 5 2214.23 25.17
0 2 5 2209.28 25.27
0 -2 -5 2221.82 25.63
-1 -2 -5 4.03 0.81
1 2 5 2.81 0.72
1 2 5 3.59 0.65
2 2 5 506.13 8.59
2 2 5 532.08 7.17
-2 -2 -5 520.97 8.66
3 2 5 8.03 1.21
3 2 5 7.92 0.59
-3 -2 -5 5.89 1.13
-4 -2 -5 10.2 1.55
4 2 5 8.36 1.37
-5 -2 -5 0.63 0.72
5 2 5 2.68 1.07
-6 -2 -5 68.37 3.9
6 2 5 57.85 3.6
7 2 5 82.32 4.54
-7 -2 -5 79.45 4.73
8 2 5 30.34 3.37
-8 -2 -5 32.2 3.67
-6 3 5 32.58 3.08
6 -3 -5 32.76 3.1
5 -3 -5 60.63 3.56
-5 3 5 56.47 3.56
4 -3 -5 0.69 1.01
-4 3 5 1.92 0.97
3 -3 -5 0.58 0.52
-3 3 5 0.59 0.83
3 -3 -5 -0.31 0.65
-2 3 5 65.89 3.02
2 -3 -5 74.41 2.93
2 -3 -5 70.52 2.43
1 -3 -5 433.79 6.83
1 -3 -5 441.92 7.65
-1 3 5 439.88 7.97
0 3 5 2058.45 23.58
0 -3 -5 2063.32 24.91
0 3 5 2051.39 23.93
1 3 5 20.29 1.27
1 3 5 22.7 1.49
-1 -3 -5 23.99 1.76
2 3 5 81.8 3.03
2 3 5 77.2 2.06
-2 -3 -5 77.37 3.12
-3 -3 -5 12.14 1.53
3 3 5 10.66 1.42
4 3 5 49.39 2.86
-4 -3 -5 50.54 2.95
5 3 5 58.9 3.4
-5 -3 -5 63.19 3.55
6 3 5 99.35 4.78
-6 -3 -5 98.28 4.89
7 3 5 84.04 4.78
-7 -3 -5 85.02 5.02
8 3 5 1.91 1.7
-8 -3 -5 0.76 1.62
-7 4 5 6.9 2.04
7 -4 -5 8.93 2.31
6 -4 -5 32.6 3.32
-6 4 5 34.69 3.32
5 -4 -5 36.17 3
-5 4 5 36.67 3.11
-4 4 5 52.66 3.23
4 -4 -5 55.6 3.2
-3 4 5 108.5 4.34
3 -4 -5 117.29 4.36
2 -4 -5 14.07 1.57
-2 4 5 18.18 1.82
1 -4 -5 0.74 0.43
1 -4 -5 0.39 0.7
-1 4 5 0.51 0.55
0 4 5 52.18 2.31
0 4 5 50.18 2.01
0 -4 -5 51.76 2.62
1 4 5 251.19 4.82
1 4 5 251.95 5.28
-1 -4 -5 247.44 6.14
2 4 5 111.1 3.7
-2 -4 -5 110.66 4.06
2 4 5 115.22 2.66
3 4 5 303.75 7.03
-3 -4 -5 317.28 7.48
-4 -4 -5 181.09 5.84
4 4 5 173.63 5.58
5 4 5 86.93 4.32
-5 -4 -5 91.28 4.43
-6 -4 -5 -0.3 0.93
6 4 5 -0.21 0.98
-7 -4 -5 10.29 2.27
7 4 5 11.17 2.32
8 4 5 7.91 2.36
-8 -4 -5 5.19 2.09
-7 5 5 8.94 2.39
7 -5 -5 8.76 2.32
-6 5 5 32.67 3.37
6 -5 -5 28.05 3.1
5 -5 -5 28.34 2.9
-5 5 5 23.47 2.71
4 -5 -5 98.86 4.51
-4 5 5 103.07 4.69
-3 5 5 17.89 2
3 -5 -5 15.63 1.89
-2 5 5 36.24 2.5
2 -5 -5 38.89 2.59
-1 5 5 0.74 0.66
1 -5 -5 1.62 0.94
0 5 5 217.37 5.16
0 -5 -5 209.16 5.81
0 5 5 216.08 4.52
1 5 5 1239.44 16.12
-1 -5 -5 1214.75 18.15
1 5 5 1207.3 15.47
-2 -5 -5 53.37 3.26
2 5 5 60.76 2.76
2 5 5 54.3 1.93
3 5 5 99.71 3.98
-3 -5 -5 90.64 4.19
-4 -5 -5 28.43 2.63
4 5 5 28.47 2.52
-5 -5 -5 0.68 1.07
5 5 5 0.64 0.82
-6 -5 -5 3.83 1.67
6 5 5 3.67 1.49
-7 -5 -5 42.34 4
7 5 5 36.45 3.74
8 5 5 36.95 4.06
-6 6 5 5.76 1.74
6 -6 -5 5.63 1.92
-5 6 5 7.65 1.83
5 -6 -5 12.58 2.26
4 -6 -5 52.33 3.47
-4 6 5 46.91 3.27
-3 6 5 10.67 1.86
-2 6 5 248.42 6.84
2 -6 -5 245.54 6.86
-1 6 5 56.35 2.95
1 -6 -5 54.26 3.15
0 -6 -5 54.88 3.29
0 6 5 57.79 2.77
0 6 5 61.24 2.34
-1 -6 -5 117.81 4.81
1 6 5 108.52 3.58
1 6 5 104.89 3.44
2 6 5 135.53 4.41
-2 -6 -5 136.99 5.4
3 6 5 1.54 0.92
-3 -6 -5 1.65 1.23
4 6 5 2.97 1.14
-4 -6 -5 1.93 1.23
5 6 5 76.82 4.32
-5 -6 -5 87.79 4.84
-6 -6 -5 17.09 2.64
6 6 5 19.27 2.75
-7 -6 -5 43.23 4.16
7 6 5 40.21 4.1
6 -7 -5 1.42 1.45
-6 7 5 1.58 1.57
-5 7 5 28.46 3.14
5 -7 -5 28.41 3.14
4 -7 -5 35.78 3.22
-4 7 5 27.9 2.88
-3 7 5 34 2.97
3 -7 -5 34.38 2.96
2 -7 -5 1.17 0.97
-2 7 5 -0.34 0.71
-1 7 5 169.88 5.52
1 -7 -5 181.72 6.12
0 -7 -5 14.76 2.03
0 7 5 15.58 1.75
1 7 5 132.67 4.2
-1 -7 -5 133.24 5.31
1 7 5 129.31 4.08
-2 -7 -5 35.89 3.13
2 7 5 38.24 2.54
3 7 5 10.58 1.76
-3 -7 -5 11.73 2.21
4 7 5 62.83 3.7
-4 -7 -5 53.91 3.9
-5 -7 -5 53.16 4.04
5 7 5 48.39 3.55
6 7 5 10.89 2.36
-6 -7 -5 10.61 2.59
7 7 5 7.4 2.29
-7 -7 -5 6.54 2.35
-5 8 5 3.72 1.65
5 -8 -5 11.52 2.41
-4 8 5 2.66 1.45
4 -8 -5 2.3 1.34
3 -8 -5 55.69 3.83
-3 8 5 61.73 3.9
2 -8 -5 1.32 1.14
-2 8 5 2.49 1.17
1 -8 -5 360.91 9.56
-1 8 5 368.38 8.88
0 -8 -5 3.03 1.33
0 8 5 3.34 1.18
-1 -8 -5 0.47 1.04
-2 -8 -5 48.19 3.61
2 8 5 46.69 2.88
3 8 5 78.9 4.02
-3 -8 -5 86.04 5.03
4 8 5 47.43 3.38
-4 -8 -5 40.42 3.8
-5 -8 -5 17.84 2.94
5 8 5 11.89 2.25
6 8 5 1.06 1.42
-6 -8 -5 4.08 1.95
5 -9 -5 4.82 2.06
-5 9 5 4.38 1.93
-4 9 5 37.99 3.66
4 -9 -5 35.56 3.6
3 -9 -5 34.84 3.42
-3 9 5 32.65 3.34
2 -9 -5 0.51 1.1
-2 9 5 -0.52 1.11
-1 9 5 2.26 1.27
1 -9 -5 -0.36 0.94
0 -9 -5 47.85 3.71
0 9 5 46.48 3.11
-1 -9 -5 78.66 4.69
-2 -9 -5 64.71 4.5
3 9 5 52.26 3.44
-3 -9 -5 53.97 4.25
4 9 5 2.04 1.25
-4 -9 -5 6.08 2.06
5 9 5 7.64 2.01
-5 -9 -5 7.69 2.57
-6 -9 -5 21.72 3.64
4 -10 -5 4.6 2.18
-4 10 5 2.69 1.96
3 -10 -5 2.48 1.56
-3 10 5 2.38 1.55
-2 10 5 -0.83 1.26
2 -10 -5 1.37 1.29
-1 10 5 1.5 1.24
1 -10 -5 0.06 1.18
0 10 5 303.67 8.41
0 -10 -5 298.5 9.72
-1 -10 -5 16 2.76
-2 -10 -5 17.87 2.93
-3 -10 -5 1.57 1.65
4 10 5 9.82 2.21
-4 -10 -5 17.84 3.31
-5 -10 -5 18.57 3.52
5 10 5 21.04 3.1
-3 11 5 30.25 3.74
3 -11 -5 31.9 3.9
-2 11 5 27.49 3.43
2 -11 -5 35.3 3.86
-1 11 5 0.53 1.38
1 -11 -5 1.8 1.68
0 -11 -5 11.02 2.62
-1 -11 -5 12.99 2.75
-2 -11 -5 11.36 2.67
-3 -11 -5 14.89 3.06
-4 -11 -5 16.51 3.3
1 -12 -5 -0.11 1.58
0 -12 -5 2.54 1.86
-1 -12 -5 54.06 4.82
-2 -12 -5 10.58 2.67
-1 -10 6 0.6 1.49
0 -10 6 6.95 2.24
1 -10 6 20.5 3.16
-3 10 -6 18.96 3.23
3 9 -6 5.71 2.3
2 9 -6 15.12 2.59
-1 -9 6 0.41 1.27
0 -9 6 2.13 1.46
1 -9 6 3.81 1.68
2 -9 6 31.95 3.61
-3 9 -6 24.19 3.27
-4 9 -6 31.23 3.77
4 8 -6 8.32 2.43
3 8 -6 12.14 2.45
-2 -8 6 7.16 1.82
2 8 -6 13.2 2.45
1 8 -6 4.19 1.5
-1 -8 6 2.56 1.37
0 -8 6 14.23 2.34
0 8 -6 20.56 2.36
1 -8 6 42.62 3.66
2 -8 6 71.08 4.62
3 -8 6 8.46 2.31
-4 8 -6 17.85 2.8
-5 8 -6 0.77 1.44
4 7 -6 17.92 2.86
3 7 -6 11.49 2.28
-2 -7 6 11.75 2.07
2 7 -6 11.47 2.14
1 7 -6 95.32 4.55
-1 -7 6 88.88 4.61
0 7 -6 12.75 1.82
0 -7 6 15.44 2.28
-1 7 -6 4.47 1.22
1 -7 6 3.03 1.31
2 -7 6 1.87 1.06
3 -7 6 11.75 2.24
-4 7 -6 88.37 4.83
-5 7 -6 23.85 2.97
5 -7 6 28.77 3.11
-6 7 -6 1.54 1.47
6 -7 6 3.47 1.75
5 6 -6 7.47 2.3
4 6 -6 7.14 1.93
3 6 -6 44.33 3.62
-3 -6 6 44.54 3.17
2 6 -6 69.35 4
-2 -6 6 67.02 3.74
-1 -6 6 22.66 2.38
1 6 -6 22.56 2.34
0 -6 6 5.1 1.42
0 6 -6 7.01 1.45
-1 6 -6 0.84 0.94
1 -6 6 1.09 0.91
2 -6 6 39.04 3.17
-2 6 -6 35.1 2.45
3 -6 6 105.65 5.07
4 -6 6 10.23 1.88
5 -6 6 55.95 3.91
-5 6 -6 55.33 3.76
-6 6 -6 5.39 1.68
6 -6 6 5.67 1.87
7 -6 6 5.5 2.16
5 5 -6 2.91 1.66
4 5 -6 40.91 3.62
-3 -5 6 80.34 4.04
3 5 -6 83.71 4.49
-2 -5 6 55.66 3.32
2 5 -6 59.88 3.54
1 5 -6 0.37 0.8
-1 -5 6 0.32 0.72
0 5 -6 75.49 3.51
0 -5 6 81.72 3.85
-1 5 -6 2.69 1.11
1 -5 6 2.85 1.03
2 -5 6 16.54 2.08
-2 5 -6 14.83 1.63
3 -5 6 3.53 1.22
-3 5 -6 5.02 1.17
3 -5 6 1.65 0.98
4 -5 6 114.29 4.69
4 -5 6 112.03 5.02
5 -5 6 121.26 5.4
-5 5 -6 115.16 5.02
6 -5 6 3.95 1.76
-6 5 -6 3.84 1.4
7 -5 6 12.1 2.55
6 4 -6 20.66 3.26
5 4 -6 4.88 1.8
4 4 -6 33.5 3.23
-4 -4 6 31.15 2.66
-3 -4 6 1.63 0.98
3 4 -6 0.77 1
-2 -4 6 63.67 3.36
2 4 -6 65.16 3.49
-1 -4 6 20.31 2.09
1 4 -6 21.28 2.09
0 4 -6 143.94 4.73
0 -4 6 146.92 5.04
1 -4 6 67.67 3.33
-1 4 -6 78.1 3.24
2 -4 6 75.04 3.62
-2 4 -6 62.79 2.91
2 -4 6 68.69 2.72
3 -4 6 52.36 3.05
3 -4 6 50.42 2.65
-3 4 -6 47.08 2.51
4 -4 6 22.56 2.24
4 -4 6 19.81 2.19
5 -4 6 33.48 2.92
-5 4 -6 40.14 2.79
6 -4 6 24.11 2.83
7 -4 6 17.7 2.94
6 3 -6 17.59 2.92
5 3 -6 -0.08 1.27
4 3 -6 0.08 0.99
-4 -3 6 0.12 0.84
-3 -3 6 14.04 1.78
3 3 -6 11.91 1.91
2 3 -6 288.04 7.36
-2 -3 6 281.68 7.12
-1 -3 6 492.77 9.6
1 3 -6 494.81 9.54
0 3 -6 123.34 4.16
0 -3 6 118.29 4.27
-1 3 -6 488.51 8.87
1 -3 6 493.26 9.42
2 -3 6 71.47 2.58
2 -3 6 76.05 3.35
-2 3 -6 75.23 3.05
3 -3 6 13.44 1.47
-3 3 -6 18.39 1.7
3 -3 6 17.88 1.83
4 -3 6 0.83 0.64
4 -3 6 1.06 0.73
4 -3 6 1.35 0.87
5 -3 6 150.15 5.57
-5 3 -6 156.63 5.07
6 -3 6 96.63 4.96
7 -3 6 6.76 1.93
8 -3 6 18.55 3.19
6 2 -6 4.57 1.73
5 2 -6 10.96 2.14
-4 -2 6 6.63 1.41
4 2 -6 12.55 2.05
3 2 -6 216.16 6.45
-3 -2 6 222.98 6.19
2 2 -6 60.86 3.14
-2 -2 6 58.16 3.06
-1 -2 6 417.76 8.31
1 2 -6 405.63 8.25
0 -2 6 0.17 0.61
0 2 -6 0.15 0.58
-1 2 -6 25.43 1.79
1 -2 6 28.73 1.15
1 -2 6 26.64 1.91
2 -2 6 0.64 0.49
-2 2 -6 -0.5 0.52
2 -2 6 0.17 0.56
3 -2 6 170.33 4.72
3 -2 6 169.33 4.82
3 -2 6 179.74 4.69
4 -2 6 32.42 2.2
4 -2 6 31.91 2.17
4 -2 6 33.35 2.31
5 -2 6 88.57 3.7
5 -2 6 89.11 4.19
-5 2 -6 89.69 3.63
6 -2 6 39.8 3.34
7 -2 6 11.11 2.35
-8 2 -6 29.2 3.59
6 1 -6 70.82 4.39
-5 -1 6 48.4 3.14
5 1 -6 41.61 3.35
-4 -1 6 13.18 1.83
4 1 -6 12.58 1.96
-3 -1 6 12.29 1.69
3 1 -6 13.74 1.78
2 1 -6 10.83 1.52
-2 -1 6 12.41 1.55
1 1 -6 332.72 7.05
-1 -1 6 343.16 7.15
0 1 -6 138.95 4.08
0 -1 6 142.08 4.16
-1 1 -6 624.66 7.82
-1 1 -6 606.44 9.79
1 -1 6 592.16 9.79
2 -1 6 729.08 11.26
-2 1 -6 733.13 10.28
2 -1 6 709.82 11.06
3 -1 6 5.59 1.1
3 -1 6 8.68 1.14
3 -1 6 7.51 1.11
4 -1 6 0.58 0.7
4 -1 6 0.95 0.73
4 -1 6 -0.43 0.43
5 -1 6 3.23 1.1
5 -1 6 5.53 1.41
6 -1 6 171.35 5.84
-6 1 -6 162.36 6.26
-7 1 -6 20.55 2.79
-8 1 -6 2.46 1.28
5 0 -6 13.65 2.09
-5 0 6 12.01 1.91
-4 0 6 17.8 2.01
4 0 -6 16.52 2.04
-3 0 6 51.61 2.98
3 0 -6 48.03 2.78
2 0 -6 78.29 2.18
2 0 -6 76.16 3.16
-2 0 6 77.1 3.31
1 0 -6 16.38 1.52
1 0 -6 13.74 0.73
-1 0 6 13.07 1.45
0 0 -6 812.64 11.78
0 0 6 786.65 11.81
1 0 6 50.36 2.33
-1 0 -6 52.14 1.68
1 0 6 49.85 2.22
-2 0 -6 120.57 3.19
2 0 6 110.21 3.31
2 0 6 110.62 3.61
-3 0 -6 3.72 0.92
3 0 6 6.56 1.15
3 0 6 5.52 0.85
4 0 6 170.02 4.09
-4 0 -6 173.65 5.18
4 0 6 166.65 5.05
5 0 6 78.63 3.72
-5 0 -6 71.1 3.66
6 0 6 78.77 4.02
-6 0 -6 80 4.27
7 0 6 4.68 1.57
-7 0 -6 2.95 1.45
-8 0 -6 0.13 1.19
-6 1 6 20.36 2.51
-5 1 6 112.24 4.84
-4 1 6 6.77 1.43
4 -1 -6 7.17 1.49
3 -1 -6 23.34 1.96
-3 1 6 25.96 2.23
3 -1 -6 23.78 1.79
2 -1 -6 56.66 2.16
-2 1 6 56.24 2.82
2 -1 -6 60.68 2.75
1 -1 -6 13.6 1.01
-1 1 6 16.73 1.58
1 -1 -6 13.83 1.34
0 1 6 354.3 6.73
0 -1 -6 356.79 5.35
0 -1 -6 352.73 6.6
1 1 6 248 5.47
-1 -1 -6 241.21 4.59
1 1 6 252.07 5.18
2 1 6 862.41 11.57
-2 -1 -6 857.3 12.07
2 1 6 863.09 12.68
-3 -1 -6 334.88 6.97
3 1 6 334.48 5.72
3 1 6 362.21 7.41
4 1 6 18.37 1.87
-4 -1 -6 21.36 1.95
5 1 6 4.67 1.34
-5 -1 -6 3.98 1.22
-6 -1 -6 39.92 3.1
6 1 6 37.74 3.07
-7 -1 -6 27.25 3.09
7 1 6 32.62 3.18
-8 -1 -6 4.95 1.93
8 1 6 13.85 2.58
-6 2 6 16.54 2.44
-5 2 6 51.33 3.38
4 -2 -6 29.71 2.39
-4 2 6 25.57 2.39
3 -2 -6 146.54 4.37
3 -2 -6 142.16 4.33
-3 2 6 138.21 4.88
-2 2 6 497.03 9.41
2 -2 -6 501.79 8.61
2 -2 -6 495.17 8.26
1 -2 -6 127.92 3.27
1 -2 -6 133.46 3.66
-1 2 6 126.76 4.01
0 -2 -6 119.52 3.13
0 -2 -6 119.13 3.41
0 2 6 118.97 3.57
-1 -2 -6 159.43 4.02
1 2 6 167.21 4.34
1 2 6 162.56 3.89
2 2 6 250.84 5.78
2 2 6 257.48 4.79
-2 -2 -6 250.57 5.55
3 2 6 0.46 0.34
3 2 6 0.74 0.61
-3 -2 -6 0.76 0.72
4 2 6 1.52 0.82
-4 -2 -6 0.5 0.88
5 2 6 33.37 2.69
-5 -2 -6 34.14 2.62
6 2 6 78.9 4.19
-6 -2 -6 77.07 4.31
7 2 6 87.82 4.9
-7 -2 -6 100.5 5.35
-8 -2 -6 21.26 3.22
8 2 6 29.12 3.38
-6 3 6 18.81 2.61
-5 3 6 46.3 3.36
5 -3 -6 52.32 3.36
4 -3 -6 160.76 5.35
-4 3 6 161.87 5.81
3 -3 -6 1.55 0.92
-3 3 6 2.54 1.05
2 -3 -6 299.34 5.95
-2 3 6 293.07 7.07
2 -3 -6 290.72 6.27
-1 3 6 89.59 3.48
1 -3 -6 101.31 3.05
1 -3 -6 100.53 3.25
0 -3 -6 9.26 1.14
0 3 6 5.67 0.99
0 3 6 8.87 1.08
-1 -3 -6 105.32 3.6
1 3 6 103.61 3.06
1 3 6 108.85 3.41
2 3 6 38.28 1.66
2 3 6 40.29 2.25
3 3 6 155.71 4.82
-3 -3 -6 151.49 4.83
-4 -3 -6 114.84 4.48
4 3 6 113.81 4.41
5 3 6 22.23 2.37
-5 -3 -6 21.19 2.32
6 3 6 80.69 4.34
-6 -3 -6 89.88 4.69
7 3 6 73.38 4.5
-7 -3 -6 70.08 4.53
8 3 6 3.39 1.81
-8 -3 -6 4.4 1.98
-6 4 6 58.12 4.14
6 -4 -6 53.86 3.98
-5 4 6 51.95 3.67
5 -4 -6 45.12 3.31
-4 4 6 59.96 3.6
4 -4 -6 62.73 3.45
3 -4 -6 296.04 7.28
-3 4 6 291.14 7.69
-2 4 6 290.39 7.17
2 -4 -6 281.44 6.62
-1 4 6 492.94 9.3
1 -4 -6 505.13 7.91
1 -4 -6 519.25 9.19
0 4 6 229.23 5.36
0 -4 -6 230.13 5.64
0 4 6 219.07 4.84
1 4 6 7.13 1.13
-1 -4 -6 7.31 1.36
1 4 6 6.84 0.97
2 4 6 73.03 3.08
2 4 6 75.19 2.34
-2 -4 -6 75.69 3.48
-3 -4 -6 194.25 5.87
3 4 6 184.28 5.45
4 4 6 44.65 2.79
-4 -4 -6 39.51 2.86
-5 -4 -6 89.35 4.48
5 4 6 85.9 4.24
-6 -4 -6 -1.51 0.81
6 4 6 0.31 1.06
7 4 6 29.3 3.26
-7 -4 -6 28.95 3.32
-8 -4 -6 6.29 2.15
8 4 6 10.16 2.5
-6 5 6 2.4 1.58
6 -5 -6 2.43 1.24
5 -5 -6 17.59 2.46
-5 5 6 23.28 2.83
-4 5 6 106.66 4.89
4 -5 -6 92.8 4.47
-3 5 6 14.14 1.98
3 -5 -6 16.46 1.97
-2 5 6 8.52 1.54
2 -5 -6 9.63 1.53
-1 5 6 201.99 5.63
1 -5 -6 198.21 5.6
0 5 6 47.59 2.49
0 -5 -6 48.54 2.83
0 5 6 48.86 2.21
-1 -5 -6 55.94 3.16
1 5 6 57.47 2.61
1 5 6 57.69 2.46
-2 -5 -6 112.89 4.67
2 5 6 112.09 3.98
3 5 6 301.46 7.38
-3 -5 -6 318.46 8.14
-4 -5 -6 41.77 3.14
4 5 6 54.32 3.25
5 5 6 0.94 0.92
-5 -5 -6 -0.62 0.72
-6 -5 -6 -0.05 1.17
6 5 6 0.91 1.08
-7 -5 -6 33.92 3.66
7 5 6 42.86 4.02
-6 6 6 12.65 2.59
6 -6 -6 10.5 2.47
5 -6 -6 87.38 4.87
-5 6 6 91.61 4.97
4 -6 -6 81.52 4.34
-4 6 6 84.53 4.56
3 -6 -6 28.69 2.6
-3 6 6 27.01 2.71
-2 6 6 515.96 10.58
2 -6 -6 494.69 10.48
1 -6 -6 292.3 7.49
-1 6 6 291.12 7.18
0 6 6 350.65 7.47
0 -6 -6 353.88 8.41
0 6 6 358.24 6.54
-1 -6 -6 398.15 9.37
1 6 6 401.97 7.74
1 6 6 393.55 7.49
2 6 6 115.26 4.2
-2 -6 -6 113.43 4.94
3 6 6 5.2 1.23
-3 -6 -6 7.39 1.73
-4 -6 -6 2.58 1.25
4 6 6 2.4 1.1
-5 -6 -6 11.68 2.29
5 6 6 10.34 1.99
6 6 6 13.1 2.4
-6 -6 -6 13.06 2.59
-7 -6 -6 21.17 3.26
7 6 6 18.37 3.1
6 -7 -6 17.16 3.04
-6 7 6 15.77 3.11
-5 7 6 0.42 1.16
5 -7 -6 2.58 1.41
-4 7 6 30.22 3.16
4 -7 -6 22.99 2.69
-3 7 6 93.8 4.68
3 -7 -6 100.58 4.79
2 -7 -6 0.83 0.94
-2 7 6 -0.53 0.68
1 -7 -6 103.17 4.62
-1 7 6 107.46 4.43
0 -7 -6 131.31 5.24
0 7 6 134.2 4.62
1 7 6 92.42 3.55
-1 -7 -6 91.38 4.48
1 7 6 90.67 3.53
-2 -7 -6 10.06 1.99
2 7 6 11.86 1.72
-3 -7 -6 20.87 2.65
3 7 6 28.74 2.52
-4 -7 -6 81.91 4.86
4 7 6 86.51 4.37
5 7 6 36.42 3.32
-5 -7 -6 42.58 3.84
6 7 6 28.58 3.3
-6 -7 -6 23.23 3.31
-7 -7 -6 0.14 1.64
7 7 6 1.58 1.84
5 -8 -6 8.74 2.2
-5 8 6 7.64 2.1
-4 8 6 114.72 5.68
4 -8 -6 97.66 5.36
3 -8 -6 149.73 6.32
-3 8 6 153.78 6.3
2 -8 -6 13.04 2.16
-2 8 6 16.09 2.28
-1 8 6 149.77 5.59
1 -8 -6 151.9 6.02
0 -8 -6 62.52 3.87
0 8 6 63.16 3.43
-1 -8 -6 22.93 2.74
-2 -8 -6 113.28 5.48
2 8 6 131.43 4.75
3 8 6 91.69 4.29
-3 -8 -6 91.09 5.27
-4 -8 -6 39.02 3.77
4 8 6 38.11 3.27
5 8 6 28 3.14
-5 -8 -6 29.94 3.59
-6 -8 -6 1.24 1.59
6 8 6 2.18 1.57
-4 9 6 4.01 1.77
4 -9 -6 1.43 1.38
-3 9 6 36.44 3.47
3 -9 -6 35.41 3.54
2 -9 -6 53.6 3.93
-2 9 6 49.13 3.61
1 -9 -6 14.29 2.4
-1 9 6 6.54 1.68
0 9 6 44.03 3.07
0 -9 -6 32.81 3.24
-1 -9 -6 62.88 4.22
-2 -9 -6 78.54 4.85
-3 -9 -6 31.76 3.58
3 9 6 24.94 2.57
4 9 6 24.43 2.83
-4 -9 -6 21.19 3.32
-5 -9 -6 7.46 2.39
5 9 6 5.77 1.73
6 9 6 13.24 2.78
-6 -9 -6 12.05 3.11
4 -10 -6 1.8 1.83
-4 10 6 2.88 1.74
3 -10 -6 64.54 4.75
-3 10 6 64.23 4.63
-2 10 6 36.66 3.57
2 -10 -6 41.78 3.86
1 -10 -6 6.82 1.9
-1 10 6 5.69 1.73
0 -10 -6 1 1.5
-1 -10 -6 35.43 3.6
-2 -10 -6 30.09 3.59
-3 -10 -6 9 2.45
4 10 6 39 3.55
-4 -10 -6 29.69 3.84
5 10 6 1.72 1.53
-5 -10 -6 1.07 2.14
-3 11 6 1.6 1.62
3 -11 -6 0.08 1.66
2 -11 -6 39.25 4.05
-2 11 6 29.7 3.5
1 -11 -6 19.49 3.12
-1 11 6 22.61 2.96
0 -11 -6 4.45 1.83
-1 -11 -6 27.5 3.53
-2 -11 -6 4.25 1.94
-3 -11 -6 17.22 3.36
-4 -11 -6 13.45 3.29
0 -12 -6 2.75 1.84
-1 -12 -6 -0.75 1.49
-2 -12 -6 6.55 2.5
0 -10 7 -1.85 1.62
1 -10 7 1.48 1.99
2 9 -7 -0.55 1.24
-1 -9 7 31.1 3.48
0 -9 7 4.61 1.72
1 -9 7 1.56 1.6
2 -9 7 7.4 1.97
3 -9 7 6.17 2.29
-4 9 -7 16.17 3.1
3 8 -7 9.66 2.4
-2 -8 7 12.77 2.41
2 8 -7 13.38 2.52
-1 -8 7 26.76 3.11
1 8 -7 26.9 2.99
0 8 -7 7.6 1.72
0 -8 7 3.85 1.55
1 -8 7 3.33 1.43
2 -8 7 10.81 2.4
3 -8 7 24.38 3.32
-4 8 -7 3.82 1.66
-5 8 -7 3.04 1.75
4 7 -7 2.86 2.03
3 7 -7 6.87 2
-2 -7 7 11.24 2.03
2 7 -7 18.72 2.63
1 7 -7 21.78 2.6
-1 -7 7 13.26 2.29
0 -7 7 112.94 5.4
0 7 -7 117.01 5.01
1 -7 7 10.48 2.04
-1 7 -7 6.58 1.49
2 -7 7 1.99 1.11
3 -7 7 0.53 1.25
4 -7 7 16.09 2.75
-5 7 -7 28.96 3.24
-6 7 -7 1.92 1.41
4 6 -7 27.63 3.36
-3 -6 7 1.34 1.26
3 6 -7 1.95 1.29
-2 -6 7 71.72 4.08
2 6 -7 80.46 4.45
-1 -6 7 58.74 3.7
1 6 -7 65.49 3.77
0 -6 7 83.72 4.35
0 6 -7 76.86 3.91
1 -6 7 4.03 1.37
-1 6 -7 5.09 1.28
2 -6 7 -1.1 0.79
-2 6 -7 0.33 0.8
3 -6 7 10.09 2.1
4 -6 7 33.69 3.3
-5 6 -7 32.35 3.17
6 -6 7 3.54 1.82
-6 6 -7 -0.31 1.12
5 5 -7 5.01 2.14
4 5 -7 44.97 3.95
-3 -5 7 11.71 2.05
3 5 -7 9.82 2.02
-2 -5 7 14.41 2.12
2 5 -7 12.35 2.04
-1 -5 7 6.27 1.51
1 5 -7 3.3 1.12
0 -5 7 9.21 1.76
0 5 -7 9.11 1.6
-1 5 -7 167.29 5.37
1 -5 7 168.25 5.96
-2 5 -7 17.67 1.91
2 -5 7 12.04 2
-3 5 -7 42.7 2.68
3 -5 7 50.13 3.36
4 -5 7 34.51 3.11
-5 5 -7 26.44 2.67
5 -5 7 34.93 3.08
-6 5 -7 6.63 1.74
6 -5 7 9.56 2.18
7 -5 7 0.43 1.52
5 4 -7 11.43 2.54
4 4 -7 16.13 2.62
-4 -4 7 25.17 2.58
3 4 -7 22 2.66
-3 -4 7 26.01 2.57
-2 -4 7 13.73 1.95
2 4 -7 13.46 2.03
1 4 -7 85.38 3.91
-1 -4 7 78.82 3.89
0 4 -7 182.59 5.62
0 -4 7 179.17 5.87
-1 4 -7 264.73 6.66
1 -4 7 273.9 7.34
2 -4 7 5.12 1.42
-2 4 -7 6.77 1.39
3 -4 7 35.56 2.78
-3 4 -7 31.62 2.29
4 -4 7 0.01 0.82
4 -4 7 0.47 0.86
-4 4 -7 0.51 0.86
5 -4 7 34.79 2.97
-5 4 -7 33.58 2.77
6 -4 7 26.25 2.9
7 -4 7 0.52 1.42
6 3 -7 18.85 3.18
5 3 -7 2.87 1.45
-4 -3 7 8.57 1.77
4 3 -7 13.94 2.37
3 3 -7 112.46 4.97
-3 -3 7 105.92 4.54
2 3 -7 0.15 0.81
-2 -3 7 0.22 0.8
-1 -3 7 88.33 3.89
1 3 -7 82.04 3.74
0 3 -7 51.27 2.89
0 -3 7 50.24 2.99
-1 3 -7 195.68 5.46
1 -3 7 191.75 5.81
2 -3 7 53.32 2.98
-2 3 -7 51.17 2.75
3 -3 7 0.76 0.62
-3 3 -7 0.58 0.82
3 -3 7 0.83 0.83
4 -3 7 41.34 2.52
4 -3 7 40.13 2.77
4 -3 7 39.3 2.58
5 -3 7 53.49 3.36
-5 3 -7 55.64 3.17
6 -3 7 35.67 3.2
7 -3 7 9.57 2.38
-8 3 -7 1.5 1.67
5 2 -7 3.69 1.64
-5 -2 7 6.32 1.59
4 2 -7 3.62 1.44
-4 -2 7 5.96 1.54
3 2 -7 154.08 5.61
-3 -2 7 158.46 5.48
-2 -2 7 98.09 4.08
2 2 -7 89.81 4
1 2 -7 28.42 2.27
-1 -2 7 26.06 2.24
0 -2 7 158.85 4.94
0 2 -7 158.1 4.81
-1 2 -7 117.31 3.99
1 -2 7 108.35 4.03
2 -2 7 57.17 2.89
2 -2 7 57.68 2.19
-2 2 -7 61.53 2.87
3 -2 7 10.67 1.5
3 -2 7 11.06 1.3
3 -2 7 15.27 1.65
4 -2 7 45.03 2.61
4 -2 7 43.82 2.65
4 -2 7 40.38 2.55
5 -2 7 23.59 2.4
5 -2 7 22.05 2.24
6 -2 7 36.7 3.22
-7 2 -7 39.86 3.59
-8 2 -7 1.88 1.64
6 1 -7 19.9 2.91
5 1 -7 15.36 2.43
-5 -1 7 16.64 2.19
4 1 -7 1.19 1.11
-4 -1 7 2.35 1.01
-3 -1 7 180.61 5.71
3 1 -7 172.03 5.76
2 1 -7 404.56 8.69
-2 -1 7 404.53 8.79
1 1 -7 0.1 0.66
-1 -1 7 1.02 0.81
0 1 -7 1.41 0.7
0 -1 7 1.18 0.69
1 -1 7 67.63 2.96
-1 1 -7 60.73 2.85
2 -1 7 190.64 5.21
-2 1 -7 192.73 4.19
2 -1 7 190.12 5.14
-3 1 -7 17.18 1.54
3 -1 7 17.96 1.78
3 -1 7 18.58 1.67
4 -1 7 23.68 1.83
4 -1 7 19.83 1.97
-4 1 -7 22.61 2.03
-5 1 -7 48.92 3.07
5 -1 7 47.84 3.04
-6 1 -7 129.38 5.55
6 -1 7 126.11 5.19
-7 1 -7 23.84 2.92
-8 1 -7 17.16 3
-5 0 7 229.29 7.29
5 0 -7 244.24 7.67
-4 0 7 51.82 3.28
4 0 -7 45.05 3.15
3 0 -7 5.42 1.28
-3 0 7 2.83 1.11
2 0 -7 68.01 3.26
-2 0 7 68.09 3.38
-1 0 7 14.23 1.65
1 0 -7 18.61 1.74
0 0 7 323.65 6.91
0 0 -7 310.73 6.7
-1 0 -7 265.97 4.43
-1 0 -7 262.67 6.02
1 0 7 265.09 5.93
2 0 7 307.67 6.86
2 0 7 319.67 6.51
-2 0 -7 304.2 5.76
-3 0 -7 7.84 1.19
3 0 7 7.63 1.3
3 0 7 6.66 1.02
-4 0 -7 90.67 3.76
4 0 7 81.68 3.68
5 0 7 44.63 2.94
-5 0 -7 36.78 2.74
-6 0 -7 35.45 3.09
6 0 7 33.35 2.95
-7 0 -7 4.01 1.48
7 0 7 7.46 1.87
-8 0 -7 37.08 3.93
-6 1 7 31.95 3.17
-5 1 7 51.05 3.5
-4 1 7 3.45 1.2
4 -1 -7 8.55 1.67
3 -1 -7 32.01 2.31
-3 1 7 38.18 2.69
2 -1 -7 341.87 7.43
-2 1 7 332.26 7.72
1 -1 -7 719.44 11.56
1 -1 -7 753.84 9.57
-1 1 7 714.33 11.93
0 -1 -7 118.13 2.63
0 1 7 113.62 3.81
0 -1 -7 115.42 3.73
-1 -1 -7 56.2 2.1
1 1 7 50.34 2.51
1 1 7 47.42 2.31
2 1 7 322.06 6.31
-2 -1 -7 321.56 6.2
2 1 7 318.19 7.02
-3 -1 -7 45.01 2.45
3 1 7 47.42 2.13
3 1 7 42.46 2.57
4 1 7 18.66 1.99
-4 -1 -7 19.39 1.93
5 1 7 7.79 1.62
-5 -1 -7 4.06 1.19
-6 -1 -7 51.33 3.5
6 1 7 58.21 3.6
7 1 7 29.84 3.18
-7 -1 -7 31.22 3.29
-8 -1 -7 13.36 2.63
8 1 7 11.91 2.55
-6 2 7 19.98 2.77
-5 2 7 59.58 3.84
-4 2 7 363.55 9.11
-3 2 7 79.04 3.82
3 -2 -7 81.78 3.54
-2 2 7 61.2 3.16
2 -2 -7 56.25 2.44
2 -2 -7 55.57 2.74
1 -2 -7 2.08 0.68
1 -2 -7 1.44 0.66
-1 2 7 2.04 0.86
0 -2 -7 123.45 3.2
0 -2 -7 122.68 3.74
0 2 7 121.39 3.9
1 2 7 524.66 8.74
1 2 7 534.51 9.26
-1 -2 -7 512.91 8.52
-2 -2 -7 478 8.53
2 2 7 488.25 7.92
2 2 7 475.3 8.92
3 2 7 58.64 2.17
-3 -2 -7 61.51 2.97
3 2 7 56.74 2.92
4 2 7 3.77 1.14
-4 -2 -7 7.98 1.48
5 2 7 51.78 3.24
-5 -2 -7 45.58 3.08
-6 -2 -7 9.78 1.99
6 2 7 6.3 1.73
-7 -2 -7 63.71 4.37
7 2 7 54.94 4
-8 -2 -7 10.7 2.69
8 2 7 14.34 2.82
-6 3 7 19.02 2.81
-5 3 7 61.59 3.94
-4 3 7 208.16 6.86
-3 3 7 58.11 3.41
3 -3 -7 58.4 3
2 -3 -7 -0.14 0.55
-2 3 7 0.04 0.65
2 -3 -7 0.33 0.69
1 -3 -7 185.19 4.66
-1 3 7 185.17 5.34
1 -3 -7 189.98 4.68
0 3 7 425.04 8.06
0 3 7 425.05 7.78
0 -3 -7 427.35 7.6
1 3 7 164.92 4.65
-1 -3 -7 164.38 4.66
1 3 7 174.44 4.39
2 3 7 41.77 1.94
2 3 7 44.52 2.52
-2 -3 -7 45.44 2.62
-3 -3 -7 257.94 6.55
3 3 7 246.46 6.49
4 3 7 3.08 1.12
-4 -3 -7 4.19 1.19
5 3 7 17.91 2.29
-5 -3 -7 22.4 2.4
-6 -3 -7 10.11 2.01
6 3 7 9.78 2.07
7 3 7 83.96 4.98
-7 -3 -7 89.69 5.11
8 3 7 2.55 1.96
-8 -3 -7 6.47 2.34
-6 4 7 2.49 1.44
-5 4 7 28.68 3.03
4 -4 -7 137.91 5.19
-4 4 7 138.54 5.78
3 -4 -7 458.04 9.51
-3 4 7 453.37 10.32
2 -4 -7 10.46 1.52
-2 4 7 11.17 1.72
-1 4 7 40.09 2.59
1 -4 -7 32.91 2.24
1 -4 -7 32.7 1.89
0 4 7 40.5 2.15
0 4 7 42.46 2.37
0 -4 -7 43.12 2.51
-1 -4 -7 10.59 1.59
1 4 7 11.21 1.39
1 4 7 10.28 1.21
-2 -4 -7 401.65 8.6
2 4 7 371.39 7.87
2 4 7 378.16 6.6
-3 -4 -7 210.45 6.26
3 4 7 214.37 6.08
-4 -4 -7 62.35 3.55
4 4 7 59.94 3.4
5 4 7 108.26 4.91
-5 -4 -7 99.57 4.77
-6 -4 -7 11.25 2.17
6 4 7 9.72 2.13
7 4 7 6.25 2.02
-7 -4 -7 5.66 1.87
8 4 7 5 2.05
-8 -4 -7 7.75 2.49
-6 5 7 24.2 3.27
-5 5 7 43.22 3.76
5 -5 -7 43.94 3.4
-4 5 7 65.2 4.03
4 -5 -7 67.81 3.85
3 -5 -7 162.24 5.52
-3 5 7 157.63 5.91
-2 5 7 64.15 3.49
2 -5 -7 65.56 3.4
-1 5 7 29.01 2.39
1 -5 -7 29.7 2.33
0 5 7 9.21 1.21
0 5 7 8.12 1.31
0 -5 -7 8.83 1.5
-1 -5 -7 250.73 6.78
1 5 7 245.36 5.71
1 5 7 242.29 5.87
2 5 7 99.31 3.87
-2 -5 -7 93.7 4.33
-3 -5 -7 327.97 8.44
3 5 7 323.24 7.87
-4 -5 -7 161.94 6.08
4 5 7 174.14 5.95
5 5 7 1.41 0.86
-5 -5 -7 0.54 1.01
6 5 7 5.35 1.66
-6 -5 -7 3.48 1.47
7 5 7 -0.14 1.17
-7 -5 -7 -0.9 1.05
-6 6 7 10.43 2.66
-5 6 7 0.84 1.3
5 -6 -7 2.97 1.45
-4 6 7 6.77 1.86
4 -6 -7 9.97 2
3 -6 -7 102.1 4.66
-3 6 7 103.05 4.82
2 -6 -7 199.56 6.2
-2 6 7 200.45 6.44
1 -6 -7 38.8 2.78
-1 6 7 47.6 2.96
0 6 7 27.91 2.21
0 -6 -7 25.48 2.38
0 6 7 28.1 1.87
1 6 7 8.38 1.31
-1 -6 -7 4.06 1.35
1 6 7 8.59 1.41
-2 -6 -7 99.97 4.79
2 6 7 100.27 3.99
3 6 7 201.13 6.23
-3 -6 -7 196.04 6.83
4 6 7 1.83 0.97
-4 -6 -7 0.75 1.08
5 6 7 6.67 1.68
-5 -6 -7 11.5 2.28
-6 -6 -7 30.53 3.43
6 6 7 26.2 3.06
-7 -6 -7 19.18 3.12
7 6 7 17.09 2.97
5 -7 -7 40.98 3.74
-5 7 7 41.78 3.99
-4 7 7 23.21 2.93
4 -7 -7 28.95 3.02
-3 7 7 42.92 3.44
3 -7 -7 38.74 3.22
-2 7 7 72.86 4.02
2 -7 -7 73.95 4.06
-1 7 7 -0.69 0.86
1 -7 -7 -0.03 0.92
0 7 7 124.19 4.63
0 -7 -7 136.46 5.33
-1 -7 -7 41.93 3.16
1 7 7 32.84 2.25
1 7 7 34.76 2.34
2 7 7 0.9 0.8
-2 -7 -7 1.02 1.2
-3 -7 -7 28.85 3.07
3 7 7 26.54 2.49
4 7 7 60.53 3.67
-4 -7 -7 57.13 4.14
5 7 7 48.88 3.62
-5 -7 -7 50.88 3.98
6 7 7 31.21 3.44
-6 -7 -7 29.32 3.61
7 7 7 2.58 2.02
-7 -7 -7 3.22 2.1
-5 8 7 25.05 3.47
5 -8 -7 29.44 3.45
4 -8 -7 4.13 1.51
-4 8 7 5.35 1.85
3 -8 -7 19.35 2.59
-3 8 7 16.01 2.59
-2 8 7 40.78 3.31
2 -8 -7 43.62 3.5
1 -8 -7 151.39 6.09
-1 8 7 163.4 5.89
0 -8 -7 58.01 3.79
0 8 7 65.75 3.57
-1 -8 -7 7.76 1.91
-2 -8 -7 6.29 1.86
2 8 7 8.94 1.54
-3 -8 -7 41.9 3.81
3 8 7 48.15 3.23
-4 -8 -7 182.27 7.65
4 8 7 182.91 6.7
-5 -8 -7 0.27 1.66
5 8 7 0.58 1.01
6 8 7 12.16 2.47
-6 -8 -7 8.62 2.58
-4 9 7 52.28 4.52
4 -9 -7 60.29 4.53
-3 9 7 34.31 3.54
3 -9 -7 45.92 3.95
-2 9 7 20.95 2.7
2 -9 -7 21.67 2.82
1 -9 -7 0.1 1.1
-1 9 7 -0.72 0.95
0 -9 -7 1.05 1.2
0 9 7 2.49 1.29
-1 -9 -7 74.04 4.62
-2 -9 -7 42.47 3.84
3 9 7 23.1 2.55
-3 -9 -7 14.35 2.73
-4 -9 -7 64.7 4.91
4 9 7 62.02 4.05
-5 -9 -7 1.4 1.95
5 9 7 1.25 1.28
3 -10 -7 3.56 1.63
-3 10 7 1.7 1.6
-2 10 7 2.26 1.57
2 -10 -7 2.95 1.53
1 -10 -7 1.5 1.34
-1 10 7 1.45 1.37
0 -10 -7 89.77 5.36
-1 -10 -7 64.1 4.51
-2 -10 -7 7.74 2.33
-3 -10 -7 2.74 1.83
4 10 7 32.35 3.24
-4 -10 -7 28.85 3.9
5 10 7 26.31 3.3
2 -11 -7 48.27 4.56
-2 11 7 44.97 4.08
-1 11 7 11.6 2.47
1 -11 -7 10.05 2.36
0 -11 -7 6.46 1.95
-1 -11 -7 7.24 2.2
-2 -11 -7 15.28 2.89
-3 -11 -7 9.92 2.75
-1 -9 8 4.54 2.06
1 9 -8 6.19 2.1
0 -9 8 19.68 3.12
1 -9 8 0.69 1.52
2 -9 8 0.49 1.89
3 -9 8 7.76 2.51
-2 -8 8 8.37 2.2
2 8 -8 10.03 2.39
-1 -8 8 9.63 2.24
1 8 -8 11.38 2.35
0 -8 8 20.73 2.99
0 8 -8 23.71 2.72
1 -8 8 10.63 2.34
2 -8 8 34.14 3.66
3 -8 8 4.65 1.99
4 -8 8 -0.86 1.36
3 7 -8 2.7 1.74
-2 -7 8 6.3 1.81
2 7 -8 4.79 1.73
-1 -7 8 21.99 2.81
1 7 -8 20.21 2.61
0 -7 8 42.69 3.71
0 7 -8 43.67 3.3
-1 7 -8 30.79 2.76
1 -7 8 30.62 3.25
2 -7 8 -0.29 1.05
3 -7 8 0.34 1.2
4 -7 8 7.3 2.25
-5 7 -8 6.41 1.79
4 6 -8 17.48 3.07
-3 -6 8 15.64 2.53
3 6 -8 19.45 2.85
2 6 -8 5.47 1.65
-2 -6 8 3.65 1.45
1 6 -8 52.49 3.58
-1 -6 8 52.95 3.68
0 6 -8 18.51 2.26
0 -6 8 16.49 2.38
1 -6 8 1.32 1.06
-1 6 -8 1.3 1.03
-2 6 -8 3.44 1.28
2 -6 8 1.06 1.13
3 -6 8 49.67 3.74
4 -6 8 4.27 1.66
-5 6 -8 4.24 1.58
-6 6 -8 37.5 3.53
4 5 -8 5.23 1.96
-3 -5 8 79.82 4.49
3 5 -8 80.94 4.79
-2 -5 8 6.75 1.67
2 5 -8 2.88 1.36
1 5 -8 7.48 1.73
-1 -5 8 9.43 1.81
0 5 -8 27.66 2.53
0 -5 8 27.12 2.68
-1 5 -8 73.42 3.76
1 -5 8 71.23 4.02
2 -5 8 17.37 2.34
-2 5 -8 15.9 1.92
-3 5 -8 6.34 1.32
3 -5 8 7.64 1.79
4 -5 8 25.58 2.88
5 4 -8 2.82 1.89
4 4 -8 12.23 2.54
-4 -4 8 10.42 2.02
3 4 -8 26.87 2.97
-3 -4 8 30.22 2.89
-2 -4 8 -1.33 0.73
2 4 -8 -0.69 0.74
1 4 -8 25.45 2.47
-1 -4 8 23.44 2.47
0 4 -8 148.07 5.32
0 -4 8 140.15 5.45
-1 4 -8 61.24 3.28
1 -4 8 57.89 3.49
-2 4 -8 1.95 0.96
2 -4 8 3.31 1.24
-3 4 -8 46.55 2.77
3 -4 8 48.02 3.24
4 -4 8 39.01 3.12
-4 4 -8 33.6 2.41
5 -4 8 15.9 2.28
6 -4 8 1.46 1.27
7 -4 8 57.7 4.54
5 3 -8 10.48 2.48
4 3 -8 1.8 1.59
-4 -3 8 -0.52 0.98
-3 -3 8 2.64 1.21
3 3 -8 2.71 1.38
-2 -3 8 69.8 3.81
2 3 -8 60.51 3.73
1 3 -8 42.78 2.89
-1 -3 8 34.83 2.81
0 3 -8 89.24 3.98
0 -3 8 92.25 4.13
-1 3 -8 354.33 8.1
1 -3 8 350.27 8.57
2 -3 8 67.45 3.52
-2 3 -8 62.82 3.2
-3 3 -8 7.3 1.34
3 -3 8 9.3 1.69
4 -3 8 2.46 1.12
-4 3 -8 1.03 0.81
5 -3 8 6.23 1.6
5 -3 8 7.31 1.6
5 -3 8 5.79 1.47
6 -3 8 4.37 1.57
7 -3 8 8.94 2.34
6 2 -8 1.36 1.65
5 2 -8 79.71 4.96
-5 -2 8 70.18 4.24
4 2 -8 0.99 1.19
-4 -2 8 1.64 1.22
-3 -2 8 70.13 3.86
3 2 -8 73.78 4.11
-2 -2 8 35.96 2.7
2 2 -8 33.38 2.74
1 2 -8 2.56 1.17
-1 -2 8 3.66 1.1
0 -2 8 259.53 6.87
0 2 -8 249.76 6.6
1 -2 8 213.39 6.1
-1 2 -8 205.95 5.84
2 -2 8 21.92 2.09
-2 2 -8 25.9 2.26
3 -2 8 7.17 1.38
-3 2 -8 3.6 1.11
4 -2 8 41.48 2.6
4 -2 8 41.32 2.7
4 -2 8 43.85 2.76
5 -2 8 10.96 1.86
5 -2 8 8.71 1.68
-6 2 -8 29.9 2.92
-7 2 -8 3.98 1.49
-8 2 -8 76.76 5.21
6 1 -8 5.67 2.06
5 1 -8 148.51 6.5
-5 -1 8 142.1 5.97
-4 -1 8 21.75 2.52
4 1 -8 29.93 2.97
3 1 -8 9.46 1.8
-3 -1 8 9.37 1.76
2 1 -8 13.02 1.82
-2 -1 8 13.81 1.87
1 1 -8 10.27 1.61
-1 -1 8 8.67 1.54
0 1 -8 10 1.5
0 -1 8 9.91 1.55
-1 1 -8 89.62 3.7
1 -1 8 92.9 3.75
-2 1 -8 518.6 9.83
2 -1 8 505.21 9.7
3 -1 8 33.92 2.25
-3 1 -8 32.92 2.06
3 -1 8 30.21 2.24
4 -1 8 111.79 4.46
-4 1 -8 103.28 4
4 -1 8 105.61 3.91
-5 1 -8 0.35 0.71
5 -1 8 1.15 1.02
-6 1 -8 56.39 3.66
6 -1 8 52.55 3.46
-7 1 -8 0.66 1.18
-8 1 -8 9.3 2.56
-5 0 8 2.25 1.26
5 0 -8 2.17 1.45
4 0 -8 160.33 5.99
-4 0 8 156.71 5.97
3 0 -8 26 2.51
-3 0 8 24.49 2.46
2 0 -8 93.3 4.05
-2 0 8 95.44 4.15
-1 0 8 28.28 2.29
1 0 -8 29.55 2.17
0 0 -8 -0.08 0.57
0 0 8 0.31 0.65
-1 0 -8 394.56 8.11
1 0 8 384.02 7.93
2 0 8 476.73 9.4
2 0 8 476.47 8.96
-2 0 -8 487.02 7.82
3 0 8 28.66 1.99
-3 0 -8 28.79 1.97
3 0 8 33.17 2.37
4 0 8 44.29 2.86
-4 0 -8 40.01 2.6
5 0 8 53.59 3.34
-5 0 -8 49.18 3.13
6 0 8 1.42 1.24
-6 0 -8 -0.17 0.92
7 0 8 3.26 1.63
-7 0 -8 5.31 1.81
-8 0 -8 3.71 2.11
-6 1 8 18.11 2.72
-5 1 8 3.87 1.54
4 -1 -8 274.15 7.73
-4 1 8 264.36 7.93
3 -1 -8 3.35 1.19
-3 1 8 3.53 1.14
-2 1 8 72.62 3.64
2 -1 -8 72.13 3.45
1 -1 -8 2.21 0.93
-1 1 8 1.68 0.98
0 1 8 6.41 1.22
0 -1 -8 9.6 1.42
1 1 8 72.86 3.09
-1 -1 -8 79.54 2.59
-1 -1 -8 75.74 3.28
2 1 8 158.86 4.98
-2 -1 -8 161.58 4.21
2 1 8 162.95 4.58
-3 -1 -8 360.75 7.49
3 1 8 381.3 7.24
3 1 8 370.55 8.31
-4 -1 -8 56.33 3.18
4 1 8 60.28 3.39
5 1 8 61.2 3.59
-5 -1 -8 56.79 3.36
-6 -1 -8 1.39 1.03
6 1 8 0.73 1.08
-7 -1 -8 28.82 3.17
7 1 8 30.92 3.17
8 1 8 2.47 1.6
-8 -1 -8 3.62 1.99
-6 2 8 23.52 3.1
-5 2 8 2.37 1.35
-4 2 8 0.68 0.93
-3 2 8 98.05 4.55
3 -2 -8 106.07 4.24
-2 2 8 225.57 6.57
2 -2 -8 230.21 6.05
1 -2 -8 155.82 4.67
-1 2 8 155.68 5.04
0 2 8 1.09 0.76
0 -2 -8 1.1 0.66
0 -2 -8 0.84 0.68
1 2 8 10.09 1.46
1 2 8 9.21 1.25
-1 -2 -8 12.34 1.37
2 2 8 501.39 9.76
-2 -2 -8 495.61 8.91
2 2 8 511.07 8.7
-3 -2 -8 91.97 3.7
3 2 8 84.23 3.8
-4 -2 -8 -0.4 0.82
4 2 8 -0.28 0.65
-5 -2 -8 116.69 4.91
5 2 8 131.44 5.29
6 2 8 3.11 1.49
-6 -2 -8 1.46 1.11
-7 -2 -8 9.23 2.13
7 2 8 10.96 2.28
8 2 8 10.81 2.55
-8 -2 -8 10.72 2.72
-6 3 8 9.2 2.22
-5 3 8 16.14 2.5
-4 3 8 20.43 2.54
-3 3 8 298.23 8.19
2 -3 -8 30.3 2.16
-2 3 8 34.35 2.7
1 -3 -8 189.79 5.06
-1 3 8 184.26 5.61
1 -3 -8 195.73 4.81
0 -3 -8 7.13 1.17
0 -3 -8 8.7 1.25
0 3 8 8.76 1.41
-1 -3 -8 36.66 2.34
1 3 8 36.05 2.3
1 3 8 36.52 2.19
2 3 8 29.79 1.84
-2 -3 -8 26.28 2.18
2 3 8 24.23 2.09
3 3 8 38.69 2.6
-3 -3 -8 38.55 2.62
4 3 8 48.59 3.13
-4 -3 -8 45.77 2.96
-5 -3 -8 51.9 3.37
5 3 8 62.81 3.76
6 3 8 105.67 5.19
-6 -3 -8 101.11 5.03
7 3 8 6.62 1.89
-7 -3 -8 3.6 1.59
8 3 8 7.22 2.46
-8 -3 -8 8.83 2.57
-6 4 8 80.42 5.27
-5 4 8 55.29 4.04
-4 4 8 12.23 2.21
-3 4 8 1.92 1.02
2 -4 -8 39.84 2.55
-2 4 8 40.02 2.9
-1 4 8 324.24 7.82
1 -4 -8 316.88 6.71
1 -4 -8 325.17 7.06
0 -4 -8 26.46 2.09
0 4 8 26.71 1.95
0 4 8 30.57 2.18
1 4 8 3.54 0.97
-1 -4 -8 1.91 1.12
1 4 8 2.04 0.92
2 4 8 49.98 2.86
-2 -4 -8 49.97 3.15
2 4 8 48.5 2.31
3 4 8 361.72 8.49
-3 -4 -8 383.21 8.94
4 4 8 4.59 1.28
-4 -4 -8 2.84 1.15
5 4 8 76.67 4.25
-5 -4 -8 78.66 4.29
6 4 8 79.03 4.65
-6 -4 -8 80.02 4.72
-7 -4 -8 0.73 1.3
7 4 8 0.49 1.37
-6 5 8 0.57 1.84
-5 5 8 17.14 2.71
-4 5 8 22.16 2.79
3 -5 -8 43.6 2.89
-3 5 8 35.56 3.18
2 -5 -8 117.23 4.51
-2 5 8 114.54 4.92
1 -5 -8 19.87 2.05
-1 5 8 16.83 2
0 5 8 25.4 2.18
0 -5 -8 26.22 2.26
0 5 8 28.91 2
1 5 8 75.25 3.14
-1 -5 -8 68.67 3.61
1 5 8 78.95 3.38
2 5 8 31.49 2.49
-2 -5 -8 31.97 2.89
-3 -5 -8 404.62 9.74
3 5 8 389.57 9.06
4 5 8 18.73 2.28
-4 -5 -8 19.55 2.48
5 5 8 1.68 1.03
-5 -5 -8 3.66 1.48
6 5 8 26.27 3.15
-6 -5 -8 24.62 3
-7 -5 -8 12.5 2.64
7 5 8 13.51 2.83
-5 6 8 132.69 6.59
4 -6 -8 51.53 3.57
-4 6 8 50.32 4
3 -6 -8 27.79 2.69
-3 6 8 29.44 2.96
2 -6 -8 15.81 2
-2 6 8 14.07 2.1
1 -6 -8 24.87 2.35
-1 6 8 24.3 2.38
0 6 8 188.28 5.01
0 -6 -8 178.83 5.78
0 6 8 185.53 5.66
-1 -6 -8 24.31 2.46
1 6 8 20.99 1.96
1 6 8 25.91 2.12
2 6 8 107.88 4.28
-2 -6 -8 111.67 5.03
3 6 8 89.53 4.15
-3 -6 -8 93.97 4.86
4 6 8 98.31 4.71
-4 -6 -8 91.72 4.87
5 6 8 8.52 1.97
-5 -6 -8 8.33 2.22
-6 -6 -8 25.93 3.24
6 6 8 27.97 3.25
7 6 8 42.76 4.23
-7 -6 -8 38.88 4.31
-5 7 8 2.59 2.07
4 -7 -8 4.09 1.56
-4 7 8 4.08 1.86
3 -7 -8 35 3.11
-3 7 8 31.73 3.24
2 -7 -8 59.37 3.61
-2 7 8 63.04 3.9
1 -7 -8 69.94 3.86
-1 7 8 85.18 4.17
0 7 8 45.39 2.98
0 -7 -8 51.52 3.42
1 7 8 22.01 2.03
-1 -7 -8 22.82 2.56
1 7 8 20.29 2.02
-2 -7 -8 16.89 2.37
2 7 8 17.76 2.02
-3 -7 -8 5.03 1.77
3 7 8 7.6 1.57
4 7 8 213.96 7.26
-4 -7 -8 210.52 7.9
5 7 8 0.46 1.13
-5 -7 -8 2.86 1.66
6 7 8 24.89 3.29
-6 -7 -8 16.68 2.91
4 -8 -8 113.55 5.77
-3 8 8 65.03 4.38
3 -8 -8 61.12 4.13
2 -8 -8 66.75 4.15
-2 8 8 69.97 4.32
1 -8 -8 1.13 1.07
-1 8 8 0.39 1.03
0 -8 -8 15.32 2.4
0 8 8 16.44 2.13
-1 -8 -8 4.43 1.56
2 8 8 3.38 1.14
-2 -8 -8 1.18 1.32
-3 -8 -8 18.14 2.9
3 8 8 27.2 2.71
4 8 8 136.5 5.93
-4 -8 -8 147.28 6.96
-5 -8 -8 35.42 3.96
5 8 8 28.03 3.25
-6 -8 -8 -0.13 1.89
6 8 8 0.32 1.56
-4 9 8 11.78 2.54
4 -9 -8 18.23 2.93
3 -9 -8 2.78 1.62
-3 9 8 1.15 1.54
2 -9 -8 39.93 3.64
-2 9 8 35.71 3.45
-1 9 8 9.53 2.04
1 -9 -8 13.73 2.39
0 -9 -8 20.34 2.79
0 9 8 22.08 2.52
-1 -9 -8 12.18 2.33
-2 -9 -8 7.37 1.98
-3 -9 -8 32.32 3.63
3 9 8 26.99 2.77
4 9 8 25.44 3.03
-4 -9 -8 24.98 3.57
5 9 8 85.54 5.23
-5 -9 -8 95.79 6.28
3 -10 -8 46.63 4.29
-2 10 8 31.79 3.61
2 -10 -8 28.9 3.39
-1 10 8 28.57 3.25
1 -10 -8 24.86 3.23
0 -10 -8 15.51 2.72
-1 -10 -8 18.35 2.95
-2 -10 -8 29.58 3.55
-3 -10 -8 1.75 1.7
-4 -10 -8 15.18 3.2
-2 11 8 -0.4 1.69
2 -11 -8 6.14 2.38
1 -11 -8 23.35 3.44
-1 11 8 22.38 3.13
0 -11 -8 26.03 3.42
-1 -11 -8 19.14 3.1
-2 -11 -8 7.62 2.52
-3 -11 -8 4.01 2.34
-1 -8 9 28.43 3.48
1 8 -9 34.43 3.59
0 8 -9 25.7 3.05
0 -8 9 19.29 3.05
1 -8 9 6.68 2.01
2 -8 9 7.5 2.17
3 -8 9 8.96 2.58
4 -8 9 2.98 2
2 7 -9 8.17 2.19
-2 -7 9 7.93 2.12
1 7 -9 18.32 2.62
-1 -7 9 9.91 2.15
0 -7 9 18.32 2.86
0 7 -9 24.55 2.83
1 -7 9 6.58 1.91
-1 7 -9 7.94 1.73
2 -7 9 7.3 2.16
3 -7 9 4.54 1.8
4 -7 9 11.66 2.53
-5 7 -9 1.59 1.75
3 6 -9 19.71 3.08
-3 -6 9 16.35 2.69
2 6 -9 1.43 1.19
-2 -6 9 0.61 1.16
1 6 -9 18.48 2.56
-1 -6 9 20.29 2.77
0 6 -9 48.66 3.42
0 -6 9 53.73 3.82
1 -6 9 16.05 2.59
-1 6 -9 13.93 2.15
-2 6 -9 11.34 1.96
2 -6 9 12.25 2.36
3 -6 9 43.73 3.85
4 -6 9 0.4 1.26
5 -6 9 -0.08 1.4
-6 6 -9 -0.57 1.26
4 5 -9 11.72 2.65
3 5 -9 9.9 2.27
-3 -5 9 7.65 2.01
-2 -5 9 3.34 1.49
2 5 -9 5.54 1.63
-1 -5 9 11.07 2.08
1 5 -9 12.26 2.13
0 5 -9 7.04 1.65
0 -5 9 5.19 1.53
-1 5 -9 66.74 3.76
1 -5 9 66.64 4.11
2 -5 9 7.57 1.85
-2 5 -9 6.64 1.47
-3 5 -9 47.15 3.06
3 -5 9 37.95 3.42
4 -5 9 7.9 1.97
5 -5 9 18.81 2.77
-4 -4 9 10.02 2.21
4 4 -9 9.53 2.43
-3 -4 9 22.19 2.73
3 4 -9 26.64 3.1
-2 -4 9 0.78 1.06
2 4 -9 3.95 1.38
-1 -4 9 1.3 0.99
1 4 -9 0.93 1.04
0 4 -9 44.79 3.13
0 -4 9 52.31 3.49
1 -4 9 62.69 3.73
-1 4 -9 61.16 3.48
-2 4 -9 36.51 2.7
2 -4 9 36.09 3.11
3 -4 9 131.09 5.55
-3 4 -9 134.13 4.99
-4 4 -9 69.42 3.59
4 -4 9 68.52 4.11
5 -4 9 -0.54 0.89
5 3 -9 44.38 4.29
4 3 -9 12.61 2.53
-4 -3 9 9.48 2.15
-3 -3 9 24.56 2.77
3 3 -9 25.95 2.96
2 3 -9 13.43 2.26
-2 -3 9 14.62 2.2
1 3 -9 8.95 1.82
-1 -3 9 9 1.77
0 -3 9 67.11 3.77
0 3 -9 59.16 3.45
1 -3 9 46.73 3.19
-1 3 -9 39.73 2.77
2 -3 9 91.46 4.33
-2 3 -9 88.29 4
-3 3 -9 5.52 1.38
3 -3 9 7.19 1.64
4 -3 9 102.66 4.68
-4 3 -9 105.65 4.37
5 -3 9 2.1 1.23
-7 3 -9 2.06 1.34
-5 -2 9 0.28 1.28
5 2 -9 0.06 1.47
4 2 -9 25.07 3.04
-4 -2 9 22.32 2.7
3 2 -9 51.06 3.6
-3 -2 9 49.45 3.39
-2 -2 9 51 3.32
2 2 -9 54.56 3.45
1 2 -9 16.49 2.18
-1 -2 9 9.47 1.74
0 -2 9 28.9 2.52
0 2 -9 30.06 2.56
-1 2 -9 68.97 3.49
1 -2 9 64.01 3.49
-2 2 -9 20.75 2.11
2 -2 9 22.25 2.33
3 -2 9 5.46 1.43
-3 2 -9 5.39 1.35
4 -2 9 242.49 6.9
4 -2 9 233.64 6.91
5 -2 9 37.48 3.07
-5 2 -9 35.82 2.66
-6 2 -9 -0.22 0.76
6 -2 9 -0.86 1.09
-7 2 -9 8.88 2.07
5 1 -9 1.16 1.55
-5 -1 9 2.09 1.31
-4 -1 9 106.6 5.16
4 1 -9 102.45 5.2
-3 -1 9 32.7 2.93
3 1 -9 29.4 2.9
-2 -1 9 87.56 4.34
2 1 -9 92.79 4.31
1 1 -9 25.64 2.41
-1 -1 9 26.8 2.5
0 1 -9 11.16 1.74
0 -1 9 12.74 1.83
1 -1 9 171.51 5.5
-1 1 -9 169.34 5.44
-2 1 -9 20.98 2.1
2 -1 9 25.93 2.25
3 -1 9 3.03 1.1
3 -1 9 4.5 1.2
4 -1 9 33.02 2.79
4 -1 9 29.09 2.32
-4 1 -9 29.65 2.33
-5 1 -9 119.31 4.87
5 -1 9 127.93 5.3
6 -1 9 8.22 1.92
-6 1 -9 9.03 1.9
-7 1 -9 13.83 2.47
5 0 -9 22.08 2.96
-5 0 9 28.45 3.1
4 0 -9 31.55 3.11
-4 0 9 29.87 2.97
3 0 -9 29.01 2.8
-3 0 9 23.51 2.53
-2 0 9 78.14 3.98
2 0 -9 81.08 4.03
1 0 -9 0.25 0.82
-1 0 9 0.87 0.93
0 0 -9 37.2 2.54
0 0 9 39.85 2.72
1 0 9 54.23 2.94
-1 0 -9 57.08 3.13
2 0 9 161.02 5.4
2 0 9 162.12 5.08
3 0 9 1.94 0.87
-3 0 -9 -0.24 0.76
3 0 9 1.12 0.93
-4 0 -9 44.67 2.8
4 0 9 48.68 3.18
-5 0 -9 373.39 9.01
5 0 9 398.94 9.68
-6 0 -9 0.52 1.03
6 0 9 1.15 1.23
7 0 9 -0.22 1.31
-7 0 -9 -1.03 0.98
-8 0 -9 2.16 1.78
-6 1 9 22.57 3.15
-5 1 9 11.94 2.33
4 -1 -9 2.5 1.38
-4 1 9 -0.46 0.94
-3 1 9 79.85 4.26
3 -1 -9 82.44 4.13
-2 1 9 30.76 2.7
2 -1 -9 26.56 2.43
-1 1 9 16.66 2.01
1 -1 -9 17.17 1.95
0 -1 -9 22.89 2.07
0 1 9 18.07 1.96
1 1 9 80.13 3.51
-1 -1 -9 87.4 3.77
2 1 9 723.92 12.77
2 1 9 709.21 11.91
-3 -1 -9 123.96 4.22
3 1 9 129.06 4.9
3 1 9 129.45 4.21
-4 -1 -9 1.01 0.95
4 1 9 -0.01 0.9
5 1 9 1.73 1.04
-5 -1 -9 1.39 1.01
6 1 9 22.02 2.78
-6 -1 -9 18.44 2.49
-7 -1 -9 7.54 1.94
7 1 9 5.61 1.95
-8 -1 -9 4.56 2.25
8 1 9 8.34 2.43
-6 2 9 17.14 3.1
-5 2 9 18.33 2.73
-4 2 9 57.69 3.9
-3 2 9 68.16 3.94
3 -2 -9 68.26 3.63
2 -2 -9 29.25 2.41
-2 2 9 26.73 2.56
1 -2 -9 69 3.3
-1 2 9 74.76 3.73
0 2 9 3.99 1.2
0 -2 -9 1.06 0.75
1 2 9 132.26 4.67
1 2 9 135.74 4.47
2 2 9 211.48 6.17
2 2 9 211.01 5.47
-2 -2 -9 213.24 5.45
-3 -2 -9 127.94 4.46
3 2 9 127.37 4.87
-4 -2 -9 54.06 3.16
4 2 9 55.08 3.41
-5 -2 -9 52.75 3.32
5 2 9 54.31 3.6
-6 -2 -9 128.89 5.63
6 2 9 120.59 5.64
7 2 9 2.96 1.76
-7 -2 -9 6.96 2.02
-8 -2 -9 2.45 1.87
8 2 9 1.23 1.84
-5 3 9 18.8 2.92
-4 3 9 20.73 2.73
-3 3 9 30.47 2.93
2 -3 -9 112.96 4.3
-2 3 9 111.99 4.84
1 -3 -9 110.36 4.08
-1 3 9 107.74 4.46
0 -3 -9 0.9 0.74
0 3 9 0.77 0.91
-1 -3 -9 24.78 1.97
1 3 9 23.44 1.99
1 3 9 25.92 2.24
-2 -3 -9 10.87 1.68
2 3 9 9.01 1.29
2 3 9 9 1.55
-3 -3 -9 798.97 13.87
3 3 9 832.11 14.38
-4 -3 -9 64.83 3.57
4 3 9 65.02 3.75
-5 -3 -9 5.2 1.53
5 3 9 5.98 1.68
-6 -3 -9 22.47 2.71
6 3 9 20.63 2.78
-7 -3 -9 10.72 2.3
7 3 9 11.02 2.43
-5 4 9 20.44 2.94
-4 4 9 14.18 2.42
-3 4 9 160.18 6.25
-2 4 9 119.48 5.06
1 -4 -9 51.6 2.73
-1 4 9 56.58 3.31
0 -4 -9 1.23 0.92
0 4 9 1.64 0.91
0 -4 -9 0.98 0.72
1 4 9 2.83 1.05
-1 -4 -9 4.41 1.38
1 4 9 4.06 1.18
2 4 9 51.1 2.58
-2 -4 -9 50.02 3.25
2 4 9 48.2 2.91
-3 -4 -9 217.46 6.66
3 4 9 231.95 6.83
4 4 9 80.68 4.17
-4 -4 -9 77.6 4.15
-5 -4 -9 0.77 1.1
5 4 9 5.44 1.63
6 4 9 61.47 4.26
-6 -4 -9 49.81 3.99
-7 -4 -9 23.89 3.25
7 4 9 29.62 3.52
-5 5 9 45.61 4.09
-4 5 9 11.92 2.39
-3 5 9 54.47 3.86
-2 5 9 37.55 3.13
1 -5 -9 59.82 3.24
-1 5 9 68.64 3.75
0 -5 -9 53.71 3.04
0 -5 -9 53.66 2.75
0 5 9 53.82 3.06
1 5 9 2.36 0.95
1 5 9 0.75 0.88
-1 -5 -9 1.04 1.1
2 5 9 5.76 1.35
-2 -5 -9 6.07 1.66
3 5 9 0.12 0.75
-3 -5 -9 -1.57 0.92
-4 -5 -9 578.54 12.7
4 5 9 569.52 12.25
5 5 9 16.09 2.42
-5 -5 -9 14.6 2.37
-6 -5 -9 25.14 3.11
6 5 9 30.82 3.39
7 5 9 1.86 1.67
-7 -5 -9 -0.5 1.21
-5 6 9 -0.38 1.69
-4 6 9 5.2 1.69
-3 6 9 6.58 1.82
2 -6 -9 102.89 4.52
-2 6 9 106.15 5.12
1 -6 -9 109.6 4.53
-1 6 9 105.96 4.78
0 6 9 72.62 3.66
0 -6 -9 70.37 3.65
-1 -6 -9 11.17 1.92
1 6 9 8.64 1.54
1 6 9 9.34 1.51
2 6 9 56.15 3.23
-2 -6 -9 56.7 3.67
-3 -6 -9 11.77 2.28
3 6 9 7.58 1.63
4 6 9 102.31 4.94
-4 -6 -9 101.24 5.28
-5 -6 -9 5.51 1.83
5 6 9 7.48 1.94
6 6 9 12.92 2.61
-6 -6 -9 8.28 2.24
-7 -6 -9 13.89 3.09
7 6 9 22.59 3.52
-4 7 9 30.02 3.59
-3 7 9 2.19 1.38
3 -7 -9 8.15 1.78
-2 7 9 68.55 4.27
2 -7 -9 67.67 3.89
1 -7 -9 57.47 3.56
-1 7 9 63.38 3.78
0 7 9 80.01 4.04
0 -7 -9 88.25 4.4
-1 -7 -9 84.19 4.48
-2 -7 -9 8.11 1.97
2 7 9 4.08 1.23
-3 -7 -9 1.22 1.44
3 7 9 0.2 0.86
4 7 9 0.58 1.06
-4 -7 -9 -0.22 1.26
5 7 9 130.82 6.09
-5 -7 -9 128.81 6.57
-6 -7 -9 19.04 3.2
6 7 9 19.83 3.07
4 -8 -9 1.85 1.41
-4 8 9 1.5 1.8
3 -8 -9 4.56 1.62
-3 8 9 2.1 1.52
2 -8 -9 26.19 2.85
-2 8 9 27.24 3.1
-1 8 9 72.81 4.3
1 -8 -9 68.36 4.19
0 8 9 81.09 4.21
0 -8 -9 76.86 4.46
-1 -8 -9 -1.43 1.04
-2 -8 -9 21.9 2.89
3 8 9 20.61 2.54
-3 -8 -9 20.96 3.03
-4 -8 -9 11.59 2.66
4 8 9 10.93 2.18
5 8 9 40.58 3.82
-5 -8 -9 30.65 3.86
6 8 9 2.65 1.9
-6 -8 -9 2.17 2.24
-3 9 9 14.75 2.89
3 -9 -9 17.07 2.72
-2 9 9 23.8 3.14
2 -9 -9 21.27 2.86
-1 9 9 7.97 1.99
1 -9 -9 12.33 2.35
0 -9 -9 22.65 2.98
-1 -9 -9 14.46 2.54
-2 -9 -9 50.36 4.26
-3 -9 -9 27.17 3.42
-4 -9 -9 1.38 1.84
4 9 9 1.17 1.29
5 9 9 8.87 2.47
-5 -9 -9 11.03 3.16
-2 10 9 5.15 1.93
2 -10 -9 1.13 1.45
-1 10 9 12.55 2.43
1 -10 -9 17.74 2.93
0 -10 -9 33.87 3.66
-1 -10 -9 25.17 3.23
-2 -10 -9 2.12 1.67
-3 -10 -9 29.58 3.81
-4 -10 -9 27.13 4.03
1 -11 -9 39.42 4.26
0 -11 -9 10.21 2.66
-1 -11 -9 22.41 3.47
-2 -11 -9 0.88 1.85
0 -8 10 7.3 2.57
0 8 -10 10.47 2.34
1 -8 10 3.28 2.2
2 -8 10 15.5 3.19
-2 -7 10 4.87 2.27
-1 -7 10 17.44 2.91
1 7 -10 18.08 2.86
0 -7 10 1.53 1.54
0 7 -10 5.26 1.75
1 -7 10 20.1 3.1
-1 7 -10 17.58 2.48
2 -7 10 1.72 1.58
3 -7 10 42.61 4.21
4 -7 10 2.45 1.85
-3 -6 10 9.12 2.46
-2 -6 10 18.37 2.87
2 6 -10 10.68 2.31
1 6 -10 10.14 2.1
-1 -6 10 7.18 1.94
0 6 -10 17.23 2.5
0 -6 10 15.54 2.6
-1 6 -10 -1.39 0.93
1 -6 10 -0.13 1.16
-2 6 -10 2.41 1.45
2 -6 10 1.85 1.53
3 -6 10 65.83 4.63
4 -6 10 23.86 3.31
5 -6 10 -1.61 1.33
-3 -5 10 9.2 2.22
3 5 -10 10.2 2.52
-2 -5 10 11.41 2.28
2 5 -10 7.96 1.99
1 5 -10 -0.65 0.89
-1 -5 10 0.68 0.99
0 5 -10 19.34 2.52
0 -5 10 21.29 2.77
1 -5 10 25.09 2.92
-1 5 -10 30.87 2.93
2 -5 10 32.7 3.39
-2 5 -10 27.96 2.76
-3 5 -10 2.96 1.23
3 -5 10 6.14 1.88
4 -5 10 51.1 4.11
5 -5 10 1.18 1.47
-4 -4 10 16.03 2.72
4 4 -10 16.63 3.08
3 4 -10 6.92 2.04
-3 -4 10 10.25 2.2
2 4 -10 -0.49 0.95
-2 -4 10 -0.15 0.99
-1 -4 10 12.93 2.29
1 4 -10 17.15 2.44
0 -4 10 73.83 4.45
0 4 -10 84.24 4.47
-1 4 -10 62.69 3.82
1 -4 10 67.77 4.1
2 -4 10 -0.07 1.08
-2 4 -10 2.25 1.02
-3 4 -10 8.12 1.7
3 -4 10 6.93 1.82
-4 4 -10 112.36 4.83
4 -4 10 100.89 5.23
5 -4 10 15.28 2.6
4 3 -10 23.77 3.25
-4 -3 10 21.53 3
3 3 -10 15.69 2.6
-3 -3 10 13.22 2.4
2 3 -10 18.01 2.59
-2 -3 10 22.43 2.74
1 3 -10 33.49 3.03
-1 -3 10 35.52 3.14
0 -3 10 17.04 2.33
0 3 -10 17.87 2.32
1 -3 10 77.32 4.3
-1 3 -10 71.01 3.88
2 -3 10 126.69 5.35
-2 3 -10 122.84 5.03
-3 3 -10 57.38 3.48
3 -3 10 57 3.71
4 -3 10 29.72 2.9
-4 3 -10 29.87 2.67
-5 3 -10 7.08 1.62
5 2 -10 -0.45 1.62
-5 -2 10 -0.34 1.29
4 2 -10 50.5 4.28
-4 -2 10 46.2 3.83
3 2 -10 26.25 2.98
-3 -2 10 30.23 3.12
2 2 -10 17.82 2.43
-2 -2 10 20.41 2.55
-1 -2 10 -0.74 0.85
1 2 -10 0.14 1.06
0 -2 10 40.22 3.15
0 2 -10 41.2 2.95
1 -2 10 151.24 5.67
-1 2 -10 149.65 5.55
-2 2 -10 222.48 6.82
2 -2 10 226.66 7.09
-3 2 -10 0.89 0.9
3 -2 10 0.77 1
4 -2 10 7.04 1.68
-4 2 -10 9.18 1.78
5 -2 10 30.92 2.93
6 -2 10 1.12 1.27
-5 -1 10 13.05 2.59
5 1 -10 8.78 2.52
-4 -1 10 26.12 3.03
4 1 -10 18.39 2.8
3 1 -10 46.82 3.69
-3 -1 10 42.82 3.54
2 1 -10 67.45 3.91
-2 -1 10 62.1 3.86
-1 -1 10 43.29 3.1
1 1 -10 44.77 3.14
0 1 -10 63.85 3.6
0 -1 10 58.71 3.49
1 -1 10 146.08 5.43
-1 1 -10 162.96 5.62
2 -1 10 81.52 4
-2 1 -10 74.11 3.84
-3 1 -10 109.65 4.69
3 -1 10 106.43 4.49
4 -1 10 92.83 4.56
4 -1 10 90.4 4.17
5 -1 10 63.39 3.93
6 -1 10 11.52 2.22
-7 1 -10 10.44 2.25
-5 0 10 0.8 1.3
-4 0 10 15.84 2.51
4 0 -10 20.54 2.73
-3 0 10 122.33 5.49
3 0 -10 116.45 5.37
2 0 -10 58.58 3.63
-2 0 10 61.6 3.82
1 0 -10 11.37 1.91
-1 0 10 7.59 1.68
0 0 -10 0.58 0.82
0 0 10 0.54 0.85
-1 0 -10 3.04 1.07
1 0 10 1.59 1.02
-2 0 -10 126.55 4.92
2 0 10 130.53 4.85
3 0 10 337.39 8.65
3 0 10 336.92 8.1
4 0 10 81.51 4.26
-5 0 -10 49.12 3.19
5 0 10 50.81 3.6
-6 0 -10 1.36 1.12
6 0 10 3.24 1.56
7 0 10 -0.31 1.38
-7 0 -10 2.68 1.52
-5 1 10 0.82 1.39
4 -1 -10 32.71 3.14
-4 1 10 29.37 3.19
3 -1 -10 58.3 3.66
-3 1 10 52.29 3.63
2 -1 -10 24.92 2.51
-2 1 10 25.99 2.71
1 -1 -10 101.04 4.32
-1 1 10 98.01 4.45
0 -1 -10 56.63 3.24
0 1 10 62.58 3.46
-1 -1 -10 127.65 4.82
1 1 10 120.4 4.61
2 1 10 250.42 6.64
2 1 10 246.88 7.1
3 1 10 281.36 6.9
3 1 10 252.84 7.48
-4 -1 -10 119.3 4.57
4 1 10 117.04 5.18
5 1 10 69 4.15
-5 -1 -10 65.46 3.7
-6 -1 -10 12.78 2.18
6 1 10 14.31 2.47
-7 -1 -10 1.09 1.27
7 1 10 -1.5 1.29
-5 2 10 10.55 2.4
-4 2 10 -1.3 1.05
3 -2 -10 58.21 3.6
-3 2 10 50.95 3.67
-2 2 10 98.3 4.69
2 -2 -10 96.99 4.38
-1 2 10 74.37 3.91
1 -2 -10 73.69 3.64
0 -2 -10 31.61 2.56
0 2 10 27.45 2.42
-1 -2 -10 122.36 4.71
1 2 10 127.78 4.67
2 2 10 3.93 1.22
3 2 10 73.84 3.89
-3 -2 -10 79.27 3.7
4 2 10 22.96 2.55
-4 -2 -10 27.57 2.47
-5 -2 -10 84.87 4.31
5 2 10 86.24 4.67
6 2 10 38.05 3.61
-6 -2 -10 37.07 3.29
-7 -2 -10 4.68 1.76
7 2 10 4.62 2.06
-5 3 10 5.89 2.02
-4 3 10 0.26 1.2
-3 3 10 69.86 4.21
2 -3 -10 79.82 3.82
-2 3 10 78.08 4.29
1 -3 -10 52.23 3.06
-1 3 10 54.82 3.42
0 -3 -10 168.36 5.38
0 3 10 172.33 5.64
1 3 10 253.48 6.94
1 3 10 243.87 6.55
2 3 10 11.07 1.51
2 3 10 12.35 1.85
-2 -3 -10 8.54 1.68
-3 -3 -10 234.55 6.68
3 3 10 226.53 6.98
4 3 10 91.29 4.56
-4 -3 -10 113.26 4.78
-5 -3 -10 79.27 4.34
5 3 10 77.14 4.49
-6 -3 -10 102.18 5.3
6 3 10 103.36 5.42
7 3 10 14.7 2.82
-7 -3 -10 11.86 2.43
-5 4 10 17.58 3.19
-4 4 10 2.61 1.51
-3 4 10 18.26 2.62
-2 4 10 108 5.1
-1 4 10 130.72 5.24
1 -4 -10 120.29 4.46
0 4 10 5.95 1.42
0 -4 -10 6.1 1.28
-1 -4 -10 0.89 1.1
1 4 10 2.47 0.98
1 4 10 1.2 0.94
2 4 10 137.79 5.15
-2 -4 -10 140.9 5.24
-3 -4 -10 0.23 1.07
3 4 10 0.77 0.83
4 4 10 99.42 4.86
-4 -4 -10 97.61 4.66
-5 -4 -10 16.64 2.44
5 4 10 22.37 2.74
-6 -4 -10 73.01 4.61
6 4 10 71.89 4.67
-7 -4 -10 13.18 2.69
7 4 10 17.09 3.13
-5 5 10 3.34 2.13
-4 5 10 1.88 1.33
-3 5 10 8.21 2.01
-2 5 10 74.91 4.29
-1 5 10 25.99 2.63
0 5 10 -0.01 0.88
0 -5 -10 1.32 1.17
0 -5 -10 1.08 0.86
1 5 10 150.09 5.03
1 5 10 159.26 5.32
-1 -5 -10 153.38 5.34
-2 -5 -10 297.19 8.1
2 5 10 293.27 7.86
3 5 10 34.71 2.94
-3 -5 -10 36.72 3.18
4 5 10 8.38 1.92
-4 -5 -10 8.9 1.97
-5 -5 -10 15.14 2.54
5 5 10 13.04 2.34
-6 -5 -10 57.21 4.35
6 5 10 48.24 4.16
-7 -5 -10 18.94 3.25
7 5 10 22.99 3.48
-4 6 10 2.47 1.68
-3 6 10 0.98 1.4
-2 6 10 22 2.85
1 -6 -10 78.72 3.91
-1 6 10 79.43 4.28
0 -6 -10 127.73 4.97
0 6 10 125.66 5.01
1 6 10 1.65 0.88
-1 -6 -10 1.5 1.18
1 6 10 -0.48 0.85
-2 -6 -10 50.17 3.4
2 6 10 45.78 3.05
3 6 10 72.99 4.04
-3 -6 -10 61.64 4.14
4 6 10 7.66 1.85
-4 -6 -10 3.41 1.67
5 6 10 40.21 3.59
-5 -6 -10 36.31 3.58
-6 -6 -10 8.47 2.4
6 6 10 7.02 1.96
-4 7 10 5.13 2.01
-3 7 10 2.39 1.53
-2 7 10 74.35 4.57
1 -7 -10 55.55 3.55
-1 7 10 62.26 3.92
0 -7 -10 57.64 3.66
0 7 10 53.15 3.46
-1 -7 -10 3.37 1.41
2 7 10 88.84 4.19
-2 -7 -10 67.12 4.33
-3 -7 -10 94.88 5.3
3 7 10 90.19 4.64
-4 -7 -10 22.49 3.12
4 7 10 21.59 2.75
5 7 10 -0.23 1.26
-5 -7 -10 4.38 1.98
6 7 10 11.41 2.69
-6 -7 -10 8.84 2.59
-3 8 10 0.62 1.57
-2 8 10 39.52 3.76
2 -8 -10 39.35 3.39
1 -8 -10 41.46 3.43
-1 8 10 36.31 3.44
0 -8 -10 76.05 4.48
0 8 10 67.56 4.06
-1 -8 -10 28.77 3.08
-2 -8 -10 3.68 1.63
-3 -8 -10 15.54 2.8
3 8 10 7.6 1.87
-4 -8 -10 16.58 2.96
4 8 10 13.55 2.32
-5 -8 -10 11 2.76
5 8 10 7.12 2.06
3 -9 -10 0.77 1.42
-3 9 10 1.48 1.81
2 -9 -10 1.61 1.39
-2 9 10 2.27 1.73
1 -9 -10 54.09 4.09
-1 9 10 51.33 4.02
0 -9 -10 20.79 2.87
-1 -9 -10 34.75 3.5
-2 -9 -10 4.72 1.95
-3 -9 -10 41.58 4.21
4 9 10 7.18 2.05
-4 -9 -10 2.06 1.93
-5 -9 -10 24.06 3.98
5 9 10 27.38 3.55
2 -10 -10 5.18 2.06
-2 10 10 3.62 2.11
1 -10 -10 47.03 4.23
-1 10 10 50.75 4.25
0 -10 -10 14.9 2.72
-1 -10 -10 46.34 4.21
-2 -10 -10 12.62 2.71
-3 -10 -10 8.2 2.52
-4 -10 -10 22.12 3.75
0 -11 -10 26.12 3.59
-1 -11 -10 11.79 3.02
-2 -11 -10 13.85 3.26
0 -7 11 2.5 1.82
0 7 -11 4.18 1.7
-1 7 -11 8.48 2
1 -7 11 12.19 2.85
2 -7 11 6.32 2.23
3 -7 11 6.57 2.27
-2 -6 11 10.91 2.67
-1 -6 11 0.17 1.4
1 6 -11 1.32 1.21
0 6 -11 -1.28 0.93
0 -6 11 -1.62 1.09
-1 6 -11 11.83 2.27
1 -6 11 13.36 2.68
-2 6 -11 50.94 3.8
2 -6 11 51.46 4.43
3 -6 11 7.63 2.25
4 -6 11 18.86 3.21
2 5 -11 8.16 2.19
-2 -5 11 2.53 1.65
-1 -5 11 73.03 4.84
1 5 -11 67.08 4.54
0 5 -11 6.98 1.7
0 -5 11 9.64 2.19
1 -5 11 3.7 1.57
-1 5 -11 6.93 1.88
-2 5 -11 30.82 3.11
2 -5 11 36.37 3.69
-3 5 -11 12.39 2.15
3 -5 11 13.76 2.62
4 -5 11 16.99 2.9
5 -5 11 2.88 1.86
3 4 -11 6.02 2.32
-3 -4 11 4.44 1.95
-2 -4 11 13.95 2.54
2 4 -11 8.84 2.1
-1 -4 11 38.2 3.58
1 4 -11 34.49 3.31
0 4 -11 -0.18 1.03
0 -4 11 -1.25 0.79
1 -4 11 0.79 1.25
-1 4 -11 2.37 1.35
-2 4 -11 28.26 2.86
2 -4 11 32.16 3.27
-3 4 -11 81.93 4.42
3 -4 11 79.91 4.84
-4 4 -11 46.25 3.36
4 -4 11 48.39 3.97
-4 -3 11 23.31 3.36
4 3 -11 19.95 3.26
-3 -3 11 3.12 1.56
3 3 -11 1.38 1.54
-2 -3 11 3.43 1.52
2 3 -11 4.31 1.69
1 3 -11 34.45 3.27
-1 -3 11 39.56 3.53
0 -3 11 176.46 6.88
0 3 -11 167.35 6.46
1 -3 11 38.82 3.47
-1 3 -11 36.78 3.12
2 -3 11 18.03 2.44
-2 3 -11 17.28 2.34
3 -3 11 55.62 3.86
-3 3 -11 50.22 3.48
4 -3 11 49.71 3.82
-4 3 -11 49.64 3.44
-5 3 -11 15.78 2.23
4 2 -11 11.31 2.61
-4 -2 11 13.31 2.64
-3 -2 11 34.5 3.42
3 2 -11 36.41 3.59
2 2 -11 24.7 2.94
-2 -2 11 19.84 2.73
1 2 -11 27.26 2.96
-1 -2 11 22.19 2.71
0 2 -11 146.89 5.91
0 -2 11 159.25 6.26
1 -2 11 12.61 2.11
-1 2 -11 10.54 1.94
-2 2 -11 0.91 0.94
2 -2 11 0 0.9
-3 2 -11 20 2.42
3 -2 11 20.39 2.45
4 -2 11 55.67 3.7
-4 2 -11 49.52 3.43
5 -2 11 39.7 3.51
6 -2 11 6.97 2.09
-4 -1 11 24.73 3.22
4 1 -11 22.66 3.15
3 1 -11 68.05 4.45
-3 -1 11 63.56 4.27
-2 -1 11 -0.47 0.82
2 1 -11 0.74 1.16
-1 -1 11 16.75 2.44
1 1 -11 11.97 2.09
0 -1 11 124.59 5.47
0 1 -11 135.46 5.48
1 -1 11 278.09 8.05
-1 1 -11 288.89 8.14
2 -1 11 54.08 3.46
-2 1 -11 53.22 3.45
-3 1 -11 5.44 1.43
3 -1 11 5.99 1.59
4 -1 11 8.32 1.9
5 -1 11 50.26 3.79
6 -1 11 65.25 4.41
4 0 -11 6.7 2.04
-4 0 11 4.02 1.74
-3 0 11 36.17 3.42
3 0 -11 41.61 3.64
-2 0 11 51.16 3.66
2 0 -11 53.06 3.74
1 0 -11 58.67 3.73
-1 0 11 58.43 3.76
0 0 -11 36.73 3.04
0 0 11 31.37 2.82
1 0 11 155.19 5.8
-1 0 -11 161.47 5.88
2 0 11 76.63 3.96
-2 0 -11 68.29 3.82
3 0 11 13.04 1.97
3 0 11 15.62 2.35
4 0 11 28.74 2.96
5 0 11 156.26 6.47
6 0 11 27.7 3.29
7 0 11 3.71 1.95
-4 1 11 1.74 1.41
-3 1 11 73.21 4.47
3 -1 -11 69.27 4.21
2 -1 -11 72.98 4.12
-2 1 11 84.5 4.57
-1 1 11 11.41 2.08
1 -1 -11 8.8 1.84
0 1 11 -0.51 0.81
0 -1 -11 2.96 1.23
-1 -1 -11 157.57 5.71
1 1 11 150.99 5.48
-2 -1 -11 261.27 7.6
2 1 11 272.29 7.35
3 1 11 60.07 3.38
3 1 11 58.61 3.73
4 1 11 42.18 3.47
5 1 11 0.64 1.36
6 1 11 1.25 1.45
7 1 11 13.69 2.82
-7 -1 -11 13.48 2.44
-4 2 11 0.8 1.24
-3 2 11 11.82 2.27
3 -2 -11 10.62 2.06
-2 2 11 23.82 2.81
2 -2 -11 17.4 2.28
-1 2 11 54.64 3.62
1 -2 -11 51.21 3.25
0 -2 -11 88.72 4.16
0 2 11 80.97 4.05
1 2 11 144.38 5.3
-1 -2 -11 153.24 5.56
2 2 11 249.51 7.47
2 2 11 245.54 6.78
3 2 11 32.79 3
4 2 11 1.95 1.22
-5 -2 -11 9.34 1.9
5 2 11 8.74 2.06
6 2 11 54.86 4.09
-6 -2 -11 46.59 3.63
7 2 11 16.55 3.11
-7 -2 -11 18.17 2.83
-4 3 11 0.97 1.22
-3 3 11 24.65 3.05
-2 3 11 78.51 4.51
2 -3 -11 89.15 4.31
1 -3 -11 170.55 5.81
-1 3 11 181.25 6.41
0 -3 -11 1.59 1.08
0 3 11 2.17 1.09
-1 -3 -11 6.47 1.55
1 3 11 4.03 1.25
2 3 11 8.11 1.54
2 3 11 10.7 1.91
3 3 11 22.15 2.52
-4 -3 -11 113.56 4.94
4 3 11 107.54 5.14
-5 -3 -11 44.99 3.42
5 3 11 45.19 3.73
6 3 11 40.07 3.85
-6 -3 -11 41.04 3.68
7 3 11 -0.23 1.57
-7 -3 -11 2.21 1.68
-4 4 11 -1.07 1.12
-3 4 11 23.2 3.02
-2 4 11 40.72 3.52
1 -4 -11 40.97 2.79
-1 4 11 39.97 3.21
0 -4 -11 40.54 2.76
0 4 11 42.76 3.1
1 4 11 11.16 1.77
2 4 11 76.5 4.04
-3 -4 -11 61.36 3.7
3 4 11 48.75 3.38
4 4 11 8.34 1.92
-4 -4 -11 8.96 1.92
-5 -4 -11 35.49 3.31
5 4 11 41.84 3.68
-6 -4 -11 22.46 2.96
6 4 11 32.6 3.67
7 4 11 14.6 3.03
-7 -4 -11 10.37 2.62
-4 5 11 3.83 2.08
-3 5 11 0.09 1.36
-2 5 11 83.45 4.8
-1 5 11 22.97 2.63
0 -5 -11 112.4 4.53
0 5 11 113.39 4.9
1 5 11 3.15 1.15
1 5 11 3.73 1.3
-2 -5 -11 52.93 3.36
2 5 11 49.34 3.27
3 5 11 0.81 0.88
-3 -5 -11 -0.64 1.15
4 5 11 20.44 2.7
-4 -5 -11 20.14 2.77
5 5 11 74.26 4.68
-5 -5 -11 75.01 4.73
-6 -5 -11 33.99 3.65
6 5 11 34.82 3.72
-4 6 11 24.46 3.57
-3 6 11 11.89 2.57
-2 6 11 34.29 3.42
-1 6 11 8.79 2
0 6 11 70.88 3.97
-1 -6 -11 50.96 3.27
1 6 11 45.41 3.06
2 6 11 83.46 4.25
-2 -6 -11 87.98 4.64
-3 -6 -11 17.93 2.67
3 6 11 20.68 2.52
-4 -6 -11 1.82 1.54
4 6 11 5.55 1.71
5 6 11 16.7 2.74
-5 -6 -11 16.34 2.81
-6 -6 -11 16.71 3.06
6 6 11 16.93 3.02
-3 7 11 1.37 1.79
-2 7 11 15.63 2.68
-1 7 11 105.74 5.29
0 -7 -11 40.76 3.11
0 7 11 42.28 3.32
-1 -7 -11 100.46 4.87
-2 -7 -11 10.19 2.24
2 7 11 14.6 2.16
3 7 11 36.84 3.24
-3 -7 -11 33.48 3.56
4 7 11 2.21 1.48
-4 -7 -11 3.06 1.8
-5 -7 -11 8.25 2.58
5 7 11 12.45 2.53
-6 -7 -11 30.65 4.12
6 7 11 35.34 4.03
-3 8 11 20.69 3.31
-2 8 11 3.48 1.7
-1 8 11 75.68 4.71
0 -8 -11 5.45 1.64
0 8 11 4.34 1.65
-1 -8 -11 22.67 2.79
-2 -8 -11 25.75 3.17
-3 -8 -11 70.58 4.84
3 8 11 60.37 4.05
4 8 11 5.83 1.85
-4 -8 -11 5.28 2.17
-5 -8 -11 3.04 2.09
5 8 11 2.68 1.68
-2 9 11 8.34 2.51
-1 9 11 27.15 3.34
1 -9 -11 19.82 2.81
0 -9 -11 33.39 3.4
-1 -9 -11 25.04 3.19
-2 -9 -11 30.29 3.6
-3 -9 -11 32.1 3.85
-4 -9 -11 0.14 1.81
4 9 11 1.67 1.45
1 -10 -11 1.46 1.48
-1 -10 -11 9.08 2.42
-2 -10 -11 5.88 2.35
-3 -10 -11 15.72 3.33
0 -6 12 3.31 2.07
0 6 -12 -0.24 1.39
-1 6 -12 0.23 1.14
1 -6 12 0.5 1.59
-2 6 -12 3.5 1.59
2 -6 12 2.62 1.8
3 -6 12 8.08 2.35
-1 -5 12 1 1.8
1 5 -12 2.83 1.81
0 -5 12 28.59 3.46
0 5 -12 27.01 3.23
1 -5 12 0 1.12
-1 5 -12 -0.61 0.99
2 -5 12 16.18 2.92
-2 5 -12 14.61 2.53
3 -5 12 10.06 2.51
-3 5 -12 9.44 2.06
4 -5 12 0.26 1.53
-2 -4 12 2.16 1.73
2 4 -12 0.98 1.58
-1 -4 12 0.03 1.15
1 4 -12 2.36 1.33
0 4 -12 129.17 6.14
0 -4 12 141.66 6.68
-1 4 -12 0.03 1.03
1 -4 12 1.83 1.44
2 -4 12 9.07 2.24
-2 4 -12 8.92 1.92
-3 4 -12 4.66 1.52
3 -4 12 3.24 1.74
4 -4 12 9.83 2.42
-4 4 -12 7.18 1.87
-3 -3 12 20.04 3.16
3 3 -12 20.69 3.31
2 3 -12 13.05 2.66
-2 -3 12 11.19 2.39
1 3 -12 20.54 2.82
-1 -3 12 15.75 2.72
0 -3 12 8.29 2.14
0 3 -12 9.82 2.11
-1 3 -12 9.53 1.99
1 -3 12 7.1 1.95
2 -3 12 4.15 1.57
-2 3 -12 4.24 1.59
3 -3 12 65.32 4.37
-3 3 -12 67.11 4.15
4 -3 12 29.56 3.28
-4 3 -12 23.54 2.77
-5 3 -12 0.37 1.08
-3 -2 12 10.42 2.49
3 2 -12 14.57 2.82
2 2 -12 8.21 2.17
-2 -2 12 4.97 1.87
1 2 -12 10.9 2.34
-1 -2 12 11.74 2.26
0 -2 12 3.61 1.57
0 2 -12 3.47 1.43
1 -2 12 151.24 6.37
-1 2 -12 167.66 6.57
2 -2 12 7.39 1.89
-2 2 -12 7.36 1.71
3 -2 12 53.02 3.78
-3 2 -12 52.23 3.64
-4 2 -12 1.66 1.02
4 -2 12 0.87 1.22
-5 2 -12 0 0.9
6 -2 12 5.77 2.21
3 1 -12 5.45 1.85
-3 -1 12 4.42 1.81
2 1 -12 50.36 3.82
-2 -1 12 46.76 3.88
1 1 -12 49.6 3.75
-1 -1 12 54.98 3.89
0 -1 12 60.61 4.06
0 1 -12 58.28 3.86
1 -1 12 9.6 1.97
-1 1 -12 12.56 2.15
-2 1 -12 14.32 2.25
2 -1 12 12.97 2.26
3 -1 12 12.05 2.16
-3 1 -12 13.13 2.19
-4 1 -12 35.67 3.22
5 -1 12 45.1 3.92
6 -1 12 13.11 2.64
-4 0 12 6.11 2.24
4 0 -12 10.14 2.46
3 0 -12 25.26 3.11
-3 0 12 24.22 3.17
-2 0 12 28.09 3.16
2 0 -12 21.82 2.78
1 0 -12 21.84 2.7
-1 0 12 26.06 2.98
0 0 12 23.64 2.71
0 0 -12 18.24 2.46
1 0 12 1.59 1.29
-1 0 -12 1.2 0.99
-2 0 -12 31.17 2.99
2 0 12 25.95 2.75
3 0 12 8.08 1.84
-3 0 -12 8.42 1.89
4 0 12 83.15 4.81
5 0 12 72.57 4.61
6 0 12 11.38 2.63
7 0 12 23.43 3.51
-4 1 12 1.58 1.8
-3 1 12 28.81 3.28
3 -1 -12 20.59 2.81
2 -1 -12 1.63 1.38
-2 1 12 1.1 1.3
1 -1 -12 70.91 4.17
-1 1 12 70.07 4.29
0 -1 -12 58.37 3.78
0 1 12 53.6 3.73
-1 -1 -12 100.06 4.82
1 1 12 100.22 4.73
-2 -1 -12 -0.25 1.01
2 1 12 2.03 1.22
3 1 12 1.53 1.24
4 1 12 89.44 4.93
5 1 12 12.32 2.46
6 1 12 19.04 3.06
7 1 12 7.29 2.45
-4 2 12 -2.13 1.55
-3 2 12 31.41 3.51
2 -2 -12 15.47 2.38
-2 2 12 10.76 2.27
1 -2 -12 26.78 2.77
-1 2 12 14.71 2.32
0 -2 -12 28.54 2.79
0 2 12 26.27 2.76
1 2 12 79.63 4.17
-1 -2 -12 104.38 4.8
-2 -2 -12 56.26 3.63
2 2 12 61 3.56
3 2 12 5.22 1.58
4 2 12 5.22 1.67
5 2 12 3.52 1.75
6 2 12 30.25 3.61
7 2 12 16.01 3.03
-4 3 12 -1.06 1.48
-3 3 12 -0.01 1.22
-2 3 12 27.22 3.15
2 -3 -12 28.04 2.91
-1 3 12 2.87 1.42
1 -3 -12 2.86 1.3
0 -3 -12 221.75 6.95
0 3 12 230.29 7.35
-1 -3 -12 161.72 5.96
1 3 12 167.05 6
2 3 12 89.32 4.64
2 3 12 99.43 4.37
3 3 12 34.28 3.18
4 3 12 0.57 0.92
5 3 12 42.5 3.83
6 3 12 30.5 3.59
-4 4 12 25.54 3.61
-3 4 12 1.15 1.45
-2 4 12 112.09 5.73
1 -4 -12 26.33 2.61
-1 4 12 27.71 3
0 4 12 55.59 3.66
0 -4 -12 54.65 3.43
1 4 12 0.33 0.92
-1 -4 -12 0.31 0.91
2 4 12 59.88 3.76
3 4 12 10.94 2.02
4 4 12 26.48 3.08
-5 -4 -12 36.75 3.48
5 4 12 36.2 3.58
-6 -4 -12 3.5 1.78
6 4 12 4.58 1.96
-3 5 12 -0.65 1.24
-2 5 12 7.66 2.12
-1 5 12 2.32 1.46
0 5 12 0.68 1.18
0 -5 -12 0.21 0.94
1 5 12 106.53 4.82
-1 -5 -12 112.69 4.85
2 5 12 178.9 6.5
3 5 12 98.74 4.98
4 5 12 0.85 0.96
-4 -5 -12 0.84 1.42
5 5 12 5.33 1.77
-5 -5 -12 4.5 1.88
-6 -5 -12 29.25 3.62
6 5 12 21.59 3.35
-3 6 12 7.65 2.44
-2 6 12 0.9 1.45
-1 6 12 40.78 3.58
0 6 12 25.92 2.8
1 6 12 71.83 3.98
2 6 12 32.38 3.03
3 6 12 32.02 3.2
-3 -6 -12 30.95 3.28
-4 -6 -12 2.93 1.75
4 6 12 2.08 1.32
-5 -6 -12 24.78 3.36
5 6 12 32.13 3.62
6 6 12 22.94 3.59
-6 -6 -12 19.46 3.26
-3 7 12 49.14 4.59
-2 7 12 -0.3 1.41
-1 7 12 20.45 2.87
0 7 12 1.34 1.38
2 7 12 49.43 3.5
-2 -7 -12 44.94 3.66
3 7 12 83.58 4.78
-3 -7 -12 86.87 5.14
-4 -7 -12 12.85 2.81
4 7 12 7.43 1.87
-5 -7 -12 5.37 2.23
5 7 12 7.22 2.12
-2 8 12 12.19 2.78
-1 8 12 3.01 1.72
-2 -8 -12 41.12 3.82
-3 -8 -12 28.39 3.61
3 8 12 30.3 3.18
-4 -8 -12 0.66 1.67
4 8 12 2.05 1.64
-1 9 12 3.04 1.93
-1 -9 -12 9.25 2.27
-2 -9 -12 5.43 1.98
-3 -9 -12 41.13 4.27
0 5 -13 12.86 2.78
1 -5 13 0.39 1.54
-1 5 -13 -1.29 1.34
-2 5 -13 6.78 1.99
2 -5 13 4.78 2.03
-3 5 -13 7.1 1.92
3 -5 13 4.99 2.12
1 4 -13 16.9 3.04
-1 -4 13 17.91 3.18
0 4 -13 -0.51 1.2
0 -4 13 0.19 1.48
1 -4 13 11.53 2.58
-1 4 -13 8.47 2.26
-2 4 -13 3.53 1.61
2 -4 13 1.52 1.54
-3 4 -13 14.05 2.53
3 -4 13 8.89 2.45
4 -4 13 4.01 1.97
-4 4 -13 6.74 1.95
-2 -3 13 7.27 2.44
2 3 -13 5.36 2.21
-1 -3 13 18.17 2.93
1 3 -13 14.28 2.75
0 3 -13 28.33 3.33
0 -3 13 28 3.46
-1 3 -13 29.12 3.22
1 -3 13 20.95 3.08
2 -3 13 0.33 1.27
-2 3 -13 1.11 1.24
3 -3 13 19.84 2.96
-3 3 -13 24.23 3.03
4 -3 13 7.31 2.24
-4 3 -13 1.66 1.37
-5 3 -13 3.94 1.6
2 2 -13 17.91 3.03
-2 -2 13 12.45 2.77
-1 -2 13 35.55 3.65
1 2 -13 30.4 3.56
0 -2 13 50.37 4.23
0 2 -13 49.65 4.11
1 -2 13 6.07 1.99
-1 2 -13 3.76 1.54
-2 2 -13 5.6 1.76
2 -2 13 7.39 2.05
-3 2 -13 24.44 2.96
3 -2 13 19.57 2.85
-4 2 -13 0.38 1.22
-5 2 -13 1.62 1.15
-3 -1 13 16.74 3.13
3 1 -13 18.58 3.14
-2 -1 13 -1.02 1.05
2 1 -13 1.21 1.41
-1 -1 13 23.79 3.19
1 1 -13 20.88 3.03
0 1 -13 28.42 3.15
0 -1 13 32.6 3.41
1 -1 13 85.42 4.89
-1 1 -13 87.8 4.96
2 -1 13 15.06 2.54
-2 1 -13 13.51 2.32
-3 1 -13 -0.32 0.92
3 -1 13 0.61 1.21
-4 1 -13 10.32 2.11
-5 1 -13 -0.46 0.85
6 -1 13 4.27 2.29
3 0 -13 7.52 2.25
-3 0 13 10.19 2.63
-2 0 13 1.48 1.33
2 0 -13 -0.51 1.11
-1 0 13 61.6 4.29
1 0 -13 55.09 3.97
0 0 -13 49.13 3.71
0 0 13 53.35 3.94
-1 0 -13 48.64 3.69
1 0 13 56.67 3.98
-2 0 -13 -0.59 0.87
2 0 13 0.67 1.14
-3 0 -13 1.39 1.01
3 0 13 2.75 1.48
-4 0 -13 57.25 3.92
5 0 13 10.44 2.47
6 0 13 0.04 1.63
-3 1 13 11.7 2.75
3 -1 -13 3.95 1.87
2 -1 -13 16.05 2.7
-2 1 13 14.32 2.67
-1 1 13 -0.11 1.07
1 -1 -13 -0.52 1.16
0 -1 -13 8.96 2.06
0 1 13 17.05 2.53
1 1 13 20.34 2.6
-1 -1 -13 15.3 2.44
-2 -1 -13 67.15 4.27
2 1 13 63.52 3.96
-3 -1 -13 34.66 3.29
4 1 13 60.34 4.3
5 1 13 10.06 2.43
6 1 13 -1.3 1.5
-3 2 13 0.09 1.56
-2 2 13 2.53 1.57
2 -2 -13 2.06 1.53
1 -2 -13 2.34 1.3
-1 2 13 0.9 1.32
0 -2 -13 90.66 4.81
0 2 13 94.33 5.01
1 2 13 91.2 4.73
-1 -2 -13 99.7 5
2 2 13 128.09 5.49
-2 -2 -13 136.08 5.85
3 2 13 2.88 1.44
4 2 13 6.96 1.98
5 2 13 48.17 4.34
6 2 13 2.56 1.86
-3 3 13 6.99 2.3
-2 3 13 13.19 2.71
1 -3 -13 15.22 2.33
-1 3 13 18.46 2.72
0 -3 -13 23.6 2.71
0 3 13 27.43 2.98
1 3 13 50.33 3.55
-1 -3 -13 47.24 3.43
-2 -3 -13 26.37 2.9
3 3 13 3.87 1.52
4 3 13 7.01 1.95
5 3 13 19.29 3.08
6 3 13 22.16 3.52
-3 4 13 33.1 3.81
-2 4 13 14.51 2.76
-1 4 13 2.92 1.47
0 4 13 2.84 1.51
0 -4 -13 4.4 1.49
-1 -4 -13 36.88 3.14
1 4 13 28.23 2.79
2 4 13 55.33 3.87
3 4 13 27.46 3.09
4 4 13 5.21 1.72
5 4 13 18.56 2.94
6 4 13 35.57 4.04
-3 5 13 57.78 4.89
-2 5 13 27.83 3.44
-1 5 13 9.03 2.18
0 5 13 6.82 1.95
-1 -5 -13 14.65 2.26
1 5 13 18.25 2.43
2 5 13 43.93 3.54
3 5 13 38.03 3.52
4 5 13 9.39 2.13
5 5 13 20.81 3.05
-2 6 13 15.87 2.96
-1 6 13 8.23 2.16
0 6 13 0.77 1.25
2 6 13 44.26 3.62
3 6 13 70.46 4.48
4 6 13 2.73 1.64
5 6 13 17.19 3.03
-2 7 13 24.81 3.42
-1 7 13 24.15 3.26
0 7 13 7.96 2.08
2 7 13 10.32 2.1
3 7 13 67.84 4.49
4 7 13 1.19 1.41
-5 -7 -13 5.63 2.24
5 7 13 8.6 2.53
-1 8 13 7.34 2.45
-4 -8 -13 31.92 3.95
4 8 13 27.76 3.4
-1 4 -14 4.81 2.28
2 -4 14 2.79 1.87
-2 4 -14 -0.62 1.46
0 -3 14 6.7 2.32
0 3 -14 9.68 2.57
1 -3 14 15.26 3.1
-1 3 -14 14.64 2.91
-2 3 -14 18.32 2.9
2 -3 14 13.53 2.72
3 -3 14 12.86 2.71
-3 3 -14 19.62 2.92
-4 3 -14 3.94 1.98
4 -3 14 10.87 2.61
1 2 -14 13.72 2.84
-1 -2 14 12.07 2.61
0 2 -14 7.67 2.2
0 -2 14 16.5 2.94
1 -2 14 34.11 3.73
-1 2 -14 37.78 3.69
-2 2 -14 19.91 2.87
2 -2 14 21.24 3.14
-3 2 -14 0.36 1.21
3 -2 14 1.13 1.6
-4 2 -14 15.49 2.63
2 1 -14 2.15 1.9
-1 -1 14 15.13 2.97
1 1 -14 19.2 3.08
0 -1 14 26.96 3.29
0 1 -14 24.69 3.23
1 -1 14 11.01 2.44
-1 1 -14 21.87 3.03
-2 1 -14 17.51 2.72
2 -1 14 15.98 2.78
3 -1 14 10.15 2.4
-3 1 -14 9.79 2.25
-4 1 -14 4.51 1.8
-5 1 -14 2.11 1.65
2 0 -14 15.46 2.92
-2 0 14 12.92 2.76
1 0 -14 0.46 1.53
-1 0 14 4.64 1.9
0 0 -14 12.7 2.5
0 0 14 15.8 2.83
-1 0 -14 5.1 1.79
1 0 14 6.84 1.98
-2 0 -14 20.74 2.93
2 0 14 33.8 3.39
-3 0 -14 15.16 2.62
-4 0 -14 2.25 1.41
-5 0 -14 17.58 2.77
2 -1 -14 1.68 1.63
-2 1 14 0.97 1.46
-1 1 14 8.35 2.24
1 -1 -14 9.47 2.25
0 1 14 18.18 2.81
0 -1 -14 15.35 2.63
-1 -1 -14 18 2.77
1 1 14 22.05 2.97
-2 -1 -14 25.59 3.09
2 1 14 23.97 2.96
-3 -1 -14 23.59 3
-4 -1 -14 28.57 3.21
5 1 14 0.14 1.58
2 -2 -14 5.1 1.99
-2 2 14 6.94 2.38
-1 2 14 8.57 2.27
1 -2 -14 8.1 2.2
0 2 14 18.08 2.78
0 -2 -14 16.32 2.58
-1 -2 -14 17.36 2.68
1 2 14 15.9 2.49
-2 -2 -14 48.15 3.98
2 2 14 53.43 3.87
-3 -2 -14 25.1 3.09
4 2 14 31.91 3.73
5 2 14 3.29 2
-2 3 14 6.31 2.07
1 -3 -14 0.4 1.35
-1 3 14 -0.49 1.15
0 -3 -14 62.51 4.23
0 3 14 56.2 4.12
1 3 14 28.48 3.11
-1 -3 -14 26.11 3.09
-2 -3 -14 50.1 3.75
3 3 14 11.47 2.42
4 3 14 26.95 3.37
5 3 14 10.59 2.69
-2 4 14 6.83 2.24
-1 4 14 6.76 2.15
0 4 14 24.26 3.01
0 -4 -14 21.19 2.78
-1 -4 -14 21.65 2.78
1 4 14 22.27 2.71
-2 -4 -14 8.12 2.03
3 4 14 36.93 3.64
4 4 14 6.32 2.11
5 4 14 40.16 4.21
-2 5 14 7.62 2.32
-1 5 14 2.15 1.62
0 5 14 1.82 1.49
-1 -5 -14 46.37 3.74
-2 -5 -14 2.07 1.5
3 5 14 86.48 5.15
4 5 14 8.1 2.16
5 5 14 50.26 4.59
-1 6 14 -0.24 1.48
0 6 14 4.05 1.86
2 6 14 9.97 2.27
3 6 14 45.92 4.04
4 6 14 38.98 3.91
-1 7 14 4.88 1.96
3 7 14 3.83 1.68
4 7 14 52.93 4.63
-1 2 -15 14.58 2.95
1 -2 15 8.37 2.36
-2 2 -15 15.06 2.95
2 -2 15 17.27 3.27
-3 2 -15 43.01 4.3
3 -2 15 38.02 4.11
0 1 -15 6.75 2.25
0 -1 15 8.03 2.34
-1 1 -15 4.75 1.94
1 -1 15 5.42 2.19
2 -1 15 8.98 2.36
-2 1 -15 7.6 2.17
-3 1 -15 17.18 3.04
3 -1 15 21.83 3.19
-4 1 -15 6.75 2.2
1 0 -15 6.39 2.39
0 0 -15 6.43 2.14
0 0 15 4.61 2.18
1 0 15 3.18 1.74
-1 0 -15 1.94 1.84
-2 0 -15 30.57 3.61
2 0 15 34.57 3.66
-3 0 -15 10.21 2.34
-4 0 -15 63.86 4.74
1 -1 -15 -1.04 1.59
-1 1 15 0.61 1.62
0 -1 -15 32.12 3.64
0 1 15 30.22 3.52
1 1 15 1.51 1.6
-1 -1 -15 1.16 1.62
2 1 15 39.24 3.71
-2 -1 -15 34.38 3.65
-3 -1 -15 16.77 2.9
-4 -1 -15 32.16 3.61
1 -2 -15 0.13 1.47
-1 2 15 0.6 1.65
0 -2 -15 14.83 2.71
0 2 15 13.04 2.61
-1 -2 -15 0.06 1.3
1 2 15 2.08 1.53
-2 -2 -15 18.13 2.9
-3 -2 -15 66.78 4.7
-4 -2 -15 18.92 3.04
-1 3 15 10.86 2.55
1 -3 -15 14.7 2.77
0 -3 -15 8.96 2.34
0 3 15 12.03 2.68
1 3 15 33.21 3.43
-1 -3 -15 27.14 3.31
-2 -3 -15 1.24 1.4
-3 -3 -15 74.32 4.86
4 3 15 10.59 2.74
-1 4 15 8.65 2.27
0 4 15 9.91 2.41
0 -4 -15 12.46 2.44
-1 -4 -15 20.36 2.94
1 4 15 21.39 2.97
-2 -4 -15 18.95 2.89
-3 -4 -15 27.74 3.39
4 4 15 22.58 3.43
0 5 15 16.78 2.77
-1 -5 -15 43.92 3.88
-2 -5 -15 1.45 1.53
3 5 15 1.65 1.43
4 5 15 50.27 4.6
0 6 15 1.09 1.72
-2 -6 -15 10.57 2.37
3 6 15 3.97 2.05
-1 -1 -16 3.86 1.96
1 1 16 5.51 2.27
-2 -1 -16 5.77 2.18
2 1 16 4.08 1.96
-1 -2 -16 67.37 4.96
1 2 16 69.8 5.14
-2 -2 -16 3.91 1.83
-1 -3 -16 30.3 3.58
-2 -3 -16 2.09 1.6
-3 -3 -16 1.8 1.58
-1 -4 -16 34.47 3.74
-2 -4 -16 45.08 4.18
