#------------------------------------------------------------------------------
#$Date: 2022-05-03 12:06:22 +0300 (Tue, 03 May 2022) $
#$Revision: 274851 $
#$URL: file:///home/coder/svn-repositories/cod/cif/8/10/51/8105121.cif $
#------------------------------------------------------------------------------
#
# This file is available in the Crystallography Open Database (COD),
# http://www.crystallography.net/
#
# All data on this site have been placed in the public domain by the
# contributors.
#
data_8105121
loop_
_publ_author_name
'Li, Shu-Jing'
'Li, Ke'
'Li, Yi-Wen'
_publ_section_title
;
 The crystal structure of 2-nitroisophthalic acid, C8H5NO6
;
_journal_issue                   2
_journal_name_full
'Zeitschrift f\"ur Kristallographie - New Crystal Structures'
_journal_page_first              399
_journal_page_last               400
_journal_paper_doi               10.1515/ncrs-2019-0704
_journal_volume                  235
_journal_year                    2020
_chemical_formula_moiety         'C8 H5 N O6'
_chemical_formula_sum            'C8 H5 N O6'
_chemical_formula_weight         211.13
_space_group_crystal_system      monoclinic
_space_group_IT_number           15
_space_group_name_Hall           '-C 2yc'
_space_group_name_H-M_alt        'C 1 2/c 1'
_symmetry_Int_Tables_number      15
_atom_sites_solution_primary     dual
_cell_angle_alpha                90
_cell_angle_beta                 99.096(9)
_cell_angle_gamma                90
_cell_formula_units_Z            4
_cell_length_a                   5.4755(12)
_cell_length_b                   14.377(3)
_cell_length_c                   11.143(3)
_cell_measurement_reflns_used    1308
_cell_measurement_temperature    150(2)
_cell_measurement_theta_max      26.088
_cell_measurement_theta_min      2.833
_cell_volume                     866.2(4)
_computing_cell_refinement       'SAINT v8.37A (Bruker, 2015) [1]'
_computing_data_reduction        'SAINT v8.37A (Bruker, 2015) [1]'
_computing_molecular_graphics    'Olex2 (Dolomanov et al., 2009) [4]'
_computing_publication_material  'Olex2 (Dolomanov et al., 2009) [4]'
_computing_structure_refinement  'olex2.refine (Bourhis et al., 2015) [3]'
_computing_structure_solution    'ShelXT (Sheldrick, 2015) [2]'
_diffrn_ambient_temperature      150.02
_diffrn_measured_fraction_theta_full 0.9954
_diffrn_measured_fraction_theta_max 0.9954
_diffrn_measurement_device       'Bruker APEX-II diffractometer'
_diffrn_measurement_device_type  'Bruker APEX-II CCD'
_diffrn_measurement_method       '\f and \w scans'
_diffrn_radiation_monochromator  graphite
_diffrn_radiation_type           'Mo K\a'
_diffrn_radiation_wavelength     0.71073
_diffrn_reflns_av_R_equivalents  0.0604
_diffrn_reflns_av_unetI/netI     0.0469
_diffrn_reflns_limit_h_max       6
_diffrn_reflns_limit_h_min       -6
_diffrn_reflns_limit_k_max       17
_diffrn_reflns_limit_k_min       -16
_diffrn_reflns_limit_l_max       13
_diffrn_reflns_limit_l_min       -13
_diffrn_reflns_number            4377
_diffrn_reflns_theta_full        26.0193
_diffrn_reflns_theta_max         26.02
_diffrn_reflns_theta_min         2.83
_exptl_absorpt_coefficient_mu    0.143
_exptl_absorpt_correction_T_max  0.7454
_exptl_absorpt_correction_T_min  0.6099
_exptl_absorpt_correction_type   multi-scan
_exptl_absorpt_process_details
;
SADABS-2016/2 (Bruker,2016/2) was used for absorption correction.
wR2(int) was 0.0721 before and 0.0570 after correction.
The Ratio of minimum to maximum transmission is 0.8182.
The \l/2 correction factor is Not present.
;
_exptl_crystal_colour            colorless
_exptl_crystal_density_diffrn    1.6189
_exptl_crystal_density_method    'not measured'
_exptl_crystal_description       block
_exptl_crystal_F_000             432.3525
_exptl_crystal_size_max          0.35
_exptl_crystal_size_mid          0.1
_exptl_crystal_size_min          0.07
_refine_diff_density_max         0.4345
_refine_diff_density_min         -0.4268
_refine_diff_density_rms         0.1059
_refine_ls_d_res_high            0.8101
_refine_ls_d_res_low             7.1884
_refine_ls_goodness_of_fit_ref   1.0472
_refine_ls_hydrogen_treatment    mixed
_refine_ls_matrix_type           full
_refine_ls_number_constraints    6
_refine_ls_number_parameters     71
_refine_ls_number_reflns         857
_refine_ls_number_restraints     0
_refine_ls_restrained_S_all      1.0472
_refine_ls_R_factor_all          0.0760
_refine_ls_R_factor_gt           0.0455
_refine_ls_shift/su_max          0.0000
_refine_ls_shift/su_mean         0.0000
_refine_ls_structure_factor_coef Fsqd
_refine_ls_weighting_details
'w=1/[\s^2^(Fo^2^)+(0.0753P)^2^+0.4820P] where P=(Fo^2^+2Fc^2^)/3'
_refine_ls_weighting_scheme      calc
_refine_ls_wR_factor_gt          0.1170
_refine_ls_wR_factor_ref         0.1341
_reflns_Friedel_coverage         0.0
_reflns_limit_h_max              6
_reflns_limit_h_min              -6
_reflns_limit_k_max              17
_reflns_limit_k_min              0
_reflns_limit_l_max              13
_reflns_limit_l_min              0
_reflns_number_gt                599
_reflns_number_total             857
_reflns_threshold_expression     I>=2u(I)
_iucr_refine_instructions_details
;
TITL 1_a.res in C2/c
CELL 0.71073 5.4755 14.3768 11.1432 90 99.096 90
ZERR 4 0.0012 0.0031 0.0025 0 0.009 0
LATT 7
SYMM -X,+Y,0.5-Z
SFAC C H N O
UNIT 32 20 4 12

L.S. 10
PLAN  20
SIZE 0.35 0.1 0.07
TEMP -123.13
ACTA 
BOND 
FMAP 2
WGHT 0.075317 0.481951
FVAR 0.623709
REM <olex2.extras>
REM <HklSrc "%.\\1.hkl">
REM </olex2.extras>

C1    1     0.50000  0.75737  0.25000  10.50000  0.04407  0.01371  0.04667 =
 0.00000  0.02816  0.00000 
AFIX 43
H1    2     0.50000  0.82345  0.25000  10.50000 -1.20000 
AFIX 0
C2    1     0.35453  0.70918  0.31985  11.00000  0.02771  0.01733  0.03361 =
 -0.00322  0.01974  0.00043 
AFIX 43
H2    2     0.25391  0.74270  0.36695  11.00000 -1.20000 
AFIX 0
C3    1     0.35340  0.61252  0.32214  11.00000  0.01677  0.01852  0.02036 =
 0.00010  0.00611  0.00050 
C4    1     0.19999  0.56172  0.39952  11.00000  0.01541  0.01915  0.01519 =
 -0.00188  0.00571 -0.00049 
C5    1     0.50000  0.56580  0.25000  10.50000  0.01114  0.01527  0.01779 =
 0.00000  0.00396  0.00000 
N1    3     0.50000  0.46333  0.25000  10.50000  0.01859  0.01730  0.01631 =
 0.00000  0.01098  0.00000 
O1    4     0.22121  0.47870  0.42006  11.00000  0.02592  0.01706  0.02720 =
 0.00080  0.01449 -0.00016 
O2    4     0.04208  0.61606  0.44293  11.00000  0.02521  0.02190  0.02605 =
 0.00455  0.01629  0.00327 
AFIX 147
H2a   2    -0.04159  0.58445  0.48512  11.00000 -1.50000 
AFIX 0
O3    4     0.33355  0.42440  0.18248  11.00000  0.02835  0.02339  0.02445 =
 -0.00635  0.00817 -0.01096 
HKLF 4

END
Q40 1 0.2636 0.589 0.3419 11 0.05 0.26
Q47 1 0.4687 0.7386 0.3038 11 0.05 0.23
Q48 1 0.4403 0.5861 0.3061 11 0.05 0.23
Q49 1 -0.0056 0.7431 0.5021 11 0.05 0.2
Q50 1 0.2445 0.7397 0.1599 11 0.05 0.2
Q51 1 -0.2823 0.6707 0.495 11 0.05 0.19
Q52 1 0.2661 0.7061 0.5016 11 0.05 0.19
Q53 1 0.4473 0.8264 0.1644 11 0.05 0.19
Q54 1 0.1982 0.568 0.1417 11 0.05 0.19
Q55 1 0.0751 0.6939 0.4438 11 0.05 0.18
Q56 1 0.2408 0.8175 0.405 11 0.05 0.17
Q57 1 0.0037 0.4109 0.3391 11 0.05 0.17
Q58 1 0.3152 0.7154 0.5199 11 0.05 0.17
Q59 1 0.0517 0.5063 0.3404 11 0.05 0.17
Q60 1 -0.0011 0.6379 0.3408 11 0.05 0.17
Q61 1 0.1741 0.8527 0.4062 11 0.05 0.17
Q62 1 0.3052 0.3455 0.1817 11 0.05 0.16
Q63 1 0.0063 0.841 0.3389 11 0.05 0.16
Q64 1 0.4113 0.6623 0.3191 11 0.05 0.16
Q65 1 0.3835 0.8615 0.373 11 0.05 0.16
Q26 1 0.277778 0.5 0.083333 11 0.05 0.29
Q29 1 0.444444 0.833333 0.166667 11 0.05 0.28
Q38 1 0.333333 0.355556 0.083333 11 0.05 0.28
Q39 1 0.277778 0.588889 0.361111 11 0.05 0.27
Q9 1 0.5 0.333333 0.166667 11 0.05 0.33
Q1 1 0.5 0.788889 0.25 11 0.05 0.43
Q4 1 0 0.633333 0.333333 11 0.05 0.36
Q7 1 0.111111 0.477778 0.25 11 0.05 0.34
Q8 1 0.222222 0.444444 0.138889 11 0.05 0.34
Q11 1 0.5 0.344444 0.166667 11 0.05 0.33
Q13 1 -0.111111 0.677778 0.388889 11 0.05 0.32
Q15 1 0.444444 0.588889 0.305556 11 0.05 0.31
Q19 1 0 0.733333 0.5 11 0.05 0.3
Q22 1 0.444444 0.455556 0.361111 11 0.05 0.3
Q25 1 -0.25 0.75 0.5 11 0.05 0.3
Q24 1 -0.166667 0.577778 0.388889 11 0.05 0.3
Q23 1 0.277778 0.511111 0.083333 11 0.05 0.3
Q27 1 0.166667 0.777778 0.305556 11 0.05 0.29
Q34 1 0.555556 0.822222 0.333333 11 0.05 0.28
Q31 1 0.5 0.522222 0.25 11 0.05 0.28
Q33 1 0.444444 0.733333 0.305556 11 0.05 0.28
Q32 1 0.388889 0.355556 0.055556 11 0.05 0.28
Q42 1 -0.055556 0.744444 0.388889 11 0.05 0.26
Q41 1 0.055556 0.511111 0.333333 11 0.05 0.26
Q46 1 0.444444 0.455556 0.555556 11 0.05 0.25

  REM The information below was added by Olex2.
  REM
  REM R1 = 0.0455 for 599 Fo > 4sig(Fo) and 0.0760 for all 857 data
  REM 71 parameters refined using 0 restraints
  REM Highest difference peak 0.4345, deepest hole -0.4268
  REM Mean Shift 0.0000, Max Shift 0.0000.

  REM +++ Tabular Listing of Refinement Information +++
  REM R1_all = 0.0760
  REM R1_gt = 0.0455
  REM wR_ref = 0.1341
  REM GOOF = 1.0472
  REM Shift_max = 0.0000
  REM Shift_mean = 0.0000
  REM Reflections_all = 857
  REM Reflections_gt = 599
  REM Parameters = 71
  REM Hole = -0.4268
  REM Peak = 0.4345
  REM Flack = n/a

  
;
_cod_data_source_file            suppl_ncrs-2019-0704_suppl.cif
_cod_data_source_block           1
_cod_original_cell_volume        866.2(3)
_cod_original_sg_symbol_H-M      'C 2/c'
_cod_database_code               8105121
_olex2_refinement_description
;
1. Fixed Uiso
 At 1.2 times of:
  All C(H) groups
 At 1.5 times of:
  All O(H) groups
2.a Aromatic/amide H refined with riding coordinates:
 C1(H1), C2(H2)
2.b Idealised tetrahedral OH refined as rotating group:
 O2(H2a)
;
_iucr_refine_fcf_details
;
data_1
_computing_structure_refinement   'olex2.refine (Bourhis et al., 2015)'
_shelx_refln_list_code            4
loop_
  _space_group_symop_id
  _space_group_symop_operation_xyz
  1  x,y,z
  2  -x,y,-z+1/2
  3  -x,-y,-z
  4  x,-y,z-1/2
  5  x+1/2,y+1/2,z
  6  -x+1/2,y+1/2,-z+1/2
  7  -x+1/2,-y+1/2,-z
  8  x+1/2,-y+1/2,z-1/2

_space_group_crystal_system       monoclinic
_space_group_IT_number            15
_space_group_name_H-M_alt         'C 1 2/c 1'
_space_group_name_Hall            '-C 2yc'
_symmetry_space_group_name_H-M    'C 1 2/c 1'
_symmetry_space_group_name_Hall   '-C 2yc'
_symmetry_Int_Tables_number       15
_cell_length_a                    5.4755(12)
_cell_length_b                    14.377(3)
_cell_length_c                    11.143(3)
_cell_angle_alpha                 90
_cell_angle_beta                  99.096(9)
_cell_angle_gamma                 90
_cell_volume                      866.2(3)
loop_
  _refln_index_h
  _refln_index_k
  _refln_index_l
  _refln_F_squared_calc
  _refln_F_squared_meas
  _refln_F_squared_sigma
  _refln_F_squared_weight
  _refln_observed_status
-6 0 2 3506.500 3522.500 189.181 0.199 o
-6 0 4 10.041 26.720 23.872 37.016 o
-6 0 6 10.813 13.656 26.773 29.622 o
-6 0 8 29.738 75.624 51.271 8.049 o
-6 2 1 381.786 380.882 21.195 14.688 o
-6 2 2 365.161 366.081 26.488 13.100 o
-6 2 3 16.466 25.453 20.207 51.031 o
-6 2 4 134.075 120.452 17.021 47.894 o
-6 2 5 0.007 13.433 15.543 87.854 o
-6 2 6 6.828 -6.977 16.836 74.973 o
-6 2 7 82.656 90.993 22.555 36.231 o
-6 4 1 1.017 -13.824 15.955 84.049 o
-6 4 2 2.207 12.345 16.728 75.788 o
-6 4 3 58.342 81.055 22.406 38.364 o
-6 4 4 100.887 98.890 18.231 48.954 o
-6 4 5 0.131 3.673 16.564 77.906 o
-6 4 6 0.900 8.023 21.652 45.542 o
-6 4 7 212.186 231.964 46.893 8.317 o
-6 6 1 111.897 105.886 15.835 57.557 o
-6 6 2 187.017 170.417 18.815 34.098 o
-6 6 3 7.544 26.359 24.863 34.229 o
-6 6 4 6.184 8.699 22.812 40.883 o
-6 6 5 2.404 -3.993 16.670 76.879 o
-6 6 6 1.056 33.206 18.873 59.077 o
-6 8 1 261.308 205.681 31.193 15.042 o
-6 8 2 4.279 -5.079 25.312 33.366 o
-6 8 3 192.903 197.834 26.431 21.274 o
-5 1 1 0.321 2.104 9.458 238.310 o
-5 1 2 157.034 184.206 52.446 7.172 o
-5 1 3 1152.130 1222.130 30.379 2.297 o
-5 1 4 1867.490 1919.000 51.357 0.904 o
-5 1 5 664.227 712.061 53.797 3.665 o
-5 1 6 515.709 561.854 34.166 7.087 o
-5 1 7 7.498 1.943 17.802 66.994 o
-5 1 8 41.844 28.308 21.638 43.361 o
-5 1 9 7.688 26.611 20.251 51.262 o
-5 1 10 584.032 598.993 35.840 6.058 o
-5 3 1 170.594 163.404 16.567 41.519 o
-5 3 2 10.797 42.158 30.590 22.586 o
-5 3 3 453.495 448.340 33.820 8.504 o
-5 3 4 0.894 24.207 12.380 135.724 o
-5 3 5 85.968 89.231 17.835 53.156 o
-5 3 6 56.582 30.440 18.113 58.835 o
-5 3 7 90.585 60.207 16.651 60.737 o
-5 3 8 21.984 28.606 15.299 86.027 o
-5 3 9 23.159 17.074 22.071 42.863 o
-5 3 10 675.338 814.445 40.341 4.346 o
-5 5 1 59.896 75.615 12.712 98.707 o
-5 5 2 18.200 6.818 17.051 71.687 o
-5 5 3 19.123 14.157 10.539 176.732 o
-5 5 4 5.556 18.167 17.609 67.948 o
-5 5 5 104.872 74.273 20.667 40.919 o
-5 5 6 135.939 101.052 14.432 60.208 o
-5 5 7 103.932 77.970 14.995 66.483 o
-5 5 8 4.730 3.879 16.415 78.848 o
-5 5 9 12.708 -5.536 18.687 60.571 o
-5 7 1 28.518 22.133 8.965 220.788 o
-5 7 2 118.127 140.661 23.342 30.828 o
-5 7 3 790.343 809.667 34.193 4.156 o
-5 7 4 6.231 29.557 19.793 53.611 o
-5 7 5 243.421 222.468 16.927 29.856 o
-5 7 6 9.201 4.031 15.380 89.091 o
-5 7 7 4.972 23.664 16.492 77.037 o
-5 7 8 28.236 51.403 18.870 56.271 o
-5 7 9 273.637 262.827 25.131 18.228 o
-5 9 1 2.582 -3.581 20.329 51.735 o
-5 9 2 27.715 8.773 12.882 119.784 o
-5 9 3 581.071 539.770 33.969 6.586 o
-5 9 4 252.159 276.630 19.791 23.765 o
-5 9 5 269.660 282.318 21.576 20.942 o
-5 9 6 3.626 -15.593 16.169 81.575 o
-5 9 7 0.603 -27.381 17.512 69.818 o
-5 11 1 0.963 4.376 25.453 33.017 o
-5 11 2 41.986 33.792 23.016 38.435 o
-5 11 3 61.467 46.407 20.398 46.436 o
-5 11 4 155.734 185.695 20.397 32.875 o
-5 11 5 21.404 18.860 23.375 38.346 o
-4 0 2 1026.440 1091.120 32.900 2.740 o
-4 0 4 334.933 332.741 24.387 15.420 o
-4 0 6 7130.800 6272.770 996.523 0.017 o
-4 0 8 24.788 6.941 25.449 32.523 o
-4 0 10 533.153 550.232 41.001 5.971 o
-4 0 12 587.101 1377.200 66.065 2.413 o
-4 2 1 308.783 329.903 15.579 22.301 o
-4 2 2 1031.550 1097.290 23.329 2.916 o
-4 2 3 6.922 3.525 6.065 538.791 o
-4 2 4 0.135 11.716 9.369 238.593 o
-4 2 5 1106.650 1072.020 36.157 2.480 o
-4 2 6 276.943 234.890 18.999 24.351 o
-4 2 7 378.712 383.269 33.110 10.204 o
-4 2 8 292.484 325.388 37.916 10.172 o
-4 2 9 610.212 601.395 31.089 6.393 o
-4 2 10 188.839 189.151 16.907 36.975 o
-4 2 11 8.706 7.572 19.257 57.097 o
-4 2 12 593.024 586.243 30.159 6.750 o
-4 4 1 283.656 318.628 39.778 9.654 o
-4 4 2 13.825 12.621 7.464 338.968 o
-4 4 3 160.561 127.717 12.208 61.546 o
-4 4 4 752.089 739.271 28.740 4.915 o
-4 4 5 46.333 35.726 10.908 142.820 o
-4 4 6 11.479 -3.828 18.069 64.820 o
-4 4 7 18.916 25.673 13.106 116.113 o
-4 4 8 3.122 8.409 11.809 150.942 o
-4 4 9 368.970 394.278 25.256 13.162 o
-4 4 10 91.824 74.340 14.029 76.458 o
-4 4 11 5.536 -16.452 19.331 57.050 o
-4 6 1 420.187 447.181 28.709 10.320 o
-4 6 2 18.425 18.166 8.723 246.726 o
-4 6 3 275.274 285.834 15.790 25.982 o
-4 6 4 23.742 37.446 9.802 187.495 o
-4 6 5 80.825 70.039 10.822 113.850 o
-4 6 6 259.979 181.091 15.829 31.837 o
-4 6 7 28.520 23.552 12.256 128.100 o
-4 6 8 345.247 365.288 21.621 15.993 o
-4 6 9 20.675 14.012 16.027 80.030 o
-4 6 10 67.189 73.714 19.791 47.355 o
-4 6 11 337.532 293.508 24.283 16.029 o
-4 8 1 66.954 63.362 7.933 179.814 o
-4 8 2 187.945 163.537 22.392 27.771 o
-4 8 3 10.560 13.742 10.913 170.757 o
-4 8 4 15.776 3.897 8.836 253.373 o
-4 8 5 1235.590 1215.520 37.449 2.029 o
-4 8 6 102.017 103.328 14.505 67.097 o
-4 8 7 179.153 149.479 21.785 29.811 o
-4 8 8 149.355 166.620 18.055 39.880 o
-4 8 9 71.517 63.542 18.032 55.613 o
-4 8 10 15.244 59.270 22.768 39.830 o
-4 10 1 79.574 27.971 22.710 37.728 o
-4 10 2 65.785 59.276 10.064 138.316 o
-4 10 3 211.618 216.889 12.113 42.188 o
-4 10 4 30.488 21.249 9.740 190.710 o
-4 10 5 367.669 324.961 19.282 17.129 o
-4 10 6 56.239 47.869 13.593 94.493 o
-4 10 7 113.012 108.719 18.174 47.117 o
-4 10 8 6.167 -27.046 17.273 71.309 o
-4 10 9 21.248 14.129 14.903 91.869 o
-4 12 1 5.297 29.891 16.831 73.673 o
-4 12 2 52.517 55.201 16.961 65.001 o
-4 12 3 0.030 -6.101 8.880 271.658 o
-4 12 4 64.673 61.650 11.032 122.164 o
-4 12 5 309.612 258.887 23.441 18.210 o
-4 12 6 449.840 578.967 29.447 8.629 o
-4 12 7 48.002 64.265 22.336 39.614 o
-4 14 1 7.408 -5.214 17.996 65.645 o
-4 14 2 195.671 183.924 21.540 28.007 o
-4 14 3 118.887 105.806 12.344 75.981 o
-3 1 1 455.737 468.020 12.286 13.629 o
-3 1 2 75.079 53.793 5.603 237.064 o
-3 1 3 241.458 254.391 12.020 35.380 o
-3 1 4 188.674 183.285 11.786 50.166 o
-3 1 5 6.185 2.661 6.515 476.111 o
-3 1 6 1944.460 1960.460 50.646 0.855 o
-3 1 7 296.430 293.919 19.773 20.819 o
-3 1 8 4518.820 4734.550 87.488 0.166 o
-3 1 9 707.061 768.342 28.625 5.135 o
-3 1 10 8.463 5.694 9.389 232.600 o
-3 1 11 18.144 4.784 10.605 178.338 o
-3 1 12 21.226 -28.840 30.876 22.287 o
-3 1 13 16.789 -6.169 38.717 14.235 o
-3 3 1 1.733 -4.127 4.245 1153.060 o
-3 3 2 1845.550 1963.530 40.230 0.945 o
-3 3 3 267.511 248.138 13.257 31.133 o
-3 3 4 597.809 555.623 19.157 8.300 o
-3 3 5 979.690 1016.470 32.376 3.014 o
-3 3 6 884.230 910.750 30.802 3.629 o
-3 3 7 371.410 364.491 19.974 15.874 o
-3 3 8 8.553 -7.747 12.798 128.502 o
-3 3 9 0.009 11.421 8.855 266.683 o
-3 3 10 128.193 135.580 16.021 51.440 o
-3 3 11 496.438 412.233 40.126 6.955 o
-3 3 12 244.039 201.554 41.901 9.890 o
-3 5 1 1144.580 1251.420 29.049 2.300 o
-3 5 2 162.799 141.675 9.722 69.738 o
-3 5 3 0.041 2.876 6.180 554.037 o
-3 5 4 933.214 1065.180 44.575 2.721 o
-3 5 5 1.107 8.086 9.004 258.750 o
-3 5 6 147.113 145.212 13.232 58.313 o
-3 5 7 80.055 89.440 13.892 78.674 o
-3 5 8 496.945 477.254 21.721 10.339 o
-3 5 9 14.991 12.970 10.608 177.648 o
-3 5 10 44.815 20.227 16.076 75.517 o
-3 5 11 3.941 15.477 38.765 14.219 o
-3 5 12 178.944 130.247 41.390 11.034 o
-3 7 1 0.218 18.954 13.071 122.982 o
-3 7 2 308.328 291.387 18.172 21.515 o
-3 7 3 376.066 454.099 21.928 13.460 o
-3 7 4 0.668 4.220 7.405 384.274 o
-3 7 5 0.425 1.496 7.470 381.335 o
-3 7 6 683.481 651.507 23.145 6.250 o
-3 7 7 413.649 409.759 22.518 12.826 o
-3 7 8 561.295 487.639 26.775 8.209 o
-3 7 9 260.968 268.407 27.229 16.976 o
-3 7 10 214.170 183.758 18.524 31.617 o
-3 7 11 0.247 14.408 23.471 38.713 o
-3 9 1 1338.720 1427.670 34.133 1.721 o
-3 9 2 493.588 489.879 24.056 9.778 o
-3 9 3 165.029 150.477 11.800 59.187 o
-3 9 4 1.068 2.334 9.852 219.092 o
-3 9 5 42.305 64.198 34.061 17.884 o
-3 9 6 252.655 242.329 20.332 24.186 o
-3 9 7 232.790 200.536 16.740 32.125 o
-3 9 8 53.191 34.221 10.560 146.188 o
-3 9 9 57.990 62.551 11.254 122.137 o
-3 9 10 0.785 -17.404 18.344 63.620 o
-3 9 11 2.216 -2.912 18.782 60.611 o
-3 11 1 6383.010 6747.310 101.283 0.085 o
-3 11 2 24.009 21.641 7.528 302.086 o
-3 11 3 6.114 7.133 13.106 122.354 o
-3 11 4 0.277 6.104 9.238 247.871 o
-3 11 5 1.893 -0.082 11.609 158.254 o
-3 11 6 7.213 4.056 11.106 169.318 o
-3 11 7 61.425 42.454 12.962 101.157 o
-3 11 8 30.676 29.891 11.767 135.287 o
-3 11 9 527.408 620.549 22.309 8.448 o
-3 13 1 219.761 234.873 15.867 33.126 o
-3 13 2 7.956 17.191 10.802 174.627 o
-3 13 3 166.746 184.327 12.978 50.936 o
-3 13 4 96.796 78.018 22.733 35.302 o
-3 13 5 51.991 2.137 14.397 92.577 o
-3 13 6 33.677 16.614 13.689 104.352 o
-3 13 7 506.175 548.344 29.978 7.980 o
-3 15 1 0.403 -0.553 13.019 126.302 o
-3 15 2 18.176 31.858 14.203 99.360 o
-3 15 3 7.258 25.938 17.060 71.760 o
-3 15 4 1.145 -30.694 26.671 30.103 o
-3 15 5 9.342 21.774 19.145 57.275 o
-2 0 2 2458.390 2383.750 60.620 0.557 o
-2 0 4 1188.390 1121.840 36.626 2.227 o
-2 0 6 880.939 850.901 30.203 3.802 o
-2 0 8 2106.910 2189.820 62.855 0.695 o
-2 0 10 2121.100 2398.660 120.305 0.494 o
-2 0 12 2.434 -8.668 28.919 25.593 o
-2 2 1 74.225 58.793 5.725 230.024 o
-2 2 2 6381.270 6304.100 105.440 0.088 o
-2 2 3 8155.710 8805.670 167.579 0.050 o
-2 2 4 2210.850 2226.870 50.543 0.680 o
-2 2 5 382.122 418.920 15.270 16.410 o
-2 2 6 98.091 98.895 9.061 116.195 o
-2 2 7 235.905 227.400 15.956 31.737 o
-2 2 8 554.038 547.979 17.822 9.266 o
-2 2 9 142.536 129.603 15.762 50.595 o
-2 2 10 0.660 2.651 13.010 126.103 o
-2 2 11 1265.580 1252.270 90.228 1.206 o
-2 2 12 322.273 314.982 23.827 16.453 o
-2 2 13 29.650 3.266 27.812 27.256 o
-2 4 1 556.942 565.495 13.805 9.573 o
-2 4 2 3858.210 4158.830 73.180 0.223 o
-2 4 3 105.042 73.871 6.283 157.637 o
-2 4 4 844.820 988.756 22.433 3.927 o
-2 4 5 135.133 105.892 8.928 93.429 o
-2 4 6 1226.240 1288.230 44.548 1.879 o
-2 4 7 444.007 419.344 21.990 12.098 o
-2 4 8 1232.930 1262.620 34.274 2.034 o
-2 4 9 0.092 -15.725 12.740 131.983 o
-2 4 10 12.839 1.542 28.534 26.159 o
-2 4 11 191.264 184.557 29.433 18.467 o
-2 4 12 1.020 6.918 29.573 24.455 o
-2 4 13 11.447 14.429 31.872 20.949 o
-2 6 1 773.633 761.594 15.734 5.385 o
-2 6 2 2.501 -0.988 4.916 857.385 o
-2 6 3 29.061 42.884 6.743 314.484 o
-2 6 4 906.769 972.120 26.667 3.541 o
-2 6 5 626.991 718.484 22.519 6.539 o
-2 6 6 1301.670 1482.530 64.512 1.397 o
-2 6 7 188.058 182.116 14.771 42.485 o
-2 6 8 3.490 1.925 10.396 195.553 o
-2 6 9 7.167 -10.073 12.448 136.125 o
-2 6 10 152.845 100.700 15.003 54.312 o
-2 6 11 11.901 -5.011 24.690 34.906 o
-2 6 12 0.684 -7.573 25.435 33.106 o
-2 8 1 5.700 3.466 6.093 540.320 o
-2 8 2 539.241 624.286 17.386 8.915 o
-2 8 3 216.341 200.385 12.867 41.211 o
-2 8 4 1125.190 1186.290 31.430 2.385 o
-2 8 5 606.491 579.030 17.009 8.236 o
-2 8 6 17.569 4.098 6.451 438.260 o
-2 8 7 10.086 12.281 6.343 464.688 o
-2 8 8 185.503 153.959 14.675 45.258 o
-2 8 9 561.854 520.146 45.522 5.304 o
-2 8 10 9.357 9.578 12.216 138.863 o
-2 8 11 252.906 200.784 17.934 28.572 o
-2 8 12 77.115 89.226 18.041 53.301 o
-2 10 1 113.756 102.523 7.309 122.355 o
-2 10 2 1484.700 1581.630 25.410 1.485 o
-2 10 3 3297.830 3339.800 46.992 0.325 o
-2 10 4 1273.490 1378.600 31.119 1.894 o
-2 10 5 520.304 485.212 22.791 9.599 o
-2 10 6 8.460 5.199 7.687 340.366 o
-2 10 7 7.633 -4.428 7.362 377.162 o
-2 10 8 38.483 37.646 11.037 144.260 o
-2 10 9 480.765 457.743 21.803 10.859 o
-2 10 10 0.185 -25.288 12.157 144.907 o
-2 10 11 62.097 58.791 11.500 117.228 o
-2 12 1 10.932 7.178 9.069 244.998 o
-2 12 2 488.882 512.085 18.035 10.911 o
-2 12 3 1674.150 1748.950 28.165 1.191 o
-2 12 4 868.250 875.803 25.767 3.979 o
-2 12 5 447.557 469.097 20.202 11.900 o
-2 12 6 15.342 19.003 8.671 252.892 o
-2 12 7 54.448 48.378 12.156 113.588 o
-2 12 8 1.519 -2.837 11.654 157.167 o
-2 12 9 353.544 358.767 23.287 14.987 o
-2 14 1 29.383 40.205 11.632 136.132 o
-2 14 2 5.030 2.543 11.682 154.581 o
-2 14 3 75.565 58.741 13.736 85.640 o
-2 14 4 58.188 51.687 14.721 81.924 o
-2 14 5 13.597 17.901 11.531 151.422 o
-2 14 6 46.623 31.549 11.483 132.482 o
-2 14 7 12.291 16.807 11.877 143.983 o
-2 16 1 12.360 25.101 14.645 95.632 o
-2 16 2 24.396 22.579 14.235 98.590 o
-2 16 3 0.140 22.786 14.667 97.752 o
-2 16 4 45.404 56.116 16.140 71.962 o
-1 1 1 241.752 224.137 6.171 45.839 o
-1 1 2 1214.820 1146.320 26.014 2.301 o
-1 1 3 71.735 57.120 4.603 271.972 o
-1 1 4 9419.110 9208.090 150.632 0.041 o
-1 1 5 2260.980 2344.580 38.943 0.663 o
-1 1 6 189.483 212.035 8.853 54.452 o
-1 1 7 24.183 16.469 6.228 413.161 o
-1 1 8 160.711 136.225 29.292 20.144 o
-1 1 9 280.486 302.875 21.101 20.320 o
-1 1 10 212.972 235.466 22.432 24.204 o
-1 1 11 265.815 269.604 72.620 3.689 o
-1 1 12 236.119 201.523 26.392 19.640 o
-1 1 13 406.636 446.855 41.068 7.414 o
-1 3 1 7505.060 6955.360 101.841 0.067 o
-1 3 2 284.505 292.275 10.104 30.260 o
-1 3 3 569.045 584.309 15.365 8.992 o
-1 3 4 8765.340 8931.470 146.916 0.046 o
-1 3 5 2090.580 2183.280 42.681 0.755 o
-1 3 6 1619.000 1803.330 37.780 1.174 o
-1 3 7 77.151 75.525 7.794 163.593 o
-1 3 8 330.426 327.729 19.105 18.797 o
-1 3 9 80.295 67.007 12.264 97.555 o
-1 3 10 371.145 317.754 30.949 11.667 o
-1 3 11 70.473 37.653 19.864 48.322 o
-1 3 12 30.623 6.058 22.455 41.369 o
-1 3 13 150.590 119.784 24.212 27.987 o
-1 5 1 22.017 7.408 2.749 1224.980 o
-1 5 2 5167.460 5135.010 65.937 0.136 o
-1 5 3 1839.010 1768.320 28.480 1.051 o
-1 5 4 14.439 9.049 3.928 955.265 o
-1 5 5 223.572 286.520 8.848 40.015 o
-1 5 6 12.847 12.562 7.650 326.614 o
-1 5 7 140.353 134.306 12.410 65.074 o
-1 5 8 186.449 197.196 15.084 40.888 o
-1 5 9 0.987 -7.086 11.593 159.043 o
-1 5 10 600.951 630.183 28.801 6.614 o
-1 5 11 238.154 260.204 21.373 23.363 o
-1 5 12 15.696 26.316 17.678 66.148 o
-1 5 13 5.312 20.151 39.070 13.985 o
-1 7 1 400.455 384.675 9.312 18.420 o
-1 7 2 807.667 858.692 15.376 4.770 o
-1 7 3 1206.980 1219.190 18.613 2.316 o
-1 7 4 100.338 101.462 6.351 146.335 o
-1 7 5 121.637 132.394 7.215 106.397 o
-1 7 6 164.855 162.228 11.303 59.626 o
-1 7 7 2.752 -0.087 6.968 433.176 o
-1 7 8 410.675 411.984 17.712 14.569 o
-1 7 9 554.862 559.800 17.451 9.197 o
-1 7 10 26.555 16.902 8.902 228.933 o
-1 7 11 51.269 44.248 12.318 113.426 o
-1 7 12 90.994 40.219 15.302 71.185 o
-1 9 1 1068.400 1050.880 16.974 2.974 o
-1 9 2 156.022 163.894 6.932 80.157 o
-1 9 3 374.929 348.612 10.907 20.289 o
-1 9 4 1715.750 1744.850 37.697 1.119 o
-1 9 5 126.154 127.147 7.966 99.571 o
-1 9 6 2228.180 2339.360 35.053 0.682 o
-1 9 7 191.213 182.616 11.688 49.986 o
-1 9 8 133.013 129.228 15.410 53.638 o
-1 9 9 262.777 245.273 23.488 20.404 o
-1 9 10 1.302 34.657 18.387 62.111 o
-1 9 11 577.665 675.626 64.775 3.245 o
-1 11 1 405.086 401.366 12.742 16.710 o
-1 11 2 46.851 33.911 5.925 325.227 o
-1 11 3 9.355 6.685 5.557 605.862 o
-1 11 4 1.993 6.017 7.990 327.057 o
-1 11 5 4039.570 4347.170 68.241 0.206 o
-1 11 6 0.808 3.480 10.404 196.414 o
-1 11 7 31.481 16.327 12.636 121.474 o
-1 11 8 18.385 -7.233 17.995 64.807 o
-1 11 9 93.916 78.651 17.116 56.305 o
-1 11 10 36.173 48.616 18.810 56.018 o
-1 13 1 504.128 532.334 21.488 9.715 o
-1 13 2 4.442 73.119 30.988 21.914 o
-1 13 3 1.028 10.912 8.489 288.529 o
-1 13 4 166.772 165.965 13.001 52.700 o
-1 13 5 90.870 95.832 14.208 72.622 o
-1 13 6 234.535 233.199 21.314 24.403 o
-1 13 7 283.988 231.837 20.573 22.436 o
-1 13 8 394.871 477.148 44.992 6.614 o
-1 13 9 0.853 -8.065 21.625 45.786 o
-1 15 1 130.313 132.778 13.717 61.404 o
-1 15 2 42.594 57.884 12.026 118.688 o
-1 15 3 451.806 474.072 28.277 9.663 o
-1 15 4 42.298 49.804 14.357 89.604 o
-1 15 5 34.433 35.453 13.430 105.027 o
-1 15 6 22.076 24.253 17.411 67.571 o
-1 15 7 48.410 61.336 20.318 47.190 o
-1 17 1 41.430 36.468 19.312 53.417 o
-1 17 2 1.885 -27.216 20.171 52.580 o
-1 17 3 1.555 21.120 19.640 54.938 o
0 0 2 4385.320 4307.130 140.587 0.165 o
0 0 4 32.670 44.951 5.216 407.354 o
0 0 6 1115.510 1125.890 28.975 2.526 o
0 0 8 2234.440 2369.510 54.761 0.638 o
0 0 10 2.907 6.990 9.857 215.695 o
0 0 12 952.968 1045.540 58.124 2.293 o
0 2 0 12291.000 9537.100 215.267 0.027 o
0 2 1 1922.720 1764.530 18.169 1.017 o
0 2 2 793.789 760.203 12.591 5.343 o
0 2 3 3078.070 2839.890 49.976 0.390 o
0 2 4 266.823 293.470 9.235 32.993 o
0 2 5 573.194 537.988 12.108 9.715 o
0 2 6 2097.540 2178.830 36.780 0.766 o
0 2 7 85.090 85.642 5.837 184.032 o
0 2 8 72.498 57.447 5.899 229.999 o
0 2 9 0.032 2.243 8.828 273.624 o
0 2 10 40.686 21.808 9.102 201.858 o
0 2 11 29.667 36.038 14.651 90.895 o
0 2 12 250.474 237.328 32.194 14.297 o
0 2 13 3.488 16.705 33.542 18.973 o
0 4 0 33.402 29.200 2.638 760.007 o
0 4 1 1847.690 1867.310 19.480 1.031 o
0 4 2 496.101 398.084 6.198 14.476 o
0 4 3 617.471 531.224 10.732 9.059 o
0 4 4 1.320 0.688 2.488 3182.040 o
0 4 5 512.064 522.291 12.872 11.150 o
0 4 6 1341.720 1438.620 28.581 1.758 o
0 4 7 1310.060 1449.820 46.823 1.612 o
0 4 8 772.073 913.688 44.755 3.453 o
0 4 9 259.422 256.123 16.617 27.497 o
0 4 10 25.806 34.390 10.662 162.105 o
0 4 11 42.748 34.697 12.956 109.157 o
0 4 12 123.999 118.423 14.999 58.148 o
0 4 13 1.558 -20.570 18.983 59.374 o
0 6 0 6318.960 6456.150 87.719 0.089 o
0 6 1 1272.550 1299.930 16.277 2.100 o
0 6 2 2034.190 2244.990 26.599 0.798 o
0 6 3 727.292 770.551 13.890 5.836 o
0 6 4 40.946 30.404 4.693 446.243 o
0 6 5 1536.020 1472.560 30.485 1.460 o
0 6 6 361.994 363.516 19.514 16.469 o
0 6 7 226.839 249.938 11.424 38.563 o
0 6 8 47.594 39.740 7.028 259.544 o
0 6 9 13.602 2.564 7.721 329.830 o
0 6 10 6.018 16.700 8.984 249.563 o
0 6 11 397.571 403.891 27.033 11.710 o
0 6 12 17.702 0.364 13.203 118.460 o
0 8 0 7.735 3.825 4.644 860.344 o
0 8 1 1394.540 1702.920 21.443 1.541 o
0 8 2 1319.250 1371.680 18.315 1.927 o
0 8 3 626.221 619.381 12.775 8.017 o
0 8 4 40.506 42.195 5.947 331.007 o
0 8 5 476.985 419.691 28.874 9.549 o
0 8 6 149.480 129.561 12.483 62.939 o
0 8 7 2.204 10.739 11.445 160.416 o
0 8 8 262.225 268.059 17.224 26.133 o
0 8 9 53.099 44.116 13.520 96.865 o
0 8 10 239.814 262.047 47.775 7.796 o
0 8 11 231.417 206.019 26.959 19.194 o
0 8 12 31.378 13.118 23.849 36.648 o
0 10 0 162.927 161.894 10.344 63.895 o
0 10 1 120.852 106.812 6.101 126.197 o
0 10 2 114.640 126.894 7.057 114.580 o
0 10 3 89.397 102.915 7.086 147.260 o
0 10 4 92.019 110.807 17.506 52.434 o
0 10 5 694.792 713.733 27.419 5.524 o
0 10 6 587.389 623.900 27.178 6.986 o
0 10 7 2906.950 3265.430 63.259 0.373 o
0 10 8 1068.490 1127.540 46.335 2.282 o
0 10 9 105.467 103.822 18.452 47.244 o
0 10 10 4.284 5.098 19.557 55.679 o
0 10 11 12.434 -0.931 23.797 37.541 o
0 12 0 308.205 243.740 18.549 22.586 o
0 12 1 2.520 -5.365 6.769 459.272 o
0 12 2 58.017 72.057 9.016 160.124 o
0 12 3 261.562 271.895 17.979 25.224 o
0 12 4 1.665 6.225 10.950 176.324 o
0 12 5 215.617 184.131 16.010 36.077 o
0 12 6 2.501 28.513 13.113 120.343 o
0 12 7 1104.320 1249.560 42.818 2.158 o
0 12 8 101.206 73.181 22.930 34.671 o
0 12 9 3.557 10.250 19.309 57.010 o
0 12 10 45.985 85.096 24.492 33.059 o
0 14 1 926.872 812.621 29.104 3.722 o
0 14 2 77.760 84.106 10.461 116.356 o
0 14 3 307.075 324.937 15.149 22.884 o
0 14 4 84.169 120.787 15.015 66.005 o
0 14 5 149.461 118.153 15.196 52.569 o
0 14 6 200.175 223.144 18.753 30.745 o
0 14 7 1.197 7.182 16.064 82.513 o
0 14 8 1.255 27.211 19.790 53.971 o
0 16 0 141.333 127.954 18.823 40.688 o
0 16 1 95.657 74.373 14.087 75.010 o
0 16 2 0.560 22.589 13.379 116.977 o
0 16 3 387.979 434.291 35.044 9.134 o
0 16 4 0.779 30.216 19.240 56.991 o
0 16 5 0.086 16.840 18.815 60.024 o
1 1 0 471.951 509.671 9.836 12.891 o
1 1 1 6089.540 5815.670 66.559 0.101 o
1 1 2 28767.100 25022.000 298.082 0.005 o
1 1 3 10821.000 10706.000 154.789 0.031 o
1 1 4 1667.020 1582.140 28.611 1.272 o
1 1 5 43.180 43.367 5.491 347.803 o
1 1 6 700.033 702.901 16.769 6.289 o
1 1 7 76.131 68.043 8.749 150.323 o
1 1 8 1080.220 1127.010 29.870 2.603 o
1 1 9 80.101 75.124 8.450 148.666 o
1 1 10 47.169 50.222 8.666 192.170 o
1 1 11 135.624 140.493 13.066 62.334 o
1 1 12 102.427 125.456 11.815 81.950 o
1 1 13 2.108 -16.424 11.338 165.788 o
1 3 0 428.603 376.146 7.367 17.689 o
1 3 1 442.387 402.907 8.367 16.206 o
1 3 2 118.508 88.787 4.709 151.499 o
1 3 3 3132.370 3250.730 43.135 0.354 o
1 3 4 614.030 669.187 14.099 7.728 o
1 3 5 53.977 38.873 4.603 367.109 o
1 3 6 112.758 107.924 8.565 108.751 o
1 3 7 204.635 217.325 11.956 43.628 o
1 3 8 868.522 898.653 35.065 3.552 o
1 3 9 0.016 -0.849 8.250 314.731 o
1 3 10 230.275 239.638 12.748 36.684 o
1 3 11 255.082 245.484 17.842 26.793 o
1 3 12 5.162 -5.472 15.344 90.332 o
1 5 0 292.195 222.187 6.691 36.661 o
1 5 1 1.161 5.273 2.016 4026.450 o
1 5 2 67.496 66.511 4.369 278.039 o
1 5 3 478.661 506.524 10.112 12.692 o
1 5 4 132.855 132.335 8.770 89.003 o
1 5 5 1002.460 1060.250 25.000 3.044 o
1 5 6 525.587 587.550 26.855 8.003 o
1 5 7 31.394 21.674 6.479 356.795 o
1 5 8 0.430 -7.334 8.958 266.535 o
1 5 9 151.621 148.193 12.931 58.191 o
1 5 10 7.765 3.136 11.136 168.398 o
1 5 11 4.141 -1.573 17.760 67.629 o
1 5 12 43.364 71.313 15.303 77.814 o
1 7 0 1647.030 1783.320 23.817 1.215 o
1 7 1 1901.140 2101.530 27.681 0.905 o
1 7 2 10.991 23.508 3.104 1174.300 o
1 7 3 2367.580 2516.900 29.967 0.608 o
1 7 4 4.734 2.229 4.256 1067.110 o
1 7 5 137.270 124.133 9.166 86.303 o
1 7 6 389.559 426.462 14.191 16.340 o
1 7 7 761.471 794.840 24.712 4.904 o
1 7 8 44.936 36.837 7.383 252.121 o
1 7 9 21.239 19.879 13.340 112.504 o
1 7 10 284.258 250.158 21.520 21.065 o
1 7 11 36.532 48.746 24.165 34.958 o
1 9 0 497.458 496.363 11.221 12.123 o
1 9 1 982.877 1029.340 17.544 3.325 o
1 9 2 969.401 1055.290 16.761 3.341 o
1 9 3 743.487 807.012 14.575 5.497 o
1 9 4 4.560 8.440 5.977 552.976 o
1 9 5 75.801 59.901 7.196 188.018 o
1 9 6 18.154 12.315 7.810 304.742 o
1 9 7 321.974 335.304 24.149 15.930 o
1 9 8 237.689 229.244 16.440 30.765 o
1 9 9 16.129 32.554 19.816 52.805 o
1 9 10 1066.350 1193.050 51.378 2.112 o
1 9 11 93.599 97.160 24.065 31.703 o
1 11 0 3.949 -5.723 5.459 688.708 o
1 11 1 316.090 328.222 13.264 23.503 o
1 11 2 223.309 187.502 9.267 48.561 o
1 11 3 6.571 3.065 4.773 838.662 o
1 11 4 111.595 114.016 12.327 77.124 o
1 11 5 126.493 109.425 9.795 90.416 o
1 11 6 43.825 56.404 13.951 92.807 o
1 11 7 691.977 768.393 25.226 5.491 o
1 11 8 70.627 60.594 21.336 41.737 o
1 11 9 746.404 846.441 49.158 3.433 o
1 11 10 1.322 -7.665 22.367 42.788 o
1 13 0 41.414 38.462 7.996 231.140 o
1 13 1 664.281 612.805 19.142 7.016 o
1 13 2 979.404 982.406 27.915 3.196 o
1 13 3 246.815 225.484 11.967 36.644 o
1 13 4 275.510 244.953 17.888 25.289 o
1 13 5 204.858 203.833 22.633 25.262 o
1 13 6 90.249 103.374 12.635 83.679 o
1 13 7 48.817 46.617 15.303 79.211 o
1 13 8 18.163 42.334 22.473 41.078 o
1 15 0 44.086 27.822 13.219 106.141 o
1 15 1 230.724 201.604 16.429 32.783 o
1 15 2 19.779 18.042 9.980 193.126 o
1 15 3 88.271 71.371 9.640 124.928 o
1 15 4 2.704 -10.848 12.651 133.119 o
1 15 5 589.408 682.438 33.659 5.926 o
1 15 6 40.870 24.760 19.333 53.829 o
1 17 0 193.367 213.396 20.694 28.502 o
1 17 1 2.416 2.981 17.817 67.213 o
1 17 2 19.770 55.249 17.879 62.913 o
1 17 3 48.746 39.315 18.111 59.217 o
2 0 0 231.235 248.417 13.143 35.385 o
2 0 2 74.443 50.091 5.384 249.388 o
2 0 4 10485.800 10739.300 204.182 0.031 o
2 0 6 191.055 181.707 14.296 43.256 o
2 0 10 955.136 1119.530 75.642 1.786 o
2 0 12 22.327 50.741 18.674 57.938 o
2 2 0 1644.370 1726.290 29.392 1.223 o
2 2 1 326.836 349.916 9.244 24.305 o
2 2 2 506.917 505.968 13.966 11.305 o
2 2 3 1209.000 1393.080 22.510 2.085 o
2 2 4 305.191 342.403 10.147 25.869 o
2 2 5 3825.010 4097.690 60.810 0.231 o
2 2 6 366.197 364.457 12.304 19.730 o
2 2 7 398.416 409.218 17.172 15.244 o
2 2 8 98.248 98.403 8.969 117.315 o
2 2 9 181.675 174.228 14.410 44.995 o
2 2 10 647.714 699.335 29.914 5.754 o
2 2 11 45.306 70.556 19.443 50.973 o
2 2 12 19.742 30.497 13.959 102.420 o
2 4 0 1611.260 1577.410 33.899 1.303 o
2 4 1 476.529 471.158 15.860 12.181 o
2 4 2 3201.880 3204.260 47.558 0.346 o
2 4 3 172.638 200.852 6.945 66.135 o
2 4 4 168.519 179.020 7.728 69.005 o
2 4 5 530.007 570.430 14.945 9.915 o
2 4 6 80.820 68.779 7.016 178.974 o
2 4 7 218.211 226.659 10.998 42.459 o
2 4 8 263.157 266.522 14.790 28.861 o
2 4 9 142.044 159.715 12.736 59.906 o
2 4 10 4.781 1.793 10.860 178.778 o
2 4 11 32.142 55.682 15.094 83.638 o
2 6 0 219.758 223.804 7.039 49.430 o
2 6 1 52.623 55.900 6.978 235.565 o
2 6 2 718.012 689.525 19.994 5.970 o
2 6 3 1.960 1.234 4.159 1180.980 o
2 6 4 17.897 34.956 5.166 519.847 o
2 6 5 130.469 108.588 11.805 75.231 o
2 6 6 335.235 317.151 24.142 15.797 o
2 6 7 14.906 6.343 10.594 180.241 o
2 6 8 0.445 0.616 10.684 187.295 o
2 6 9 221.789 202.070 16.482 33.575 o
2 6 10 165.604 64.400 19.849 38.522 o
2 6 11 18.831 2.558 18.636 60.390 o
2 8 0 503.321 509.431 16.081 10.982 o
2 8 1 43.790 40.888 5.980 320.742 o
2 8 2 15.473 16.812 6.122 459.855 o
2 8 3 2168.150 2357.660 33.486 0.704 o
2 8 4 231.732 230.959 9.996 41.567 o
2 8 5 926.212 971.364 20.659 3.627 o
2 8 6 20.465 3.794 10.150 192.214 o
2 8 7 10.427 30.529 10.576 175.929 o
2 8 8 69.749 55.693 12.074 106.513 o
2 8 9 4.955 5.983 11.553 157.324 o
2 8 10 116.100 97.603 14.595 64.040 o
2 10 0 19.155 18.148 7.766 300.079 o
2 10 1 48.074 43.665 7.180 248.169 o
2 10 2 66.291 68.061 8.544 164.042 o
2 10 3 1614.760 1658.010 26.341 1.296 o
2 10 4 0.011 -0.155 3.402 1850.980 o
2 10 5 9.972 8.318 6.207 491.746 o
2 10 6 5.791 6.442 14.614 98.875 o
2 10 7 6.606 15.794 12.004 143.510 o
2 10 8 66.128 38.621 12.920 100.683 o
2 10 9 59.273 57.365 15.282 76.158 o
2 12 0 81.885 84.764 9.164 131.574 o
2 12 1 90.270 82.990 9.404 122.750 o
2 12 2 99.478 102.829 9.103 113.505 o
2 12 3 759.989 824.870 21.701 4.967 o
2 12 4 809.384 786.222 24.929 4.604 o
2 12 5 13.875 17.798 11.293 157.362 o
2 12 6 81.402 78.252 13.504 83.134 o
2 12 7 80.290 77.416 11.030 109.537 o
2 12 8 60.723 74.151 13.550 89.589 o
2 14 0 322.934 340.069 18.118 19.489 o
2 14 1 161.274 174.057 13.058 52.806 o
2 14 2 91.537 100.832 12.383 85.787 o
2 14 3 285.520 240.117 14.036 28.873 o
2 14 4 118.273 140.397 15.465 55.036 o
2 14 5 136.482 125.641 20.852 35.767 o
2 14 6 6.335 -14.433 20.683 49.833 o
2 16 0 20.962 10.005 18.686 59.642 o
2 16 1 394.523 402.848 25.035 12.502 o
2 16 2 71.934 86.079 19.482 47.630 o
2 16 3 60.792 64.092 18.488 54.467 o
3 1 0 125.377 115.621 9.632 90.694 o
3 1 1 98.737 100.609 5.986 153.333 o
3 1 2 408.764 429.921 11.562 16.294 o
3 1 3 182.445 191.859 10.138 55.275 o
3 1 4 369.988 380.194 12.717 18.917 o
3 1 5 65.847 61.877 8.036 179.598 o
3 1 6 2700.960 2884.520 48.476 0.456 o
3 1 7 494.901 548.051 25.132 9.042 o
3 1 8 241.261 254.371 21.184 23.559 o
3 1 9 19.805 40.875 12.835 117.885 o
3 1 10 8.136 10.314 14.675 97.353 o
3 1 11 13.693 16.734 16.632 75.189 o
3 3 0 3562.200 3728.790 62.399 0.268 o
3 3 1 874.394 902.360 19.264 4.099 o
3 3 2 603.266 602.753 13.123 8.481 o
3 3 3 3.496 -3.468 6.767 456.346 o
3 3 4 383.228 380.193 14.744 17.414 o
3 3 5 369.965 367.647 13.674 18.825 o
3 3 6 35.818 29.426 7.606 266.043 o
3 3 7 54.426 51.480 8.495 187.741 o
3 3 8 118.141 108.159 17.530 48.981 o
3 3 9 296.947 272.118 18.895 22.114 o
3 3 10 106.026 117.852 17.426 50.381 o
3 5 0 1392.660 1469.570 35.996 1.600 o
3 5 1 371.000 373.989 18.804 16.257 o
3 5 2 485.759 453.197 19.321 11.387 o
3 5 3 14.366 8.306 6.085 488.677 o
3 5 4 310.116 343.610 14.505 22.534 o
3 5 5 9.169 6.000 6.668 439.570 o
3 5 6 153.710 146.383 9.659 72.382 o
3 5 7 6.231 5.454 8.856 262.866 o
3 5 8 371.488 388.667 20.300 15.292 o
3 5 9 34.288 36.525 13.534 103.492 o
3 5 10 59.809 62.892 18.471 54.725 o
3 7 0 218.754 201.534 21.162 26.520 o
3 7 1 41.276 52.325 14.305 90.111 o
3 7 2 186.884 179.470 14.679 43.086 o
3 7 3 279.858 277.826 15.985 25.744 o
3 7 4 45.257 26.570 6.260 321.503 o
3 7 5 163.310 157.991 11.696 59.075 o
3 7 6 555.613 569.921 24.514 8.077 o
3 7 7 159.609 145.882 10.486 66.740 o
3 7 8 276.547 248.361 21.651 21.374 o
3 7 9 0.518 -12.985 12.755 131.560 o
3 9 0 1548.650 1685.370 43.608 1.254 o
3 9 1 18.460 17.593 10.998 162.806 o
3 9 2 18.561 16.655 10.416 180.093 o
3 9 3 3.900 20.459 15.621 86.026 o
3 9 4 35.871 38.109 10.144 167.186 o
3 9 5 286.304 281.062 15.019 26.062 o
3 9 6 15.500 2.755 8.167 294.111 o
3 9 7 33.343 32.494 16.420 73.432 o
3 9 8 2.975 0.646 13.579 115.510 o
3 9 9 12.201 -12.998 16.535 77.147 o
3 11 0 104.755 104.330 11.024 91.546 o
3 11 1 492.092 593.392 51.014 4.842 o
3 11 2 62.793 60.195 30.224 22.199 o
3 11 3 43.056 37.922 12.244 119.330 o
3 11 4 5.414 -17.132 11.138 170.206 o
3 11 5 158.313 174.512 10.007 64.713 o
3 11 6 41.310 18.457 15.802 78.661 o
3 11 7 280.215 292.583 29.677 14.511 o
3 13 0 12.076 10.184 10.121 197.092 o
3 13 1 45.003 28.739 13.226 105.598 o
3 13 2 311.069 309.884 20.702 19.030 o
3 13 3 149.135 136.390 11.989 64.406 o
3 13 4 7.958 8.812 9.655 219.553 o
3 13 5 211.916 178.404 22.043 26.410 o
3 13 6 12.331 -17.869 27.570 28.026 o
3 15 0 0.267 2.447 12.796 130.459 o
3 15 1 39.187 23.611 13.051 110.850 o
3 15 2 4.649 9.162 11.328 162.929 o
3 15 3 33.963 30.711 18.023 61.775 o
4 0 0 410.531 441.452 20.059 13.309 o
4 0 2 0.154 2.576 9.090 257.837 o
4 0 4 161.180 165.801 13.669 51.566 o
4 0 6 943.563 874.875 52.926 2.660 o
4 0 8 943.422 892.943 42.444 3.010 o
4 2 0 719.013 718.760 17.719 5.964 o
4 2 1 476.029 465.111 14.550 12.564 o
4 2 2 607.191 616.572 16.407 8.005 o
4 2 3 243.013 252.805 11.725 35.694 o
4 2 4 0.090 5.762 8.687 280.291 o
4 2 5 30.367 32.655 14.846 88.930 o
4 2 6 205.010 236.301 19.192 29.132 o
4 2 7 1.600 23.640 10.506 186.062 o
4 2 8 72.320 64.656 13.691 86.152 o
4 2 9 360.183 354.246 25.294 13.910 o
4 4 0 486.328 505.066 17.875 11.082 o
4 4 1 114.447 110.143 9.134 101.856 o
4 4 2 850.564 907.248 42.674 3.282 o
4 4 3 0.033 -7.257 11.139 172.668 o
4 4 4 302.685 297.517 21.266 19.282 o
4 4 5 245.171 225.613 15.035 32.258 o
4 4 6 67.459 64.598 12.941 95.384 o
4 4 7 31.401 18.553 20.492 49.007 o
4 4 8 1.529 -9.228 11.960 149.264 o
4 4 9 87.817 81.805 19.547 46.051 o
4 6 0 46.518 50.512 5.930 300.847 o
4 6 1 3.676 -0.223 12.625 133.396 o
4 6 2 28.669 9.137 17.521 66.855 o
4 6 3 0.252 5.617 12.504 136.162 o
4 6 4 336.287 337.289 24.346 15.328 o
4 6 5 304.936 324.488 23.659 17.002 o
4 6 6 49.916 22.774 12.221 120.011 o
4 6 7 2.167 35.804 12.908 123.078 o
4 6 8 175.014 132.805 20.962 32.271 o
4 8 0 21.852 11.607 15.382 86.588 o
4 8 1 5.036 1.389 16.153 81.510 o
4 8 2 852.299 885.037 39.011 3.475 o
4 8 3 239.690 275.522 37.197 11.493 o
4 8 4 6.005 13.755 15.725 85.073 o
4 8 5 5.846 -11.494 14.570 100.000 o
4 8 6 22.034 10.314 15.467 85.756 o
4 8 7 67.137 28.089 11.747 118.564 o
4 10 0 425.069 412.090 28.623 10.574 o
4 10 1 1895.890 2047.660 54.026 0.845 o
4 10 2 1063.200 1164.100 34.120 2.515 o
4 10 3 0.652 13.796 14.127 105.989 o
4 10 4 16.370 7.981 13.838 107.621 o
4 10 5 123.777 101.574 16.266 53.898 o
4 10 6 4.237 29.732 18.909 58.759 o
4 12 0 3.810 -21.688 16.307 80.187 o
4 12 1 826.797 900.653 41.150 3.447 o
4 12 2 265.933 257.325 19.863 23.443 o
4 12 3 4.132 22.398 16.842 74.091 o
4 12 4 8.033 1.036 14.980 94.237 o
4 14 0 84.109 107.910 20.919 40.422 o
5 1 0 55.241 47.900 8.562 187.014 o
5 1 1 13.036 7.014 7.959 308.912 o
5 1 2 1025.870 1127.360 27.424 2.807 o
5 1 3 151.423 159.115 14.695 50.450 o
5 1 4 37.236 94.341 32.133 19.882 o
5 1 5 65.975 46.807 17.560 59.976 o
5 1 6 2.427 -26.876 20.114 52.850 o
5 3 0 2.431 -7.567 12.100 145.550 o
5 3 1 123.922 125.144 14.825 58.317 o
5 3 2 487.763 483.136 25.340 9.662 o
5 3 3 89.648 86.934 14.748 70.257 o
5 3 4 386.966 384.288 26.532 12.345 o
5 3 5 34.767 35.129 10.017 172.695 o
5 3 6 11.784 6.059 12.208 138.811 o
5 3 7 0.722 10.156 14.141 106.111 o
5 5 0 27.313 3.031 14.523 96.387 o
5 5 1 204.685 216.854 15.012 37.382 o
5 5 2 52.462 63.564 17.309 62.176 o
5 5 3 10.242 -0.750 22.893 40.604 o
5 5 4 2.389 -0.721 17.919 66.559 o
5 5 5 38.417 18.492 18.495 59.003 o
5 5 6 39.644 34.389 22.219 41.194 o
5 7 0 31.525 1.999 16.870 71.964 o
5 7 1 164.012 162.373 24.808 25.331 o
5 7 2 18.070 16.467 16.317 77.497 o
5 7 3 9.727 -5.433 16.834 74.715 o
5 7 4 272.603 291.440 30.720 14.101 o
5 7 5 110.936 108.683 27.616 24.220 o
5 9 0 89.857 95.946 19.170 46.610 o
5 9 1 45.347 22.073 16.432 72.344 o
5 9 2 185.123 135.973 23.078 27.630 o
5 9 3 8.940 42.018 22.847 40.130 o
5 9 4 844.230 894.730 47.089 3.133 o
5 11 0 0.026 -3.611 24.044 37.058 o
5 11 1 0.444 -0.021 22.590 41.972 o
6 0 0 845.031 904.148 46.803 3.128 o
6 0 2 7.168 -14.568 17.839 66.815 o
6 2 0 28.747 36.315 11.231 145.994 o
6 2 1 95.025 115.773 13.629 72.917 o
6 2 2 4.536 21.739 18.818 59.569 o
6 2 3 43.934 15.738 18.090 61.099 o
6 2 4 188.737 163.260 17.474 37.162 o
6 4 0 26.215 34.399 15.546 82.283 o
6 4 1 56.491 30.511 25.303 31.681 o
6 4 2 8.220 -8.224 23.005 40.267 o
6 4 3 23.866 70.254 26.075 30.277 o
6 6 0 361.345 400.052 32.414 10.577 o
6 6 1 25.073 23.159 24.944 33.615 o
6 6 2 15.423 51.851 25.298 32.581 o
;
_olex2_submission_special_instructions 'No special instructions were received'
loop_
_space_group_symop_id
_space_group_symop_operation_xyz
1 x,y,z
2 -x,y,-z+1/2
3 -x,-y,-z
4 x,-y,z-1/2
5 x+1/2,y+1/2,z
6 -x+1/2,y+1/2,-z+1/2
7 -x+1/2,-y+1/2,-z
8 x+1/2,-y+1/2,z-1/2
loop_
_atom_site_label
_atom_site_type_symbol
_atom_site_fract_x
_atom_site_fract_y
_atom_site_fract_z
_atom_site_U_iso_or_equiv
_atom_site_adp_type
_atom_site_occupancy
_atom_site_site_symmetry_order
_atom_site_refinement_flags_posn
_atom_site_refinement_flags_adp
_atom_site_refinement_flags_occupancy
C1 C 0.5 0.7574(2) 0.25 0.0325(10) Uani 1.000000 2 S T P
H1 H 0.5 0.8234(2) 0.25 0.0391(11) Uiso 1.000000 2 RS T P
C2 C 0.3545(5) 0.70918(16) 0.3198(2) 0.0246(6) Uani 1.000000 1 . . .
H2 H 0.2539(5) 0.74270(16) 0.3669(2) 0.0295(7) Uiso 1.000000 1 R . .
C3 C 0.3534(4) 0.61252(15) 0.3221(2) 0.0182(6) Uani 1.000000 1 . . .
C4 C 0.2000(4) 0.56172(15) 0.39952(19) 0.0162(5) Uani 1.000000 1 . . .
C5 C 0.5 0.5658(2) 0.25 0.0146(7) Uani 1.000000 2 S T P
N1 N 0.5 0.46333(17) 0.25 0.0165(6) Uani 1.000000 2 S T P
O1 O 0.2212(3) 0.47870(10) 0.42006(15) 0.0223(5) Uani 1.000000 1 . . .
O2 O 0.0421(3) 0.61606(11) 0.44293(15) 0.0231(5) Uani 1.000000 1 . . .
H2a H -0.042(3) 0.5844(4) 0.485(2) 0.0346(7) Uiso 1.000000 1 GR . .
O3 O 0.3335(3) 0.42440(11) 0.18248(15) 0.0250(5) Uani 1.000000 1 . . .
loop_
_atom_site_aniso_label
_atom_site_aniso_U_11
_atom_site_aniso_U_22
_atom_site_aniso_U_33
_atom_site_aniso_U_12
_atom_site_aniso_U_13
_atom_site_aniso_U_23
C1 0.044(2) 0.0137(16) 0.047(2) -0.000000 0.0282(19) 0.000000
C2 0.0277(14) 0.0173(12) 0.0336(15) 0.0004(10) 0.0197(11) -0.0032(10)
C3 0.0168(13) 0.0185(12) 0.0204(13) 0.0005(9) 0.0061(10) 0.0001(9)
C4 0.0154(12) 0.0192(12) 0.0152(12) -0.0005(9) 0.0057(9) -0.0019(9)
C5 0.0111(15) 0.0153(16) 0.0178(16) -0.000000 0.0040(12) 0.000000
N1 0.0186(15) 0.0173(14) 0.0163(14) -0.000000 0.0110(12) 0.000000
O1 0.0259(10) 0.0171(9) 0.0272(10) -0.0002(7) 0.0145(7) 0.0008(7)
O2 0.0252(10) 0.0219(9) 0.0260(10) 0.0033(7) 0.0163(8) 0.0045(7)
O3 0.0283(10) 0.0234(9) 0.0245(9) -0.0110(8) 0.0082(7) -0.0063(7)
loop_
_atom_type_symbol
_atom_type_scat_dispersion_real
_atom_type_scat_dispersion_imag
_atom_type_scat_Cromer_Mann_a1
_atom_type_scat_Cromer_Mann_a2
_atom_type_scat_Cromer_Mann_a3
_atom_type_scat_Cromer_Mann_a4
_atom_type_scat_Cromer_Mann_b1
_atom_type_scat_Cromer_Mann_b2
_atom_type_scat_Cromer_Mann_b3
_atom_type_scat_Cromer_Mann_b4
_atom_type_scat_Cromer_Mann_c
_atom_type_scat_source
_atom_type_scat_dispersion_source
H 0.00000 0.00000 0.49300 0.32291 0.14019 0.04081 10.51090 26.12570 3.14236
57.79970 0.0030380000826
'International Tables Volume C Table 6.1.1.4 (pp. 500-502)'
'Henke, Gullikson and Davis, At. Data and Nucl. Data Tables, 1993, 54, 2'
C 0.00347 0.00161 2.31000 1.02000 1.58860 0.86500 20.84390 10.20750 0.56870
51.65120 0.215599998832
'International Tables Volume C Table 6.1.1.4 (pp. 500-502)'
'Henke, Gullikson and Davis, At. Data and Nucl. Data Tables, 1993, 54, 2'
O 0.01158 0.00611 3.04850 2.28680 1.54630 0.86700 13.27710 5.70110 0.32390
32.90890 0.250800013542
'International Tables Volume C Table 6.1.1.4 (pp. 500-502)'
'Henke, Gullikson and Davis, At. Data and Nucl. Data Tables, 1993, 54, 2'
N 0.00653 0.00323 12.21260 3.13220 2.01250 1.16630 0.00570 9.89330 28.99750
0.58260 -11.5290002823
'International Tables Volume C Table 6.1.1.4 (pp. 500-502)'
'Henke, Gullikson and Davis, At. Data and Nucl. Data Tables, 1993, 54, 2'
loop_
_geom_angle_atom_site_label_1
_geom_angle_atom_site_label_2
_geom_angle_atom_site_label_3
_geom_angle
_geom_angle_site_symmetry_1
_geom_angle_site_symmetry_3
C2 C1 C2 119.9(3) . 2_655
C3 C2 C1 121.0(2) . 2_655
C4 C3 C2 120.4(2) . .
C5 C3 C2 117.8(2) 2_655 .
C5 C3 C4 121.8(2) 2_655 .
O1 C4 C3 123.0(2) . .
O2 C4 C3 112.75(18) . .
O2 C4 O1 124.3(2) . .
C3 C5 C3 122.4(3) . 2_655
N1 C5 C3 118.78(14) . 2_655
N1 C5 C3 118.78(14) . .
O3 N1 C5 117.26(13) . .
O3 N1 C5 117.26(13) 2_655 .
O3 N1 O3 125.5(3) 2_655 .
loop_
_geom_bond_atom_site_label_1
_geom_bond_atom_site_label_2
_geom_bond_distance
_geom_bond_site_symmetry_2
C1 C2 1.384(3) 2_655
C1 C2 1.384(3) .
C2 C3 1.390(3) .
C3 C4 1.487(3) .
C3 C5 1.395(3) 2_655
C4 O1 1.217(3) .
C4 O2 1.313(3) .
C5 N1 1.473(4) .
N1 O3 1.2220(19) 2_655
N1 O3 1.2220(19) .
loop_
_refln_index_h
_refln_index_k
_refln_index_l
_refln_F_squared_meas
_refln_F_squared_sigma
-2 0 0 99.89 6.4
2 0 0 90.29 8.5
-4 0 0 169.98 11.9
4 0 0 175.88 15.9
4 0 0 170.88 13.6
-6 0 0 343.87 23.1
6 0 0 309.77 36.3
6 0 0 379.16 26.4
1 -1 0 200.88 9.4
1 -1 0 191.08 8.8
1 1 0 195.58 7
-1 1 0 203.48 9.4
-1 1 0 202.48 9
3 -1 0 35.8 7.6
-3 -1 0 49.6 5.7
-3 1 0 36.2 5.4
3 1 0 58.39 8.4
3 1 0 43.5 6.4
5 -1 0 15.9 13
-5 -1 0 22.3 6.3
5 -1 0 24 8
5 1 0 14.3 8.3
5 1 0 25.2 9.7
-5 1 0 9 7.4
0 -2 0 3877.11 116.79
0 -2 0 3499.55 116.89
0 -2 0 3502.95 116.99
0 2 0 3591.14 116.89
0 2 0 3487.25 116.99
0 2 0 3953 116.79
0 2 0 3976.6 117.29
-2 -2 0 685.13 22.2
2 -2 0 683.23 27.5
2 2 0 662.33 26.1
-2 2 0 671.13 26.1
-2 2 0 648.84 27.1
4 -2 0 284.47 15.3
-4 -2 0 282.27 13.1
4 -2 0 291.97 22.6
4 2 0 273.17 19.5
-4 2 0 261.37 16.9
4 2 0 284.47 18.7
6 -2 0 13.8 19.2
6 -2 0 16 10.8
-6 -2 0 10.2 5.5
6 2 0 5.5 14.2
6 2 0 35.1 18
1 -3 0 151.28 5.8
1 -3 0 143.79 8.5
1 -3 0 142.19 9
-1 3 0 146.99 9.2
1 3 0 150.98 8.7
1 3 0 138.49 5.9
-1 3 0 152.18 9.1
3 -3 0 1464.25 55.79
-3 3 0 1419.96 54.99
-3 3 0 1453.75 53.09
3 3 0 1479.55 54.59
3 3 0 1434.56 53.09
5 -3 0 -0.6 6.1
5 3 0 -12.5 11.8
5 3 0 1.1 9.5
0 -4 0 9.7 2.6
0 -4 0 11.4 2.5
0 -4 0 11.5 2.9
0 4 0 11.3 2.6
0 4 0 11.7 2.9
0 4 0 10.4 2.9
0 4 0 13 2.7
2 -4 0 623.74 27.1
-2 4 0 612.74 26.2
2 4 0 599.44 25.4
-2 4 0 619.94 26.9
4 -4 0 211.88 18.7
4 -4 0 215.08 11.4
4 4 0 187.58 16.9
-4 4 0 181.88 16.1
-4 4 0 172.08 16.2
4 4 0 185.08 16.2
6 -4 0 13.4 15.3
6 -4 0 13 8.4
6 4 0 12.3 15.9
-6 4 0 12 23
6 4 0 16.5 18.1
1 -5 0 86.49 7.1
1 -5 0 90.89 8.3
1 -5 0 91.29 5.2
-1 5 0 84.39 7.9
-1 5 0 87.79 7.9
1 5 0 82.99 6
1 5 0 75.49 7.8
3 -5 0 543.85 29.1
-3 5 0 590.14 28.8
-3 5 0 598.54 27.2
3 5 0 548.95 27.1
5 -5 0 8.3 5
5 5 0 5.7 11.5
5 5 0 -23 11.3
-5 5 0 4.5 10.3
0 -6 0 2468.35 83.29
0 -6 0 2481.35 83.89
0 6 0 2575.94 84.29
0 6 0 2491.65 82.79
0 6 0 2510.85 83.39
0 6 0 2539.55 83.89
2 -6 0 89.69 4.6
2 -6 0 94.09 11.1
2 -6 0 80.09 9.3
2 6 0 87.79 5.2
-2 6 0 70.99 9.4
2 6 0 89.39 10.4
-2 6 0 85.19 10.6
4 -6 0 21.4 2.7
4 6 0 18.1 8.9
-4 6 0 15.1 8
4 6 0 18.6 9.8
-4 6 0 11.8 9.1
6 -6 0 142.79 27.5
-6 6 0 193.48 25
6 6 0 136.69 24.7
6 6 0 137.89 22
1 -7 0 684.73 25.3
1 -7 0 682.53 28.9
1 -7 0 697.73 28.5
1 7 0 695.13 26.8
1 7 0 692.73 28.6
1 7 0 690.73 28.8
-1 7 0 696.53 29
-1 7 0 702.23 30
-1 7 0 701.53 25.5
3 -7 0 78.19 11.9
3 7 0 78.59 11.4
5 -7 0 -20 14.5
-5 7 0 15.6 13
5 7 0 3.3 13.1
5 7 0 2 12.2
0 -8 0 3.4 4
0 8 0 3.1 4.3
0 8 0 0.6 3.5
0 8 0 5 4.3
0 8 0 -4.6 4.3
2 -8 0 207.48 13.9
2 -8 0 203.68 16.6
2 8 0 200.88 10.7
-2 8 0 184.28 15.7
2 8 0 186.78 15.9
4 -8 0 -3.7 10.9
4 8 0 4.8 8.7
-4 8 0 13.6 12.6
1 -9 0 222.48 13.7
1 -9 0 179.28 14.1
1 9 0 196.78 13.7
1 9 0 174.28 12.6
-1 9 0 189.98 14.5
-1 9 0 186.18 11.5
-1 9 0 186.08 14.1
-1 9 0 201.68 16.3
1 9 0 191.68 14.7
1 9 0 201.68 14.5
3 -9 0 647.94 35.2
3 -9 0 660.03 32.4
-3 9 0 654.63 33.1
-3 9 0 659.13 35.3
5 -9 0 33.7 19.5
-5 9 0 47.2 16.4
-5 9 0 32.6 16.9
5 9 0 34.3 16.6
5 9 0 38 14.9
0 -10 0 80.59 11
0 10 0 65.19 8.8
0 10 0 55.29 8.1
0 10 0 61.09 9.2
0 10 0 55.29 8.6
2 -10 0 8.1 7.7
2 10 0 7.7 4.9
2 10 0 3.9 8.6
2 10 0 11.1 6.7
-2 10 0 3 8.1
4 -10 0 166.88 18.1
-4 10 0 145.49 19.4
-4 10 0 166.38 20.6
1 -11 0 -2.5 6.7
-1 11 0 1.3 6.8
1 11 0 3.4 6
-1 11 0 4.8 4.9
1 11 0 -11.8 6.4
1 11 0 -8.9 6.2
-1 11 0 1 6.9
1 11 0 -6.1 5.2
3 -11 0 42.5 13.5
3 -11 0 37.7 12.9
-3 11 0 38.7 12.9
3 11 0 35.4 13.4
3 11 0 44.7 6.3
-3 11 0 28.6 12.8
5 -11 0 43.9 23
5 -11 0 -10.1 17.9
-5 11 0 -34.7 18.3
-5 11 0 -11.9 13.7
5 11 0 -7.1 20.8
5 11 0 20.6 16
0 12 0 83.99 11.4
0 12 0 104.89 13.6
0 12 0 96.99 12.8
2 -12 0 19.3 8.2
2 -12 0 37.1 11.5
-2 12 0 25.7 15.4
2 12 0 42.2 10.1
2 12 0 9.7 10.6
2 12 0 42.8 10.6
-2 12 0 32.2 10.9
2 12 0 40 7.9
4 -12 0 -10.6 10.5
4 -12 0 -3.1 16
4 12 0 -22.3 15.7
-4 12 0 -15 16.2
-4 12 0 9.9 15.8
1 -13 0 11.6 8.8
1 -13 0 3.7 9.4
-1 13 0 10.8 6.9
1 13 0 16.6 8.2
-1 13 0 15.8 11.8
-1 13 0 17.8 7.3
1 13 0 27.6 11.7
1 13 0 19.4 10
3 -13 0 -7 12.2
3 13 0 21.9 12.4
-3 13 0 5.7 14.2
3 13 0 0.2 5.5
-3 13 0 11 14.6
3 13 0 -1.1 10.8
2 -14 0 166.08 24.4
2 -14 0 140.39 17.1
2 14 0 123.29 16.9
2 14 0 119.49 18.6
2 14 0 122.99 17.2
-2 14 0 109.29 19.5
-2 14 0 146.49 19.5
4 -14 0 28.2 23.4
4 -14 0 65.59 20.1
4 14 0 48.3 15.4
-4 14 0 1.9 19.6
-4 14 0 65.39 22.7
4 14 0 40 18.9
1 -15 0 29.6 13.3
-1 15 0 10.8 11.9
1 15 0 13 12.5
1 15 0 8.4 11.4
-1 15 0 8.8 14.9
1 15 0 -4.5 12.4
3 -15 0 -0.6 17.4
3 -15 0 3.8 16.1
3 15 0 -20.3 15.4
-3 15 0 3 19.2
-3 15 0 23.2 20.4
3 15 0 2.1 14.8
3 15 0 14.7 15.7
3 15 0 -6 8.1
0 16 0 34.8 16.9
0 16 0 35.6 13.4
0 16 0 49.99 13.8
0 16 0 69.09 15.2
2 -16 0 2.8 13.4
-2 16 0 -19.4 16.6
2 16 0 20.1 15.6
2 16 0 23.3 17.7
-2 16 0 -8.8 19.5
-1 17 0 98.09 22.2
1 17 0 92.09 18.1
1 17 0 78.59 20
-1 17 0 86.39 20.3
1 17 0 78.09 20
1 17 0 55.89 18.5
6 0 -1 -11.7 15.4
6 0 -1 -5.4 12.7
-6 0 1 7.6 9
4 0 -1 3.2 7.7
-4 0 1 9.1 4.7
-2 0 1 -1.2 2.1
2 0 -1 1.4 2.5
2 0 1 -1.5 2.5
-2 0 -1 -4.7 2.1
2 0 1 0.3 2.2
-2 0 -1 0.2 3.6
4 0 1 -7.5 7.7
-4 0 -1 5.8 4.9
4 0 1 2.4 5.4
6 0 1 -2.8 11.7
6 0 1 -10.4 17.8
-6 0 -1 -3 9.2
5 -1 -1 10.7 7.4
-5 -1 1 6.7 5.7
5 -1 -1 -16.4 10.1
5 1 -1 6.7 8.6
5 1 -1 1.4 11.5
-5 1 1 -9.1 7.1
-3 -1 1 186.68 10.1
3 -1 -1 179.48 12.1
3 -1 -1 177.98 14.3
3 1 -1 175.28 13.1
-3 1 1 189.18 11.8
3 1 -1 179.38 10.4
1 -1 -1 97.59 6.4
1 -1 -1 87.79 5.9
-1 -1 1 86.49 4.8
1 1 -1 82.69 4.6
-1 1 1 84.79 5.8
-1 -1 -1 2276.37 73.29
-1 -1 -1 2271.67 73.39
1 -1 1 2296.07 74.49
1 -1 1 2294.97 71.89
1 1 1 2216.88 73.39
-1 1 -1 2233.88 71.79
1 1 1 2211.08 73.29
-1 1 -1 2295.97 74.49
3 -1 1 35.4 5
-3 -1 -1 43 5.8
3 -1 1 33.7 7.6
3 1 1 34.3 6.5
-3 1 -1 40 6.8
-3 1 -1 41 6.1
3 1 1 43.4 6.3
5 -1 1 10.1 7.4
5 -1 1 -4 8.8
-5 -1 -1 -0.3 5.5
5 1 1 5.1 8.2
-5 1 -1 0.5 7.4
5 1 1 6.7 12
-6 -2 1 144.69 13.1
6 -2 -1 151.28 20.4
6 -2 -1 178.48 26
6 2 -1 129.49 20.1
6 2 -1 147.59 19.9
4 -2 -1 120.29 14.2
-4 -2 1 127.79 9
4 2 -1 129.49 15.8
-4 2 1 134.69 13
2 -2 -1 18.8 4.3
-2 -2 1 24.7 3.4
2 -2 -1 16 4.1
2 2 -1 28.1 3.5
-2 2 1 18.6 3.9
0 -2 1 698.23 22.7
0 -2 -1 677.33 23.6
0 -2 -1 746.83 23.9
0 -2 1 685.73 24.3
0 -2 -1 686.23 23.8
0 2 1 604.94 22
0 2 -1 710.43 24.3
0 2 1 675.83 23.6
0 2 1 690.33 23.7
0 2 1 689.53 23.6
0 2 -1 682.13 22.7
2 -2 1 155.38 10.6
-2 -2 -1 140.19 6
2 -2 1 127.29 6.5
-2 2 -1 141.99 9.9
2 2 1 138.19 9.6
-2 2 -1 122.59 10.5
2 2 1 128.09 9.1
-4 -2 -1 175.58 10
4 -2 1 162.08 19
4 -2 1 187.18 12.2
-4 2 -1 192.28 15.6
4 2 1 173.78 14.8
4 2 1 192.38 18.1
-6 -2 -1 41.5 5.9
6 -2 1 55.59 11.8
6 -2 1 43.4 21.3
6 2 1 59.49 15
6 2 1 22.2 19.1
5 -3 -1 66.69 9.3
5 3 -1 56.09 12.4
5 3 -1 64.39 12.9
3 -3 -1 -5.1 4.4
3 -3 -1 -4.1 5.4
3 3 -1 0.2 2.1
-3 3 1 0.1 4.3
1 -3 -1 2742.33 89.09
1 -3 -1 2719.33 88.39
1 -3 -1 2608.84 88.19
-1 3 1 2687.93 88.19
-1 3 1 2766.72 89.09
-1 -3 -1 156.08 6.5
1 -3 1 156.78 9.5
-1 -3 -1 166.38 9.3
1 3 1 159.98 6.4
-1 3 -1 152.08 9.4
1 3 1 145.09 9
3 -3 1 333.97 14.1
3 -3 1 332.67 21.1
3 3 1 359.76 18.9
3 3 1 358.66 19.5
-3 3 -1 349.07 19.9
-3 3 -1 379.76 19.7
5 -3 1 56.89 7.9
5 -3 1 37.7 14.9
5 3 1 34 11.3
5 3 1 42.6 13.8
6 -4 -1 -11 13.5
6 -4 -1 -8 8.9
6 4 -1 -13.6 17.3
6 4 -1 12.3 14.9
4 -4 -1 120.49 17.6
4 4 -1 89.49 12.1
-4 4 1 151.68 13.7
2 -4 -1 225.18 14
2 -4 -1 221.58 14
2 4 -1 222.48 9
-2 4 1 199.08 12.6
-2 4 1 228.68 13.1
0 -4 -1 665.63 26.3
0 -4 -1 711.63 24.9
0 -4 1 751.32 25.9
0 -4 -1 758.32 26.5
0 -4 -1 720.93 26.9
0 -4 1 699.23 27
0 4 1 736.93 24.9
0 4 1 717.53 26.9
0 4 -1 722.83 25.8
0 4 -1 739.63 27.2
0 4 1 729.83 26.4
0 4 1 752.92 26.7
2 -4 1 179.68 12.7
-2 4 -1 181.78 11.9
2 4 1 189.08 12.3
-2 4 -1 182.18 12.5
4 -4 1 31.3 11.3
4 -4 1 41.3 5
-4 4 -1 57.09 10.2
4 4 1 43.6 9.3
4 4 1 35.8 9.9
6 -4 1 -3.3 20.1
6 -4 1 21.8 8.5
6 4 1 23 17.4
-6 4 -1 41.8 29.1
6 4 1 -20.4 15.5
5 -5 -1 33.8 6.8
5 5 -1 29.5 13.1
-5 5 1 24 12.1
5 5 -1 21.7 12.3
3 -5 -1 496.45 25.3
3 -5 -1 502.55 26.6
-3 5 1 463.75 24.4
3 5 -1 487.55 24.8
-3 5 1 485.15 25.4
1 -5 -1 4.1 3.1
1 -5 -1 2.1 2.1
1 -5 -1 2.9 3.8
1 -5 -1 2.6 2.5
-1 5 1 -0.6 3.7
-1 5 1 4.9 3.1
-1 5 1 3.9 2.7
1 -5 1 4.5 2.9
-1 -5 -1 -1.1 2.6
1 -5 1 1.2 2.7
-1 -5 -1 -0.4 2
1 5 1 6.7 3.8
-1 5 -1 3.2 1.5
-1 5 -1 3.9 3.1
1 5 1 0.6 2
-1 5 -1 2.2 3.1
3 -5 1 159.78 16.1
3 5 1 155.08 12.9
3 5 1 121.39 13.6
-3 5 -1 142.79 14.1
5 -5 1 86.99 7.9
-5 5 -1 69.49 14.3
5 5 1 87.59 16
5 5 1 85.09 14.9
6 -6 -1 54.59 23.5
6 -6 -1 46.2 7.9
6 6 -1 9.5 18.8
6 6 -1 35.7 18.8
-6 6 1 44.4 18.7
4 -6 -1 166.08 21
4 6 -1 174.38 18.7
-4 6 1 179.28 18.6
2 -6 -1 297.87 12.7
2 -6 -1 303.37 17.6
2 -6 -1 299.07 16.6
2 -6 -1 296.87 17.9
-2 6 1 287.87 17.3
2 6 -1 292.47 16.5
-2 6 1 294.97 16.9
0 -6 -1 484.85 21.2
0 -6 -1 510.15 21.9
0 -6 1 504.35 20.8
0 -6 -1 515.05 20.8
0 6 1 500.25 20.9
0 6 -1 539.45 22.2
0 6 1 510.55 19.7
0 6 1 502.85 21.5
0 6 1 486.45 21.6
0 6 -1 501.95 20.6
0 6 -1 504.55 20.2
2 -6 1 15 6.1
-2 6 -1 15.5 6.4
-2 6 -1 28.8 6.8
2 6 1 16.1 6.1
2 6 1 23.2 2.7
4 6 1 20.3 11.3
-4 6 -1 -7.8 6.8
4 6 1 -0.9 8
-4 6 -1 -5.2 9
6 -6 1 3.6 22.4
6 6 1 5.3 19.3
6 6 1 4.8 18.1
-6 6 -1 21.4 18.6
5 -7 -1 11.7 4.2
5 -7 -1 4.5 15.4
5 7 -1 2.6 11.2
5 7 -1 12.8 12.5
-5 7 1 5.4 12
3 -7 -1 0.3 7.8
3 -7 -1 17.5 6
3 7 -1 3 5.6
1 -7 -1 152.78 11.4
1 -7 -1 155.88 9.4
1 -7 -1 140.69 10.5
1 -7 -1 140.39 11.1
-1 7 1 159.98 11.7
-1 7 1 153.28 12.6
1 7 -1 147.29 10.4
1 7 -1 147.29 10.6
-1 7 1 147.99 11
1 -7 1 815.52 32
1 -7 1 797.12 33.7
-1 -7 -1 841.62 32.8
1 7 1 796.12 32.8
-1 7 -1 823.42 34.3
1 7 1 847.32 30.7
-1 7 -1 802.02 28.7
-1 7 -1 818.22 33.9
1 7 1 812.92 33.1
3 -7 1 16.7 7.5
3 7 1 24.4 8.3
5 -7 1 22.9 12.8
-5 7 -1 49.4 13.3
-5 7 -1 89.39 16.6
5 7 1 77.29 16
5 7 1 65.29 16.5
6 -8 -1 97.19 28.8
6 8 -1 83.79 24.6
6 8 -1 75.49 22.5
-6 8 1 65.99 22.6
4 -8 -1 23.7 2.9
4 -8 -1 42.2 13.6
4 -8 -1 26.3 8.5
-4 8 1 26.2 11.3
4 8 -1 29.2 9.7
-4 8 1 9.5 12.1
2 -8 -1 1.4 5.1
2 -8 -1 10.2 3.3
2 -8 -1 -9.4 5.1
2 8 -1 -3.2 6
2 8 -1 4.5 3.5
-2 8 1 -3.1 5.5
0 -8 1 680.23 27.6
0 -8 -1 686.03 28.7
0 -8 -1 650.63 27.1
0 8 1 646.84 28.4
0 8 -1 640.44 26.7
0 8 -1 671.03 27.6
0 8 1 638.74 27.3
0 8 -1 641.84 28.2
0 8 1 674.03 26.2
0 8 1 664.73 28.2
0 8 -1 690.43 28.7
2 -8 1 14.8 7.6
2 -8 1 14.8 6
2 8 1 13.3 3.2
2 8 1 19.5 6.3
-2 8 -1 22.6 7.7
4 8 1 7.3 11.9
-4 8 -1 -12.8 10.6
4 8 1 7.1 9.5
5 -9 -1 18.3 14.5
5 -9 -1 -18.4 17.1
-5 9 1 3.4 15.9
5 9 -1 -12.1 16.1
3 -9 -1 523.85 31.1
3 -9 -1 539.15 22.3
3 -9 -1 527.55 29.2
-3 9 1 538.15 31.2
3 9 -1 555.94 20.5
-3 9 1 640.14 29.9
1 -9 -1 400.76 20.8
1 -9 -1 400.56 20.8
1 -9 -1 406.26 18.8
-1 9 1 401.26 20.7
1 9 -1 425.46 21.9
1 9 -1 401.76 21.4
1 9 -1 421.66 20.4
1 9 -1 402.76 20.6
-1 9 1 419.86 23.1
-1 9 1 409.36 21.1
1 -9 1 404.46 22.4
1 -9 1 397.16 20.6
-1 9 -1 410.66 22.2
1 9 1 357.86 19.3
-1 9 -1 409.66 23.3
1 9 1 411.16 20.9
-1 9 -1 399.16 17.4
1 9 1 392.16 21.6
1 9 1 420.36 18.8
3 -9 1 6.9 7.8
3 -9 1 8.4 10.3
-3 9 -1 10.8 10
-3 9 -1 2.8 7.3
5 -9 1 8.2 14.6
-5 9 -1 -2.6 14.4
5 9 1 17 14.4
5 9 1 9.2 17.7
-5 9 -1 10.8 12
4 -10 -1 7.7 8.3
-4 10 1 30.6 12.8
-4 10 1 -3.7 12.6
2 -10 -1 42.3 5.8
2 -10 -1 43.3 9.1
2 -10 -1 40 8.8
2 10 -1 27.4 9.8
2 10 -1 38.7 6.8
2 10 -1 38.5 8.5
-2 10 1 36.2 8.5
-2 10 1 45.8 10.4
0 -10 1 41.5 7.6
0 -10 -1 49.9 7.5
0 10 -1 39.2 8.4
0 10 1 42 6.8
0 10 -1 38.3 7.1
0 10 1 39.1 7.4
0 10 1 55.59 8.6
0 10 -1 37 8.4
0 10 -1 31.8 6.9
0 10 1 36.1 7.1
2 -10 1 23.3 7.2
2 -10 1 16.3 8.9
2 10 1 10.1 9.1
2 10 1 16.5 5
-2 10 -1 19.9 9
2 10 1 6.8 6.9
-2 10 -1 28 9.6
4 -10 1 819.72 42
-4 10 -1 776.92 44.9
4 10 1 757.22 38.7
-4 10 -1 834.12 43.3
5 -11 -1 12.3 15.8
5 -11 -1 -23.2 11.8
-5 11 1 33.4 20.7
5 11 -1 0.3 15.3
3 -11 -1 2732.63 97.39
3 -11 -1 2473.75 103.49
3 11 -1 2549.84 97.89
-3 11 1 2628.24 98.49
-3 11 1 2713.73 98.09
3 11 -1 2618.34 86.39
1 -11 -1 155.68 12.8
1 -11 -1 164.48 15.8
1 -11 -1 163.18 15.1
-1 11 1 160.78 15.8
1 11 -1 171.68 14.8
1 11 -1 133.29 14.5
1 11 -1 152.28 15.4
-1 11 1 159.58 15
1 11 -1 137.59 15.4
1 -11 1 133.79 15.4
-1 11 -1 117.59 10.8
1 11 1 138.59 16
-1 11 -1 130.79 17.7
1 11 1 122.09 15
1 11 1 129.49 12.5
1 11 1 128.89 12.1
3 -11 1 210.78 24.2
-3 11 -1 250.47 26.1
5 -11 1 -16.6 21.3
5 -11 1 28.1 18.3
5 11 1 -2.1 22.1
-5 11 -1 -44.4 20.9
-5 11 -1 11.2 20.4
5 11 1 15.5 17
4 -12 -1 22.6 14.5
4 -12 -1 10.7 16.1
-4 12 1 23.8 16.4
4 12 -1 9.4 12.3
-4 12 1 -7.4 15.1
2 -12 -1 -4.2 10.4
2 -12 -1 8.6 8.7
2 12 -1 -3.4 7.5
2 12 -1 3.6 6.5
2 12 -1 8.3 7.8
0 12 -1 -1.3 5.2
0 12 -1 -3.4 6.5
0 12 1 -4 7.1
0 12 1 -11.1 7
0 12 1 0.3 6.1
0 12 -1 7.4 7.8
2 -12 1 23.6 10.4
2 -12 1 16 11.4
2 12 1 28.8 10.6
2 12 1 40.1 7.9
2 12 1 40.3 12.1
2 12 1 32.3 8.7
-2 12 -1 42.2 12.2
-2 12 -1 22.6 12.8
4 -12 1 336.17 37.6
4 -12 1 331.27 33
-4 12 -1 326.07 35.5
4 12 1 394.46 35.9
-4 12 -1 358.16 37.6
3 -13 -1 80.99 16.1
3 -13 -1 96.29 15.3
-3 13 1 91.29 18.3
3 13 -1 85.99 15
3 13 -1 101.09 13.6
-3 13 1 106.29 22.7
3 13 -1 69.39 17.3
1 -13 -1 211.68 19.4
-1 13 1 203.08 20
1 13 -1 213.28 22.6
-1 13 1 218.58 22.6
1 13 -1 194.98 19.9
-1 13 1 203.28 19.2
1 -13 1 272.37 21.7
1 -13 1 218.68 21.5
1 13 1 225.28 26.2
-1 13 -1 225.98 16.2
-1 13 -1 219.58 21.8
-1 13 -1 228.18 29.3
1 13 1 259.37 18.5
1 13 1 238.68 20.9
3 -13 1 -2.7 17.5
3 -13 1 20.5 11.8
-3 13 -1 9.9 15
-3 13 -1 24.7 13.2
3 13 1 2.2 9.3
3 13 1 16 4.7
3 13 1 -27.4 14.2
3 13 1 29.7 11.7
4 -14 -1 9.1 13.1
4 -14 -1 -27.2 19.9
-4 14 1 -7.2 20.6
4 14 -1 11.8 17.6
4 14 -1 4.2 16.2
-4 14 1 -11.8 19.4
2 -14 -1 9.4 12.2
2 -14 -1 24.3 12.1
2 14 -1 18.3 11.2
-2 14 1 25 15.3
2 14 -1 5.4 9.2
-2 14 1 12.2 12.7
2 14 -1 20.3 14.1
0 14 1 308.47 23
0 14 -1 360.16 28.3
0 14 -1 302.67 21.7
0 14 1 287.57 25.3
0 14 1 360.86 27.4
0 14 1 327.47 22.4
0 14 -1 271.77 23
2 -14 1 52.99 15.3
2 -14 1 71.19 15.3
-2 14 -1 71.09 18.6
-2 14 -1 83.69 16.3
2 14 1 50.59 15.2
2 14 1 57.99 11.1
2 14 1 68.19 14.9
2 14 1 76.99 12.3
3 -15 -1 2.9 16.7
3 -15 -1 -19.2 16.1
3 15 -1 -0.8 14.1
-3 15 1 -0.6 18.5
3 15 -1 22.4 18.2
3 15 -1 -1.4 16.6
3 15 -1 1.1 8.4
-3 15 1 -5.4 19
1 -15 -1 37.3 13.6
1 15 -1 70.09 15
1 15 -1 53.49 13.5
-1 15 1 68.09 14.8
1 15 -1 37.5 13.1
-1 15 1 27.5 14.8
1 15 -1 51.29 14.4
1 -15 1 109.29 16.1
1 15 1 55.89 15.6
-1 15 -1 79.49 17.4
1 15 1 98.49 15.2
-1 15 -1 76.89 11.3
1 15 1 58.09 12.6
1 15 1 50.59 15.1
-1 15 -1 67.39 18.7
3 -15 1 10.3 18.6
3 -15 1 1.7 19.4
-3 15 -1 3.9 19.1
3 15 1 -10.2 17
3 15 1 23.8 16.1
3 15 1 10.3 6.9
-3 15 -1 23.6 21.4
2 -16 -1 6 15.3
2 -16 -1 -1 16.7
2 16 -1 22.7 13.5
2 16 -1 30.2 17.6
-2 16 1 10.8 19.2
2 16 -1 4.1 16.8
2 16 -1 -1.6 14.1
-2 16 1 7.2 18.4
0 16 -1 26.9 16.8
0 16 -1 24.2 15.8
0 16 -1 38.4 13.4
0 16 1 36.9 13.5
0 16 -1 26.3 12.9
0 16 1 26.1 15.7
0 16 1 21.7 14.7
2 -16 1 151.98 23.8
2 -16 1 137.89 23.3
2 16 1 172.28 23.1
2 16 1 141.49 22.2
-2 16 -1 171.88 25.1
-2 16 -1 162.08 26.3
-1 17 1 52.49 21.5
1 17 -1 -12.9 14
-1 17 1 26.8 16.7
1 17 -1 19.5 19.6
1 17 -1 9.2 16.9
1 17 -1 1.7 21.6
1 17 1 43.6 18.1
1 17 1 2.1 13
-1 17 -1 -12.8 21.4
-1 17 -1 -5 18.6
1 17 1 2.6 17.6
1 17 1 -24.3 16.8
-6 0 2 1412.26 53.49
6 0 -2 1197.98 62.89
6 0 -2 1468.25 67.59
4 0 -2 440.96 21.3
-4 0 2 400.06 19.9
4 0 -2 437.86 26.1
-2 0 2 926.31 33.3
2 0 -2 928.31 33.4
0 0 -2 1675.53 54.69
-2 0 -2 17.8 3.6
2 0 2 23.4 4.9
-2 0 -2 16.2 4.8
2 0 2 20.1 3.9
4 0 2 -4.8 5.3
-4 0 -2 8.1 5.3
4 0 2 -1.1 8.6
6 0 2 8.7 19.8
6 0 2 -2.6 12.5
-6 0 -2 -14.6 9.2
-5 -1 2 61.09 8.5
5 1 -2 33.9 10.9
-5 1 2 109.89 14.6
3 -1 -2 13.7 6.4
-3 -1 2 24.1 4.4
3 -1 -2 17.6 4.9
-3 1 2 20.8 4.8
3 1 -2 22.7 4.5
1 -1 -2 443.96 17.6
-1 1 2 448.96 17.8
1 1 -2 444.96 17.2
1 -1 2 9737.93 307.97
-1 -1 -2 9492.55 306.37
-1 -1 -2 9984.1 306.77
1 1 2 9579.84 306.47
-1 1 -2 9675.73 305.37
-1 1 -2 9645.83 307.77
1 1 2 9999 306.87
3 -1 2 156.58 13.1
-3 -1 -2 169.38 10.1
3 -1 2 174.58 10.5
3 1 2 173.68 11.6
-3 1 -2 173.38 12.2
-3 1 -2 152.68 13.8
3 1 2 156.18 13.7
5 -1 2 468.75 33.9
-5 -1 -2 443.16 21.7
5 -1 2 431.36 23.7
5 1 2 447.26 26.3
-5 1 -2 399.26 24.8
5 1 2 458.85 32.6
6 -2 -2 169.38 21.8
6 -2 -2 139.29 23.5
-6 2 2 132.29 17.7
6 2 -2 126.89 20.8
4 -2 -2 416.46 23.3
-4 -2 2 430.76 19.1
4 -2 -2 452.35 27.3
4 2 -2 410.36 24.6
-4 2 2 438.76 22.9
4 2 -2 417.06 19.4
2 -2 -2 2462.85 82.59
2 -2 -2 2462.45 83.39
-2 2 2 2473.15 82.29
2 2 -2 2412.76 79.99
0 -2 2 275.27 10.1
0 -2 -2 304.57 12.3
0 -2 -2 289.17 12.4
0 2 2 304.37 12.4
0 2 -2 312.17 13.3
0 2 2 297.57 12.3
2 -2 2 199.98 13.7
-2 -2 -2 197.08 11.6
-2 2 -2 188.88 12.4
2 2 2 199.98 11.6
2 2 2 197.78 11.8
4 -2 2 244.98 14.3
-4 -2 -2 236.58 12.4
4 -2 2 253.87 22.6
-4 2 -2 231.78 20.2
4 2 2 224.08 20
4 2 2 234.78 17.7
-4 2 -2 251.77 18.1
6 -2 2 -4.2 10.6
6 -2 2 6.4 21.2
-6 -2 -2 -4.5 4.9
6 2 2 -6.8 13.9
-6 2 -2 46.8 12.3
6 2 2 25.4 15.7
5 3 -2 16.4 11.9
3 -3 -2 785.92 32.8
3 -3 -2 773.12 34.2
3 3 -2 753.22 27.7
-3 3 2 747.93 31.7
1 -3 -2 112.39 7.7
1 -3 -2 115.09 8.7
1 -3 -2 119.49 7.5
-1 3 2 107.09 7.7
1 -3 2 33.3 5.5
-1 -3 -2 41.1 4
-1 -3 -2 32.1 4.9
-1 3 -2 32.4 5.4
1 3 2 32.9 3.6
1 3 2 30.8 4.5
-3 -3 -2 243.68 9.7
3 -3 2 234.38 10.7
3 -3 2 230.68 18.1
3 3 2 222.48 15.2
3 3 2 244.58 15.6
-3 3 -2 218.48 17.4
-3 3 -2 226.08 15.4
5 -3 2 181.38 22.3
5 -3 2 188.48 14.4
5 3 2 197.28 24
5 3 2 183.88 24.1
6 -4 -2 8.1 10.2
6 -4 -2 -21 18
-6 4 2 11.9 17.6
6 4 -2 2.2 15.1
6 4 -2 20.1 17.4
4 -4 -2 1.5 7.4
4 -4 -2 0.1 8.5
4 4 -2 8.4 3.4
2 -4 -2 1601.24 58.29
2 -4 -2 1648.24 57.89
2 4 -2 1632.54 54.09
-2 4 2 1585.54 57.79
0 -4 -2 149.69 9.3
0 -4 -2 152.78 6
0 -4 -2 154.28 9.2
0 -4 2 157.88 7.5
0 -4 -2 151.68 8.9
0 4 -2 150.58 10.3
0 4 2 165.68 9.3
0 4 2 153.98 9.4
0 4 2 156.48 6
0 4 -2 154.48 7.5
0 4 2 153.48 8.9
-2 -4 -2 1216.28 40.4
-2 -4 -2 1233.18 46.1
2 -4 2 1285.17 48.6
2 4 2 1266.27 44.5
2 4 2 1233.28 46.1
-2 4 -2 1254.17 47.7
4 4 2 405.96 23.6
4 4 2 330.17 23
-4 4 -2 336.77 23.4
-4 4 -2 329.87 22.9
6 -4 2 -2.3 21.3
6 4 2 -3.4 18.6
-6 4 -2 -0.8 16.5
6 4 2 -6.1 16.4
-5 5 2 14.3 11.2
5 5 -2 -5.8 11.4
5 5 -2 -0.9 11.9
3 -5 -2 54.39 9.1
3 -5 -2 50.59 8.5
-3 5 2 55.59 8.7
3 5 -2 56.99 5.7
1 -5 -2 1915.91 66.69
1 -5 -2 2016.4 66.89
1 -5 -2 2025.7 68.39
1 -5 -2 2056.09 69.49
-1 5 2 1963.1 66.59
-1 5 2 2028.1 68.99
-1 5 2 1978.5 68.19
1 -5 2 26.4 5.3
-1 -5 -2 23.6 3.6
1 -5 2 27.5 4.4
-1 -5 -2 25.3 5.1
-1 5 -2 26.7 5.8
1 5 2 29.5 5.6
1 5 2 24.8 3.5
3 -5 2 185.58 15.6
-3 5 -2 178.08 15.9
3 5 2 168.88 15.1
3 5 2 173.18 13.8
5 -5 2 19.4 16.2
5 5 2 22.6 13.3
-5 5 -2 29.8 11.5
-5 5 -2 25.4 14.1
6 -6 -2 53.99 21.8
6 -6 -2 79.79 10.7
-6 6 2 60.69 20.4
6 6 -2 26.2 16.8
6 6 -2 67.99 20.6
4 -6 -2 -1.8 9.7
4 -6 -2 -4 8.4
-4 6 2 18.3 7.3
4 6 -2 7.9 2.1
4 6 -2 9 9.9
2 -6 -2 -1.6 4.3
2 -6 -2 1.5 4.5
2 -6 -2 -1.7 3.6
-2 6 2 -6.2 4.8
-2 6 2 6.1 4.5
0 -6 -2 893.01 33.9
0 -6 -2 841.42 33.1
0 -6 -2 896.71 33.3
0 -6 2 895.01 31.8
0 6 2 856.21 33.6
0 6 2 867.61 29.8
0 6 -2 880.01 34.4
0 6 -2 874.71 31.7
0 6 2 857.51 33.1
0 6 2 868.11 33.3
-2 -6 -2 256.37 16.7
2 -6 2 282.67 18.9
2 6 2 258.37 15.8
-2 6 -2 280.97 18
-2 6 -2 266.57 18.1
-4 6 -2 3.5 10.6
4 6 2 3.6 8.9
6 -6 2 20.8 19.2
6 6 2 8 19.9
-6 6 -2 29.8 19.3
6 6 2 21.8 20.4
5 -7 -2 66.39 17.6
-5 7 2 40 14.7
5 7 -2 56.79 15.3
3 -7 -2 87.89 12.6
3 -7 -2 107.19 14.2
-3 7 2 106.19 11.8
3 7 -2 112.19 7.7
-3 7 2 144.09 13.3
1 -7 -2 337.27 15.9
1 -7 -2 339.97 17.4
1 -7 -2 323.07 16.1
1 -7 -2 335.07 18.7
-1 7 2 346.77 18.7
-1 7 2 330.67 17.4
-1 7 2 327.77 16
1 7 -2 334.67 16
-1 -7 -2 13.4 4.4
1 -7 2 8.9 4.2
1 -7 2 9.3 5.6
-1 -7 -2 6.4 3.4
1 7 2 14.8 4.9
-1 7 -2 8.4 4.4
1 7 2 7.1 2.8
1 7 2 8.6 3.8
-1 7 -2 9.9 2.8
1 7 2 6.3 4.9
3 -7 2 67.49 12.2
-3 7 -2 67.49 12.1
3 7 2 67.89 11.4
3 7 2 74.29 10.3
5 -7 2 21.3 13
5 7 2 -8.5 13.9
-5 7 -2 2 16.1
-5 7 -2 4.4 14.6
5 7 2 11.1 13.9
6 -8 -2 -3.1 19.1
6 -8 -2 2.6 5.1
6 8 -2 25.5 20.8
6 8 -2 -57.09 20.9
-6 8 2 8.2 21.3
4 -8 -2 57.49 10.7
4 -8 -2 73.09 15
2 -8 -2 232.28 13.2
2 -8 -2 244.98 17.2
2 -8 -2 228.18 16.1
-2 8 2 284.87 16.4
-2 8 2 225.38 15.6
2 8 -2 238.98 17.4
0 -8 -2 513.05 24.6
0 -8 -2 533.95 24.5
0 -8 2 539.95 23
0 -8 -2 531.45 23.6
0 8 2 520.55 23.9
0 8 2 534.45 25.1
0 8 2 553.24 24.5
0 8 2 534.35 20.9
0 8 -2 521.65 25.5
0 8 -2 532.35 22.8
0 8 -2 548.35 22.7
2 -8 2 3.6 3.9
2 -8 2 1.6 7.4
2 8 2 13.8 7.5
2 8 2 7.9 3
4 8 2 347.17 24.4
-4 8 -2 350.36 26.2
-4 8 -2 332.37 28.8
5 -9 -2 -6.8 17
5 -9 -2 1.6 3.9
5 -9 -2 25.2 14.8
-5 9 2 8.8 15.8
5 9 -2 -7.5 14.6
3 -9 -2 192.98 11.9
3 -9 -2 171.58 15.7
3 -9 -2 183.08 18.8
-3 9 2 146.99 19
3 9 -2 211.68 11.9
1 -9 -2 61.39 8.2
1 -9 -2 59.09 9.4
1 -9 -2 79.29 8.7
1 -9 -2 64.39 8.2
1 9 -2 58.49 7.6
1 9 -2 60.49 8.7
-1 9 2 57.19 8.5
-1 9 2 81.39 9.3
-1 9 2 51.69 8.1
1 9 -2 55.49 9.1
-1 -9 -2 385.26 21.8
1 -9 2 411.46 20.8
1 -9 2 408.96 22.8
-1 9 -2 483.85 22.9
-1 9 -2 406.26 23.5
-1 9 -2 400.36 17.2
1 9 2 396.16 19.4
1 9 2 389.36 21.5
1 9 2 407.66 17.3
1 9 2 419.06 22.8
3 -9 2 24.2 8.4
3 -9 2 10 11
3 9 2 -3.3 5.9
-3 9 -2 8.6 8.4
-3 9 -2 -0.9 7.2
5 -9 2 38.6 22.8
-5 9 -2 31.8 18.4
-5 9 -2 87.89 20.9
5 9 2 37.7 17.6
5 9 2 57.09 16.6
4 -10 -2 21.8 4.7
4 -10 -2 28.2 9.8
4 -10 -2 28.7 17
-4 10 2 17.4 12.8
2 -10 -2 638.74 31
2 -10 -2 649.93 26.1
2 -10 -2 554.74 32.4
2 -10 -2 643.04 30.2
2 10 -2 591.34 31.1
-2 10 2 625.54 32.6
-2 10 2 587.64 29.1
2 10 -2 609.04 27.4
2 10 -2 610.54 29
0 -10 -2 54.99 8.3
0 -10 2 49.5 7.7
0 10 -2 30.8 6.7
0 10 -2 47.4 7.7
0 10 2 33.6 7.5
0 10 2 54.79 9.4
0 10 -2 67.09 10.4
0 10 2 46.8 8.2
0 10 -2 62.19 9.6
0 10 2 47.6 6.3
2 -10 2 32.2 10.8
2 10 2 23.2 9.7
-2 10 -2 16.5 10.2
2 10 2 27.2 7.7
2 10 2 23.5 5.3
-2 10 -2 39 10.4
4 -10 2 437.16 32.7
4 -10 2 487.75 31.3
4 10 2 467.05 28.4
4 10 2 418.76 33.9
-4 10 -2 441.46 34.9
-4 10 -2 445.36 35.6
5 -11 -2 2 16.8
5 -11 -2 21 21.4
-5 11 2 39 20.1
5 11 -2 -2 15.3
3 -11 -2 2.7 9.4
3 -11 -2 6.7 10.3
3 -11 -2 -1.2 4.9
-3 11 2 11.2 9.8
-3 11 2 7.2 11.7
3 11 -2 19.5 9.1
3 11 -2 17 6.4
1 -11 -2 14.9 6.4
1 -11 -2 22.3 8
1 -11 -2 10.7 5.9
1 11 -2 7.2 7.7
-1 11 2 17.1 6.4
1 11 -2 15.2 7.3
-1 11 2 14.1 8.5
1 11 -2 9.6 6
1 11 -2 8.7 7.5
1 -11 2 81.29 12.7
-1 -11 -2 79.99 11.1
-1 11 -2 76.59 9.2
-1 11 -2 74.79 12.8
-1 11 -2 44.4 12.8
1 11 2 62.79 11.5
1 11 2 59.59 9.9
1 11 2 83.39 10
1 11 2 71.69 9.6
3 -11 2 34.1 14.4
-3 11 -2 37.9 13.3
-3 11 -2 -1.3 13.5
4 -12 -2 22.2 15.9
4 -12 -2 24.3 14.4
-4 12 2 16.1 12.4
4 12 -2 17.4 17.4
-4 12 2 27.9 15.1
2 -12 -2 204.88 23.9
2 -12 -2 195.28 14.3
2 -12 -2 170.08 18
2 12 -2 241.68 21
2 12 -2 171.98 21.2
-2 12 2 206.58 27.5
2 12 -2 216.48 18.2
2 12 -2 183.78 17.6
0 12 2 31.4 6.7
0 12 -2 16.3 9.4
0 12 -2 25.9 7.3
0 12 2 29.5 8.8
0 12 -2 31.7 7.9
2 -12 2 47.5 13.2
2 -12 2 53.39 10.7
-2 12 -2 45.1 11.3
2 12 2 32.7 7.6
-2 12 -2 43 13.9
2 12 2 32.7 11.3
2 12 2 37.6 7.6
2 12 2 29.5 10.1
4 -12 2 98.09 17.8
4 -12 2 135.29 21.2
4 12 2 99.79 15
-4 12 -2 93.69 22
-4 12 -2 84.99 20.6
4 12 2 66.79 20
3 -13 -2 9.6 13.4
3 -13 -2 9.7 9.9
3 13 -2 15.2 8.1
3 13 -2 -2.4 10.4
-3 13 2 0.3 13.1
-3 13 2 7.9 12.8
3 13 -2 2.1 15
1 -13 -2 6.5 9.6
1 -13 -2 42.4 6.8
-1 13 2 13.2 7.7
1 -13 2 364.86 24.9
1 13 2 367.26 26.8
-1 13 -2 355.36 19.8
-1 13 -2 355.56 27.1
-1 13 -2 451.05 29.7
1 13 2 388.86 20.3
1 13 2 407.16 27.5
3 -13 2 108.59 21.9
-3 13 -2 139.09 21
-3 13 -2 96.49 17.6
3 13 2 131.49 21.9
3 13 2 126.19 18.4
3 13 2 118.29 18.9
4 -14 -2 72.49 20.4
4 -14 -2 43.6 21.6
4 14 -2 70.59 19.3
-4 14 2 67.39 19.8
-4 14 2 96.59 23.2
4 14 -2 72.19 19.6
2 -14 -2 10.2 11.3
2 -14 -2 3.9 11.5
2 14 -2 8.9 13.4
2 14 -2 1.7 10
-2 14 2 -17.4 9.7
2 14 -2 3 12.1
0 14 2 48.4 12.3
0 14 2 35.6 8.5
0 14 -2 30.6 11
0 14 -2 32.7 13.1
0 14 2 26.2 9.5
0 14 -2 20.7 9.6
0 14 -2 32.5 16
2 -14 2 52.39 14.1
2 14 2 30.6 10
2 14 2 48.6 16.6
-2 14 -2 36.3 17.2
-2 14 -2 26.1 14.6
2 14 2 19 13.2
2 14 2 49.3 9.7
3 -15 -2 16.2 12.2
3 15 -2 19 19.1
3 15 -2 12.8 11.4
3 15 -2 -12.5 16.9
-3 15 2 33 16.1
-3 15 2 6.2 17.1
3 15 -2 10.4 14.4
1 -15 -2 25.5 10.2
1 15 -2 17.6 15.6
1 15 -2 36.3 14.8
-1 15 2 12.4 10.6
1 15 -2 20.7 13
1 15 -2 31.1 11.3
-1 15 2 14.2 14.5
1 -15 2 8.8 11.7
1 15 2 0.7 12.8
1 15 2 10.3 8.5
-1 15 -2 9.5 16.7
1 15 2 8 12.7
-1 15 -2 8.8 15.3
1 15 2 6.5 10.1
-1 15 -2 4.3 8.1
3 -15 2 1.2 21.3
3 -15 2 18.7 17
3 15 2 -7 18.3
3 15 2 4.7 6
3 15 2 5.3 11.2
-3 15 -2 11.4 22.1
-3 15 -2 -5.4 19.8
3 15 2 -5.4 20
2 -16 -2 18 15.5
2 -16 -2 -5.8 15.9
2 16 -2 15 17.4
-2 16 2 15.7 14.6
2 16 -2 -8.5 14.6
2 16 -2 26 19.9
-2 16 2 14.6 16.6
2 16 -2 1.6 13.3
0 16 2 8.4 9.6
0 16 -2 11.5 16.4
0 16 -2 18.1 15
0 16 2 8.3 16.6
0 16 2 5 15.3
0 16 -2 -2.7 16.9
0 16 -2 11.4 12.4
2 -16 2 26 20.4
2 -16 2 18.2 18.7
-2 16 -2 90.09 21.8
2 16 2 38.7 11.2
2 16 2 25.6 15.3
2 16 2 10.8 13.3
-2 16 -2 18.7 20.9
1 17 -2 -22.3 19.1
1 17 -2 14.2 16.9
1 17 -2 -20 21
-1 17 2 -9 19.5
1 17 -2 -17.4 14
-1 17 -2 11.6 23.6
1 17 2 24.9 11.5
1 17 2 24 19.6
1 17 2 35.4 18
-1 17 -2 48.5 21.1
1 17 2 -13.9 17.2
6 0 -3 0 17.5
4 0 -3 -6.4 5.3
-4 0 3 -1.2 5.1
4 0 -3 1.4 5.8
-2 0 3 2.7 2.7
2 0 -3 1 3.1
0 0 -3 0.5 2.1
0 0 3 0.4 1.3
-2 0 -3 -0.9 2.9
2 0 3 2.5 3.3
2 0 3 2.6 4.3
-2 0 -3 1.6 3.7
-4 0 -3 7.4 6.4
4 0 3 -4.9 8.8
4 0 3 -3 5.5
6 0 3 3.9 19.6
6 0 3 6.1 13.6
-6 0 -3 -5.2 10.1
-5 -1 3 474.05 23.9
5 -1 -3 441.86 26.9
5 1 -3 479.75 24.9
-5 1 3 491.75 25.2
5 1 -3 489.15 34.5
3 -1 -3 111.09 10.4
-3 -1 3 88.89 9
-3 1 3 95.39 9.7
3 1 -3 100.59 8.6
1 -1 -3 19.9 3
1 -1 -3 24.6 3.9
-1 1 3 19.1 3.9
1 1 -3 25.2 3.8
-1 -1 -3 4192.98 133.89
1 -1 3 4157.48 135.59
-1 -1 -3 4204.78 134.49
-1 1 -3 4110.39 135.29
1 1 3 4155.98 133.99
3 -1 3 68.09 8
-3 -1 -3 79.79 10.6
3 -1 3 85.39 10.8
3 1 3 65.19 9.4
-3 1 -3 66.09 9.7
3 1 3 85.29 10.4
-5 -1 -3 60.79 9
5 -1 3 56.19 10.4
5 -1 3 43.5 15.5
-5 1 -3 81.29 12.1
5 1 3 67.09 12.6
5 1 3 35 14.4
6 -2 -3 16.8 13.5
6 2 -3 16.5 17.5
-6 2 3 -0.4 11.6
4 -2 -3 0.5 6.5
-4 -2 3 -1.4 4.2
4 -2 -3 3.9 6.2
4 2 -3 0.9 4.6
-4 2 3 4.4 6.2
2 -2 -3 3434.26 113.59
2 2 -3 3378.86 111.69
-2 2 3 3463.85 113.49
0 -2 -3 1109.89 38.9
0 2 -3 1114.19 39.9
0 2 3 1097.59 38
0 2 3 1097.99 38.8
-2 -2 -3 532.15 23.1
2 -2 3 539.75 25.4
-2 -2 -3 546.15 23
2 2 3 536.85 22.9
-2 2 -3 550.64 25.2
2 2 3 540.55 23.3
-2 2 -3 546.65 20.4
4 -2 3 83.59 14.5
4 -2 3 107.69 10.7
-4 -2 -3 103.19 9.9
-4 2 -3 90.09 11.5
4 2 3 105.29 13.7
-4 2 -3 98.79 13.4
4 2 3 85.39 13
6 -2 3 14.5 20.8
-6 -2 -3 9.9 5.8
6 2 3 -23.8 19.5
-6 2 -3 12.8 13.9
5 -3 -3 170.38 20.7
5 3 -3 173.38 14
-5 3 3 211.28 19.3
5 3 -3 125.19 18.3
3 -3 -3 102.69 12.5
3 -3 -3 84.79 11
3 3 -3 98.49 8.3
-3 3 3 98.19 10.9
1 -3 -3 222.58 11.3
1 -3 -3 223.68 12.2
-1 3 3 226.98 11.6
-1 3 3 237.28 12.9
1 -3 3 1250.97 46.8
-1 -3 -3 1257.67 42
-1 -3 -3 1275.27 45.2
-1 -3 -3 1270.97 43.4
1 3 3 1285.87 45.6
-1 3 -3 1272.47 46.5
1 3 3 1241.58 42.1
3 -3 3 2.3 5.2
-3 -3 -3 -4.3 5.1
3 3 3 0.6 5.6
3 3 3 -3.8 5.2
-5 -3 -3 31.3 3.9
5 -3 3 12.7 15.4
5 3 3 38.3 14.4
-5 3 -3 53.59 12.8
-5 3 -3 43.3 15
6 -4 -3 11.7 19.4
6 4 -3 38.8 16
-6 4 3 33.2 16.1
6 4 -3 40.4 19.1
4 -4 -3 44.4 9.8
4 -4 -3 53.79 10.7
4 4 -3 50.09 6.3
2 -4 -3 29.3 6.1
2 -4 -3 24.6 5.6
2 -4 -3 26.6 5.3
-2 4 3 32.9 6
2 4 -3 29.5 4.7
0 -4 -3 197.18 11.8
0 -4 -3 221.18 11.2
0 -4 3 207.08 8.7
0 -4 -3 200.18 11.4
0 4 3 205.18 11.5
0 4 3 203.68 11.3
0 4 -3 209.58 13
-2 -4 -3 84.09 6.1
2 -4 3 68.99 9.6
-2 -4 -3 82.39 9.5
-2 4 -3 82.89 9.4
2 4 3 73.89 7.6
-2 4 -3 76.59 4.5
2 4 3 73.19 9.9
4 -4 3 -9.9 9.6
4 4 3 -7 7.4
-4 4 -3 -0.6 9.7
4 4 3 6.4 8.6
6 -4 3 35.4 23.9
6 4 3 14.1 20.3
6 4 3 26.8 18.8
-6 4 -3 33.9 19.2
5 -5 -3 -2.1 11.1
-5 5 3 12.5 11.2
5 5 -3 5.8 4.8
3 -5 -3 5.4 6.4
3 -5 -3 -0.5 6.2
3 5 -3 -1.2 3.3
-3 5 3 2.8 5.7
1 -5 -3 693.93 27.6
1 -5 -3 693.13 25.9
1 -5 -3 689.23 28.7
-1 5 3 687.73 28.6
-1 5 3 693.73 27.8
1 5 -3 672.13 24.9
1 -5 3 188.28 14.1
-1 -5 -3 194.08 13
-1 -5 -3 201.28 10.8
1 -5 3 203.38 10.5
1 5 3 201.38 13.4
1 5 3 192.88 7.8
-1 5 -3 196.58 14.2
1 5 3 197.88 10.5
3 -5 3 1.3 7.9
-3 -5 -3 3.8 1.7
3 5 3 -4.6 7
3 5 3 9.3 5.9
5 -5 3 -1.2 15.6
-5 5 -3 23.7 23.3
5 5 3 11.7 12.8
-5 5 -3 -25.1 13
6 -6 -3 15.8 21.8
-6 6 3 24.1 19
6 6 -3 -5.4 18.8
6 6 -3 7.5 18.3
4 -6 -3 120.19 16
4 -6 -3 126.29 15.7
-4 6 3 97.19 13.7
4 6 -3 107.89 8.7
2 -6 -3 12.9 5.1
2 -6 -3 24.8 6.2
2 -6 -3 15.4 5.3
-2 6 3 13.1 4.7
0 -6 3 322.27 13.5
0 -6 -3 294.67 15.8
0 -6 -3 306.47 16.2
0 -6 -3 296.27 16
0 6 3 284.07 15.4
0 6 -3 298.87 17.6
0 6 -3 299.17 13.2
0 6 3 284.27 16.1
-2 -6 -3 -1.5 2.6
2 -6 3 1.4 6.4
-2 -6 -3 5.1 5.4
2 6 3 -1.9 4.3
-2 6 -3 2.9 6.5
2 6 3 0.3 3.2
-4 6 -3 8.4 11.3
4 6 3 -1.9 7.8
-4 6 -3 2.2 10.8
4 6 3 1.9 10.3
5 -7 -3 319.37 26
5 -7 -3 264.37 26.8
5 7 -3 335.87 25.7
-5 7 3 329.17 28.1
3 -7 -3 203.78 15.2
3 -7 -3 177.08 16.7
3 -7 -3 156.48 18
3 7 -3 165.28 11.4
1 -7 -3 489.85 23.4
1 -7 -3 492.05 22.9
1 -7 -3 474.45 20
1 -7 -3 471.65 21.7
-1 7 3 474.45 19.6
1 7 -3 466.55 24
-1 7 3 457.55 22.3
-1 7 3 468.05 23.3
1 7 -3 473.15 19.9
-1 -7 -3 966.4 36.5
1 -7 3 967.5 40.9
1 -7 3 1024 36.8
-1 -7 -3 1005.6 39.6
-1 7 -3 963.2 40.9
1 7 3 956.8 31.7
1 7 3 973.7 36.2
1 7 3 968 39.5
1 7 3 977.9 39.1
1 7 3 986.4 31.9
3 -7 3 109.09 15.6
-3 7 -3 93.99 14.1
3 7 3 118.99 12.4
-3 7 -3 116.39 14.3
3 7 3 94.19 13.7
5 -7 3 5.1 14.4
-5 7 -3 -29.3 16.7
-5 7 -3 -2.3 14.9
5 7 3 22.3 14.9
5 7 3 -8.6 13
6 -8 -3 66.49 17.3
6 -8 -3 31.6 25.7
6 8 -3 95.29 24.6
6 8 -3 79.89 23.1
-6 8 3 102.69 24.8
4 -8 -3 8.8 9.3
4 -8 -3 2.6 8.4
4 -8 -3 26.2 13.9
4 8 -3 5.9 3.9
-4 8 3 -9.5 8.8
2 -8 -3 90.19 11
2 -8 -3 73.09 8.8
2 -8 -3 64.29 10.7
-2 8 3 81.79 10
0 -8 -3 230.78 15.4
0 -8 3 229.98 13.3
0 -8 -3 255.47 15.6
0 8 3 237.08 10.3
0 8 -3 241.28 13.1
0 8 -3 252.07 17.3
0 8 3 239.58 16.2
0 8 3 249.68 15.6
-2 -8 -3 1017.5 39.7
-2 -8 -3 872.41 33.2
2 -8 3 911.81 37.2
2 -8 3 908.61 42.4
2 8 3 895.11 39.5
-2 8 -3 925.51 40.8
2 8 3 924.91 33.1
2 8 3 892.71 33
4 8 3 85.39 12.9
-4 8 -3 102.19 17.9
-4 8 -3 141.79 19.6
5 -9 -3 218.98 31.7
5 -9 -3 192.38 26.6
5 9 -3 207.18 24.5
-5 9 3 220.38 24.6
3 -9 -3 61.79 7.8
3 -9 -3 52.29 10.6
3 -9 -3 57.99 11.1
3 -9 -3 65.49 12
-3 9 3 49 11.9
1 -9 -3 144.99 15.3
1 -9 -3 141.79 11.7
1 -9 -3 133.09 10.5
1 9 -3 133.19 14.5
-1 9 3 138.19 12.2
-1 9 3 138.39 10.6
1 9 -3 118.09 10.3
-1 9 3 143.89 14
1 -9 3 304.07 17
-1 -9 -3 309.87 17
1 -9 3 286.07 21.6
-1 9 -3 357.56 21.4
1 9 3 310.47 20.3
1 9 3 330.27 19.2
-1 9 -3 319.57 14.5
1 9 3 311.67 12.4
1 9 3 296.17 17
3 -9 3 19.6 8.6
3 -9 3 -8.3 11.1
-3 9 -3 19.5 21.1
3 9 3 5.3 6.1
5 -9 3 -2.5 22.6
-5 9 -3 27.2 18.9
5 9 3 1.5 17.9
5 9 3 25.1 21.3
-5 9 -3 29.7 19.7
4 -10 -3 86.99 12
4 -10 -3 98.59 15.7
4 -10 -3 84.09 13.4
-4 10 3 94.29 16.6
4 10 -3 76.89 9.4
4 10 -3 80.69 8.6
2 -10 -3 1347.97 48.7
2 -10 -3 1265.67 50.69
2 -10 -3 1310.17 55.39
2 -10 -3 1284.67 52.49
2 10 -3 1244.18 49.7
-2 10 3 1333.57 50.39
2 10 -3 1310.77 53.19
-2 10 3 1288.47 54.19
0 -10 -3 51.19 8.9
0 10 3 36.1 8.4
0 10 3 41.2 7.9
0 10 -3 41.3 6.8
0 10 3 35.2 4.5
0 10 -3 41.8 7.5
-2 -10 -3 644.04 32
2 -10 3 664.03 37.4
2 10 3 665.73 26.2
2 10 3 668.73 25.4
2 10 3 563.94 38.6
2 10 3 633.74 34
2 10 3 639.34 24.8
-2 10 -3 624.24 35.5
-2 10 -3 644.64 33.9
4 -10 3 12.1 14.2
4 -10 3 -11.7 16
-4 10 -3 5.4 16.8
4 10 3 6.2 10.1
4 10 3 18.1 16.4
-4 10 -3 2.2 11.8
5 -11 -3 5.9 20.6
5 -11 -3 46.5 18
5 -11 -3 15.1 5.6
5 11 -3 30.9 17.1
-5 11 3 -4.9 18.9
3 -11 -3 11.7 6.1
3 -11 -3 12.1 9.3
3 -11 -3 -1 9.3
-3 11 3 16.4 11.2
3 11 -3 -21.2 11
3 11 -3 -6 8
1 -11 -3 -3.6 5
1 -11 -3 -2 7.4
1 -11 -3 1.2 5.8
1 -11 -3 1.3 8.2
-1 11 3 8.1 5.5
1 11 -3 5.3 7.1
-1 11 3 14.1 8.8
1 11 -3 2.6 5.8
-1 11 3 -0.8 8
1 -11 3 -1.1 9
-1 -11 -3 -4.9 5.6
1 -11 3 5 6.3
-1 11 -3 -0.2 7.1
-1 11 -3 1.7 4.3
1 11 3 -9.5 6.4
1 11 3 1.8 8.9
-1 11 -3 6.4 9.1
1 11 3 7.1 3.2
3 -11 3 -5.4 15.3
3 -11 3 39.9 12.9
3 11 3 13.2 6.9
-3 11 -3 10.8 13.6
-3 11 -3 19.9 14.3
3 11 3 6.8 14.8
4 -12 -3 -1.5 6.4
4 -12 -3 -26.5 12.9
-4 12 3 12.6 16.2
4 12 -3 -1.3 5.2
4 12 -3 -3.7 16.2
4 12 -3 1.6 5.8
2 -12 -3 666.23 39.4
2 -12 -3 662.53 35.6
2 -12 -3 666.23 33.1
2 -12 -3 700.23 30.7
-2 12 3 703.23 33.2
2 12 -3 690.73 32.9
2 12 -3 652.43 36
-2 12 3 637.34 37.1
2 12 -3 704.13 37.3
2 12 -3 696.73 33.8
0 -12 -3 77.39 11.6
0 12 3 111.69 9.7
0 12 -3 111.79 14.1
0 12 3 129.29 13
0 12 -3 76.49 13.3
0 12 -3 121.49 17.5
0 12 -3 115.69 12.8
0 12 3 76.49 13.3
2 -12 3 360.56 24.2
2 -12 3 327.17 26.4
-2 12 -3 327.27 27.7
2 12 3 291.07 25.2
2 12 3 305.17 18.3
2 12 3 305.87 16
-2 12 -3 367.16 26.7
2 12 3 301.37 27.1
4 -12 3 20.1 22.1
4 -12 3 -6.1 17
4 12 3 -12.1 18
4 12 3 3.2 10.8
-4 12 -3 26.6 15.4
-4 12 -3 26.2 20.3
3 -13 -3 65.29 9.8
3 -13 -3 85.79 15.9
3 13 -3 68.69 17.5
3 13 -3 70.89 13.7
-3 13 3 73.49 17
3 13 -3 73.49 11.5
-3 13 3 69.29 13.8
1 -13 -3 7.4 10.3
-1 13 3 9.2 7.6
1 13 -3 3.2 10.8
1 13 -3 14.6 10.1
-1 13 3 1.6 10.9
-1 13 3 -6.4 9.6
1 13 -3 -6.4 7.6
1 13 -3 12.9 10
1 -13 3 104.29 13.6
-1 -13 -3 78.99 13.7
1 13 3 66.59 14.8
1 13 3 79.99 8.7
-1 13 -3 100.99 19.9
-1 13 -3 92.59 11.8
-1 13 -3 93.29 17.1
1 13 3 88.99 14.9
3 -13 3 52.49 15.8
3 -13 3 80.39 16.3
3 13 3 49.1 15.1
3 13 3 56.19 17.8
-3 13 -3 55.99 18.2
-3 13 -3 45.8 15.4
3 13 3 48.3 9
3 13 3 44.8 9.5
4 -14 -3 45.1 20.6
4 -14 -3 33.3 19.1
4 14 -3 40.4 8
4 14 -3 45.1 22.5
4 14 -3 45 8.1
-4 14 3 36.1 21.5
4 14 -3 33.5 17.5
2 -14 -3 24.5 10.8
2 -14 -3 31 11
-2 14 3 21.2 15.7
2 14 -3 28.6 11.1
2 14 -3 6 12.9
0 -14 -3 120.19 17.3
0 14 -3 112.39 14.1
0 14 3 121.39 17.6
0 14 -3 147.59 18.3
0 14 3 134.99 12.8
0 14 3 129.29 18
0 14 -3 137.89 23.4
0 14 -3 101.49 17.7
2 -14 3 73.29 18.9
2 -14 3 104.89 16.9
2 14 3 122.29 19.9
2 14 3 84.59 11.5
2 14 3 107.09 18.2
-2 14 -3 91.59 19.7
-2 14 -3 71.19 18.3
2 14 3 89.99 10.8
3 -15 -3 10.1 16
3 -15 -3 2.5 16.2
3 15 -3 10.4 14.7
-3 15 3 22.6 18.8
3 15 -3 19.1 21.3
3 15 -3 1.3 13.7
1 -15 -3 193.38 25.5
1 -15 -3 156.58 21.3
1 15 -3 203.58 23.3
-1 15 3 163.18 18.3
-1 15 3 164.28 21.4
1 15 -3 140.89 25.5
-1 15 3 271.17 28.7
1 15 -3 212.28 27.5
1 15 -3 159.88 20.2
1 -15 3 37.7 13.7
1 15 3 29.2 12.7
-1 15 -3 59.19 15.3
-1 15 -3 24.6 9.1
1 15 3 24.3 15.1
1 15 3 19.2 5.7
-1 15 -3 12.5 16
1 15 3 23.6 15.5
3 -15 3 -14.4 23.7
3 -15 3 -14.7 17.1
3 15 3 37.1 24.6
3 15 3 13.8 8.8
3 15 3 6.1 8.1
-3 15 -3 3.8 22.1
3 15 3 46.4 20.9
-3 15 -3 31.9 22.7
2 -16 -3 -8.2 17.5
2 -16 -3 -8.9 13.7
-2 16 3 8.2 20.9
2 16 -3 17.2 17.5
2 16 -3 23.3 17.5
2 16 -3 14.5 13.8
-2 16 3 17.3 13.1
2 16 -3 7.8 21.2
0 16 3 128.69 16.8
0 16 3 175.58 23.2
0 16 -3 206.08 27.3
0 16 -3 205.88 26.7
0 16 3 153.58 22.3
2 -16 3 62.39 21
2 16 3 29.2 15.4
-2 16 -3 3.1 20.8
-2 16 -3 38.4 24.9
2 16 3 9.5 20
2 16 3 20.9 6
1 17 -3 -5.5 14
1 17 -3 3.8 23
1 17 -3 26 21.7
-1 17 3 27.1 22.4
1 17 -3 3.5 17.1
-1 17 3 4 19.6
1 17 3 21 7.2
-1 17 -3 20.2 11.7
1 17 3 3.8 16.1
-1 17 -3 48.2 26.8
1 17 3 -22.8 18.2
1 17 3 31.9 19.4
-1 17 -3 4.2 22.7
6 0 -4 8.8 16.3
6 0 -4 11.5 11.3
4 0 -4 124.59 14
-4 0 4 133.29 12.9
2 0 -4 438.36 20.2
-2 0 4 434.46 20.1
0 0 -4 17.7 3.8
0 0 4 17.4 2.4
-2 0 -4 4153.38 135.99
2 0 4 4223.18 138.59
-2 0 -4 4156.88 138.19
-4 0 -4 73.99 10
4 0 4 54.59 11.6
-4 0 -4 66.79 11.7
4 0 4 57.79 9.7
-5 -1 4 764.72 33.8
5 -1 -4 743.13 36.4
5 1 -4 730.43 33.8
-3 -1 4 71.39 9.7
3 -1 -4 57.69 8
-3 1 4 73.99 10.4
3 1 -4 81.79 9.1
1 -1 -4 3550.94 115.09
1 -1 -4 3592.34 117.99
1 1 -4 3572.84 117.79
-1 1 4 3613.14 117.99
-1 -1 -4 624.64 25
-1 -1 -4 606.94 24
1 -1 4 629.24 25.9
-1 1 -4 596.04 25.5
1 1 4 619.94 24.2
-3 -1 -4 145.99 13.7
-3 -1 -4 146.69 11.9
3 -1 4 134.39 15.6
3 1 4 144.19 14.4
-3 1 -4 155.18 10.9
3 1 4 145.09 12.6
-3 1 -4 155.68 14.4
5 1 4 36.7 12.5
6 -2 -4 55.79 20.3
6 -2 -4 50.99 15
-6 2 4 39.7 14.3
6 2 -4 44.6 19.5
6 2 -4 45.8 10.9
4 -2 -4 2.4 8.2
4 -2 -4 9.7 7
4 2 -4 2.2 5
2 -2 -4 861.31 34.6
2 2 -4 872.81 33.4
-2 2 4 864.21 34.2
0 -2 -4 110.39 8.1
0 -2 -4 111.89 6.8
0 2 4 112.69 7.5
0 2 -4 126.49 9.9
0 2 4 113.39 8.9
-2 -2 -4 128.59 10.3
-2 -2 -4 137.09 9.9
2 -2 4 127.89 12.9
-2 2 -4 143.09 8.8
2 2 4 133.79 10.3
-2 2 -4 126.19 12.5
2 2 4 125.79 10.1
-4 -2 -4 6.1 5.6
4 2 4 2.6 9
-4 2 -4 -1.6 8.2
4 2 4 -8.4 7.4
-4 2 -4 13.9 9.9
6 -2 4 53.59 24.7
-6 -2 -4 61.59 8.1
-6 2 -4 65.19 18.1
6 2 4 82.49 24.2
5 -3 -4 9.9 9.8
-5 3 4 14.7 9.5
5 3 -4 5.3 6.8
3 -3 -4 203.58 16.1
3 -3 -4 202.88 15.1
3 3 -4 227.18 13.3
-3 3 4 224.28 15.6
1 -3 -4 3470.25 115.39
1 -3 -4 3561.44 113.49
-1 3 4 3460.05 113.39
-1 3 4 3400.26 114.99
-1 -3 -4 266.77 11.5
-1 -3 -4 263.17 14.8
1 -3 4 270.67 16.2
-1 -3 -4 255.37 13.3
-1 3 -4 265.47 15.9
1 3 4 246.98 11.4
-3 -3 -4 144.39 9.9
3 -3 4 138.49 14.6
-3 -3 -4 136.79 13
3 3 4 148.79 14.2
3 3 4 172.48 14.7
-5 -3 -4 154.88 10.9
5 -3 4 147.39 22.5
-5 -3 -4 127.09 10.5
5 3 4 144.59 19.9
-5 3 -4 213.38 25.5
5 3 4 115.69 17.6
-5 3 -4 193.98 25.9
6 -4 -4 24.9 15.1
6 -4 -4 38.8 20.3
6 4 -4 44.5 19.4
-6 4 4 70.99 16.9
6 4 -4 20 8.7
4 -4 -4 290.87 21.4
4 -4 -4 265.97 21.6
4 4 -4 296.97 16.5
2 -4 -4 375.86 18.8
2 -4 -4 387.46 20.7
2 -4 -4 375.86 19.1
-2 4 4 374.06 20.3
2 4 -4 406.96 18.9
0 -4 4 0.6 1.4
0 -4 -4 1.2 3.4
0 -4 -4 -1 4.1
0 -4 -4 1 1.2
0 4 -4 3.4 4.5
0 4 4 3.5 3.3
0 4 4 -6.7 2.8
-2 -4 -4 70.69 7.2
2 -4 4 68.39 9.9
-2 -4 -4 64.69 8.5
2 4 4 64.59 9
-2 4 -4 69.09 5.9
2 4 4 73.89 8
-2 4 -4 74.79 9.7
4 -4 4 111.79 17
-4 -4 -4 122.29 8.2
-4 -4 -4 101.89 8.6
4 4 4 101.59 14.2
-4 4 -4 65.59 21
-4 4 -4 149.99 19
4 4 4 134.69 16.8
5 -5 -4 16.1 12
5 5 -4 2.4 6.2
3 -5 -4 381.96 23.7
3 -5 -4 461.35 21
3 -5 -4 403.16 23.4
3 5 -4 366.26 19.1
-3 5 4 449.06 23
1 -5 -4 6.4 4.2
1 -5 -4 7.5 4
1 -5 -4 2.7 2.9
1 5 -4 1.3 1.9
-1 5 4 7.9 3.4
-1 5 4 -2.7 4.1
1 -5 4 41.6 7.4
-1 -5 -4 53.39 7.4
-1 -5 -4 58.29 7.8
-1 5 -4 45 8
1 5 4 63.09 7.4
1 5 4 42.4 6.3
3 -5 4 138.09 19.2
-3 -5 -4 134.09 8.5
3 5 4 130.09 15.9
-3 5 -4 138.79 14.3
3 5 4 128.39 12.9
5 -5 4 -10.5 17
5 5 4 -12 16.2
-5 5 -4 2.4 17
-5 5 -4 17 15.6
5 5 4 0.5 13.2
6 -6 -4 7.6 21.4
6 6 -4 30.9 20.3
-6 6 4 -10.8 18.3
6 6 -4 -7.5 14
4 -6 -4 14.6 8.6
4 -6 -4 11.1 10.4
4 6 -4 13.7 5.3
-4 6 4 19.4 9.8
2 -6 -4 381.46 19.7
2 -6 -4 388.86 20.3
2 -6 -4 377.76 21.9
-2 6 4 361.86 21.3
0 -6 -4 4.2 5
0 -6 -4 16.1 5.1
0 -6 4 14.8 3.1
0 6 4 9.6 4.5
0 6 4 14.1 5.1
0 6 -4 7 5.8
2 -6 4 6.3 7.4
-2 -6 -4 12.8 3.9
2 6 4 24.3 8.1
-2 6 -4 13.1 2.4
2 6 4 14.4 3.8
4 -6 4 114.69 19.1
4 6 4 120.79 16.3
-4 6 -4 134.09 18.2
-4 6 -4 175.78 19.9
4 6 4 110.89 14.3
5 -7 -4 29.7 12.8
5 -7 -4 -1.4 13.8
5 -7 -4 -11.6 15.1
5 7 -4 9.5 5.5
-5 7 4 32.3 14.8
3 -7 -4 1.4 6.3
3 -7 -4 -4.7 8.5
3 -7 -4 2.9 7.2
3 7 -4 1.9 4.8
-3 7 4 5.7 7.3
1 -7 -4 41.9 6.2
1 -7 -4 32.4 6.7
1 -7 -4 41.7 7
1 -7 -4 36 7.6
1 7 -4 34.5 4.7
-1 7 4 29 7
1 7 -4 55.29 8.5
-1 7 4 45.3 7.6
1 -7 4 -2.5 3.5
1 -7 4 4.4 5.4
-1 -7 -4 -2.9 4.2
-1 -7 -4 3.2 4.6
1 7 4 1.1 3.9
-1 7 -4 -2.5 6.5
1 7 4 2.4 5.6
1 7 4 6.6 6.5
-3 -7 -4 7.8 3
-3 -7 -4 16.7 9
3 7 4 10.8 5.9
-3 7 -4 10.8 7.8
5 -7 4 74.79 19.4
5 7 4 124.09 21.6
-5 7 -4 151.28 25.4
5 7 4 87.39 20
-5 7 -4 119.69 21.7
4 -8 -4 12.1 12.1
4 -8 -4 4.2 9.7
4 -8 -4 1.4 7.1
4 8 -4 -2.1 5.1
-4 8 4 -3 10.6
2 -8 -4 460.25 22.8
2 -8 -4 460.85 23.1
2 -8 -4 478.85 27.3
-2 8 4 447.76 25.4
0 -8 4 16.5 4.4
0 -8 -4 17.1 5.9
0 -8 -4 7.6 5.6
0 8 -4 11.4 6.9
0 8 4 16.4 5.4
0 8 4 28.3 7.2
2 -8 4 78.59 10
2 -8 4 57.39 12.4
-2 -8 -4 90.39 9.6
-2 -8 -4 102.59 11.8
2 8 4 95.19 7.1
-2 8 -4 89.79 13.3
2 8 4 91.59 12.8
-4 8 -4 2.7 13.3
-4 8 -4 -0.9 14.2
4 8 4 8.9 9.5
4 8 4 9.1 14.1
5 -9 -4 101.09 21.2
5 -9 -4 86.89 18.6
5 -9 -4 95.99 21
-5 9 4 90.29 19.7
5 9 -4 72.69 19.1
5 9 -4 119.79 8.5
3 -9 -4 0.4 8.1
3 -9 -4 4.5 7.7
3 -9 -4 7 6.4
-3 9 4 -11.7 9.3
1 -9 -4 739.73 30.9
1 -9 -4 684.13 26.5
1 -9 -4 637.34 31.2
1 -9 -4 690.63 33
-1 9 4 616.34 31.8
-1 9 4 699.93 32.4
1 9 -4 606.94 32.1
1 9 -4 714.13 27.5
1 -9 4 4.1 8.1
1 -9 4 4.8 4.7
-1 -9 -4 1.7 5.6
1 9 4 6.2 4.7
1 9 4 1.5 6.1
1 9 4 0 7
3 -9 4 11.5 9
-3 -9 -4 14.5 10.4
3 9 4 6.9 5.8
-3 9 -4 19.6 12.4
-3 9 -4 32.1 12.5
5 -9 4 337.07 44.7
-5 9 -4 311.87 42.6
-5 9 -4 356.96 40.6
5 9 4 364.26 38.6
5 9 4 357.46 39.2
4 -10 -4 12.7 12.9
4 -10 -4 3.8 7.7
4 -10 -4 10.2 13.5
4 -10 -4 5.2 11.3
-4 10 4 18.5 11
4 10 -4 4.7 6.3
2 -10 -4 505.75 26.1
2 -10 -4 509.05 27.6
2 -10 -4 564.64 26.7
2 10 -4 541.75 24.9
-2 10 4 560.04 31.2
0 -10 -4 27.9 8
0 -10 -4 54.69 8.9
0 10 4 31.2 7.6
0 10 4 51.59 9.3
-2 -10 -4 -7.6 5.3
2 -10 4 6.1 8.2
-2 -10 -4 0.5 11.5
2 10 4 -0.3 5
-2 10 -4 5.5 7.8
2 10 4 -0.2 2
2 10 4 0 2.2
4 -10 4 -1.2 13.5
4 -10 4 11.1 19.4
4 10 4 4 9.4
4 10 4 15.6 16.2
-4 10 -4 12.7 17.9
-4 10 -4 -13.5 11.1
5 -11 -4 60.99 10.7
5 -11 -4 90.69 19.9
5 -11 -4 102.59 24.3
5 11 -4 61.39 19.1
-5 11 4 63.79 17.9
3 -11 -4 2.7 7.2
3 -11 -4 -3.9 7.3
3 -11 -4 16.1 10.7
3 11 -4 9.2 8.1
3 11 -4 3.4 12.1
-3 11 4 -12.7 10.8
1 -11 -4 13.1 7.6
1 -11 -4 0.2 4.5
1 -11 -4 4.7 8.4
1 11 -4 -3.9 5.4
-1 11 4 13.8 9.1
1 11 -4 -6.4 6.6
1 -11 4 65.49 9.6
-1 -11 -4 40.1 10.3
-1 -11 -4 31.9 8
1 -11 4 7.8 18.8
1 11 4 37.9 11.1
1 11 4 44.7 8.7
-1 11 -4 48.6 6.7
-1 11 -4 28.3 11.5
3 -11 4 -9.9 11.6
3 -11 4 -20.6 13.8
-3 11 -4 0.2 13.9
-3 11 -4 -13.2 14.7
3 11 4 0.4 5.7
4 -12 -4 23.7 14.9
4 -12 -4 23.2 8.6
-4 12 4 31.1 17.5
4 12 -4 20.1 7.7
4 12 -4 21.2 8.8
4 12 -4 33.2 17.6
2 -12 -4 322.97 21.2
2 -12 -4 328.77 25.3
2 12 -4 339.27 27.9
2 12 -4 354.26 21.1
2 12 -4 355.96 26.3
-2 12 4 342.77 29
0 -12 -4 13.9 8.8
0 -12 -4 -1.3 8.7
0 12 -4 -3.7 7
0 12 -4 2.4 10.8
-2 -12 -4 285.37 23.1
2 -12 4 303.27 23.3
2 12 4 294.17 18.9
-2 12 -4 318.57 26.2
2 12 4 312.67 25.4
-2 12 -4 339.77 30
4 -12 4 1.6 19.1
4 -12 4 -22.2 21.2
-4 12 -4 -3.7 14.9
-4 12 -4 37 18
4 12 4 -10.4 14.4
4 12 4 -13.1 22
4 12 4 6.5 10
3 -13 -4 54.99 14
3 -13 -4 -7.7 16
3 -13 -4 29.9 13.7
3 13 -4 63.29 19.2
3 13 -4 35.8 16.1
-3 13 4 -11.9 14.5
3 13 -4 38.2 11.2
1 -13 -4 52.99 13.7
1 -13 -4 65.29 11.6
1 -13 -4 68.39 13.7
-1 13 4 56.89 18.1
1 13 -4 66.49 10.6
1 13 -4 70.99 17.6
1 13 -4 65.19 13.1
-1 -13 -4 84.99 14.5
-1 13 -4 124.09 18.9
-1 13 -4 92.59 12.6
1 13 4 91.49 16.2
-1 13 -4 83.49 18.3
3 -13 4 30.3 19.9
3 -13 4 -13.1 13.6
3 13 4 -1.6 4.9
-3 13 -4 13.7 17
3 13 4 3.3 11.7
3 13 4 8.4 4.9
-3 13 -4 -11.2 18.9
3 13 4 4.5 18.8
2 -14 -4 10.3 10
2 -14 -4 9.6 10.1
2 -14 -4 3 9.8
2 14 -4 31.9 13.8
2 14 -4 45.3 17.1
-2 14 4 43.5 16.6
2 14 -4 20.5 13.3
0 -14 -4 39.7 12.6
0 14 -4 49.6 17.5
0 14 4 78.09 15.7
0 14 -4 38.7 10.4
0 14 -4 27.5 16.5
0 14 4 37.4 14.6
2 -14 4 72.79 18.9
2 -14 4 46.1 19.5
2 14 4 27.2 16.6
-2 14 -4 52.19 20
2 14 4 37.4 14.5
-2 14 -4 58.99 19.1
2 14 4 64.99 10.8
3 -15 -4 6 15.4
3 -15 -4 9.4 17.8
-3 15 4 -37.1 20
3 15 -4 -40.5 18.5
3 15 -4 -25.6 12.7
3 15 -4 20.6 21.5
1 -15 -4 26.7 11.9
-1 15 4 10.6 16.6
-1 15 4 24.4 12.6
1 15 -4 8.4 13.3
1 15 -4 11.5 10.8
1 15 -4 1.5 16.7
1 15 -4 57.29 18.4
1 -15 4 -12.8 22.7
-1 -15 -4 -10.2 12.7
-1 15 -4 0.3 8.1
-1 15 -4 -9.5 17.3
1 15 4 0 15
1 15 4 1.3 12.5
-1 15 -4 -6.3 16.4
2 -16 -4 19.5 13.5
2 -16 -4 -0.1 16.7
2 16 -4 26.2 14.1
2 16 -4 16.8 22.9
2 16 -4 41.4 18.3
2 16 -4 25.1 19.1
-2 16 4 24.4 16.6
0 -16 -4 15.4 14.8
0 16 4 -11.9 18.3
0 16 4 16.5 13.6
0 16 -4 26.6 20.9
0 16 -4 11.5 19.6
6 0 -5 7 18.7
6 0 -5 4.4 12.6
-6 0 5 -1.2 10.7
-4 0 5 3.2 5.8
4 0 -5 -4.4 6.3
2 0 -5 3.8 4.1
-2 0 5 0.3 4
0 0 5 -0.5 1.9
0 0 -5 1.2 3.5
0 0 -5 3.2 3.1
-2 0 -5 -3.4 4
2 0 5 8.6 5.6
-2 0 -5 -3.5 4.6
4 0 5 14.4 11.1
-4 0 -5 -0.3 9.1
-5 -1 5 315.37 20.2
5 -1 -5 212.68 22.6
5 1 -5 252.97 20.9
-5 1 5 295.27 22.1
-3 -1 5 3.3 4.9
3 -1 -5 -6.5 5.1
-3 1 5 1.9 5
3 1 -5 5.5 5.3
1 -1 -5 901.71 32.2
1 -1 -5 905.61 35.8
1 1 -5 887.41 30.4
-1 1 5 940.61 36.1
1 1 -5 935.41 36.2
-1 -1 -5 13.9 4.1
1 -1 5 13.8 5.2
-1 -1 -5 20.7 5.1
-1 1 -5 20 5.2
1 1 5 15.3 4.6
-3 -1 -5 35.2 8.2
-3 -1 -5 24.1 6.4
3 -1 5 22 8.5
3 1 5 14.8 7.6
-3 1 -5 22 5.6
5 -1 5 -4 16.6
-5 -1 -5 16.7 10.9
-5 1 -5 23.9 14.7
5 1 5 34 14.5
6 -2 -5 15.1 14.8
6 -2 -5 23.6 14.3
6 2 -5 1.3 14
-6 2 5 -17.4 14.4
6 2 -5 4.1 11.2
4 -2 -5 415.06 25
4 -2 -5 408.16 25.7
4 2 -5 425.26 22.7
2 -2 -5 160.38 12.4
2 -2 -5 171.18 11
2 2 -5 162.68 11.5
-2 2 5 153.68 12.9
0 -2 -5 213.68 12.7
0 -2 -5 204.08 10.9
0 -2 5 206.38 7.6
0 2 5 209.28 11.2
0 2 -5 221.08 13.9
-2 -2 -5 1588.04 57.79
-2 -2 -5 1544.25 56.69
2 -2 5 1595.64 60.59
-2 2 -5 1595.24 59.99
-2 2 -5 1627.54 55.59
2 2 5 1610.34 57.49
4 -2 5 11.6 9.6
4 2 5 2.5 9.5
-4 2 -5 25.9 11.1
5 3 -5 33.6 8.7
-5 3 5 36.5 11.5
3 -3 -5 401.46 23
-3 3 5 392.56 22.3
3 3 -5 392.96 20.4
1 -3 -5 839.22 32
1 -3 -5 858.71 34.6
-1 3 5 856.01 34.4
-1 3 5 845.32 32.1
1 -3 5 7.5 5.5
-1 -3 -5 15.1 4.5
-1 -3 -5 16.1 3.5
-1 -3 -5 21.1 6
-1 3 -5 16.5 5.1
1 3 5 13.8 3.5
-3 -3 -5 137.39 13.4
-3 -3 -5 141.79 11.5
3 -3 5 137.99 15.5
-3 3 -5 166.38 16.8
-3 3 -5 134.09 10
3 3 5 152.78 14.9
-5 -3 -5 18.8 7.2
5 -3 5 16.5 17.6
-5 -3 -5 14.9 6.2
-5 3 -5 2.6 15.8
-5 3 -5 33.1 16.7
5 3 5 -2.2 13.4
5 3 5 8.2 15.5
6 -4 -5 -10.8 18.4
6 -4 -5 10.3 15.1
6 4 -5 -2.6 9.9
6 4 -5 17.4 19.3
-6 4 5 -4.1 16.1
4 -4 -5 1.7 8.7
4 -4 -5 14.5 9.7
4 4 -5 11.8 6.6
-4 4 5 28.4 9.1
2 -4 -5 39.7 6.5
2 -4 -5 34.1 7.5
-2 4 5 42.3 6.8
2 4 -5 46.3 7.1
0 -4 -5 201.88 9.1
0 -4 -5 202.98 13.5
0 -4 -5 193.28 13.6
0 4 5 204.68 12.6
0 4 5 200.68 13.3
0 4 -5 216.78 14.2
-2 -4 -5 194.48 15.6
2 -4 5 218.68 18.5
-2 -4 -5 225.18 13.3
-2 4 -5 240.78 16.1
-2 4 -5 221.58 11.7
2 4 5 224.08 13.2
4 -4 5 89.69 15.1
-4 -4 -5 90.59 9.8
4 4 5 71.79 12.4
-4 4 -5 99.79 14.7
4 4 5 82.19 17.4
5 -5 -5 26.7 12.9
5 -5 -5 -7.3 16
5 5 -5 39.1 8.4
-5 5 5 36 13
3 -5 -5 1.9 7.4
3 -5 -5 5 7.1
3 5 -5 2.7 4.8
1 -5 -5 116.19 10.2
1 -5 -5 112.09 8.2
1 -5 -5 119.19 11.9
-1 5 5 103.39 10.1
1 5 -5 113.09 5.5
-1 5 5 100.79 10
-1 -5 -5 388.06 20.8
-1 -5 -5 419.56 20.3
1 -5 5 422.06 23.9
1 5 5 398.66 20.7
-1 5 -5 438.96 23.9
-3 -5 -5 5.4 7.3
-3 -5 -5 3.2 4.3
3 -5 5 4.2 9.2
3 5 5 -2.1 5.8
3 5 5 -0.9 8.9
-3 5 -5 4.4 6.8
5 -5 5 7.2 14.7
-5 5 -5 31.1 18.7
-5 5 -5 -1.5 16.1
5 5 5 -7.9 15.5
5 5 5 11 16.2
6 -6 -5 -15.5 16.6
6 -6 -5 -0.5 17.5
6 6 -5 2 8.4
-6 6 5 5.3 19.2
4 -6 -5 27.7 12
4 -6 -5 33.5 8.5
4 -6 -5 16.5 11.1
4 6 -5 30.3 7.6
-4 6 5 21.6 9.9
2 -6 -5 280.47 18.9
2 -6 -5 273.27 17.2
2 -6 -5 273.27 16.7
-2 6 5 291.17 17.5
0 -6 -5 538.25 25.9
0 -6 -5 571.34 26.3
0 6 5 618.14 26.3
0 6 -5 569.54 28.7
0 6 5 562.04 25.7
-2 -6 -5 38 6.1
2 -6 5 26.3 10.2
2 6 5 53.49 9.2
2 6 5 51.79 6.7
-2 6 -5 37.3 4.5
4 -6 5 100.89 17.2
-4 6 -5 119.39 18.8
-4 6 -5 152.98 19.7
4 6 5 127.29 18.2
5 -7 -5 89.09 16.1
5 -7 -5 90.79 18.1
5 -7 -5 68.79 17.9
-5 7 5 83.19 17.1
5 7 -5 89.69 10.2
3 -7 -5 7.8 6.7
3 -7 -5 -4.5 7
3 -7 -5 8.1 7.4
3 7 -5 -3 5.5
-3 7 5 -4 6.4
1 -7 -5 49 8.1
1 -7 -5 56.59 8.5
1 -7 -5 45.6 8.8
1 -7 -5 49.5 6.6
1 7 -5 53.19 5.4
-1 7 5 50.19 8.5
-1 7 5 53.49 8.5
-1 -7 -5 46.4 7.1
1 -7 5 59.09 7.5
1 -7 5 29.7 9.6
1 7 5 46 8.3
1 7 5 46.2 6.8
-3 -7 -5 59.89 8.5
-3 -7 -5 71.29 14.3
3 7 5 61.99 11.3
3 7 5 56.89 8.1
-3 7 -5 65.19 12.4
5 -7 5 37.1 21.9
5 7 5 60.09 21
-5 7 -5 23.9 22
-5 7 -5 47 21.1
4 -8 -5 476.65 33.7
4 -8 -5 473.45 29.9
-4 8 5 481.85 32
4 8 -5 465.25 24
2 -8 -5 215.58 16.1
2 -8 -5 213.98 15.1
2 -8 -5 223.68 20
2 -8 -5 266.87 17
2 8 -5 222.68 13.3
-2 8 5 203.18 16.9
0 -8 -5 169.78 14.9
0 -8 -5 119.09 13.9
0 8 5 176.08 15.3
0 8 5 177.58 14.2
-2 -8 -5 388.76 19.5
2 -8 5 392.76 20.9
-2 -8 -5 387.66 24.5
2 8 5 371.16 13
-2 8 -5 366.16 24.7
2 8 5 359.06 27.3
4 -8 5 -20.4 12.3
4 8 5 6.2 15.1
-4 8 -5 -7.7 14.8
-4 8 -5 -6.8 15.8
4 8 5 4.4 9.3
5 -9 -5 82.99 19.8
5 -9 -5 103.09 16.9
5 -9 -5 87.29 21.3
5 9 -5 122.59 13.9
-5 9 5 124.89 20.8
3 -9 -5 13.2 8.7
-3 9 5 39.7 12
1 -9 -5 53.59 9.2
1 -9 -5 47.6 6.8
1 -9 -5 48.4 8.5
1 -9 -5 47.5 10.5
-1 9 5 46.4 9.7
1 9 -5 43.2 5.8
1 9 -5 69.59 11.6
-1 -9 -5 14.5 7.7
-1 -9 -5 19 6.8
1 -9 5 21.8 8.5
1 -9 5 27.5 6.1
-1 9 -5 24.4 10.4
1 9 5 26.6 7
1 9 5 24.7 7.3
-3 -9 -5 95.39 16.2
3 -9 5 119.09 16.4
-3 -9 -5 107.19 10
3 9 5 117.29 11
-3 9 -5 95.39 16.9
4 -10 -5 180.78 23.1
4 -10 -5 109.59 19.9
4 -10 -5 114.99 18.3
4 -10 -5 114.19 13.1
-4 10 5 127.89 19.6
4 10 -5 122.09 15.5
2 -10 -5 210.78 18.7
2 -10 -5 177.48 19
2 -10 -5 182.38 15.4
-2 10 5 163.58 20.7
2 10 -5 230.78 22.8
2 10 -5 176.68 13.4
0 -10 -5 292.57 19
0 -10 -5 262.07 21.1
0 10 5 294.27 20.4
0 10 -5 250.87 21.4
-2 -10 -5 7.8 10
-2 -10 -5 8.5 6.5
-2 10 -5 6.4 10.9
-2 10 -5 -0.5 2.4
4 -10 5 32.8 16.8
4 -10 5 45.8 16.7
4 10 5 38 20.3
-4 10 -5 44 18.6
4 10 5 41.3 10.6
-4 10 -5 33.5 16.6
5 -11 -5 19.4 13.9
5 -11 -5 -16.1 19.7
5 -11 -5 -33.1 22.4
5 11 -5 7.3 7.3
5 11 -5 34.8 22.9
-5 11 5 25.9 19.9
3 -11 -5 2.4 9.4
3 -11 -5 -0.7 10
3 11 -5 -3.3 7.7
-3 11 5 2.2 9.6
1 -11 -5 1689.33 75.09
1 -11 -5 1710.43 64.89
1 -11 -5 1616.24 57.39
1 11 -5 1695.63 60.29
1 11 -5 1727.83 69.69
-1 11 5 1728.63 67.49
-1 -11 -5 45.7 11.9
-1 -11 -5 46.6 9.9
1 -11 5 35.8 8.1
-1 11 -5 45.7 14.3
1 11 5 42.5 8.7
-1 11 -5 42.7 7.4
3 -11 5 71.39 20.3
3 -11 5 76.39 15.3
-3 -11 -5 57.89 16.4
-3 11 -5 72.89 18.8
3 11 5 63.79 7.9
3 11 5 31.8 13.7
3 11 5 71.29 6.2
3 11 5 60.49 16.3
-3 11 -5 88.99 19
4 -12 -5 73.09 17.4
4 -12 -5 66.39 21.7
4 12 -5 111.19 18.5
4 12 -5 92.99 15.1
-4 12 5 138.79 19.6
4 12 -5 96.59 12.6
2 -12 -5 178.88 17.9
2 -12 -5 190.28 21.8
2 -12 -5 170.98 16.2
2 12 -5 217.18 26.3
2 12 -5 178.88 15.7
-2 12 5 175.98 24.6
0 -12 -5 59.29 12.3
0 12 5 70.19 12
0 12 -5 89.39 15.6
0 12 -5 69.89 11.1
2 -12 5 -2.6 15.7
-2 -12 -5 37.3 13.6
2 -12 5 -7.8 8.6
2 12 5 1.6 14.7
-2 12 -5 13.3 14.9
-2 12 -5 1.2 13.9
2 12 5 10.2 7.6
3 -13 -5 -9.4 9.3
3 -13 -5 0.1 16
3 -13 -5 6.7 12.2
3 -13 -5 -9.5 9.6
-3 13 5 21.6 17.2
3 13 -5 -17.7 15.5
3 13 -5 30.4 17.1
1 -13 -5 10.9 11.6
1 -13 -5 35.4 11.4
1 13 -5 45 9.1
-1 13 5 33.9 14
1 13 -5 53.19 14.8
-1 -13 -5 99.89 15.6
-1 -13 -5 52.69 12.7
-1 13 -5 89.89 18.7
-1 13 -5 76.09 9.9
3 -13 5 54.29 23.6
3 -13 5 79.99 18.4
3 13 5 54.79 20.6
-3 13 -5 54.39 22.6
3 13 5 78.09 23.6
-3 13 -5 79.99 19.1
2 -14 -5 -1.6 11.9
2 -14 -5 12 10.7
2 -14 -5 4.7 16.7
2 -14 -5 9.4 9.4
2 14 -5 7.7 17.3
2 14 -5 1 9.7
2 14 -5 16.8 14.1
0 -14 -5 51.29 14.3
0 -14 -5 35 13.4
0 14 -5 72.19 17.7
0 14 5 48.4 17.2
0 14 -5 45.7 12.1
0 14 5 20.5 14.5
-2 -14 -5 21.3 17.4
2 -14 5 42.6 24.9
2 -14 5 63.69 21.8
-2 14 -5 25.2 20.3
-2 14 -5 84.49 20.5
2 14 5 48 14.9
3 -15 -5 56.49 19.8
3 -15 -5 -8.6 12.8
3 15 -5 3.4 14.6
-3 15 5 30.6 20.3
3 15 -5 -4.6 17.1
3 15 -5 4.9 23.8
3 15 -5 -10.3 20.4
1 -15 -5 24 16.3
1 -15 -5 7.9 13.2
-1 15 5 5 15.4
1 15 -5 15.2 13.8
1 15 -5 27 20
-1 15 5 17.8 17.5
1 15 -5 -0.2 18.8
1 15 -5 15.3 10.5
-1 -15 -5 299.47 29.9
1 15 5 269.27 30.9
1 15 5 242.08 26
-1 15 -5 337.47 37.7
-1 15 -5 239.88 19.2
-1 15 -5 248.58 30.5
0 -16 -5 -1.2 16
0 16 -5 -7.2 13.5
0 16 -5 27 21.8
0 16 5 -12.7 13.8
0 16 5 34.1 18
0 16 -5 16 22
6 0 -6 -19.2 17.7
-6 0 6 10.9 13.1
6 0 -6 19.4 14.7
-4 0 6 2003.3 84.79
4 0 -6 2778.62 87.89
2 0 -6 341.47 18.9
2 0 -6 324.07 15
0 0 -6 445.66 21
0 0 -6 429.76 21.4
0 0 6 437.96 17.1
-2 0 -6 64.69 9.3
2 0 6 79.79 11.5
-2 0 -6 69.59 8.7
4 0 6 352.56 33.5
-4 0 -6 332.47 26.1
5 -1 -6 244.98 22.7
-5 1 6 217.18 20.8
5 1 -6 189.98 21.4
3 -1 -6 763.72 34.7
3 1 -6 766.02 34.1
-3 1 6 758.32 33.6
1 -1 -6 77.59 10.1
1 -1 -6 88.29 6.6
1 1 -6 80.09 5
1 1 -6 82.09 9.3
-1 -1 -6 270.87 16
-1 -1 -6 283.47 15.1
-1 -1 -6 271.17 16.4
1 -1 6 269.27 16.9
1 1 6 258.47 15
-1 1 -6 286.87 16.8
-3 -1 -6 1116.49 46.2
3 -1 6 1199.18 49.8
-3 -1 -6 1080.79 44.4
-3 1 -6 1156.88 47.3
3 1 6 1085.99 47
-3 1 -6 1101.89 43.3
5 -1 6 0.7 17.4
-5 1 -6 -10.3 14.5
5 1 6 -28.9 15.7
-5 1 -6 -2.4 15.4
6 -2 -6 -21.4 19.2
6 -2 -6 1 14.3
6 2 -6 -16.1 18.1
-6 2 6 11 13.1
6 2 -6 2.2 12.1
4 -2 -6 89.69 13
4 2 -6 97.49 13.7
-4 2 6 87.69 11.9
2 -2 -6 34 7.8
2 -2 -6 39.8 6
-2 2 6 44.2 7.8
2 2 -6 33.8 7.1
0 -2 -6 810.52 31.9
0 -2 -6 874.71 35.2
0 -2 6 833.72 27.6
0 2 -6 861.41 35.5
0 2 6 866.41 31.8
-2 -2 -6 141.59 11.4
-2 -2 -6 133.49 12.7
2 -2 6 134.19 13.6
-2 -2 -6 139.89 12.7
2 2 6 159.18 13.2
-2 2 -6 141.99 11.7
-2 2 -6 139.09 14
4 -2 6 101.99 17
-4 -2 -6 95.59 13.1
4 2 6 77.79 14.3
-4 2 -6 91.29 16.3
5 -3 -6 -16.5 15.6
5 -3 -6 16.9 12.9
5 3 -6 24.3 9.7
-5 3 6 14.8 21.1
3 -3 -6 351.26 19.3
3 -3 -6 361.66 22.8
3 3 -6 351.56 20.6
1 -3 -6 707.93 27.7
1 -3 -6 701.43 31.5
-1 3 6 687.13 27.9
-1 3 6 710.83 31.1
-1 -3 -6 39.9 7.4
-1 -3 -6 44.5 7
1 -3 6 45.2 8.8
-1 -3 -6 45.9 6.8
-1 3 -6 28.3 7.7
3 -3 6 14.1 10.9
-3 -3 -6 16.5 6.2
-3 -3 -6 16.8 7.8
-3 3 -6 8.5 9.3
-3 3 -6 8.8 5.7
3 3 6 4.8 6.9
-5 -3 -6 -7.3 8.6
-5 -3 -6 5.9 7.3
5 -3 6 -9.5 19.7
-5 3 -6 15.6 19.6
5 3 6 -4.1 16.4
-5 3 -6 19.4 17.8
6 -4 -6 -2.8 17
6 -4 -6 -11.1 21.2
6 4 -6 11.9 14.9
-6 4 6 10 16
4 -4 -6 -16.4 7
4 -4 -6 13.9 10.9
4 4 -6 10.2 7.8
-4 4 6 -8.2 8.6
2 -4 -6 486.15 26.3
2 -4 -6 471.55 22.8
-2 4 6 560.04 25.6
2 4 -6 484.55 24.9
0 -4 -6 556.14 21.1
0 -4 -6 579.74 26.6
0 4 6 556.14 26
0 4 6 551.24 24.5
0 4 -6 557.54 27.9
-2 -4 -6 26.3 5.4
-2 -4 -6 26.5 6.3
2 -4 6 40.8 10.1
2 4 6 23.8 5.6
-2 4 -6 23.1 5.5
-4 -4 -6 25.8 6.9
4 -4 6 30.3 15.2
-4 4 -6 22.7 12.9
4 4 6 22.1 11.1
5 -5 -6 42.5 13
5 -5 -6 26.6 13.3
5 -5 -6 43.7 13.3
-5 5 6 44.2 14.9
5 5 -6 39.3 10
3 -5 -6 46 11.3
3 -5 -6 58.19 10.2
3 5 -6 53.79 9.3
-3 5 6 64.49 10.7
1 -5 -6 0.7 5.6
1 -5 -6 0.5 4.4
-1 5 6 1.4 4.7
1 5 -6 3.4 5
-1 5 6 21.1 6.4
-1 -5 -6 226.48 15.4
-1 -5 -6 207.48 16
1 -5 6 245.28 19.2
-1 -5 -6 221.48 9.8
-1 5 -6 288.17 18
1 5 6 194.98 15.1
-3 -5 -6 52.79 7.6
3 -5 6 45.9 13.7
-3 -5 -6 54.19 10.8
-3 5 -6 45.6 13
-3 5 -6 64.89 6.8
3 5 6 56.49 9.1
5 -5 6 12.3 21.3
5 5 6 23.9 16.7
-5 5 -6 2.4 21
-5 5 -6 12.6 13.7
6 -6 -6 25.8 18.5
6 -6 -6 33.2 19.9
6 -6 -6 -4.6 22.5
-6 6 6 20.5 19.2
6 6 -6 -1.6 10.9
4 -6 -6 57.59 15.8
4 -6 -6 78.19 15.1
4 -6 -6 41.5 16
-4 6 6 76.89 13.9
4 6 -6 75.19 10.6
2 -6 -6 534.15 25.7
2 -6 -6 581.04 26.6
2 -6 -6 528.95 28.8
-2 6 6 655.93 29.1
0 -6 -6 138.09 13.6
0 -6 -6 167.18 11.8
0 6 6 143.79 12.8
0 6 -6 107.09 12.8
0 6 6 131.29 12.8
2 -6 6 102.69 15.6
-2 -6 -6 135.79 12.6
-2 -6 -6 147.69 16.1
2 6 6 123.49 8.9
-2 6 -6 86.99 14.1
-4 -6 -6 15.6 13.4
-4 -6 -6 13.4 5.2
4 -6 6 -6.2 12.2
4 6 6 17.3 10.6
-4 6 -6 -3.9 13.6
5 -7 -6 -17.7 12.4
5 -7 -6 9.1 15
5 -7 -6 18.3 16
-5 7 6 12.2 15.8
5 7 -6 -4.1 8.5
3 -7 -6 253.87 19.7
3 -7 -6 225.88 19
3 -7 -6 282.77 23.9
-3 7 6 252.77 19.9
3 7 -6 257.57 19.2
1 -7 -6 67.39 7
1 -7 -6 67.99 10
1 -7 -6 47.5 10
-1 7 6 60.49 9.4
1 -7 6 162.08 18.7
-1 -7 -6 171.88 16.3
1 -7 6 175.58 10.8
-1 -7 -6 168.68 14.9
1 7 6 152.78 13.1
-1 7 -6 139.39 17.6
1 7 6 172.78 15.7
3 -7 6 199.68 22.5
-3 -7 -6 233.88 21.9
-3 -7 -6 203.98 14.4
3 7 6 225.58 15.2
-3 7 -6 261.27 25.1
4 -8 -6 44.3 11.7
4 -8 -6 23.8 14.5
4 -8 -6 40.9 16.4
-4 8 6 21.3 13.1
4 8 -6 52.39 10.1
2 -8 -6 0.6 5.5
2 -8 -6 1.5 6.9
2 -8 -6 6.3 7
-2 8 6 -12.2 7.3
2 8 -6 7.1 3.9
0 -8 -6 45.6 9.5
0 -8 -6 54.69 10
0 8 6 50.09 8.7
0 8 -6 51.09 11.1
-2 -8 -6 -3.8 6.1
2 -8 6 6.7 6.3
2 8 6 1.8 9.1
4 -8 6 8.6 14.8
4 8 6 0.4 9.2
-4 8 -6 1.4 11.6
4 8 6 9 16.2
5 -9 -6 5.1 19
5 -9 -6 -18.7 19.1
5 -9 -6 -23.8 15.1
-5 9 6 9.6 17.4
5 9 -6 -2.9 9.1
3 -9 -6 92.29 13.3
3 -9 -6 102.09 13.1
-3 9 6 84.79 14.9
1 -9 -6 931.51 40.8
1 -9 -6 939.31 40.6
1 -9 -6 863.51 31.9
1 -9 -6 934.41 42.7
-1 9 6 924.71 41.6
-1 9 6 948.21 41.5
1 9 -6 879.41 32.7
1 9 -6 899.11 42.8
-1 -9 -6 10.9 9
-1 -9 -6 -3.7 7.1
1 -9 6 1.6 4.8
-1 9 -6 4.1 10.5
1 9 6 12.9 6.5
3 -9 6 -4.5 9.5
-3 -9 -6 6.6 6
-3 -9 -6 -8.5 11.4
-3 9 -6 11.1 13.5
3 9 6 0 4.5
4 -10 -6 26.2 12.6
4 -10 -6 -4.3 14.1
4 -10 -6 7.6 12.7
4 -10 -6 40.8 10.7
4 10 -6 12 9.6
-4 10 6 18 11.8
2 -10 -6 3.4 10.3
2 -10 -6 1.3 6
2 -10 -6 -12.6 7.3
2 -10 -6 10.3 8.7
-2 10 6 4.1 11.9
2 10 -6 6.6 5.3
0 -10 -6 256.57 21
0 -10 -6 258.17 21.4
0 10 6 219.68 20.8
0 10 -6 232.68 21.4
-2 -10 -6 7.6 7.4
-2 -10 -6 -18.4 9.6
2 -10 6 14.5 8.7
-2 10 -6 3.9 12.6
4 -10 6 24.4 17.3
4 -10 6 55.09 23.4
-4 10 -6 -2.7 20.5
4 10 6 -2.7 8.6
4 10 6 2.1 21.4
-4 10 -6 15.9 22.2
3 -11 -6 16.8 23.6
3 -11 -6 5.3 9.6
3 -11 -6 -20.4 11.3
3 -11 -6 4.3 10.3
-3 11 6 10.9 13.6
3 11 -6 1.3 7.4
1 -11 -6 -1.9 8.1
1 -11 -6 -13.6 10.8
1 -11 -6 10.3 7.3
1 11 -6 5.1 5
-1 11 6 10.9 9.2
1 11 -6 -12.5 11.3
-1 -11 -6 36.6 12.1
1 -11 6 16.7 7.4
-1 -11 -6 26.5 9.3
-1 11 -6 8.8 13.1
-3 -11 -6 4 15.7
3 -11 6 13.3 15.4
3 -11 6 3.4 14.1
-3 11 -6 3 12.6
-3 11 -6 12.7 18.1
3 11 6 8.8 16.2
4 -12 -6 173.08 27.5
4 -12 -6 253.37 24.5
4 -12 -6 249.78 25.3
4 12 -6 234.78 24.8
-4 12 6 215.38 27.4
4 12 -6 195.78 23.6
2 -12 -6 2.8 7.3
2 -12 -6 8.5 8.6
2 -12 -6 -6.2 14
2 -12 -6 21.8 10.7
-2 12 6 -1 9.5
2 12 -6 13 10.9
2 12 -6 10.7 6.7
0 -12 -6 14.2 10.5
0 12 6 13.8 9.5
0 12 6 -0.7 9.6
0 12 -6 18.6 11.6
2 -12 6 54.09 18.5
-2 -12 -6 32.7 10.5
-2 -12 -6 18.7 11.5
2 12 6 24.1 11.4
-2 12 -6 54.79 17.8
-2 12 -6 28.3 3.9
3 -13 -6 18.9 18.8
3 -13 -6 -5.5 13.3
3 -13 -6 -3.1 12.3
3 -13 -6 15.2 14
-3 13 6 6.5 16.9
3 13 -6 11.7 20
3 13 -6 7.8 10.5
1 -13 -6 85.49 15
1 13 -6 89.79 17.2
-1 13 6 92.19 17.3
-1 13 6 96.29 17.2
-1 -13 -6 46 13.2
-1 -13 -6 21.5 13.6
1 13 6 37.5 11.8
1 13 6 36.7 11.9
-1 13 -6 43.6 8.9
-1 13 -6 53.39 17.2
3 -13 6 -24.7 23
3 -13 6 -35 14.2
3 13 6 2 20.1
-3 13 -6 30.2 23.5
-3 13 -6 8.4 21.3
2 -14 -6 8.9 8.7
2 -14 -6 11.4 19
2 -14 -6 6.3 11.8
2 -14 -6 36.9 14.1
2 14 -6 11 14.3
2 14 -6 12.6 10.1
2 14 -6 12.4 17.1
-2 14 6 0 16.2
0 -14 -6 90.89 15.7
0 14 6 82.39 18.2
0 14 -6 71.79 13.3
0 14 6 87.69 16.1
0 14 -6 109.19 21.3
2 -14 6 -8.6 14.7
-2 -14 -6 19.1 18.1
-2 14 -6 -0.7 20.4
-2 14 -6 -26.2 20.8
2 14 6 -13.1 18.1
1 -15 -6 21.5 17.2
1 -15 -6 16.9 14.8
1 15 -6 -1.9 14
1 15 -6 25.3 21.6
-1 15 6 -9.1 17.2
-1 15 6 8.5 17.6
-1 -15 -6 3.2 17.4
-1 15 -6 45.3 21.8
-1 15 -6 3.7 21.9
1 15 6 23.2 19.2
1 15 6 -25.7 16.8
-1 15 -6 13.6 9.9
6 0 -7 -13.2 15.4
6 0 -7 11.9 14.6
-4 0 7 10.3 8.2
4 0 -7 10.2 8.9
2 0 -7 0 3.1
2 0 -7 -2 6.1
0 0 -7 0.9 4.2
0 0 -7 4 4.9
0 0 7 0.9 2.6
-2 0 -7 -6.5 6
2 0 7 11.6 7.4
-2 0 -7 10.1 6.4
4 0 7 -5 12.9
5 -1 -7 -13.6 10.4
5 -1 -7 10.4 12.4
-5 1 7 8.8 19.6
5 1 -7 4.6 20
3 -1 -7 114.89 10.8
3 -1 -7 112.99 15.7
3 1 -7 114.49 15.3
1 -1 -7 8 3.3
1 -1 -7 2.7 4.4
1 1 -7 8.6 6.1
-1 -1 -7 25.4 6.4
-1 -1 -7 20.1 6.8
-1 -1 -7 34.6 7.2
-1 1 -7 22.3 6.9
3 -1 7 223.18 21.8
-3 1 -7 220.98 19.9
3 1 7 192.58 20.9
-3 1 -7 213.28 16.8
6 -2 -7 35.5 24.1
6 -2 -7 37.1 16.9
6 2 -7 40.4 15.9
-6 2 7 28.6 16.2
4 2 -7 144.29 17.6
-4 2 7 154.28 18.9
2 -2 -7 109.09 12.3
2 -2 -7 83.69 9.3
2 2 -7 92.79 6.6
-2 2 7 67.79 10.9
2 2 -7 76.79 10.8
0 -2 7 32.8 3.2
0 -2 -7 30.8 6
0 -2 -7 41.7 8
0 2 -7 24.7 7.1
0 2 7 35.5 5.5
-2 -2 -7 177.98 14.4
-2 -2 -7 166.98 15.4
2 -2 7 139.09 17.2
2 2 7 152.98 14.9
-2 2 -7 149.59 13.5
-4 -2 -7 -2.7 10
-4 -2 -7 17.4 8.8
-4 -2 -7 12.2 12
4 -2 7 15.3 14.8
4 2 7 -3.2 14.7
-4 2 -7 1.5 12.6
-4 2 -7 17.9 8.3
5 -3 -7 28.2 13.8
5 -3 -7 27.8 15.1
5 3 -7 14.9 11.4
-5 3 7 24.8 12.4
3 -3 -7 147.99 13.2
3 -3 -7 150.08 18
3 3 -7 120.69 15.6
-3 3 7 144.39 16.6
1 -3 -7 23.3 7.7
1 -3 -7 28.6 5.1
-1 3 7 37.9 7
-1 3 7 25.4 5.5
-1 -3 -7 81.59 8.7
-1 -3 -7 86.29 11.8
1 -3 7 60.49 10.6
-1 -3 -7 94.89 11.4
-1 3 -7 103.29 13.1
1 3 7 79.99 9.8
-3 -3 -7 6.9 9.1
-3 -3 -7 24 8.6
3 -3 7 32.7 12.6
-3 -3 -7 24.6 7.5
3 3 7 14.4 8.5
-3 3 -7 14.2 10.1
-3 3 -7 23.8 7.4
5 -3 7 12.2 16.4
-5 -3 -7 -3.6 9
-5 -3 -7 0.9 11.3
-5 3 -7 -0.9 19.4
5 3 7 16 17.7
-5 3 -7 7 17.4
6 -4 -7 43 25.4
6 -4 -7 66.69 21.4
6 4 -7 75.19 17.4
-6 4 7 130.79 20.4
4 -4 -7 13.7 7.7
4 -4 -7 9.9 11.6
4 4 -7 6 8.4
2 -4 -7 166.38 16.9
2 -4 -7 152.78 12.5
2 4 -7 175.58 16.3
0 -4 -7 543.75 27.7
0 -4 -7 551.14 22.5
0 4 7 538.65 25
0 4 -7 631.74 29.2
-2 -4 -7 84.69 11.6
-2 -4 -7 73.39 10.3
-2 -4 -7 74.19 9.7
2 -4 7 79.69 14.1
-2 4 -7 99.69 11.1
2 4 7 106.79 11
-2 4 -7 90.29 13.2
-4 -4 -7 5.8 7.5
4 -4 7 1.8 15.4
-4 -4 -7 -21.1 11.8
4 4 7 13 11.9
-4 4 -7 46 15.8
5 -5 -7 55.39 17.8
5 -5 -7 37.2 13.4
5 -5 -7 18.4 12.7
-5 5 7 21.4 12.7
5 5 -7 26.7 11
3 -5 -7 35.9 9.2
3 5 -7 29.7 8.9
-3 5 7 38.6 10.1
1 -5 -7 59.49 8.3
1 -5 -7 51.29 9.5
-1 5 7 44.9 7.6
-1 -5 -7 8.7 6.4
1 -5 7 9 7.3
-1 -5 -7 9.8 3.2
-1 -5 -7 -5.9 7.5
1 5 7 17.1 6.4
3 -5 7 -4.8 12.6
-3 -5 -7 -5.3 6.5
-3 5 -7 6.6 5.9
3 5 7 4.1 7.4
-3 5 -7 9.9 11.7
4 -6 -7 10.3 9.4
4 -6 -7 14.3 13.4
4 -6 -7 -0.3 12.8
4 6 -7 5.9 8.4
-4 6 7 16.7 12.1
2 -6 -7 67.39 11.8
2 -6 -7 95.69 11.9
-2 6 7 64.99 11.4
2 6 -7 65.19 5.5
0 -6 -7 104.89 13.2
0 -6 -7 95.79 4.9
0 -6 -7 86.09 11.8
0 6 -7 118.09 15.6
0 6 7 93.89 12.2
-2 -6 -7 2.7 8.9
2 -6 7 -4.4 10.7
-2 -6 -7 -0.3 6.7
-2 6 -7 10.8 8.1
-4 -6 -7 14.9 7.3
4 -6 7 19.5 18.7
-4 -6 -7 19.7 13.9
-4 6 -7 3.2 15
4 6 7 12.5 10.9
5 -7 -7 16.1 18.5
5 -7 -7 11.3 17.5
5 -7 -7 -2.4 13.5
5 7 -7 15 11.1
-5 7 7 6.9 14.9
3 -7 -7 148.19 18.5
3 -7 -7 147.89 17.2
-3 7 7 161.18 16.9
3 7 -7 176.28 17.6
1 -7 -7 4.6 6.9
1 -7 -7 -1.2 3.5
1 -7 -7 3.8 7.9
-1 7 7 9.5 7.2
1 7 -7 -16.7 7.5
-1 7 7 0.5 7.2
-1 -7 -7 291.17 21.8
-1 -7 -7 322.37 20.3
1 -7 7 326.97 14.7
1 7 7 290.27 20.8
-1 7 -7 280.97 24.3
-3 -7 -7 50.69 13
3 -7 7 58.79 14.7
-3 -7 -7 41.5 8.5
-3 7 -7 55.49 7.5
-3 7 -7 72.79 16.3
3 7 7 64.29 8.4
4 -8 -7 32 16.7
4 -8 -7 83.99 12.4
4 -8 -7 49.4 14.6
-4 8 7 54.99 15.5
4 8 -7 37.3 10.8
2 -8 -7 -0.8 5.9
2 -8 -7 9.2 10.9
2 -8 -7 8.5 8
2 8 -7 3.2 3.2
-2 8 7 9.6 8.5
0 -8 -7 8.2 8.2
0 -8 -7 6.5 6.5
0 8 -7 -11.9 8.4
0 8 7 12.6 7.9
2 -8 7 13 6.4
-2 -8 -7 36.1 12
-2 -8 -7 0 7.3
2 -8 7 4.5 10.3
2 8 7 18.3 10.4
-2 8 -7 7.7 8.8
-4 -8 -7 14.4 5.7
4 -8 7 4.7 20.9
-4 -8 -7 5.5 16.9
-4 8 -7 7.8 19.1
4 8 7 12.8 10.8
5 -9 -7 -10.3 12
5 -9 -7 -9.4 19.9
5 -9 -7 -23.5 21.4
5 9 -7 -0.2 11.8
-5 9 7 -17.9 19.2
3 -9 -7 70.39 12.4
3 -9 -7 53.89 11.8
3 9 -7 87.89 11.4
-3 9 7 97.99 15.9
3 9 -7 74.49 12.8
1 -9 -7 72.79 11.9
1 -9 -7 57.59 10.4
1 -9 -7 76.19 6
-1 9 7 59.89 12
-1 -9 -7 153.68 19
1 -9 7 141.29 11.4
-1 -9 -7 105.49 13.7
-1 9 -7 100.69 17.5
1 9 7 135.59 18.2
3 -9 7 6.6 11.3
-3 -9 -7 -2.6 13.5
3 -9 7 32 19.6
-3 -9 -7 2 7.7
3 9 7 14.9 14.6
-3 9 -7 44.8 16.9
4 -10 -7 33.3 14.9
4 -10 -7 56.99 20.4
4 -10 -7 38.9 16.5
4 10 -7 34.3 12.4
-4 10 7 55.79 18.5
2 -10 -7 4 6.4
2 -10 -7 -2.6 8.8
2 -10 -7 -7 9.6
2 10 -7 -12.6 9.2
2 10 -7 2.3 4.3
-2 10 7 -1.7 11.3
0 -10 -7 1254.67 54.49
0 -10 -7 1246.68 54.39
0 10 7 1248.18 54.29
0 10 7 1246.98 52.89
0 10 -7 1365.36 59.79
-2 -10 -7 -2.7 12.1
2 -10 7 13.6 8.2
-2 -10 -7 3.9 9
-2 10 -7 14.9 14.9
2 10 7 0.1 11.7
3 -11 -7 15.2 17.1
3 -11 -7 32.3 13.5
3 -11 -7 -0.4 10.7
-3 11 7 24.7 14.4
3 11 -7 15.9 7.7
1 -11 -7 18.5 14.3
1 -11 -7 -4.9 7.7
1 11 -7 10 10.3
-1 11 7 8.9 9.9
-1 -11 -7 317.47 23.9
1 -11 7 297.97 18.3
-1 -11 -7 260.77 26.5
-1 11 -7 331.57 31.6
1 11 7 306.87 23.8
1 11 7 272.57 26.2
3 -11 7 142.49 18.6
-3 -11 -7 89.29 21.2
3 -11 7 126.09 26.8
-3 -11 -7 95.89 11.9
3 11 7 80.89 20.6
-3 11 -7 152.38 25.1
4 -12 -7 53.89 18.1
4 -12 -7 11.6 19.4
4 -12 -7 -3.6 17.6
4 -12 -7 38.3 15.5
-4 12 7 22.3 19.5
2 -12 -7 32.7 17.3
2 -12 -7 3.8 6.8
2 -12 -7 8 13
2 -12 -7 42.4 13
2 12 -7 14.4 7
2 12 -7 23.7 16
-2 12 7 27.3 14.3
0 -12 -7 494.25 33.2
0 -12 -7 502.45 32.6
0 12 7 478.15 33.5
0 12 -7 466.25 34
-2 -12 -7 36.9 13
2 -12 7 15.6 15.6
-2 -12 -7 22.8 11.6
-2 12 -7 35.7 6
-2 12 -7 14.4 13.9
2 12 7 35.3 16
3 -13 -7 210.78 24.7
3 -13 -7 246.98 28.1
3 -13 -7 242.08 31
3 -13 -7 137.69 27.3
-3 13 7 175.28 26.1
3 13 -7 221.88 22
3 13 -7 226.08 31.4
1 -13 -7 85.09 16.8
1 -13 -7 94.59 19.6
-1 13 7 100.69 17.9
-1 13 7 87.79 15.7
1 13 -7 79.19 20.9
-1 -13 -7 10.7 11.8
-1 -13 -7 17.7 13.5
1 13 7 3.6 15.4
1 13 7 34.6 12.9
-1 13 -7 -8.2 18.2
-1 13 -7 32.8 9.5
2 -14 -7 19 15.9
2 -14 -7 10.8 14.5
2 -14 -7 5 7.7
2 -14 -7 1.3 15.9
2 14 -7 6.3 9.1
-2 14 7 27.7 19.6
2 14 -7 -24.7 19.5
0 -14 -7 18.5 16.2
0 -14 -7 -4 14.3
0 14 -7 -3 13.4
0 14 7 -4.9 14.4
0 14 7 -3.3 16.1
0 14 -7 19.3 19.4
1 -15 -7 10.9 20.2
1 -15 -7 44.7 18.4
1 15 -7 23 24.6
-1 15 7 0.8 18.5
1 15 -7 27.4 17.6
-1 15 7 35 18.9
6 0 -8 52.59 23.7
6 0 -8 12.7 17.1
4 0 -8 2.7 9.9
2 0 -8 834.52 38.6
2 0 -8 863.11 31.6
0 0 -8 943.61 40.4
0 0 -8 915.71 38.4
0 0 8 911.11 33.1
-4 0 -8 334.27 25.5
-4 0 -8 376.06 29.6
4 0 8 330.27 31.8
5 -1 -8 10.7 13.2
-5 1 8 28.5 12.1
5 1 -8 -6.9 12.6
3 -1 -8 1849.91 65.49
3 -1 -8 1881.11 72.39
3 1 -8 1810.52 63.99
3 1 -8 1831.22 71.59
1 -1 -8 61.69 9.2
1 1 -8 38.9 9.3
-1 -1 -8 434.96 25.3
-1 -1 -8 424.86 22.9
-1 1 -8 452.75 24.8
1 1 8 441.16 20.8
-3 -1 -8 93.49 13.6
3 1 8 103.79 14.7
-3 1 -8 99.89 14.6
4 -2 -8 112.89 14.5
4 -2 -8 142.39 17.5
2 -2 -8 194.48 19.4
2 -2 -8 219.58 13.6
2 2 -8 213.38 10
2 2 -8 215.88 19.1
0 -2 -8 18.4 6.5
0 -2 -8 22.5 5.7
0 -2 8 21.9 3
0 2 -8 35.7 8.7
0 2 8 17.3 5
2 -2 8 24 10.9
-2 -2 -8 53.59 9.9
-2 -2 -8 39.1 8.6
-2 -2 -8 26.2 8.8
2 2 8 39.6 8.9
-2 2 -8 40.8 8.8
-2 2 -8 30.5 9.3
-4 -2 -8 18.7 12.4
-4 -2 -8 26.2 10.4
-4 -2 -8 35.6 13
4 -2 8 31.6 17.2
4 2 8 11.4 13.9
-4 2 -8 28.4 14.1
5 -3 -8 19.2 12.9
5 -3 -8 8.4 14
5 -3 -8 8.7 15.2
5 3 -8 5.9 11.7
-5 3 8 13.5 13.5
3 -3 -8 1.7 9.9
-3 3 8 -7.8 8
3 3 -8 -2 8.3
1 -3 -8 126.69 13.9
-1 3 8 129.09 10.5
1 3 -8 124.69 16.1
-1 -3 -8 354.36 18.2
-1 -3 -8 363.96 22.3
-1 -3 -8 379.86 22.5
-1 3 -8 267.17 22.7
1 3 8 354.16 19.2
-3 -3 -8 12.9 8.9
3 -3 8 23.3 13
-3 -3 -8 33.1 12.9
-3 3 -8 35.2 13.6
-3 3 -8 68.29 9.9
3 3 8 40.6 11
4 -4 -8 10.5 11
4 -4 -8 -5.1 8.5
4 -4 -8 13.3 11.9
-4 4 8 6.8 10.9
4 4 -8 -5.2 10.1
2 -4 -8 481.15 29.6
2 -4 -8 509.35 23.9
-2 4 8 487.35 27.1
2 4 -8 478.75 27
0 -4 -8 341.27 22.7
0 -4 -8 340.17 17.2
0 4 8 327.37 18.9
0 4 -8 418.56 22.4
-2 -4 -8 103.39 14.1
-2 -4 -8 104.79 12
2 -4 8 91.99 16.9
-2 -4 -8 103.79 14.3
-2 4 -8 99.29 15.3
-2 4 -8 111.59 13.4
4 -4 8 -25.4 17.3
-4 -4 -8 -14.1 12.6
-4 -4 -8 6.5 9.3
4 4 8 -5.6 13.1
-4 4 -8 3.7 8.5
-4 4 -8 0.6 13.7
5 -5 -8 2.8 12.7
5 -5 -8 -1.6 16.6
5 -5 -8 4.7 16.4
-5 5 8 -2.5 13.6
5 5 -8 4 13.4
3 -5 -8 195.68 18.5
3 -5 -8 182.48 19.3
3 -5 -8 189.08 16.5
3 5 -8 192.88 19.6
-3 5 8 154.68 21.7
1 -5 -8 67.19 11.4
-1 5 8 84.39 11.6
-1 5 8 80.99 11.7
1 5 -8 71.59 12.3
-1 -5 -8 -0.8 3.5
-1 -5 -8 -7.4 7.3
-1 -5 -8 11.4 8.3
1 5 8 -5.8 6.5
-1 5 -8 -13.9 9
-3 -5 -8 158.08 17.6
-3 -5 -8 161.48 21.5
3 -5 8 108.29 17.9
3 5 8 167.78 17.8
-3 5 -8 170.28 24.4
-3 5 -8 140.99 14.5
4 -6 -8 148.99 20
4 -6 -8 127.79 18.5
4 -6 -8 159.78 19.6
4 6 -8 146.79 19.9
-4 6 8 128.39 16.7
2 -6 -8 2.8 6.5
2 -6 -8 -8.6 8.3
-2 6 8 6.1 6.6
0 -6 -8 17.7 8.5
0 -6 -8 10.6 2.9
0 -6 -8 21 7.2
0 6 -8 27.4 8.8
0 6 8 12.7 6.9
-2 -6 -8 -7.2 10.3
2 -6 8 4.6 12.3
-2 -6 -8 -0.3 7.7
2 6 8 5.3 9.1
-2 6 -8 -0.8 8.8
4 -6 8 77.59 24.3
-4 -6 -8 72.99 18
-4 -6 -8 42.2 10.3
4 6 8 45.5 13.6
-4 6 -8 33 19.1
5 -7 -8 18.6 14
5 -7 -8 26.9 19.2
5 -7 -8 38.8 19.9
-5 7 8 1.6 15.6
5 7 -8 19.6 15.6
3 -7 -8 189.48 18.9
3 -7 -8 191.88 19.1
3 7 -8 210.68 24.5
-3 7 8 164.28 22.3
1 -7 -8 147.49 17.8
1 -7 -8 169.28 10.7
1 7 -8 151.18 20.3
-1 7 8 148.89 15.8
-1 7 8 166.28 19.1
-1 -7 -8 21.8 8.5
-1 -7 -8 18.4 9.1
1 -7 8 11.7 3.7
-1 7 -8 10 10.5
1 7 8 12.9 8.7
-3 -7 -8 105.59 16.7
3 -7 8 88.59 20.4
-3 -7 -8 78.19 11.6
-3 7 -8 115.39 12.1
-3 7 -8 66.59 18.6
4 -8 -8 64.69 16
4 -8 -8 62.79 15.7
4 -8 -8 68.89 12.6
4 8 -8 42.1 20.5
-4 8 8 72.79 16.6
2 -8 -8 51.89 11.8
2 -8 -8 63.89 9.2
2 8 -8 52.29 14.7
-2 8 8 63.89 11.9
0 -8 -8 102.29 15.2
0 -8 -8 110.19 14.8
0 8 8 94.99 15.4
0 8 -8 116.49 17.8
0 8 8 99.49 12.9
-2 -8 -8 13.1 12.5
2 -8 8 22.6 15.3
2 -8 8 30.3 8.2
-2 -8 -8 17.5 9.2
-2 8 -8 19.2 11.2
3 -9 -8 9.8 10
3 -9 -8 7.1 11.1
-3 9 8 6.5 12.6
3 9 -8 21.3 6.1
3 9 -8 12.5 11.2
1 -9 -8 36 12.1
1 -9 -8 49.9 12.4
1 9 -8 63.49 14.6
-1 9 8 49.7 10.1
-1 -9 -8 78.59 13.4
1 -9 8 97.29 9.6
-1 -9 -8 87.49 15
-1 9 -8 77.39 16.7
3 -9 8 -14.8 21.1
-3 -9 -8 1.4 15.2
-3 -9 -8 -9.1 10
3 -9 8 -1.7 11.3
3 9 8 14.7 12.8
-3 9 -8 8.7 13.7
4 -10 -8 -13 14.7
4 -10 -8 -10.7 14.9
4 -10 -8 1.2 16
4 10 -8 6.7 13.8
-4 10 8 -39.5 16.1
2 -10 -8 12.2 7
2 -10 -8 9.6 11.6
2 -10 -8 40.1 15.8
2 -10 -8 10.2 11.2
-2 10 8 12.7 12.9
2 10 -8 11.6 10.9
0 -10 -8 408.16 29.7
0 -10 -8 407.06 30.2
0 10 -8 465.25 34.9
0 10 8 474.85 30.9
2 -10 8 13.5 14.8
-2 -10 -8 20.7 13.8
2 -10 8 8.1 8.4
-2 -10 -8 25.5 11.9
2 10 8 17.5 14.7
-2 10 -8 6.5 16
3 -11 -8 7.6 11.1
3 -11 -8 20.8 18.6
3 -11 -8 19.6 13.4
3 -11 -8 2.4 12.8
3 11 -8 7.2 18.8
-3 11 8 7.2 15.9
3 11 -8 15.4 7.4
1 -11 -8 -12.9 11.4
-1 11 8 -14.2 11
1 11 -8 15.2 15.1
-1 11 8 6.2 12.4
-1 -11 -8 34.3 24.8
-1 -11 -8 35.5 15.2
-1 11 -8 11.1 17
1 11 8 16.8 14
2 -12 -8 -3.2 6.1
2 -12 -8 -17.3 13.1
2 -12 -8 6.8 17.9
2 -12 -8 4.9 14
2 12 -8 11.4 17.3
-2 12 8 -1.3 15.1
0 -12 -8 40.1 14.5
0 12 -8 -2.3 17.4
0 12 8 26.4 13.6
0 12 8 45.8 15.5
-2 -12 -8 36.6 14.8
-2 -12 -8 37.3 13.9
2 12 8 39.7 19
-2 12 -8 22 6.9
-2 12 -8 15.8 20.1
1 -13 -8 146.79 23.4
1 -13 -8 233.68 27.1
-1 13 8 223.78 29.1
1 13 -8 159.28 25.5
-1 13 8 161.98 21.2
-1 -13 -8 16.9 18.4
-1 -13 -8 27.9 17.5
1 13 8 50.49 18.2
1 13 8 -4.8 13.7
-1 13 -8 -3.8 20.4
0 -14 -8 35 18.2
0 -14 -8 8 16.9
0 14 -8 1.7 16.2
0 14 8 -2.4 16.1
0 14 8 13.8 19.3
4 0 -9 3.1 10.9
2 0 -9 0.8 3.9
0 0 -9 -5.9 7.1
0 0 9 0.8 3.6
0 0 -9 0.5 7.7
-2 0 -9 11.2 9.1
2 0 9 -2.4 9.3
4 0 9 5.4 17
-4 0 -9 -10.9 15.2
5 -1 -9 -2.8 13.9
5 -1 -9 19.2 12.3
5 1 -9 13.8 15.2
3 -1 -9 330.77 18.2
3 -1 -9 289.47 22.8
3 1 -9 280.87 25.6
3 1 -9 281.07 16.3
1 -1 -9 107.79 14.4
1 -1 -9 125.09 13.7
1 1 -9 118.49 14.6
-1 -1 -9 18.8 7.8
-1 -1 -9 34.6 9.3
1 -1 9 31.4 5.7
-1 -1 -9 37.4 10.8
1 1 9 24.6 6.3
-3 -1 -9 6.1 10.8
3 -1 9 17.4 13.8
-3 -1 -9 23 10.3
-3 1 -9 26.6 10.1
3 1 9 4.6 11.9
4 -2 -9 258.37 18.9
4 -2 -9 219.98 22.2
-4 2 9 240.08 25.3
4 2 -9 194.68 23.6
2 -2 -9 49.5 7.3
2 -2 -9 52.49 11.3
0 -2 -9 5.6 9
0 -2 -9 -2.2 6.3
0 2 9 0.7 4.6
-2 -2 -9 65.09 12.6
-2 -2 -9 55.79 11.7
2 -2 9 74.89 16.8
-2 -2 -9 73.09 10.8
-2 2 -9 69.59 12.8
-4 -2 -9 178.28 21.5
-4 -2 -9 124.29 18.9
4 -2 9 165.68 24.6
4 2 9 108.89 20.5
-4 2 -9 117.29 14.9
-4 2 -9 137.09 21.8
5 -3 -9 -6.5 13.1
5 -3 -9 7.2 18.3
5 -3 -9 -24.6 16.8
5 3 -9 25.4 14.5
-5 3 9 28.8 14.4
3 -3 -9 6.7 11.3
3 3 -9 8.4 4.6
-3 3 9 5.9 7.3
3 3 -9 -7.9 9.8
1 -3 -9 20.6 11.9
1 3 -9 28.9 10
-1 3 9 26.8 6.1
-1 -3 -9 -2.2 7.7
-1 -3 -9 7.3 6.1
-1 -3 -9 -3.8 8.5
1 3 9 -1.2 6.1
-1 3 -9 -4.4 8.9
-3 -3 -9 81.49 14.1
-3 -3 -9 107.19 16.2
3 -3 9 92.09 19.2
3 3 9 115.79 15.3
-3 3 -9 128.89 19.3
4 -4 -9 147.29 18.4
4 -4 -9 189.18 22.5
4 4 -9 143.29 18.1
-4 4 9 137.29 18.7
2 -4 -9 -2.9 6.1
2 4 -9 -10.6 8.5
0 -4 -9 81.69 13
0 -4 -9 103.49 11.5
0 4 -9 103.29 15
0 4 9 105.89 12.9
-2 -4 -9 59.59 12.3
2 -4 9 56.09 14.4
-2 -4 -9 67.59 9.4
-2 -4 -9 73.39 13.7
-2 4 -9 54.69 14.6
2 4 9 52.49 11.2
-4 -4 -9 36.5 16.5
4 -4 9 37.6 22.9
-4 -4 -9 21.8 12.7
4 4 9 31.3 19.3
-4 4 -9 37.1 18.8
5 -5 -9 14.7 14.5
5 -5 -9 -18.9 17.4
5 -5 -9 -10.8 17.6
5 5 -9 8.3 15.8
-5 5 9 -8.3 16.6
3 -5 -9 18.1 8.6
3 5 -9 4.9 3.8
3 5 -9 4.7 10.5
-3 5 9 -10 10.4
1 -5 -9 -3.8 9.5
1 5 -9 -1.4 9.1
-1 5 9 -3 6.2
1 -5 9 62.49 5.5
-1 -5 -9 48.4 6.6
-1 -5 -9 52.99 11.6
-1 -5 -9 80.09 12.4
1 5 9 46.9 9.4
-1 5 -9 42.1 13
3 -5 9 19.1 16.7
-3 -5 -9 13 13
-3 -5 -9 31.1 11.5
-3 5 -9 -2.5 11.4
-3 5 -9 12.3 9.4
4 -6 -9 -2.2 12.4
4 -6 -9 21.8 13.9
4 -6 -9 -14.5 10.5
4 6 -9 10.5 12.2
-4 6 9 18.8 14.4
2 -6 -9 -6.8 7
-2 6 9 4.5 10.2
2 6 -9 -7.6 8.9
0 -6 -9 0.8 9
0 -6 -9 -0.2 3.5
0 6 9 3.8 7.7
-2 -6 -9 73.39 13.6
-2 -6 -9 90.19 13.8
2 -6 9 91.69 19.2
-2 6 -9 76.89 14.5
2 6 9 63.19 12.7
5 -7 -9 104.39 26.9
5 -7 -9 103.59 18.7
5 -7 -9 101.29 24.8
5 7 -9 76.79 18.9
-5 7 9 124.29 23.6
3 -7 -9 79.49 21.2
3 -7 -9 130.09 17.4
3 7 -9 86.59 15.1
3 7 -9 97.39 7.8
-3 7 9 134.89 19
1 -7 -9 227.48 13.3
1 -7 -9 215.08 12.9
1 -7 -9 211.28 21.6
1 -7 -9 212.88 24.1
-1 7 9 208.48 24
1 7 -9 224.38 23.9
-1 7 9 211.58 19.3
-1 -7 -9 6.5 10.1
-1 -7 -9 0.4 11.1
-1 7 -9 17.5 12.6
1 7 9 7.8 8.8
-3 -7 -9 -20.8 14.9
-3 -7 -9 4 11.1
3 -7 9 -7.7 15.4
-3 7 -9 -21.5 16.4
3 7 9 16.5 14.4
-3 7 -9 -5.7 8.1
4 -8 -9 18 16.5
4 -8 -9 44.7 19.7
4 -8 -9 27.5 13.3
-4 8 9 22 17
4 8 -9 15.4 14.2
2 -8 -9 144.79 20
2 -8 -9 201.18 16.6
-2 8 9 239.28 25.9
2 8 -9 229.38 27
0 -8 -9 12.1 11.3
0 -8 -9 22.7 9.9
0 8 9 14.3 10
0 8 -9 19.1 11.1
-2 -8 -9 -1.1 10.6
-2 -8 -9 -1.6 10.2
2 -8 9 2.9 7.6
-2 8 -9 8.3 11.8
2 8 9 3.9 12.4
3 -9 -9 28.5 13.1
3 -9 -9 37.9 17.4
3 -9 -9 15.7 11.4
-3 9 9 1 14.4
3 9 -9 31.4 13.3
3 9 -9 26.3 4.8
1 -9 -9 104.69 16.7
1 9 -9 100.19 18.3
-1 9 9 84.69 13.6
-1 -9 -9 9 12.3
-1 -9 -9 12.1 13.3
-1 9 -9 17.7 14.8
3 -9 9 -24.5 23.8
-3 -9 -9 -16.3 12
-3 -9 -9 8.6 17.3
3 9 9 8.8 18.7
-3 9 -9 -24.1 15.1
-3 9 -9 4 6.1
4 -10 -9 6.4 24.6
4 -10 -9 22 17.5
4 -10 -9 2.2 16.3
-4 10 9 31.5 18.3
4 10 -9 4.1 14.8
4 10 -9 -12.6 8.6
2 -10 -9 174.38 23.3
2 -10 -9 177.48 24
2 -10 -9 176.88 14.7
2 -10 -9 177.18 22.4
-2 10 9 197.78 22.9
2 10 -9 161.58 23.6
0 -10 -9 41.4 14.2
0 10 9 17.8 13.2
0 10 -9 56.49 17.4
0 10 9 47.8 13.6
-2 -10 -9 40.1 17.6
-2 -10 -9 5.1 13.4
2 -10 9 24.6 8.7
-2 10 -9 17.1 19.1
2 10 9 27.1 16.8
3 -11 -9 235.38 32
3 -11 -9 244.08 28.7
3 -11 -9 229.78 23.9
3 -11 -9 242.98 25.9
-3 11 9 289.17 34.6
3 11 -9 284.47 39.5
3 11 -9 210.28 28.1
3 11 -9 236.08 14
1 -11 -9 18.4 15.4
1 -11 -9 29.1 15
1 11 -9 40 17.9
-1 11 9 30.4 12.2
-1 11 9 36.6 15.7
-1 -11 -9 329.37 32.1
-1 -11 -9 296.87 29.5
1 11 9 383.96 32.3
-1 11 -9 283.97 37.6
2 -12 -9 137.69 21.1
2 -12 -9 182.68 23.4
2 -12 -9 96.49 22.5
2 -12 -9 136.49 10.6
-2 12 9 148.19 22.2
2 12 -9 117.79 24
0 -12 -9 15.7 16.7
0 -12 -9 6.2 16
0 12 9 26.8 17
0 12 -9 -23.7 19.1
0 12 9 -6.7 14.6
1 -13 -9 2 16.9
1 -13 -9 23.4 21
-1 13 9 -12.3 18.3
-1 13 9 -17.2 18.2
1 13 -9 -9.2 20.6
4 0 -10 204.98 17
4 0 -10 236.88 29
2 0 -10 933.11 46.8
0 0 10 1.7 4.2
0 0 -10 5 9.4
-2 0 -10 400.66 28.1
-2 0 -10 434.76 28.7
-2 0 -10 524.75 50.89
5 -1 -10 224.18 24
5 -1 -10 239.18 33.6
5 1 -10 228.18 32.7
5 1 -10 241.28 25.1
3 -1 -10 -6.9 11.9
3 -1 -10 3.9 6.4
3 1 -10 12.3 12.4
3 1 -10 0.6 5.2
1 -1 -10 97.39 11.7
1 1 -10 83.09 13.1
-1 -1 -10 30.6 11.4
1 -1 10 16.7 5.6
-1 -1 -10 20 11.3
-1 1 -10 13.6 11
1 1 10 22 6.9
-1 1 -10 16.3 9.4
-3 -1 -10 18 13.7
-3 -1 -10 8.1 12.6
3 -1 10 -14.2 16.1
-3 1 -10 17.2 14.6
3 1 10 -6.9 13.6
-3 1 -10 -0.4 14
4 -2 -10 84.89 12.5
4 -2 -10 69.79 17.3
4 2 -10 72.09 10.2
4 2 -10 51.99 16.3
2 -2 -10 -0.3 5.7
2 2 -10 3.6 11
0 -2 -10 5.5 8.2
0 -2 -10 1.6 7.4
0 2 10 12.7 6.1
0 2 -10 7.9 10.6
0 2 -10 14.8 9.6
-2 -2 -10 277.07 24.8
-2 -2 -10 281.37 24.5
2 2 10 258.77 20.3
-2 2 -10 275.77 24.5
5 -3 -10 337.67 39
5 -3 -10 303.47 30.3
5 -3 -10 371.16 39.4
-5 3 10 315.07 35.6
5 3 -10 261.37 33.7
3 -3 -10 68.09 13.4
3 3 -10 50.19 5.8
3 3 -10 44.2 13.7
1 -3 -10 142.19 15.5
1 -3 -10 92.59 15.7
1 3 -10 125.09 16.8
-1 -3 -10 98.99 14.2
-1 -3 -10 85.99 14.7
1 -3 10 95.09 8.2
-1 -3 -10 106.99 15.9
1 3 10 86.59 11.2
-1 3 -10 82.29 15.3
-3 -3 -10 46.6 15.4
3 -3 10 41.4 18.5
-3 -3 -10 29.6 13.7
-3 3 -10 68.49 17.7
-3 3 -10 42.7 12.8
4 -4 -10 30.4 12.4
4 -4 -10 23.7 16.4
-4 4 10 32 15.3
4 4 -10 31.3 14.8
4 4 -10 27.7 8.3
2 4 -10 0.6 11.1
0 -4 -10 3.2 10.9
0 -4 -10 9.5 6.7
0 -4 -10 17.9 8.4
0 4 -10 3.8 11.5
0 4 10 26.7 8.1
-2 -4 -10 4.9 12.8
-2 -4 -10 -12.4 7.4
-2 -4 -10 7.2 11.4
2 4 10 -4.3 11.1
-2 4 -10 10.8 9.9
-2 4 -10 4.7 13.3
3 -5 -10 19.3 10.8
3 -5 -10 1.2 14.6
3 5 -10 8.5 12.8
-3 5 10 -0.4 12.7
1 -5 -10 243.98 17.3
1 5 -10 228.58 24.7
-1 5 10 254.57 18.3
-1 -5 -10 -1.7 5.2
-1 -5 -10 -14.2 10.8
-1 -5 -10 -0.2 10.8
-1 5 -10 13.2 13.1
1 5 10 12.8 9.6
-3 -5 -10 19.9 13.6
3 -5 10 48.1 22.6
-3 -5 -10 31 16.9
-3 5 -10 22.8 16.8
3 5 10 10.3 14.2
4 -6 -10 13.4 15.9
4 -6 -10 45.2 13.5
-4 6 10 27.2 17.5
4 6 -10 23.7 15.5
2 -6 -10 47.8 11
2 -6 -10 17.1 13.8
2 6 -10 30.8 11.6
-2 6 10 52.79 11.9
2 6 -10 33.5 11.2
0 -6 -10 13.4 4.8
0 -6 -10 1.4 8.3
0 -6 -10 -5 12.5
0 6 10 5.7 9.2
0 6 -10 8.9 13.2
-2 -6 -10 32.7 15.7
-2 -6 -10 35.4 13.7
-2 6 -10 0.6 13
-2 6 -10 36.1 17.3
3 -7 -10 69.29 19.7
3 -7 -10 84.29 14.9
3 -7 -10 59.79 13.8
3 7 -10 62.69 16
-3 7 10 77.29 18.2
1 -7 -10 3.1 5.6
1 -7 -10 -1.7 11.1
1 -7 -10 16.3 5.9
1 -7 -10 0.7 13.4
1 7 -10 8.9 12.5
-1 7 10 6 19.3
-1 -7 -10 89.59 15.4
-1 -7 -10 84.69 17.9
1 7 10 105.69 15.2
-1 7 -10 106.09 19.6
4 -8 -10 33.3 21.9
4 -8 -10 3.1 15.1
4 8 -10 36.1 16.5
-4 8 10 24.3 19.6
2 -8 -10 7.4 8.3
2 -8 -10 15.4 11.8
2 -8 -10 11.8 12.2
2 8 -10 -18.6 9.9
-2 8 10 5.5 11
0 -8 -10 77.79 14.4
0 8 -10 145.79 21.8
0 8 10 91.09 15
-2 -8 -10 5.5 17.4
2 -8 10 43.3 7.8
-2 -8 -10 50.09 15.7
-2 8 -10 39.3 18.4
2 8 10 33.5 15.3
3 -9 -10 -35.6 14.8
3 -9 -10 2.1 12.1
3 -9 -10 -23.6 12.8
3 9 -10 20.4 15.4
-3 9 10 -6.2 17.1
3 9 -10 6.7 18.4
1 -9 -10 -4.3 13.2
1 -9 -10 9.4 15
1 9 -10 28.1 15.9
-1 9 10 23 13.6
-1 -9 -10 456.75 32.2
-1 9 -10 485.75 40.7
1 9 10 456.85 32.7
2 -10 -10 -25.6 13.9
2 -10 -10 -20.4 19
2 -10 -10 1.1 12.6
2 -10 -10 -2.9 6.9
2 10 -10 -15.1 13.3
-2 10 10 -6.4 16.2
0 -10 -10 11.2 15.1
0 -10 -10 3.3 15.7
0 10 -10 -1.7 17.5
0 10 10 -4.5 13.4
1 -11 -10 13.2 19.1
1 -11 -10 37.8 17.8
1 11 -10 13.2 14.3
-1 11 10 15.3 15.4
-1 11 10 16.8 16.5
-1 -11 -10 3 16.5
-1 -11 -10 -6.3 19.3
-1 11 -10 19.9 17.5
1 11 10 -28 16.7
0 -12 -10 19.1 20
0 -12 -10 40.5 19.8
0 12 10 51.29 19.9
0 12 -10 58.79 22.2
0 12 10 3.1 17.2
4 0 -11 -0.6 15.6
2 0 -11 9.9 22.4
0 0 -11 3.1 10.4
0 0 11 -0.2 4.7
-2 0 -11 3.1 12.3
-2 0 -11 2.8 13.7
-2 0 -11 21.2 13.9
2 0 11 -1.8 9.1
3 -1 -11 5.1 15.1
3 -1 -11 1.2 7.3
3 1 -11 4.9 5.7
3 1 -11 -7.6 14.4
1 -1 -11 131.59 17.8
1 1 -11 75.09 14.2
-1 -1 -11 61.69 14.1
1 -1 11 50.19 7.4
-1 1 -11 55.89 13.3
1 1 11 64.89 9.5
-1 1 -11 26.8 14.3
-3 -1 -11 8.7 16.1
-3 -1 -11 -15.4 15.2
-3 -1 -11 10.2 14.7
-3 1 -11 14.1 16.5
-3 1 -11 6.8 16.8
-3 1 -11 15.8 16.1
4 -2 -11 -16.4 18.1
4 -2 -11 24.9 10.7
4 2 -11 5.1 16.8
4 2 -11 -5.5 7.6
2 2 -11 487.15 35.1
0 2 -11 14.3 13.3
0 2 11 5.5 6.7
0 2 -11 29.4 12.3
-2 -2 -11 54.39 11.4
-2 -2 -11 21.1 14.8
-2 2 -11 28.4 14.7
2 2 11 12.4 11.4
-2 2 -11 1.1 12.7
3 -3 -11 159.98 23.2
3 3 -11 160.68 21.1
1 -3 -11 10.9 10.1
1 3 -11 19.1 12
-1 -3 -11 101.59 12.6
-1 -3 -11 125.99 17.7
1 -3 11 90.99 7.6
-1 3 -11 70.39 15.7
1 3 11 92.29 12.5
4 -4 -11 -28.1 19
4 -4 -11 -17.2 13.9
4 4 -11 5.2 16
4 4 -11 1.6 6.7
2 4 -11 81.59 15.8
2 4 -11 58.69 15.5
0 -4 -11 9 8.3
0 -4 -11 14.3 12.3
0 4 11 14.8 8.8
0 4 -11 18 13.7
-2 -4 -11 11.3 9.3
-2 -4 -11 25 16.5
-2 4 -11 13 16.5
2 4 11 32.5 13.6
-2 4 -11 31 14.6
3 -5 -11 16 11.2
3 -5 -11 29.1 17.1
3 5 -11 -24.9 13.8
1 -5 -11 114.19 15.8
1 -5 -11 91.39 17.9
1 5 -11 110.29 18.4
1 5 -11 84.89 15.1
-1 -5 -11 7.9 6.9
-1 -5 -11 -16.2 9.8
-1 5 -11 4.6 14.6
4 -6 -11 96.89 18.6
4 -6 -11 97.89 26.4
-4 6 11 84.69 23.2
4 6 -11 95.29 21
4 6 -11 126.69 10
2 -6 -11 13.3 12.2
2 6 -11 -23.4 13.8
2 6 -11 2.1 13.3
0 -6 -11 148.39 12.2
0 -6 -11 147.99 19.9
0 -6 -11 154.38 19.8
0 6 -11 209.38 28.8
-2 -6 -11 -40.8 16.1
2 -6 11 14.7 6.1
2 6 11 -0.2 13.7
-2 6 -11 13.8 19.2
-2 6 -11 -2 13
3 -7 -11 -14.9 13.3
3 -7 -11 -3.4 15.8
3 -7 -11 16.5 13.8
-3 7 11 45.3 18.6
3 7 -11 -5.6 13.8
1 -7 -11 22.9 14.4
1 -7 -11 19.6 7
1 -7 -11 11.4 15.9
1 7 -11 11.7 11.9
-1 7 11 18.3 11.7
-1 -7 -11 33.5 17
-1 -7 -11 8.7 14.7
-1 7 -11 16.2 17.6
2 -8 -11 65.59 21.7
2 -8 -11 51.19 13.9
2 -8 -11 86.59 11.6
-2 8 11 60.99 17.9
2 8 -11 92.19 21.7
2 8 -11 92.59 18.5
0 -8 -11 80.89 18.8
0 -8 -11 82.59 16
0 8 -11 74.69 20.6
3 -9 -11 37.9 26
3 -9 -11 -7 13.4
3 -9 -11 -30 16.1
3 9 -11 6.7 22.7
3 9 -11 2.9 18
-3 9 11 1.9 18.9
1 -9 -11 270.07 35.6
1 -9 -11 218.98 30.5
-1 9 11 223.98 27.4
1 9 -11 347.47 38
-1 -9 -11 39.8 20
-1 -9 -11 35.7 18.3
1 9 11 34 16.1
-1 9 -11 43.3 22
2 -10 -11 23.7 18.7
2 -10 -11 22.1 7.2
2 -10 -11 25.6 7.4
2 -10 -11 14 17.9
2 10 -11 21.2 15.9
-2 10 11 27.7 20.1
0 -10 -11 20.6 18.9
0 -10 -11 -21.7 18.5
0 10 11 -8.6 16.3
0 10 -11 11.4 21.4
4 0 -12 535.75 25.7
2 0 -12 8.8 13.2
2 0 -12 -13.7 11.2
0 0 -12 386.86 32.7
0 0 -12 423.36 31.3
-2 0 -12 8.2 17.6
-2 0 -12 9.5 15.9
2 0 12 21.9 10.8
-2 0 -12 39.2 17.7
3 -1 -12 -4.5 17.9
3 1 -12 -17.3 16.2
1 -1 -12 65.99 17.2
1 1 -12 77.09 18.3
1 1 -12 89.39 17.9
-1 -1 -12 42.4 14
1 -1 12 48.9 7.8
-1 -1 -12 49.3 15.3
-1 -1 -12 25 15.4
-1 1 -12 59.49 18.5
-1 1 -12 60.09 15.1
1 1 12 50.79 10
4 -2 -12 204.78 29
4 -2 -12 257.47 25
4 2 -12 224.18 17.4
4 2 -12 213.78 29.2
2 -2 -12 127.19 17.9
2 -2 -12 122.19 18.8
2 2 -12 122.29 19.6
2 2 -12 117.99 18
0 -2 -12 64.09 17.7
0 2 -12 63.59 18.1
0 2 -12 86.59 18.6
0 2 12 116.39 14.8
-2 -2 -12 12.2 17.4
-2 -2 -12 31.3 13.7
-2 -2 -12 19.9 17.8
2 -2 12 -9.1 8.7
-2 2 -12 12.3 17.6
-2 2 -12 38.5 17.7
-2 2 -12 -5.4 17.1
3 -3 -12 57.99 22.2
3 3 -12 90.59 20
1 -3 -12 -4.2 15.4
1 3 -12 4.9 15
1 3 -12 6.2 15
-1 -3 -12 10.1 12.3
-1 -3 -12 -1.7 14.6
-1 3 -12 -9.9 15
-1 3 -12 -23.1 16.7
1 3 12 5.9 10.7
2 -4 -12 22.8 17.7
2 4 -12 -19.3 14.3
2 4 -12 9.4 16.7
0 -4 -12 40.1 12.5
0 -4 -12 56.19 11.2
0 -4 -12 29.2 16.6
0 4 12 49.9 12
0 4 -12 65.79 19.2
0 4 -12 24.3 13.6
3 -5 -12 64.79 14.9
3 -5 -12 67.89 23.7
3 5 -12 13.7 17.6
1 -5 -12 10.9 10.1
1 -5 -12 5 15.9
1 5 -12 3.6 15.8
1 5 -12 22 17.2
-1 -5 -12 26.8 17.4
-1 -5 -12 21.9 8.8
-1 -5 -12 43.1 18.4
-1 5 -12 41.2 16.4
1 5 12 14.9 13.7
2 -6 -12 1.5 19.5
2 6 -12 11.7 16.6
2 6 -12 -20.6 15.9
0 -6 -12 12.4 17.2
0 -6 -12 -0.1 6.7
0 -6 -12 -0.2 16.9
0 6 -12 -19.2 17.5
0 6 12 6.2 13.5
1 -7 -12 -4.9 16.6
1 -7 -12 27.9 19.4
1 -7 -12 18.6 7.9
1 7 -12 28.4 18.7
1 7 -12 7.5 18.1
2 -8 -12 37.2 10.5
2 -8 -12 18.4 11
2 -8 -12 61.49 23.8
2 -8 -12 41.7 19.4
2 8 -12 52.99 21.4
2 8 -12 11.4 20.5
0 -8 -12 11.9 19.8
0 -8 -12 1.1 18.1
0 8 12 10.2 16.2
0 8 -12 -4.2 21.3
2 0 -13 -1.2 16.3
2 0 -13 -27.2 19.2
0 0 -13 27.7 16.3
0 0 -13 -7.2 14.2
3 -1 -13 -6.1 21.3
3 1 -13 1.3 21.3
1 -1 -13 170.18 23.9
1 -1 -13 140.79 24.1
1 1 -13 221.28 25.8
1 1 -13 147.29 24.2
-1 -1 -13 -12 17.2
1 -1 13 3.1 6.8
-1 -1 -13 -22 17.9
-1 -1 -13 -41.4 18.6
-1 1 -13 2.6 16.6
-1 1 -13 2.7 17.6
-1 1 -13 -6.1 17.9
1 1 13 -0.4 9.8
2 -2 -13 27 16.6
2 -2 -13 11.2 20.6
2 2 -13 -36.5 17.8
2 2 -13 2.8 17
0 -2 -13 26 19.2
0 -2 -13 34.6 15.6
0 2 -13 -13.7 17.3
0 2 -13 -16.1 13.7
1 -3 -13 66.09 16.2
1 -3 -13 36.6 20.6
1 3 -13 48.6 21.1
1 3 -13 23.3 18.7
2 -4 -13 -12 14
2 -4 -13 -16.7 22.2
2 4 -13 45.2 20.3
2 4 -13 12 20.4
0 -4 -13 2.2 19.5
0 -4 -13 -20.8 17.5
0 4 -13 -9.4 19.4
0 4 -13 6.6 21.2
0 4 13 -12.7 11.5
1 -5 -13 -8.2 19.9
1 -5 -13 37.2 12
1 5 -13 21.3 21.2
1 5 -13 -38.6 19.7
