#------------------------------------------------------------------------------
#$Date: 2022-04-28 12:43:57 +0300 (Thu, 28 Apr 2022) $
#$Revision: 274753 $
#$URL: file:///home/coder/svn-repositories/cod/cif/8/10/50/8105089.cif $
#------------------------------------------------------------------------------
#
# This file is available in the Crystallography Open Database (COD),
# http://www.crystallography.net/
#
# All data on this site have been placed in the public domain by the
# contributors.
#
data_8105089
loop_
_publ_author_name
'Fang, Bo'
'Jiang, Fang Fang'
'Meng, Jiang Ping'
_publ_section_title
;
 Crystal structure of methyl
 2-(4-(3-iodopyrazolo[1,5-a]pyrimidin-6-yl)phenyl)acetate, C15H12IN3O2
;
_journal_issue                   2
_journal_name_full
'Zeitschrift f\"ur Kristallographie - New Crystal Structures'
_journal_page_first              301
_journal_page_last               302
_journal_paper_doi               10.1515/ncrs-2019-0624
_journal_volume                  235
_journal_year                    2020
_chemical_formula_moiety         'C15 H12 I N3 O2'
_chemical_formula_sum            'C15 H12 I N3 O2'
_chemical_formula_weight         393.18
_space_group_crystal_system      triclinic
_space_group_IT_number           2
_space_group_name_Hall           '-P 1'
_space_group_name_H-M_alt        'P -1'
_atom_sites_solution_hydrogens   geom
_cell_angle_alpha                109.709(9)
_cell_angle_beta                 96.971(9)
_cell_angle_gamma                97.054(9)
_cell_formula_units_Z            2
_cell_length_a                   4.511(2)
_cell_length_b                   11.891(6)
_cell_length_c                   14.557(7)
_cell_measurement_reflns_used    1012
_cell_measurement_temperature    293(2)
_cell_measurement_theta_max      20.08
_cell_measurement_theta_min      2.92
_cell_volume                     718.4(6)
_computing_cell_refinement       'SAINT v7.60A (Bruker, 2009)'
_computing_data_collection       'Bruker APEX2'
_computing_data_reduction        'SAINT v7.60A (Bruker, 2009)'
_computing_molecular_graphics    'Olex2 (Dolomanov et al., 2009)'
_computing_publication_material  'Olex2 (Dolomanov et al., 2009)'
_computing_structure_refinement  'ShelXL (Sheldrick, 2015)'
_computing_structure_solution    'SHELXS-97 (Sheldrick, 2008)'
_diffrn_ambient_temperature      293(2)
_diffrn_measured_fraction_theta_full 0.990
_diffrn_measured_fraction_theta_max 0.990
_diffrn_measurement_device_type  'Bruker APEX-II CCD'
_diffrn_measurement_method       '\f and \w scans'
_diffrn_radiation_type           MoK\a
_diffrn_radiation_wavelength     0.71073
_diffrn_reflns_av_R_equivalents  0.0284
_diffrn_reflns_av_unetI/netI     0.0600
_diffrn_reflns_Laue_measured_fraction_full 0.990
_diffrn_reflns_Laue_measured_fraction_max 0.990
_diffrn_reflns_limit_h_max       5
_diffrn_reflns_limit_h_min       -5
_diffrn_reflns_limit_k_max       14
_diffrn_reflns_limit_k_min       -13
_diffrn_reflns_limit_l_max       15
_diffrn_reflns_limit_l_min       -17
_diffrn_reflns_number            3660
_diffrn_reflns_point_group_measured_fraction_full 0.990
_diffrn_reflns_point_group_measured_fraction_max 0.990
_diffrn_reflns_theta_full        24.999
_diffrn_reflns_theta_max         24.999
_diffrn_reflns_theta_min         1.923
_exptl_absorpt_coefficient_mu    2.237
_exptl_absorpt_correction_T_max  0.6389
_exptl_absorpt_correction_T_min  0.5632
_exptl_absorpt_correction_type   multi-scan
_exptl_absorpt_process_details   SADABS
_exptl_crystal_colour            'clear light orange'
_exptl_crystal_colour_lustre     clear
_exptl_crystal_colour_modifier   light
_exptl_crystal_colour_primary    orange
_exptl_crystal_density_diffrn    1.818
_exptl_crystal_density_meas      .
_exptl_crystal_density_method    'not measured'
_exptl_crystal_description       block
_exptl_crystal_F_000             384
_exptl_crystal_size_max          0.29
_exptl_crystal_size_mid          0.25
_exptl_crystal_size_min          0.22
_refine_diff_density_max         0.524
_refine_diff_density_min         -0.555
_refine_diff_density_rms         0.093
_refine_ls_extinction_coef       .
_refine_ls_extinction_method     none
_refine_ls_goodness_of_fit_ref   0.990
_refine_ls_hydrogen_treatment    constr
_refine_ls_matrix_type           full
_refine_ls_number_parameters     178
_refine_ls_number_reflns         2512
_refine_ls_number_restraints     18
_refine_ls_restrained_S_all      0.988
_refine_ls_R_factor_all          0.0670
_refine_ls_R_factor_gt           0.0449
_refine_ls_shift/su_max          0.001
_refine_ls_shift/su_mean         0.000
_refine_ls_structure_factor_coef Fsqd
_refine_ls_weighting_details
'w=1/[\s^2^(Fo^2^)+(0.0488P)^2^] where P=(Fo^2^+2Fc^2^)/3'
_refine_ls_weighting_scheme      calc
_refine_ls_wR_factor_gt          0.0966
_refine_ls_wR_factor_ref         0.1052
_reflns_Friedel_coverage         0.000
_reflns_Friedel_fraction_full    .
_reflns_Friedel_fraction_max     .
_reflns_number_gt                1797
_reflns_number_total             2512
_reflns_threshold_expression     'I > 2\s(I)'
_cod_data_source_file            suppl_ncrs-2019-0624_suppl.cif
_cod_data_source_block           a
_cod_database_code               8105089
_shelx_space_group_comment
;
The symmetry employed for this shelxl refinement is uniquely defined
by the following loop, which should always be used as a source of
symmetry information in preference to the above space-group names.
They are only intended as comments.
;
_shelx_estimated_absorpt_t_max   0.639
_shelx_estimated_absorpt_t_min   0.563
_olex2_refinement_description
;
1. Fixed Uiso
 At 1.2 times of:
  All C(H) groups, All C(H,H) groups
 At 1.5 times of:
  All C(H,H,H) groups
2. Uiso/Uaniso restraints and constraints
Uanis(C1) \\sim Ueq, Uanis(C2) \\sim Ueq, Uanis(C14) \\sim Ueq: with sigma of
0.01 and sigma for terminal atoms of 0.02
3.a Secondary CH2 refined with riding coordinates:
 C13(H13A,H13B)
3.b Me refined with riding coordinates:
 C15(H15A,H15B,H15C)
3.c Aromatic/amide H refined with riding coordinates:
 C2(H2), C4(H4), C6(H6), C8(H8), C9(H9), C11(H11), C12(H12)
3.d Fitted hexagon refined as free rotating group:
 C7(C8,C9,C10,C11,C12)
;
_shelx_res_file
;
TITL A in P1 New: P-1
    a.res
    created by SHELXL-2018/3 at 09:12:21 on 28-Aug-2019
CELL 0.71073 4.511 11.891 14.557 109.709 96.971 97.054
ZERR 2 0.002 0.006 0.007 0.009 0.009 0.009
LATT 1
SFAC C H I N O
UNIT 30 24 2 6 4
ISOR 0.01 0.02 C1 C2 C14

L.S. 20
PLAN  1
SIZE 0.29 0.25 0.22
BOND $H
htab
fmap 2
acta
OMIT 0 50
OMIT -1 1 0
OMIT -2 2 0
OMIT 1 6 5
OMIT 0 -3 1
OMIT 0 -2 1
REM <olex2.extras>
REM <HklSrc "%.\\A.hkl">
REM </olex2.extras>

WGHT    0.048800
FVAR       0.15605
I1    3    1.510738    0.923133    0.777044    11.00000    0.06206    0.07157 =
         0.06735    0.03135   -0.00150    0.00209
O1    5   -0.323052    0.632771   -0.062120    11.00000    0.16691    0.10325 =
         0.06966    0.00784    0.01854   -0.01510
O2    5   -0.035846    0.794284    0.041734    11.00000    0.08808    0.10910 =
         0.06224    0.04407    0.00329   -0.01258
N1    4    0.884072    0.605411    0.602121    11.00000    0.10092    0.05434 =
         0.08417    0.04277   -0.01552   -0.00289
N2    4    0.829979    0.682768    0.554635    11.00000    0.07112    0.04654 =
         0.05909    0.03108    0.00355    0.00429
N3    4    0.993919    0.881836    0.562202    11.00000    0.05624    0.04259 =
         0.05038    0.01990    0.00351   -0.00115
C1    1    1.197849    0.784968    0.676327    11.00000    0.06058    0.05434 =
         0.05113    0.02420    0.00945    0.01211
C2    1    1.107702    0.668603    0.675278    11.00000    0.08649    0.06107 =
         0.07145    0.03250   -0.00499    0.00731
AFIX  43
H2    2    1.195792    0.638597    0.721274    11.00000   -1.20000
AFIX   0
C3    1    1.015550    0.791934    0.597224    11.00000    0.05364    0.04200 =
         0.05078    0.02252    0.01318    0.00772
C4    1    0.611053    0.658750    0.475623    11.00000    0.06668    0.04903 =
         0.06273    0.02596   -0.00132   -0.00411
AFIX  43
H4    2    0.482292    0.583944    0.448748    11.00000   -1.20000
AFIX   0
C5    1    0.582277    0.745268    0.436279    11.00000    0.05438    0.04181 =
         0.04966    0.02120    0.01475    0.00520
C6    1    0.786450    0.856222    0.483941    11.00000    0.05554    0.04401 =
         0.05889    0.02693    0.01074    0.00364
AFIX  43
H6    2    0.771551    0.916454    0.457071    11.00000   -1.20000
AFIX  66
C7    1    0.347243    0.728046    0.350791    11.00000    0.04633    0.04931 =
         0.04897    0.02053    0.01314    0.00178
C8    1    0.219979    0.612237    0.284510    11.00000    0.05521    0.04332 =
         0.06001    0.02321    0.00307    0.00131
AFIX  43
H8    2    0.286246    0.544837    0.293120    11.00000   -1.20000
AFIX  65
C9    1   -0.006328    0.597164    0.205360    11.00000    0.05957    0.04544 =
         0.06436    0.01852    0.00491    0.00187
AFIX  43
H9    2   -0.091475    0.519679    0.161014    11.00000   -1.20000
AFIX  65
C10   1   -0.105372    0.697901    0.192491    11.00000    0.03769    0.06474 =
         0.05012    0.02568    0.01158    0.00477
C11   1    0.021889    0.813711    0.258771    11.00000    0.05629    0.04923 =
         0.05810    0.02015    0.01499    0.01445
AFIX  43
H11   2   -0.044380    0.881110    0.250160    11.00000   -1.20000
AFIX  65
C12   1    0.248196    0.828785    0.337921    11.00000    0.06118    0.04677 =
         0.05372    0.02390    0.01494    0.01168
AFIX  43
H12   2    0.333343    0.906270    0.382266    11.00000   -1.20000
AFIX   0
C13   1   -0.350214    0.680458    0.107770    11.00000    0.05898    0.06759 =
         0.06305    0.02434    0.01384    0.00569
AFIX  23
H13A  2   -0.485778    0.737453    0.130201    11.00000   -1.20000
H13B  2   -0.466943    0.599266    0.087190    11.00000   -1.20000
AFIX   0
C14   1   -0.236443    0.697429    0.020172    11.00000    0.06621    0.06209 =
         0.06534    0.02286    0.00149    0.01883
C15   1    0.084697    0.815320   -0.039301    11.00000    0.10114    0.15436 =
         0.09598    0.08854    0.01627    0.01385
AFIX  33
H15A  2    0.230316    0.889277   -0.014423    11.00000   -1.50000
H15B  2    0.181385    0.748928   -0.072003    11.00000   -1.50000
H15C  2   -0.077200    0.821787   -0.085533    11.00000   -1.50000
AFIX   0
HKLF 4




REM  A in P1 New: P-1
REM wR2 = 0.1052, GooF = S = 0.990, Restrained GooF = 0.988 for all data
REM R1 = 0.0449 for 1797 Fo > 4sig(Fo) and 0.0670 for all 2512 data
REM 178 parameters refined using 18 restraints

END

WGHT      0.0488      0.0000

REM Instructions for potential hydrogen bonds
EQIV $1 -x+1, -y+1, -z+1
HTAB C4 N1_$1
EQIV $2 -x+2, -y+2, -z+1
HTAB C6 N3_$2
EQIV $3 x-2, y, z-1
HTAB C15 I1_$3

REM Highest difference peak  0.524,  deepest hole -0.555,  1-sigma level  0.093
Q1    1   1.6990  0.9542  0.8459  11.00000  0.05    0.52
;
_shelx_hkl_file
;
   1   0   0   15.20    0.64
   2   0   0  101.30    3.18
   3   0   0   19.64    1.16
   4   0   0   13.63    1.10
   5   0   0    0.28    0.40
   5  -1   0    1.16    0.55
   4  -1   0    8.45    0.93
   3  -1   0   10.69    0.84
  -2   1   0   64.63    2.20
  -1   1   0    0.02    0.05
   1   1   0  176.12    4.77
   2   1   0  114.47    3.50
   3   1   0   38.80    1.75
   4   1   0   17.48    1.27
   5   1   0    1.12    0.59
   6  -2   0   -0.36    0.60
   5  -2   0    0.34    0.45
   4  -2   0    0.59    0.41
  -3   2   0   14.20    0.96
  -2   2   0    0.04    0.12
   0  -2   0   64.86    2.13
   0   2   0   66.64    1.83
   1   2   0   35.62    1.22
   2   2   0   26.24    1.18
   3   2   0   13.99    0.97
   4   2   0    8.02    0.90
   5   2   0    2.24    0.64
   6  -3   0   -0.29    0.66
   5  -3   0    0.02    0.39
   5  -3   0   -0.28    0.44
   4  -3   0    2.50    0.59
  -4   3   0    1.89    0.51
  -3   3   0    0.12    0.20
   2  -3   0    4.60    0.55
   0  -3   0   14.52    0.69
   0   3   0   15.05    0.59
   1   3   0   49.15    1.63
   2   3   0    0.08    0.14
   3   3   0    5.11    0.62
   4   3   0   -0.23    0.21
   5   3   0    0.23    0.44
   5  -4   0    1.06    0.62
   4  -4   0    4.43    0.78
   3  -4   0    6.10    0.76
   2  -4   0    7.94    0.66
   2  -4   0    7.29    0.49
   1  -4   0   43.22    1.58
  -1   4   0   33.33    1.29
   0  -4   0   81.39    2.71
   0   4   0   75.81    2.30
   1   4   0    8.72    0.53
   2   4   0    1.77    0.35
   3   4   0    0.71    0.30
   4   4   0    0.05    0.30
   5   4   0   -0.32    0.43
   4  -5   0    2.08    0.57
  -4   5   0   -0.23    0.28
   3  -5   0   19.02    1.06
   3  -5   0   20.58    1.32
   2  -5   0   11.83    0.82
   2  -5   0    9.52    0.54
   1  -5   0   67.84    2.48
  -1   5   0   65.84    2.12
   0  -5   0   25.50    1.19
   0   5   0   26.37    1.02
   1   5   0   98.32    3.01
   2   5   0   11.18    0.75
   3   5   0    5.75    0.70
   4   5   0    0.40    0.41
   5   5   0   -0.28    0.44
   4  -6   0    3.14    0.68
  -4   6   0    3.07    0.67
   2  -6   0   72.46    2.86
   1  -6   0   34.80    1.57
  -1   6   0   36.82    1.38
   0  -6   0   32.64    1.51
   0   6   0   34.18    1.29
   1   6   0   74.58    2.49
   2   6   0   17.66    1.03
   3   6   0    5.44    0.69
   4   6   0    3.90    0.73
   4  -7   0    4.86    0.79
  -4   7   0    4.12    0.80
   3  -7   0    6.30    0.80
   2  -7   0   30.77    1.60
  -2   7   0   30.93    1.43
   1  -7   0   32.24    1.53
  -1   7   0   31.94    1.33
   0  -7   0   43.80    1.99
   0   7   0   46.41    1.70
   1   7   0   21.74    1.11
   2   7   0   19.52    1.13
   3   7   0    8.38    0.89
   4   7   0    1.57    0.53
   4  -8   0    1.48    0.57
  -4   8   0    1.70    0.63
   3  -8   0    3.11    0.63
  -3   8   0   -0.04    0.25
   2  -8   0    1.28    0.42
  -2   8   0    1.43    0.39
   1  -8   0    6.21    0.70
  -1   8   0    6.99    0.58
   0  -8   0   19.17    1.27
   0   8   0   20.70    1.07
   1   8   0    5.81    0.62
   2   8   0   14.94    1.03
   3   8   0    4.69    0.73
   4   8   0    1.74    0.61
   4  -9   0    0.32    0.42
   3  -9   0    0.44    0.40
  -3   9   0    0.18    0.33
   2  -9   0    0.47    0.35
  -2   9   0    0.40    0.32
   1  -9   0    2.68    0.56
  -1   9   0    1.88    0.41
   0  -9   0    2.43    0.62
   0   9   0    3.02    0.50
   1   9   0    3.31    0.55
   2   9   0    0.30    0.27
   3   9   0    0.33    0.37
   4 -10   0    0.76    0.54
   3 -10   0    0.22    0.39
  -3  10   0    0.08    0.38
   2 -10   0    0.22    0.39
  -2  10   0    0.21    0.29
   1 -10   0    5.19    0.77
  -1  10   0    4.74    0.61
   0 -10   0    4.23    0.82
   1  10   0    0.33    0.32
   2  10   0    0.39    0.36
   3  10   0    0.32    0.42
   4 -11   0    0.06    0.47
   3 -11   0    0.86    0.52
  -3  11   0    0.44    0.46
   2 -11   0    3.18    0.71
  -2  11   0    3.56    0.65
   1 -11   0    3.71    0.74
  -1  11   0    3.05    0.54
   0 -11   0    0.51    0.58
   0  11   0    0.39    0.34
   1  11   0    0.96    0.40
   2  11   0   -0.05    0.33
   4 -12   0   -0.10    0.54
   3 -12   0    0.74    0.57
   2 -12   0    1.27    0.65
  -2  12   0    0.44    0.43
   1 -12   0    7.40    1.08
  -1  12   0    6.62    0.83
   0  12   0    1.49    0.49
   1  12   0    1.33    0.48
   2  12   0    1.11    0.51
   3 -13   0    0.37    0.54
   2 -13   0   -0.03    0.53
  -2  13   0    0.06    0.44
   1 -13   0    0.84    0.67
  -1  13   0    0.65    0.45
   0  13   0    1.60    0.54
   1  13   0    0.13    0.40
   3 -14   0    0.16    0.60
   2 -14   0    0.34    0.62
  -2  14   0    0.45    0.56
   1 -14   0    1.04    0.83
  -1  14   0    0.54    0.46
   0  14   0    0.94    0.53
  -1  15   0   -0.05    0.53
  -1  15  -1   -0.07    0.48
  -2  15  -1    0.92    0.59
   2 -15   1   -0.24    0.68
   0  14  -1    0.28    0.40
  -1  14  -1   -0.03    0.42
   1 -14   1    0.59    0.76
  -2  14  -1    0.66    0.53
   2 -14   1    0.24    0.64
   3 -14   1   -0.15    0.52
   1  13  -1    0.02    0.37
   0  13  -1    0.14    0.37
  -1  13  -1    0.63    0.39
   1 -13   1    1.30    0.70
  -2  13  -1    0.19    0.42
   2 -13   1   -0.37    0.43
  -3  13  -1   -0.34    0.48
   3 -13   1   -0.02    0.52
   2  12  -1    0.23    0.40
   1  12  -1    1.32    0.48
   0  12  -1    1.68    0.49
  -1  12  -1    1.09    0.42
   1 -12   1    2.48    0.75
  -2  12  -1    0.03    0.33
   2 -12   1    0.03    0.43
  -3  12  -1    0.01    0.47
   3 -12   1    0.04    0.42
   4 -12   1   -0.12    0.47
   3  11  -1    0.24    0.43
   2  11  -1    0.92    0.43
   1  11  -1    3.19    0.59
   0  11  -1    1.49    0.46
  -1  11  -1    3.56    0.58
   1 -11   1    3.32    0.71
  -2  11  -1    2.45    0.56
   2 -11   1    2.09    0.60
  -3  11  -1    0.30    0.45
   3 -11   1    0.74    0.51
   4 -11   1    0.63    0.58
   3  10  -1    2.00    0.56
   2  10  -1    6.28    0.79
   1  10  -1    8.89    0.83
   0  10  -1    2.03    0.46
   0 -10   1    2.57    0.70
  -1  10  -1    5.25    0.64
   1 -10   1    4.74    0.74
  -2  10  -1    7.25    0.79
   2 -10   1    6.02    0.79
  -3  10  -1    2.89    0.65
   3 -10   1    2.55    0.63
   4 -10   1   -0.18    0.39
   3   9  -1    3.02    0.64
   2   9  -1    8.89    0.87
   1   9  -1    8.31    0.77
   0   9  -1   20.23    1.11
   0  -9   1   18.39    1.33
  -1   9  -1   20.93    1.13
   1  -9   1   19.89    1.24
  -2   9  -1    8.20    0.80
   2  -9   1    8.84    0.83
  -3   9  -1    4.20    0.72
   3  -9   1    6.99    0.86
  -4   9  -1    0.58    0.57
   4  -9   1    1.16    0.54
   4   8  -1    0.89    0.49
   3   8  -1    1.63    0.49
   2   8  -1    3.15    0.54
   1   8  -1   11.19    0.79
   0   8  -1   53.42    1.98
   0  -8   1   51.35    2.32
  -1   8  -1    5.84    0.59
   1  -8   1    6.84    0.69
  -2   8  -1   20.55    1.16
   2  -8   1   19.74    1.21
  -3   8  -1    4.29    0.69
   3  -8   1    4.68    0.70
  -4   8  -1    4.21    0.84
   4  -8   1    3.51    0.72
   4   7  -1    0.04    0.40
   3   7  -1    0.06    0.29
   2   7  -1    1.99    0.41
   1   7  -1    3.18    0.44
   0   7  -1   10.66    0.69
   0  -7   1   11.81    0.88
  -1   7  -1    6.12    0.55
   1  -7   1    5.32    0.57
  -2   7  -1    5.48    0.62
   2  -7   1    6.22    0.67
  -3   7  -1    3.75    0.65
   3  -7   1    3.70    0.61
  -4   7  -1    0.89    0.55
   4  -7   1    1.60    0.52
   4   6  -1    0.24    0.33
   3   6  -1    0.14    0.23
   2   6  -1   -0.09    0.15
   1   6  -1    7.89    0.57
   0   6  -1    4.89    0.41
   0  -6   1    5.67    0.59
  -1   6  -1    0.12    0.13
   1  -6   1    0.13    0.17
  -2   6  -1    0.18    0.19
   2  -6   1    0.62    0.26
  -3   6  -1    1.04    0.41
   3  -6   1    1.47    0.41
  -4   6  -1    1.26    0.53
   4  -6   1    1.79    0.53
  -5   6  -1    0.25    0.48
   5   5  -1    0.28    0.46
   4   5  -1    4.57    0.70
   3   5  -1    5.09    0.62
   2   5  -1   18.58    0.97
   1   5  -1    9.03    0.57
   0   5  -1   34.45    1.24
   0  -5   1   33.87    1.45
  -1   5  -1   17.28    0.81
   1  -5   1   16.90    0.88
  -2   5  -1   11.29    0.75
   2  -5   1   13.13    0.83
  -3   5  -1    2.29    0.50
   3  -5   1    3.37    0.55
  -4   5  -1    0.18    0.32
   4  -5   1    0.75    0.41
  -5   5  -1   -0.46    0.39
   5  -5   1    0.13    0.48
   5   4  -1    0.70    0.51
   4   4  -1   10.55    1.01
   3   4  -1   20.32    1.17
   2   4  -1   42.06    1.63
   1   4  -1   43.40    1.49
   0   4  -1  170.56    4.71
   0  -4   1  176.34    5.51
  -1   4  -1    2.15    0.28
   1  -4   1    2.35    0.29
  -2   4  -1   58.79    2.11
   2  -4   1   59.05    2.31
  -3   4  -1   17.95    1.17
   3  -4   1   20.04    1.24
  -4   4  -1    7.72    0.92
   4  -4   1    7.84    0.94
   5  -4   1    0.14    0.45
   5   3  -1    1.80    0.60
   4   3  -1    7.22    0.83
   3   3  -1   25.13    1.29
   2   3  -1   73.78    2.42
   1   3  -1  145.50    4.02
   0   3  -1  241.68    6.30
   0  -3   1  237.20    7.35
  -1   3  -1  247.68    6.53
   1  -3   1  239.96    7.52
  -2   3  -1   41.68    1.65
   2  -3   1   42.36    1.79
  -3   3  -1   12.58    0.94
  -4   3  -1   10.59    1.06
   5  -3   1    1.35    0.60
   5   2  -1    0.52    0.45
   4   2  -1    5.76    0.75
   3   2  -1   18.78    1.09
   2   2  -1   63.69    2.14
   1   2  -1  100.97    2.86
   0   2  -1  251.59    6.53
  -1   2  -1  334.03    8.79
   1  -2   1  335.61   10.19
  -2   2  -1   74.18    2.53
  -3   2  -1   29.63    1.52
   4  -2   1   11.83    1.14
   5  -2   1    1.97    0.62
   5   1  -1    0.21    0.41
   4   1  -1   -0.19    0.24
   3   1  -1    9.73    0.75
   2   1  -1   29.53    1.20
   1   1  -1   73.83    2.12
   0   1  -1   13.72    0.43
  -1   1  -1   26.35    0.99
  -2   1  -1   41.74    1.64
   3  -1   1   54.28    2.26
   4  -1   1    6.39    0.87
   5  -1   1    3.25    0.83
   5   0  -1   -0.13    0.42
   4   0  -1    0.07    0.30
   3   0  -1    0.34    0.24
   2   0  -1    0.30    0.15
   1   0  -1    0.74    0.13
  -1   0  -1   17.40    0.74
   1   0   1   17.30    0.75
   2   0   1   21.41    1.08
   3   0   1    0.00    0.23
   4   0   1    2.10    0.59
   5   0   1    1.98    0.70
   6  -1  -1    1.15    0.83
   5  -1  -1    0.38    0.45
   5  -1  -1    0.54    0.56
   4  -1  -1    2.20    0.55
   3  -1  -1   10.43    0.80
  -2   1   1   16.27    0.82
   1  -1  -1   19.85    0.77
  -1   1   1   21.01    0.74
   0   1   1    5.34    0.23
   1   1   1    2.13    0.26
   2   1   1    0.04    0.13
   3   1   1    1.99    0.47
   4   1   1    2.15    0.57
   5   1   1    0.56    0.51
   6  -2  -1    0.81    0.72
   5  -2  -1    2.16    0.74
   4  -2  -1   11.40    1.04
  -3   2   1   27.38    1.35
  -2   2   1   37.01    1.42
   1  -2  -1   53.39    2.03
  -1   2   1   55.00    1.61
   0  -2  -1  105.99    3.36
   1   2   1   44.04    1.50
   2   2   1   57.75    2.10
   3   2   1    2.33    0.49
   4   2   1    1.56    0.50
   5   2   1    0.31    0.45
   6  -3  -1    0.49    0.68
   5  -3  -1    3.47    0.83
   4  -3  -1    6.06    0.81
   4  -3  -1    4.44    0.71
   3  -3  -1   24.35    1.30
  -3   3   1   26.42    1.31
   2  -3  -1  136.08    4.06
   2  -3  -1  127.58    4.69
  -2   3   1  136.05    3.94
   1  -3  -1   89.54    3.20
  -1   3   1   96.49    2.66
   0  -3  -1  135.82    4.28
   0   3   1  131.63    3.64
   1   3   1  134.86    3.88
   2   3   1   51.55    1.95
   3   3   1   23.80    1.35
   4   3   1    0.23    0.33
   5   3   1    2.39    0.75
   5  -4  -1    1.40    0.61
   4  -4  -1    2.93    0.69
   4  -4  -1    5.31    0.74
  -4   4   1    4.02    0.65
   3  -4  -1   17.17    1.24
   3  -4  -1   16.95    1.00
  -3   4   1   15.31    1.01
   2  -4  -1   70.88    2.81
   2  -4  -1   70.42    2.28
  -2   4   1   68.92    2.30
   1  -4  -1   92.87    3.30
  -1   4   1   96.95    2.76
   0  -4  -1   89.59    3.07
   0   4   1   89.91    2.62
   1   4   1  119.83    3.53
   2   4   1   32.90    1.46
   3   4   1   13.59    1.00
   4   4   1    9.89    1.05
   5   4   1    1.40    0.61
   4  -5  -1    2.68    0.66
  -4   5   1    2.29    0.55
   3  -5  -1   10.13    0.94
   3  -5  -1   10.60    0.74
  -3   5   1   10.34    0.84
   2  -5  -1    0.87    0.31
   2  -5  -1    1.78    0.24
  -2   5   1    1.51    0.32
   1  -5  -1   71.26    2.67
   0  -5  -1   28.70    1.30
   0   5   1   27.42    1.09
   1   5   1   25.72    1.14
   2   5   1   20.39    1.10
   3   5   1   13.28    1.02
   4   5   1    4.41    0.79
   4  -6  -1    0.02    0.35
  -4   6   1    0.18    0.38
   3  -6  -1    0.76    0.39
  -3   6   1    0.35    0.32
   2  -6  -1    0.02    0.18
  -2   6   1    0.08    0.18
   1  -6  -1    6.42    0.60
   0  -6  -1   10.41    0.76
   0   6   1   10.31    0.63
   1   6   1    8.67    0.64
   2   6   1    3.48    0.51
   3   6   1    6.59    0.77
   4   6   1   -0.38    0.33
   4  -7  -1    0.48    0.41
   3  -7  -1    0.51    0.35
  -3   7   1    0.63    0.38
   2  -7  -1    0.57    0.33
  -2   7   1    1.23    0.34
   1  -7  -1    0.08    0.23
  -1   7   1    0.36    0.20
   0  -7  -1    0.14    0.29
   0   7   1    0.28    0.20
   1   7   1    0.00    0.19
   2   7   1   -0.07    0.21
   3   7   1    0.11    0.27
   4   7   1   -0.11    0.37
   4  -8  -1    1.87    0.64
   3  -8  -1    3.22    0.66
  -3   8   1    2.46    0.57
   2  -8  -1    1.73    0.49
  -2   8   1    1.60    0.41
   1  -8  -1    1.17    0.40
  -1   8   1    2.13    0.38
   0  -8  -1   10.60    0.94
   0   8   1    8.04    0.65
   1   8   1    2.91    0.49
   2   8   1    1.08    0.39
   3   8   1    0.53    0.39
   4   8   1   -0.11    0.45
   4  -9  -1    0.98    0.53
   3  -9  -1    4.73    0.81
  -3   9   1    4.56    0.72
   2  -9  -1    3.10    0.63
   1  -9  -1   31.22    1.73
  -1   9   1   34.04    1.49
   0  -9  -1    4.17    0.79
   0   9   1    4.89    0.60
   1   9   1    3.25    0.55
   2   9   1    2.19    0.52
   3   9   1    2.78    0.63
   4 -10  -1    0.31    0.51
   3 -10  -1    1.45    0.61
   2 -10  -1    4.16    0.75
  -2  10   1    2.81    0.54
   1 -10  -1   13.44    1.15
  -1  10   1   14.87    0.97
   0 -10  -1    4.23    0.83
   0  10   1    4.07    0.60
   1  10   1    8.38    0.87
   2  10   1    1.66    0.52
   3  10   1    0.91    0.48
   4 -11  -1    0.12    0.52
   3 -11  -1    1.17    0.59
   2 -11  -1    2.17    0.67
  -2  11   1    0.48    0.39
   1 -11  -1    0.53    0.49
  -1  11   1   -0.05    0.26
   0 -11  -1    4.31    0.94
   1  11   1    2.63    0.58
   2  11   1    1.26    0.48
   4 -12  -1   -0.21    0.50
   3 -12  -1    0.23    0.50
   2 -12  -1    1.57    0.68
  -2  12   1    0.81    0.47
   1 -12  -1    0.62    0.61
  -1  12   1    0.13    0.35
   0  12   1    0.95    0.44
   1  12   1    0.31    0.40
   2  12   1    0.19    0.40
   3 -13  -1    0.12    0.59
   2 -13  -1    0.64    0.65
   1 -13  -1   -0.01    0.61
  -1  13   1   -0.24    0.36
   0  13   1    1.04    0.51
   1  13   1   -0.08    0.40
   2 -14  -1    0.09    0.65
   1 -14  -1   -0.44    0.72
  -1  14   1   -0.12    0.42
   0  14   1    0.07    0.47
  -1  15  -2   -0.45    0.39
  -2  15  -2    0.64    0.55
   2 -15   2    0.29    0.71
   1  14  -2    2.00    0.65
   0  14  -2    0.22    0.39
  -1  14  -2    0.02    0.38
   1 -14   2    0.50    0.68
  -2  14  -2   -0.13    0.42
   2 -14   2    0.40    0.61
  -3  14  -2   -0.04    0.54
   3 -14   2   -0.26    0.53
   1  13  -2    0.93    0.50
   0  13  -2    0.80    0.43
  -1  13  -2    2.21    0.57
   1 -13   2    2.43    0.80
  -2  13  -2    1.20    0.53
   2 -13   2    1.63    0.65
  -3  13  -2    1.21    0.65
   3 -13   2    0.77    0.57
   2  12  -2    0.47    0.40
   1  12  -2    0.68    0.41
   0  12  -2    0.79    0.39
  -1  12  -2    1.06    0.38
   1 -12   2    0.38    0.50
  -2  12  -2    4.95    0.75
   2 -12   2    3.48    0.73
  -3  12  -2    0.59    0.56
   3 -12   2   -0.03    0.44
   3  11  -2    0.85    0.47
   2  11  -2    2.26    0.56
   1  11  -2    1.11    0.40
   0  11  -2   12.85    0.98
  -1  11  -2    2.73    0.52
   1 -11   2    2.53    0.65
  -2  11  -2    3.06    0.61
   2 -11   2    2.31    0.59
  -3  11  -2   -0.31    0.40
   3 -11   2   -0.06    0.42
  -4  11  -2    0.29    0.57
   3  10  -2   -0.09    0.36
   2  10  -2    1.01    0.39
   1  10  -2    0.01    0.22
   0  10  -2   16.12    1.04
  -1  10  -2    3.87    0.56
   1 -10   2    4.25    0.68
  -2  10  -2    1.19    0.42
   2 -10   2    0.70    0.40
  -3  10  -2    2.30    0.61
   3 -10   2    1.25    0.49
  -4  10  -2    0.97    0.63
   4   9  -2    0.58    0.58
   4   9  -2    0.20    0.45
   3   9  -2    0.11    0.38
   3   9  -2   -0.13    0.30
   2   9  -2    1.97    0.48
   1   9  -2    0.73    0.29
   0   9  -2    8.48    0.69
  -1   9  -2   -0.05    0.19
   1  -9   2    0.39    0.31
  -2   9  -2    0.55    0.32
   2  -9   2    0.65    0.33
  -3   9  -2    2.09    0.58
   3  -9   2    0.84    0.42
  -4   9  -2   -0.02    0.53
   4   8  -2    1.32    0.56
   4   8  -2    1.94    0.73
   3   8  -2    0.46    0.33
   2   8  -2    4.33    0.58
   1   8  -2    3.21    0.45
   1   8  -2    2.65    0.43
   0   8  -2   19.18    1.02
   0  -8   2   19.12    1.21
  -1   8  -2    7.81    0.64
   1  -8   2    8.25    0.70
  -2   8  -2    6.05    0.69
   2  -8   2    7.50    0.69
  -3   8  -2    1.03    0.44
   3  -8   2    0.89    0.40
  -4   8  -2    0.21    0.41
   4   7  -2    5.02    0.77
   3   7  -2   10.95    0.89
   2   7  -2   14.38    0.92
   1   7  -2   31.27    1.34
   0   7  -2   26.84    0.95
   0   7  -2   25.46    1.15
   0  -7   2   26.10    1.37
  -1   7  -2    4.34    0.47
   1  -7   2    3.87    0.49
  -2   7  -2   14.15    0.93
   2  -7   2   13.77    0.91
  -3   7  -2    9.26    0.95
   3  -7   2   10.80    0.87
  -4   7  -2    5.45    0.91
  -5   7  -2    0.18    0.55
   5   6  -2    0.82    0.66
   5   6  -2    1.13    0.59
   4   6  -2    4.03    0.67
   3   6  -2   14.08    0.96
   2   6  -2   14.84    0.87
   1   6  -2   75.81    2.47
   0   6  -2   86.37    2.71
   0  -6   2   89.10    3.17
  -1   6  -2   57.06    1.96
   1  -6   2   54.06    2.09
  -2   6  -2   24.24    1.22
   2  -6   2   23.92    1.21
  -3   6  -2   16.75    1.17
   3  -6   2   17.12    1.09
  -4   6  -2    4.50    0.83
  -5   6  -2    0.60    0.57
   5   5  -2    1.52    0.55
   5   5  -2    4.18    1.03
   4   5  -2    0.64    0.33
   3   5  -2   10.93    0.80
   2   5  -2   44.69    1.71
   1   5  -2   30.40    1.19
   0   5  -2   65.42    2.03
   0  -5   2   62.15    2.34
  -1   5  -2  169.44    4.76
   1  -5   2  166.94    5.36
  -2   5  -2   86.67    2.92
   2  -5   2   89.47    3.14
  -3   5  -2   14.92    1.09
   3  -5   2   15.28    1.02
  -4   5  -2    2.11    0.59
  -5   5  -2    2.96    0.80
   5  -5   2    3.01    0.84
   5   4  -2   -0.36    0.46
   5   4  -2   -0.12    0.37
   4   4  -2    1.18    0.42
   3   4  -2    3.31    0.50
   2   4  -2   54.67    1.90
   1   4  -2   34.48    1.23
   0   4  -2   27.74    1.00
   0  -4   2   27.00    1.15
  -1   4  -2   37.69    1.40
   1  -4   2   42.13    1.50
  -2   4  -2   41.12    1.66
   2  -4   2   40.55    1.66
  -3   4  -2   10.99    0.91
   3  -4   2   10.65    0.83
  -4   4  -2    8.10    0.97
   5  -4   2    2.39    0.77
   5   3  -2    0.12    0.52
   5   3  -2    0.34    0.40
   4   3  -2   -0.07    0.25
   3   3  -2    0.20    0.20
   2   3  -2    7.59    0.53
   1   3  -2   41.44    1.34
   0   3  -2    8.89    0.43
  -1   3  -2   33.56    1.22
   1  -3   2   33.13    1.22
  -2   3  -2    1.15    0.31
   2  -3   2    1.64    0.31
  -3   3  -2    8.62    0.85
  -4   3  -2    2.06    0.59
   5  -3   2    0.93    0.65
   5   2  -2   -0.12    0.36
   5   2  -2   -0.37    0.45
   4   2  -2    3.47    0.59
   3   2  -2    1.64    0.35
   2   2  -2   37.37    1.38
   1   2  -2  101.46    2.81
   1   2  -2  101.73    3.12
   0   2  -2   20.48    0.68
  -1   2  -2    0.39    0.14
  -1   2  -2    0.20    0.11
  -2   2  -2    1.64    0.35
  -3   2  -2    0.31    0.26
   4  -2   2    0.57    0.44
   5  -2   2   -0.12    0.46
   5   1  -2    1.30    0.51
   5   1  -2    3.17    0.87
   4   1  -2    4.66    0.67
   3   1  -2   35.00    1.52
   2   1  -2   51.65    1.74
   1   1  -2    0.23    0.08
   1   1  -2    0.36    0.13
   0   1  -2  153.34    4.01
  -1   1  -2  144.01    4.23
  -1   1  -2  150.18    4.16
  -2   1  -2   60.58    2.20
   3  -1   2    8.15    0.87
   4  -1   2    1.68    0.53
   5  -1   2    0.82    0.54
   6   0  -2    0.90    0.77
   5   0  -2    5.01    0.98
   4   0  -2   15.01    1.07
   4   0  -2   16.75    1.28
   3   0  -2   35.74    1.54
   2   0  -2   96.34    3.22
   2   0  -2   99.31    2.93
   1   0  -2   58.41    1.65
   1   0  -2   59.87    1.90
   0   0  -2   56.87    1.57
  -1   0  -2  188.78    5.22
  -1   0  -2  187.78    5.42
   1   0   2  192.32    5.24
   2   0   2   48.79    1.92
   3   0   2   27.71    1.53
   4   0   2    5.86    0.88
   5   0   2    2.11    0.68
   6  -1  -2   -0.28    0.64
   5  -1  -2    3.62    0.86
   4  -1  -2   10.77    0.96
   4  -1  -2   10.71    1.11
   3  -1  -2   24.03    1.32
   3  -1  -2   23.14    1.19
   2  -1  -2   28.70    1.25
  -2   1   2   28.70    1.12
   1  -1  -2 1000.00   26.88
  -1   1   2  981.45   25.27
   0   1   2   74.11    2.04
   1   1   2  179.01    4.99
   2   1   2   46.80    1.86
   3   1   2   33.24    1.69
   4   1   2    2.69    0.65
   5   1   2    2.37    0.76
   6  -2  -2   -0.45    0.65
   5  -2  -2    0.30    0.52
   4  -2  -2    0.54    0.40
   4  -2  -2    0.72    0.38
   3  -2  -2   14.56    0.98
  -3   2   2   16.29    0.94
   2  -2  -2   24.87    1.11
  -2   2   2   25.23    1.04
   1  -2  -2   37.12    1.22
   1  -2  -2   34.67    1.55
  -1   2   2   38.96    1.13
   0  -2  -2  248.06    6.47
   0  -2  -2  206.59    7.16
   0   2   2  245.41    6.12
   1   2   2   95.13    2.88
   2   2   2   47.67    1.88
   3   2   2   31.58    1.65
   4   2   2    8.61    1.01
   5   2   2    0.87    0.57
   5  -3  -2    0.13    0.49
   4  -3  -2    0.09    0.33
   4  -3  -2    0.11    0.34
   3  -3  -2    2.06    0.42
  -3   3   2    1.57    0.37
   2  -3  -2    5.51    0.44
   2  -3  -2    4.79    0.63
  -2   3   2    6.60    0.48
   1  -3  -2    0.12    0.08
   1  -3  -2    0.11    0.13
  -1   3   2    0.36    0.11
   0  -3  -2   19.22    0.75
   0  -3  -2   21.66    0.94
   1   3   2    5.51    0.44
   2   3   2   16.87    0.98
   3   3   2   11.70    0.96
   4   3   2    4.10    0.76
   5   3   2    0.40    0.54
   5  -4  -2    0.93    0.55
   4  -4  -2    0.24    0.32
   4  -4  -2    0.15    0.32
  -4   4   2   -0.15    0.24
   3  -4  -2    2.38    0.57
   3  -4  -2    3.20    0.46
  -3   4   2    3.19    0.49
   2  -4  -2    0.11    0.21
   2  -4  -2    0.17    0.15
  -2   4   2    0.19    0.17
   1  -4  -2   -0.05    0.10
   1  -4  -2    0.30    0.19
  -1   4   2    0.04    0.09
   0  -4  -2    0.03    0.17
   0  -4  -2    0.00    0.12
   0   4   2   -0.08    0.08
   1   4   2    0.13    0.14
   2   4   2    1.57    0.35
   3   4   2   -0.01    0.24
   4   4   2    0.32    0.39
   5   4   2   -0.03    0.52
   5  -5  -2    2.74    0.78
   4  -5  -2    1.86    0.60
   3  -5  -2    4.85    0.52
   3  -5  -2    6.35    0.84
  -3   5   2    5.60    0.65
   2  -5  -2    8.13    0.76
   2  -5  -2    8.15    0.47
  -2   5   2    7.94    0.59
   1  -5  -2   29.34    1.45
   1  -5  -2   31.19    1.04
  -1   5   2   30.22    1.13
   0  -5  -2    2.60    0.43
   0  -5  -2    2.00    0.27
   0   5   2    1.87    0.28
   1   5   2    5.63    0.53
   2   5   2    8.38    0.71
   3   5   2    2.51    0.55
   4   5   2   -0.20    0.36
   5  -6  -2    0.22    0.45
   4  -6  -2    4.15    0.80
   3  -6  -2    6.10    0.85
  -3   6   2    6.14    0.70
   2  -6  -2   20.68    1.31
  -2   6   2   21.00    1.05
   1  -6  -2   27.82    1.43
  -1   6   2   26.10    1.10
   0  -6  -2   39.79    1.78
   0   6   2   39.45    1.50
   1   6   2   19.75    1.03
   2   6   2    6.80    0.69
   3   6   2    5.79    0.77
   4   6   2    0.96    0.51
   5  -7  -2   -0.05    0.42
   4  -7  -2    1.15    0.54
   3  -7  -2   14.55    1.20
  -3   7   2   12.71    0.97
   2  -7  -2   10.77    0.93
  -2   7   2    9.42    0.72
   1  -7  -2   35.29    1.74
   0  -7  -2   37.04    1.80
   0   7   2   38.06    1.53
   1   7   2   19.44    1.09
   2   7   2    5.40    0.68
   3   7   2    5.07    0.74
   4   7   2    0.88    0.55
   5  -8  -2    0.62    0.56
   4  -8  -2    0.93    0.52
   3  -8  -2    6.22    0.91
   2  -8  -2   13.54    1.11
  -2   8   2   12.11    0.87
   1  -8  -2    9.08    0.86
   0  -8  -2   10.33    0.95
   0   8   2   10.07    0.73
   1   8   2   15.68    1.02
   2   8   2   11.93    0.96
   3   8   2    1.92    0.54
   5  -9  -2    0.02    0.51
   4  -9  -2   -0.17    0.40
   3  -9  -2    0.46    0.41
   2  -9  -2    2.25    0.62
  -2   9   2    3.15    0.54
   1  -9  -2    0.49    0.38
  -1   9   2    0.98    0.33
   0  -9  -2    3.77    0.76
   0   9   2    2.87    0.48
   1   9   2    7.40    0.80
   2   9   2    2.09    0.55
   3   9   2    0.91    0.48
   4 -10  -2   -0.47    0.44
   3 -10  -2   -0.20    0.39
   2 -10  -2    0.12    0.43
  -2  10   2    0.08    0.32
   1 -10  -2    0.27    0.43
  -1  10   2    0.09    0.25
   0 -10  -2    1.58    0.71
   0  10   2    1.78    0.46
   1  10   2   -0.29    0.22
   2  10   2   -0.12    0.35
   4 -11  -2    0.51    0.62
   3 -11  -2   -0.11    0.47
   2 -11  -2   -0.02    0.46
  -2  11   2    0.01    0.37
   1 -11  -2    0.39    0.48
  -1  11   2    0.41    0.35
   0 -11  -2    0.35    0.64
   0  11   2    0.28    0.36
   1  11   2    0.03    0.36
   2  11   2    0.25    0.36
   4 -12  -2   -0.05    0.55
   3 -12  -2    0.42    0.58
   2 -12  -2    0.62    0.61
   1 -12  -2   -0.63    0.46
  -1  12   2   -0.23    0.32
   0 -12  -2    0.91    0.72
   0  12   2    1.53    0.54
   1  12   2   -0.20    0.35
   3 -13  -2    0.12    0.59
   2 -13  -2    1.24    0.73
   1 -13  -2    0.18    0.65
  -1  13   2    0.59    0.50
   0  13   2    0.46    0.48
   1  13   2    0.72    0.53
   2 -14  -2   -0.40    0.59
   1 -14  -2    0.16    0.78
   0  14   2    0.03    0.49
  -1  15  -3    0.26    0.46
  -2  15  -3   -0.16    0.45
   2 -15   3   -0.04    0.62
   1  14  -3   -0.07    0.41
   0  14  -3    0.41    0.37
  -1  14  -3    0.71    0.46
  -2  14  -3    0.41    0.43
   2 -14   3    1.09    0.65
  -3  14  -3    0.96    0.61
   3 -14   3    0.03    0.52
   2  13  -3   -0.33    0.35
   1  13  -3    0.68    0.44
   0  13  -3    0.81    0.39
  -1  13  -3    0.34    0.38
   1 -13   3    0.54    0.63
  -2  13  -3    1.10    0.51
   2 -13   3    0.18    0.46
  -3  13  -3   -0.23    0.46
   3 -13   3   -0.23    0.42
  -4  13  -3   -0.11    0.67
   2  12  -3    0.07    0.36
   1  12  -3    0.08    0.31
   0  12  -3    0.31    0.35
  -1  12  -3    0.01    0.30
   1 -12   3   -0.23    0.45
  -2  12  -3    0.41    0.36
   2 -12   3    0.08    0.38
  -3  12  -3    0.39    0.45
   3 -12   3    0.26    0.47
  -4  12  -3    0.12    0.64
   3  11  -3    0.71    0.47
   2  11  -3    1.14    0.45
   1  11  -3    0.65    0.34
   0  11  -3   13.89    1.00
  -1  11  -3   -0.02    0.25
   1 -11   3   -0.09    0.40
  -2  11  -3    1.90    0.49
   2 -11   3    1.48    0.49
  -3  11  -3    0.28    0.39
   3 -11   3    0.30    0.40
  -4  11  -3   -0.38    0.55
   4  10  -3    0.48    0.64
   3  10  -3    1.45    0.51
   2  10  -3    6.35    0.76
   1  10  -3    5.95    0.70
   0  10  -3   12.70    0.90
  -1  10  -3    9.72    0.80
   1 -10   3    9.43    0.92
  -2  10  -3    2.19    0.54
   2 -10   3    1.44    0.45
  -3  10  -3    4.67    0.78
   3 -10   3    5.27    0.74
  -4  10  -3    1.53    0.69
   4   9  -3    0.97    0.53
   4   9  -3    0.85    0.60
   3   9  -3    8.20    1.00
   3   9  -3    5.94    0.78
   2   9  -3    8.81    0.83
   2   9  -3   10.17    0.94
   1   9  -3   14.69    0.94
   0   9  -3    8.38    0.68
  -1   9  -3   19.08    1.09
   1  -9   3   19.89    1.20
  -2   9  -3   12.76    0.95
   2  -9   3   12.82    0.93
  -3   9  -3    3.71    0.70
   3  -9   3    3.36    0.59
  -4   9  -3    4.09    0.90
  -5   9  -3    1.75    0.86
   4   8  -3    1.33    0.53
   4   8  -3    2.35    0.76
   3   8  -3    7.85    0.82
   3   8  -3    6.86    0.92
   2   8  -3    8.73    0.78
   2   8  -3    8.81    0.85
   1   8  -3   24.35    1.19
   1   8  -3   23.65    1.15
   0   8  -3   25.81    1.22
  -1   8  -3   28.60    1.34
   1  -8   3   29.87    1.43
  -2   8  -3   18.89    1.15
   2  -8   3   19.75    1.11
  -3   8  -3    9.03    0.99
   3  -8   3   10.99    0.89
  -4   8  -3   -0.15    0.38
  -5   8  -3    0.67    0.62
   5   7  -3    0.29    0.59
   4   7  -3   -0.32    0.32
   4   7  -3    0.07    0.46
   3   7  -3    0.76    0.32
   3   7  -3    0.95    0.47
   2   7  -3   11.99    0.91
   2   7  -3   13.03    0.84
   1   7  -3   31.37    1.35
   1   7  -3   30.79    1.32
   0   7  -3    4.87    0.48
   0   7  -3    5.00    0.34
  -1   7  -3   77.15    2.59
   1  -7   3   75.29    2.77
  -2   7  -3    7.46    0.72
   2  -7   3    6.40    0.58
  -3   7  -3   13.92    1.10
   3  -7   3   15.15    1.01
  -4   7  -3    1.52    0.66
  -5   7  -3    0.68    0.63
   5   6  -3    0.34    0.59
   5   6  -3   -0.03    0.46
   4   6  -3    0.27    0.42
   4   6  -3    0.23    0.32
   3   6  -3    0.42    0.27
   3   6  -3    0.14    0.32
   2   6  -3    1.57    0.40
   2   6  -3    0.61    0.24
   1   6  -3    1.42    0.29
   1   6  -3    1.83    0.32
   0   6  -3   18.71    0.71
   0   6  -3   17.33    0.85
  -1   6  -3    2.43    0.36
   1  -6   3    2.46    0.36
  -2   6  -3    8.24    0.67
   2  -6   3    7.37    0.58
  -3   6  -3    0.31    0.32
   3  -6   3   -0.03    0.20
  -4   6  -3    8.25    1.07
  -5   6  -3    0.53    0.58
   5   5  -3    0.22    0.51
   5   5  -3    0.19    0.38
   4   5  -3    1.31    0.41
   4   5  -3    2.05    0.68
   3   5  -3    1.09    0.33
   3   5  -3    0.99    0.45
   2   5  -3   23.43    1.06
   2   5  -3   21.81    1.22
   1   5  -3    6.07    0.43
   1   5  -3    5.97    0.48
   0   5  -3    0.60    0.17
   0   5  -3    0.75    0.14
  -1   5  -3   23.54    1.04
   1  -5   3   25.37    1.06
  -2   5  -3    0.55    0.26
   2  -5   3    1.04    0.25
  -3   5  -3    0.20    0.26
   3  -5   3    0.25    0.21
  -4   5  -3    0.08    0.32
  -5   5  -3    0.21    0.48
   5  -5   3   -0.15    0.49
   5   4  -3    0.80    0.60
   5   4  -3    0.61    0.47
   4   4  -3    3.38    0.58
   4   4  -3    5.03    0.87
   3   4  -3   15.30    0.92
   3   4  -3   16.26    1.18
   2   4  -3   35.04    1.35
   2   4  -3   34.96    1.60
   1   4  -3   38.28    1.32
   0   4  -3   73.85    2.22
   0   4  -3   75.23    2.21
  -1   4  -3   54.02    1.69
  -1   4  -3   54.32    1.85
   1  -4   3   57.84    1.91
  -2   4  -3   20.58    1.11
   2  -4   3   22.05    0.99
  -3   4  -3    1.31    0.45
   3  -4   3    1.23    0.33
  -4   4  -3    1.26    0.53
   5  -4   3    0.79    0.59
   5   3  -3    4.69    1.01
   5   3  -3    4.11    0.74
   4   3  -3    5.80    0.70
   4   3  -3    8.03    1.04
   3   3  -3   27.80    1.30
   3   3  -3   29.21    1.60
   2   3  -3   35.46    1.32
   2   3  -3   37.33    1.62
   1   3  -3  126.42    3.42
   1   3  -3  119.94    3.75
   0   3  -3   91.63    2.63
   0   3  -3   94.73    2.70
  -1   3  -3   92.40    2.80
  -1   3  -3   91.75    2.76
   1  -3   3   96.97    2.97
  -2   3  -3  106.98    3.48
   2  -3   3  107.37    3.56
  -3   3  -3   22.23    1.35
  -4   3  -3    5.65    0.87
   4  -3   3    6.29    0.91
   5  -3   3    1.19    0.62
   5   2  -3    2.50    0.79
   4   2  -3   11.50    0.90
   4   2  -3   12.19    1.22
   3   2  -3   32.41    1.38
   3   2  -3   31.45    1.66
   2   2  -3   37.57    1.34
   2   2  -3   37.97    1.62
   1   2  -3  120.37    3.68
   1   2  -3  123.53    3.30
   0   2  -3  418.35   10.77
  -2   2  -3   29.99    1.41
  -3   2  -3   46.36    2.11
   4  -2   3   12.36    1.25
   5  -2   3    0.66    0.55
   5   1  -3    1.31    0.63
   4   1  -3    3.67    0.57
   4   1  -3    5.24    0.83
   3   1  -3   20.79    1.04
   3   1  -3   20.06    1.25
   2   1  -3   23.51    1.16
   2   1  -3   24.00    0.94
   1   1  -3  532.82   13.87
   1   1  -3  554.28   14.98
   0   1  -3   54.28    1.52
   0   1  -3   51.39    1.66
  -1   1  -3  155.56    4.52
  -1   1  -3  157.03    4.44
  -2   1  -3   24.88    1.24
   3  -1   3   30.88    1.67
   4  -1   3    7.43    1.01
   5  -1   3    2.48    0.79
   6   0  -3    0.31    0.67
   5   0  -3   -0.32    0.45
   4   0  -3    0.20    0.34
   4   0  -3    0.08    0.27
   3   0  -3    2.30    0.47
   3   0  -3    1.92    0.35
   2   0  -3   14.76    0.85
   2   0  -3   14.97    0.68
   1   0  -3   57.64    1.84
   1   0  -3   55.10    1.51
   0   0  -3    4.40    0.33
   0   0  -3    4.47    0.25
  -1   0  -3   66.75    2.16
  -1   0  -3   68.27    2.17
   1   0   3   66.52    2.18
   2   0   3   72.15    2.61
   3   0   3   12.59    1.02
   4   0   3    3.97    0.80
   5   0   3    2.67    0.80
   6  -1  -3   -0.23    0.64
   5  -1  -3    0.47    0.52
   4  -1  -3    0.00    0.34
   4  -1  -3   -0.09    0.22
   3  -1  -3    2.76    0.49
   3  -1  -3    3.41    0.44
   2  -1  -3    1.25    0.21
   2  -1  -3    1.44    0.29
   1  -1  -3  217.27    6.14
  -1   1   3  217.41    5.67
   0  -1  -3   12.04    0.58
   0  -1  -3   12.48    0.59
   0   1   3   11.97    0.50
  -1  -1  -3    4.33    0.37
   1   1   3    3.60    0.39
   2   1   3   -0.04    0.15
   3   1   3    5.24    0.75
   4   1   3    2.56    0.68
   5   1   3    0.10    0.53
   6  -2  -3    0.08    0.66
   5  -2  -3    2.10    0.71
   4  -2  -3    3.10    0.64
   3  -2  -3    9.26    0.76
   3  -2  -3    8.22    0.65
  -3   2   3    8.07    0.62
   2  -2  -3    2.91    0.36
  -2   2   3    2.33    0.28
   1  -2  -3   58.47    2.39
   1  -2  -3   62.95    1.94
  -1   2   3   65.06    1.76
   0  -2  -3    9.81    0.51
   0   2   3   10.89    0.49
  -1  -2  -3   25.03    1.07
   1   2   3   25.20    1.09
   2   2   3    2.58    0.45
   3   2   3   17.67    1.22
   4   2   3    0.03    0.38
   5   2   3   -0.02    0.48
   5  -3  -3    2.92    0.76
   4  -3  -3    8.30    0.90
   3  -3  -3   12.77    0.88
  -3   3   3   12.28    0.79
   2  -3  -3   45.46    1.67
   2  -3  -3   46.67    2.18
  -2   3   3   46.79    1.58
   1  -3  -3   42.03    1.86
   1  -3  -3   46.47    1.48
  -1   3   3   44.98    1.36
   0  -3  -3    6.94    0.42
   0  -3  -3    6.87    0.51
   0   3   3    6.90    0.41
   1   3   3   90.03    2.84
   2   3   3    6.63    0.66
   3   3   3   20.12    1.30
   4   3   3    0.98    0.53
   5   3   3    1.38    0.68
   5  -4  -3   -0.06    0.44
   4  -4  -3    4.60    0.85
   4  -4  -3    4.67    0.69
   3  -4  -3   17.24    1.34
   3  -4  -3   19.29    1.05
  -3   4   3   19.69    1.05
   2  -4  -3   52.92    1.82
   2  -4  -3   53.90    2.42
  -2   4   3   54.37    1.81
   1  -4  -3   57.74    2.38
   1  -4  -3   59.83    1.96
  -1   4   3   61.61    1.84
   0  -4  -3  135.89    3.95
   0  -4  -3  131.98    4.47
   1   4   3   37.95    1.52
   2   4   3   37.59    1.68
   3   4   3    0.20    0.29
   4   4   3    5.39    0.88
   5  -5  -3    0.13    0.48
   4  -5  -3    1.56    0.58
   3  -5  -3   15.76    1.25
   3  -5  -3   14.96    0.87
  -3   5   3   14.93    0.95
   2  -5  -3   22.11    1.38
   2  -5  -3   21.67    0.89
  -2   5   3   21.86    1.01
   1  -5  -3   11.92    0.89
   1  -5  -3   14.26    0.66
  -1   5   3   13.17    0.66
   0  -5  -3  123.57    3.75
   0  -5  -3  127.24    4.33
   1   5   3   27.97    1.26
   2   5   3   26.06    1.38
   3   5   3    9.91    1.00
   4   5   3    3.47    0.78
   5  -6  -3    0.23    0.50
   4  -6  -3    0.52    0.44
   3  -6  -3    1.98    0.58
   2  -6  -3   11.27    0.98
  -2   6   3   12.09    0.75
   1  -6  -3    5.97    0.40
   1  -6  -3    6.23    0.70
  -1   6   3    6.20    0.48
   0  -6  -3    7.17    0.73
   0  -6  -3    6.45    0.50
   0   6   3    7.04    0.55
   1   6   3   10.40    0.74
   2   6   3   11.95    0.90
   3   6   3    5.01    0.76
   4   6   3    1.00    0.59
   5  -7  -3    0.04    0.48
   4  -7  -3    0.53    0.48
   3  -7  -3    0.33    0.32
   2  -7  -3   -0.05    0.24
  -2   7   3    0.23    0.24
   1  -7  -3    6.08    0.74
  -1   7   3    6.01    0.55
   0  -7  -3    0.37    0.37
   0   7   3    0.71    0.27
   1   7   3    2.23    0.44
   3   7   3   -0.01    0.29
   4   7   3   -0.01    0.43
   5  -8  -3   -0.17    0.47
   4  -8  -3    0.15    0.38
   3  -8  -3    1.33    0.55
   2  -8  -3    0.24    0.36
  -2   8   3    1.02    0.37
   1  -8  -3    0.01    0.32
  -1   8   3   -0.06    0.23
   0  -8  -3    0.91    0.49
   0   8   3    1.68    0.37
   1   8   3   -0.12    0.21
   2   8   3    0.53    0.39
   3   8   3   -0.06    0.35
   5  -9  -3    0.22    0.57
   4  -9  -3    0.47    0.53
   3  -9  -3    0.87    0.52
   2  -9  -3   -0.63    0.29
  -2   9   3   -0.08    0.28
   1  -9  -3    4.81    0.77
  -1   9   3    2.08    0.41
   0  -9  -3    2.36    0.71
   0   9   3    1.41    0.41
   1   9   3    3.46    0.60
   2   9   3    0.14    0.35
   3   9   3    0.12    0.39
   4 -10  -3    0.20    0.56
   3 -10  -3    1.86    0.68
   2 -10  -3    6.00    0.94
   1 -10  -3    2.86    0.70
  -1  10   3    0.81    0.34
   0 -10  -3    2.85    0.80
   0  10   3    1.61    0.46
   1  10   3    1.00    0.47
   2  10   3    1.14    0.49
   4 -11  -3   -0.14    0.50
   3 -11  -3    0.53    0.58
   2 -11  -3    3.56    0.83
   1 -11  -3    1.95    0.67
  -1  11   3    0.63    0.36
   0 -11  -3    2.40    0.88
   0  11   3    3.15    0.62
   1  11   3    0.38    0.38
   2  11   3    1.27    0.54
   3 -12  -3   -0.10    0.57
   2 -12  -3    0.41    0.61
   1 -12  -3    0.25    0.63
  -1  12   3    1.04    0.44
   0 -12  -3    2.17    0.96
   0  12   3    0.35    0.46
   1  12   3   -0.11    0.42
   3 -13  -3   -0.61    0.55
   2 -13  -3    0.78    0.71
   1 -13  -3    0.34    0.72
   0  13   3    0.57    0.56
   1 -14  -3   -0.52    0.70
   0  15  -4    0.15    0.42
  -1  15  -4    0.03    0.42
  -2  15  -4    0.35    0.50
   2 -15   4   -0.76    0.55
   1  14  -4   -0.28    0.33
   0  14  -4    0.17    0.36
  -1  14  -4    0.00    0.39
  -2  14  -4    0.10    0.41
   2 -14   4    0.67    0.65
  -3  14  -4   -0.28    0.50
   2  13  -4    1.90    0.59
   1  13  -4    0.64    0.41
   0  13  -4    2.46    0.57
  -1  13  -4    1.72    0.53
  -2  13  -4    0.39    0.38
   2 -13   4    0.75    0.57
  -3  13  -4   -0.15    0.48
  -4  13  -4    0.32    0.67
   2  12  -4    1.54    0.54
   1  12  -4    4.27    0.72
   0  12  -4    3.42    0.59
  -1  12  -4    4.74    0.69
   1 -12   4    5.08    0.86
  -2  12  -4    3.09    0.64
   2 -12   4    2.39    0.61
  -3  12  -4    1.07    0.55
   3 -12   4    0.66    0.49
  -4  12  -4    0.39    0.69
   3  11  -4    0.92    0.48
   2  11  -4    2.38    0.55
   1  11  -4    1.43    0.44
   0  11  -4    2.22    0.48
  -1  11  -4   16.81    1.12
   1 -11   4   14.34    1.19
  -2  11  -4    4.61    0.71
   2 -11   4    4.62    0.69
  -3  11  -4    3.11    0.72
   3 -11   4    2.84    0.62
  -4  11  -4    1.23    0.74
   4  10  -4    0.82    0.66
   3  10  -4    1.40    0.48
   3  10  -4    1.61    0.58
   2  10  -4    0.60    0.31
   1  10  -4    9.18    0.83
   0  10  -4    4.97    0.60
  -1  10  -4    4.05    0.59
   1 -10   4    3.21    0.63
  -2  10  -4    3.81    0.65
   2 -10   4    4.62    0.65
  -3  10  -4    4.11    0.75
   3 -10   4    3.32    0.60
  -4  10  -4    1.66    0.77
  -5  10  -4   -0.33    0.70
   4   9  -4   -0.11    0.40
   4   9  -4   -0.16    0.48
   3   9  -4    0.08    0.39
   3   9  -4   -0.15    0.31
   2   9  -4   -0.25    0.30
   2   9  -4   -0.12    0.22
   1   9  -4   12.24    0.85
   0   9  -4    5.72    0.60
  -1   9  -4    1.12    0.35
   1  -9   4    1.04    0.40
  -2   9  -4    1.82    0.48
   2  -9   4    1.98    0.44
  -3   9  -4    2.16    0.58
  -4   9  -4    0.06    0.42
  -5   9  -4   -0.21    0.58
   4   8  -4    0.41    0.40
   4   8  -4    0.21    0.47
   3   8  -4    2.32    0.62
   3   8  -4    2.63    0.53
   2   8  -4    0.17    0.31
   2   8  -4    0.20    0.22
   1   8  -4    8.84    0.67
   1   8  -4    8.32    0.64
   0   8  -4    1.77    0.35
  -1   8  -4    0.11    0.19
   1  -8   4   -0.33    0.22
  -2   8  -4   -0.29    0.18
   2  -8   4    0.05    0.23
  -3   8  -4    0.06    0.30
  -4   8  -4    1.18    0.61
  -5   8  -4    0.04    0.55
   5   7  -4    0.05    0.56
   5   7  -4    0.35    0.50
   4   7  -4    0.35    0.36
   4   7  -4    1.03    0.56
   3   7  -4    4.83    0.76
   3   7  -4    5.69    0.66
   2   7  -4   10.94    0.76
   2   7  -4   10.93    0.87
   1   7  -4   28.70    1.27
   1   7  -4   28.99    1.25
   0   7  -4   23.40    1.07
   0   7  -4   23.10    0.88
  -1   7  -4   37.85    1.54
   1  -7   4   36.83    1.59
  -2   7  -4    6.28    0.69
   2  -7   4    6.66    0.56
  -3   7  -4    0.13    0.29
  -4   7  -4    1.63    0.59
  -5   7  -4   -0.10    0.47
   5   6  -4    2.36    0.68
   5   6  -4    2.39    0.88
   4   6  -4    3.85    0.82
   4   6  -4    5.37    0.71
   3   6  -4   10.29    1.01
   3   6  -4    9.56    0.74
   2   6  -4   26.21    1.19
   2   6  -4   26.49    1.39
   1   6  -4   52.31    1.90
   1   6  -4   49.61    1.77
   0   6  -4   26.23    1.08
   0   6  -4   25.41    0.93
  -1   6  -4   29.61    1.26
  -1   6  -4   29.55    0.99
   1  -6   4   29.68    1.27
  -2   6  -4   39.12    1.71
   2  -6   4   39.28    1.57
  -3   6  -4   19.32    1.32
  -4   6  -4    2.30    0.69
  -5   6  -4   -0.15    0.50
   5   5  -4    4.12    1.00
   4   5  -4    5.19    0.66
   4   5  -4    6.14    0.96
   3   5  -4   11.50    1.01
   3   5  -4   11.72    0.80
   2   5  -4   35.12    1.64
   2   5  -4   36.33    1.41
   1   5  -4   92.27    2.95
   1   5  -4   88.48    2.72
   0   5  -4   89.43    2.61
   0   5  -4   85.50    2.63
  -1   5  -4   68.59    2.28
  -1   5  -4   66.67    2.07
   1  -5   4   70.26    2.36
  -2   5  -4   34.86    1.58
   2  -5   4   35.83    1.40
  -3   5  -4   36.15    1.86
  -4   5  -4    3.71    0.80
  -5   5  -4    0.71    0.61
   5  -5   4    1.48    0.69
   5   4  -4    0.44    0.52
   4   4  -4    3.78    0.77
   4   4  -4    2.51    0.50
   3   4  -4   18.71    1.27
   3   4  -4   17.48    0.95
   2   4  -4   20.84    1.15
   2   4  -4   21.14    0.93
   1   4  -4   60.43    2.12
   1   4  -4   62.90    1.92
   0   4  -4  129.23    3.65
   0   4  -4  123.36    3.56
  -1   4  -4  157.47    4.56
  -1   4  -4  154.36    4.55
   1  -4   4  165.80    4.96
  -2   4  -4   24.65    1.27
   2  -4   4   25.20    1.03
  -3   4  -4   18.81    1.28
  -4   4  -4   12.24    1.24
   5  -4   4    1.61    0.72
   5   3  -4    0.15    0.53
   4   3  -4    0.01    0.35
   4   3  -4    0.48    0.31
   3   3  -4   10.49    0.70
   3   3  -4   10.47    0.97
   2   3  -4   17.70    0.79
   2   3  -4   18.14    1.04
   1   3  -4   32.18    1.28
   1   3  -4   33.16    1.09
   0   3  -4   72.24    2.17
   0   3  -4   69.79    2.10
  -1   3  -4   14.11    0.64
  -1   3  -4   13.15    0.70
  -2   3  -4   33.60    1.54
   2  -3   4   33.49    1.26
  -3   3  -4   11.75    0.98
  -4   3  -4    4.12    0.81
   4  -3   4    3.98    0.81
   5  -3   4    0.72    0.63
   5   2  -4   -0.11    0.49
   4   2  -4    0.04    0.24
   4   2  -4    0.03    0.34
   3   2  -4    4.01    0.63
   3   2  -4    4.25    0.46
   2   2  -4    2.29    0.39
   2   2  -4    2.07    0.24
   1   2  -4   24.43    1.03
   1   2  -4   25.53    0.83
   0   2  -4   21.68    0.85
   0   2  -4   21.85    0.78
  -1   2  -4    1.22    0.23
  -1   2  -4    0.91    0.22
  -2   2  -4   36.47    1.62
  -3   2  -4    0.39    0.27
   4  -2   4    3.49    0.82
   5  -2   4    0.03    0.51
   5   1  -4    1.74    0.72
   4   1  -4    1.16    0.50
   4   1  -4    0.82    0.34
   3   1  -4   13.75    1.02
   3   1  -4   14.00    0.78
   2   1  -4   31.90    1.08
   2   1  -4   30.97    1.40
   1   1  -4   93.52    2.90
   1   1  -4   93.30    2.48
   0   1  -4   39.48    1.21
   0   1  -4   37.71    1.37
  -1   1  -4    5.58    0.42
  -1   1  -4    5.64    0.45
  -2   1  -4    3.06    0.47
   3  -1   4    4.92    0.76
   4  -1   4    0.46    0.43
   5  -1   4    0.37    0.55
   6   0  -4    0.70    0.73
   5   0  -4    0.79    0.55
   4   0  -4   12.90    1.14
   3   0  -4   27.47    1.47
   3   0  -4   26.92    1.16
   2   0  -4   16.14    0.90
   2   0  -4   16.02    0.65
   1   0  -4   34.90    1.27
   0   0  -4  138.53    3.79
   0   0  -4  141.39    4.13
  -1   0  -4   45.70    1.64
   1   0   4   46.33    1.69
   2   0   4   74.37    2.73
   3   0   4   10.91    1.05
   4   0   4    4.61    0.87
   5   0   4   -0.49    0.43
   6  -1  -4    0.95    0.76
   5  -1  -4    0.91    0.56
   4  -1  -4   11.47    1.10
   3  -1  -4   23.36    1.31
   3  -1  -4   24.08    1.08
   2  -1  -4   74.43    2.56
   2  -1  -4   74.85    2.18
   1  -1  -4   35.33    1.25
   0  -1  -4  127.64    4.01
   0  -1  -4  140.60    4.36
   0   1   4  139.26    3.73
  -1  -1  -4   74.59    2.44
   1   1   4   72.72    2.43
   2   1   4   49.37    2.04
   3   1   4   10.22    1.02
   4   1   4   10.26    1.18
   5   1   4    0.36    0.55
   6  -2  -4    0.22    0.66
   5  -2  -4    1.01    0.58
   4  -2  -4    4.97    0.75
   3  -2  -4   11.86    0.86
   3  -2  -4   11.41    0.72
   2  -2  -4  120.32    3.73
  -2   2   4  117.81    3.33
   1  -2  -4   42.54    1.49
   1  -2  -4   43.82    1.91
  -1   2   4   45.85    1.27
   0  -2  -4  168.82    4.83
   0  -2  -4  161.35    5.28
   0   2   4  164.63    4.50
  -1  -2  -4  107.51    3.40
   1   2   4  107.02    3.32
   2   2   4   44.87    1.91
   3   2   4    2.50    0.60
   4   2   4    8.22    1.08
   5   2   4    0.58    0.58
   5  -3  -4    0.01    0.46
   4  -3  -4    1.20    0.42
   3  -3  -4    8.11    0.68
  -3   3   4    8.29    0.59
   2  -3  -4    4.95    0.69
   2  -3  -4    5.06    0.43
  -2   3   4    4.56    0.37
   1  -3  -4   67.00    2.71
   1  -3  -4   70.37    2.26
  -1   3   4   71.79    2.02
   0  -3  -4   35.28    1.29
   0   3   4   33.79    1.21
  -1  -3  -4   27.54    1.24
   1   3   4   28.57    1.24
   2   3   4   25.76    1.36
   3   3   4   22.11    1.42
   4   3   4    2.71    0.69
   5  -4  -4    0.55    0.51
   4  -4  -4    0.16    0.30
   4  -4  -4   -0.06    0.33
   3  -4  -4    0.32    0.32
   3  -4  -4    0.02    0.22
   2  -4  -4    0.35    0.30
   2  -4  -4    0.25    0.17
  -2   4   4    0.69    0.21
   1  -4  -4    7.13    0.66
   1  -4  -4    7.74    0.53
  -1   4   4    6.77    0.41
   0  -4  -4   -0.27    0.16
   0  -4  -4    0.02    0.23
   0   4   4   -0.05    0.13
  -1  -4  -4    7.44    0.72
  -1  -4  -4    6.19    0.59
   1   4   4    6.43    0.60
   2   4   4    2.47    0.47
   3   4   4    5.91    0.79
   4   4   4    0.46    0.49
   5  -5  -4   -0.20    0.43
   4  -5  -4    1.03    0.55
   3  -5  -4    2.49    0.61
   2  -5  -4    1.46    0.43
   2  -5  -4    1.66    0.26
  -2   5   4    1.80    0.31
   1  -5  -4    1.58    0.31
   1  -5  -4    2.09    0.44
  -1   5   4    2.10    0.29
   0  -5  -4    1.02    0.28
   0  -5  -4    1.15    0.36
   0   5   4    0.86    0.26
   1   5   4   -0.06    0.16
   2   5   4    0.22    0.25
   3   5   4    0.45    0.36
   4   5   4    0.59    0.52
   5  -6  -4    0.12    0.47
   4  -6  -4    1.79    0.64
   3  -6  -4    3.22    0.72
   2  -6  -4    6.86    0.85
  -2   6   4    6.16    0.57
   1  -6  -4    5.88    0.72
  -1   6   4    6.18    0.49
   0  -6  -4    8.40    0.78
   0  -6  -4    7.60    0.58
   1   6   4   13.87    0.91
   2   6   4    1.07    0.36
   3   6   4    0.46    0.35
   4   6   4    0.36    0.48
   5  -7  -4    1.83    0.73
   4  -7  -4    1.49    0.63
   3  -7  -4    2.40    0.66
   2  -7  -4    6.64    0.87
  -2   7   4    7.16    0.65
   1  -7  -4   19.69    1.31
  -1   7   4   18.93    0.97
   0  -7  -4    9.07    0.95
   0   7   4    9.68    0.71
   1   7   4    6.32    0.69
   2   7   4   12.98    1.05
   3   7   4    0.76    0.40
   5  -8  -4    0.00    0.49
   4  -8  -4    1.55    0.66
   3  -8  -4    1.34    0.57
   2  -8  -4   17.24    1.37
   1  -8  -4   10.11    0.97
  -1   8   4    9.53    0.72
   0  -8  -4    9.22    1.01
   0   8   4    9.02    0.74
   1   8   4    1.43    0.43
   2   8   4    7.40    0.87
   3   8   4    1.27    0.58
   5  -9  -4    0.38    0.54
   4  -9  -4    0.47    0.54
   3  -9  -4    2.53    0.74
   2  -9  -4    3.43    0.76
   1  -9  -4    1.52    0.58
  -1   9   4    1.07    0.39
   0  -9  -4    6.40    0.97
   0   9   4    7.02    0.75
   1   9   4    6.79    0.83
   2   9   4    0.83    0.42
   3   9   4    0.26    0.45
   4 -10  -4   -0.14    0.49
   3 -10  -4    0.53    0.54
   2 -10  -4   -0.10    0.42
   1 -10  -4    0.53    0.52
  -1  10   4    0.88    0.38
   0 -10  -4    1.20    0.69
   0  10   4    0.74    0.40
   1  10   4    0.97    0.44
   2  10   4    0.59    0.47
   4 -11  -4    0.09    0.59
   3 -11  -4    0.19    0.56
   2 -11  -4   -0.12    0.47
   1 -11  -4    0.14    0.51
   0 -11  -4   -0.61    0.62
   0  11   4   -0.50    0.36
   1  11   4   -0.16    0.37
   2  11   4    0.02    0.44
   3 -12  -4   -0.65    0.56
   2 -12  -4    0.04    0.52
   1 -12  -4    0.15    0.62
   0 -12  -4   -0.14    0.78
   0  12   4    0.03    0.44
   1  12   4    0.31    0.46
   2 -13  -4    0.23    0.71
   1 -13  -4    0.60    0.82
   0  15  -5    0.04    0.41
  -1  15  -5    0.97    0.56
  -2  15  -5    1.06    0.56
   1  14  -5    0.99    0.51
   0  14  -5    0.73    0.46
  -1  14  -5    0.47    0.43
  -2  14  -5    1.35    0.61
   2 -14   5    1.20    0.64
  -3  14  -5    0.19    0.49
   2  13  -5    0.20    0.39
   1  13  -5    0.50    0.42
   0  13  -5    1.99    0.53
  -1  13  -5    1.17    0.47
  -2  13  -5    0.73    0.45
   2 -13   5    1.19    0.58
  -3  13  -5    1.12    0.60
   3  12  -5   -0.16    0.42
   2  12  -5   -0.21    0.32
   1  12  -5    0.41    0.37
   0  12  -5    0.30    0.29
  -1  12  -5    1.91    0.54
  -2  12  -5    0.03    0.30
   2 -12   5   -0.03    0.41
  -3  12  -5    0.59    0.49
  -4  12  -5    0.02    0.54
   3  11  -5    0.18    0.40
   2  11  -5    0.67    0.39
   1  11  -5    1.91    0.49
   0  11  -5    0.09    0.24
  -1  11  -5    1.73    0.48
  -2  11  -5    0.39    0.37
   2 -11   5    0.27    0.38
  -3  11  -5    0.00    0.39
  -4  11  -5    0.66    0.55
   4  10  -5    0.23    0.61
   4  10  -5    0.60    0.53
   3  10  -5    1.98    0.51
   3  10  -5    1.47    0.58
   2  10  -5    1.13    0.36
   1  10  -5   24.07    1.32
   0  10  -5    0.70    0.30
  -1  10  -5    6.40    0.73
   1 -10   5    7.13    0.85
  -2  10  -5    0.06    0.23
   2 -10   5   -0.03    0.31
  -3  10  -5   -0.10    0.34
  -4  10  -5   -0.23    0.49
   4   9  -5    0.14    0.48
   4   9  -5    0.76    0.50
   3   9  -5    4.48    0.67
   3   9  -5    6.83    0.92
   2   9  -5    4.13    0.57
   2   9  -5    3.87    0.61
   1   9  -5   34.69    1.57
   0   9  -5   21.76    1.14
  -1   9  -5    7.82    0.75
   1  -9   5    6.78    0.75
  -2   9  -5   14.83    1.05
   2  -9   5   12.98    0.92
  -3   9  -5    9.21    1.05
  -4   9  -5    0.07    0.46
  -5   9  -5    0.30    0.66
   4   8  -5    4.01    0.89
   4   8  -5    2.83    0.65
   3   8  -5    5.91    0.71
   3   8  -5    7.23    0.93
   1   8  -5   19.92    1.02
   1   8  -5   19.35    1.03
   0   8  -5   24.78    1.17
  -1   8  -5   34.07    1.53
   1  -8   5   34.99    1.62
  -2   8  -5   15.10    1.05
   2  -8   5   16.49    0.95
  -3   8  -5   20.79    1.42
  -4   8  -5    2.90    0.81
  -5   8  -5    1.14    0.73
   5   7  -5    0.06    0.56
   4   7  -5    2.31    0.56
   4   7  -5    3.76    0.84
   3   7  -5    3.99    0.71
   3   7  -5    3.33    0.53
   2   7  -5   26.79    1.25
   2   7  -5   25.59    1.40
   1   7  -5   15.88    0.87
   1   7  -5   15.88    0.88
   0   7  -5   26.93    0.99
   0   7  -5   24.83    1.14
  -1   7  -5   37.51    1.23
  -1   7  -5   35.34    1.52
   1  -7   5   37.05    1.60
  -2   7  -5   36.37    1.68
   2  -7   5   36.67    1.52
  -3   7  -5    3.00    0.65
  -4   7  -5    6.12    0.98
  -5   7  -5    0.36    0.61
   5   6  -5    0.08    0.57
   4   6  -5    0.19    0.34
   4   6  -5    0.27    0.42
   3   6  -5    3.11    0.48
   3   6  -5    2.63    0.59
   2   6  -5   18.88    0.97
   2   6  -5   19.55    1.16
   1   6  -5    1.92    0.32
   1   6  -5    1.82    0.31
   0   6  -5  104.50    3.21
   0   6  -5  107.60    3.16
  -1   6  -5    9.42    0.67
  -1   6  -5   10.67    0.52
   1  -6   5   10.11    0.67
  -2   6  -5   27.20    1.38
   2  -6   5   26.74    1.15
  -3   6  -5    0.34    0.36
  -4   6  -5    4.90    0.91
  -5   6  -5    1.00    0.62
   5   5  -5   -0.06    0.53
   4   5  -5    0.14    0.29
   4   5  -5   -0.08    0.36
   3   5  -5   -0.17    0.19
   3   5  -5    0.30    0.32
   2   5  -5    1.32    0.28
   2   5  -5    1.78    0.41
   1   5  -5    0.50    0.18
   1   5  -5    0.01    0.13
   0   5  -5    5.36    0.36
   0   5  -5    5.31    0.41
  -1   5  -5   12.04    0.58
  -1   5  -5    9.71    0.65
   1  -5   5   10.20    0.62
  -2   5  -5   -0.02    0.18
   2  -5   5    0.17    0.15
  -3   5  -5    8.78    0.96
  -4   5  -5    1.90    0.60
   5  -5   5   -0.25    0.48
   5   4  -5   -0.16    0.50
   4   4  -5    2.91    0.71
   4   4  -5    0.91    0.35
   3   4  -5    9.33    0.66
   3   4  -5    8.53    0.91
   2   4  -5    6.51    0.46
   2   4  -5    7.04    0.67
   1   4  -5   19.80    0.95
   1   4  -5   20.44    0.83
   0   4  -5   56.14    1.87
   0   4  -5   61.54    1.91
  -1   4  -5    5.28    0.40
  -1   4  -5    4.60    0.45
  -2   4  -5    4.56    0.58
  -2   4  -5    3.74    0.44
   2  -4   5    3.27    0.29
  -3   4  -5   -0.17    0.21
  -4   4  -5    0.11    0.38
   5  -4   5    0.50    0.63
   5   3  -5    1.05    0.61
   4   3  -5    8.78    1.06
   4   3  -5    9.47    0.76
   3   3  -5   24.55    1.09
   3   3  -5   25.09    1.48
   2   3  -5   59.18    1.83
   2   3  -5   56.43    2.24
   1   3  -5    6.22    0.47
   1   3  -5    6.76    0.38
   0   3  -5   78.97    2.33
   0   3  -5   80.43    2.49
  -1   3  -5   57.45    1.98
  -2   3  -5   13.27    0.91
  -2   3  -5   13.66    0.82
  -3   3  -5   12.54    1.03
   4  -3   5    7.87    1.09
   5  -3   5   -0.16    0.49
   5   2  -5    1.72    0.71
   4   2  -5    9.56    1.08
   3   2  -5   20.53    1.30
   3   2  -5   21.70    0.98
   2   2  -5   77.70    2.26
   2   2  -5   76.63    2.76
   1   2  -5   58.66    2.01
   1   2  -5   59.30    1.69
   0   2  -5  113.33    3.16
   0   2  -5  114.20    3.46
  -1   2  -5  178.32    5.22
  -1   2  -5  188.60    5.37
  -2   2  -5   34.41    1.57
  -2   2  -5   31.59    1.44
  -3   2  -5   22.22    1.42
   4  -2   5    4.79    0.93
   5  -2   5    1.57    0.72
   5   1  -5    3.58    0.87
   4   1  -5    5.69    0.85
   3   1  -5   12.69    0.68
   3   1  -5   10.27    0.88
   2   1  -5    5.78    0.58
   2   1  -5    6.22    0.33
   1   1  -5  275.60    7.08
   1   1  -5  274.16    7.81
   0   1  -5  122.92    3.37
   0   1  -5  118.62    3.70
  -1   1  -5   73.36    2.45
  -1   1  -5   76.78    2.48
  -2   1  -5   87.29    3.02
  -2   1  -5   83.10    2.96
   3  -1   5   21.10    1.41
   4  -1   5    5.39    0.97
   5  -1   5    1.27    0.67
   5   0  -5    2.10    0.74
   4   0  -5    2.39    0.61
   3   0  -5    7.13    0.50
   3   0  -5    6.39    0.72
   2   0  -5   96.45    3.21
   2   0  -5   96.07    2.63
   1   0  -5   13.37    0.66
   0   0  -5   74.24    2.45
   0   0  -5   72.89    2.19
   0   0  -5   77.65    2.59
  -1   0  -5   14.26    0.78
   1   0   5   13.85    0.81
   2   0   5   50.54    2.12
   3   0   5   10.42    1.05
   4   0   5    7.01    1.05
   5   0   5    1.22    0.67
   6  -1  -5   -0.22    0.59
   5  -1  -5   -0.19    0.43
   4  -1  -5    0.22    0.32
   3  -1  -5    0.01    0.21
   2  -1  -5   19.00    0.98
   2  -1  -5   19.90    0.66
   1  -1  -5   15.20    0.71
   0  -1  -5   13.25    0.72
   0  -1  -5   14.77    0.77
   0   1   5   14.03    0.64
  -1  -1  -5   18.08    0.93
   1   1   5   17.16    0.93
   2   1   5    8.55    0.82
   3   1   5    5.07    0.78
   4   1   5    3.29    0.80
   5   1   5    0.33    0.60
   5  -2  -5   -0.04    0.48
   4  -2  -5    1.58    0.49
   3  -2  -5    2.99    0.49
   2  -2  -5   40.76    1.58
  -2   2   5   40.81    1.24
   1  -2  -5    0.02    0.11
   1  -2  -5    0.35    0.23
  -1   2   5    0.07    0.07
   0  -2  -5    0.41    0.22
   0  -2  -5    0.54    0.24
   0   2   5    0.52    0.17
  -1  -2  -5    0.14    0.24
  -1  -2  -5    0.17    0.21
   1   2   5    0.24    0.18
   2   2   5    3.46    0.56
   3   2   5    0.24    0.27
   4   2   5   -0.15    0.39
   5  -3  -5    0.38    0.50
   4  -3  -5    2.84    0.57
   3  -3  -5    1.53    0.38
   2  -3  -5   20.30    0.94
   2  -3  -5   21.18    1.38
  -2   3   5   19.24    0.77
   1  -3  -5   33.72    1.36
   1  -3  -5   33.03    1.64
  -1   3   5   34.60    1.09
   0  -3  -5   31.67    1.30
   0   3   5   34.66    1.24
  -1  -3  -5    4.86    0.54
  -1  -3  -5    6.43    0.63
   1   3   5    5.51    0.55
   2   3   5   23.60    1.33
   3   3   5    0.08    0.30
   4   3   5    0.83    0.50
   5  -4  -5    0.08    0.49
   4  -4  -5    3.73    0.84
   4  -4  -5    3.97    0.65
   3  -4  -5    5.90    0.89
   3  -4  -5    7.08    0.65
   2  -4  -5   17.37    1.25
   2  -4  -5   17.68    0.83
  -2   4   5   17.13    0.78
   1  -4  -5    7.55    0.72
   1  -4  -5    9.20    0.62
  -1   4   5    8.43    0.47
   0  -4  -5   38.57    1.72
   0  -4  -5   38.75    1.51
   0   4   5   39.19    1.44
  -1  -4  -5   18.58    1.05
  -1  -4  -5   19.61    1.15
   1   4   5   18.04    1.03
   2   4   5   33.24    1.65
   3   4   5    4.56    0.74
   4   4   5    0.94    0.54
   5  -5  -5    0.52    0.55
   4  -5  -5    2.77    0.75
   3  -5  -5   11.29    1.12
   2  -5  -5   19.49    1.37
   2  -5  -5   18.90    0.91
   1  -5  -5   48.14    1.71
   1  -5  -5   42.96    2.08
  -1   5   5   43.80    1.54
   0  -5  -5   20.78    1.21
   0  -5  -5   23.03    1.06
   0   5   5   19.15    0.97
  -1  -5  -5   21.96    1.37
   1   5   5   22.46    1.17
   2   5   5    1.99    0.48
   3   5   5    7.65    0.93
   4   5   5    2.32    0.73
   5  -6  -5    0.29    0.49
   4  -6  -5    1.94    0.67
   3  -6  -5    5.05    0.88
   2  -6  -5    7.14    0.89
   1  -6  -5   26.22    1.56
  -1   6   5   27.91    1.16
   0  -6  -5   17.45    1.18
   0  -6  -5   17.57    0.95
   0   6   5   16.77    0.94
  -1  -6  -5    0.65    0.40
   2   6   5    6.53    0.77
   3   6   5    2.40    0.64
   5  -7  -5    0.54    0.52
   4  -7  -5    0.49    0.54
   3  -7  -5    2.09    0.64
   2  -7  -5    0.07    0.29
   1  -7  -5    1.17    0.49
  -1   7   5    1.50    0.34
   0  -7  -5    1.11    0.53
   0   7   5    0.59    0.28
   1   7   5    7.20    0.76
   2   7   5    2.21    0.54
   3   7   5    1.24    0.49
   5  -8  -5    0.22    0.51
   4  -8  -5   -0.44    0.35
   3  -8  -5   -0.17    0.34
   2  -8  -5   -0.19    0.31
   1  -8  -5   -0.26    0.35
  -1   8   5    0.09    0.26
   0  -8  -5    0.41    0.48
   0   8   5    0.03    0.22
   1   8   5   -0.02    0.30
   2   8   5    0.11    0.31
   3   8   5    0.32    0.46
   4  -9  -5    0.10    0.50
   3  -9  -5    0.61    0.53
   2  -9  -5    0.37    0.46
   1  -9  -5    1.16    0.60
   0  -9  -5   -0.16    0.51
   0   9   5    0.11    0.30
   1   9   5    0.59    0.41
   2   9   5   -0.15    0.36
   4 -10  -5    0.26    0.55
   3 -10  -5    0.10    0.46
   2 -10  -5    0.09    0.45
   1 -10  -5    0.42    0.52
   0 -10  -5    2.15    0.78
   0  10   5    2.40    0.57
   1  10   5   -0.05    0.37
   2  10   5    0.52    0.47
   4 -11  -5   -0.19    0.54
   3 -11  -5    1.18    0.77
   2 -11  -5   -0.34    0.44
   1 -11  -5    1.67    0.74
   0 -11  -5    0.79    0.76
   0  11   5    0.25    0.42
   1  11   5    0.79    0.53
   3 -12  -5    0.48    0.76
   2 -12  -5    0.28    0.61
   1 -12  -5    0.00    0.61
   0 -12  -5    0.18    0.82
   1  12   5    0.06    0.53
   2 -13  -5   -0.43    0.69
   1 -13  -5   -0.39    0.72
   0  15  -6   -0.14    0.38
  -1  15  -6    0.34    0.44
  -2  15  -6    0.02    0.43
   1  14  -6    0.08    0.39
   0  14  -6   -0.01    0.33
  -1  14  -6    0.04    0.32
  -2  14  -6    0.10    0.38
  -3  14  -6    0.70    0.55
   2  13  -6   -0.05    0.38
   1  13  -6    0.97    0.45
   0  13  -6    1.11    0.46
  -1  13  -6    1.08    0.47
  -2  13  -6    0.77    0.43
   2 -13   6    0.53    0.53
  -3  13  -6    0.59    0.50
   3  12  -6    1.51    0.57
   2  12  -6    1.14    0.46
   1  12  -6    7.18    0.84
   0  12  -6    2.93    0.58
  -1  12  -6    3.63    0.65
  -2  12  -6    0.23    0.33
   2 -12   6    0.30    0.47
  -3  12  -6    1.22    0.61
  -4  12  -6   -0.02    0.59
   3  11  -6    1.39    0.51
   2  11  -6    7.19    0.82
   1  11  -6    5.93    0.72
   0  11  -6   13.38    0.99
  -1  11  -6    6.65    0.78
  -2  11  -6    7.78    0.89
   2 -11   6    5.37    0.78
  -3  11  -6    3.17    0.73
  -4  11  -6    0.69    0.62
   4  10  -6    0.80    0.66
   4  10  -6    0.08    0.48
   3  10  -6    1.59    0.58
   3  10  -6    1.82    0.51
   2  10  -6    3.25    0.56
   1  10  -6   -0.19    0.23
   0  10  -6   26.16    1.37
  -1  10  -6    8.48    0.83
  -2  10  -6   13.45    1.06
   2 -10   6   13.02    1.01
  -3  10  -6    3.53    0.73
  -4  10  -6    1.01    0.63
   4   9  -6   -0.09    0.40
   4   9  -6   -0.01    0.47
   3   9  -6    0.04    0.35
   3   9  -6    0.44    0.34
   2   9  -6    5.17    0.68
   2   9  -6    6.29    0.67
   1   9  -6    5.77    0.63
   0   9  -6    3.30    0.49
  -1   9  -6    9.96    0.80
  -2   9  -6    6.54    0.78
   2  -9   6    5.78    0.66
  -3   9  -6    0.03    0.37
  -4   9  -6    2.03    0.74
  -5   9  -6    1.16    0.77
   4   8  -6    0.00    0.46
   4   8  -6   -0.33    0.37
   3   8  -6    0.34    0.36
   3   8  -6   -0.06    0.27
   2   8  -6    0.17    0.24
   2   8  -6    0.07    0.22
   1   8  -6    3.93    0.48
   1   8  -6    4.27    0.51
   0   8  -6    3.56    0.36
   0   8  -6    3.79    0.49
  -1   8  -6    0.68    0.28
  -2   8  -6    1.69    0.42
   2  -8   6    1.40    0.36
  -3   8  -6   -0.06    0.29
  -4   8  -6    1.03    0.61
  -5   8  -6   -0.22    0.56
   5   7  -6   -0.53    0.47
   4   7  -6    1.52    0.47
   4   7  -6    1.29    0.58
   3   7  -6    0.28    0.27
   3   7  -6    0.15    0.35
   2   7  -6    9.60    0.82
   2   7  -6   10.22    0.71
   1   7  -6    5.22    0.52
   1   7  -6    5.40    0.53
   0   7  -6    5.97    0.42
   0   7  -6    4.98    0.52
  -1   7  -6    0.93    0.25
  -1   7  -6    1.17    0.32
  -2   7  -6    1.92    0.45
  -3   7  -6    3.87    0.75
  -4   7  -6    0.20    0.48
  -5   7  -6   -0.31    0.48
   5   6  -6    1.64    0.74
   4   6  -6    1.34    0.47
   4   6  -6    1.96    0.64
   3   6  -6   19.36    1.34
   3   6  -6   18.53    1.04
   2   6  -6   14.51    0.99
   2   6  -6   14.53    0.82
   1   6  -6   16.14    0.88
   1   6  -6   14.85    0.79
   0   6  -6  100.38    3.08
   0   6  -6  100.72    3.10
  -1   6  -6   18.41    0.84
  -1   6  -6   19.36    1.01
  -2   6  -6    8.64    0.81
  -2   6  -6    9.44    0.65
  -3   6  -6    3.61    0.68
  -4   6  -6    1.54    0.63
  -5   6  -6    0.09    0.57
   5   5  -6   -0.04    0.46
   4   5  -6    3.82    0.79
   3   5  -6   20.78    1.06
   3   5  -6   22.83    1.44
   2   5  -6   37.67    1.72
   2   5  -6   37.81    1.42
   1   5  -6   71.36    2.22
   1   5  -6   68.33    2.40
   0   5  -6   29.22    1.18
   0   5  -6   29.95    1.15
  -1   5  -6   81.17    2.51
  -1   5  -6   73.69    2.56
  -2   5  -6   26.79    1.40
  -2   5  -6   27.50    1.24
  -3   5  -6   17.95    1.30
  -4   5  -6    7.34    1.03
   5  -5   6    0.61    0.65
   5   4  -6    1.28    0.69
   4   4  -6    6.21    0.92
   3   4  -6    4.47    0.68
   3   4  -6    5.17    0.49
   2   4  -6   38.60    1.71
   2   4  -6   37.77    1.36
   1   4  -6  108.17    3.36
   1   4  -6  101.78    3.02
   0   4  -6   76.70    2.35
  -1   4  -6   72.18    2.42
  -1   4  -6   72.79    2.38
  -2   4  -6   60.15    2.37
  -3   4  -6   15.53    1.20
  -4   4  -6    5.97    0.98
   5  -4   6    1.47    0.75
   5   3  -6    0.49    0.60
   4   3  -6    3.93    0.78
   3   3  -6    2.29    0.34
   3   3  -6    1.65    0.45
   2   3  -6   25.32    1.29
   2   3  -6   25.48    0.96
   1   3  -6   31.82    1.30
   1   3  -6   32.39    1.08
   0   3  -6  106.90    3.28
   0   3  -6  102.37    3.01
  -1   3  -6   25.32    1.08
  -1   3  -6   24.55    1.13
  -2   3  -6   46.89    1.87
  -2   3  -6   46.05    1.99
  -3   3  -6   28.61    1.66
   4  -3   6    3.99    0.87
   5  -3   6    1.53    0.78
   5   2  -6    0.03    0.43
   4   2  -6    0.28    0.37
   3   2  -6    1.37    0.24
   3   2  -6    1.47    0.42
   2   2  -6   41.59    1.31
   2   2  -6   40.47    1.74
   1   2  -6    3.78    0.24
   1   2  -6    3.78    0.38
   0   2  -6    3.85    0.41
   0   2  -6    3.49    0.29
  -1   2  -6    3.90    0.45
  -1   2  -6    4.93    0.49
  -2   2  -6   11.90    0.88
  -2   2  -6   11.67    0.81
  -3   2  -6    4.21    0.72
   4  -2   6    3.48    0.81
   5  -2   6    1.36    0.72
   5   1  -6    0.56    0.54
   4   1  -6    2.00    0.58
   3   1  -6    0.08    0.22
   2   1  -6   14.32    0.54
   2   1  -6   13.92    0.87
   1   1  -6    0.30    0.15
   1   1  -6    0.27    0.07
   0   1  -6    0.25    0.19
   0   1  -6    0.18    0.12
  -1   1  -6   35.14    1.44
  -1   1  -6   35.77    1.45
  -2   1  -6    1.75    0.41
  -2   1  -6    2.07    0.44
   3  -1   6   -0.06    0.25
   4  -1   6    0.24    0.45
   5  -1   6   -0.55    0.53
   5   0  -6   -0.18    0.46
   4   0  -6    6.19    0.86
   3   0  -6    3.64    0.57
   2   0  -6  116.80    3.83
   2   0  -6  119.94    3.12
   1   0  -6   21.58    0.94
   0   0  -6   34.36    1.39
   0   0  -6   34.40    1.39
   0   0   6   32.59    1.21
  -1   0  -6    7.14    0.60
   1   0   6    7.69    0.61
  -2   0  -6    5.56    0.66
   2   0   6    5.84    0.72
   3   0   6    0.25    0.29
   4   0   6    0.45    0.51
   5   0   6   -0.20    0.55
   5  -1  -6    2.67    0.78
   4  -1  -6    6.16    0.84
   3  -1  -6    7.41    0.75
   2  -1  -6   33.06    1.41
   1  -1  -6   50.46    1.79
   0  -1  -6   42.49    1.69
   0  -1  -6   45.15    1.75
   0   1   6   46.71    1.53
  -1  -1  -6   96.04    3.13
  -1  -1  -6   92.81    3.16
   1   1   6   95.12    3.10
  -2  -1  -6   36.10    1.72
   2   1   6   35.93    1.75
   3   1   6   10.68    1.08
   4   1   6    0.98    0.55
   5  -2  -6    1.67    0.66
   4  -2  -6    2.81    0.61
   3  -2  -6   27.59    1.41
   2  -2  -6    4.44    0.46
   1  -2  -6   44.06    1.69
   1  -2  -6   45.79    2.04
  -1   2   6   45.79    1.30
   0  -2  -6   54.71    2.07
   0  -2  -6   57.69    2.21
   0   2   6   60.00    1.90
  -1  -2  -6   29.73    1.29
  -1  -2  -6   28.11    1.35
   1   2   6   29.91    1.36
   2   2   6   35.48    1.72
   3   2   6   13.07    1.20
   4   2   6    5.61    0.98
   5  -3  -6    0.36    0.49
   4  -3  -6    0.93    0.46
   3  -3  -6   24.42    1.26
   2  -3  -6    5.80    0.48
   2  -3  -6    6.43    0.82
   1  -3  -6   53.66    2.03
   1  -3  -6   55.82    2.39
  -1   3   6   55.25    1.63
   0  -3  -6   53.67    2.00
   0  -3  -6   55.06    2.22
   0   3   6   55.92    1.87
  -1  -3  -6   38.87    1.67
  -1  -3  -6   37.22    1.65
   1   3   6   37.33    1.61
   2   3   6    0.17    0.27
   3   3   6   10.67    1.09
   4   3   6    1.82    0.68
   5  -4  -6    0.12    0.52
   4  -4  -6    0.65    0.39
   4  -4  -6    1.57    0.67
   3  -4  -6    0.15    0.22
   3  -4  -6    0.62    0.42
   2  -4  -6    8.08    0.57
   2  -4  -6    7.36    0.89
   1  -4  -6   19.35    1.25
   1  -4  -6   21.99    1.05
  -1   4   6   20.00    0.82
   0  -4  -6    4.74    0.53
   0   4   6    3.30    0.41
  -1  -4  -6   20.29    1.22
  -1  -4  -6   18.66    1.12
   1   4   6   22.05    1.16
   2   4   6    9.95    0.92
   3   4   6    3.34    0.68
   4   4   6    0.89    0.55
   5  -5  -6   -0.15    0.41
   4  -5  -6   -0.13    0.37
   3  -5  -6    0.19    0.34
   2  -5  -6   -0.04    0.24
   2  -5  -6   -0.02    0.21
   1  -5  -6   -0.15    0.26
   1  -5  -6    0.10    0.27
  -1   5   6    0.02    0.17
   0  -5  -6    0.76    0.38
   0  -5  -6    0.83    0.34
   0   5   6    1.69    0.35
  -1  -5  -6   -0.21    0.24
  -1  -5  -6   -0.11    0.46
   1   5   6    0.47    0.25
   2   5   6    4.73    0.69
   3   5   6    0.40    0.37
   4   5   6   -0.03    0.44
   5  -6  -6    0.30    0.52
   4  -6  -6    0.84    0.52
   3  -6  -6    0.68    0.41
   2  -6  -6    0.07    0.29
   1  -6  -6    5.65    0.78
  -1   6   6    4.58    0.46
   0  -6  -6    0.77    0.36
   0  -6  -6    0.89    0.45
   0   6   6    0.93    0.32
  -1  -6  -6    0.39    0.53
   1   6   6   -0.07    0.22
   2   6   6    0.89    0.41
   3   6   6    0.34    0.43
   5  -7  -6    0.51    0.61
   4  -7  -6    1.38    0.63
   3  -7  -6    2.54    0.71
   2  -7  -6    0.89    0.45
   1  -7  -6    4.21    0.76
   0  -7  -6    6.59    0.88
   0   7   6    6.71    0.69
   1   7   6    2.74    0.57
   2   7   6    0.51    0.37
   3   7   6    0.87    0.46
   5  -8  -6    0.56    0.64
   4  -8  -6    0.32    0.46
   3  -8  -6    0.55    0.47
   2  -8  -6    9.47    1.17
   1  -8  -6    1.38    0.56
   0  -8  -6    3.56    0.74
   0   8   6    3.36    0.57
   1   8   6    4.33    0.70
   2   8   6    0.85    0.48
   3   8   6    0.45    0.51
   4  -9  -6    0.36    0.57
   3  -9  -6    1.01    0.60
   2  -9  -6    2.52    0.76
   1  -9  -6    1.55    0.62
   0  -9  -6    1.07    0.64
   0   9   6    0.12    0.35
   1   9   6    1.74    0.56
   2   9   6    0.55    0.47
   4 -10  -6    0.15    0.59
   3 -10  -6    1.40    0.73
   2 -10  -6   -0.19    0.50
   1 -10  -6    1.18    0.68
   0 -10  -6    1.31    0.77
   1  10   6    0.11    0.40
   2  10   6    0.65    0.54
   3 -11  -6   -0.69    0.57
   2 -11  -6   -0.47    0.52
   1 -11  -6    0.23    0.58
   0 -11  -6   -0.23    0.74
   1  11   6    0.56    0.55
   2 -12  -6   -0.59    0.59
   1 -12  -6   -0.54    0.59
   0 -12  -6   -0.93    0.79
   0  15  -7    0.42    0.53
  -1  15  -7    0.54    0.48
   1  14  -7    0.21    0.37
   0  14  -7    3.11    0.72
  -1  14  -7    1.16    0.50
  -2  14  -7    0.57    0.48
  -3  14  -7    0.16    0.51
   2  13  -7    2.24    0.62
   1  13  -7    0.24    0.38
   0  13  -7    1.76    0.55
  -1  13  -7    4.64    0.77
  -2  13  -7    1.07    0.50
  -3  13  -7    0.44    0.55
   3  12  -7    0.02    0.38
   2  12  -7    0.14    0.36
   1  12  -7    2.03    0.51
   0  12  -7    3.42    0.64
  -1  12  -7    1.64    0.49
  -2  12  -7    2.42    0.63
  -3  12  -7    1.69    0.63
  -4  12  -7    0.60    0.64
   3  11  -7   -0.14    0.35
   2  11  -7    0.01    0.30
   1  11  -7    0.05    0.24
   0  11  -7    1.28    0.43
  -1  11  -7    0.35    0.31
  -2  11  -7    0.71    0.41
  -3  11  -7    0.61    0.47
  -4  11  -7    0.24    0.55
   4  10  -7    0.35    0.53
   4  10  -7    0.27    0.49
   3  10  -7    1.20    0.53
   3  10  -7    1.36    0.46
   2  10  -7    1.87    0.44
   1  10  -7    1.04    0.36
   0  10  -7    5.82    0.69
  -1  10  -7    0.13    0.24
  -2  10  -7    0.28    0.29
  -3  10  -7    0.56    0.45
  -4  10  -7   -0.10    0.50
   4   9  -7    1.83    0.66
   4   9  -7    1.72    0.58
   3   9  -7    2.02    0.48
   3   9  -7    2.64    0.64
   2   9  -7   13.01    0.92
   2   9  -7   13.95    1.02
   1   9  -7    2.50    0.42
   1   9  -7    2.78    0.47
   0   9  -7   13.30    0.90
  -1   9  -7    5.30    0.63
  -2   9  -7    3.32    0.61
  -3   9  -7    0.35    0.40
  -4   9  -7    0.57    0.55
   4   8  -7    2.96    0.78
   3   8  -7    3.03    0.52
   3   8  -7    3.13    0.66
   2   8  -7   39.41    1.70
   2   8  -7   42.45    1.92
   1   8  -7   30.16    1.37
   1   8  -7   30.90    1.39
   0   8  -7   17.31    0.97
   0   8  -7   15.78    0.80
  -1   8  -7   22.13    1.22
  -2   8  -7   14.64    1.06
  -3   8  -7    3.94    0.74
  -4   8  -7    1.88    0.70
   5   7  -7    1.04    0.62
   4   7  -7    2.18    0.69
   3   7  -7    2.55    0.46
   3   7  -7    2.58    0.58
   2   7  -7   17.84    1.13
   2   7  -7   17.33    0.95
   1   7  -7   29.33    1.30
   1   7  -7   31.50    1.36
   0   7  -7   53.10    1.85
   0   7  -7   52.66    1.96
  -1   7  -7   25.84    1.30
  -1   7  -7   28.61    1.16
  -2   7  -7   38.22    1.81
  -2   7  -7   37.56    1.54
  -3   7  -7   17.62    1.34
  -4   7  -7    1.93    0.67
  -5   7  -7    1.10    0.69
   5   6  -7    0.52    0.62
   4   6  -7    0.66    0.49
   3   6  -7   10.56    0.76
   3   6  -7   10.34    1.04
   2   6  -7    4.20    0.59
   2   6  -7    3.61    0.43
   1   6  -7   15.47    0.81
   0   6  -7   21.46    1.03
   0   6  -7   22.71    1.00
  -1   6  -7   53.19    2.04
  -1   6  -7   55.17    1.93
  -2   6  -7   18.82    1.00
  -2   6  -7   18.73    1.17
  -3   6  -7   10.36    1.09
  -4   6  -7    4.46    0.88
  -5   6  -7    1.21    0.72
   5   5  -7    0.30    0.53
   4   5  -7    0.19    0.40
   3   5  -7    6.22    0.81
   3   5  -7    5.57    0.55
   2   5  -7    0.74    0.32
   2   5  -7    1.00    0.25
   1   5  -7   47.74    1.79
   1   5  -7   46.09    1.61
   0   5  -7    1.93    0.31
   0   5  -7    2.16    0.31
  -1   5  -7   13.10    0.76
  -1   5  -7   12.28    0.78
  -2   5  -7    2.62    0.42
  -2   5  -7    2.79    0.52
  -3   5  -7    7.21    0.91
  -4   5  -7    1.18    0.56
   5  -5   7    1.26    0.77
   5   4  -7    0.09    0.54
   4   4  -7   -0.06    0.33
   3   4  -7    2.33    0.35
   3   4  -7    1.69    0.50
   2   4  -7    0.67    0.19
   2   4  -7    0.36    0.25
   1   4  -7    0.28    0.17
   1   4  -7    0.25    0.14
   0   4  -7    2.84    0.33
   0   4  -7    2.73    0.36
  -1   4  -7    0.36    0.24
  -1   4  -7    0.04    0.14
  -2   4  -7    1.59    0.37
  -2   4  -7    1.46    0.41
  -3   4  -7    0.77    0.38
  -4   4  -7    0.02    0.36
   5  -4   7    0.05    0.58
   5   3  -7    0.06    0.52
   4   3  -7    2.65    0.68
   3   3  -7    5.24    0.72
   2   3  -7   34.53    1.17
   2   3  -7   32.51    1.55
   1   3  -7   55.22    1.69
   1   3  -7   54.95    1.97
   0   3  -7   16.12    0.73
   0   3  -7   15.93    0.87
  -1   3  -7    1.99    0.36
  -1   3  -7    1.22    0.32
  -2   3  -7    6.03    0.70
  -2   3  -7    6.19    0.64
  -3   3  -7    1.27    0.48
   4  -3   7   -0.04    0.37
   5  -3   7    0.76    0.68
   5   2  -7    1.22    0.63
   4   2  -7    9.58    1.08
   3   2  -7   23.23    1.39
   2   2  -7   12.96    0.88
   2   2  -7   13.00    0.55
   1   2  -7   67.67    1.96
   1   2  -7   70.62    2.34
   0   2  -7   47.73    1.60
   0   2  -7   48.24    1.85
  -1   2  -7   46.69    1.79
  -1   2  -7   45.90    1.78
  -2   2  -7   35.64    1.62
  -2   2  -7   31.47    1.59
  -3   2  -7    7.76    0.92
   3  -2   7    8.26    0.97
   4  -2   7    3.16    0.83
   5  -2   7    0.52    0.62
   5   1  -7    0.54    0.57
   4   1  -7    6.71    0.92
   3   1  -7   23.87    1.40
   2   1  -7   18.96    1.05
   1   1  -7   58.03    2.02
   1   1  -7   57.05    1.62
   0   1  -7   83.53    2.53
   0   1  -7   84.96    2.85
  -1   1  -7   69.30    2.40
  -1   1  -7   69.50    2.47
  -2   1  -7   32.31    1.59
   2  -1   7   32.28    1.64
   3  -1   7   16.55    1.29
   4  -1   7    5.79    1.01
   5   0  -7    0.36    0.52
   4   0  -7    1.97    0.57
   3   0  -7    4.20    0.62
   2   0  -7   41.53    1.71
   1   0  -7   35.71    1.42
   0   0  -7   68.18    2.39
   0   0  -7   66.74    2.42
   0   0   7   64.78    2.12
  -1   0  -7   87.55    3.04
   1   0   7   89.39    2.98
  -2   0  -7   13.77    1.00
   2   0   7   12.76    1.00
   3   0   7   16.91    1.31
   4   0   7    4.92    0.92
   5  -1  -7    0.00    0.49
   4  -1  -7    0.46    0.42
   3  -1  -7    9.99    0.84
   2  -1  -7    2.10    0.36
   1  -1  -7   24.18    1.11
   0  -1  -7   13.05    0.83
   0  -1  -7   14.42    0.82
   0   1   7   13.29    0.70
  -1  -1  -7   24.68    1.25
  -1  -1  -7   23.40    1.04
   1   1   7   24.67    1.23
  -2  -1  -7    6.77    0.78
   2   1   7    5.75    0.73
   3   1   7   10.47    1.10
   4   1   7    1.31    0.57
   5  -2  -7    0.10    0.48
   4  -2  -7    0.15    0.33
   3  -2  -7   -0.02    0.23
   2  -2  -7    2.75    0.38
   1  -2  -7    2.69    0.50
   1  -2  -7    2.25    0.39
  -1   2   7    2.22    0.19
   0  -2  -7    1.83    0.41
   0  -2  -7    2.06    0.39
   0   2   7    1.69    0.29
  -1  -2  -7    0.05    0.28
  -1  -2  -7    0.11    0.31
   1   2   7    0.14    0.21
  -2  -2  -7    7.08    0.83
   2   2   7    5.90    0.75
   3   2   7    1.22    0.51
   4   2   7    1.08    0.56
   5  -3  -7    0.57    0.55
   4  -3  -7    1.66    0.51
   3  -3  -7    7.00    0.68
   2  -3  -7    0.03    0.16
   2  -3  -7    0.32    0.31
   1  -3  -7   10.91    0.90
   1  -3  -7   11.53    0.78
  -1   3   7   10.88    0.50
   0  -3  -7    0.75    0.33
   0  -3  -7    1.21    0.38
   0   3   7    1.14    0.29
  -1  -3  -7    0.22    0.31
  -1  -3  -7    0.36    0.36
   1   3   7   -0.01    0.22
   2   3   7    1.74    0.47
   3   3   7    0.98    0.47
   4   3   7    0.55    0.49
   5  -4  -7    0.35    0.54
   4  -4  -7    1.74    0.69
   3  -4  -7    5.62    0.59
   3  -4  -7    4.41    0.82
   2  -4  -7    7.65    0.94
   2  -4  -7    8.78    0.64
   1  -4  -7   17.60    0.99
   1  -4  -7   15.88    1.16
   0  -4  -7    7.81    0.74
   0  -4  -7    8.23    0.69
   0   4   7    8.38    0.61
  -1  -4  -7   16.66    1.08
  -1  -4  -7   13.01    1.02
   1   4   7   14.89    0.98
   2   4   7    2.98    0.59
   3   4   7    1.02    0.44
   4   4   7    0.26    0.53
   5  -5  -7    0.30    0.55
   4  -5  -7    0.79    0.53
   3  -5  -7    3.35    0.75
   2  -5  -7    6.62    0.65
   2  -5  -7    5.29    0.82
   1  -5  -7    8.80    0.73
   1  -5  -7    7.73    0.89
   0  -5  -7   13.46    0.93
   0   5   7   13.43    0.83
  -1  -5  -7   12.02    1.08
  -1  -5  -7   13.94    1.03
   1   5   7   12.48    0.91
   2   5   7    9.19    0.96
   3   5   7    1.66    0.56
   5  -6  -7    0.86    0.58
   4  -6  -7   -0.22    0.41
   3  -6  -7    1.77    0.61
   2  -6  -7    9.42    1.09
   1  -6  -7    7.26    0.90
   0  -6  -7    7.48    0.90
   0  -6  -7   10.14    0.83
   0   6   7    7.88    0.72
  -1  -6  -7    3.67    0.81
  -1  -6  -7    4.21    0.69
   1   6   7    2.83    0.56
   2   6   7    5.77    0.78
   3   6   7    0.41    0.45
   5  -7  -7   -0.16    0.50
   4  -7  -7    0.07    0.42
   3  -7  -7    3.39    0.80
   2  -7  -7    2.16    0.65
   1  -7  -7    3.06    0.72
   0  -7  -7    2.45    0.68
   0   7   7    2.69    0.51
   1   7   7    6.31    0.79
   2   7   7    1.32    0.50
   3   7   7    0.00    0.40
   4  -8  -7   -0.04    0.48
   3  -8  -7    0.40    0.47
   2  -8  -7    0.24    0.43
   1  -8  -7    1.02    0.57
   0  -8  -7    1.30    0.64
   1   8   7    0.61    0.42
   2   8   7    0.21    0.44
   4  -9  -7    0.08    0.53
   3  -9  -7    0.16    0.50
   2  -9  -7    0.09    0.53
   1  -9  -7    0.11    0.52
   0  -9  -7   -0.37    0.56
   1   9   7   -0.35    0.36
   2   9   7   -0.12    0.45
   4 -10  -7   -0.03    0.61
   3 -10  -7    0.03    0.59
   2 -10  -7    0.19    0.54
   1 -10  -7    0.34    0.60
   0 -10  -7   -0.40    0.65
   1  10   7   -0.06    0.47
   3 -11  -7    0.01    0.62
   2 -11  -7   -0.32    0.57
   1 -11  -7    1.17    0.74
   0 -11  -7    0.19    0.81
   1 -12  -7   -0.33    0.69
   0  15  -8    0.37    0.49
  -1  15  -8    0.01    0.42
   1  14  -8    0.56    0.46
   0  14  -8    0.10    0.38
  -1  14  -8    0.07    0.40
  -2  14  -8   -0.25    0.36
   2  13  -8    0.33    0.43
   1  13  -8    0.08    0.35
   0  13  -8    0.09    0.37
  -1  13  -8    0.67    0.44
  -2  13  -8   -0.05    0.39
  -3  13  -8    0.40    0.54
   3  12  -8    0.31    0.44
   2  12  -8    0.68    0.43
   1  12  -8    1.85    0.50
   0  12  -8    2.44    0.58
  -1  12  -8    4.27    0.71
  -2  12  -8    1.21    0.50
  -3  12  -8    0.25    0.45
   3  11  -8    0.94    0.47
   2  11  -8    9.26    0.92
   1  11  -8    4.89    0.66
   0  11  -8    7.65    0.82
  -1  11  -8    1.02    0.41
  -2  11  -8    9.20    1.03
  -3  11  -8    1.26    0.56
  -4  11  -8    0.68    0.63
   4  10  -8    1.01    0.63
   3  10  -8    2.20    0.61
   3  10  -8    2.78    0.59
   2  10  -8    9.90    0.91
   2  10  -8   12.22    0.97
   1  10  -8   18.57    1.12
   0  10  -8    9.28    0.85
  -1  10  -8   16.55    1.12
  -2  10  -8    8.01    0.91
  -3  10  -8    1.98    0.67
  -4  10  -8    0.61    0.61
   4   9  -8   -0.18    0.50
   3   9  -8    1.98    0.50
   3   9  -8    1.43    0.54
   2   9  -8    0.03    0.29
   2   9  -8    0.11    0.25
   1   9  -8   16.23    0.96
   1   9  -8   18.01    1.04
   0   9  -8    7.83    0.75
  -1   9  -8   25.81    1.40
  -2   9  -8   13.26    1.04
  -3   9  -8    2.97    0.69
  -4   9  -8    2.64    0.86
   4   8  -8   -0.14    0.42
   3   8  -8    4.20    0.59
   3   8  -8    3.04    0.67
   2   8  -8    1.16    0.35
   2   8  -8    0.89    0.38
   1   8  -8    0.17    0.23
   1   8  -8    0.26    0.22
   0   8  -8   13.84    0.78
   0   8  -8   12.69    0.87
  -1   8  -8    6.77    0.72
  -2   8  -8    0.34    0.28
  -3   8  -8    5.40    0.88
  -4   8  -8    0.56    0.56
   5   7  -8    0.23    0.57
   4   7  -8   -0.30    0.39
   3   7  -8    0.11    0.25
   3   7  -8    0.25    0.35
   2   7  -8   -0.14    0.18
   2   7  -8    0.35    0.30
   1   7  -8    3.32    0.43
   1   7  -8    1.71    0.34
   0   7  -8    0.16    0.22
   0   7  -8    0.11    0.18
  -1   7  -8    0.85    0.32
  -1   7  -8    0.27    0.24
  -2   7  -8    5.23    0.72
  -2   7  -8    5.03    0.59
  -3   7  -8    1.16    0.52
  -4   7  -8    0.57    0.57
   5   6  -8    0.64    0.62
   4   6  -8    0.19    0.43
   3   6  -8    5.65    0.80
   3   6  -8    7.60    0.63
   2   6  -8   11.02    0.70
   2   6  -8   10.43    0.85
   1   6  -8    3.84    0.42
   1   6  -8    4.11    0.48
   0   6  -8    7.38    0.56
   0   6  -8    6.91    0.56
  -1   6  -8    9.20    0.69
  -1   6  -8    6.71    0.59
  -2   6  -8    0.97    0.35
  -2   6  -8    1.25    0.40
  -3   6  -8    1.08    0.51
  -4   6  -8   -0.49    0.34
   5   5  -8    0.34    0.52
   4   5  -8    6.07    0.96
   3   5  -8    7.64    0.90
   2   5  -8   12.71    0.72
   2   5  -8   13.99    0.98
   1   5  -8   70.58    2.42
   1   5  -8   66.10    2.18
   0   5  -8   39.69    1.61
   0   5  -8   41.59    1.54
  -2   5  -8    7.86    0.82
  -3   5  -8    6.70    0.91
  -4   5  -8    0.37    0.43
   5   4  -8    1.09    0.65
   4   4  -8    8.60    1.08
   3   4  -8   21.65    1.39
   2   4  -8   17.85    1.09
   2   4  -8   16.58    0.78
   1   4  -8   39.68    1.37
   1   4  -8   36.99    1.53
   0   4  -8   58.70    1.97
   0   4  -8   59.47    2.19
  -1   4  -8   43.94    1.72
  -1   4  -8   40.01    1.68
  -2   4  -8   26.94    1.36
  -2   4  -8   23.74    1.39
  -3   4  -8   21.77    1.47
  -4   4  -8    3.44    0.82
   5   3  -8    1.67    0.74
   4   3  -8    1.56    0.53
   3   3  -8   10.45    0.94
   2   3  -8   20.26    1.17
   2   3  -8   22.11    0.85
   1   3  -8   61.39    2.16
   1   3  -8   59.98    1.83
   0   3  -8   50.71    2.00
   0   3  -8   53.07    1.76
  -1   3  -8   43.95    1.73
  -1   3  -8   41.17    1.72
  -2   3  -8   25.95    1.44
  -2   3  -8   28.34    1.44
  -3   3  -8   13.86    1.17
   4  -3   8    3.69    0.90
   5   2  -8    0.05    0.53
   4   2  -8   -0.14    0.32
   3   2  -8   -0.01    0.26
   2   2  -8   25.08    1.28
   1   2  -8   27.95    0.95
   1   2  -8   29.44    1.26
   0   2  -8   17.18    0.98
   0   2  -8   17.26    0.81
  -1   2  -8   32.08    1.42
  -1   2  -8   31.62    1.44
  -2   2  -8   32.85    1.66
  -2   2  -8   34.80    1.68
   3  -2   8    3.10    0.70
   4  -2   8    2.88    0.75
   5   1  -8    0.11    0.50
   4   1  -8    0.37    0.41
   3   1  -8    2.38    0.55
   2   1  -8    1.46    0.35
   1   1  -8    0.02    0.08
   1   1  -8    0.30    0.18
   0   1  -8   -0.08    0.11
   0   1  -8    0.25    0.23
  -1   1  -8    5.67    0.58
  -1   1  -8    6.46    0.66
  -2   1  -8    2.03    0.52
   2  -1   8    4.14    0.65
   3  -1   8    1.58    0.57
   4  -1   8    1.31    0.62
   5   0  -8    0.32    0.54
   4   0  -8    0.44    0.44
   3   0  -8    1.44    0.43
   2   0  -8    1.72    0.35
   1   0  -8    9.29    0.65
  -1   0   8    8.33    0.35
   0   0  -8    3.19    0.42
   0   0  -8    2.81    0.47
   0   0   8    2.89    0.38
  -1   0  -8    7.05    0.72
  -2   0  -8    0.05    0.32
   2   0   8    0.12    0.27
   3   0   8    0.34    0.40
   4   0   8    0.12    0.42
   5  -1  -8    0.75    0.58
   4  -1  -8    2.28    0.61
   3  -1  -8   22.80    1.30
   2  -1  -8    8.75    0.65
   1  -1  -8   18.30    0.98
   1  -1  -8   13.98    1.03
   0  -1  -8   13.39    0.84
   0  -1  -8   14.95    0.93
   0   1   8   12.51    0.73
  -1  -1  -8    6.79    0.74
  -2  -1  -8    4.15    0.70
   2   1   8    4.18    0.66
   3   1   8    1.42    0.53
   4   1   8    0.47    0.48
   5  -2  -8    0.53    0.57
   4  -2  -8    0.74    0.43
   3  -2  -8    8.72    0.75
   2  -2  -8   26.06    1.23
   1  -2  -8   11.35    0.84
   1  -2  -8   13.60    0.99
   0  -2  -8   46.54    1.86
   0  -2  -8   40.94    1.83
   0   2   8   39.75    1.56
  -1  -2  -8   31.81    1.60
  -2  -2  -8   17.25    1.28
   2   2   8   18.25    1.23
   3   2   8    3.85    0.75
   4   2   8    0.30    0.52
   5  -3  -8    0.35    0.53
   4  -3  -8    1.87    0.51
   3  -3  -8    1.29    0.36
   3  -3  -8    0.64    0.43
   2  -3  -8    9.83    0.97
   2  -3  -8    9.14    0.69
   1  -3  -8   25.16    1.29
   1  -3  -8   26.75    1.52
   0  -3  -8   15.57    0.98
   0  -3  -8   17.06    1.08
   0   3   8   13.56    0.82
  -1  -3  -8   34.51    1.72
   2   3   8    9.03    0.92
   3   3   8    5.55    0.87
   4   3   8    1.27    0.67
   5  -4  -8    0.24    0.55
   4  -4  -8    2.03    0.68
   3  -4  -8    1.32    0.54
   3  -4  -8    0.94    0.32
   2  -4  -8    3.94    0.53
   2  -4  -8    4.23    0.75
   1  -4  -8   12.31    0.88
   1  -4  -8   12.07    1.02
   0  -4  -8   14.69    0.98
   0  -4  -8   14.82    1.06
   0   4   8   13.34    0.84
  -1  -4  -8    0.94    0.44
   1   4   8    0.24    0.25
   2   4   8    6.96    0.84
   3   4   8    1.33    0.55
   5  -5  -8    0.43    0.62
   4  -5  -8   -0.30    0.32
   3  -5  -8    0.93    0.49
   2  -5  -8    2.47    0.63
   2  -5  -8    3.10    0.54
   1  -5  -8    0.49    0.37
   1  -5  -8    1.49    0.51
   0  -5  -8    2.31    0.57
   0  -5  -8    5.63    0.70
   0   5   8    4.72    0.55
  -1  -5  -8    1.58    0.54
   1   5   8    1.54    0.42
   2   5   8    1.77    0.58
   3   5   8    0.48    0.43
   5  -6  -8    0.55    0.60
   4  -6  -8   -0.09    0.38
   3  -6  -8    0.55    0.43
   2  -6  -8    0.26    0.38
   1  -6  -8    0.34    0.40
   0  -6  -8   -0.32    0.35
   0  -6  -8   -0.13    0.42
  -1  -6  -8    0.66    0.46
   1   6   8    0.48    0.36
   2   6   8   -0.04    0.34
   3   6   8    0.16    0.41
   4  -7  -8    0.43    0.50
   3  -7  -8    0.13    0.43
   2  -7  -8    2.17    0.67
   1  -7  -8    0.28    0.48
   0  -7  -8    0.73    0.52
   1   7   8    1.42    0.51
   2   7   8    0.20    0.41
   4  -8  -8    0.22    0.56
   3  -8  -8   -0.03    0.42
   2  -8  -8    0.87    0.58
   1  -8  -8    2.60    0.73
   0  -8  -8    3.14    0.81
   1   8   8    0.44    0.41
   2   8   8    0.77    0.53
   4  -9  -8    0.11    0.62
   3  -9  -8    0.20    0.54
   2  -9  -8    0.30    0.53
   1  -9  -8    0.52    0.59
   0  -9  -8    1.01    0.70
   2   9   8    0.56    0.60
   3 -10  -8    0.88    0.72
   2 -10  -8    0.62    0.62
   1 -10  -8    0.11    0.64
   0 -10  -8   -0.38    0.73
   2 -11  -8   -0.28    0.66
   1 -11  -8   -0.17    0.63
   0 -11  -8   -0.85    0.74
   0  15  -9    0.02    0.46
  -1  15  -9    0.17    0.44
   1  14  -9    2.87    0.69
   0  14  -9    1.46    0.57
  -1  14  -9    0.86    0.48
  -2  14  -9   -0.08    0.43
   2  13  -9    1.80    0.62
   1  13  -9    2.70    0.61
   0  13  -9    2.82    0.65
  -1  13  -9    0.74    0.47
  -2  13  -9    1.75    0.59
  -3  13  -9    0.86    0.57
   3  12  -9    1.23    0.58
   2  12  -9    0.25    0.39
   1  12  -9    1.38    0.46
   0  12  -9    4.99    0.76
  -1  12  -9    4.21    0.73
  -2  12  -9    1.44    0.55
  -3  12  -9    1.53    0.63
   3  11  -9    0.23    0.41
   2  11  -9   -0.10    0.30
   1  11  -9    2.64    0.56
   0  11  -9    0.96    0.41
  -1  11  -9    3.88    0.66
  -2  11  -9    1.19    0.48
  -3  11  -9    0.71    0.51
   4  10  -9   -0.03    0.49
   3  10  -9   -0.21    0.38
   3  10  -9   -0.04    0.39
   2  10  -9   -0.24    0.30
   2  10  -9   -0.04    0.31
   1  10  -9    0.39    0.30
   0  10  -9    0.11    0.28
  -1  10  -9    0.32    0.31
  -2  10  -9    0.36    0.36
  -3  10  -9    0.54    0.46
  -4  10  -9    0.32    0.53
   4   9  -9    0.45    0.52
   3   9  -9    0.07    0.34
   3   9  -9    0.06    0.39
   2   9  -9    0.46    0.34
   2   9  -9    0.46    0.32
   1   9  -9    9.96    0.78
   1   9  -9    9.29    0.72
   0   9  -9    0.25    0.27
  -1   9  -9    2.64    0.54
  -2   9  -9    3.82    0.69
  -3   9  -9   -0.09    0.37
  -4   9  -9    0.22    0.50
   4   8  -9    0.35    0.47
   3   8  -9    8.57    0.99
   2   8  -9    2.06    0.51
   2   8  -9    0.94    0.36
   1   8  -9   21.13    1.11
   1   8  -9   19.10    1.05
   0   8  -9   12.92    0.81
   0   8  -9   11.96    0.84
  -1   8  -9   12.95    0.85
  -1   8  -9   19.13    1.12
  -2   8  -9    0.00    0.27
  -3   8  -9    6.48    0.95
  -4   8  -9    0.73    0.55
   4   7  -9    0.99    0.54
   3   7  -9   12.40    1.09
   2   7  -9   15.60    0.91
   2   7  -9   15.85    1.09
   1   7  -9   29.37    1.28
   1   7  -9   24.33    1.22
   0   7  -9   17.74    0.99
   0   7  -9   18.25    0.99
  -1   7  -9   22.43    1.18
  -1   7  -9   28.00    1.34
  -2   7  -9    7.13    0.84
  -2   7  -9    7.31    0.72
  -3   7  -9    7.63    1.00
  -4   7  -9    2.38    0.80
   5   6  -9    0.84    0.63
   4   6  -9    1.58    0.62
   3   6  -9    3.59    0.68
   2   6  -9   26.45    1.19
   2   6  -9   25.97    1.42
   1   6  -9   23.26    1.08
   1   6  -9   23.24    1.14
   0   6  -9   36.00    1.49
  -1   6  -9   19.52    1.10
  -1   6  -9   24.73    1.23
  -2   6  -9   47.33    1.98
  -2   6  -9   45.10    2.11
  -3   6  -9    4.62    0.82
  -4   6  -9    2.82    0.81
   5   5  -9    0.45    0.55
   4   5  -9    0.11    0.40
   3   5  -9    0.11    0.28
   2   5  -9   13.58    0.97
   2   5  -9   14.98    0.78
   1   5  -9    1.74    0.34
   1   5  -9    2.10    0.33
   0   5  -9   47.42    1.95
   0   5  -9   51.30    1.82
  -1   5  -9    9.89    0.77
  -1   5  -9   11.12    0.79
  -2   5  -9   15.36    1.04
  -2   5  -9   14.92    1.09
  -3   5  -9    9.38    1.07
  -4   5  -9    2.55    0.80
   5   4  -9    0.41    0.58
   4   4  -9    0.00    0.36
   3   4  -9    0.12    0.31
   2   4  -9    6.00    0.67
   1   4  -9    2.14    0.28
   1   4  -9    1.64    0.33
   0   4  -9    0.36    0.17
   0   4  -9    0.48    0.28
  -1   4  -9    5.95    0.61
  -1   4  -9    4.94    0.61
  -2   4  -9    5.93    0.75
  -2   4  -9    5.34    0.70
  -3   4  -9   -0.23    0.35
  -4   4  -9    1.72    0.68
   4  -4   9    1.74    0.65
   5   3  -9    0.63    0.57
   4   3  -9    0.90    0.47
   3   3  -9   -0.20    0.26
   2   3  -9    8.00    0.70
   1   3  -9    0.12    0.12
   1   3  -9    0.22    0.20
   0   3  -9    9.89    0.74
   0   3  -9    7.79    0.55
  -1   3  -9    0.04    0.31
  -1   3  -9    0.30    0.21
  -2   3  -9   -0.04    0.31
  -2   3  -9   -0.21    0.18
  -3   3  -9    0.02    0.31
   4  -3   9    0.17    0.41
   5   2  -9    1.00    0.62
   4   2  -9    0.81    0.49
   3   2  -9   15.37    1.12
   2   2  -9   17.50    1.05
   1   2  -9   14.84    0.88
   1   2  -9   15.65    0.64
   0   2  -9    2.23    0.32
   0   2  -9    4.29    0.54
  -1   2  -9   14.74    0.98
  -1   2  -9   16.44    0.95
  -2   2  -9    9.45    0.94
  -2   2  -9   10.31    0.93
   3  -2   9   -0.09    0.35
   4  -2   9    1.03    0.58
   5   1  -9    1.79    0.75
   4   1  -9    2.07    0.63
   3   1  -9   21.57    1.33
   2   1  -9   14.66    0.92
   1   1  -9   32.40    1.43
   0   1  -9   16.48    0.92
   0   1  -9   15.21    0.79
   0   1  -9   15.81    0.98
  -1   1  -9   32.15    1.61
  -1   1  -9   37.92    1.60
  -2   1  -9   12.85    1.05
   2  -1   9   14.55    1.09
   3  -1   9    8.57    1.05
   4  -1   9    1.59    0.64
   5   0  -9    1.20    0.65
   4   0  -9    3.13    0.70
   3   0  -9    5.97    0.72
   2   0  -9   14.54    0.89
   1   0  -9   39.89    1.71
   0   0  -9   51.29    2.02
   0   0  -9   46.25    2.00
   0   0   9   49.56    1.80
  -1   0  -9   28.58    1.49
  -2   0  -9   16.64    1.23
   2   0   9   16.75    1.19
   3   0   9    9.65    1.10
   4   0   9    1.64    0.68
   5  -1  -9    0.32    0.50
   4  -1  -9    2.57    0.63
   3  -1  -9    1.25    0.41
   2  -1  -9    3.46    0.47
   0  -1  -9   54.04    2.18
   0  -1  -9   52.89    2.17
   0   1   9   52.21    1.91
  -1  -1  -9   13.24    1.01
   1   1   9   12.50    0.90
  -2  -1  -9   14.76    1.20
   2   1   9   14.78    1.12
   3   1   9    5.73    0.88
   4   1   9    3.32    0.88
   5  -2  -9    0.12    0.50
   4  -2  -9    1.29    0.49
   3  -2  -9   -0.05    0.25
   2  -2  -9    9.08    1.01
   2  -2  -9    7.00    0.64
   1  -2  -9    0.54    0.31
   1  -2  -9    1.64    0.42
   0  -2  -9    5.37    0.65
   0  -2  -9    4.98    0.68
   0   2   9    5.43    0.54
  -1  -2  -9   -0.05    0.35
   1   2   9    0.15    0.26
  -2  -2  -9   10.84    1.13
   2   2   9   10.87    1.03
   3   2   9    3.05    0.70
   4   2   9    1.22    0.61
   5  -3  -9    0.44    0.65
   4  -3  -9    0.71    0.50
   4  -3  -9    0.38    0.35
   3  -3  -9   -0.11    0.30
   3  -3  -9   -0.04    0.23
   2  -3  -9    1.24    0.49
   2  -3  -9    0.83    0.33
   1  -3  -9    0.09    0.29
   1  -3  -9    0.04    0.28
   0  -3  -9   -0.09    0.35
   0  -3  -9   -0.05    0.33
   0   3   9    0.14    0.25
  -1  -3  -9   -0.47    0.35
   1   3   9    0.13    0.26
  -2  -3  -9    0.39    0.46
   2   3   9   -0.23    0.29
   3   3   9    0.23    0.38
   5  -4  -9    0.15    0.57
   4  -4  -9    1.47    0.66
   3  -4  -9    0.25    0.28
   3  -4  -9    0.27    0.37
   2  -4  -9    4.90    0.64
   2  -4  -9    7.57    0.96
   1  -4  -9    2.02    0.54
   1  -4  -9    2.24    0.51
   0  -4  -9    0.84    0.44
   0  -4  -9    0.86    0.45
  -1  -4  -9    2.17    0.56
   1   4   9    1.94    0.49
   2   4   9    1.28    0.49
   3   4   9   -0.05    0.38
   5  -5  -9    0.30    0.56
   4  -5  -9    1.16    0.62
   3  -5  -9   -0.06    0.33
   2  -5  -9    5.00    0.83
   1  -5  -9    3.40    0.61
   1  -5  -9    2.82    0.66
   0  -5  -9   11.86    1.06
   0  -5  -9   12.21    1.00
  -1  -5  -9    1.03    0.52
   1   5   9    0.41    0.33
   2   5   9    1.17    0.47
   3   5   9    0.72    0.51
   4  -6  -9    0.29    0.49
   3  -6  -9    0.75    0.50
   2  -6  -9    2.15    0.64
   1  -6  -9    3.26    0.70
   0  -6  -9    3.66    0.69
   0  -6  -9    1.85    0.55
  -1  -6  -9    8.29    1.02
   2   6   9    2.39    0.65
   4  -7  -9    0.32    0.45
   3  -7  -9    3.11    0.80
   2  -7  -9    0.99    0.57
   1  -7  -9    2.18    0.68
   0  -7  -9   -0.03    0.51
   2   7   9    0.02    0.46
   4  -8  -9   -0.30    0.44
   3  -8  -9    0.19    0.50
   2  -8  -9   -0.27    0.43
   1  -8  -9   -0.13    0.49
   0  -8  -9    2.14    0.76
   2   8   9    0.37    0.56
   3  -9  -9   -0.44    0.50
   2  -9  -9    0.00    0.60
   1  -9  -9   -0.01    0.55
   0  -9  -9   -0.81    0.58
   3 -10  -9   -0.33    0.56
   2 -10  -9   -0.20    0.55
   1 -10  -9   -0.24    0.61
   0 -10  -9   -0.38    0.78
   1  14 -10   -0.06    0.44
   0  14 -10    0.46    0.43
  -1  14 -10    0.79    0.53
  -2  14 -10    0.83    0.65
   2  13 -10    0.04    0.40
   1  13 -10    0.67    0.45
   0  13 -10    0.07    0.41
  -1  13 -10   -0.01    0.42
  -2  13 -10    0.21    0.45
   3  12 -10    1.01    0.56
   2  12 -10   -0.02    0.39
   1  12 -10    0.67    0.44
   0  12 -10    1.52    0.49
  -1  12 -10    0.35    0.38
  -2  12 -10    0.10    0.35
  -3  12 -10    1.18    0.59
   2  11 -10    2.77    0.58
   1  11 -10    3.39    0.63
   0  11 -10    8.07    0.87
  -1  11 -10    2.68    0.61
  -2  11 -10    0.77    0.48
  -3  11 -10    1.38    0.59
   4  10 -10    0.61    0.61
   3  10 -10    3.46    0.76
   2  10 -10    2.53    0.54
   2  10 -10    3.47    0.59
   1  10 -10    6.64    0.75
   0  10 -10    3.26    0.59
  -1  10 -10   11.93    1.00
  -2  10 -10    6.16    0.88
  -3  10 -10    0.72    0.54
   4   9 -10    0.10    0.48
   3   9 -10    6.55    0.94
   2   9 -10   12.26    0.91
   2   9 -10   13.35    1.01
   1   9 -10    5.84    0.61
   1   9 -10    6.15    0.69
   0   9 -10   14.78    0.99
  -1   9 -10    8.03    0.84
  -2   9 -10    9.46    1.02
  -3   9 -10    3.95    0.86
  -4   9 -10    1.01    0.69
   4   8 -10    0.41    0.50
   3   8 -10    0.23    0.39
   2   8 -10    6.91    0.77
   2   8 -10    6.63    0.66
   1   8 -10    5.75    0.62
   0   8 -10   15.73    0.97
   0   8 -10   13.86    0.93
  -1   8 -10   21.07    1.21
  -1   8 -10   16.69    1.03
  -2   8 -10   11.20    1.07
  -3   8 -10    4.56    0.88
  -4   8 -10    1.43    0.62
   4   7 -10    0.30    0.44
   3   7 -10    0.07    0.35
   2   7 -10    0.94    0.38
   2   7 -10    1.13    0.34
   1   7 -10    4.84    0.53
   1   7 -10    4.55    0.53
   0   7 -10    1.33    0.35
   0   7 -10    1.11    0.35
  -1   7 -10    4.46    0.60
  -1   7 -10    3.50    0.56
  -2   7 -10    3.62    0.62
  -2   7 -10    4.74    0.73
  -3   7 -10    1.72    0.61
  -4   7 -10    1.58    0.67
   5   6 -10    0.00    0.53
   4   6 -10    0.19    0.42
   3   6 -10    0.44    0.37
   2   6 -10    0.01    0.26
   1   6 -10    1.55    0.35
   1   6 -10    1.67    0.34
   0   6 -10    0.00    0.19
   0   6 -10   -0.20    0.22
  -1   6 -10    8.88    0.78
  -1   6 -10    5.73    0.67
  -2   6 -10   -0.25    0.24
  -2   6 -10    0.28    0.33
  -3   6 -10    0.32    0.41
  -4   6 -10    0.37    0.55
   5   5 -10    0.41    0.59
   4   5 -10    2.40    0.70
   3   5 -10    3.59    0.69
   2   5 -10    2.66    0.50
   1   5 -10   12.12    0.68
   1   5 -10   11.21    0.77
   0   5 -10    4.60    0.60
   0   5 -10    6.44    0.56
  -1   5 -10    4.99    0.61
  -1   5 -10    4.71    0.64
  -2   5 -10    4.64    0.71
  -2   5 -10    5.09    0.73
  -3   5 -10    0.54    0.47
  -4   5 -10    0.04    0.48
   5   4 -10    1.10    0.72
   4   4 -10    2.70    0.72
   3   4 -10   11.62    1.02
   2   4 -10   27.48    1.43
   1   4 -10   20.88    1.11
   1   4 -10   21.43    0.92
   0   4 -10   18.01    1.10
   0   4 -10   19.96    0.97
  -1   4 -10   16.63    1.01
  -1   4 -10   14.71    1.00
  -2   4 -10   11.10    1.03
  -2   4 -10   10.81    1.00
  -3   4 -10    3.25    0.72
   4  -4  10    1.56    0.67
   5   3 -10    1.14    0.68
   4   3 -10    4.01    0.83
   3   3 -10    3.76    0.66
   2   3 -10   22.62    1.25
   1   3 -10   21.80    1.14
   0   3 -10   61.55    2.11
   0   3 -10   61.11    2.39
  -1   3 -10   18.44    1.13
  -1   3 -10   17.86    1.06
  -2   3 -10   25.86    1.49
  -2   3 -10   26.32    1.55
  -3   3 -10    8.49    1.05
   3  -3  10    9.45    1.10
   4  -3  10    2.40    0.77
   5   2 -10    0.87    0.61
   4   2 -10    3.06    0.75
   3   2 -10    0.28    0.33
   2   2 -10   12.09    0.86
   1   2 -10   12.87    0.86
   0   2 -10   46.79    1.70
   0   2 -10   45.48    1.95
  -1   2 -10   21.54    1.13
  -1   2 -10   16.71    1.11
  -2   2 -10   15.58    1.13
  -2   2 -10   16.58    1.23
   3  -2  10    8.46    1.05
   4  -2  10    2.76    0.78
   5   1 -10    0.26    0.52
   4   1 -10    0.01    0.34
   3   1 -10    4.77    0.69
   2   1 -10    1.49    0.37
   1   1 -10    5.39    0.61
   0   1 -10    8.73    0.68
   0   1 -10    9.05    0.79
   0  -1  10    8.57    0.66
  -1   1 -10    9.85    0.92
   1  -1  10   11.25    0.85
  -2   1 -10    4.73    0.77
   2  -1  10    4.18    0.70
   3  -1  10    4.63    0.84
   4  -1  10    1.30    0.64
   5   0 -10    0.19    0.52
   4   0 -10    0.09    0.37
   3   0 -10    0.16    0.28
   2   0 -10    0.19    0.22
   1   0 -10    0.61    0.29
   0   0 -10    0.09    0.25
   0   0 -10   -0.08    0.31
   0   0  10    0.26    0.25
  -1   0 -10    0.03    0.35
   1   0  10   -0.13    0.25
  -2   0 -10    0.68    0.49
   2   0  10    1.63    0.50
   3   0  10    1.45    0.56
   4   0  10   -0.07    0.46
   5  -1 -10    0.38    0.54
   4  -1 -10    0.15    0.38
   3  -1 -10    0.73    0.33
   2  -1 -10    3.34    0.50
   1  -1 -10    0.66    0.35
   1  -1 -10    1.24    0.44
   0  -1 -10    8.82    0.86
   0  -1 -10    9.48    0.76
   0   1  10    8.58    0.67
  -1  -1 -10    1.27    0.52
   1   1  10    0.67    0.33
  -2  -1 -10    1.91    0.62
   2   1  10    0.45    0.37
   3   1  10   -0.14    0.37
   5  -2 -10    0.48    0.53
   4  -2 -10    2.64    0.60
   3  -2 -10    1.37    0.40
   2  -2 -10    4.86    0.81
   2  -2 -10    6.05    0.65
   1  -2 -10   11.20    0.90
   0  -2 -10    7.41    0.77
   0  -2 -10    6.36    0.77
  -1  -2 -10    2.61    0.63
   1   2  10    2.45    0.51
  -2  -2 -10    3.22    0.80
   2   2  10    3.63    0.66
   3   2  10    1.32    0.53
   5  -3 -10    0.13    0.61
   4  -3 -10    0.36    0.47
   4  -3 -10    1.87    0.53
   3  -3 -10    6.30    0.99
   3  -3 -10    5.34    0.65
   2  -3 -10    2.77    0.64
   2  -3 -10    2.57    0.52
   1  -3 -10    4.30    0.65
   0  -3 -10   10.56    0.91
   0  -3 -10    8.73    0.88
  -1  -3 -10   17.16    1.30
   1   3  10   18.34    1.19
  -2  -3 -10    3.43    0.77
   2   3  10    4.44    0.77
   3   3  10    1.77    0.60
   5  -4 -10   -0.11    0.52
   4  -4 -10    0.24    0.46
   3  -4 -10    2.22    0.49
   3  -4 -10    1.43    0.58
   2  -4 -10    4.28    0.78
   2  -4 -10    2.44    0.54
   1  -4 -10    6.30    0.85
   1  -4 -10    6.10    0.75
   0  -4 -10    8.39    0.94
   0  -4 -10    9.09    0.93
  -1  -4 -10    8.18    1.00
   1   4  10    6.13    0.79
   2   4  10    3.05    0.67
   3   4  10    0.35    0.49
   4  -5 -10    0.12    0.42
   3  -5 -10    0.39    0.44
   2  -5 -10    0.77    0.48
   1  -5 -10    1.89    0.58
   1  -5 -10    1.52    0.51
   0  -5 -10    1.23    0.55
  -1  -5 -10    4.16    0.79
   2   5  10    0.20    0.46
   3   5  10    0.87    0.62
   4  -6 -10    0.00    0.43
   3  -6 -10   -0.14    0.40
   2  -6 -10    0.09    0.38
   1  -6 -10   -0.14    0.43
   0  -6 -10    1.04    0.58
  -1  -6 -10    0.95    0.59
   2   6  10   -0.03    0.37
   4  -7 -10    0.05    0.44
   3  -7 -10   -0.25    0.39
   2  -7 -10    0.17    0.47
   1  -7 -10    0.50    0.53
   3  -8 -10    0.59    0.58
   2  -8 -10    0.78    0.61
   1  -8 -10    0.52    0.60
   3  -9 -10   -0.09    0.55
   2  -9 -10    0.12    0.59
   1  -9 -10    0.75    0.68
   2 -10 -10    0.43    0.71
   1 -10 -10    0.77    0.76
   1  14 -11   -0.16    0.47
   0  14 -11    1.17    0.53
  -1  14 -11    0.32    0.52
   2  13 -11    1.83    0.60
   1  13 -11    1.84    0.58
   0  13 -11    1.28    0.50
  -1  13 -11    1.00    0.52
  -2  13 -11    2.34    0.72
   2  12 -11    3.06    0.65
   1  12 -11    2.68    0.62
   0  12 -11    1.24    0.50
  -1  12 -11    4.36    0.78
  -2  12 -11    2.81    0.73
  -3  12 -11    0.75    0.59
   2  11 -11    1.05    0.47
   1  11 -11    4.20    0.69
   0  11 -11    4.08    0.69
  -1  11 -11    3.45    0.69
  -2  11 -11    1.98    0.63
  -3  11 -11    1.89    0.76
   3  10 -11    0.16    0.47
   2  10 -11    0.76    0.37
   2  10 -11    1.61    0.48
   1  10 -11   -0.06    0.30
   0  10 -11    8.69    0.86
  -1  10 -11    1.45    0.51
  -2  10 -11    1.90    0.62
  -3  10 -11    0.56    0.58
   4   9 -11    0.17    0.52
   3   9 -11    0.49    0.44
   2   9 -11    0.46    0.36
   2   9 -11    0.26    0.31
   1   9 -11    0.16    0.32
   1   9 -11   -0.11    0.26
   0   9 -11   -0.15    0.33
   0   9 -11   -0.28    0.24
  -1   9 -11    0.79    0.37
  -2   9 -11    0.08    0.36
  -3   9 -11    0.39    0.48
   4   8 -11    0.08    0.50
   3   8 -11    0.40    0.39
   2   8 -11    6.21    0.74
   1   8 -11    0.57    0.34
   1   8 -11    0.64    0.31
   0   8 -11    8.12    0.80
   0   8 -11    9.36    0.78
  -1   8 -11   14.06    1.01
  -1   8 -11   11.88    0.91
  -2   8 -11    0.83    0.46
  -3   8 -11    0.23    0.45
  -4   8 -11   -0.06    0.56
   4   7 -11    2.42    0.76
   3   7 -11    0.54    0.41
   2   7 -11    7.33    0.79
   1   7 -11   11.40    0.83
   1   7 -11   11.81    0.79
   0   7 -11   19.16    1.17
   0   7 -11   21.60    1.15
  -1   7 -11   -0.09    0.29
  -1   7 -11   -0.06    0.23
  -2   7 -11   18.97    1.32
  -2   7 -11   16.89    1.18
  -3   7 -11    0.93    0.53
  -4   7 -11    2.09    0.85
   4   6 -11    2.62    0.73
   3   6 -11    4.97    0.79
   2   6 -11   15.65    1.07
   1   6 -11   17.25    0.90
   1   6 -11   14.04    0.94
   0   6 -11   26.14    1.37
   0   6 -11   24.02    1.20
  -1   6 -11    3.92    0.62
  -1   6 -11    4.88    0.64
  -2   6 -11    9.52    0.96
  -2   6 -11    9.94    1.01
  -3   6 -11    4.34    0.85
  -3   6 -11    8.01    0.97
  -4   6 -11    1.51    0.68
   5   5 -11    0.77    0.62
   4   5 -11    0.63    0.51
   3   5 -11    3.28    0.65
   2   5 -11    7.15    0.75
   1   5 -11   20.68    1.14
   0   5 -11   14.85    0.87
   0   5 -11   14.52    0.99
  -1   5 -11   47.58    2.04
  -1   5 -11   43.85    1.94
  -2   5 -11    8.27    0.92
  -2   5 -11    8.14    0.91
  -3   5 -11    7.27    0.99
  -3   5 -11    6.79    0.98
  -4   5 -11    1.21    0.64
   5   4 -11   -0.11    0.53
   4   4 -11    0.00    0.41
   3   4 -11    2.13    0.56
   2   4 -11    0.51    0.29
   1   4 -11   11.33    0.82
   0   4 -11    1.41    0.43
   0   4 -11    1.74    0.35
  -1   4 -11   14.08    1.03
  -1   4 -11   13.88    0.96
  -2   4 -11   11.61    1.11
  -2   4 -11   12.92    1.04
  -3   4 -11    2.91    0.68
  -3   4 -11    3.93    0.81
   4  -4  11    2.30    0.74
   5   3 -11    0.07    0.61
   4   3 -11    0.62    0.49
   3   3 -11    0.67    0.38
   2   3 -11    0.29    0.25
   1   3 -11    0.87    0.31
   0   3 -11    1.50    0.45
   0   3 -11    1.68    0.33
  -1   3 -11    0.38    0.41
  -1   3 -11    0.77    0.31
  -2   3 -11    0.30    0.43
  -2   3 -11    0.09    0.30
   3  -3  11    2.41    0.68
   4  -3  11    0.58    0.61
   5   2 -11   -0.02    0.50
   4   2 -11   -0.43    0.36
   3   2 -11    2.19    0.53
   2   2 -11    1.15    0.35
   1   2 -11    8.88    0.76
   0   2 -11    0.06    0.18
   0   2 -11    0.75    0.37
  -1   2 -11    0.53    0.41
  -1   2 -11    0.47    0.30
  -2   2 -11    0.36    0.43
   2  -2  11    0.40    0.34
   3  -2  11   -0.01    0.43
   4  -2  11   -0.23    0.50
   5   1 -11   -0.19    0.52
   4   1 -11    1.00    0.48
   3   1 -11    4.14    0.64
   2   1 -11    9.66    0.79
   1   1 -11    3.15    0.55
   0   1 -11   22.27    1.32
  -1   1 -11    7.91    0.87
   1  -1  11    8.22    0.82
  -2   1 -11    0.37    0.47
   2  -1  11    0.12    0.31
   3  -1  11    1.21    0.55
   4  -1  11    0.87    0.57
   5   0 -11   -0.35    0.49
   4   0 -11    4.05    0.74
   3   0 -11    5.88    0.72
   2   0 -11    8.61    0.75
   1   0 -11    2.46    0.53
   1   0 -11    2.20    0.54
   0   0 -11   18.63    1.20
  -1   0 -11   15.36    1.17
   1   0  11   17.19    1.11
  -2   0 -11   10.78    1.19
   2   0  11    9.02    1.00
   3   0  11    3.20    0.75
   5  -1 -11   -0.22    0.47
   4  -1 -11    0.86    0.46
   3  -1 -11    3.06    0.55
   2  -1 -11    6.52    0.71
   1  -1 -11   15.65    1.14
   1  -1 -11   15.93    1.10
   0  -1 -11   11.10    0.96
  -1  -1 -11   12.92    1.13
   1   1  11   12.31    0.95
  -2  -1 -11    6.73    1.01
   2   1  11    6.33    0.84
   3   1  11    3.04    0.76
   5  -2 -11    0.56    0.54
   4  -2 -11    0.14    0.37
   3  -2 -11    0.11    0.31
   3  -2 -11   -0.10    0.34
   2  -2 -11    0.76    0.43
   2  -2 -11    1.59    0.46
   1  -2 -11   12.45    0.97
   1  -2 -11   11.60    1.00
   0  -2 -11   13.43    1.06
  -1  -2 -11    4.80    0.84
   1   2  11    6.37    0.76
  -2  -2 -11    2.64    0.78
   2   2  11    2.39    0.59
   3   2  11    0.60    0.49
   5  -3 -11    0.05    0.61
   4  -3 -11    0.20    0.44
   4  -3 -11   -0.03    0.34
   3  -3 -11    0.50    0.36
   3  -3 -11    0.11    0.36
   2  -3 -11   -0.13    0.29
   2  -3 -11    0.06    0.33
   1  -3 -11    0.29    0.35
   1  -3 -11    0.65    0.41
   0  -3 -11    0.22    0.41
  -1  -3 -11    4.10    0.83
  -2  -3 -11    0.49    0.59
   2   3  11    0.88    0.46
   3   3  11    0.74    0.55
   4  -4 -11   -0.16    0.39
   3  -4 -11    0.26    0.34
   3  -4 -11    0.23    0.41
   2  -4 -11   -0.20    0.35
   2  -4 -11    0.43    0.40
   1  -4 -11   -0.25    0.30
   1  -4 -11   -0.17    0.40
   0  -4 -11    0.46    0.47
  -1  -4 -11    0.36    0.52
   2   4  11   -0.07    0.39
   3   4  11    0.15    0.51
   4  -5 -11   -0.07    0.45
   3  -5 -11    0.65    0.53
   2  -5 -11    0.71    0.48
   1  -5 -11    1.03    0.50
   1  -5 -11    0.55    0.49
   0  -5 -11   -0.35    0.44
  -1  -5 -11    1.50    0.66
   2   5  11    0.40    0.50
   4  -6 -11    0.22    0.51
   3  -6 -11    0.09    0.43
   2  -6 -11    0.98    0.55
   1  -6 -11    4.12    0.84
  -1  -6 -11    0.40    0.61
   3  -7 -11    0.31    0.56
   2  -7 -11    0.68    0.62
   1  -7 -11    0.96    0.63
   3  -8 -11    0.22    0.57
   2  -8 -11    0.43    0.62
   1  -8 -11   -0.71    0.52
   2  -9 -11   -1.05    0.46
   1  -9 -11   -0.41    0.64
   1  14 -12    0.78    0.60
   0  14 -12    0.65    0.52
  -1  14 -12    1.42    0.66
   2  13 -12    0.02    0.49
   1  13 -12    0.14    0.46
   0  13 -12    0.88    0.53
  -1  13 -12    0.32    0.47
  -2  13 -12    1.57    0.70
   2  12 -12    0.80    0.48
   1  12 -12    0.01    0.42
   0  12 -12   -0.07    0.36
  -1  12 -12    0.21    0.45
  -2  12 -12   -0.03    0.41
   1  11 -12    3.06    0.64
   0  11 -12    1.49    0.52
  -1  11 -12    0.95    0.48
  -2  11 -12    1.15    0.55
  -3  11 -12   -0.43    0.50
   3  10 -12    0.45    0.45
   2  10 -12    3.67    0.63
   1  10 -12    6.85    0.81
   0  10 -12    6.73    0.82
  -1  10 -12    5.80    0.80
  -2  10 -12    2.15    0.65
  -3  10 -12    0.61    0.60
   4   9 -12    0.79    0.58
   3   9 -12    1.62    0.58
   2   9 -12    4.92    0.69
   1   9 -12    4.36    0.63
   0   9 -12   13.37    1.01
   0   9 -12   15.70    1.08
  -1   9 -12    2.70    0.61
  -2   9 -12    4.69    0.82
  -3   9 -12    4.01    0.93
   4   8 -12    0.81    0.57
   3   8 -12    2.65    0.64
   2   8 -12    2.87    0.55
   1   8 -12    9.99    0.78
   1   8 -12    7.13    0.72
   0   8 -12    8.12    0.80
  -1   8 -12    5.60    0.73
  -1   8 -12    7.68    0.84
  -2   8 -12    9.21    1.05
  -3   8 -12    3.43    0.86
   4   7 -12   -0.21    0.46
   3   7 -12    2.36    0.62
   2   7 -12    0.51    0.32
   1   7 -12    3.75    0.55
   0   7 -12    7.02    0.78
   0   7 -12    8.69    0.76
  -1   7 -12   13.51    1.02
  -1   7 -12   15.45    1.07
  -2   7 -12    3.94    0.74
  -2   7 -12    2.83    0.62
  -3   7 -12    3.13    0.72
  -3   7 -12    2.90    0.77
   4   6 -12   -0.24    0.40
   3   6 -12    0.03    0.32
   2   6 -12   -0.04    0.24
   1   6 -12    1.18    0.38
   0   6 -12    0.09    0.23
   0   6 -12    0.12    0.35
  -1   6 -12    4.15    0.68
  -1   6 -12    5.40    0.70
  -2   6 -12    0.78    0.42
  -2   6 -12    1.23    0.55
  -3   6 -12    0.54    0.47
  -3   6 -12    1.92    0.61
   4   5 -12    0.38    0.46
   3   5 -12    0.35    0.36
   2   5 -12    2.14    0.48
   1   5 -12    1.81    0.44
   0   5 -12    3.72    0.50
   0   5 -12    5.39    0.69
  -1   5 -12    0.43    0.31
  -1   5 -12    0.24    0.39
  -2   5 -12    0.56    0.41
  -2   5 -12    0.31    0.46
  -3   5 -12    0.05    0.42
  -3   5 -12    0.46    0.45
   5   4 -12    0.54    0.63
   4   4 -12    0.01    0.41
   3   4 -12    3.17    0.64
   2   4 -12    3.92    0.58
   1   4 -12   10.42    0.85
   0   4 -12    5.88    0.74
   0   4 -12    5.71    0.59
  -1   4 -12    7.16    0.75
  -1   4 -12    8.92    0.92
  -2   4 -12    2.58    0.67
  -2   4 -12    2.83    0.62
  -3   4 -12    0.18    0.45
  -3   4 -12    0.96    0.53
   5   3 -12    0.13    0.61
   4   3 -12    2.39    0.69
   3   3 -12    8.22    0.90
   2   3 -12    6.47    0.72
   1   3 -12    5.46    0.68
   0   3 -12   12.00    0.94
  -1   3 -12   20.34    1.19
  -1   3 -12   20.23    1.30
  -2   3 -12    1.69    0.60
  -2   3 -12    2.88    0.64
  -3   3 -12    4.98    0.94
   3  -3  12    2.36    0.70
   5   2 -12    0.51    0.59
   4   2 -12    2.08    0.63
   3   2 -12    2.42    0.56
   2   2 -12    8.89    0.85
   1   2 -12   12.58    0.99
   0   2 -12    9.59    0.92
  -1   2 -12   17.47    1.22
  -1   2 -12   16.65    1.10
   1  -2  12   18.28    1.16
  -2   2 -12    7.01    1.00
   2  -2  12    7.16    0.92
   3  -2  12    3.49    0.77
   5   1 -12   -0.01    0.48
   4   1 -12    0.13    0.37
   3   1 -12    0.52    0.35
   2   1 -12    2.63    0.53
   1   1 -12   13.21    1.03
   0   1 -12   19.16    1.27
  -1   1 -12    5.49    0.82
   1  -1  12    4.75    0.68
  -2   1 -12    7.42    1.06
   2  -1  12    7.73    0.95
   3  -1  12    1.97    0.63
   5   0 -12    0.05    0.51
   4   0 -12    0.21    0.40
   3   0 -12    0.36    0.31
   2   0 -12    0.47    0.34
   1   0 -12    0.79    0.40
   1   0 -12    0.92    0.44
   0   0 -12    3.74    0.68
  -1   0 -12    0.93    0.53
   1   0  12    1.96    0.52
  -2   0 -12    3.47    0.83
   2   0  12    4.72    0.78
   3   0  12    1.42    0.61
   5  -1 -12    0.16    0.51
   4  -1 -12    0.21    0.37
   3  -1 -12   -0.07    0.30
   2  -1 -12   -0.03    0.33
   2  -1 -12    0.06    0.31
   1  -1 -12    0.48    0.39
   1  -1 -12    0.26    0.36
   0  -1 -12    3.28    0.68
  -1  -1 -12    0.40    0.52
  -2  -1 -12    0.05    0.54
   2   1  12    0.04    0.42
   3   1  12    0.14    0.50
   4  -2 -12    0.18    0.44
   4  -2 -12   -0.05    0.37
   3  -2 -12    0.55    0.38
   3  -2 -12    0.16    0.41
   2  -2 -12    1.25    0.49
   2  -2 -12    2.18    0.63
   1  -2 -12    3.34    0.66
   1  -2 -12    2.25    0.59
   0  -2 -12    0.26    0.42
  -1  -2 -12    1.00    0.61
  -2  -2 -12    1.26    0.67
   2   2  12    0.44    0.46
   3   2  12    0.41    0.53
   4  -3 -12   -0.24    0.42
   4  -3 -12    0.60    0.43
   3  -3 -12    1.14    0.47
   3  -3 -12    1.48    0.62
   2  -3 -12    1.41    0.48
   2  -3 -12    1.17    0.54
   1  -3 -12    3.31    0.68
   1  -3 -12    2.75    0.63
   0  -3 -12    0.68    0.51
  -1  -3 -12    3.61    0.85
  -2  -3 -12   -0.04    0.58
   2   3  12    0.48    0.46
   3   3  12    0.78    0.63
   4  -4 -12    0.42    0.56
   3  -4 -12    1.38    0.54
   2  -4 -12    0.86    0.47
   2  -4 -12    1.32    0.56
   1  -4 -12    2.83    0.64
   1  -4 -12    3.07    0.69
   0  -4 -12    4.23    0.80
  -1  -4 -12    2.01    0.71
   4  -5 -12    0.05    0.48
   3  -5 -12    0.09    0.43
   2  -5 -12    1.31    0.58
   1  -5 -12    0.48    0.48
   1  -5 -12    0.58    0.50
   0  -5 -12    2.54    0.74
  -1  -5 -12    2.47    0.80
   3  -6 -12    0.34    0.52
   2  -6 -12    0.34    0.48
   1  -6 -12   -0.52    0.42
  -1  -6 -12    0.79    0.70
   3  -7 -12   -0.37    0.45
   2  -7 -12   -0.12    0.55
   2  -8 -12    0.25    0.65
   1  14 -13    0.22    0.54
   0  14 -13   -0.37    0.45
  -1  14 -13    0.17    0.53
   1  13 -13    2.02    0.65
   0  13 -13    2.44    0.69
  -1  13 -13    0.73    0.57
  -2  13 -13    0.93    0.67
   1  12 -13    2.79    0.67
   0  12 -13    2.71    0.69
  -1  12 -13    4.30    0.87
  -2  12 -13    0.01    0.47
   1  11 -13    1.06    0.48
   0  11 -13    3.53    0.72
  -1  11 -13    6.75    0.92
  -2  11 -13    1.27    0.61
   3  10 -13    0.38    0.46
   2  10 -13    1.01    0.42
   1  10 -13    0.72    0.42
   0  10 -13    1.17    0.45
  -1  10 -13    4.57    0.78
  -2  10 -13    1.16    0.55
  -3  10 -13    1.92    0.75
   3   9 -13    0.38    0.43
   2   9 -13    0.06    0.31
   1   9 -13    2.11    0.50
   0   9 -13    1.12    0.46
   0   9 -13    1.78    0.51
  -1   9 -13    0.96    0.47
  -2   9 -13    0.17    0.48
  -3   9 -13   -0.04    0.55
   4   8 -13    0.51    0.51
   3   8 -13    1.37    0.54
   2   8 -13    0.04    0.26
   1   8 -13    0.45    0.33
   0   8 -13   -0.27    0.30
   0   8 -13   -0.43    0.24
  -1   8 -13    0.39    0.36
  -1   8 -13   -0.21    0.29
  -2   8 -13    0.20    0.41
  -2   8 -13    0.30    0.41
  -3   8 -13    0.11    0.53
   4   7 -13    0.61    0.51
   3   7 -13    1.81    0.56
   2   7 -13    1.33    0.42
   1   7 -13    5.23    0.68
   0   7 -13   13.62    0.96
   0   7 -13   13.86    1.03
  -1   7 -13    4.88    0.73
  -1   7 -13    4.36    0.70
  -2   7 -13    0.06    0.41
  -2   7 -13    0.10    0.38
  -3   7 -13    0.51    0.47
  -3   7 -13    0.58    0.61
   4   6 -13    0.11    0.45
   3   6 -13    1.22    0.49
   2   6 -13    5.49    0.70
   1   6 -13    6.53    0.76
   0   6 -13    5.06    0.62
   0   6 -13    4.93    0.70
  -1   6 -13   19.78    1.27
  -1   6 -13   20.36    1.30
  -2   6 -13    1.96    0.64
  -2   6 -13    4.69    0.79
  -3   6 -13    3.75    0.83
  -3   6 -13    2.21    0.72
   4   5 -13    1.98    0.63
   3   5 -13    3.68    0.69
   2   5 -13    6.34    0.76
   1   5 -13    8.37    0.86
   0   5 -13    4.90    0.71
  -1   5 -13    4.09    0.70
  -1   5 -13    3.38    0.58
  -2   5 -13    7.30    0.99
  -2   5 -13   10.37    1.05
  -3   5 -13    2.45    0.74
  -3   5 -13    1.94    0.70
   4   4 -13    0.13    0.47
   3   4 -13    2.29    0.58
   2   4 -13    3.61    0.61
   1   4 -13   11.32    0.94
   0   4 -13   16.07    1.13
  -1   4 -13    6.41    0.85
  -1   4 -13    5.32    0.69
  -2   4 -13    5.94    0.96
  -2   4 -13    6.43    0.86
  -3   4 -13    1.81    0.72
   3  -4  13    2.64    0.74
   4   3 -13   -0.23    0.39
   3   3 -13    0.00    0.30
   2   3 -13    0.56    0.37
   1   3 -13    0.66    0.39
   0   3 -13    3.52    0.65
  -1   3 -13   11.23    1.07
  -1   3 -13   10.09    0.92
  -2   3 -13    1.57    0.68
   2  -3  13    2.90    0.66
  -3   3 -13    1.62    0.71
   3  -3  13    0.67    0.56
   4   2 -13    0.08    0.41
   3   2 -13   -0.11    0.29
   2   2 -13    0.02    0.28
   1   2 -13    0.42    0.37
   0   2 -13    0.37    0.43
  -1   2 -13   -0.11    0.44
   1  -2  13    0.19    0.35
  -2   2 -13    0.39    0.50
   2  -2  13   -0.02    0.35
  -3   2 -13    0.88    0.66
   3  -2  13    0.01    0.47
   4   1 -13    0.12    0.40
   3   1 -13    0.58    0.37
   2   1 -13    1.99    0.51
   1   1 -13    1.01    0.45
   0   1 -13    0.80    0.46
  -1   1 -13    1.12    0.61
  -2   1 -13    0.20    0.48
   2  -1  13    1.01    0.53
   3  -1  13    0.25    0.52
   4   0 -13    0.38    0.45
   3   0 -13    1.42    0.50
   2   0 -13    1.14    0.47
   1   0 -13   11.47    1.00
   0   0 -13    1.38    0.59
  -1   0 -13    3.03    0.75
  -2   0 -13    1.73    0.76
   2   0  13    1.42    0.53
   3   0  13    1.73    0.66
   4  -1 -13    0.16    0.40
   3  -1 -13    1.60    0.51
   2  -1 -13    1.41    0.51
   2  -1 -13    0.36    0.39
   1  -1 -13    5.34    0.78
   0  -1 -13    5.60    0.86
  -1  -1 -13    6.08    0.97
  -2  -1 -13    3.19    0.89
   2   1  13    1.66    0.59
   3   1  13    0.64    0.55
   4  -2 -13    0.46    0.53
   4  -2 -13    0.25    0.43
   3  -2 -13    0.78    0.52
   3  -2 -13    0.68    0.42
   2  -2 -13    2.91    0.64
   2  -2 -13    4.42    0.80
   1  -2 -13    0.63    0.45
   0  -2 -13    8.09    0.96
  -1  -2 -13    2.76    0.77
  -2  -2 -13    3.23    0.92
   4  -3 -13    0.07    0.50
   3  -3 -13   -0.01    0.42
   3  -3 -13    0.23    0.40
   2  -3 -13    0.63    0.46
   2  -3 -13    1.35    0.58
   1  -3 -13    1.35    0.54
   0  -3 -13    3.80    0.78
  -1  -3 -13    1.26    0.68
  -2  -3 -13    0.83    0.69
   4  -4 -13   -0.07    0.49
   3  -4 -13    0.22    0.48
   2  -4 -13    0.01    0.43
   2  -4 -13   -0.03    0.37
   1  -4 -13   -0.32    0.44
   0  -4 -13    0.01    0.49
  -1  -4 -13    0.42    0.66
   3  -5 -13    0.28    0.48
   2  -5 -13    0.42    0.54
   0  -5 -13    1.11    0.70
  -1  -5 -13    0.62    0.72
   3  -6 -13    0.26    0.53
   2  -6 -13   -0.01    0.52
  -1  -6 -13   -0.17    0.67
   2  -7 -13    0.10    0.61
   0  14 -14    1.05    0.66
   0  13 -14    1.20    0.60
  -1  13 -14    0.47    0.54
   0  12 -14   -0.39    0.45
  -1  12 -14    0.35    0.50
  -2  12 -14    0.65    0.63
   3  11 -14    0.15    0.43
   0  11 -14    0.18    0.43
  -1  11 -14    0.52    0.45
  -2  11 -14   -0.46    0.48
   3  10 -14    0.35    0.45
   2  10 -14    0.87    0.43
   1  10 -14    0.37    0.36
   0  10 -14    2.31    0.60
  -1  10 -14    1.77    0.62
  -2  10 -14    1.14    0.62
   3   9 -14    0.62    0.48
   2   9 -14    1.45    0.50
   1   9 -14    5.12    0.72
   0   9 -14   10.07    0.97
  -1   9 -14    1.57    0.55
  -2   9 -14    2.57    0.77
  -3   9 -14    1.79    0.78
   4   8 -14    0.37    0.53
   3   8 -14    0.91    0.45
   2   8 -14    1.02    0.42
   1   8 -14    8.90    0.92
   0   8 -14    0.83    0.45
   0   8 -14    0.80    0.40
  -1   8 -14    6.27    0.85
  -1   8 -14    7.95    0.90
  -2   8 -14    3.81    0.75
  -2   8 -14    4.02    0.82
  -3   8 -14    4.58    0.98
   4   7 -14    0.31    0.49
   3   7 -14    0.53    0.42
   2   7 -14    1.68    0.49
   1   7 -14    4.31    0.69
   0   7 -14    0.34    0.43
  -1   7 -14   10.54    1.02
  -1   7 -14    9.54    0.99
  -2   7 -14    1.39    0.58
  -2   7 -14    1.22    0.58
  -3   7 -14    2.38    0.76
  -3   7 -14    1.95    0.74
   4   6 -14   -0.04    0.44
   3   6 -14    0.21    0.35
   2   6 -14    2.04    0.53
   1   6 -14    0.54    0.40
   0   6 -14   10.86    1.02
  -1   6 -14    1.15    0.46
  -1   6 -14    0.94    0.49
  -2   6 -14    3.22    0.76
  -2   6 -14    2.58    0.70
  -3   6 -14    0.58    0.58
  -3   6 -14    0.26    0.56
   4   5 -14   -0.36    0.41
   3   5 -14   -0.05    0.33
   2   5 -14    0.25    0.34
   1   5 -14    0.85    0.44
   0   5 -14    2.29    0.57
  -1   5 -14   -0.02    0.31
  -1   5 -14   -0.19    0.39
  -2   5 -14    0.03    0.41
  -2   5 -14    0.50    0.51
  -3   5 -14    0.55    0.56
  -3   5 -14    0.87    0.61
   4   4 -14    0.32    0.47
   3   4 -14    0.72    0.39
   2   4 -14    1.05    0.43
   1   4 -14    2.03    0.53
   0   4 -14    0.75    0.49
  -1   4 -14    3.21    0.70
  -2   4 -14    0.14    0.48
  -2   4 -14    0.66    0.49
  -3   4 -14    0.33    0.52
   3  -4  14   -0.51    0.42
   4   3 -14    0.47    0.51
   3   3 -14    1.04    0.46
   2   3 -14    4.00    0.67
   1   3 -14    1.22    0.50
   0   3 -14    8.07    0.92
  -1   3 -14    3.88    0.75
  -2   3 -14    0.80    0.65
   2  -3  14    1.51    0.60
  -3   3 -14    0.79    0.62
   3  -3  14    0.75    0.56
   4   2 -14    1.77    0.59
   3   2 -14    2.10    0.58
   2   2 -14    1.06    0.46
   1   2 -14    3.03    0.67
   0   2 -14   14.56    1.17
  -1   2 -14    1.78    0.62
  -2   2 -14    4.35    0.94
   2  -2  14    3.82    0.76
  -3   2 -14    0.70    0.63
   3  -2  14    0.10    0.49
   4   1 -14    0.14    0.40
   3   1 -14    1.43    0.54
   2   1 -14    1.00    0.50
   1   1 -14    1.72    0.54
   0   1 -14    7.30    0.96
  -1   1 -14    4.09    0.85
  -2   1 -14    2.83    0.84
   2  -1  14    3.62    0.75
   3  -1  14    1.43    0.64
   4   0 -14    0.61    0.50
   3   0 -14   -0.04    0.38
   2   0 -14    1.95    0.60
   2   0 -14    0.65    0.43
   1   0 -14    2.34    0.61
   0   0 -14    0.93    0.56
  -1   0 -14    4.01    0.86
  -2   0 -14    0.60    0.66
   3   0  14    1.67    0.76
   4  -1 -14   -0.25    0.40
   3  -1 -14    0.16    0.45
   3  -1 -14    0.08    0.41
   2  -1 -14    0.47    0.45
   2  -1 -14    0.41    0.38
   1  -1 -14    0.47    0.47
   0  -1 -14   -0.04    0.45
  -1  -1 -14    1.47    0.64
  -2  -1 -14    0.92    0.72
   4  -2 -14    0.05    0.46
   4  -2 -14    0.20    0.57
   3  -2 -14    0.45    0.51
   3  -2 -14   -0.02    0.39
   2  -2 -14    0.00    0.41
   2  -2 -14   -0.04    0.38
   1  -2 -14    0.79    0.54
   0  -2 -14    0.19    0.46
  -1  -2 -14    1.05    0.68
  -2  -2 -14    0.52    0.65
   4  -3 -14    0.34    0.56
   3  -3 -14    0.39    0.51
   3  -3 -14    0.84    0.52
   2  -3 -14    1.07    0.53
   2  -3 -14    0.86    0.48
   1  -3 -14    0.70    0.54
   0  -3 -14    0.53    0.58
  -1  -3 -14   -0.45    0.51
  -2  -3 -14    0.71    0.75
   3  -4 -14    0.20    0.51
   2  -4 -14   -0.03    0.49
   2  -4 -14    0.82    0.55
   1  -4 -14   -0.24    0.45
   0  -4 -14    1.36    0.69
  -1  -4 -14    1.40    0.75
   3  -5 -14    0.08    0.51
   2  -5 -14    0.45    0.57
   0  -5 -14    0.56    0.68
  -1  -5 -14    1.63    0.84
   2  -6 -14   -0.27    0.54
   0  13 -15    0.17    0.56
  -1  13 -15    0.26    0.62
   0  12 -15    0.29    0.53
  -1  12 -15    2.42    0.76
  -1  11 -15    2.48    0.77
  -2  11 -15    1.29    0.67
   3  10 -15    0.66    0.50
   2  10 -15    0.22    0.40
   1  10 -15    3.04    0.67
  -1  10 -15    1.08    0.63
  -2  10 -15    1.69    0.71
   3   9 -15   -0.28    0.36
   2   9 -15   -0.29    0.31
   1   9 -15    0.27    0.44
   0   9 -15    2.13    0.61
  -1   9 -15    1.00    0.55
  -2   9 -15    3.10    0.83
   3   8 -15    0.42    0.44
   2   8 -15    0.88    0.43
   1   8 -15   -0.12    0.37
   0   8 -15    0.19    0.43
  -1   8 -15    0.11    0.43
  -1   8 -15   -0.01    0.45
  -2   8 -15   -0.12    0.47
  -2   8 -15    0.19    0.51
   3   7 -15    0.03    0.36
   2   7 -15    0.31    0.37
   1   7 -15    0.11    0.35
   0   7 -15    0.41    0.46
  -1   7 -15    0.15    0.39
  -1   7 -15    0.30    0.51
  -2   7 -15    0.63    0.57
  -2   7 -15    0.86    0.54
  -3   7 -15   -0.11    0.57
  -3   7 -15   -0.09    0.50
   4   6 -15    0.83    0.52
   3   6 -15    0.30    0.40
   2   6 -15    3.19    0.66
   1   6 -15    3.93    0.75
   0   6 -15    4.17    0.74
  -1   6 -15    0.79    0.52
  -2   6 -15    1.12    0.54
  -2   6 -15    0.58    0.55
  -3   6 -15    0.93    0.65
  -3   6 -15    0.91    0.67
   4   5 -15    1.07    0.53
   3   5 -15    0.94    0.47
   2   5 -15    3.04    0.65
   1   5 -15    0.82    0.47
   0   5 -15   10.38    1.05
  -1   5 -15    3.47    0.71
  -2   5 -15    2.47    0.78
  -2   5 -15    3.17    0.73
  -3   5 -15    1.24    0.69
   3  -5  15    1.18    0.67
   4   4 -15    0.67    0.53
   3   4 -15    1.67    0.57
   2   4 -15    1.59    0.54
   1   4 -15    1.15    0.49
   0   4 -15    3.09    0.70
  -1   4 -15    5.32    0.87
  -2   4 -15    1.63    0.68
   2  -4  15    3.94    0.80
  -3   4 -15    1.50    0.72
   3  -4  15    2.49    0.77
   4   3 -15   -0.08    0.42
   3   3 -15    0.68    0.43
   2   3 -15    0.74    0.49
   1   3 -15    3.96    0.76
   0   3 -15    2.59    0.67
  -1   3 -15    1.32    0.59
  -2   3 -15    1.32    0.71
  -3   3 -15    2.27    0.86
   3  -3  15    0.42    0.59
   4   2 -15   -0.21    0.42
   3   2 -15    0.70    0.48
   2   2 -15    0.57    0.43
   1   2 -15    0.51    0.46
   0   2 -15    1.08    0.55
  -1   2 -15    0.85    0.59
  -2   2 -15    0.37    0.59
  -3   2 -15    0.77    0.73
   3  -2  15    0.27    0.54
   4   1 -15   -0.28    0.43
   3   1 -15   -0.31    0.37
   2   1 -15    0.11    0.43
   1   1 -15   -0.07    0.40
   0   1 -15    2.01    0.67
  -1   1 -15    0.24    0.55
  -2   1 -15    0.35    0.59
   4   0 -15    0.08    0.45
   3   0 -15    0.78    0.51
   2   0 -15    0.73    0.51
   1   0 -15    1.44    0.62
   0   0 -15    0.45    0.56
  -1   0 -15   -0.03    0.58
  -2   0 -15    1.24    0.79
   4  -1 -15    0.90    0.60
   4  -1 -15    0.20    0.58
   3  -1 -15    0.30    0.47
   3  -1 -15    0.44    0.57
   2  -1 -15    1.96    0.65
   1  -1 -15    0.30    0.46
   0  -1 -15    1.24    0.60
  -1  -1 -15    2.81    0.86
  -2  -1 -15    3.05    1.05
   3  -2 -15    0.02    0.47
   3  -2 -15    0.05    0.52
   2  -2 -15    0.93    0.52
   1  -2 -15   -0.29    0.46
   0  -2 -15    2.62    0.74
  -1  -2 -15    1.91    0.80
   3  -3 -15    0.25    0.53
   3  -3 -15    0.05    0.52
   2  -3 -15    0.30    0.53
   1  -3 -15    1.20    0.61
   0  -3 -15    0.51    0.56
  -1  -3 -15    2.02    0.81
   3  -4 -15    0.03    0.55
   1  -4 -15    0.54    0.57
   0  -4 -15    0.61    0.66
  -1  12 -16   -0.03    0.59
  -1  11 -16    0.00    0.62
   2  10 -16    0.25    0.42
   1  10 -16    0.14    0.45
  -1  10 -16    0.36    0.51
  -2  10 -16    0.19    0.63
   3   9 -16    0.41    0.45
   2   9 -16    0.18    0.39
   1   9 -16    0.65    0.52
   0   9 -16    2.05    0.64
  -2   9 -16    1.02    0.67
   3   8 -16    0.36    0.45
   2   8 -16    0.78    0.48
   1   8 -16    5.26    0.88
   0   8 -16    1.47    0.59
  -1   8 -16    2.25    0.67
  -2   8 -16    1.20    0.68
  -2   8 -16    1.09    0.66
   3   7 -16    0.36    0.43
   2   7 -16    2.30    0.63
   1   7 -16    1.40    0.59
   0   7 -16    3.17    0.71
  -1   7 -16    2.14    0.66
  -2   7 -16    4.11    0.88
  -2   7 -16    4.09    0.91
   3   6 -16    0.69    0.47
   2   6 -16    1.23    0.49
   1   6 -16    0.45    0.50
   0   6 -16    1.91    0.62
  -1   6 -16    2.57    0.69
  -2   6 -16    2.44    0.78
   3   5 -16   -0.19    0.38
   2   5 -16    0.36    0.46
   1   5 -16    0.55    0.48
   0   5 -16    0.12    0.49
  -1   5 -16    1.10    0.57
  -2   5 -16    0.49    0.63
   4   4 -16    0.02    0.48
   3   4 -16   -0.01    0.45
   2   4 -16    0.18    0.40
   1   4 -16    0.36    0.45
   0   4 -16   -0.02    0.43
  -1   4 -16    0.35    0.53
  -2   4 -16    0.31    0.59
   4   3 -16    0.67    0.57
   3   3 -16    0.59    0.49
   2   3 -16    0.46    0.47
   1   3 -16    1.69    0.60
   0   3 -16    0.76    0.56
  -1   3 -16    0.60    0.57
  -2   3 -16    0.23    0.61
   4   2 -16    0.22    0.51
   3   2 -16    0.90    0.55
   2   2 -16    1.10    0.57
   1   2 -16    1.82    0.61
   0   2 -16    1.68    0.68
  -1   2 -16    1.16    0.63
  -2   2 -16    0.98    0.72
   3   1 -16    0.64    0.53
   2   1 -16    1.16    0.60
   1   1 -16    0.44    0.55
   0   1 -16    1.05    0.63
  -1   1 -16    1.89    0.79
  -2   1 -16    2.21    0.85
   3   0 -16    0.74    0.58
   3   0 -16    0.55    0.55
   2   0 -16    0.60    0.53
   1   0 -16    1.55    0.66
   0   0 -16    2.19    0.75
  -1   0 -16    1.29    0.74
  -2   0 -16    1.36    0.84
   3  -1 -16    0.39    0.51
   3  -1 -16   -0.19    0.49
   2  -1 -16   -0.10    0.46
   1  -1 -16    1.01    0.59
   0  -1 -16    0.74    0.60
  -1  -1 -16    0.57    0.66
   3  -2 -16    0.34    0.60
   3  -2 -16    0.14    0.54
   2  -2 -16   -0.31    0.47
   1  -2 -16   -0.32    0.49
   0  -2 -16   -0.09    0.57
  -1  -2 -16    0.04    0.67
   2  -3 -16   -0.86    0.44
   1  -3 -16    0.55    0.59
   0  -3 -16    0.10    0.60
   1  -4 -16   -0.34    0.52
   2  10 -17    1.04    0.57
   1  10 -17    1.46    0.64
   2   9 -17    0.46    0.52
   1   9 -17    0.40    0.51
   0   9 -17   -0.12    0.54
  -1   9 -17    1.56    0.62
   3   8 -17    0.19    0.48
   2   8 -17    0.36    0.45
   1   8 -17    0.06    0.48
   0   8 -17   -0.36    0.47
  -1   8 -17    0.30    0.51
  -2   8 -17    0.13    0.63
   3   7 -17    0.44    0.48
   2   7 -17    0.17    0.45
   1   7 -17    0.50    0.50
   0   7 -17    0.12    0.49
  -1   7 -17   -0.42    0.45
  -2   7 -17    0.91    0.69
   3   6 -17   -0.12    0.43
   2   6 -17    1.14    0.54
   1   6 -17    0.27    0.47
   0   6 -17   -0.42    0.43
  -1   6 -17    0.07    0.51
  -2   6 -17    0.25    0.65
   3   5 -17    0.56    0.51
   2   5 -17    1.08    0.55
   1   5 -17    2.52    0.71
   0   5 -17    1.21    0.63
  -1   5 -17    0.58    0.56
  -2   5 -17    0.20    0.59
   3   4 -17    0.59    0.57
   2   4 -17    0.37    0.48
   1   4 -17    4.03    0.82
   0   4 -17    2.31    0.75
  -1   4 -17    0.73    0.60
  -2   4 -17    0.22    0.67
   3   3 -17    0.19    0.48
   2   3 -17    0.53    0.57
   1   3 -17    0.75    0.57
   0   3 -17    0.60    0.58
  -1   3 -17    1.30    0.69
  -2   3 -17    0.66    0.67
   3   2 -17   -0.01    0.48
   2   2 -17    0.32    0.59
   1   2 -17    0.89    0.61
   0   2 -17   -0.10    0.58
  -1   2 -17    1.47    0.71
   3   1 -17    0.04    0.50
   2   1 -17    0.47    0.55
   1   1 -17    0.12    0.56
   0   1 -17    0.68    0.62
  -1   1 -17    0.04    0.68
   3   0 -17   -0.23    0.57
   2   0 -17   -0.01    0.52
   1   0 -17    0.61    0.62
   0   0 -17   -0.29    0.51
  -1   0 -17    0.07    0.67
   2  -1 -17    0.09    0.50
   1  -1 -17    0.29    0.55
   0  -1 -17    0.09    0.59
   2  -2 -17    0.10    0.57
   1  -2 -17    0.46    0.62
   0  -2 -17    0.32    0.64
   1  10 -18   -0.20    0.57
   2   9 -18    0.31    0.55
   1   9 -18   -0.15    0.52
   0   9 -18    0.21    0.56
  -1   9 -18   -0.12    0.52
   2   8 -18   -0.24    0.48
   1   8 -18    0.27    0.57
   0   8 -18    0.17    0.55
  -1   8 -18    0.56    0.61
   2   7 -18    0.62    0.55
   1   7 -18    1.11    0.62
   0   7 -18    1.04    0.63
  -1   7 -18    0.53    0.59
   2   6 -18    0.16    0.56
   1   6 -18    2.48    0.74
   0   6 -18    1.12    0.64
  -1   6 -18    2.40    0.76
   2   5 -18    0.46    0.55
   1   5 -18    0.85    0.59
   0   5 -18    0.28    0.59
  -1   5 -18    0.72    0.66
   2   4 -18   -0.46    0.48
   1   4 -18    0.82    0.57
   0   4 -18    0.39    0.57
  -1   4 -18   -0.58    0.57
   2   3 -18    0.66    0.62
   1   3 -18    0.37    0.58
   0   3 -18   -0.45    0.50
  -1   3 -18   -0.52    0.54
   2   2 -18    0.25    0.62
   1   2 -18   -0.29    0.56
   0   2 -18    1.01    0.68
  -1   2 -18    0.31    0.66
   2   1 -18    1.30    0.72
   1   1 -18   -0.18    0.56
   0   1 -18    0.59    0.66
   2   0 -18    0.56    0.64
   1   0 -18    0.10    0.65
   0   0 -18    0.87    0.66
   1   8 -19   -0.03    0.54
   0   8 -19    1.02    0.68
   1   7 -19    0.15    0.54
   0   7 -19    0.97    0.66
   1   6 -19    0.95    0.66
   0   6 -19    0.02    0.57
   2   5 -19   -0.20    0.53
   1   5 -19   -0.14    0.54
   0   5 -19    0.24    0.63
   2   4 -19    0.92    0.70
   1   4 -19    0.19    0.57
   0   4 -19    1.16    0.69
   1   3 -19    0.65    0.70
   0   3 -19    1.12    0.68
   1   2 -19   -0.09    0.61
   0   0   0    0.00    0.00
;
loop_
_space_group_symop_operation_xyz
'x, y, z'
'-x, -y, -z'
loop_
_atom_site_label
_atom_site_type_symbol
_atom_site_fract_x
_atom_site_fract_y
_atom_site_fract_z
_atom_site_U_iso_or_equiv
_atom_site_adp_type
_atom_site_occupancy
_atom_site_site_symmetry_order
_atom_site_calc_flag
_atom_site_refinement_flags_posn
_atom_site_refinement_flags_adp
_atom_site_refinement_flags_occupancy
_atom_site_disorder_assembly
_atom_site_disorder_group
I1 I 1.51074(10) 0.92313(4) 0.77704(3) 0.0673(2) Uani 1 1 d . . . . .
O1 O -0.3231(16) 0.6328(5) -0.0621(4) 0.123(2) Uani 1 1 d . . . . .
O2 O -0.0358(12) 0.7943(5) 0.0417(3) 0.0865(15) Uani 1 1 d . . . . .
N1 N 0.8841(14) 0.6054(5) 0.6021(4) 0.0794(17) Uani 1 1 d . . . . .
N2 N 0.8300(12) 0.6828(4) 0.5546(3) 0.0570(12) Uani 1 1 d . . . . .
N3 N 0.9939(11) 0.8818(4) 0.5622(3) 0.0503(11) Uani 1 1 d . . . . .
C1 C 1.1978(14) 0.7850(5) 0.6763(4) 0.0538(14) Uani 1 1 d . U . . .
C2 C 1.1077(17) 0.6686(6) 0.6753(5) 0.0729(19) Uani 1 1 d . U . . .
H2 H 1.195792 0.638597 0.721274 0.087 Uiso 1 1 calc R . . . .
C3 C 1.0156(13) 0.7919(5) 0.5972(4) 0.0469(13) Uani 1 1 d . . . . .
C4 C 0.6111(14) 0.6588(5) 0.4756(4) 0.0603(16) Uani 1 1 d . . . . .
H4 H 0.482292 0.583944 0.448748 0.072 Uiso 1 1 calc R . . . .
C5 C 0.5823(13) 0.7453(5) 0.4363(4) 0.0471(13) Uani 1 1 d . . . . .
C6 C 0.7864(13) 0.8562(5) 0.4839(4) 0.0510(14) Uani 1 1 d . . . . .
H6 H 0.771551 0.916454 0.457071 0.061 Uiso 1 1 calc R . . . .
C7 C 0.3472(7) 0.7280(3) 0.3508(2) 0.0476(13) Uani 1 1 d . . . . .
C8 C 0.2200(8) 0.6122(2) 0.2845(3) 0.0529(14) Uani 1 1 d G . . . .
H8 H 0.286246 0.544837 0.293120 0.063 Uiso 1 1 calc R . . . .
C9 C -0.0063(8) 0.5972(2) 0.2054(2) 0.0579(15) Uani 1 1 d G . . . .
H9 H -0.091475 0.519679 0.161014 0.070 Uiso 1 1 calc R . . . .
C10 C -0.1054(7) 0.6979(3) 0.1925(2) 0.0495(14) Uani 1 1 d G . . . .
C11 C 0.0219(8) 0.8137(3) 0.2588(3) 0.0534(14) Uani 1 1 d G . . . .
H11 H -0.044380 0.881110 0.250160 0.064 Uiso 1 1 calc R . . . .
C12 C 0.2482(8) 0.8288(2) 0.3379(2) 0.0517(14) Uani 1 1 d G . . . .
H12 H 0.333343 0.906270 0.382266 0.062 Uiso 1 1 calc R . . . .
C13 C -0.3502(14) 0.6805(6) 0.1078(4) 0.0631(16) Uani 1 1 d . . . . .
H13A H -0.485778 0.737453 0.130201 0.076 Uiso 1 1 calc R . . . .
H13B H -0.466943 0.599266 0.087190 0.076 Uiso 1 1 calc R . . . .
C14 C -0.2364(16) 0.6974(6) 0.0202(5) 0.0647(17) Uani 1 1 d . U . . .
C15 C 0.0847(19) 0.8153(8) -0.0393(6) 0.107(3) Uani 1 1 d . . . . .
H15A H 0.230316 0.889277 -0.014423 0.160 Uiso 1 1 calc R . . . .
H15B H 0.181385 0.748928 -0.072003 0.160 Uiso 1 1 calc R . . . .
H15C H -0.077200 0.821787 -0.085533 0.160 Uiso 1 1 calc R . . . .
loop_
_atom_site_aniso_label
_atom_site_aniso_U_11
_atom_site_aniso_U_22
_atom_site_aniso_U_33
_atom_site_aniso_U_23
_atom_site_aniso_U_13
_atom_site_aniso_U_12
I1 0.0621(3) 0.0716(3) 0.0674(3) 0.0314(2) -0.0015(2) 0.0021(2)
O1 0.167(6) 0.103(4) 0.070(4) 0.008(3) 0.019(4) -0.015(4)
O2 0.088(4) 0.109(4) 0.062(3) 0.044(3) 0.003(3) -0.013(3)
N1 0.101(5) 0.054(3) 0.084(4) 0.043(3) -0.016(3) -0.003(3)
N2 0.071(3) 0.047(3) 0.059(3) 0.031(2) 0.004(3) 0.004(2)
N3 0.056(3) 0.043(2) 0.050(3) 0.020(2) 0.004(2) -0.001(2)
C1 0.061(4) 0.054(3) 0.051(3) 0.024(3) 0.009(3) 0.012(3)
C2 0.086(5) 0.061(4) 0.071(4) 0.032(3) -0.005(4) 0.007(3)
C3 0.054(4) 0.042(3) 0.051(3) 0.023(3) 0.013(3) 0.008(3)
C4 0.067(4) 0.049(3) 0.063(4) 0.026(3) -0.001(3) -0.004(3)
C5 0.054(4) 0.042(3) 0.050(3) 0.021(3) 0.015(3) 0.005(3)
C6 0.056(4) 0.044(3) 0.059(4) 0.027(3) 0.011(3) 0.004(3)
C7 0.046(3) 0.049(3) 0.049(3) 0.021(3) 0.013(3) 0.002(3)
C8 0.055(4) 0.043(3) 0.060(4) 0.023(3) 0.003(3) 0.001(3)
C9 0.060(4) 0.045(3) 0.064(4) 0.019(3) 0.005(3) 0.002(3)
C10 0.038(3) 0.065(4) 0.050(3) 0.026(3) 0.012(3) 0.005(3)
C11 0.056(4) 0.049(3) 0.058(4) 0.020(3) 0.015(3) 0.014(3)
C12 0.061(4) 0.047(3) 0.054(3) 0.024(3) 0.015(3) 0.012(3)
C13 0.059(4) 0.068(4) 0.063(4) 0.024(3) 0.014(3) 0.006(3)
C14 0.066(4) 0.062(4) 0.065(4) 0.023(3) 0.001(3) 0.019(3)
C15 0.101(7) 0.154(8) 0.096(6) 0.089(6) 0.016(5) 0.014(6)
loop_
_atom_type_symbol
_atom_type_description
_atom_type_scat_dispersion_real
_atom_type_scat_dispersion_imag
_atom_type_scat_source
C C 0.0033 0.0016 'International Tables Vol C Tables 4.2.6.8 and 6.1.1.4'
H H 0.0000 0.0000 'International Tables Vol C Tables 4.2.6.8 and 6.1.1.4'
I I -0.4742 1.8119 'International Tables Vol C Tables 4.2.6.8 and 6.1.1.4'
N N 0.0061 0.0033 'International Tables Vol C Tables 4.2.6.8 and 6.1.1.4'
O O 0.0106 0.0060 'International Tables Vol C Tables 4.2.6.8 and 6.1.1.4'
loop_
_geom_angle_atom_site_label_1
_geom_angle_atom_site_label_2
_geom_angle_atom_site_label_3
_geom_angle
_geom_angle_site_symmetry_1
_geom_angle_site_symmetry_3
C14 O2 C15 117.0(6) . .
C2 N1 N2 103.7(5) . .
N1 N2 C3 112.6(5) . .
C4 N2 N1 125.2(5) . .
C4 N2 C3 122.1(5) . .
C6 N3 C3 115.5(5) . .
C2 C1 I1 129.1(5) . .
C3 C1 I1 125.7(4) . .
C3 C1 C2 105.1(6) . .
N1 C2 C1 112.6(6) . .
N1 C2 H2 123.7 . .
C1 C2 H2 123.7 . .
N2 C3 C1 105.9(5) . .
N3 C3 N2 121.7(5) . .
N3 C3 C1 132.3(5) . .
N2 C4 H4 120.7 . .
N2 C4 C5 118.7(5) . .
C5 C4 H4 120.7 . .
C4 C5 C6 116.0(5) . .
C4 C5 C7 122.6(5) . .
C6 C5 C7 121.4(4) . .
N3 C6 C5 126.0(5) . .
N3 C6 H6 117.0 . .
C5 C6 H6 117.0 . .
C8 C7 C5 120.6(3) . .
C8 C7 C12 120.0 . .
C12 C7 C5 119.4(3) . .
C7 C8 H8 120.0 . .
C9 C8 C7 120.0 . .
C9 C8 H8 120.0 . .
C8 C9 H9 120.0 . .
C10 C9 C8 120.0 . .
C10 C9 H9 120.0 . .
C9 C10 C11 120.0 . .
C9 C10 C13 119.5(3) . .
C11 C10 C13 120.5(3) . .
C10 C11 H11 120.0 . .
C12 C11 C10 120.0 . .
C12 C11 H11 120.0 . .
C7 C12 H12 120.0 . .
C11 C12 C7 120.0 . .
C11 C12 H12 120.0 . .
C10 C13 H13A 108.8 . .
C10 C13 H13B 108.8 . .
C10 C13 C14 113.9(5) . .
H13A C13 H13B 107.7 . .
C14 C13 H13A 108.8 . .
C14 C13 H13B 108.8 . .
O1 C14 O2 121.0(7) . .
O1 C14 C13 124.6(7) . .
O2 C14 C13 114.3(6) . .
O2 C15 H15A 109.5 . .
O2 C15 H15B 109.5 . .
O2 C15 H15C 109.5 . .
H15A C15 H15B 109.5 . .
H15A C15 H15C 109.5 . .
H15B C15 H15C 109.5 . .
loop_
_geom_bond_atom_site_label_1
_geom_bond_atom_site_label_2
_geom_bond_distance
_geom_bond_site_symmetry_2
I1 C1 2.036(6) .
O1 C14 1.171(8) .
O2 C14 1.294(8) .
O2 C15 1.439(8) .
N1 N2 1.351(6) .
N1 C2 1.315(8) .
N2 C3 1.354(7) .
N2 C4 1.347(7) .
N3 C3 1.339(6) .
N3 C6 1.305(7) .
C1 C2 1.388(8) .
C1 C3 1.364(8) .
C2 H2 0.9300 .
C4 H4 0.9300 .
C4 C5 1.347(7) .
C5 C6 1.414(7) .
C5 C7 1.473(6) .
C6 H6 0.9300 .
C7 C8 1.3900 .
C7 C12 1.3900 .
C8 H8 0.9300 .
C8 C9 1.3900 .
C9 H9 0.9300 .
C9 C10 1.3900 .
C10 C11 1.3900 .
C10 C13 1.491(6) .
C11 H11 0.9300 .
C11 C12 1.3900 .
C12 H12 0.9300 .
C13 H13A 0.9700 .
C13 H13B 0.9700 .
C13 C14 1.496(9) .
C15 H15A 0.9600 .
C15 H15B 0.9600 .
C15 H15C 0.9600 .
