#------------------------------------------------------------------------------
#$Date: 2022-07-11 11:20:10 +0300 (Mon, 11 Jul 2022) $
#$Revision: 276750 $
#$URL: file:///home/coder/svn-repositories/cod/cif/8/10/56/8105674.cif $
#------------------------------------------------------------------------------
#
# This file is available in the Crystallography Open Database (COD),
# http://www.crystallography.net/
#
# All data on this site have been placed in the public domain by the
# contributors.
#
data_8105674
loop_
_publ_author_name
'Brasil, Edikarlos'
'Samipillai, Marivel'
'Govender, Thavendran'
'Kruger, Hendrik G.'
'Naicker, Tricia'
_publ_section_title
;
 Crystal structure of (E)-2-(4-cyanophenyl)ethenesulfonyl fluoride,
 C9H6FNO2S
;
_journal_issue                   3
_journal_name_full
'Zeitschrift f\"ur Kristallographie - New Crystal Structures'
_journal_page_first              441
_journal_page_last               442
_journal_paper_doi               10.1515/ncrs-2018-0449
_journal_volume                  234
_journal_year                    2019
_chemical_formula_moiety         'C9 H6 F N O2 S'
_chemical_formula_sum            'C9 H6 F N O2 S'
_chemical_formula_weight         211.21
_space_group_crystal_system      triclinic
_space_group_IT_number           2
_space_group_name_Hall           '-P 1'
_space_group_name_H-M_alt        'P -1'
_atom_sites_solution_hydrogens   geom
_atom_sites_solution_primary     direct
_audit_contact_author_name
;
;
_audit_creation_date             2018-08-15
_audit_creation_method
;
Olex2 1.2
(compiled 2018.05.29 svn.r3508 for OlexSys, GUI svn.r5506)
;
_audit_update_record
;
2018-10-22 # Formatted by publCIF

;
_cell_angle_alpha                76.3200(10)
_cell_angle_beta                 87.9180(10)
_cell_angle_gamma                80.7840(10)
_cell_formula_units_Z            4
_cell_length_a                   7.2786(2)
_cell_length_b                   8.1014(3)
_cell_length_c                   16.1084(5)
_cell_measurement_reflns_used    9922
_cell_measurement_temperature    100(2)
_cell_measurement_theta_max      28.39
_cell_measurement_theta_min      2.84
_cell_volume                     911.00(5)
_computing_cell_refinement       'COSMO (Bruker, V1.61, 2009)[1]'
_computing_data_collection       'COSMO (Bruker, V1.61, 2009)[1]'
_computing_data_reduction        'SAINT (Bruker)[3]'
_computing_molecular_graphics    'Olex2 (Dolomanov et al., 2009)[2]'
_computing_publication_material  'Olex2 (Dolomanov et al., 2009)[2]'
_computing_structure_refinement  'ShelXL (Sheldrick, 2015)[5]'
_computing_structure_solution    'ShelXS-2013 (Sheldrick, 2008)[4,6]'
_diffrn_ambient_temperature      99.99
_diffrn_detector                 'Bruker APEX2 area detector'
_diffrn_detector_area_resol_mean 7.9
_diffrn_detector_type            'CCD area detector'
_diffrn_measured_fraction_theta_full 0.994
_diffrn_measured_fraction_theta_max 0.986
_diffrn_measurement_device       'three-circle diffractometer'
_diffrn_measurement_device_type  'Bruker SMART APEX2 area detector'
_diffrn_measurement_method       '\w and \f scans'
_diffrn_radiation_monochromator  graphite
_diffrn_radiation_probe          x-ray
_diffrn_radiation_type           MoK\a
_diffrn_radiation_wavelength     0.71073
_diffrn_reflns_av_R_equivalents  0.0150
_diffrn_reflns_av_unetI/netI     0.0114
_diffrn_reflns_Laue_measured_fraction_full 0.994
_diffrn_reflns_Laue_measured_fraction_max 0.986
_diffrn_reflns_limit_h_max       9
_diffrn_reflns_limit_h_min       -9
_diffrn_reflns_limit_k_max       10
_diffrn_reflns_limit_k_min       -10
_diffrn_reflns_limit_l_max       21
_diffrn_reflns_limit_l_min       -21
_diffrn_reflns_number            18629
_diffrn_reflns_point_group_measured_fraction_full 0.994
_diffrn_reflns_point_group_measured_fraction_max 0.986
_diffrn_reflns_theta_full        25.242
_diffrn_reflns_theta_max         28.401
_diffrn_reflns_theta_min         1.301
_diffrn_source                   'sealed X-ray tube'
_diffrn_source_type              'sealed X-ray tube'
_diffrn_standards_number         0
_exptl_absorpt_coefficient_mu    0.340
_exptl_absorpt_correction_T_max  0.7457
_exptl_absorpt_correction_T_min  0.7029
_exptl_absorpt_correction_type   multi-scan
_exptl_absorpt_process_details   'SADABS (Bruker)'
_exptl_crystal_colour            colourless
_exptl_crystal_density_diffrn    1.540
_exptl_crystal_density_meas      .
_exptl_crystal_description       block
_exptl_crystal_F_000             432
_exptl_crystal_size_max          0.31
_exptl_crystal_size_mid          0.24
_exptl_crystal_size_min          0.15
_refine_diff_density_max         0.498
_refine_diff_density_min         -0.358
_refine_diff_density_rms         0.054
_refine_ls_extinction_coef       .
_refine_ls_extinction_method     none
_refine_ls_goodness_of_fit_ref   1.052
_refine_ls_hydrogen_treatment    constr
_refine_ls_matrix_type           full
_refine_ls_number_parameters     253
_refine_ls_number_reflns         4527
_refine_ls_number_restraints     0
_refine_ls_restrained_S_all      1.052
_refine_ls_R_factor_all          0.0319
_refine_ls_R_factor_gt           0.0298
_refine_ls_shift/su_max          0.001
_refine_ls_shift/su_mean         0.000
_refine_ls_structure_factor_coef Fsqd
_refine_ls_weighting_details
'w=1/[\s^2^(Fo^2^)+(0.0445P)^2^+0.5155P] where P=(Fo^2^+2Fc^2^)/3'
_refine_ls_weighting_scheme      calc
_refine_ls_wR_factor_gt          0.0836
_refine_ls_wR_factor_ref         0.0857
_reflns_Friedel_coverage         0.000
_reflns_Friedel_fraction_full    .
_reflns_Friedel_fraction_max     .
_reflns_number_gt                4232
_reflns_number_total             4527
_reflns_threshold_expression     'I > 2\s(I)'
_cod_data_source_file            suppl_ncrs-2018-0449_suppl.cif
_cod_data_source_block           global
_cod_database_code               8105674
_shelx_shelxl_version_number     2016/6
_shelx_space_group_comment
;
The symmetry employed for this shelxl refinement is uniquely defined
by the following loop, which should always be used as a source of
symmetry information in preference to the above space-group names.
They are only intended as comments.
;
_shelx_estimated_absorpt_t_max   0.951
_shelx_estimated_absorpt_t_min   0.902
_olex2_refinement_description
;
1. Fixed Uiso
 At 1.2 times of:
  All C(H) groups
2.a Aromatic/amide H refined with riding coordinates:
 C5(H5), C2(H2), C4(H4), C7(H7), C8(H8), C1(H1), C13(H13), C10(H10), C17(H17),
 C14(H14), C16(H16), C11(H11)
;
_shelx_res_file
;
TITL 18zs_ggkm_c3_0m in P-1 #2
    18zs_ggkm_c3_0m.res
    created by SHELXL-2016/6 at 15:02:46 on 15-Aug-2018
REM reset to P-1 #2
CELL 0.71073 7.2786 8.1014 16.1084 76.32 87.918 80.784
ZERR 4 0.0002 0.0003 0.0005 0.001 0.001 0.001
LATT 1
SFAC C H F N O S
UNIT 36 24 4 4 8 4

L.S. 14
PLAN  10
SIZE 0.15 0.24 0.31
TEMP -173.16
HTAB
CONF
BOND $H
BOND
fmap 2
acta
REM <olex2.extras>
REM <HklSrc "%.\\18zs_ggkm_c3_0m.hkl">
REM </olex2.extras>

WGHT    0.044500    0.515500
FVAR       0.20068
S1    6    0.454295    0.555985    0.312836    11.00000    0.01563    0.01737 =
         0.01728   -0.00264    0.00375   -0.00598
F1    3    0.349502    0.730369    0.259692    11.00000    0.02869    0.02327 =
         0.02967    0.00660   -0.00438   -0.00841
O1    5    0.544663    0.596741    0.379979    11.00000    0.01860    0.02676 =
         0.02312   -0.00329   -0.00018   -0.01041
C3    1    0.084902    0.314281    0.470849    11.00000    0.01343    0.01277 =
         0.01614   -0.00464    0.00298   -0.00307
C5    1   -0.044964    0.144578    0.596359    11.00000    0.01804    0.01718 =
         0.01472   -0.00280    0.00146   -0.00437
AFIX  43
H5    2   -0.038825    0.090699    0.655581    11.00000   -1.20000
AFIX   0
N1    4   -0.456729   -0.032943    0.617821    11.00000    0.02183    0.02375 =
         0.02243   -0.00565    0.00375   -0.00912
C9    1   -0.339291    0.038811    0.586437    11.00000    0.01816    0.01648 =
         0.01863   -0.00563    0.00142   -0.00365
O2    5    0.560187    0.479436    0.251867    11.00000    0.03423    0.03515 =
         0.03914   -0.02014    0.02264   -0.01687
C6    1   -0.193109    0.131667    0.546831    11.00000    0.01412    0.01307 =
         0.01873   -0.00483    0.00373   -0.00359
C2    1    0.234424    0.409331    0.432725    11.00000    0.01364    0.01384 =
         0.01768   -0.00412    0.00113   -0.00331
AFIX  43
H2    2    0.309386    0.446371    0.469674    11.00000   -1.20000
AFIX   0
C4    1    0.093038    0.236660    0.558387    11.00000    0.01474    0.01801 =
         0.01589   -0.00465    0.00024   -0.00445
AFIX  43
H4    2    0.193509    0.247195    0.591823    11.00000   -1.20000
AFIX   0
C7    1   -0.203780    0.210147    0.459595    11.00000    0.01494    0.01906 =
         0.01874   -0.00557   -0.00002   -0.00496
AFIX  43
H7    2   -0.305129    0.200749    0.426363    11.00000   -1.20000
AFIX   0
C8    1   -0.065159    0.301677    0.422151    11.00000    0.01754    0.01813 =
         0.01415   -0.00297    0.00085   -0.00484
AFIX  43
H8    2   -0.072016    0.356252    0.363017    11.00000   -1.20000
AFIX   0
C1    1    0.271417    0.446853    0.349303    11.00000    0.01522    0.01720 =
         0.01813   -0.00354    0.00147   -0.00665
AFIX  43
H1    2    0.197778    0.413804    0.310352    11.00000   -1.20000
AFIX   0

S2    6    0.045000    0.244179   -0.152158    11.00000    0.01979    0.02484 =
         0.01587   -0.00321   -0.00080   -0.00825
F2    3   -0.098382    0.409709   -0.150501    11.00000    0.02785    0.02459 =
         0.03031   -0.00214   -0.00527   -0.00224
O3    5   -0.040024    0.105024   -0.105759    11.00000    0.02274    0.02448 =
         0.02563   -0.00293   -0.00153   -0.00959
N2    4    1.003385    0.228572    0.224338    11.00000    0.02591    0.03438 =
         0.02281   -0.00912   -0.00112   -0.00681
C13   1    0.573267    0.282375   -0.003308    11.00000    0.02055    0.02740 =
         0.01444   -0.00309    0.00183   -0.00691
AFIX  43
H13   2    0.572750    0.333437   -0.062826    11.00000   -1.20000
AFIX   0
O4    5    0.093562    0.257771   -0.239182    11.00000    0.02946    0.05507 =
         0.01676   -0.01108    0.00298   -0.01705
C12   1    0.425164    0.199477    0.033334    11.00000    0.01706    0.01886 =
         0.01647   -0.00486    0.00091   -0.00269
C15   1    0.720876    0.215009    0.134281    11.00000    0.01845    0.02138 =
         0.01766   -0.00749   -0.00016   -0.00190
C18   1    0.877197    0.222081    0.185402    11.00000    0.02247    0.02447 =
         0.01865   -0.00711    0.00226   -0.00383
C10   1    0.228191    0.279364   -0.096763    11.00000    0.01947    0.02556 =
         0.01724   -0.00457    0.00064   -0.00961
AFIX  43
H10   2    0.301480    0.364544   -0.122940    11.00000   -1.20000
AFIX   0
C17   1    0.428092    0.124161    0.120948    11.00000    0.02008    0.02578 =
         0.01730   -0.00250    0.00350   -0.00677
AFIX  43
H17   2    0.328478    0.066721    0.145931    11.00000   -1.20000
AFIX   0
C14   1    0.720288    0.290130    0.046893    11.00000    0.01852    0.02605 =
         0.01857   -0.00504    0.00259   -0.00775
AFIX  43
H14   2    0.820671    0.346478    0.021940    11.00000   -1.20000
AFIX   0
C16   1    0.574509    0.132214    0.171853    11.00000    0.02388    0.02819 =
         0.01440   -0.00320    0.00086   -0.00526
AFIX  43
H16   2    0.574995    0.082016    0.231463    11.00000   -1.20000
AFIX   0
C11   1    0.267050    0.187547   -0.017517    11.00000    0.01754    0.02040 =
         0.01764   -0.00506    0.00296   -0.00553
AFIX  43
H11   2    0.186313    0.108481    0.007925    11.00000   -1.20000
AFIX   0
HKLF 4




REM  18zs_ggkm_c3_0m in P-1 #2
REM R1 =  0.0298 for    4232 Fo > 4sig(Fo)  and  0.0319 for all    4527 data
REM    253 parameters refined using      0 restraints

END

WGHT      0.0445      0.5155

REM Instructions for potential hydrogen bonds
EQIV $1 -x+1, -y+1, -z+1
HTAB C2 O1_$1
EQIV $2 -x+1, -y+1, -z
HTAB C10 O2_$2
EQIV $3 -x, -y, -z
HTAB C11 O3_$3

REM Highest difference peak  0.498,  deepest hole -0.358,  1-sigma level  0.054
Q1    1   0.5935  0.4006  0.2896  11.00000  0.05    0.50
Q2    1   0.1326  0.2666 -0.1200  11.00000  0.05    0.45
Q3    1   0.3581  0.4980  0.3339  11.00000  0.05    0.43
Q4    1   0.1588  0.3662  0.4531  11.00000  0.05    0.39
Q5    1   0.0863  0.2768  0.5120  11.00000  0.05    0.38
Q6    1   0.4250  0.1710  0.0783  11.00000  0.05    0.37
Q7    1  -0.1879  0.1657  0.5027  11.00000  0.05    0.36
Q8    1  -0.1229  0.2461  0.4452  11.00000  0.05    0.35
Q9    1  -0.1173  0.1353  0.5685  11.00000  0.05    0.34
Q10   1   0.4016  0.6872  0.2233  11.00000  0.05    0.34
;
_shelx_res_checksum              57810
_shelx_hkl_file
;
  -1   0   0    2.49    0.06
  -1   0   0    2.38    0.06
  -1   0   0    2.48    0.06
  -1   0   0    2.41    0.06
   1   0   0    2.24    0.06
   1   0   0    2.43    0.06
   1   0   0    2.45    0.06
   1   0   0    2.39    0.06
   1   0   0    2.32    0.06
  -2   0   0  200.68    3.34
  -2   0   0  198.77    3.13
  -2   0   0  197.63    3.15
  -2   0   0  195.05    3.21
  -2   0   0  197.37    3.20
  -2   0   0  192.07    3.28
   2   0   0  197.70    3.16
   2   0   0  198.82    3.00
   2   0   0  198.67    3.15
   2   0   0  202.71    3.21
  -3   0   0    0.69    0.05
  -3   0   0    0.69    0.05
  -3   0   0    0.65    0.05
  -3   0   0    0.77    0.05
  -3   0   0    0.66    0.04
  -3   0   0    0.58    0.04
   3   0   0    0.72    0.05
   3   0   0    0.63    0.05
   3   0   0    0.70    0.05
   3   0   0    0.85    0.03
  -4   0   0   18.21    0.35
  -4   0   0   18.59    0.35
  -4   0   0   18.47    0.36
  -4   0   0   18.95    0.37
   4   0   0   18.66    0.36
   4   0   0   18.31    0.31
   4   0   0   19.36    0.35
   4   0   0   18.62    0.35
   4   0   0   18.80    0.34
  -5   0   0    1.49    0.08
  -5   0   0    1.64    0.07
  -5   0   0    1.62    0.08
   5   0   0    1.59    0.06
   5   0   0    1.70    0.08
  -6   0   0   42.92    0.77
  -6   0   0   42.97    0.78
  -6   0   0   43.36    0.81
   6   0   0   44.14    0.77
   6   0   0   43.16    0.71
  -7   0   0    0.65    0.08
  -7   0   0    0.63    0.08
  -7   0   0    0.64    0.06
   7   0   0    0.60    0.07
   7   0   0    0.67    0.06
  -8   0   0   19.77    0.46
  -8   0   0   19.99    0.45
  -8   0   0   19.63    0.39
   8   0   0   20.07    0.44
   8   0   0   19.89    0.38
  -9   0   0    4.91    0.20
  -9   0   0    4.58    0.13
   9   0   0    4.64    0.15
   9   0   0    4.60    0.18
   9  -1   0    0.87    0.09
   9  -1   0    1.03    0.08
   8  -1   0    0.17    0.04
   8  -1   0    0.08    0.05
  -8   1   0   -0.03    0.05
  -8   1   0    0.00    0.05
   7  -1   0    2.99    0.13
   7  -1   0    3.03    0.10
  -7   1   0    3.06    0.14
  -7   1   0    3.01    0.08
  -7   1   0    3.18    0.14
   6  -1   0   14.75    0.27
   6  -1   0   14.52    0.31
  -6   1   0   14.37    0.32
  -6   1   0   14.20    0.33
  -6   1   0   14.54    0.28
   5  -1   0   45.09    0.77
   5  -1   0   44.46    0.71
  -5   1   0   45.90    0.78
  -5   1   0   44.51    0.81
  -5   1   0   45.60    0.79
   4  -1   0    0.43    0.03
   4  -1   0    0.43    0.04
   4  -1   0    0.38    0.04
   4  -1   0    0.41    0.04
  -4   1   0    0.43    0.03
  -4   1   0    0.36    0.04
  -4   1   0    0.32    0.04
  -4   1   0    0.38    0.04
  -4   1   0    0.42    0.03
   3  -1   0   36.49    0.61
   3  -1   0   36.72    0.62
   3  -1   0   36.28    0.61
   3  -1   0   37.41    0.56
  -3   1   0   36.88    0.62
  -3   1   0   36.76    0.61
  -3   1   0   36.42    0.62
  -3   1   0   37.09    0.62
  -3   1   0   36.55    0.62
  -3   1   0   37.18    0.64
  -3   1   0   36.46    0.61
   2  -1   0   14.46    0.25
   2  -1   0   14.45    0.25
   2  -1   0   14.09    0.25
  -2   1   0   14.27    0.25
  -2   1   0   14.53    0.26
  -2   1   0   14.34    0.25
  -2   1   0   14.31    0.25
  -2   1   0   14.44    0.24
  -2   1   0   14.60    0.24
  -2   1   0   14.55    0.25
   1  -1   0    4.07    0.08
   1  -1   0    4.14    0.08
   1  -1   0    4.10    0.07
  -1   1   0    4.20    0.08
  -1   1   0    4.21    0.07
  -1   1   0    4.08    0.08
  -1   1   0    4.26    0.08
  -1   1   0    4.11    0.07
   0  -1   0   25.29    0.40
   0  -1   0   25.13    0.40
   0  -1   0   25.07    0.40
   0  -1   0   24.69    0.40
   0   1   0   24.72    0.40
   0   1   0   24.47    0.40
   0   1   0   24.68    0.42
  -1  -1   0   79.53    1.23
  -1  -1   0   81.23    1.29
  -1  -1   0   79.82    1.33
  -1  -1   0   78.50    1.26
  -1  -1   0   82.34    1.27
   1   1   0   80.46    1.27
   1   1   0   82.15    1.33
   1   1   0   79.51    1.28
   1   1   0   79.11    1.27
   1   1   0   79.53    1.22
   1   1   0   82.29    1.33
   1   1   0   80.66    1.26
   1   1   0   79.59    1.29
  -2  -1   0   43.76    0.78
  -2  -1   0   44.55    0.75
  -2  -1   0   46.19    0.78
  -2  -1   0   45.20    0.73
  -2  -1   0   44.80    0.74
  -2  -1   0   46.12    0.70
   2   1   0   46.39    0.77
   2   1   0   45.35    0.75
   2   1   0   46.60    0.74
   2   1   0   45.47    0.78
   2   1   0   45.30    0.74
   2   1   0   44.65    0.70
  -3  -1   0   20.90    0.37
  -3  -1   0   20.16    0.37
  -3  -1   0   20.31    0.38
  -3  -1   0   19.92    0.39
  -3  -1   0   20.55    0.37
  -3  -1   0   20.62    0.33
   3   1   0   21.26    0.38
   3   1   0   20.32    0.34
   3   1   0   21.05    0.37
   3   1   0   20.20    0.37
   3   1   0   21.13    0.37
  -4  -1   0    8.26    0.19
  -4  -1   0    8.33    0.19
  -4  -1   0    8.70    0.19
  -4  -1   0    8.36    0.15
  -4  -1   0    8.29    0.20
   4   1   0    8.24    0.19
   4   1   0    8.52    0.19
   4   1   0    8.63    0.19
   4   1   0    8.61    0.19
   4   1   0    8.37    0.16
  -5  -1   0    1.16    0.08
  -5  -1   0    1.14    0.08
  -5  -1   0    1.27    0.07
   5   1   0    1.19    0.07
   5   1   0    1.09    0.07
   5   1   0    1.20    0.06
  -6  -1   0    2.08    0.11
  -6  -1   0    2.20    0.11
  -6  -1   0    2.31    0.10
   6   1   0    2.54    0.11
   6   1   0    2.48    0.09
  -7  -1   0    0.07    0.05
  -7  -1   0    0.06    0.05
  -7  -1   0    0.10    0.05
   7   1   0    0.16    0.05
   7   1   0    0.13    0.04
  -8  -1   0    0.11    0.06
  -8  -1   0   -0.01    0.05
  -8  -1   0   -0.03    0.04
   8   1   0    0.05    0.04
   8   1   0    0.11    0.05
  -9  -1   0    3.61    0.14
   9   1   0    3.71    0.13
   9   1   0    3.85    0.17
   9  -2   0    3.39    0.12
   9  -2   0    3.28    0.15
   8  -2   0    0.21    0.06
   8  -2   0    0.33    0.05
  -8   2   0    0.21    0.06
   7  -2   0    1.56    0.09
   7  -2   0    1.57    0.07
  -7   2   0    1.81    0.11
  -7   2   0    1.46    0.10
   6  -2   0    2.86    0.11
   6  -2   0    2.76    0.08
  -6   2   0    2.89    0.11
  -6   2   0    2.73    0.11
   5  -2   0    0.04    0.03
   5  -2   0    0.05    0.02
  -5   2   0    0.03    0.04
  -5   2   0   -0.02    0.04
   4  -2   0    0.22    0.04
   4  -2   0    0.30    0.04
  -4   2   0    0.15    0.04
  -4   2   0    0.16    0.04
  -4   2   0    0.22    0.04
  -4   2   0    0.19    0.04
   3  -2   0    3.91    0.10
   3  -2   0    4.04    0.10
  -3   2   0    3.93    0.10
  -3   2   0    3.93    0.10
  -3   2   0    4.02    0.10
  -3   2   0    3.93    0.10
   2  -2   0    3.37    0.07
   2  -2   0    3.37    0.07
  -2   2   0    3.21    0.07
  -2   2   0    3.30    0.08
  -2   2   0    3.29    0.08
  -2   2   0    3.53    0.08
   1  -2   0  393.09    6.37
   1  -2   0  425.44    6.38
  -1   2   0  405.33    6.71
  -1   2   0  414.27    6.71
  -1   2   0  412.71    6.50
  -1   2   0  402.92    6.39
  -1   2   0  412.14    6.50
   0  -2   0  244.24    3.80
   0  -2   0  238.11    3.82
   0   2   0  242.24    3.82
   0   2   0  243.44    3.89
   0   2   0  241.11    4.02
   0   2   0  247.22    3.88
  -1  -2   0  223.56    3.48
  -1  -2   0  225.16    3.58
  -1  -2   0  223.61    3.72
  -1  -2   0  221.86    3.50
   1   2   0  225.66    3.72
   1   2   0  214.30    3.59
  -2  -2   0   38.06    0.68
  -2  -2   0   38.25    0.64
  -2  -2   0   40.14    0.68
  -2  -2   0   38.78    0.60
  -2  -2   0   38.12    0.65
   2   2   0   38.25    0.64
   2   2   0   40.09    0.64
   2   2   0   38.85    0.65
   2   2   0   38.78    0.65
   2   2   0   39.25    0.67
   2   2   0   38.81    0.68
   2   2   0   39.63    0.60
  -3  -2   0  159.10    2.53
  -3  -2   0  157.07    2.48
  -3  -2   0  154.60    2.37
  -3  -2   0  159.42    2.62
  -3  -2   0  154.32    2.62
   3   2   0  157.23    2.49
   3   2   0  157.29    2.62
   3   2   0  156.96    2.37
   3   2   0  155.47    2.53
   3   2   0  157.34    2.48
  -4  -2   0   10.19    0.24
  -4  -2   0   10.73    0.23
  -4  -2   0   10.38    0.20
  -4  -2   0   10.45    0.23
  -4  -2   0   10.13    0.23
   4   2   0   10.03    0.22
   4   2   0   10.36    0.20
   4   2   0   10.37    0.22
   4   2   0    9.95    0.23
   4   2   0   10.68    0.23
  -5  -2   0    0.04    0.04
  -5  -2   0    0.07    0.04
  -5  -2   0    0.04    0.03
  -5  -2   0    0.05    0.04
  -5  -2   0   -0.02    0.04
   5   2   0   -0.02    0.04
   5   2   0    0.05    0.04
   5   2   0    0.04    0.04
   5   2   0   -0.04    0.03
   5   2   0    0.00    0.03
  -6  -2   0   32.97    0.64
  -6  -2   0   33.74    0.64
  -6  -2   0   33.98    0.66
   6   2   0   33.71    0.57
   6   2   0   34.02    0.65
   6   2   0   33.86    0.62
  -7  -2   0    7.01    0.22
  -7  -2   0    6.68    0.20
  -7  -2   0    7.00    0.22
   7   2   0    6.71    0.20
   7   2   0    6.75    0.17
  -8  -2   0    0.08    0.05
   8   2   0    0.03    0.04
  -9  -2   0    6.25    0.20
   9   2   0    5.88    0.18
   8  -3   0    1.98    0.09
   8  -3   0    1.98    0.11
   7  -3   0   21.54    0.38
   7  -3   0   21.67    0.43
  -7   3   0   21.01    0.46
  -7   3   0   20.88    0.44
   6  -3   0    0.81    0.07
  -6   3   0    0.85    0.07
  -6   3   0    0.75    0.07
   5  -3   0   41.25    0.70
  -5   3   0   40.63    0.72
  -5   3   0   41.11    0.74
   4  -3   0   29.81    0.51
  -4   3   0   29.27    0.54
  -4   3   0   29.84    0.52
   3  -3   0   57.07    0.91
   3  -3   0   56.30    0.91
  -3   3   0   57.01    0.93
  -3   3   0   56.22    0.92
  -3   3   0   56.70    0.96
  -3   3   0   57.60    0.93
   2  -3   0   91.01    1.42
   2  -3   0   89.58    1.42
  -2   3   0   91.73    1.50
  -2   3   0   90.80    1.45
  -2   3   0   89.65    1.43
  -2   3   0   91.65    1.45
   1  -3   0    2.04    0.05
   1  -3   0    2.09    0.05
  -1   3   0    2.13    0.05
  -1   3   0    2.11    0.05
  -1   3   0    2.17    0.05
  -1   3   0    2.02    0.04
  -1   3   0    2.12    0.05
   0  -3   0   43.73    0.70
   0  -3   0   43.04    0.70
   0   3   0   44.22    0.74
   0   3   0   43.75    0.71
   0   3   0   43.95    0.71
   0   3   0   43.60    0.70
  -1  -3   0    1.84    0.06
  -1  -3   0    1.87    0.06
  -1  -3   0    1.80    0.06
  -1  -3   0    1.84    0.06
   1   3   0    1.76    0.06
   1   3   0    1.88    0.06
   1   3   0    1.85    0.05
   1   3   0    1.83    0.06
   1   3   0    1.76    0.05
   1   3   0    1.82    0.06
  -2  -3   0   51.42    0.79
  -2  -3   0   52.89    0.86
  -2  -3   0   51.30    0.89
  -2  -3   0   50.28    0.84
   2   3   0   51.69    0.86
   2   3   0   53.10    0.89
   2   3   0   51.36    0.85
   2   3   0   50.86    0.88
   2   3   0   51.53    0.86
  -3  -3   0  161.54    2.48
  -3  -3   0  163.64    2.74
  -3  -3   0  163.42    2.60
  -3  -3   0  169.40    2.75
  -3  -3   0  164.72    2.64
   3   3   0  170.81    2.60
   3   3   0  162.70    2.47
   3   3   0  157.81    2.64
   3   3   0  162.85    2.61
   3   3   0  166.42    2.75
   3   3   0  161.90    2.74
  -4  -3   0    0.45    0.05
  -4  -3   0    0.60    0.06
  -4  -3   0    0.50    0.04
  -4  -3   0    0.55    0.05
  -4  -3   0    0.50    0.05
   4   3   0    0.49    0.05
   4   3   0    0.48    0.04
   4   3   0    0.47    0.05
   4   3   0    0.56    0.06
   4   3   0    0.46    0.05
  -5  -3   0    7.08    0.20
  -5  -3   0    6.70    0.19
  -5  -3   0    7.05    0.16
  -5  -3   0    6.82    0.19
  -5  -3   0    6.95    0.19
   5   3   0    7.07    0.19
   5   3   0    6.80    0.19
   5   3   0    6.73    0.19
   5   3   0    6.88    0.15
   5   3   0    6.95    0.18
  -6  -3   0   10.48    0.27
  -6  -3   0   10.22    0.26
  -6  -3   0   10.60    0.21
   6   3   0   10.58    0.22
   6   3   0   10.45    0.26
  -7  -3   0    0.00    0.05
   7   3   0    0.07    0.04
   7   3   0    0.04    0.04
  -8  -3   0    0.38    0.07
   8   3   0    0.37    0.05
  -9  -3   0    0.01    0.05
   9   3   0    0.03    0.04
   8  -4   0    4.19    0.16
   7  -4   0    0.65    0.07
  -7   4   0    0.55    0.07
   6  -4   0    3.88    0.13
  -6   4   0    3.96    0.14
  -6   4   0    3.93    0.13
   5  -4   0    0.30    0.04
  -5   4   0    0.32    0.05
  -5   4   0    0.28    0.04
   4  -4   0   10.51    0.21
  -4   4   0   10.52    0.22
  -4   4   0   10.36    0.22
   3  -4   0   33.15    0.55
   3  -4   0   32.64    0.55
  -3   4   0   33.79    0.56
  -3   4   0   32.43    0.55
  -3   4   0   33.81    0.58
  -3   4   0   33.42    0.56
   2  -4   0   15.00    0.26
   2  -4   0   15.40    0.26
  -2   4   0   15.03    0.27
  -2   4   0   15.58    0.26
  -2   4   0   15.37    0.27
  -2   4   0   15.50    0.27
   1  -4   0    0.03    0.02
   1  -4   0    0.00    0.02
  -1   4   0    0.00    0.02
  -1   4   0   -0.03    0.02
  -1   4   0    0.01    0.02
  -1   4   0    0.06    0.02
  -1   4   0    0.02    0.02
   0  -4   0   61.23    0.96
   0  -4   0   58.73    0.96
   0   4   0   60.66    0.98
   0   4   0   61.30    1.01
   0   4   0   59.77    0.96
   0   4   0   59.71    0.98
  -1  -4   0    5.81    0.13
  -1  -4   0    5.75    0.13
   1   4   0    5.92    0.14
   1   4   0    6.05    0.13
   1   4   0    6.07    0.13
   1   4   0    5.96    0.13
  -2  -4   0    4.66    0.10
  -2  -4   0    4.97    0.12
  -2  -4   0    4.79    0.12
  -2  -4   0    4.83    0.12
   2   4   0    4.82    0.12
   2   4   0    4.97    0.11
   2   4   0    5.08    0.11
   2   4   0    4.87    0.13
  -3  -4   0   -0.01    0.03
  -3  -4   0   -0.04    0.02
  -3  -4   0   -0.04    0.03
  -3  -4   0   -0.06    0.03
  -3  -4   0   -0.05    0.03
   3   4   0   -0.05    0.03
   3   4   0    0.00    0.03
   3   4   0   -0.05    0.03
   3   4   0   -0.02    0.03
   3   4   0   -0.05    0.03
  -4  -4   0   17.81    0.32
  -4  -4   0   17.76    0.37
  -4  -4   0   17.76    0.37
  -4  -4   0   17.81    0.35
   4   4   0   18.03    0.36
   4   4   0   17.40    0.36
   4   4   0   17.50    0.35
   4   4   0   17.48    0.29
  -5  -4   0    7.51    0.21
  -5  -4   0    7.50    0.20
  -5  -4   0    7.10    0.17
   5   4   0    7.62    0.21
   5   4   0    7.70    0.16
   5   4   0    7.47    0.20
   5   4   0    7.55    0.21
  -6  -4   0    7.21    0.21
  -6  -4   0    7.26    0.17
   6   4   0    6.83    0.20
   6   4   0    7.20    0.16
  -7  -4   0    3.76    0.16
   7   4   0    3.75    0.15
  -8  -4   0   10.80    0.30
   8   4   0   11.06    0.31
  -9  -4   0    0.11    0.06
   7  -5   0    0.64    0.07
   6  -5   0   12.40    0.27
  -6   5   0   12.78    0.28
   5  -5   0    0.76    0.06
  -5   5   0    0.71    0.06
  -5   5   0    0.71    0.06
   4  -5   0   17.74    0.32
  -4   5   0   17.53    0.34
  -4   5   0   17.43    0.33
   3  -5   0    4.00    0.10
   3  -5   0    3.88    0.10
  -3   5   0    3.89    0.10
  -3   5   0    4.06    0.10
  -3   5   0    3.97    0.10
  -3   5   0    3.90    0.10
   2  -5   0   21.74    0.37
   2  -5   0   21.73    0.37
  -2   5   0   21.80    0.39
  -2   5   0   22.04    0.37
  -2   5   0   22.03    0.38
  -2   5   0   21.89    0.38
   1  -5   0    0.10    0.02
   1  -5   0    0.10    0.02
  -1   5   0    0.08    0.02
  -1   5   0    0.10    0.02
  -1   5   0    0.11    0.02
  -1   5   0    0.07    0.02
   0  -5   0    2.05    0.06
   0  -5   0    2.11    0.07
   0   5   0    2.08    0.07
   0   5   0    2.14    0.07
   0   5   0    2.17    0.07
   0   5   0    2.13    0.07
  -1  -5   0    0.19    0.03
  -1  -5   0    0.05    0.03
   1   5   0    0.07    0.03
   1   5   0    0.13    0.03
   1   5   0    0.08    0.03
   1   5   0    0.06    0.03
  -2  -5   0   67.33    1.10
  -2  -5   0   68.94    1.03
   2   5   0   66.89    1.12
   2   5   0   66.05    1.12
   2   5   0   66.82    1.12
   2   5   0   67.19    1.11
  -3  -5   0    4.95    0.14
  -3  -5   0    4.85    0.12
   3   5   0    5.02    0.15
   3   5   0    4.73    0.13
   3   5   0    5.05    0.14
  -4  -5   0    8.60    0.22
  -4  -5   0    9.03    0.19
   4   5   0    8.51    0.22
   4   5   0    8.99    0.21
   4   5   0    8.75    0.22
  -5  -5   0   15.35    0.34
  -5  -5   0   15.58    0.30
   5   5   0   14.91    0.34
   5   5   0   15.37    0.34
   5   5   0   15.06    0.34
  -6  -5   0   23.61    0.43
   6   5   0   22.94    0.48
  -7  -5   0    1.08    0.08
  -7  -5   0    0.98    0.10
   7   5   0    1.04    0.09
  -8  -5   0    1.23    0.11
   8   5   0    1.07    0.10
  -9  -5   0    2.10    0.14
   9   5   0    2.08    0.13
   7  -6   0    7.33    0.20
   6  -6   0   -0.04    0.03
  -6   6   0   -0.03    0.04
   5  -6   0   17.34    0.33
  -5   6   0   16.83    0.35
  -5   6   0   17.30    0.33
   4  -6   0    8.17    0.18
  -4   6   0    8.52    0.18
  -4   6   0    8.51    0.19
   3  -6   0   13.28    0.25
  -3   6   0   13.22    0.25
  -3   6   0   13.31    0.26
   2  -6   0   25.44    0.43
   2  -6   0   24.63    0.43
  -2   6   0   25.26    0.45
  -2   6   0   25.05    0.43
  -2   6   0   26.18    0.44
   1  -6   0    2.24    0.07
   1  -6   0    2.19    0.07
  -1   6   0    2.20    0.07
  -1   6   0    2.29    0.07
  -1   6   0    2.33    0.07
  -1   6   0    2.32    0.07
   0   6   0   61.26    1.01
   0   6   0   60.98    1.01
  -1  -6   0   17.66    0.33
   1   6   0   17.79    0.34
  -2  -6   0    0.03    0.02
  -2  -6   0    0.02    0.04
   2   6   0   -0.03    0.04
   2   6   0   -0.01    0.04
  -3  -6   0   43.27    0.70
  -3  -6   0   44.09    0.76
   3   6   0   45.04    0.78
   3   6   0   43.75    0.76
   3   6   0   43.10    0.77
  -4  -6   0    2.93    0.10
  -4  -6   0    3.00    0.12
   4   6   0    2.94    0.12
   4   6   0    2.98    0.12
   4   6   0    3.10    0.10
  -5  -6   0   18.85    0.36
  -5  -6   0   19.31    0.41
   5   6   0   19.30    0.41
   5   6   0   19.77    0.42
   5   6   0   18.91    0.40
  -6  -6   0    4.34    0.16
  -6  -6   0    4.18    0.14
   6   6   0    4.15    0.17
   6   6   0    4.10    0.15
   6   6   0    3.99    0.16
   7   6   0    9.22    0.26
   8   6   0   -0.01    0.05
   6  -7   0    2.25    0.10
   5  -7   0    3.66    0.11
  -5   7   0    3.51    0.11
   4  -7   0    0.60    0.05
  -4   7   0    0.72    0.05
  -4   7   0    0.70    0.06
   3  -7   0    7.70    0.16
  -3   7   0    7.70    0.16
  -3   7   0    7.90    0.17
   2  -7   0    1.18    0.05
  -2   7   0    1.13    0.05
   1  -7   0    7.07    0.15
  -1   7   0    7.04    0.16
   0  -7   0   17.15    0.32
   0   7   0   16.73    0.32
  -1  -7   0    4.34    0.13
   1   7   0    4.44    0.13
  -2  -7   0    1.12    0.07
  -2  -7   0    1.06    0.05
   2   7   0    1.04    0.07
   2   7   0    1.14    0.08
  -3  -7   0    1.65    0.09
  -3  -7   0    1.68    0.07
   3   7   0    1.67    0.10
   3   7   0    1.69    0.09
  -4  -7   0   -0.01    0.04
  -4  -7   0   -0.03    0.04
   4   7   0    0.04    0.05
   4   7   0    0.00    0.03
   4   7   0   -0.04    0.05
  -5  -7   0    7.74    0.23
  -5  -7   0    7.47    0.19
   5   7   0    8.10    0.23
   5   7   0    7.85    0.20
   5   7   0    8.09    0.23
  -6  -7   0    1.48    0.11
  -6  -7   0    1.54    0.09
   6   7   0    1.52    0.11
   6   7   0    1.62    0.09
   6   7   0    1.63    0.11
  -7  -7   0    4.52    0.15
   7   7   0    4.71    0.17
  -8  -7   0    7.07    0.20
   8   7   0    7.05    0.23
   5  -8   0    5.58    0.14
   4  -8   0    9.10    0.19
  -4   8   0    9.35    0.19
   3  -8   0    0.04    0.03
  -3   8   0   -0.02    0.02
   2  -8   0    1.12    0.06
  -2   8   0    1.18    0.06
  -1   8   0    9.50    0.20
   0  -8   0    0.06    0.04
   0   8   0   -0.02    0.03
  -1  -8   0   11.93    0.26
   1   8   0   12.13    0.27
  -2  -8   0    2.48    0.11
   2   8   0    2.39    0.11
   2   8   0    2.50    0.11
  -3  -8   0    9.65    0.24
  -3  -8   0   10.21    0.21
   3   8   0    9.42    0.25
   3   8   0    9.79    0.25
  -4  -8   0    6.71    0.21
  -4  -8   0    6.93    0.18
   4   8   0    7.33    0.22
   4   8   0    6.76    0.21
  -5  -8   0    0.00    0.04
  -5  -8   0   -0.02    0.05
   5   8   0   -0.11    0.05
   5   8   0    0.00    0.05
   5   8   0    0.03    0.03
  -6  -8   0    6.02    0.18
  -6  -8   0    6.33    0.22
   6   8   0    6.05    0.21
   6   8   0    6.27    0.22
   6   8   0    6.02    0.17
  -7  -8   0    3.35    0.14
   7   8   0    3.30    0.14
  -3   9   0    0.07    0.03
  -2   9   0   11.89    0.24
   1  -9   0    0.03    0.03
  -1   9   0   -0.02    0.03
   0  -9   0    5.59    0.15
   0   9   0    5.45    0.15
  -1  -9   0    1.07    0.07
   1   9   0    0.91    0.07
   1   9   0    0.96    0.08
  -2  -9   0   -0.03    0.04
   2   9   0   -0.03    0.04
   2   9   0    0.02    0.04
  -3  -9   0    6.70    0.20
  -3  -9   0    6.65    0.16
   3   9   0    6.38    0.20
   3   9   0    6.55    0.20
  -4  -9   0    1.27    0.08
  -4  -9   0    1.25    0.10
   4   9   0    1.01    0.10
   4   9   0    1.26    0.10
  -5  -9   0    1.50    0.11
  -5  -9   0    1.64    0.10
   5   9   0    1.54    0.12
   5   9   0    1.52    0.13
  -6  -9   0    1.01    0.09
  -6  -9   0    1.00    0.10
   6   9   0    0.86    0.11
   1 -10   0   -0.01    0.04
   0 -10   0    0.81    0.07
  -1 -10   0    0.97    0.08
   1  10   0    1.00    0.08
  -2 -10   0    1.50    0.09
   2  10   0    1.48    0.10
  -3 -10   0    3.26    0.12
  -3 -10   0    3.15    0.14
  -4 -10   0    0.81    0.10
  -4 -10   0    0.73    0.07
  -4 -10   1    6.68    0.18
  -4 -10   1    6.56    0.22
  -3 -10   1    0.31    0.07
  -2 -10   1    2.26    0.11
  -1 -10   1    3.29    0.12
   0 -10   1    2.25    0.10
   1 -10   1    0.87    0.06
   6   9  -1    6.03    0.22
  -6  -9   1    5.77    0.18
  -6  -9   1    5.88    0.22
   5   9  -1    6.48    0.22
  -5  -9   1    6.64    0.22
  -5  -9   1    6.06    0.18
   4   9  -1   16.55    0.38
   4   9  -1   16.15    0.38
  -4  -9   1   17.02    0.38
  -4  -9   1   16.22    0.33
   3   9  -1   -0.02    0.05
   3   9  -1    0.02    0.05
  -3  -9   1    0.05    0.04
  -3  -9   1    0.01    0.04
   2   9  -1    0.41    0.06
   2   9  -1    0.44    0.06
  -2  -9   1    0.44    0.06
   1   9  -1    6.05    0.17
   1   9  -1    6.03    0.17
  -1  -9   1    6.21    0.17
   0   9  -1    2.83    0.11
   0   9  -1    2.85    0.10
   0  -9   1    2.75    0.10
  -1   9  -1    0.25    0.04
   1  -9   1    0.27    0.04
  -2   9  -1    6.95    0.14
   2  -9   1    6.59    0.15
   3  -9   1    0.10    0.02
   7   8  -1    3.86    0.15
  -7  -8   1    4.29    0.15
   6   8  -1    0.10    0.06
   6   8  -1    0.12    0.06
   6   8  -1    0.12    0.04
  -6  -8   1    0.18    0.06
  -6  -8   1    0.10    0.06
   5   8  -1    2.80    0.08
   5   8  -1    2.71    0.14
   5   8  -1    3.07    0.14
  -5  -8   1    2.75    0.14
  -5  -8   1    2.82    0.12
   4   8  -1    0.08    0.05
   4   8  -1    0.14    0.06
  -4  -8   1    0.03    0.04
  -4  -8   1    0.14    0.05
   3   8  -1    4.19    0.15
   3   8  -1    4.42    0.16
  -3  -8   1    4.30    0.12
  -3  -8   1    4.25    0.15
   2   8  -1    4.70    0.15
   2   8  -1    4.96    0.15
  -2  -8   1    4.57    0.15
   1   8  -1    0.17    0.04
   1   8  -1    0.15    0.04
  -1  -8   1    0.18    0.05
   0   8  -1    0.01    0.03
   0  -8   1    0.05    0.04
  -1   8  -1    0.83    0.05
   1  -8   1    0.88    0.05
  -2   8  -1   11.71    0.22
  -3   8  -1    2.42    0.06
   3  -8   1    2.40    0.07
  -4   8  -1    4.67    0.10
   4  -8   1    4.45    0.10
   8   7  -1   -0.10    0.04
  -8  -7   1   -0.11    0.04
   7   7  -1    0.02    0.04
  -7  -7   1   -0.04    0.05
   6   7  -1    2.23    0.11
   6   7  -1    2.33    0.13
   6   7  -1    2.35    0.13
  -6  -7   1    2.26    0.13
  -6  -7   1    2.18    0.10
   5   7  -1    0.62    0.08
   5   7  -1    0.70    0.08
   5   7  -1    0.66    0.06
  -5  -7   1    0.60    0.08
  -5  -7   1    0.64    0.07
   4   7  -1    1.54    0.10
   4   7  -1    1.51    0.06
   4   7  -1    1.60    0.10
  -4  -7   1    1.47    0.08
  -4  -7   1    1.40    0.09
   3   7  -1    8.32    0.21
   3   7  -1    8.35    0.22
  -3  -7   1    8.17    0.21
  -3  -7   1    8.18    0.18
   2   7  -1    0.38    0.06
   2   7  -1    0.32    0.05
  -2  -7   1    0.41    0.05
   1   7  -1   15.20    0.30
   1   7  -1   15.25    0.31
  -1  -7   1   15.41    0.30
   0   7  -1    1.88    0.08
   0  -7   1    1.82    0.07
  -1   7  -1    1.38    0.06
  -2   7  -1    0.12    0.03
   2  -7   1    0.12    0.02
  -3   7  -1    0.05    0.02
  -3   7  -1    0.04    0.02
   3  -7   1    0.02    0.02
  -4   7  -1    1.35    0.05
  -4   7  -1    1.42    0.07
   4  -7   1    1.41    0.06
  -5   7  -1    1.74    0.07
   5  -7   1    1.48    0.07
   6  -7   1    0.02    0.04
   8   6  -1    0.49    0.08
   7   6  -1    5.41    0.19
  -7  -6   1    5.06    0.16
   6   6  -1    4.68    0.18
   6   6  -1    4.95    0.18
   6   6  -1    5.01    0.17
  -6  -6   1    5.11    0.15
  -6  -6   1    5.11    0.18
   5   6  -1    2.32    0.12
   5   6  -1    2.48    0.12
   5   6  -1    2.40    0.10
  -5  -6   1    2.27    0.11
  -5  -6   1    2.38    0.10
   4   6  -1    3.05    0.10
   4   6  -1    2.64    0.12
   4   6  -1    3.12    0.13
  -4  -6   1    2.96    0.10
  -4  -6   1    3.07    0.12
   3   6  -1    1.22    0.08
   3   6  -1    1.24    0.08
   3   6  -1    1.14    0.05
  -3  -6   1    1.24    0.08
  -3  -6   1    1.07    0.06
   2   6  -1    8.68    0.20
   2   6  -1    8.88    0.21
  -2  -6   1    8.44    0.20
   1   6  -1   33.12    0.58
  -1  -6   1   32.85    0.57
   0   6  -1    1.19    0.06
   0   6  -1    1.30    0.06
   0  -6   1    1.36    0.06
  -1   6  -1    9.69    0.18
  -1   6  -1    9.94    0.19
  -1   6  -1    9.88    0.19
  -1   6  -1    9.71    0.19
   1  -6   1    9.61    0.18
   1  -6   1    9.79    0.18
  -2   6  -1   19.99    0.34
  -2   6  -1   20.58    0.34
  -2   6  -1   19.83    0.36
  -2   6  -1   19.85    0.34
   2  -6   1   20.50    0.34
   2  -6   1   19.54    0.34
  -3   6  -1   11.63    0.23
  -3   6  -1   11.76    0.22
   3  -6   1   11.79    0.21
  -4   6  -1    0.99    0.05
  -4   6  -1    0.96    0.05
   4  -6   1    1.07    0.05
  -5   6  -1    0.48    0.05
  -5   6  -1    0.50    0.05
   5  -6   1    0.49    0.05
  -6   6  -1    0.06    0.04
   6  -6   1    0.06    0.04
   9   5  -1   17.93    0.44
  -9  -5   1   17.19    0.44
   8   5  -1    4.11    0.17
  -8  -5   1    4.39    0.19
   7   5  -1    1.83    0.11
  -7  -5   1    1.76    0.12
  -7  -5   1    1.85    0.09
   6   5  -1    4.03    0.15
   6   5  -1    4.21    0.17
  -6  -5   1    4.34    0.13
  -6  -5   1    4.24    0.16
   5   5  -1    0.09    0.05
   5   5  -1    0.06    0.04
   5   5  -1    0.04    0.05
  -5  -5   1    0.12    0.05
  -5  -5   1    0.12    0.04
   4   5  -1    8.82    0.22
   4   5  -1    9.23    0.23
   4   5  -1    9.17    0.21
  -4  -5   1    9.21    0.19
  -4  -5   1    9.10    0.22
   3   5  -1    0.09    0.03
   3   5  -1    0.07    0.04
   3   5  -1    0.01    0.04
  -3  -5   1   -0.03    0.03
  -3  -5   1    0.07    0.03
   2   5  -1    7.77    0.18
   2   5  -1    7.81    0.19
  -2  -5   1    7.74    0.18
  -2  -5   1    8.09    0.14
   1   5  -1   28.97    0.49
   1   5  -1   28.25    0.50
   1   5  -1   28.66    0.50
   1   5  -1   28.99    0.52
  -1  -5   1   28.35    0.49
  -1  -5   1   28.08    0.49
   0   5  -1   45.84    0.77
   0   5  -1   44.36    0.74
   0   5  -1   44.86    0.73
   0   5  -1   45.17    0.75
   0  -5   1   45.11    0.73
  -1   5  -1    9.78    0.18
  -1   5  -1    9.52    0.18
  -1   5  -1    9.55    0.17
  -1   5  -1    9.53    0.18
   1  -5   1    9.71    0.17
   1  -5   1    9.55    0.17
  -2   5  -1   15.01    0.26
  -2   5  -1   15.02    0.26
  -2   5  -1   14.97    0.25
  -2   5  -1   14.45    0.26
   2  -5   1   14.80    0.25
   2  -5   1   14.79    0.25
  -3   5  -1    2.31    0.06
  -3   5  -1    2.39    0.07
  -3   5  -1    2.26    0.07
  -3   5  -1    2.40    0.07
   3  -5   1    2.35    0.06
   3  -5   1    2.41    0.07
  -4   5  -1    0.63    0.05
  -4   5  -1    0.54    0.04
   4  -5   1    0.53    0.04
  -5   5  -1    2.77    0.10
  -5   5  -1    2.91    0.10
   5  -5   1    2.85    0.09
  -6   5  -1    2.83    0.11
   6  -5   1    2.88    0.11
   7  -5   1    5.63    0.17
  -9  -4   1    0.27    0.07
   8   4  -1    8.68    0.26
  -8  -4   1    9.19    0.27
   7   4  -1    2.66    0.13
  -7  -4   1    2.47    0.13
  -7  -4   1    2.73    0.10
   6   4  -1   12.77    0.31
  -6  -4   1   13.26    0.32
  -6  -4   1   13.41    0.27
   5   4  -1    3.38    0.13
   5   4  -1    3.23    0.13
   5   4  -1    3.23    0.12
  -5  -4   1    3.28    0.13
  -5  -4   1    3.29    0.13
  -5  -4   1    3.34    0.11
   4   4  -1    7.72    0.19
   4   4  -1    7.37    0.20
   4   4  -1    7.38    0.19
  -4  -4   1    7.55    0.16
  -4  -4   1    7.97    0.20
  -4  -4   1    7.55    0.19
   3   4  -1   23.42    0.45
   3   4  -1   22.97    0.43
   3   4  -1   22.79    0.43
   3   4  -1   22.60    0.43
  -3  -4   1   23.07    0.43
  -3  -4   1   23.08    0.44
  -3  -4   1   22.60    0.39
  -3  -4   1   23.94    0.45
  -3  -4   1   23.64    0.43
   2   4  -1   24.05    0.43
   2   4  -1   24.01    0.42
   2   4  -1   23.46    0.42
   2   4  -1   24.33    0.43
  -2  -4   1   23.73    0.42
  -2  -4   1   24.06    0.38
  -2  -4   1   24.11    0.43
  -2  -4   1   23.64    0.42
  -2  -4   1   24.47    0.44
   1   4  -1   12.23    0.23
   1   4  -1   12.33    0.24
   1   4  -1   12.63    0.24
   1   4  -1   11.84    0.23
  -1  -4   1   12.46    0.23
  -1  -4   1   12.31    0.23
   0   4  -1    5.42    0.11
   0   4  -1    5.36    0.11
   0   4  -1    5.62    0.11
   0   4  -1    5.57    0.12
   0  -4   1    5.47    0.11
  -1   4  -1    2.87    0.06
  -1   4  -1    2.90    0.05
  -1   4  -1    2.83    0.06
  -1   4  -1    2.77    0.06
  -1   4  -1    2.81    0.06
   1  -4   1    2.85    0.06
   1  -4   1    2.92    0.06
  -2   4  -1  146.80    2.42
  -2   4  -1  149.98    2.34
  -2   4  -1  148.02    2.34
  -2   4  -1  149.10    2.31
   2  -4   1  143.65    2.30
   2  -4   1  148.11    2.30
  -3   4  -1    3.41    0.08
  -3   4  -1    3.37    0.08
  -3   4  -1    3.35    0.08
  -3   4  -1    3.46    0.08
   3  -4   1    3.38    0.08
   3  -4   1    3.41    0.08
  -4   4  -1   53.21    0.89
  -4   4  -1   53.56    0.92
   4  -4   1   53.79    0.87
  -5   4  -1    0.52    0.05
  -5   4  -1    0.37    0.05
   5  -4   1    0.40    0.05
  -6   4  -1    1.77    0.09
  -6   4  -1    1.77    0.09
   6  -4   1    1.63    0.08
  -7   4  -1    1.03    0.08
   7  -4   1    0.96    0.08
   8  -4   1    1.71    0.10
   9   3  -1    0.32    0.06
  -9  -3   1    0.25    0.07
   8   3  -1    0.26    0.05
  -8  -3   1    0.24    0.06
   7   3  -1    7.90    0.19
  -7  -3   1    7.96    0.23
   6   3  -1    7.55    0.17
  -6  -3   1    7.34    0.21
  -6  -3   1    7.59    0.17
   5   3  -1   17.22    0.37
   5   3  -1   16.96    0.37
   5   3  -1   18.38    0.36
   5   3  -1   17.90    0.36
   5   3  -1   17.43    0.31
  -5  -3   1   17.95    0.32
  -5  -3   1   17.55    0.37
  -5  -3   1   17.48    0.38
  -5  -3   1   17.63    0.36
  -5  -3   1   18.44    0.38
   4   3  -1    0.10    0.03
   4   3  -1    0.12    0.04
   4   3  -1    0.11    0.02
   4   3  -1    0.13    0.04
   4   3  -1    0.08    0.03
  -4  -3   1    0.13    0.04
  -4  -3   1    0.10    0.04
  -4  -3   1    0.12    0.04
  -4  -3   1    0.10    0.03
  -4  -3   1    0.13    0.03
   3   3  -1    6.49    0.16
   3   3  -1    6.85    0.17
   3   3  -1    6.63    0.12
   3   3  -1    6.48    0.16
   3   3  -1    6.46    0.16
   3   3  -1    6.55    0.16
  -3  -3   1    6.89    0.17
  -3  -3   1    6.81    0.16
  -3  -3   1    6.96    0.14
  -3  -3   1    6.88    0.17
  -3  -3   1    6.77    0.16
   2   3  -1   43.55    0.71
   2   3  -1   42.71    0.72
   2   3  -1   44.31    0.71
   2   3  -1   41.68    0.72
   2   3  -1   43.00    0.75
   2   3  -1   42.18    0.74
  -2  -3   1   41.55    0.71
  -2  -3   1   44.02    0.74
  -2  -3   1   42.22    0.66
  -2  -3   1   42.83    0.72
   1   3  -1   18.55    0.33
   1   3  -1   18.43    0.32
   1   3  -1   18.29    0.32
   1   3  -1   18.35    0.32
   1   3  -1   18.38    0.31
   1   3  -1   18.59    0.32
  -1  -3   1   18.03    0.32
  -1  -3   1   18.42    0.32
  -1  -3   1   18.22    0.32
   0   3  -1    6.60    0.12
   0   3  -1    6.72    0.13
   0   3  -1    6.64    0.12
   0  -3   1    6.63    0.12
  -1   3  -1    2.86    0.05
  -1   3  -1    2.81    0.05
   1  -3   1    2.69    0.05
   1  -3   1    2.76    0.05
  -2   3  -1   44.32    0.72
  -2   3  -1   45.92    0.71
  -2   3  -1   45.11    0.71
  -2   3  -1   44.98    0.72
  -2   3  -1   45.59    0.75
   2  -3   1   44.31    0.71
   2  -3   1   44.57    0.71
  -3   3  -1    0.47    0.03
  -3   3  -1    0.39    0.03
  -3   3  -1    0.42    0.04
  -3   3  -1    0.44    0.04
  -3   3  -1    0.44    0.04
   3  -3   1    0.47    0.03
   3  -3   1    0.45    0.03
  -4   3  -1    2.36    0.08
  -4   3  -1    2.17    0.08
  -4   3  -1    2.21    0.08
   4  -3   1    2.31    0.08
  -5   3  -1    1.35    0.07
  -5   3  -1    1.32    0.07
   5  -3   1    1.35    0.07
  -6   3  -1    3.95    0.14
  -6   3  -1    4.11    0.14
   6  -3   1    4.14    0.13
  -7   3  -1    3.06    0.13
  -7   3  -1    2.90    0.13
   7  -3   1    2.64    0.12
   8  -3   1    0.12    0.04
   8  -3   1    0.07    0.05
   9   2  -1   17.76    0.36
  -9  -2   1   17.00    0.40
   8   2  -1    0.31    0.05
  -8  -2   1    0.25    0.06
   7   2  -1    0.67    0.06
   7   2  -1    0.72    0.08
  -7  -2   1    0.71    0.08
  -7  -2   1    0.62    0.08
   6   2  -1    1.24    0.07
   6   2  -1    1.13    0.08
   6   2  -1    1.16    0.08
  -6  -2   1    1.30    0.09
  -6  -2   1    1.15    0.09
  -6  -2   1    1.17    0.09
   5   2  -1   12.00    0.23
   5   2  -1   12.36    0.27
   5   2  -1   12.21    0.27
   5   2  -1   12.51    0.28
   5   2  -1   12.41    0.28
  -5  -2   1   11.68    0.27
  -5  -2   1   12.33    0.23
  -5  -2   1   11.73    0.27
  -5  -2   1   12.02    0.27
  -5  -2   1   11.79    0.28
   4   2  -1    1.17    0.06
   4   2  -1    1.25    0.07
   4   2  -1    1.31    0.05
   4   2  -1    1.29    0.07
   4   2  -1    1.29    0.07
  -4  -2   1    1.18    0.05
  -4  -2   1    1.29    0.07
  -4  -2   1    1.28    0.07
  -4  -2   1    1.36    0.07
  -4  -2   1    1.19    0.07
   3   2  -1    2.60    0.07
   3   2  -1    2.41    0.08
   3   2  -1    2.45    0.08
   3   2  -1    2.57    0.09
   3   2  -1    2.45    0.09
  -3  -2   1    2.49    0.08
  -3  -2   1    2.63    0.09
  -3  -2   1    2.56    0.09
  -3  -2   1    2.50    0.07
  -3  -2   1    2.59    0.09
   2   2  -1  169.18    2.80
   2   2  -1  164.23    2.66
   2   2  -1  170.83    2.53
   2   2  -1  172.18    2.64
   2   2  -1  166.08    2.69
   2   2  -1  170.36    2.82
   2   2  -1  168.51    2.70
  -2  -2   1  164.75    2.64
  -2  -2   1  172.20    2.80
  -2  -2   1  165.79    2.56
  -2  -2   1  169.42    2.69
  -2  -2   1  168.97    2.80
   1   2  -1   -0.09    0.02
   1   2  -1   -0.17    0.01
   1   2  -1   -0.13    0.02
   1   2  -1   -0.16    0.02
   1   2  -1   -0.15    0.02
  -1  -2   1   -0.08    0.02
  -1  -2   1   -0.17    0.02
  -1  -2   1   -0.11    0.02
  -1  -2   1   -0.18    0.02
   0   2  -1   20.97    0.35
   0   2  -1   21.21    0.35
   0   2  -1   21.69    0.36
   0  -2   1   21.05    0.34
  -2   2  -1    6.00    0.11
  -2   2  -1    5.87    0.11
  -2   2  -1    5.69    0.11
  -2   2  -1    6.00    0.11
  -2   2  -1    5.91    0.11
   2  -2   1    5.73    0.11
   2  -2   1    5.85    0.11
  -3   2  -1   74.74    1.23
  -3   2  -1   78.37    1.29
  -3   2  -1   76.08    1.25
  -3   2  -1   76.39    1.23
  -3   2  -1   77.05    1.25
   3  -2   1   78.52    1.22
   3  -2   1   77.05    1.22
  -4   2  -1   75.85    1.25
  -4   2  -1   76.46    1.26
  -4   2  -1   75.35    1.24
  -4   2  -1   75.98    1.24
  -4   2  -1   76.98    1.30
   4  -2   1   78.21    1.23
   4  -2   1   75.83    1.23
  -5   2  -1   28.67    0.53
  -5   2  -1   28.77    0.54
   5  -2   1   28.63    0.51
   5  -2   1   29.58    0.45
  -6   2  -1    1.22    0.08
  -6   2  -1    1.26    0.08
   6  -2   1    1.24    0.05
   6  -2   1    1.12    0.08
  -7   2  -1    7.26    0.21
  -7   2  -1    7.33    0.22
   7  -2   1    7.66    0.21
   7  -2   1    7.58    0.17
  -8   2  -1    0.20    0.06
   8  -2   1    0.27    0.05
   8  -2   1    0.16    0.05
   9  -2   1    0.01    0.04
   9  -2   1    0.11    0.06
   9   1  -1    0.49    0.06
  -9  -1   1    0.46    0.07
   8   1  -1    2.52    0.10
   8   1  -1    2.56    0.13
  -8  -1   1    2.46    0.14
  -8  -1   1    2.32    0.11
  -8  -1   1    2.52    0.14
   7   1  -1   10.01    0.26
   7   1  -1    9.69    0.22
  -7  -1   1    9.76    0.27
  -7  -1   1    9.73    0.25
  -7  -1   1    9.65    0.27
   6   1  -1   15.54    0.30
   6   1  -1   15.66    0.34
  -6  -1   1   15.56    0.35
  -6  -1   1   15.51    0.34
  -6  -1   1   15.95    0.36
   5   1  -1    0.00    0.03
   5   1  -1   -0.01    0.03
   5   1  -1    0.03    0.03
   5   1  -1    0.04    0.04
  -5  -1   1   -0.02    0.03
  -5  -1   1    0.03    0.04
  -5  -1   1    0.00    0.04
  -5  -1   1    0.03    0.02
   4   1  -1   29.44    0.51
   4   1  -1   29.13    0.53
   4   1  -1   29.67    0.52
   4   1  -1   28.39    0.47
   4   1  -1   28.86    0.51
  -4  -1   1   29.03    0.46
  -4  -1   1   28.06    0.54
  -4  -1   1   27.24    0.52
  -4  -1   1   28.55    0.51
  -4  -1   1   28.60    0.53
   3   1  -1    1.56    0.07
   3   1  -1    1.73    0.07
   3   1  -1    1.47    0.05
   3   1  -1    1.57    0.07
   3   1  -1    1.64    0.07
  -3  -1   1    1.60    0.07
  -3  -1   1    1.53    0.07
  -3  -1   1    1.53    0.07
  -3  -1   1    1.55    0.05
  -3  -1   1    1.64    0.07
   2   1  -1   20.55    0.35
   2   1  -1   20.56    0.37
   2   1  -1   20.23    0.32
   2   1  -1   19.84    0.36
   2   1  -1   20.66    0.35
   2   1  -1   20.37    0.37
  -2  -1   1   19.84    0.37
  -2  -1   1   20.20    0.33
  -2  -1   1   20.80    0.37
  -2  -1   1   20.03    0.36
  -2  -1   1   20.38    0.35
   1   1  -1  105.63    1.72
   1   1  -1   98.56    1.61
   1   1  -1  103.60    1.64
   1   1  -1  103.94    1.55
   1   1  -1  102.18    1.64
   1   1  -1  103.27    1.70
   1   1  -1  102.41    1.62
  -1  -1   1   98.90    1.61
  -1  -1   1  101.61    1.70
  -1  -1   1  104.55    1.64
  -1  -1   1  105.06    1.57
   0   1  -1    7.11    0.12
   0   1  -1    7.21    0.12
   0  -1   1    7.12    0.12
   0  -1   1    7.13    0.12
   0  -1   1    7.06    0.12
  -1   1  -1   15.93    0.26
  -1   1  -1   15.56    0.26
   1  -1   1   15.68    0.25
   1  -1   1   15.53    0.25
  -2   1  -1   -0.05    0.02
  -2   1  -1   -0.09    0.02
  -2   1  -1   -0.07    0.02
  -2   1  -1   -0.08    0.02
  -2   1  -1   -0.07    0.02
   2  -1   1   -0.06    0.02
   2  -1   1   -0.05    0.02
  -3   1  -1   20.37    0.37
  -3   1  -1   19.88    0.35
  -3   1  -1   20.03    0.35
  -3   1  -1   19.49    0.33
  -3   1  -1   20.07    0.35
  -3   1  -1   20.19    0.36
   3  -1   1   20.05    0.35
   3  -1   1   19.97    0.35
  -4   1  -1    7.72    0.17
  -4   1  -1    7.67    0.17
  -4   1  -1    7.66    0.15
  -4   1  -1    7.54    0.17
  -4   1  -1    7.82    0.18
  -4   1  -1    7.81    0.15
  -4   1  -1    7.76    0.17
   4  -1   1    8.07    0.14
   4  -1   1    7.66    0.17
   4  -1   1    7.78    0.17
  -5   1  -1   10.97    0.25
  -5   1  -1   10.92    0.24
  -5   1  -1   10.97    0.24
  -5   1  -1   11.02    0.20
  -5   1  -1   10.62    0.20
   5  -1   1   10.79    0.24
   5  -1   1   10.74    0.20
  -6   1  -1    0.01    0.02
  -6   1  -1   -0.01    0.04
  -6   1  -1   -0.03    0.04
   6  -1   1   -0.03    0.03
   6  -1   1   -0.04    0.03
  -7   1  -1   36.45    0.70
  -7   1  -1   38.04    0.73
   7  -1   1   37.48    0.69
   7  -1   1   37.56    0.63
  -8   1  -1    1.03    0.10
  -8   1  -1    0.88    0.10
   8  -1   1    0.86    0.09
   8  -1   1    1.01    0.07
   9  -1   1    0.97    0.10
   9  -1   1    0.84    0.08
   9   0  -1    0.51    0.08
   9   0  -1    0.55    0.07
  -9   0   1    0.60    0.09
  -9   0   1    0.56    0.06
   8   0  -1    1.59    0.11
   8   0  -1    1.65    0.09
  -8   0   1    1.82    0.12
  -8   0   1    1.55    0.09
  -8   0   1    1.51    0.11
   7   0  -1   24.21    0.49
   7   0  -1   24.66    0.44
  -7   0   1   24.91    0.51
  -7   0   1   24.31    0.48
  -7   0   1   24.81    0.52
   6   0  -1   10.91    0.22
   6   0  -1   11.40    0.26
  -6   0   1   10.83    0.25
  -6   0   1   10.53    0.27
  -6   0   1   10.91    0.27
   5   0  -1    0.12    0.04
   5   0  -1    0.11    0.03
  -5   0   1    0.13    0.04
  -5   0   1    0.18    0.04
  -5   0   1    0.10    0.04
   4   0  -1    2.25    0.07
   4   0  -1    2.29    0.08
   4   0  -1    2.27    0.08
   4   0  -1    2.40    0.09
   4   0  -1    2.17    0.08
  -4   0   1    2.39    0.08
  -4   0   1    2.14    0.09
  -4   0   1    2.30    0.08
  -4   0   1    2.25    0.09
   3   0  -1   19.40    0.35
   3   0  -1   19.11    0.32
   3   0  -1   19.91    0.36
   3   0  -1   20.39    0.36
   3   0  -1   19.92    0.35
  -3   0   1   19.14    0.36
  -3   0   1   19.34    0.37
  -3   0   1   19.91    0.35
  -3   0   1   19.98    0.36
  -3   0   1   20.36    0.31
  -3   0   1   19.14    0.36
   2   0  -1   48.64    0.79
   2   0  -1   47.76    0.78
   2   0  -1   47.19    0.77
   2   0  -1   48.24    0.74
  -2   0   1   48.41    0.79
  -2   0   1   49.04    0.82
  -2   0   1   46.86    0.79
  -2   0   1   47.78    0.82
  -2   0   1   47.98    0.78
  -2   0   1   49.67    0.73
   1   0  -1    0.06    0.02
   1   0  -1    0.05    0.02
   1   0  -1    0.10    0.02
   1   0  -1    0.12    0.02
   1   0  -1    0.06    0.01
  -1   0   1    0.06    0.02
  -1   0   1    0.04    0.02
  -1   0   1    0.04    0.02
  -1   0   1    0.06    0.02
  -1   0   1    0.06    0.01
  -1   0   1    0.07    0.02
   0   0  -1   -0.01    0.00
   0   0  -1    0.00    0.00
   0   0  -1    0.00    0.00
   0   0  -1    0.00    0.00
   0   0  -1    0.00    0.00
   0   0   1    0.00    0.00
   0   0   1    0.00    0.00
   0   0   1    0.00    0.00
   0   0   1    0.00    0.00
   0   0   1    0.00    0.00
  -1   0  -1   -0.16    0.02
  -1   0  -1   -0.17    0.01
  -1   0  -1   -0.16    0.02
  -1   0  -1   -0.12    0.02
   1   0   1   -0.15    0.02
   1   0   1   -0.15    0.02
   1   0   1   -0.15    0.01
   1   0   1   -0.17    0.01
   1   0   1   -0.16    0.02
  -2   0  -1   57.89    0.98
  -2   0  -1   58.93    0.97
  -2   0  -1   57.11    0.93
  -2   0  -1   57.28    0.94
   2   0   1   57.77    0.93
   2   0   1   58.95    0.94
   2   0   1   57.41    0.93
   2   0   1   59.52    0.88
  -3   0  -1   33.40    0.57
  -3   0  -1   29.50    0.56
  -3   0  -1   33.64    0.59
  -3   0  -1   32.77    0.56
  -3   0  -1   33.18    0.56
  -3   0  -1   32.97    0.56
   3   0   1   34.40    0.56
   3   0   1   33.92    0.55
   3   0   1   33.04    0.51
   3   0   1   33.27    0.55
  -4   0  -1    5.05    0.14
  -4   0  -1    5.01    0.13
  -4   0  -1    5.13    0.12
  -4   0  -1    4.98    0.13
  -4   0  -1    4.93    0.13
   4   0   1    5.04    0.12
   4   0   1    5.05    0.11
   4   0   1    5.10    0.13
   4   0   1    5.19    0.13
   4   0   1    4.84    0.13
  -5   0  -1    6.04    0.15
  -5   0  -1    5.91    0.16
  -5   0  -1    6.33    0.17
  -5   0  -1    6.06    0.16
   5   0   1    6.03    0.16
   5   0   1    6.15    0.13
  -6   0  -1    0.06    0.04
  -6   0  -1    0.07    0.04
  -6   0  -1    0.08    0.05
   6   0   1    0.10    0.04
   6   0   1    0.15    0.04
  -7   0  -1    4.36    0.16
  -7   0  -1    4.53    0.17
  -7   0  -1    4.78    0.13
   7   0   1    4.65    0.13
   7   0   1    4.68    0.16
  -8   0  -1   10.63    0.29
  -8   0  -1   10.77    0.23
  -8   0  -1   11.00    0.30
   8   0   1   10.60    0.28
   8   0   1   10.54    0.24
  -9   0  -1    7.17    0.16
  -9   0  -1    7.42    0.25
   9   0   1    6.73    0.19
   9   0   1    7.38    0.23
   9  -1  -1    0.02    0.04
   9  -1  -1    0.03    0.05
   8  -1  -1   -0.05    0.04
   8  -1  -1    0.00    0.04
  -8   1   1    0.05    0.02
  -8   1   1    0.04    0.06
  -8   1   1    0.03    0.05
   7  -1  -1    1.83    0.08
   7  -1  -1    1.91    0.10
  -7   1   1    1.88    0.07
  -7   1   1    1.89    0.11
  -7   1   1    1.90    0.11
   6  -1  -1   15.73    0.29
   6  -1  -1   15.78    0.34
  -6   1   1   15.62    0.34
  -6   1   1   16.14    0.31
  -6   1   1   16.31    0.36
   5  -1  -1    0.09    0.04
   5  -1  -1    0.14    0.03
  -5   1   1    0.09    0.03
  -5   1   1    0.13    0.04
  -5   1   1    0.06    0.04
   4  -1  -1    0.22    0.04
   4  -1  -1    0.21    0.04
   4  -1  -1    0.15    0.02
  -4   1   1    0.17    0.03
  -4   1   1    0.17    0.04
  -4   1   1    0.19    0.04
  -4   1   1    0.17    0.04
  -4   1   1    0.19    0.03
   3  -1  -1    2.32    0.07
   3  -1  -1    2.25    0.07
   3  -1  -1    2.33    0.05
   3  -1  -1    2.56    0.08
  -3   1   1    2.40    0.08
  -3   1   1    2.35    0.07
  -3   1   1    2.37    0.06
  -3   1   1    2.33    0.08
   2  -1  -1   30.37    0.51
   2  -1  -1   30.05    0.50
   2  -1  -1   30.83    0.50
  -2   1   1   30.12    0.51
  -2   1   1   30.30    0.52
  -2   1   1   30.15    0.53
  -2   1   1   30.59    0.51
  -2   1   1   29.85    0.50
   1  -1  -1    1.03    0.03
   1  -1  -1    1.27    0.03
   1  -1  -1    1.02    0.04
   1  -1  -1    1.06    0.03
   1  -1  -1    1.01    0.03
  -1   1   1    1.03    0.03
  -1   1   1    0.96    0.04
  -1   1   1    1.05    0.04
  -1   1   1    1.05    0.03
  -1   1   1    1.04    0.04
   0  -1  -1  142.54    2.30
   0  -1  -1  141.33    2.27
   0  -1  -1  143.88    2.27
   0  -1  -1  146.05    2.30
   0  -1  -1  143.37    2.25
   0  -1  -1  141.08    2.38
   0  -1  -1  141.41    2.39
   0   1   1  140.49    2.31
   0   1   1  142.12    2.38
  -1  -1  -1    7.39    0.14
  -1  -1  -1    7.33    0.14
  -1  -1  -1    7.48    0.14
  -1  -1  -1    7.53    0.12
  -1  -1  -1    7.53    0.14
  -1  -1  -1    7.38    0.14
   1   1   1    7.30    0.14
   1   1   1    7.47    0.14
   1   1   1    7.51    0.14
   1   1   1    7.92    0.14
   1   1   1    7.28    0.14
   1   1   1    7.51    0.12
  -2  -1  -1   64.67    1.05
  -2  -1  -1   66.05    1.10
  -2  -1  -1   64.01    1.06
  -2  -1  -1   64.39    1.10
  -2  -1  -1   66.17    1.04
  -2  -1  -1   65.34    0.99
   2   1   1   66.04    1.06
   2   1   1   64.65    1.10
   2   1   1   64.29    0.99
   2   1   1   66.93    1.05
   2   1   1   65.15    1.04
   2   1   1   66.62    1.10
  -3  -1  -1    4.14    0.08
  -3  -1  -1    4.03    0.11
  -3  -1  -1    4.06    0.11
  -3  -1  -1    4.10    0.11
  -3  -1  -1    3.98    0.11
  -3  -1  -1    4.07    0.10
   3   1   1    4.28    0.11
   3   1   1    4.17    0.09
   3   1   1    4.09    0.11
   3   1   1    4.01    0.11
   3   1   1    4.08    0.11
  -4  -1  -1    3.74    0.12
  -4  -1  -1    3.90    0.12
  -4  -1  -1    3.88    0.08
  -4  -1  -1    3.89    0.12
  -4  -1  -1    3.76    0.11
  -4  -1  -1    3.66    0.11
   4   1   1    3.90    0.11
   4   1   1    3.60    0.09
   4   1   1    3.76    0.11
   4   1   1    4.01    0.12
   4   1   1    3.76    0.11
  -5  -1  -1    4.96    0.14
  -5  -1  -1    4.84    0.15
  -5  -1  -1    4.88    0.15
  -5  -1  -1    4.72    0.14
   5   1   1    4.85    0.14
   5   1   1    4.90    0.14
   5   1   1    4.69    0.12
  -6  -1  -1   66.98    1.17
  -6  -1  -1   67.63    1.19
  -6  -1  -1   67.82    1.22
   6   1   1   68.85    1.08
   6   1   1   68.88    1.15
  -7  -1  -1   31.14    0.60
  -7  -1  -1   31.00    0.62
  -7  -1  -1   30.82    0.59
   7   1   1   29.97    0.53
   7   1   1   30.24    0.59
  -8  -1  -1   10.21    0.25
  -8  -1  -1   10.79    0.29
  -8  -1  -1   10.58    0.30
   8   1   1   10.46    0.28
   8   1   1   10.35    0.24
  -9  -1  -1    0.07    0.06
  -9  -1  -1    0.02    0.04
   9   1   1   -0.05    0.05
   9   1   1    0.08    0.05
   9  -2  -1    3.76    0.13
   9  -2  -1    3.90    0.17
   8  -2  -1    0.32    0.05
   8  -2  -1    0.32    0.07
  -8   2   1    0.36    0.07
   7  -2  -1   13.94    0.32
   7  -2  -1   13.75    0.27
  -7   2   1   14.07    0.34
  -7   2   1   14.19    0.33
   6  -2  -1    0.46    0.06
   6  -2  -1    0.53    0.05
  -6   2   1    0.55    0.07
  -6   2   1    0.44    0.06
   5  -2  -1   37.59    0.66
   5  -2  -1   38.48    0.60
  -5   2   1   37.74    0.68
  -5   2   1   38.52    0.70
   4  -2  -1    0.87    0.03
   4  -2  -1    0.89    0.06
  -4   2   1    0.86    0.06
  -4   2   1    0.99    0.06
  -4   2   1    0.87    0.06
   3  -2  -1   24.20    0.42
   3  -2  -1   24.55    0.42
  -3   2   1   25.19    0.45
  -3   2   1   24.39    0.43
  -3   2   1   24.38    0.42
  -3   2   1   24.68    0.43
   2  -2  -1   13.25    0.23
   2  -2  -1   13.20    0.23
  -2   2   1   13.32    0.23
  -2   2   1   13.48    0.24
  -2   2   1   13.21    0.24
  -2   2   1   13.77    0.25
   1  -2  -1  987.49   15.71
   1  -2  -1  926.27   15.36
   1  -2  -1  910.64   15.53
  -1   2   1  945.75   15.62
  -1   2   1  965.87   15.68
  -1   2   1  929.52   15.50
  -1   2   1 1000.00   16.14
   0  -2  -1  328.78    5.50
   0  -2  -1  330.01    5.23
   0  -2  -1  337.39    5.49
   0  -2  -1  336.39    5.30
   0  -2  -1  339.21    5.21
   0   2   1  327.36    5.32
   0   2   1  329.45    5.33
   0   2   1  333.60    5.24
   0   2   1  327.94    5.52
  -1  -2  -1    1.55    0.05
  -1  -2  -1    1.64    0.05
  -1  -2  -1    1.63    0.05
  -1  -2  -1    1.58    0.04
   1   2   1    1.51    0.05
   1   2   1    1.45    0.05
   1   2   1    1.68    0.05
   1   2   1    1.58    0.05
   1   2   1    1.58    0.05
  -2  -2  -1  167.42    2.68
  -2  -2  -1  167.22    2.63
  -2  -2  -1  166.98    2.65
  -2  -2  -1  166.05    2.58
  -2  -2  -1  173.34    2.79
  -2  -2  -1  161.84    2.78
   2   2   1  163.45    2.65
   2   2   1  172.64    2.78
   2   2   1  167.02    2.68
   2   2   1  170.29    2.78
   2   2   1  167.35    2.53
   2   2   1  170.79    2.63
  -3  -2  -1   -0.08    0.03
  -3  -2  -1   -0.06    0.03
  -3  -2  -1    0.00    0.03
  -3  -2  -1   -0.06    0.03
  -3  -2  -1   -0.06    0.03
  -3  -2  -1   -0.03    0.02
   3   2   1   -0.07    0.02
   3   2   1   -0.05    0.03
   3   2   1   -0.08    0.02
   3   2   1   -0.02    0.02
   3   2   1   -0.07    0.03
  -4  -2  -1   21.74    0.43
  -4  -2  -1   21.88    0.41
  -4  -2  -1   22.14    0.42
  -4  -2  -1   22.17    0.37
  -4  -2  -1   22.44    0.41
  -4  -2  -1   21.87    0.43
   4   2   1   22.51    0.41
   4   2   1   21.55    0.41
   4   2   1   22.40    0.37
   4   2   1   22.18    0.42
   4   2   1   22.63    0.43
  -5  -2  -1   44.83    0.83
  -5  -2  -1   45.84    0.81
  -5  -2  -1   45.64    0.80
  -5  -2  -1   46.25    0.73
  -5  -2  -1   45.48    0.84
  -5  -2  -1   46.23    0.79
   5   2   1   45.86    0.79
   5   2   1   45.66    0.81
   5   2   1   45.54    0.74
   5   2   1   46.38    0.79
   5   2   1   47.17    0.83
  -6  -2  -1   10.57    0.27
  -6  -2  -1   10.17    0.25
  -6  -2  -1   10.38    0.26
   6   2   1   10.59    0.26
   6   2   1   10.35    0.22
   6   2   1   10.26    0.25
  -7  -2  -1   28.58    0.57
  -7  -2  -1   28.60    0.57
  -7  -2  -1   28.99    0.59
   7   2   1   28.43    0.50
   7   2   1   28.17    0.56
  -8  -2  -1    2.06    0.12
  -8  -2  -1    2.13    0.11
   8   2   1    2.00    0.09
   8   2   1    2.08    0.12
  -9  -2  -1    5.95    0.19
   9   2   1    5.87    0.17
   8  -3  -1    0.24    0.05
   8  -3  -1    0.19    0.06
  -8   3   1    0.17    0.07
   7  -3  -1    0.19    0.04
   7  -3  -1    0.04    0.05
  -7   3   1    0.03    0.05
  -7   3   1    0.15    0.06
   6  -3  -1    0.25    0.03
   6  -3  -1    0.29    0.05
  -6   3   1    0.23    0.05
  -6   3   1    0.28    0.05
   5  -3  -1   17.44    0.33
  -5   3   1   16.55    0.35
  -5   3   1   16.47    0.34
   4  -3  -1    1.04    0.06
  -4   3   1    1.08    0.06
  -4   3   1    1.13    0.06
   3  -3  -1   18.45    0.33
   3  -3  -1   18.84    0.33
  -3   3   1   18.85    0.34
  -3   3   1   18.55    0.33
  -3   3   1   18.05    0.33
  -3   3   1   18.12    0.34
   2  -3  -1   17.68    0.30
   2  -3  -1   18.07    0.30
  -2   3   1   17.71    0.30
  -2   3   1   18.00    0.32
  -2   3   1   17.67    0.31
  -2   3   1   17.93    0.31
   1  -3  -1   -0.03    0.02
  -1   3   1    0.00    0.02
  -1   3   1    0.00    0.02
  -1   3   1    0.00    0.02
  -1   3   1    0.02    0.02
   0  -3  -1    7.82    0.14
   0  -3  -1    7.93    0.15
   0  -3  -1    7.72    0.15
   0   3   1    7.76    0.15
   0   3   1    7.83    0.15
   0   3   1    7.93    0.15
   0   3   1    7.91    0.15
  -1  -3  -1    3.24    0.08
  -1  -3  -1    3.27    0.08
  -1  -3  -1    3.33    0.08
  -1  -3  -1    3.34    0.06
   1   3   1    3.31    0.08
   1   3   1    3.22    0.08
   1   3   1    3.27    0.08
  -2  -3  -1   22.07    0.39
  -2  -3  -1   21.80    0.41
  -2  -3  -1   22.23    0.39
  -2  -3  -1   22.06    0.36
  -2  -3  -1   22.60    0.41
  -2  -3  -1   22.02    0.39
   2   3   1   21.94    0.40
   2   3   1   21.77    0.39
   2   3   1   22.03    0.40
   2   3   1   22.09    0.40
   2   3   1   21.94    0.38
   2   3   1   22.02    0.41
  -3  -3  -1   30.03    0.53
  -3  -3  -1   30.79    0.55
  -3  -3  -1   30.09    0.52
  -3  -3  -1   30.28    0.49
  -3  -3  -1   30.36    0.55
  -3  -3  -1   28.84    0.52
   3   3   1   30.06    0.54
   3   3   1   29.71    0.54
   3   3   1   30.15    0.53
   3   3   1   29.57    0.48
   3   3   1   29.72    0.52
  -4  -3  -1   16.62    0.33
  -4  -3  -1   16.76    0.34
  -4  -3  -1   17.16    0.34
  -4  -3  -1   17.03    0.35
  -4  -3  -1   17.29    0.30
  -4  -3  -1   16.84    0.35
   4   3   1   17.21    0.30
   4   3   1   17.38    0.34
   4   3   1   17.16    0.34
   4   3   1   17.40    0.35
   4   3   1   16.72    0.33
  -5  -3  -1   35.68    0.66
  -5  -3  -1   36.33    0.69
  -5  -3  -1   36.64    0.68
  -5  -3  -1   36.44    0.65
  -5  -3  -1   37.23    0.60
   5   3   1   36.06    0.65
   5   3   1   35.94    0.68
   5   3   1   36.40    0.67
   5   3   1   35.75    0.59
   5   3   1   36.02    0.65
  -6  -3  -1   33.08    0.64
  -6  -3  -1   34.03    0.66
  -6  -3  -1   32.21    0.64
  -6  -3  -1   33.57    0.55
   6   3   1   34.34    0.65
   6   3   1   33.52    0.56
   6   3   1   32.34    0.62
  -7  -3  -1   11.47    0.29
   7   3   1   11.32    0.24
   7   3   1   12.02    0.30
  -8  -3  -1    0.33    0.07
   8   3   1    0.43    0.06
  -9  -3  -1   11.73    0.32
   9   3   1   12.00    0.27
   8  -4  -1    0.11    0.05
   8  -4  -1    0.03    0.04
   7  -4  -1    1.03    0.08
  -7   4   1    0.95    0.08
   6  -4  -1    0.15    0.04
  -6   4   1    0.15    0.04
  -6   4   1    0.10    0.05
   5  -4  -1    6.30    0.16
  -5   4   1    6.53    0.17
  -5   4   1    6.07    0.16
   4  -4  -1    0.96    0.06
  -4   4   1    1.02    0.06
  -4   4   1    0.87    0.06
   3  -4  -1    1.04    0.05
  -3   4   1    1.10    0.05
  -3   4   1    1.17    0.06
  -3   4   1    1.07    0.05
  -3   4   1    1.20    0.06
   2  -4  -1  132.08    2.11
   2  -4  -1  132.99    2.11
  -2   4   1  134.19    2.15
  -2   4   1  135.72    2.22
  -2   4   1  136.18    2.15
  -2   4   1  134.60    2.12
   1  -4  -1    0.10    0.02
   1  -4  -1    0.09    0.02
  -1   4   1    0.07    0.02
  -1   4   1    0.06    0.02
  -1   4   1    0.08    0.02
  -1   4   1    0.09    0.02
  -1   4   1    0.19    0.03
   0  -4  -1    1.13    0.05
   0  -4  -1    1.08    0.05
   0   4   1    1.15    0.05
   0   4   1    1.12    0.05
   0   4   1    1.08    0.05
   0   4   1    1.10    0.05
  -1  -4  -1   50.49    0.81
  -1  -4  -1   50.36    0.85
   1   4   1   49.29    0.83
   1   4   1   49.89    0.86
   1   4   1   50.45    0.83
   1   4   1   49.58    0.83
   1   4   1   50.27    0.82
   1   4   1   49.56    0.83
  -2  -4  -1    0.10    0.03
  -2  -4  -1    0.14    0.02
  -2  -4  -1    0.10    0.03
  -2  -4  -1    0.13    0.03
   2   4   1    0.13    0.03
   2   4   1    0.16    0.03
   2   4   1    0.14    0.03
   2   4   1    0.17    0.03
   2   4   1    0.08    0.03
   2   4   1    0.06    0.03
  -3  -4  -1  100.54    1.70
  -3  -4  -1   99.53    1.61
  -3  -4  -1  100.74    1.70
  -3  -4  -1  100.46    1.64
  -3  -4  -1   98.46    1.53
   3   4   1  101.98    1.69
   3   4   1  101.57    1.61
   3   4   1   98.12    1.64
   3   4   1   97.84    1.70
   3   4   1   99.09    1.62
  -4  -4  -1   12.18    0.27
  -4  -4  -1   11.96    0.27
  -4  -4  -1   12.11    0.28
  -4  -4  -1   12.61    0.28
  -4  -4  -1   12.33    0.23
   4   4   1   12.33    0.27
   4   4   1   12.34    0.22
   4   4   1   11.88    0.27
   4   4   1   12.34    0.26
   4   4   1   12.16    0.27
  -5  -4  -1   87.09    1.52
  -5  -4  -1   88.46    1.36
  -5  -4  -1   86.66    1.45
   5   4   1   88.74    1.35
   5   4   1   87.84    1.45
   5   4   1   87.98    1.48
   5   4   1   83.50    1.51
  -6  -4  -1    4.97    0.17
  -6  -4  -1    4.83    0.13
   6   4   1    4.72    0.13
   6   4   1    4.67    0.16
  -7  -4  -1    1.63    0.11
   7   4   1    1.94    0.11
   7   4   1    1.87    0.08
  -8  -4  -1   18.93    0.45
   8   4   1   19.49    0.37
   8   4   1   19.18    0.45
  -9  -4  -1    6.96    0.24
   7  -5  -1   -0.01    0.04
   6  -5  -1    0.56    0.06
  -6   5   1    0.61    0.06
   5  -5  -1    1.00    0.06
  -5   5   1    1.02    0.07
  -5   5   1    1.03    0.07
   4  -5  -1    9.31    0.20
  -4   5   1    9.44    0.21
  -4   5   1    9.40    0.20
   3  -5  -1    6.83    0.15
  -3   5   1    6.90    0.15
  -3   5   1    6.93    0.16
   2  -5  -1   13.02    0.24
   2  -5  -1   13.54    0.24
  -2   5   1   12.83    0.25
  -2   5   1   13.35    0.24
  -2   5   1   13.37    0.25
  -2   5   1   13.18    0.25
   1  -5  -1    0.55    0.04
   1  -5  -1    0.54    0.04
  -1   5   1    0.49    0.04
  -1   5   1    0.56    0.04
  -1   5   1    0.50    0.04
  -1   5   1    0.54    0.04
  -1   5   1    0.54    0.04
   0  -5  -1   12.44    0.23
   0  -5  -1   12.61    0.23
   0   5   1   12.63    0.23
   0   5   1   12.67    0.24
   0   5   1   12.75    0.25
   0   5   1   12.54    0.24
  -1  -5  -1   14.31    0.27
   1   5   1   14.50    0.29
   1   5   1   14.55    0.28
   1   5   1   14.12    0.28
   1   5   1   14.70    0.27
  -2  -5  -1   21.60    0.35
  -2  -5  -1   21.24    0.39
   2   5   1   21.29    0.40
   2   5   1   22.22    0.38
   2   5   1   21.20    0.38
  -3  -5  -1    0.37    0.04
  -3  -5  -1    0.36    0.05
   3   5   1    0.42    0.04
   3   5   1    0.39    0.05
   3   5   1    0.43    0.06
  -4  -5  -1    7.71    0.17
  -4  -5  -1    7.56    0.20
   4   5   1    7.51    0.20
   4   5   1    8.11    0.20
   4   5   1    7.69    0.20
  -5  -5  -1   17.84    0.38
  -5  -5  -1   17.83    0.34
  -5  -5  -1   18.33    0.40
   5   5   1   17.73    0.38
   5   5   1   17.88    0.38
   5   5   1   18.03    0.39
  -6  -5  -1    3.16    0.11
  -6  -5  -1    3.08    0.14
   6   5   1    3.15    0.13
  -7  -5  -1    8.48    0.20
  -7  -5  -1    8.01    0.25
   7   5   1    8.38    0.24
  -8  -5  -1    0.29    0.07
   8   5   1    0.33    0.07
  -9  -5  -1    0.53    0.09
   9   5   1    0.69    0.09
   7  -6  -1    0.14    0.05
   6  -6  -1    0.41    0.05
  -6   6   1    0.36    0.06
   5  -6  -1    0.08    0.04
  -5   6   1    0.06    0.04
  -5   6   1    0.04    0.04
   4  -6  -1    5.38    0.14
  -4   6   1    5.38    0.14
  -4   6   1    5.23    0.14
   3  -6  -1    0.99    0.05
  -3   6   1    1.02    0.06
  -3   6   1    1.04    0.06
   2  -6  -1    3.68    0.10
  -2   6   1    3.74    0.10
  -2   6   1    3.64    0.10
   1  -6  -1   12.61    0.24
  -1   6   1   12.81    0.25
  -1   6   1   12.80    0.25
   0  -6  -1   17.97    0.33
   0   6   1   17.59    0.33
  -1  -6  -1   14.82    0.29
   1   6   1   15.10    0.30
  -2  -6  -1   23.22    0.43
   2   6   1   23.24    0.44
  -3  -6  -1    0.41    0.05
  -3  -6  -1    0.37    0.06
   3   6   1    0.49    0.06
   3   6   1    0.42    0.06
   3   6   1    0.51    0.04
  -4  -6  -1   21.30    0.38
  -4  -6  -1   21.23    0.42
   4   6   1   21.08    0.43
   4   6   1   21.33    0.42
   4   6   1   20.78    0.42
  -5  -6  -1    0.09    0.05
  -5  -6  -1    0.15    0.04
   5   6   1    0.16    0.06
   5   6   1    0.28    0.06
   5   6   1    0.19    0.05
  -6  -6  -1   15.98    0.33
  -6  -6  -1   17.42    0.39
   6   6   1   16.25    0.37
   6   6   1   17.11    0.39
   7   6   1    3.85    0.16
   8   6   1    4.42    0.18
   6  -7  -1    1.41    0.08
   5  -7  -1    4.50    0.13
  -5   7   1    4.50    0.13
   4  -7  -1    1.86    0.08
  -4   7   1    1.86    0.08
  -4   7   1    1.93    0.08
   3  -7  -1    0.11    0.03
  -3   7   1    0.10    0.03
  -3   7   1    0.13    0.03
   2  -7  -1    8.81    0.18
  -2   7   1    9.10    0.19
   1  -7  -1    0.09    0.03
  -1   7   1    0.06    0.03
   0   7   1   23.14    0.43
  -1  -7  -1   50.72    0.85
   1   7   1   50.16    0.87
  -2  -7  -1    1.85    0.09
   2   7   1    1.94    0.09
   2   7   1    1.86    0.09
  -3  -7  -1   16.10    0.34
  -3  -7  -1   16.79    0.30
   3   7   1   16.23    0.35
   3   7   1   16.27    0.35
  -4  -7  -1    0.05    0.04
  -4  -7  -1   -0.02    0.03
   4   7   1    0.01    0.05
   4   7   1    0.05    0.05
   4   7   1    0.06    0.03
  -5  -7  -1    0.31    0.06
  -5  -7  -1    0.30    0.05
   5   7   1    0.34    0.07
   5   7   1    0.30    0.05
   5   7   1    0.23    0.06
  -6  -7  -1   12.63    0.32
  -6  -7  -1   12.29    0.27
   6   7   1   12.17    0.32
   6   7   1   12.23    0.32
   6   7   1   12.19    0.30
  -7  -7  -1    0.58    0.07
   7   7   1    0.57    0.08
   8   7   1    9.34    0.27
   5  -8  -1   12.32    0.26
   4  -8  -1    3.60    0.11
  -4   8   1    3.86    0.11
   3  -8  -1    2.64    0.09
  -3   8   1    2.69    0.09
   2  -8  -1    4.02    0.11
  -2   8   1    4.17    0.11
   1  -8  -1    0.25    0.04
  -1   8   1    0.24    0.04
   0  -8  -1   13.00    0.26
   0   8   1   12.72    0.27
  -1  -8  -1    5.08    0.15
   1   8   1    4.99    0.15
  -2  -8  -1    0.20    0.04
  -2  -8  -1    0.05    0.04
   2   8   1    0.05    0.05
   2   8   1    0.02    0.04
  -3  -8  -1   21.02    0.38
  -3  -8  -1   20.96    0.43
   3   8   1   21.47    0.44
   3   8   1   20.62    0.43
  -4  -8  -1   14.38    0.30
  -4  -8  -1   14.95    0.34
   4   8   1   14.82    0.34
   4   8   1   14.40    0.34
  -5  -8  -1   18.14    0.36
  -5  -8  -1   18.44    0.41
   5   8   1   18.23    0.41
   5   8   1   18.17    0.36
   5   8   1   17.80    0.42
  -6  -8  -1    9.13    0.27
  -6  -8  -1    9.48    0.24
   6   8   1    9.44    0.28
   6   8   1    9.37    0.27
   6   8   1    9.74    0.24
  -7  -8  -1    1.10    0.09
   7   8   1    1.19    0.09
   3  -9  -1    8.87    0.19
  -2   9   1    0.23    0.04
  -1   9   1    9.81    0.22
   0  -9  -1    0.09    0.04
   0   9   1    0.04    0.04
  -1  -9  -1    2.89    0.11
   1   9   1    2.76    0.11
  -2  -9  -1    0.65    0.07
   2   9   1    0.65    0.07
   2   9   1    0.65    0.07
  -3  -9  -1    3.09    0.11
  -3  -9  -1    3.13    0.13
   3   9   1    2.98    0.14
   3   9   1    3.06    0.13
  -4  -9  -1    0.74    0.07
  -4  -9  -1    0.80    0.09
   4   9   1    0.81    0.09
   4   9   1    0.77    0.09
  -5  -9  -1   10.60    0.25
  -5  -9  -1   10.88    0.30
   5   9   1   10.74    0.30
   5   9   1   10.90    0.31
  -6  -9  -1    2.81    0.12
  -6  -9  -1    2.93    0.15
   6   9   1    2.73    0.10
   6   9   1    3.03    0.16
   1 -10  -1    3.80    0.12
   0 -10  -1    0.85    0.07
  -1 -10  -1    0.06    0.04
   1  10   1   -0.01    0.05
  -2 -10  -1    0.29    0.06
   2  10   1    0.45    0.07
  -3 -10  -1    0.51    0.07
  -3 -10  -1    0.44    0.06
   3  10   1    0.48    0.08
  -4 -10  -1    1.18    0.08
  -4 -10  -1    1.21    0.11
  -3 -10   2    1.79    0.11
  -2 -10   2   -0.01    0.05
  -1 -10   2   -0.04    0.04
   0 -10   2   11.12    0.24
   5   9  -2    0.12    0.07
  -5  -9   2    0.14    0.06
  -5  -9   2    0.16    0.05
   4   9  -2    1.73    0.12
   4   9  -2    1.81    0.12
  -4  -9   2    1.71    0.09
  -4  -9   2    1.90    0.11
   3   9  -2    0.86    0.08
   3   9  -2    0.93    0.09
  -3  -9   2    0.82    0.06
  -3  -9   2    0.60    0.07
   2   9  -2    0.52    0.07
   2   9  -2    0.54    0.07
  -2  -9   2    0.59    0.07
   1   9  -2    4.71    0.15
   1   9  -2    4.46    0.14
  -1  -9   2    4.62    0.14
   0   9  -2    0.25    0.05
   0   9  -2    0.33    0.05
   0  -9   2    0.26    0.04
  -1   9  -2    1.47    0.07
  -1   9  -2    1.55    0.07
   1  -9   2    1.37    0.06
   2  -9   2    6.15    0.13
   7   8  -2    0.14    0.05
  -7  -8   2    0.16    0.06
   6   8  -2    9.01    0.28
   6   8  -2    8.71    0.21
   6   8  -2    9.00    0.27
  -6  -8   2    9.00    0.23
  -6  -8   2    9.71    0.28
   5   8  -2    4.45    0.18
   5   8  -2    4.81    0.18
  -5  -8   2    4.35    0.17
  -5  -8   2    4.23    0.14
   4   8  -2    3.33    0.14
   4   8  -2    3.32    0.14
  -4  -8   2    3.22    0.11
  -4  -8   2    3.53    0.15
   3   8  -2    0.85    0.08
   3   8  -2    1.01    0.08
  -3  -8   2    0.90    0.08
  -3  -8   2    0.89    0.06
   2   8  -2    2.97    0.12
   2   8  -2    3.03    0.12
  -2  -8   2    2.98    0.12
   1   8  -2    0.40    0.05
   1   8  -2    0.40    0.05
  -1  -8   2    0.34    0.05
   0   8  -2    3.28    0.11
   0   8  -2    3.45    0.11
   0  -8   2    3.51    0.11
  -1   8  -2    1.60    0.06
   1  -8   2    1.52    0.06
  -2   8  -2    7.24    0.14
   2  -8   2    7.06    0.14
   7   7  -2    7.51    0.22
  -7  -7   2    7.69    0.21
   6   7  -2    1.44    0.11
   6   7  -2    1.35    0.08
   6   7  -2    1.37    0.11
  -6  -7   2    1.37    0.10
  -6  -7   2    1.43    0.09
   5   7  -2   12.12    0.26
   5   7  -2   12.11    0.31
   5   7  -2   12.26    0.31
  -5  -7   2   12.28    0.31
  -5  -7   2   11.94    0.26
   4   7  -2   19.77    0.35
   4   7  -2   20.12    0.42
   4   7  -2   19.89    0.42
  -4  -7   2   20.26    0.42
  -4  -7   2   19.42    0.37
   3   7  -2    1.75    0.10
   3   7  -2    1.66    0.10
  -3  -7   2    1.73    0.07
  -3  -7   2    1.69    0.09
   2   7  -2    3.50    0.12
   2   7  -2    3.49    0.12
  -2  -7   2    3.26    0.12
   1   7  -2   10.40    0.23
   1   7  -2   10.37    0.22
  -1  -7   2   10.33    0.22
   0   7  -2    2.04    0.08
   0  -7   2    2.17    0.08
  -1   7  -2   28.75    0.48
   1  -7   2   27.39    0.47
  -2   7  -2    0.03    0.02
  -3   7  -2    7.01    0.14
   3  -7   2    6.57    0.13
  -4   7  -2    1.70    0.07
  -4   7  -2    1.74    0.05
   4  -7   2    1.73    0.06
  -5   7  -2   11.70    0.22
   5  -7   2   11.18    0.22
   8   6  -2    0.10    0.05
  -8  -6   2    0.01    0.05
   7   6  -2    2.67    0.13
  -7  -6   2    2.65    0.11
   6   6  -2    2.59    0.13
   6   6  -2    2.29    0.11
   6   6  -2    2.39    0.13
  -6  -6   2    2.27    0.12
  -6  -6   2    2.28    0.10
   5   6  -2    0.08    0.05
   5   6  -2    0.15    0.04
   5   6  -2    0.19    0.06
  -5  -6   2    0.16    0.05
  -5  -6   2    0.20    0.05
   4   6  -2    3.18    0.13
   4   6  -2    3.03    0.13
   4   6  -2    3.31    0.10
  -4  -6   2    3.31    0.13
  -4  -6   2    3.11    0.10
   3   6  -2   15.91    0.33
   3   6  -2   16.25    0.34
  -3  -6   2   15.82    0.29
  -3  -6   2   15.89    0.33
   2   6  -2    9.40    0.21
   2   6  -2    8.86    0.21
  -2  -6   2    9.33    0.16
  -2  -6   2    9.04    0.21
   1   6  -2   20.03    0.37
   1   6  -2   20.34    0.38
  -1  -6   2   20.17    0.37
   0   6  -2    7.27    0.16
   0   6  -2    7.37    0.16
   0  -6   2    7.34    0.16
  -1   6  -2   10.44    0.20
  -1   6  -2   10.38    0.19
  -1   6  -2   10.05    0.19
  -1   6  -2   10.44    0.19
   1  -6   2   10.38    0.19
   1  -6   2   10.04    0.19
  -2   6  -2    1.44    0.04
  -2   6  -2    1.45    0.04
  -2   6  -2    1.40    0.04
  -2   6  -2    1.40    0.04
  -2   6  -2    1.41    0.04
   2  -6   2    1.46    0.04
   2  -6   2    1.40    0.04
  -3   6  -2    6.48    0.12
  -3   6  -2    6.42    0.13
  -3   6  -2    6.43    0.12
   3  -6   2    6.52    0.12
   3  -6   2    6.27    0.12
  -4   6  -2    0.00    0.02
  -4   6  -2    0.05    0.02
   4  -6   2    0.07    0.02
  -5   6  -2    8.26    0.19
  -5   6  -2    8.33    0.18
   5  -6   2    8.16    0.18
  -6   6  -2    0.51    0.06
   6  -6   2    0.50    0.05
   8   5  -2    2.86    0.14
  -8  -5   2    2.64    0.15
   7   5  -2    2.98    0.14
  -7  -5   2    2.99    0.12
   6   5  -2    4.74    0.17
   6   5  -2    4.55    0.16
   6   5  -2    4.72    0.17
  -6  -5   2    4.51    0.14
  -6  -5   2    4.78    0.17
   5   5  -2    4.52    0.15
   5   5  -2    4.31    0.16
   5   5  -2    4.41    0.16
  -5  -5   2    4.58    0.13
  -5  -5   2    4.67    0.16
   4   5  -2    0.10    0.05
   4   5  -2    0.19    0.04
   4   5  -2    0.19    0.05
  -4  -5   2    0.20    0.05
  -4  -5   2    0.15    0.04
   3   5  -2    5.12    0.12
   3   5  -2    5.04    0.15
   3   5  -2    5.04    0.15
  -3  -5   2    4.96    0.14
  -3  -5   2    4.89    0.12
   2   5  -2    0.22    0.04
   2   5  -2    0.24    0.04
  -2  -5   2    0.25    0.04
  -2  -5   2    0.18    0.02
   1   5  -2   65.74    1.10
   1   5  -2   65.10    1.05
   1   5  -2   63.87    1.06
   1   5  -2   62.57    1.05
   1   5  -2   65.58    1.07
  -1  -5   2   64.13    1.04
  -1  -5   2   64.06    1.04
   0   5  -2    5.47    0.12
   0   5  -2    5.31    0.11
   0   5  -2    5.49    0.12
   0   5  -2    5.24    0.12
   0  -5   2    5.43    0.11
   0  -5   2    5.37    0.12
  -1   5  -2   32.61    0.54
  -1   5  -2   31.84    0.54
  -1   5  -2   33.10    0.53
  -1   5  -2   33.47    0.55
   1  -5   2   32.73    0.53
  -2   5  -2   17.66    0.29
  -2   5  -2   17.61    0.29
   2  -5   2   17.57    0.28
   2  -5   2   17.03    0.28
  -3   5  -2    0.30    0.03
  -3   5  -2    0.30    0.03
  -3   5  -2    0.26    0.03
  -3   5  -2    0.30    0.03
   3  -5   2    0.27    0.03
   3  -5   2    0.29    0.03
  -4   5  -2    4.71    0.11
  -4   5  -2    4.86    0.12
   4  -5   2    4.55    0.11
  -5   5  -2    0.03    0.03
  -5   5  -2    0.06    0.03
   5  -5   2    0.08    0.03
  -6   5  -2    0.16    0.04
   6  -5   2    0.18    0.04
   7  -5   2    3.49    0.13
   9   4  -2    7.12    0.24
  -9  -4   2    6.72    0.24
   8   4  -2    1.83    0.12
  -8  -4   2    1.73    0.12
   7   4  -2    4.03    0.16
  -7  -4   2    4.18    0.13
  -7  -4   2    4.18    0.17
   6   4  -2   15.96    0.37
  -6  -4   2   16.54    0.32
  -6  -4   2   16.53    0.38
   5   4  -2    1.10    0.08
   5   4  -2    0.96    0.07
   5   4  -2    1.18    0.08
  -5  -4   2    0.90    0.08
  -5  -4   2    1.05    0.07
  -5  -4   2    1.01    0.08
   4   4  -2   41.44    0.76
   4   4  -2   43.24    0.75
   4   4  -2   42.99    0.77
  -4  -4   2   43.64    0.79
  -4  -4   2   43.28    0.75
  -4  -4   2   43.18    0.70
   3   4  -2    0.01    0.03
   3   4  -2    0.10    0.03
   3   4  -2    0.02    0.02
   3   4  -2    0.02    0.03
  -3  -4   2    0.05    0.03
  -3  -4   2   -0.01    0.03
  -3  -4   2    0.03    0.03
  -3  -4   2    0.00    0.03
   2   4  -2  136.28    2.28
   2   4  -2  138.59    2.23
   2   4  -2  140.24    2.20
   2   4  -2  134.97    2.23
   2   4  -2  137.98    2.28
  -2  -4   2  134.17    2.18
  -2  -4   2  135.93    2.22
  -2  -4   2  139.95    2.19
  -2  -4   2  140.10    2.08
  -2  -4   2  139.83    2.30
   1   4  -2   -0.01    0.02
   1   4  -2    0.02    0.02
   1   4  -2   -0.02    0.02
   1   4  -2    0.03    0.02
  -1  -4   2    0.00    0.02
  -1  -4   2    0.01    0.02
   0   4  -2   83.53    1.33
   0   4  -2   83.22    1.38
   0   4  -2   83.05    1.33
   0  -4   2   82.30    1.30
   0  -4   2   81.83    1.30
  -1   4  -2    1.39    0.04
   1  -4   2    1.35    0.03
   1  -4   2    1.34    0.03
  -2   4  -2   20.69    0.33
  -2   4  -2   20.97    0.33
   2  -4   2   20.38    0.33
   2  -4   2   20.07    0.33
  -3   4  -2    4.55    0.10
  -3   4  -2    4.39    0.10
  -3   4  -2    4.23    0.09
  -3   4  -2    4.42    0.10
  -3   4  -2    4.45    0.09
   3  -4   2    4.32    0.09
   3  -4   2    4.28    0.09
  -4   4  -2    4.97    0.12
  -4   4  -2    5.14    0.12
   4  -4   2    4.96    0.12
  -5   4  -2    0.57    0.05
  -5   4  -2    0.72    0.05
   5  -4   2    0.58    0.05
  -6   4  -2    3.21    0.11
  -6   4  -2    3.18    0.12
   6  -4   2    3.32    0.11
  -7   4  -2    0.69    0.07
   7  -4   2    0.71    0.07
   8  -4   2    2.62    0.12
  -9  -3   2    2.90    0.15
   8   3  -2   10.44    0.24
  -8  -3   2   10.23    0.29
   7   3  -2    0.32    0.06
   7   3  -2    0.39    0.05
  -7  -3   2    0.41    0.07
   6   3  -2    0.01    0.04
   6   3  -2    0.00    0.03
  -6  -3   2    0.09    0.04
  -6  -3   2    0.10    0.05
   5   3  -2    3.14    0.12
   5   3  -2    3.09    0.13
   5   3  -2    3.24    0.09
  -5  -3   2    3.29    0.13
  -5  -3   2    3.38    0.13
  -5  -3   2    3.24    0.12
  -5  -3   2    3.36    0.10
   4   3  -2   28.99    0.52
   4   3  -2   28.97    0.46
   4   3  -2   28.31    0.54
   4   3  -2   28.12    0.52
   4   3  -2   28.29    0.53
  -4  -3   2   28.03    0.48
  -4  -3   2   28.88    0.53
  -4  -3   2   28.26    0.54
  -4  -3   2   28.67    0.52
  -4  -3   2   29.70    0.55
   3   3  -2   19.89    0.38
   3   3  -2   20.39    0.38
   3   3  -2   19.35    0.37
   3   3  -2   20.38    0.39
   3   3  -2   20.68    0.37
   3   3  -2   19.96    0.32
  -3  -3   2   19.68    0.37
  -3  -3   2   20.82    0.39
  -3  -3   2   20.53    0.39
  -3  -3   2   20.05    0.38
  -3  -3   2   20.29    0.34
   2   3  -2  133.34    2.25
   2   3  -2  136.33    2.15
   2   3  -2  135.42    2.17
   2   3  -2  133.55    2.24
  -2  -3   2  133.88    2.13
  -2  -3   2  134.79    2.25
  -2  -3   2  136.90    2.17
  -2  -3   2  135.38    2.03
   1   3  -2   44.83    0.73
   1   3  -2   44.72    0.76
   1   3  -2   43.55    0.73
   1   3  -2   43.79    0.72
  -1  -3   2   43.99    0.72
  -1  -3   2   43.95    0.72
  -1  -3   2   44.19    0.75
   0   3  -2   37.95    0.63
   0   3  -2   37.37    0.61
   0   3  -2   37.79    0.61
   0  -3   2   37.15    0.60
   0  -3   2   37.75    0.60
  -2   3  -2   73.32    1.14
  -2   3  -2   71.20    1.14
   2  -3   2   70.79    1.11
   2  -3   2   70.71    1.11
  -3   3  -2    0.21    0.03
  -3   3  -2    0.20    0.03
  -3   3  -2    0.20    0.03
  -3   3  -2    0.21    0.03
  -3   3  -2    0.19    0.03
   3  -3   2    0.20    0.03
   3  -3   2    0.21    0.02
  -4   3  -2    0.94    0.06
  -4   3  -2    0.97    0.05
  -4   3  -2    0.87    0.05
  -4   3  -2    0.98    0.05
   4  -3   2    0.94    0.05
  -5   3  -2   15.28    0.31
  -5   3  -2   15.43    0.32
   5  -3   2   15.77    0.30
  -6   3  -2    0.84    0.07
  -6   3  -2    0.76    0.07
   6  -3   2    0.79    0.06
  -7   3  -2    0.48    0.06
   7  -3   2    0.41    0.06
   8  -3   2   14.87    0.34
   9   2  -2    0.14    0.05
  -9  -2   2    0.14    0.06
   8   2  -2   10.83    0.24
  -8  -2   2   10.74    0.29
   7   2  -2    1.02    0.07
  -7  -2   2    1.08    0.09
   6   2  -2   30.40    0.52
   6   2  -2   30.37    0.59
   6   2  -2   29.80    0.57
  -6  -2   2   30.38    0.50
  -6  -2   2   29.91    0.60
  -6  -2   2   31.27    0.59
  -6  -2   2   28.85    0.59
   5   2  -2    1.33    0.08
   5   2  -2    1.60    0.09
   5   2  -2    1.47    0.06
   5   2  -2    1.43    0.08
   5   2  -2    1.45    0.09
  -5  -2   2    1.45    0.06
  -5  -2   2    1.46    0.09
  -5  -2   2    1.47    0.08
  -5  -2   2    1.49    0.09
  -5  -2   2    1.58    0.09
   4   2  -2    0.12    0.03
   4   2  -2    0.18    0.04
   4   2  -2    0.13    0.03
   4   2  -2    0.15    0.04
   4   2  -2    0.17    0.04
  -4  -2   2    0.12    0.04
  -4  -2   2    0.16    0.04
  -4  -2   2    0.12    0.03
  -4  -2   2    0.09    0.04
  -4  -2   2    0.14    0.04
   3   2  -2   77.46    1.34
   3   2  -2   78.88    1.21
   3   2  -2   77.63    1.28
   3   2  -2   79.72    1.30
   3   2  -2   79.22    1.28
  -3  -2   2   78.58    1.28
  -3  -2   2   81.53    1.30
  -3  -2   2   78.22    1.21
  -3  -2   2   77.62    1.35
  -3  -2   2   80.53    1.35
   2   2  -2    9.10    0.19
   2   2  -2    9.38    0.15
   2   2  -2    9.28    0.19
   2   2  -2    8.99    0.18
   2   2  -2    9.41    0.19
   2   2  -2    9.35    0.19
   2   2  -2    9.37    0.18
  -2  -2   2    9.10    0.16
  -2  -2   2    9.38    0.19
  -2  -2   2    9.18    0.19
  -2  -2   2    9.02    0.18
  -2  -2   2    9.32    0.19
   1   2  -2  255.62    4.01
   1   2  -2  251.05    4.13
   1   2  -2  243.49    3.96
   1   2  -2  252.41    4.17
   1   2  -2  246.37    3.98
  -1  -2   2  246.90    4.00
  -1  -2   2  249.91    4.15
  -1  -2   2  246.00    3.92
  -1  -2   2  241.57    3.92
   0   2  -2    2.08    0.05
   0   2  -2    2.11    0.05
   0   2  -2    2.05    0.05
   0  -2   2    2.15    0.05
   0  -2   2    2.12    0.05
  -2   2  -2  122.91    1.92
  -2   2  -2  122.63    1.92
  -2   2  -2  122.48    1.94
  -2   2  -2  124.30    1.94
  -2   2  -2  122.67    2.02
   2  -2   2  123.29    1.91
   2  -2   2  119.04    1.91
  -3   2  -2   29.38    0.50
  -3   2  -2   29.01    0.49
  -3   2  -2   28.86    0.48
  -3   2  -2   28.66    0.49
  -3   2  -2   28.69    0.48
   3  -2   2   28.98    0.48
   3  -2   2   28.70    0.48
  -4   2  -2   72.64    1.19
  -4   2  -2   72.12    1.17
  -4   2  -2   70.48    1.17
  -4   2  -2   72.20    1.23
  -4   2  -2   72.01    1.19
   4  -2   2   73.24    1.17
   4  -2   2   73.20    1.17
  -5   2  -2    2.23    0.09
  -5   2  -2    2.22    0.09
  -5   2  -2    2.23    0.09
   5  -2   2    2.15    0.09
  -6   2  -2    4.31    0.15
  -6   2  -2    4.59    0.15
   6  -2   2    4.53    0.10
   6  -2   2    4.50    0.14
  -7   2  -2   10.02    0.26
  -7   2  -2   10.27    0.27
   7  -2   2    9.94    0.25
   7  -2   2   10.24    0.21
  -8   2  -2    3.04    0.14
   8  -2   2    2.92    0.13
   8  -2   2    3.03    0.11
   9  -2   2    1.54    0.09
   9  -2   2    1.65    0.11
   9   1  -2    5.73    0.17
  -9  -1   2    5.53    0.18
   8   1  -2    0.78    0.07
   8   1  -2    0.84    0.09
  -8  -1   2    0.95    0.10
  -8  -1   2    0.85    0.08
   7   1  -2   34.92    0.67
   7   1  -2   35.65    0.61
  -7  -1   2   35.58    0.69
  -7  -1   2   35.53    0.71
  -7  -1   2   35.89    0.68
   6   1  -2    9.55    0.24
   6   1  -2    9.51    0.20
  -6  -1   2    9.48    0.25
  -6  -1   2    9.88    0.26
  -6  -1   2    9.50    0.24
   5   1  -2    8.03    0.17
   5   1  -2    7.83    0.20
   5   1  -2    8.02    0.20
  -5  -1   2    8.12    0.20
  -5  -1   2    7.96    0.21
  -5  -1   2    8.06    0.21
  -5  -1   2    8.19    0.16
   4   1  -2    1.07    0.05
   4   1  -2    1.13    0.07
   4   1  -2    1.15    0.07
   4   1  -2    1.13    0.07
   4   1  -2    1.00    0.06
  -4  -1   2    1.13    0.06
  -4  -1   2    1.12    0.05
  -4  -1   2    0.99    0.06
  -4  -1   2    1.07    0.07
  -4  -1   2    1.05    0.06
   3   1  -2  113.90    1.81
   3   1  -2  113.58    1.73
   3   1  -2  115.01    1.85
   3   1  -2  115.43    1.91
   3   1  -2  116.40    1.83
  -3  -1   2  111.07    1.85
  -3  -1   2  113.39    1.73
  -3  -1   2  114.75    1.81
  -3  -1   2  117.74    1.92
  -3  -1   2  108.08    1.91
   2   1  -2   38.94    0.61
   2   1  -2   38.93    0.64
   2   1  -2   39.85    0.66
   2   1  -2   39.49    0.65
   2   1  -2   40.18    0.68
  -2  -1   2   37.83    0.68
  -2  -1   2   40.13    0.65
  -2  -1   2   38.97    0.61
  -2  -1   2   39.05    0.68
  -2  -1   2   39.31    0.66
   1   1  -2  345.09    5.61
   1   1  -2  342.40    5.54
   1   1  -2  358.34    5.81
   1   1  -2  336.24    5.60
   1   1  -2  347.03    5.80
  -1  -1   2  346.45    6.02
  -1  -1   2  355.11    5.26
  -1  -1   2  362.32    5.61
  -1  -1   2  340.18    5.50
   0   1  -2   61.56    1.03
   0   1  -2   62.28    0.98
   0   1  -2   62.96    0.99
   0   1  -2   61.97    1.00
   0  -1   2   61.76    0.97
   0  -1   2   62.54    0.97
   0  -1   2   62.31    0.99
  -1   1  -2  213.63    3.40
  -1   1  -2  215.07    3.33
  -1   1  -2  211.50    3.39
  -1   1  -2  205.38    3.33
   1  -1   2  210.16    3.33
   1  -1   2  222.31    3.33
  -2   1  -2    1.82    0.05
  -2   1  -2    1.78    0.05
  -2   1  -2    1.87    0.05
  -2   1  -2    1.82    0.05
  -2   1  -2    1.79    0.05
   2  -1   2    1.93    0.05
   2  -1   2    1.82    0.05
  -3   1  -2   -0.01    0.02
  -3   1  -2   -0.03    0.02
  -3   1  -2   -0.05    0.02
  -3   1  -2   -0.06    0.02
  -3   1  -2   -0.05    0.02
   3  -1   2   -0.02    0.02
   3  -1   2    0.00    0.02
  -4   1  -2    1.11    0.06
  -4   1  -2    0.87    0.06
  -4   1  -2    0.89    0.06
  -4   1  -2    0.76    0.06
  -4   1  -2    0.80    0.06
   4  -1   2    0.95    0.03
   4  -1   2    0.93    0.05
   4  -1   2    0.92    0.05
  -5   1  -2   10.85    0.24
  -5   1  -2   10.90    0.24
  -5   1  -2   10.69    0.25
   5  -1   2   11.08    0.23
   5  -1   2   11.16    0.20
  -6   1  -2    1.48    0.09
  -6   1  -2    1.62    0.09
  -6   1  -2    1.41    0.09
   6  -1   2    1.50    0.06
   6  -1   2    1.61    0.08
  -7   1  -2    4.94    0.17
  -7   1  -2    4.99    0.17
   7  -1   2    4.96    0.13
   7  -1   2    5.20    0.17
  -8   1  -2    9.60    0.26
   8  -1   2    9.63    0.26
   8  -1   2    9.45    0.22
   9  -1   2    4.28    0.14
   9  -1   2    4.24    0.17
   9   0  -2   15.18    0.38
   9   0  -2   14.16    0.32
  -9   0   2   15.03    0.33
  -9   0   2   15.00    0.39
   8   0  -2    1.38    0.08
   8   0  -2    1.66    0.11
  -8   0   2    1.68    0.11
  -8   0   2    1.43    0.11
  -8   0   2    1.54    0.09
   7   0  -2   14.73    0.30
   7   0  -2   14.96    0.34
  -7   0   2   14.82    0.35
  -7   0   2   15.31    0.33
  -7   0   2   14.66    0.36
   6   0  -2    3.03    0.12
   6   0  -2    2.86    0.10
  -6   0   2    2.83    0.11
  -6   0   2    2.85    0.12
  -6   0   2    2.70    0.12
   5   0  -2    9.81    0.23
   5   0  -2   10.19    0.23
   5   0  -2    9.68    0.20
  -5   0   2    9.60    0.23
  -5   0   2    9.71    0.24
  -5   0   2   10.29    0.23
   4   0  -2    1.34    0.07
   4   0  -2    1.36    0.05
   4   0  -2    1.34    0.07
   4   0  -2    1.34    0.07
   4   0  -2    1.36    0.07
  -4   0   2    1.46    0.07
  -4   0   2    1.35    0.04
  -4   0   2    1.40    0.07
  -4   0   2    1.40    0.07
  -4   0   2    1.40    0.07
   3   0  -2    7.54    0.16
   3   0  -2    7.49    0.17
   3   0  -2    7.39    0.17
   3   0  -2    7.44    0.14
   3   0  -2    7.59    0.16
  -3   0   2    7.82    0.13
  -3   0   2    7.72    0.16
  -3   0   2    7.63    0.17
  -3   0   2    7.22    0.16
  -3   0   2    7.18    0.17
   2   0  -2   61.75    0.98
   2   0  -2   60.42    0.98
   2   0  -2   60.84    1.03
   2   0  -2   60.87    1.00
   2   0  -2   57.94    0.93
   2   0  -2   61.14    1.03
  -2   0   2   61.17    0.98
  -2   0   2   62.08    1.00
  -2   0   2   59.74    1.00
  -2   0   2   61.66    1.03
  -2   0   2   62.34    0.93
  -2   0   2   60.17    1.03
   1   0  -2   64.21    0.96
   1   0  -2   64.48    1.06
   1   0  -2   62.79    1.01
   1   0  -2   65.76    1.01
   1   0  -2   61.80    1.02
   1   0  -2   64.89    1.06
   1   0  -2   63.93    1.02
  -1   0   2   62.69    1.02
  -1   0   2   63.40    1.01
  -1   0   2   63.27    0.97
  -1   0   2   63.91    1.03
  -1   0   2   61.77    1.06
   0   0  -2   -0.05    0.01
   0   0  -2   -0.01    0.01
   0   0  -2   -0.02    0.01
   0   0  -2   -0.02    0.01
   0   0  -2   -0.04    0.01
   0   0   2   -0.01    0.01
   0   0   2    0.00    0.01
   0   0   2   -0.02    0.01
  -1   0  -2  175.97    2.94
  -1   0  -2  182.19    2.90
  -1   0  -2  188.70    3.04
   1   0   2  184.70    2.92
   1   0   2  183.16    2.88
   1   0   2  176.22    2.88
  -2   0  -2  200.49    3.33
  -2   0  -2  201.09    3.41
  -2   0  -2  204.74    3.23
  -2   0  -2  206.74    3.42
   2   0   2  203.98    3.29
   2   0   2  197.49    3.23
   2   0   2  209.34    3.25
   2   0   2  212.03    3.08
   2   0   2  206.60    3.21
  -3   0  -2   38.36    0.67
  -3   0  -2   40.79    0.69
  -3   0  -2   39.44    0.65
  -3   0  -2   38.98    0.66
   3   0   2   39.39    0.66
   3   0   2   39.64    0.61
   3   0   2   39.35    0.65
   3   0   2   38.79    0.65
  -4   0  -2    8.63    0.19
  -4   0  -2    8.40    0.19
  -4   0  -2    8.41    0.18
  -4   0  -2    8.33    0.18
  -4   0  -2    8.56    0.20
   4   0   2    8.43    0.18
   4   0   2    8.59    0.18
   4   0   2    8.26    0.16
  -5   0  -2   27.25    0.50
  -5   0  -2   27.77    0.53
  -5   0  -2   27.72    0.51
  -5   0  -2   27.53    0.50
   5   0   2   28.03    0.50
   5   0   2   27.13    0.45
  -6   0  -2    3.26    0.13
  -6   0  -2    3.37    0.13
  -6   0  -2    3.36    0.10
  -6   0  -2    3.49    0.13
   6   0   2    3.43    0.12
   6   0   2    3.29    0.10
  -7   0  -2    1.30    0.09
  -7   0  -2    1.26    0.07
  -7   0  -2    1.27    0.10
   7   0   2    1.19    0.09
   7   0   2    1.24    0.07
  -8   0  -2    0.16    0.06
  -8   0  -2    0.08    0.06
  -8   0  -2    0.08    0.03
   8   0   2    0.05    0.04
   8   0   2    0.05    0.05
  -9   0  -2    1.39    0.13
   9   0   2    1.55    0.11
   9   0   2    1.29    0.09
   9  -1  -2    0.38    0.06
   9  -1  -2    0.40    0.07
  -9   1   2    0.46    0.09
   8  -1  -2    6.25    0.21
   8  -1  -2    6.50    0.17
  -8   1   2    6.96    0.23
  -8   1   2    6.42    0.16
  -8   1   2    6.70    0.22
   7  -1  -2   18.27    0.35
   7  -1  -2   17.76    0.39
  -7   1   2   18.19    0.40
  -7   1   2   18.40    0.36
  -7   1   2   18.30    0.42
   6  -1  -2   10.81    0.22
   6  -1  -2   11.15    0.26
  -6   1   2   10.59    0.26
  -6   1   2   11.18    0.27
  -6   1   2   10.62    0.23
   5  -1  -2    1.43    0.06
   5  -1  -2    1.36    0.07
  -5   1   2    1.36    0.07
  -5   1   2    1.36    0.08
  -5   1   2    1.24    0.08
   4  -1  -2    0.15    0.03
   4  -1  -2    0.13    0.03
   4  -1  -2    0.17    0.03
   4  -1  -2    0.17    0.04
   4  -1  -2    0.14    0.02
  -4   1   2    0.17    0.04
  -4   1   2    0.15    0.04
  -4   1   2    0.20    0.03
  -4   1   2    0.15    0.04
   3  -1  -2    4.12    0.10
   3  -1  -2    4.20    0.11
   3  -1  -2    4.21    0.11
   3  -1  -2    4.13    0.09
  -3   1   2    4.20    0.11
  -3   1   2    4.27    0.11
  -3   1   2    4.21    0.11
  -3   1   2    4.26    0.11
  -3   1   2    4.25    0.10
   2  -1  -2    6.89    0.14
   2  -1  -2    6.90    0.12
   2  -1  -2    6.80    0.14
   2  -1  -2    7.10    0.14
  -2   1   2    6.59    0.14
  -2   1   2    6.77    0.14
  -2   1   2    6.86    0.15
   1  -1  -2   83.04    1.22
   1  -1  -2   78.69    1.27
   1  -1  -2   81.38    1.30
   1  -1  -2   80.17    1.34
   1  -1  -2   82.41    1.28
  -1   1   2   78.41    1.30
  -1   1   2   81.55    1.36
  -1   1   2   80.65    1.35
   0  -1  -2   92.54    1.51
   0  -1  -2   96.38    1.44
   0  -1  -2   95.60    1.55
   0  -1  -2   92.50    1.59
   0  -1  -2   97.67    1.49
   0   1   2   97.17    1.49
   0   1   2   90.79    1.51
   0   1   2   96.39    1.56
   0   1   2   92.68    1.52
   0   1   2   91.58    1.48
  -1  -1  -2   21.39    0.37
  -1  -1  -2   21.42    0.37
  -1  -1  -2   21.55    0.34
  -1  -1  -2   21.93    0.36
  -1  -1  -2   21.86    0.38
  -1  -1  -2   22.17    0.38
   1   1   2   21.65    0.34
   1   1   2   22.81    0.38
   1   1   2   22.43    0.36
   1   1   2   20.66    0.37
   1   1   2   22.41    0.37
  -2  -1  -2  107.20    1.80
  -2  -1  -2  105.67    1.74
  -2  -1  -2  109.70    1.71
  -2  -1  -2  109.46    1.63
  -2  -1  -2  106.25    1.72
  -2  -1  -2  110.13    1.80
  -2  -1  -2  105.38    1.74
   2   1   2  106.77    1.74
   2   1   2  110.10    1.71
   2   1   2  105.71    1.63
   2   1   2  110.27    1.72
   2   1   2  111.67    1.80
  -3  -1  -2   11.60    0.24
  -3  -1  -2   11.82    0.25
  -3  -1  -2   12.01    0.23
  -3  -1  -2   12.14    0.24
  -3  -1  -2   12.09    0.24
  -3  -1  -2   12.15    0.20
   3   1   2   12.13    0.21
   3   1   2   12.69    0.24
   3   1   2   12.23    0.24
   3   1   2   12.37    0.23
   3   1   2   11.93    0.23
  -4  -1  -2   20.73    0.41
  -4  -1  -2   21.01    0.39
  -4  -1  -2   20.99    0.40
  -4  -1  -2   21.37    0.39
  -4  -1  -2   20.78    0.40
   4   1   2   21.28    0.36
   4   1   2   21.62    0.39
   4   1   2   21.89    0.40
   4   1   2   21.43    0.40
   4   1   2   21.51    0.39
  -5  -1  -2    0.08    0.04
  -5  -1  -2    0.06    0.04
  -5  -1  -2    0.10    0.04
  -5  -1  -2    0.08    0.03
   5   1   2    0.04    0.03
   5   1   2    0.06    0.03
   5   1   2    0.05    0.04
  -6  -1  -2    2.17    0.11
  -6  -1  -2    2.24    0.10
  -6  -1  -2    2.07    0.11
  -6  -1  -2    2.31    0.11
   6   1   2    2.06    0.10
   6   1   2    2.17    0.08
  -7  -1  -2    1.43    0.10
  -7  -1  -2    1.30    0.10
  -7  -1  -2    1.39    0.08
   7   1   2    1.33    0.09
   7   1   2    1.14    0.07
  -8  -1  -2    0.39    0.06
  -8  -1  -2    0.53    0.08
  -8  -1  -2    0.31    0.07
   8   1   2    0.50    0.06
   8   1   2    0.44    0.07
  -9  -1  -2    3.34    0.16
  -9  -1  -2    3.10    0.12
   9   1   2    3.24    0.15
   9   1   2    3.05    0.12
   9  -2  -2   -0.02    0.04
   9  -2  -2    0.04    0.05
   8  -2  -2   35.49    0.62
   8  -2  -2   35.72    0.69
  -8   2   2   35.94    0.70
   7  -2  -2    8.27    0.23
   7  -2  -2    8.34    0.19
  -7   2   2    8.39    0.24
  -7   2   2    8.07    0.23
   6  -2  -2   53.90    0.86
   6  -2  -2   54.24    0.93
  -6   2   2   53.67    0.99
  -6   2   2   53.94    0.95
   5  -2  -2    0.16    0.04
   5  -2  -2    0.22    0.03
  -5   2   2    0.16    0.02
  -5   2   2    0.11    0.04
  -5   2   2    0.20    0.02
  -5   2   2    0.14    0.05
   4  -2  -2   35.47    0.55
   4  -2  -2   35.17    0.61
  -4   2   2   35.37    0.62
  -4   2   2   34.70    0.62
  -4   2   2   35.99    0.60
  -4   2   2   35.80    0.64
  -4   2   2   35.02    0.60
   3  -2  -2   12.67    0.24
   3  -2  -2   12.61    0.24
  -3   2   2   12.36    0.22
  -3   2   2   12.60    0.25
  -3   2   2   12.58    0.24
  -3   2   2   12.38    0.24
  -3   2   2   12.45    0.24
   2  -2  -2   51.39    0.84
   2  -2  -2   53.13    0.85
   2  -2  -2   51.28    0.84
  -2   2   2   52.28    0.86
  -2   2   2   52.27    0.86
  -2   2   2   52.15    0.89
  -2   2   2   52.93    0.87
  -2   2   2   52.01    0.86
  -2   2   2   52.47    0.84
   1  -2  -2    9.14    0.17
   1  -2  -2    9.30    0.17
   1  -2  -2    8.91    0.17
  -1   2   2    9.28    0.17
  -1   2   2    9.35    0.16
  -1   2   2    8.97    0.17
  -1   2   2    9.08    0.18
  -1   2   2    9.19    0.17
  -1   2   2    9.03    0.16
   0  -2  -2  168.54    2.74
   0  -2  -2  171.50    2.84
   0  -2  -2  171.35    2.68
   0  -2  -2  171.53    2.70
   0  -2  -2  172.55    2.70
   0   2   2  169.13    2.77
   0   2   2  169.66    2.84
  -1  -2  -2   16.26    0.28
  -1  -2  -2   16.19    0.28
  -1  -2  -2   15.87    0.30
  -1  -2  -2   16.73    0.29
  -1  -2  -2   16.04    0.26
   1   2   2   16.18    0.25
   1   2   2   16.18    0.29
   1   2   2   16.61    0.28
   1   2   2   15.78    0.29
   1   2   2   16.21    0.29
   1   2   2   16.73    0.29
  -2  -2  -2    0.58    0.04
  -2  -2  -2    0.44    0.04
  -2  -2  -2    0.48    0.04
  -2  -2  -2    0.53    0.03
  -2  -2  -2    0.47    0.04
  -2  -2  -2    0.50    0.04
   2   2   2    0.42    0.04
   2   2   2    0.47    0.03
   2   2   2    0.46    0.04
   2   2   2    0.53    0.05
   2   2   2    0.45    0.04
   2   2   2    0.44    0.04
  -3  -2  -2   39.44    0.67
  -3  -2  -2   39.06    0.69
  -3  -2  -2   38.82    0.66
  -3  -2  -2   38.16    0.66
  -3  -2  -2   37.95    0.69
  -3  -2  -2   38.53    0.61
   3   2   2   38.66    0.66
   3   2   2   39.01    0.61
   3   2   2   39.94    0.67
   3   2   2   39.17    0.69
   3   2   2   39.03    0.66
  -4  -2  -2   33.38    0.60
  -4  -2  -2   34.19    0.60
  -4  -2  -2   33.67    0.63
  -4  -2  -2   33.63    0.62
  -4  -2  -2   33.78    0.61
  -4  -2  -2   34.54    0.55
   4   2   2   34.73    0.61
   4   2   2   34.86    0.56
   4   2   2   34.88    0.60
   4   2   2   34.37    0.60
   4   2   2   35.36    0.63
  -5  -2  -2    0.26    0.05
  -5  -2  -2    0.27    0.05
  -5  -2  -2    0.21    0.05
   5   2   2    0.31    0.05
   5   2   2    0.23    0.05
   5   2   2    0.36    0.05
   5   2   2    0.24    0.04
  -6  -2  -2   17.98    0.38
  -6  -2  -2   17.56    0.39
  -6  -2  -2   17.37    0.37
  -6  -2  -2   17.70    0.38
   6   2   2   18.09    0.37
   6   2   2   17.52    0.33
  -7  -2  -2    0.65    0.08
  -7  -2  -2    0.53    0.07
  -7  -2  -2    0.65    0.08
   7   2   2    0.64    0.08
   7   2   2    0.56    0.06
  -8  -2  -2   10.29    0.27
  -8  -2  -2   10.41    0.29
   8   2   2   10.73    0.28
   8   2   2    9.95    0.24
  -9  -2  -2    0.10    0.05
   9   2   2    0.06    0.05
   8  -3  -2    8.67    0.21
   8  -3  -2    8.69    0.25
  -8   3   2    8.68    0.26
   7  -3  -2   12.60    0.25
   7  -3  -2   11.76    0.29
  -7   3   2   12.14    0.31
  -7   3   2   12.24    0.30
   6  -3  -2    9.90    0.23
   6  -3  -2    9.43    0.19
  -6   3   2    9.42    0.24
  -6   3   2    9.13    0.24
   5  -3  -2    4.76    0.14
   5  -3  -2    4.81    0.10
  -5   3   2    4.56    0.15
  -5   3   2    4.93    0.15
   4  -3  -2    9.32    0.20
  -4   3   2    9.50    0.21
  -4   3   2    9.53    0.21
   3  -3  -2   16.51    0.30
   3  -3  -2   16.60    0.30
  -3   3   2   16.56    0.31
  -3   3   2   16.45    0.30
  -3   3   2   16.53    0.31
  -3   3   2   16.86    0.32
   2  -3  -2    0.81    0.04
   2  -3  -2    0.87    0.04
  -2   3   2    0.83    0.04
  -2   3   2    0.85    0.05
  -2   3   2    0.90    0.05
  -2   3   2    0.84    0.05
   1  -3  -2   10.81    0.19
   1  -3  -2    9.86    0.19
  -1   3   2   10.31    0.20
  -1   3   2   10.17    0.19
  -1   3   2   10.60    0.20
  -1   3   2   10.18    0.19
   0  -3  -2    1.07    0.04
   0  -3  -2    1.05    0.04
   0  -3  -2    0.99    0.04
   0  -3  -2    1.02    0.04
   0   3   2    1.05    0.05
   0   3   2    1.05    0.03
   0   3   2    1.09    0.04
   0   3   2    0.98    0.03
   0   3   2    0.97    0.04
   0   3   2    1.05    0.04
  -1  -3  -2    2.23    0.07
  -1  -3  -2    2.04    0.06
  -1  -3  -2    2.18    0.07
  -1  -3  -2    2.08    0.07
  -1  -3  -2    2.11    0.05
   1   3   2    2.07    0.06
   1   3   2    2.08    0.07
   1   3   2    1.95    0.07
  -2  -3  -2   13.32    0.26
  -2  -3  -2   13.40    0.27
  -2  -3  -2   13.41    0.23
  -2  -3  -2   13.88    0.26
  -2  -3  -2   14.04    0.27
  -2  -3  -2   13.86    0.27
   2   3   2   13.57    0.27
   2   3   2   13.64    0.27
   2   3   2   13.77    0.27
   2   3   2   13.90    0.22
   2   3   2   13.74    0.26
   2   3   2   14.47    0.27
  -3  -3  -2   20.70    0.35
  -3  -3  -2   20.56    0.38
  -3  -3  -2   20.08    0.38
  -3  -3  -2   20.75    0.38
  -3  -3  -2   20.32    0.40
  -3  -3  -2   20.83    0.39
   3   3   2   20.75    0.38
   3   3   2   20.59    0.34
   3   3   2   21.08    0.39
   3   3   2   20.29    0.38
   3   3   2   19.72    0.37
  -4  -3  -2    0.12    0.04
  -4  -3  -2    0.24    0.05
  -4  -3  -2    0.15    0.04
  -4  -3  -2    0.34    0.05
  -4  -3  -2    0.20    0.05
  -4  -3  -2    0.17    0.03
   4   3   2    0.16    0.05
   4   3   2    0.16    0.04
   4   3   2    0.24    0.03
   4   3   2    0.23    0.05
   4   3   2    0.22    0.04
  -5  -3  -2  115.96    1.98
  -5  -3  -2  114.93    1.77
  -5  -3  -2  113.92    1.88
  -5  -3  -2  115.76    1.87
  -5  -3  -2  115.12    1.91
  -5  -3  -2  112.51    1.97
   5   3   2  116.39    1.97
   5   3   2  116.15    1.91
   5   3   2  114.09    1.87
   5   3   2  116.39    1.77
   5   3   2  115.45    1.88
  -6  -3  -2    0.20    0.06
  -6  -3  -2    0.26    0.06
  -6  -3  -2    0.21    0.06
   6   3   2    0.21    0.05
   6   3   2    0.20    0.06
   6   3   2    0.23    0.04
  -7  -3  -2    0.04    0.05
   7   3   2    0.04    0.04
  -8  -3  -2    4.81    0.18
   8   3   2    4.85    0.15
  -9  -3  -2    0.03    0.05
   9   3   2   -0.02    0.04
   8  -4  -2    4.33    0.13
   8  -4  -2    4.25    0.16
   7  -4  -2    0.30    0.06
   7  -4  -2    0.35    0.05
  -7   4   2    0.25    0.06
   6  -4  -2    2.57    0.11
  -6   4   2    2.43    0.11
  -6   4   2    2.54    0.11
   5  -4  -2   37.34    0.65
  -5   4   2   37.28    0.69
  -5   4   2   36.38    0.66
   4  -4  -2    0.33    0.04
  -4   4   2    0.33    0.04
  -4   4   2    0.24    0.04
   3  -4  -2   94.42    1.53
   3  -4  -2   96.16    1.53
  -3   4   2   96.62    1.54
  -3   4   2   97.36    1.56
  -3   4   2   95.16    1.56
  -3   4   2   95.82    1.62
   2  -4  -2   42.32    0.70
   2  -4  -2   42.27    0.70
  -2   4   2   43.46    0.72
  -2   4   2   42.88    0.70
  -2   4   2   42.37    0.74
  -2   4   2   43.18    0.71
   1  -4  -2  126.23    1.95
   1  -4  -2  122.05    1.95
  -1   4   2  123.87    2.07
  -1   4   2  122.98    1.99
  -1   4   2  125.31    1.99
  -1   4   2  125.49    1.97
   0  -4  -2    1.99    0.06
   0  -4  -2    1.93    0.06
   0   4   2    2.00    0.07
   0   4   2    1.95    0.07
   0   4   2    1.98    0.07
   0   4   2    1.91    0.06
  -1  -4  -2    1.14    0.05
  -1  -4  -2    1.05    0.03
  -1  -4  -2    0.99    0.05
  -1  -4  -2    1.09    0.05
  -1  -4  -2    0.97    0.05
   1   4   2    1.05    0.05
   1   4   2    1.01    0.06
   1   4   2    1.07    0.05
   1   4   2    1.05    0.05
   1   4   2    0.91    0.05
   1   4   2    1.01    0.04
   1   4   2    1.02    0.04
  -2  -4  -2    2.95    0.09
  -2  -4  -2    3.22    0.10
  -2  -4  -2    3.08    0.09
  -2  -4  -2    3.31    0.10
  -2  -4  -2    3.25    0.10
  -2  -4  -2    3.31    0.08
   2   4   2    3.21    0.10
   2   4   2    3.36    0.10
   2   4   2    3.21    0.10
   2   4   2    3.24    0.09
  -3  -4  -2   11.82    0.25
  -3  -4  -2   11.30    0.25
  -3  -4  -2   11.67    0.24
  -3  -4  -2   11.69    0.22
  -3  -4  -2   11.69    0.25
  -3  -4  -2   12.12    0.26
   3   4   2   11.96    0.20
   3   4   2   12.06    0.24
   3   4   2   11.94    0.25
   3   4   2   11.32    0.25
   3   4   2   11.50    0.25
   3   4   2   11.87    0.26
  -4  -4  -2    1.93    0.09
  -4  -4  -2    2.15    0.10
  -4  -4  -2    1.89    0.08
  -4  -4  -2    2.04    0.09
  -4  -4  -2    2.05    0.09
  -4  -4  -2    1.96    0.09
   4   4   2    2.02    0.09
   4   4   2    2.00    0.06
   4   4   2    2.10    0.09
   4   4   2    1.93    0.09
   4   4   2    1.96    0.09
  -5  -4  -2   61.72    1.10
  -5  -4  -2   60.86    0.98
  -5  -4  -2   61.99    1.05
   5   4   2   60.96    1.10
   5   4   2   60.93    1.07
   5   4   2   63.10    0.97
   5   4   2   60.69    1.05
  -6  -4  -2   36.88    0.72
  -6  -4  -2   38.08    0.62
   6   4   2   37.16    0.62
   6   4   2   36.79    0.71
  -7  -4  -2   19.53    0.44
   7   4   2   19.99    0.37
   7   4   2   19.62    0.44
  -8  -4  -2    1.15    0.10
   8   4   2    1.46    0.08
  -9  -4  -2   11.53    0.32
   7  -5  -2    0.16    0.05
   6  -5  -2    6.00    0.17
  -6   5   2    5.95    0.17
   5  -5  -2    3.06    0.11
  -5   5   2    2.93    0.11
  -5   5   2    2.85    0.11
   4  -5  -2    5.26    0.14
  -4   5   2    4.93    0.14
  -4   5   2    4.98    0.14
   3  -5  -2    5.49    0.13
  -3   5   2    5.29    0.14
  -3   5   2    5.05    0.13
   2  -5  -2    3.16    0.09
   2  -5  -2    3.24    0.09
  -2   5   2    3.35    0.09
  -2   5   2    3.06    0.09
  -2   5   2    3.13    0.09
  -2   5   2    3.15    0.09
   1  -5  -2    0.68    0.04
   1  -5  -2    0.74    0.04
  -1   5   2    0.78    0.05
  -1   5   2    0.77    0.05
  -1   5   2    0.69    0.05
  -1   5   2    0.69    0.05
   0  -5  -2    5.98    0.13
   0  -5  -2    6.25    0.14
   0   5   2    6.23    0.14
   0   5   2    6.13    0.14
   0   5   2    6.30    0.14
   0   5   2    6.21    0.14
  -1  -5  -2    3.08    0.09
   1   5   2    3.03    0.09
   1   5   2    2.82    0.09
   1   5   2    3.03    0.10
   1   5   2    3.06    0.09
  -2  -5  -2    0.38    0.05
  -2  -5  -2    0.37    0.04
  -2  -5  -2    0.42    0.03
   2   5   2    0.47    0.05
   2   5   2    0.42    0.04
   2   5   2    0.31    0.04
   2   5   2    0.43    0.04
  -3  -5  -2    0.19    0.04
  -3  -5  -2    0.24    0.04
   3   5   2    0.12    0.04
   3   5   2    0.17    0.04
   3   5   2    0.14    0.04
  -4  -5  -2   42.85    0.76
  -4  -5  -2   42.65    0.70
  -4  -5  -2   42.61    0.79
   4   5   2   42.85    0.78
   4   5   2   43.27    0.77
   4   5   2   42.94    0.76
  -5  -5  -2   16.87    0.32
  -5  -5  -2   16.38    0.36
  -5  -5  -2   16.22    0.37
   5   5   2   16.78    0.36
   5   5   2   15.94    0.36
   5   5   2   16.51    0.36
  -6  -5  -2    0.60    0.06
  -6  -5  -2    0.56    0.07
   6   5   2    0.46    0.07
  -7  -5  -2    2.37    0.14
  -7  -5  -2    2.56    0.10
   7   5   2    2.52    0.13
  -8  -5  -2    7.45    0.25
   8   5   2    7.76    0.25
  -9  -5  -2    1.20    0.12
   9   5   2    1.05    0.11
   7  -6  -2    0.05    0.05
   6  -6  -2    0.87    0.07
  -6   6   2    0.60    0.07
   5  -6  -2    3.42    0.12
  -5   6   2    3.53    0.13
  -5   6   2    3.34    0.12
   4  -6  -2    2.94    0.10
  -4   6   2    2.99    0.10
  -4   6   2    2.90    0.10
   3  -6  -2    8.23    0.18
  -3   6   2    7.97    0.19
  -3   6   2    8.25    0.18
   2  -6  -2   26.47    0.46
  -2   6   2   26.61    0.47
  -2   6   2   25.94    0.48
   1  -6  -2    0.07    0.03
  -1   6   2    0.09    0.03
   0  -6  -2   24.04    0.43
   0   6   2   24.46    0.44
   1   6   2    4.73    0.13
  -2  -6  -2    4.97    0.11
  -2  -6  -2    5.01    0.14
   2   6   2    4.92    0.10
   2   6   2    5.08    0.10
   2   6   2    5.08    0.15
  -3  -6  -2    1.57    0.09
  -3  -6  -2    1.64    0.07
   3   6   2    1.70    0.07
   3   6   2    1.69    0.09
   3   6   2    1.70    0.09
  -4  -6  -2    4.16    0.15
  -4  -6  -2    4.38    0.12
   4   6   2    4.27    0.15
   4   6   2    4.30    0.15
   4   6   2    4.28    0.13
  -5  -6  -2    2.71    0.11
  -5  -6  -2    2.89    0.13
   5   6   2    2.89    0.13
   5   6   2    2.83    0.12
   5   6   2    2.88    0.13
  -6  -6  -2    2.26    0.10
   6   6   2    2.07    0.11
  -7  -6  -2    1.81    0.10
   7   6   2    1.81    0.11
  -8  -6  -2   31.04    0.66
   8   6   2   29.42    0.64
   6  -7  -2    1.17    0.08
   5  -7  -2    0.42    0.05
  -5   7   2    0.55    0.06
   4  -7  -2    0.84    0.06
  -4   7   2    0.83    0.06
  -4   7   2    0.87    0.07
   3  -7  -2    1.25    0.06
  -3   7   2    1.19    0.06
  -3   7   2    1.18    0.07
   2  -7  -2    0.41    0.04
  -2   7   2    0.39    0.04
   1  -7  -2    1.24    0.06
  -1   7   2    1.30    0.07
   0  -7  -2    4.13    0.12
   0   7   2    3.88    0.12
   1   7   2    0.28    0.05
  -2  -7  -2    9.09    0.22
   2   7   2    8.57    0.22
  -3  -7  -2   20.62    0.37
  -3  -7  -2   20.94    0.42
   3   7   2   20.38    0.42
   3   7   2   20.55    0.41
   3   7   2   20.61    0.37
  -4  -7  -2    1.22    0.07
  -4  -7  -2    1.26    0.09
   4   7   2    1.22    0.07
   4   7   2    1.13    0.09
   4   7   2    1.20    0.09
  -5  -7  -2    1.41    0.08
  -5  -7  -2    1.58    0.10
   5   7   2    1.30    0.08
   5   7   2    1.25    0.10
   5   7   2    1.63    0.11
  -6  -7  -2    0.21    0.06
  -6  -7  -2    0.18    0.05
   6   7   2    0.18    0.05
  -7  -7  -2    1.52    0.09
   7   7   2    1.59    0.11
   8   7   2    0.17    0.06
   5  -8  -2    0.68    0.06
   4  -8  -2    0.71    0.06
  -4   8   2    0.60    0.06
   3  -8  -2   23.46    0.43
  -3   8   2   23.84    0.44
   2  -8  -2    2.68    0.09
  -2   8   2    2.62    0.09
   1  -8  -2    1.47    0.07
  -1   8   2    1.47    0.07
   0   8   2    0.72    0.07
  -1  -8  -2    3.24    0.12
   1   8   2    3.27    0.12
  -2  -8  -2    1.75    0.07
  -2  -8  -2    1.58    0.09
   2   8   2    1.80    0.10
  -3  -8  -2    1.92    0.11
  -3  -8  -2    1.95    0.09
   3   8   2    2.12    0.11
   3   8   2    2.09    0.11
  -4  -8  -2    2.56    0.10
  -4  -8  -2    2.50    0.12
   4   8   2    2.52    0.08
   4   8   2    2.45    0.13
   4   8   2    2.44    0.13
  -5  -8  -2    0.04    0.05
  -5  -8  -2   -0.09    0.04
   5   8   2   -0.08    0.05
   5   8   2   -0.02    0.03
   5   8   2    0.05    0.06
  -6  -8  -2    1.39    0.09
  -6  -8  -2    1.30    0.12
   6   8   2    1.24    0.09
   6   8   2    1.53    0.12
  -7  -8  -2    2.11    0.11
   7   8   2    2.14    0.12
   3  -9  -2    0.11    0.04
   2  -9  -2    0.16    0.04
  -2   9   2    0.15    0.04
  -1   9   2    0.40    0.05
   0  -9  -2    4.49    0.14
   0   9   2    4.28    0.14
  -1  -9  -2    2.45    0.11
   1   9   2    2.63    0.11
  -2  -9  -2    0.74    0.06
  -2  -9  -2    0.71    0.07
   2   9   2    0.66    0.07
   2   9   2    0.71    0.08
  -3  -9  -2    3.21    0.11
  -3  -9  -2    3.25    0.14
   3   9   2    3.42    0.14
   3   9   2    3.24    0.14
  -4  -9  -2    0.18    0.05
  -4  -9  -2    0.21    0.06
   4   9   2    0.19    0.06
   4   9   2    0.15    0.07
  -5  -9  -2    3.99    0.17
  -5  -9  -2    3.85    0.14
   5   9   2    3.93    0.17
   5   9   2    3.83    0.17
  -6  -9  -2    0.34    0.07
  -6  -9  -2    0.49    0.07
   6   9   2    0.33    0.08
   6   9   2    0.41    0.05
   6   9   2    0.41    0.08
   1 -10  -2    0.96    0.07
   0 -10  -2    3.97    0.14
  -1 -10  -2    0.49    0.06
  -2 -10  -2    0.50    0.07
   2  10   2    0.27    0.07
  -3 -10  -2   17.05    0.39
  -3 -10  -2   16.96    0.34
   3  10   2   17.21    0.39
  -4 -10  -2    1.04    0.10
  -4 -10  -2    1.03    0.08
   4  10   2    1.11    0.11
  -2 -10   3    0.03    0.05
  -1 -10   3    0.53    0.06
   5   9  -3   -0.02    0.07
  -5  -9   3    0.03    0.06
  -5  -9   3   -0.03    0.05
   4   9  -3    5.36    0.19
  -4  -9   3    5.10    0.18
  -4  -9   3    5.09    0.15
   3   9  -3    0.70    0.08
  -3  -9   3    0.69    0.08
   2   9  -3    1.57    0.09
   2   9  -3    1.54    0.10
  -2  -9   3    1.66    0.09
   1   9  -3    4.58    0.14
   1   9  -3    4.29    0.14
  -1  -9   3    4.32    0.14
   0   9  -3    6.87    0.17
   0   9  -3    7.18    0.17
   0  -9   3    6.73    0.17
  -1   9  -3   14.23    0.26
  -1   9  -3   14.17    0.27
   1  -9   3   13.94    0.26
  -2   9  -3   -0.05    0.03
   6   8  -3    1.08    0.11
   6   8  -3    1.03    0.11
   6   8  -3    1.05    0.06
  -6  -8   3    0.89    0.10
  -6  -8   3    0.90    0.08
   5   8  -3   -0.06    0.05
   5   8  -3    0.07    0.06
  -5  -8   3   -0.02    0.05
  -5  -8   3    0.02    0.05
   4   8  -3   10.50    0.27
   4   8  -3   10.16    0.27
  -4  -8   3   10.29    0.27
  -4  -8   3    9.93    0.23
   3   8  -3    0.35    0.06
   3   8  -3    0.26    0.06
  -3  -8   3    0.42    0.06
  -3  -8   3    0.29    0.04
   2   8  -3    2.80    0.12
   2   8  -3    2.98    0.12
  -2  -8   3    2.83    0.11
   1   8  -3    8.33    0.20
   1   8  -3    8.41    0.20
  -1  -8   3    8.54    0.20
   0   8  -3   16.20    0.31
   0   8  -3   16.01    0.31
   0  -8   3   16.38    0.31
  -1   8  -3    0.30    0.04
  -1   8  -3    0.43    0.04
   1  -8   3    0.39    0.04
   2  -8   3    0.96    0.03
   7   7  -3    0.52    0.07
   6   7  -3    2.17    0.13
   6   7  -3    1.88    0.12
   6   7  -3    2.19    0.10
  -6  -7   3    2.32    0.13
  -6  -7   3    2.07    0.10
   5   7  -3    3.81    0.15
   5   7  -3    3.79    0.11
   5   7  -3    3.65    0.16
  -5  -7   3    3.92    0.13
  -5  -7   3    3.82    0.16
   4   7  -3    2.32    0.12
   4   7  -3    2.22    0.12
  -4  -7   3    2.35    0.11
  -4  -7   3    2.09    0.09
   3   7  -3    1.00    0.08
   3   7  -3    0.94    0.08
  -3  -7   3    0.85    0.08
  -3  -7   3    0.84    0.06
   2   7  -3   31.88    0.58
   2   7  -3   32.16    0.59
  -2  -7   3   32.23    0.58
   1   7  -3    0.06    0.04
   1   7  -3    0.01    0.03
  -1  -7   3    0.03    0.04
   0   7  -3   21.37    0.39
   0   7  -3   21.74    0.39
   0  -7   3   21.88    0.39
  -1   7  -3    0.96    0.05
   1  -7   3    0.91    0.05
   2  -7   3    2.66    0.06
  -4   7  -3    9.70    0.19
   5  -7   3    0.05    0.03
   8   6  -3    0.58    0.08
  -8  -6   3    0.73    0.08
   7   6  -3    0.00    0.04
  -7  -6   3    0.04    0.04
   6   6  -3    5.05    0.19
   6   6  -3    4.96    0.18
   6   6  -3    4.57    0.16
  -6  -6   3    4.67    0.18
  -6  -6   3    4.70    0.15
   5   6  -3    0.17    0.06
   5   6  -3    0.19    0.06
   5   6  -3    0.21    0.04
  -5  -6   3    0.32    0.06
  -5  -6   3    0.26    0.05
   4   6  -3   11.63    0.28
   4   6  -3   11.85    0.24
   4   6  -3   11.51    0.28
  -4  -6   3   12.12    0.28
  -4  -6   3   11.55    0.24
   3   6  -3    0.02    0.05
   3   6  -3    0.06    0.04
  -3  -6   3   -0.04    0.03
  -3  -6   3    0.03    0.04
   2   6  -3    0.02    0.04
   2   6  -3   -0.02    0.04
  -2  -6   3    0.00    0.04
   1   6  -3   17.81    0.34
   1   6  -3   18.10    0.35
  -1  -6   3   18.74    0.34
   0   6  -3    1.10    0.06
   0   6  -3    1.21    0.06
   0  -6   3    1.10    0.05
  -1   6  -3   44.35    0.71
  -1   6  -3   43.10    0.70
  -1   6  -3   43.54    0.71
  -1   6  -3   44.59    0.74
   1  -6   3   43.32    0.70
   1  -6   3   43.33    0.70
  -3   6  -3    0.37    0.02
  -4   6  -3    0.05    0.02
  -4   6  -3    0.06    0.02
   4  -6   3    0.08    0.02
  -5   6  -3    7.80    0.16
   5  -6   3    7.27    0.16
   6  -6   3    6.53    0.16
   8   5  -3    4.65    0.18
   7   5  -3    4.22    0.16
  -7  -5   3    4.02    0.14
   6   5  -3    1.15    0.09
   6   5  -3    1.03    0.10
   6   5  -3    1.02    0.08
  -6  -5   3    1.35    0.10
  -6  -5   3    1.17    0.08
   5   5  -3    3.92    0.15
   5   5  -3    4.17    0.14
   5   5  -3    4.08    0.15
  -5  -5   3    4.12    0.15
  -5  -5   3    4.29    0.13
   4   5  -3    3.88    0.14
   4   5  -3    4.25    0.14
   4   5  -3    4.16    0.12
  -4  -5   3    4.25    0.12
  -4  -5   3    4.16    0.14
   3   5  -3    0.19    0.03
   3   5  -3    0.12    0.04
   3   5  -3    0.25    0.05
  -3  -5   3    0.09    0.04
  -3  -5   3    0.15    0.03
   2   5  -3    0.16    0.04
   2   5  -3    0.15    0.04
  -2  -5   3    0.08    0.04
  -2  -5   3    0.13    0.02
   1   5  -3    8.38    0.19
   1   5  -3    8.70    0.18
   1   5  -3    8.54    0.18
   1   5  -3    9.01    0.19
  -1  -5   3    8.51    0.18
   0   5  -3    1.82    0.06
   0   5  -3    1.76    0.06
   0   5  -3    1.75    0.06
   0   5  -3    1.74    0.06
   0  -5   3    1.76    0.06
   0  -5   3    1.79    0.06
  -1   5  -3   37.17    0.60
  -1   5  -3   36.96    0.61
  -1   5  -3   36.21    0.59
   1  -5   3   35.43    0.58
   1  -5   3   37.28    0.58
  -3   5  -3    9.15    0.16
  -3   5  -3    9.36    0.16
  -3   5  -3    9.27    0.17
  -3   5  -3    9.19    0.16
  -3   5  -3    9.40    0.16
   3  -5   3    8.74    0.16
   3  -5   3    9.27    0.16
  -4   5  -3    1.47    0.05
  -4   5  -3    1.44    0.06
   4  -5   3    1.36    0.05
  -5   5  -3    1.83    0.07
  -5   5  -3    1.87    0.08
   5  -5   3    1.82    0.07
  -6   5  -3    1.13    0.07
   6  -5   3    1.12    0.07
   7  -5   3    1.06    0.08
   9   4  -3    2.27    0.14
  -9  -4   3    2.15    0.14
   8   4  -3   -0.01    0.05
  -8  -4   3   -0.03    0.05
   7   4  -3    6.45    0.21
  -7  -4   3    6.92    0.22
  -7  -4   3    7.07    0.18
   6   4  -3   23.78    0.50
  -6  -4   3   24.79    0.44
  -6  -4   3   24.76    0.52
   5   4  -3   10.85    0.27
   5   4  -3   10.70    0.26
   5   4  -3   11.30    0.27
  -5  -4   3   11.16    0.27
  -5  -4   3   11.37    0.28
  -5  -4   3   11.12    0.23
   4   4  -3   10.31    0.24
   4   4  -3    9.94    0.24
   4   4  -3   10.20    0.23
  -4  -4   3   10.18    0.21
  -4  -4   3    9.73    0.23
   3   4  -3    4.77    0.14
   3   4  -3    4.58    0.13
   3   4  -3    4.83    0.12
  -3  -4   3    4.78    0.11
  -3  -4   3    4.57    0.13
   2   4  -3    2.24    0.08
   2   4  -3    2.29    0.08
   2   4  -3    2.23    0.09
   2   4  -3    2.29    0.06
   2   4  -3    2.16    0.06
   2   4  -3    2.08    0.08
  -2  -4   3    2.17    0.08
  -2  -4   3    2.26    0.06
  -2  -4   3    2.25    0.08
  -2  -4   3    2.41    0.08
   1   4  -3    9.43    0.19
   1   4  -3    9.20    0.19
   1   4  -3    9.45    0.19
   1   4  -3    9.38    0.19
  -1  -4   3    9.08    0.18
  -1  -4   3    9.43    0.19
   0   4  -3    1.50    0.05
   0   4  -3    1.61    0.05
   0   4  -3    1.50    0.05
   0   4  -3    1.59    0.05
   0  -4   3    1.50    0.05
   0  -4   3    1.67    0.05
  -1   4  -3   15.74    0.26
  -1   4  -3   15.86    0.26
   1  -4   3   15.42    0.25
   1  -4   3   15.14    0.25
  -3   4  -3   -0.03    0.02
  -3   4  -3   -0.01    0.02
  -3   4  -3    0.00    0.02
  -3   4  -3    0.01    0.02
  -3   4  -3    0.02    0.02
   3  -4   3   -0.01    0.02
   3  -4   3   -0.02    0.02
  -4   4  -3    6.08    0.13
  -4   4  -3    6.07    0.13
  -4   4  -3    5.98    0.14
   4  -4   3    6.04    0.13
  -5   4  -3    1.19    0.06
  -5   4  -3    1.16    0.06
   5  -4   3    1.29    0.06
  -6   4  -3    2.43    0.10
  -6   4  -3    2.56    0.10
   6  -4   3    2.48    0.10
  -7   4  -3   13.59    0.31
   7  -4   3   13.84    0.30
   8  -4   3    1.11    0.09
  -9  -3   3    2.45    0.14
   8   3  -3    5.07    0.19
  -8  -3   3    4.91    0.19
   7   3  -3    0.63    0.08
   7   3  -3    0.60    0.06
  -7  -3   3    0.45    0.07
   6   3  -3   17.99    0.40
   6   3  -3   18.85    0.34
  -6  -3   3   18.44    0.34
  -6  -3   3   18.95    0.41
   5   3  -3    0.12    0.05
   5   3  -3    0.19    0.03
   5   3  -3    0.08    0.05
   5   3  -3    0.16    0.05
  -5  -3   3    0.16    0.04
  -5  -3   3    0.11    0.05
  -5  -3   3    0.11    0.05
   4   3  -3    4.37    0.13
   4   3  -3    4.54    0.13
   4   3  -3    4.28    0.14
   4   3  -3    4.22    0.14
   4   3  -3    4.52    0.10
  -4  -3   3    4.52    0.14
  -4  -3   3    4.65    0.14
  -4  -3   3    4.30    0.14
  -4  -3   3    4.42    0.12
  -4  -3   3    4.45    0.14
   3   3  -3   77.55    1.23
   3   3  -3   75.22    1.29
   3   3  -3   76.52    1.30
   3   3  -3   74.01    1.26
   3   3  -3   72.41    1.24
  -3  -3   3   75.13    1.17
  -3  -3   3   75.09    1.26
  -3  -3   3   76.67    1.30
  -3  -3   3   74.65    1.24
  -3  -3   3   78.52    1.30
   2   3  -3   18.52    0.35
   2   3  -3   18.99    0.34
   2   3  -3   19.09    0.34
   2   3  -3   17.65    0.35
  -2  -3   3   19.05    0.34
  -2  -3   3   18.80    0.30
  -2  -3   3   18.84    0.34
  -2  -3   3   18.60    0.35
   1   3  -3   14.77    0.27
   1   3  -3   14.70    0.28
   1   3  -3   14.79    0.26
   1   3  -3   14.56    0.27
  -1  -3   3   14.85    0.26
  -1  -3   3   14.89    0.26
  -1  -3   3   14.78    0.26
   0   3  -3    8.89    0.16
   0   3  -3    8.75    0.16
   0   3  -3    8.66    0.16
   0   3  -3    8.84    0.16
   0  -3   3    8.62    0.16
   0  -3   3    8.75    0.16
  -1   3  -3   15.09    0.24
  -1   3  -3   14.73    0.24
  -2   3  -3   13.71    0.23
  -2   3  -3   13.88    0.23
   2  -3   3   13.35    0.22
   2  -3   3   13.98    0.22
  -3   3  -3    6.60    0.13
  -3   3  -3    6.67    0.13
  -3   3  -3    6.58    0.13
  -3   3  -3    6.66    0.13
  -3   3  -3    6.58    0.13
   3  -3   3    6.78    0.13
   3  -3   3    6.48    0.13
  -4   3  -3   40.19    0.71
  -4   3  -3   40.46    0.68
  -4   3  -3   41.06    0.69
  -4   3  -3   40.91    0.69
   4  -3   3   40.95    0.67
  -5   3  -3   24.51    0.48
  -5   3  -3   25.12    0.46
  -5   3  -3   24.98    0.45
   5  -3   3   26.44    0.45
  -6   3  -3   13.60    0.29
  -6   3  -3   13.84    0.31
   6  -3   3   13.87    0.29
  -7   3  -3    2.36    0.11
   7  -3   3    2.37    0.11
   8  -3   3    8.39    0.23
   9   2  -3    3.71    0.14
  -9  -2   3    3.65    0.16
   8   2  -3    1.61    0.09
  -8  -2   3    1.53    0.11
   7   2  -3    0.27    0.06
   7   2  -3    0.30    0.05
  -7  -2   3    0.20    0.05
   6   2  -3    3.89    0.14
   6   2  -3    4.04    0.12
  -6  -2   3    4.13    0.16
  -6  -2   3    3.91    0.15
  -6  -2   3    3.95    0.15
  -6  -2   3    3.94    0.11
   5   2  -3    2.50    0.11
   5   2  -3    2.51    0.08
   5   2  -3    2.37    0.11
   5   2  -3    2.58    0.11
   5   2  -3    2.59    0.11
  -5  -2   3    2.49    0.11
  -5  -2   3    2.54    0.08
  -5  -2   3    2.43    0.11
  -5  -2   3    2.50    0.10
  -5  -2   3    2.49    0.11
   4   2  -3   55.71    0.93
   4   2  -3   55.37    0.95
   4   2  -3   55.25    0.86
   4   2  -3   54.50    0.93
   4   2  -3   53.95    0.97
  -4  -2   3   54.11    0.98
  -4  -2   3   55.43    0.87
  -4  -2   3   54.32    0.93
  -4  -2   3   56.88    0.98
  -4  -2   3   55.16    0.95
   3   2  -3   46.16    0.72
   3   2  -3   48.15    0.83
   3   2  -3   45.45    0.81
   3   2  -3   45.63    0.80
   3   2  -3   46.23    0.78
   3   2  -3   45.17    0.78
  -3  -2   3   46.45    0.73
  -3  -2   3   47.01    0.82
  -3  -2   3   47.30    0.80
  -3  -2   3   47.84    0.82
  -3  -2   3   46.22    0.78
   2   2  -3   24.63    0.41
   2   2  -3   23.14    0.43
   2   2  -3   23.99    0.42
   2   2  -3   23.04    0.42
   2   2  -3   23.94    0.44
   2   2  -3   23.75    0.42
  -2  -2   3   23.15    0.38
  -2  -2   3   24.45    0.42
  -2  -2   3   24.01    0.43
  -2  -2   3   24.12    0.43
  -2  -2   3   23.59    0.42
   1   2  -3    2.15    0.06
   1   2  -3    2.13    0.06
   1   2  -3    2.14    0.06
   1   2  -3    2.09    0.05
   1   2  -3    2.11    0.06
  -1  -2   3    2.17    0.06
  -1  -2   3    2.27    0.06
  -1  -2   3    1.98    0.06
  -1  -2   3    2.24    0.06
   0   2  -3   27.30    0.44
   0   2  -3   26.74    0.46
   0   2  -3   27.86    0.45
   0   2  -3   27.18    0.45
   0  -2   3   27.21    0.44
   0  -2   3   26.86    0.44
  -1   2  -3   57.34    0.91
  -1   2  -3   57.31    0.91
   1  -2   3   54.95    0.89
   1  -2   3   58.62    0.89
  -2   2  -3   36.68    0.60
  -2   2  -3   36.24    0.58
  -2   2  -3   37.44    0.58
  -2   2  -3   36.79    0.60
   2  -2   3   35.57    0.58
   2  -2   3   37.47    0.58
  -3   2  -3    6.12    0.13
  -3   2  -3    6.37    0.13
  -3   2  -3    6.35    0.14
  -3   2  -3    6.41    0.13
  -3   2  -3    6.39    0.13
   3  -2   3    6.61    0.13
   3  -2   3    6.36    0.13
  -4   2  -3   14.49    0.28
  -4   2  -3   14.86    0.28
  -4   2  -3   14.50    0.29
  -4   2  -3   14.33    0.27
  -4   2  -3   14.39    0.27
   4  -2   3   14.46    0.27
   4  -2   3   14.89    0.27
  -5   2  -3    0.30    0.04
  -5   2  -3    0.22    0.04
  -5   2  -3    0.23    0.04
   5  -2   3    0.21    0.04
  -6   2  -3    8.09    0.21
  -6   2  -3    7.91    0.20
  -6   2  -3    7.67    0.20
   6  -2   3    8.28    0.20
  -7   2  -3    1.73    0.10
  -7   2  -3    1.85    0.10
   7  -2   3    1.79    0.07
   7  -2   3    1.65    0.09
  -8   2  -3    0.85    0.09
   8  -2   3    1.04    0.09
   8  -2   3    1.00    0.07
   9   1  -3    0.13    0.05
  -9  -1   3    0.19    0.06
   8   1  -3    0.79    0.07
  -8  -1   3    0.79    0.08
   7   1  -3    9.79    0.22
   7   1  -3    9.90    0.26
  -7  -1   3   10.30    0.28
  -7  -1   3   10.21    0.28
  -7  -1   3   10.10    0.26
   6   1  -3    1.37    0.09
   6   1  -3    1.23    0.09
   6   1  -3    1.37    0.07
  -6  -1   3    1.29    0.09
  -6  -1   3    1.34    0.09
  -6  -1   3    1.30    0.09
   5   1  -3    0.41    0.05
   5   1  -3    0.45    0.05
   5   1  -3    0.45    0.04
   5   1  -3    0.51    0.06
  -5  -1   3    0.38    0.05
  -5  -1   3    0.38    0.05
  -5  -1   3    0.40    0.05
  -5  -1   3    0.43    0.04
   4   1  -3    7.48    0.18
   4   1  -3    7.17    0.15
   4   1  -3    7.31    0.18
   4   1  -3    7.58    0.18
   4   1  -3    7.18    0.18
  -4  -1   3    7.41    0.18
  -4  -1   3    7.47    0.18
  -4  -1   3    7.07    0.19
  -4  -1   3    7.33    0.15
  -4  -1   3    7.45    0.18
   3   1  -3  133.98    2.27
   3   1  -3  132.89    2.05
   3   1  -3  138.41    2.19
   3   1  -3  136.23    2.15
   3   1  -3  137.46    2.16
  -3  -1   3  136.27    2.27
  -3  -1   3  135.09    2.05
  -3  -1   3  135.93    2.15
  -3  -1   3  132.11    2.27
  -3  -1   3  135.61    2.19
   2   1  -3   79.27    1.32
   2   1  -3   80.35    1.25
   2   1  -3   79.42    1.33
   2   1  -3   78.50    1.28
   2   1  -3   77.26    1.26
   2   1  -3   78.39    1.19
  -2  -1   3   78.39    1.20
  -2  -1   3   79.81    1.28
  -2  -1   3   77.59    1.26
  -2  -1   3   76.24    1.33
   1   1  -3    1.18    0.05
   1   1  -3    1.13    0.05
   1   1  -3    1.18    0.04
   1   1  -3    1.04    0.04
   1   1  -3    0.88    0.04
  -1  -1   3    1.01    0.04
  -1  -1   3    0.96    0.03
  -1  -1   3    1.02    0.04
  -1  -1   3    0.92    0.04
   0   1  -3   34.25    0.55
   0   1  -3   34.31    0.56
   0   1  -3   34.03    0.56
   0   1  -3   34.97    0.58
   0  -1   3   34.98    0.55
   0  -1   3   34.75    0.56
   0  -1   3   33.75    0.55
  -1   1  -3    0.74    0.03
  -1   1  -3    0.73    0.03
  -1   1  -3    0.80    0.03
   1  -1   3    0.77    0.03
   1  -1   3    0.74    0.03
  -2   1  -3   24.24    0.39
  -2   1  -3   23.77    0.41
  -2   1  -3   23.53    0.39
  -2   1  -3   23.53    0.40
  -2   1  -3   23.78    0.40
   2  -1   3   24.70    0.39
   2  -1   3   23.11    0.39
  -3   1  -3   45.14    0.76
  -3   1  -3   46.06    0.75
  -3   1  -3   45.29    0.76
  -3   1  -3   45.14    0.78
  -3   1  -3   45.49    0.75
   3  -1   3   46.82    0.74
   3  -1   3   45.10    0.74
  -4   1  -3   66.73    1.09
  -4   1  -3   66.10    1.13
  -4   1  -3   65.38    1.08
  -4   1  -3   64.59    1.08
  -4   1  -3   66.14    1.09
   4  -1   3   66.12    1.07
   4  -1   3   66.34    1.07
  -5   1  -3   56.69    0.94
  -5   1  -3   55.73    0.99
  -5   1  -3   55.24    0.96
   5  -1   3   56.69    0.94
   5  -1   3   56.17    0.87
  -6   1  -3    9.48    0.23
  -6   1  -3    9.70    0.24
  -6   1  -3    9.70    0.24
   6  -1   3    9.45    0.23
   6  -1   3    9.66    0.19
  -7   1  -3   49.41    0.91
  -7   1  -3   48.46    0.88
   7  -1   3   48.11    0.79
   7  -1   3   48.82    0.86
  -8   1  -3    1.41    0.11
   8  -1   3    1.58    0.08
   8  -1   3    1.52    0.10
   9  -1   3    3.76    0.13
   9  -1   3    3.47    0.15
   9   0  -3    0.24    0.05
   9   0  -3    0.11    0.06
  -9   0   3    0.26    0.05
   8   0  -3    0.05    0.05
   8   0  -3    0.03    0.04
  -8   0   3    0.06    0.04
  -8   0   3    0.19    0.06
  -8   0   3    0.08    0.05
   7   0  -3    9.02    0.21
   7   0  -3    9.19    0.25
  -7   0   3    9.13    0.26
  -7   0   3    9.00    0.25
  -7   0   3    9.19    0.23
   6   0  -3    0.28    0.04
   6   0  -3    0.27    0.05
  -6   0   3    0.25    0.06
  -6   0   3    0.25    0.05
  -6   0   3    0.21    0.05
   5   0  -3    0.46    0.04
   5   0  -3    0.48    0.06
   5   0  -3    0.46    0.05
  -5   0   3    0.42    0.05
  -5   0   3    0.56    0.06
  -5   0   3    0.50    0.06
   4   0  -3    3.59    0.09
   4   0  -3    3.52    0.11
   4   0  -3    3.42    0.11
   4   0  -3    3.53    0.11
  -4   0   3    3.36    0.08
  -4   0   3    3.38    0.11
  -4   0   3    3.46    0.11
  -4   0   3    3.62    0.12
  -4   0   3    3.33    0.11
   3   0  -3    5.93    0.14
   3   0  -3    5.86    0.12
   3   0  -3    6.01    0.14
   3   0  -3    6.10    0.14
  -3   0   3    6.02    0.14
  -3   0   3    5.84    0.14
  -3   0   3    6.04    0.12
  -3   0   3    5.89    0.14
  -3   0   3    5.75    0.15
   2   0  -3    0.35    0.03
   2   0  -3    0.39    0.04
   2   0  -3    0.40    0.04
   2   0  -3    0.37    0.03
   2   0  -3    0.38    0.03
  -2   0   3    0.48    0.04
  -2   0   3    0.39    0.04
  -2   0   3    0.39    0.03
  -2   0   3    0.44    0.04
  -2   0   3    0.40    0.04
   1   0  -3  488.62    7.26
   1   0  -3  472.36    7.63
   1   0  -3  474.02    7.73
   1   0  -3  486.02    8.03
   1   0  -3  474.78    8.07
   1   0  -3  502.30    8.02
   1   0  -3  482.32    7.76
  -1   0   3  473.52    7.28
  -1   0   3  472.81    7.74
  -1   0   3  489.63    7.60
  -1   0   3  479.84    8.02
  -1   0   3  480.09    8.01
   0   0  -3   33.20    0.54
   0   0  -3   31.78    0.57
   0   0  -3   33.77    0.55
   0   0  -3   34.60    0.57
   0   0   3   35.08    0.51
   0   0   3   33.41    0.54
   0   0   3   34.36    0.55
  -1   0  -3  485.32    7.71
  -1   0  -3  454.97    7.36
  -1   0  -3  453.52    7.45
   1   0   3  477.22    7.44
   1   0   3  445.53    7.31
   1   0   3  467.15    7.30
   1   0   3  474.09    7.43
  -2   0  -3    9.88    0.18
  -2   0  -3    9.53    0.19
  -2   0  -3    9.73    0.19
  -2   0  -3   10.40    0.20
  -2   0  -3    9.97    0.18
   2   0   3   10.03    0.19
   2   0   3    9.82    0.16
   2   0   3   10.01    0.18
   2   0   3    9.85    0.18
   2   0   3   10.07    0.18
  -3   0  -3   94.05    1.60
  -3   0  -3   94.33    1.54
  -3   0  -3   93.55    1.52
  -3   0  -3   95.60    1.58
  -3   0  -3   94.32    1.58
   3   0   3   94.43    1.54
   3   0   3   96.74    1.51
   3   0   3   94.83    1.51
   3   0   3   96.84    1.43
  -4   0  -3   19.97    0.36
  -4   0  -3   19.68    0.36
  -4   0  -3   20.00    0.37
  -4   0  -3   20.02    0.39
  -4   0  -3   19.89    0.37
   4   0   3   20.31    0.37
   4   0   3   19.87    0.33
   4   0   3   20.09    0.37
  -5   0  -3    0.41    0.05
  -5   0  -3    0.47    0.05
  -5   0  -3    0.42    0.05
  -5   0  -3    0.46    0.04
   5   0   3    0.46    0.05
   5   0   3    0.52    0.04
  -6   0  -3    0.15    0.05
  -6   0  -3    0.10    0.03
  -6   0  -3    0.14    0.05
  -6   0  -3    0.10    0.04
   6   0   3    0.08    0.04
   6   0   3    0.04    0.03
  -7   0  -3   15.04    0.36
  -7   0  -3   15.22    0.29
  -7   0  -3   15.12    0.34
  -7   0  -3   14.63    0.34
   7   0   3   15.08    0.29
   7   0   3   15.44    0.34
  -8   0  -3    0.58    0.08
  -8   0  -3    0.46    0.03
  -8   0  -3    0.59    0.08
   8   0   3    0.62    0.08
   8   0   3    0.54    0.06
  -9   0  -3    3.12    0.16
   9   0   3    3.19    0.15
   9   0   3    3.29    0.13
   9  -1  -3    0.25    0.05
   9  -1  -3    0.36    0.07
  -9   1   3    0.38    0.04
  -9   1   3    0.46    0.09
   8  -1  -3    2.21    0.10
   8  -1  -3    2.36    0.13
  -8   1   3    2.06    0.09
  -8   1   3    2.11    0.13
  -8   1   3    2.38    0.13
   7  -1  -3    0.88    0.08
   7  -1  -3    0.69    0.06
  -7   1   3    0.69    0.08
  -7   1   3    0.78    0.08
  -7   1   3    0.90    0.07
   6  -1  -3    0.93    0.06
   6  -1  -3    0.93    0.08
  -6   1   3    0.86    0.08
  -6   1   3    0.93    0.08
  -6   1   3    1.00    0.07
   5  -1  -3    0.47    0.05
   5  -1  -3    0.45    0.04
  -5   1   3    0.42    0.06
  -5   1   3    0.36    0.05
  -5   1   3    0.52    0.05
   4  -1  -3   12.79    0.26
   4  -1  -3   13.19    0.27
   4  -1  -3   13.10    0.26
   4  -1  -3   12.66    0.23
   4  -1  -3   13.07    0.27
  -4   1   3   12.71    0.28
  -4   1   3   12.88    0.27
  -4   1   3   12.74    0.26
  -4   1   3   12.37    0.27
   3  -1  -3    0.69    0.04
   3  -1  -3    0.78    0.05
   3  -1  -3    0.70    0.05
   3  -1  -3    0.65    0.05
   3  -1  -3    0.80    0.05
  -3   1   3    0.71    0.05
  -3   1   3    0.60    0.05
  -3   1   3    0.74    0.05
  -3   1   3    0.63    0.04
  -3   1   3    0.75    0.05
   2  -1  -3    0.81    0.04
   2  -1  -3    0.86    0.05
   2  -1  -3    1.00    0.03
   2  -1  -3    0.80    0.05
  -2   1   3    0.86    0.05
  -2   1   3    0.86    0.03
  -2   1   3    0.85    0.04
  -2   1   3    0.90    0.05
  -2   1   3    0.86    0.05
  -2   1   3    0.86    0.04
   1  -1  -3  373.26    5.61
   1  -1  -3  365.08    5.87
   1  -1  -3  369.25    5.89
   1  -1  -3  372.94    5.98
   1  -1  -3  374.04    6.21
  -1   1   3  372.71    5.88
  -1   1   3  370.50    6.00
  -1   1   3  361.79    5.99
  -1   1   3  377.73    5.60
  -1   1   3  368.89    6.21
  -1   1   3  374.62    6.20
   0  -1  -3   79.07    1.29
   0  -1  -3   75.01    1.22
   0  -1  -3   77.56    1.29
   0  -1  -3   76.73    1.24
   0  -1  -3   78.77    1.17
   0  -1  -3   78.26    1.22
   0   1   3   78.34    1.22
   0   1   3   75.64    1.16
   0   1   3   76.40    1.24
   0   1   3   75.65    1.24
  -1  -1  -3  102.27    1.69
  -1  -1  -3   98.44    1.62
  -1  -1  -3  102.44    1.59
  -1  -1  -3  101.18    1.60
  -1  -1  -3   99.77    1.62
  -1  -1  -3  100.44    1.69
  -1  -1  -3   99.03    1.54
   1   1   3  101.35    1.53
   1   1   3  104.34    1.60
   1   1   3   99.90    1.62
   1   1   3  106.36    1.69
  -2  -1  -3   30.53    0.54
  -2  -1  -3   30.67    0.47
  -2  -1  -3   30.00    0.51
  -2  -1  -3   30.62    0.51
  -2  -1  -3   30.76    0.53
  -2  -1  -3   29.44    0.52
  -2  -1  -3   30.03    0.52
   2   1   3   30.30    0.52
   2   1   3   31.03    0.51
   2   1   3   29.78    0.48
   2   1   3   31.56    0.53
   2   1   3   30.23    0.51
  -3  -1  -3    5.79    0.14
  -3  -1  -3    6.02    0.15
  -3  -1  -3    6.08    0.14
  -3  -1  -3    6.09    0.14
  -3  -1  -3    5.72    0.14
  -3  -1  -3    5.99    0.13
  -3  -1  -3    5.87    0.10
   3   1   3    5.75    0.14
   3   1   3    6.03    0.14
   3   1   3    5.86    0.12
   3   1   3    5.94    0.14
   3   1   3    6.01    0.14
  -4  -1  -3   24.61    0.46
  -4  -1  -3   24.18    0.47
  -4  -1  -3   24.65    0.45
  -4  -1  -3   24.36    0.46
  -4  -1  -3   25.11    0.44
   4   1   3   24.46    0.45
   4   1   3   25.05    0.45
   4   1   3   24.59    0.41
   4   1   3   24.93    0.44
   4   1   3   25.12    0.46
  -5  -1  -3    4.49    0.14
  -5  -1  -3    4.60    0.14
  -5  -1  -3    4.56    0.13
  -5  -1  -3    4.61    0.14
   5   1   3    4.53    0.11
   5   1   3    4.26    0.13
  -6  -1  -3   14.37    0.32
  -6  -1  -3   14.38    0.33
  -6  -1  -3   14.48    0.32
  -6  -1  -3   14.79    0.31
   6   1   3   14.41    0.28
   6   1   3   14.77    0.32
  -7  -1  -3    6.51    0.17
  -7  -1  -3    6.43    0.20
  -7  -1  -3    6.14    0.20
  -7  -1  -3    5.99    0.20
   7   1   3    6.38    0.16
   7   1   3    6.63    0.19
  -8  -1  -3    8.71    0.25
  -8  -1  -3    8.26    0.21
  -8  -1  -3    8.78    0.26
   8   1   3    8.41    0.24
   8   1   3    8.59    0.21
  -9  -1  -3    0.21    0.07
  -9  -1  -3    0.31    0.05
   9   1   3    0.32    0.06
   9   1   3    0.47    0.08
   9  -2  -3    0.07    0.05
   9  -2  -3    0.09    0.05
   8  -2  -3    4.05    0.16
   8  -2  -3    4.06    0.13
  -8   2   3    4.16    0.17
   7  -2  -3    0.22    0.06
   7  -2  -3    0.20    0.04
  -7   2   3    0.16    0.06
  -7   2   3    0.18    0.06
   6  -2  -3    0.95    0.08
   6  -2  -3    0.98    0.06
  -6   2   3    0.87    0.08
  -6   2   3    1.03    0.05
  -6   2   3    0.95    0.08
   5  -2  -3    5.40    0.12
   5  -2  -3    5.60    0.16
  -5   2   3    5.31    0.16
  -5   2   3    5.49    0.13
  -5   2   3    5.61    0.16
   4  -2  -3    8.10    0.19
   4  -2  -3    8.22    0.16
  -4   2   3    8.26    0.17
  -4   2   3    8.11    0.20
  -4   2   3    8.12    0.17
  -4   2   3    8.25    0.20
   3  -2  -3    1.66    0.05
   3  -2  -3    1.65    0.07
   3  -2  -3    1.70    0.07
   3  -2  -3    1.65    0.07
  -3   2   3    1.57    0.05
  -3   2   3    1.69    0.07
  -3   2   3    1.63    0.07
  -3   2   3    1.75    0.06
   2  -2  -3    0.16    0.03
   2  -2  -3    0.22    0.03
   2  -2  -3    0.16    0.03
   2  -2  -3    0.18    0.02
  -2   2   3    0.18    0.03
  -2   2   3    0.24    0.02
  -2   2   3    0.20    0.03
  -2   2   3    0.13    0.03
   1  -2  -3  744.99   11.77
   1  -2  -3  756.22   11.73
   1  -2  -3  742.69   11.94
   1  -2  -3  728.43   11.73
   1  -2  -3  772.83   11.19
  -1   2   3  759.85   12.42
  -1   2   3  732.24   11.95
  -1   2   3  743.28   12.36
   0  -2  -3  352.52    5.61
   0  -2  -3  339.73    5.52
   0  -2  -3  352.17    5.26
   0  -2  -3  338.78    5.80
   0  -2  -3  344.58    5.52
   0   2   3  342.59    5.63
   0   2   3  349.23    5.81
   0   2   3  352.83    5.60
   0   2   3  359.11    5.52
  -1  -2  -3    1.14    0.05
  -1  -2  -3    1.11    0.04
  -1  -2  -3    1.08    0.05
  -1  -2  -3    0.96    0.05
  -1  -2  -3    1.10    0.05
   1   2   3    1.07    0.05
   1   2   3    1.14    0.05
   1   2   3    1.08    0.05
   1   2   3    1.13    0.04
   1   2   3    1.20    0.05
   1   2   3    1.13    0.05
  -2  -2  -3  155.17    2.45
  -2  -2  -3  157.82    2.58
  -2  -2  -3  153.56    2.48
  -2  -2  -3  154.40    2.35
  -2  -2  -3  154.57    2.44
  -2  -2  -3  149.28    2.58
   2   2   3  162.04    2.57
   2   2   3  154.04    2.44
   2   2   3  153.53    2.34
   2   2   3  157.01    2.48
   2   2   3  153.41    2.58
  -3  -2  -3   27.68    0.49
  -3  -2  -3   27.81    0.51
  -3  -2  -3   27.66    0.45
  -3  -2  -3   27.85    0.50
  -3  -2  -3   27.87    0.49
  -3  -2  -3   27.43    0.52
   3   2   3   28.42    0.46
   3   2   3   29.14    0.51
   3   2   3   28.68    0.50
   3   2   3   29.25    0.49
   3   2   3   27.90    0.49
  -4  -2  -3   31.71    0.50
  -4  -2  -3   30.58    0.59
  -4  -2  -3   31.11    0.57
  -4  -2  -3   31.05    0.56
  -4  -2  -3   31.21    0.58
  -4  -2  -3   31.19    0.55
   4   2   3   32.09    0.57
   4   2   3   31.39    0.51
   4   2   3   31.53    0.55
   4   2   3   31.83    0.56
   4   2   3   31.93    0.58
  -5  -2  -3   17.48    0.38
  -5  -2  -3   17.90    0.36
  -5  -2  -3   17.71    0.36
  -5  -2  -3   17.02    0.36
   5   2   3   17.76    0.37
   5   2   3   18.11    0.32
   5   2   3   17.94    0.36
  -6  -2  -3    1.13    0.09
  -6  -2  -3    1.02    0.08
  -6  -2  -3    1.17    0.09
  -6  -2  -3    1.09    0.09
   6   2   3    1.07    0.08
   6   2   3    1.04    0.06
  -7  -2  -3   18.58    0.39
  -7  -2  -3   17.51    0.41
  -7  -2  -3   18.41    0.41
  -7  -2  -3   18.52    0.40
   7   2   3   17.93    0.35
   7   2   3   18.37    0.39
  -8  -2  -3    1.67    0.12
  -8  -2  -3    1.31    0.11
  -8  -2  -3    1.47    0.09
   8   2   3    1.52    0.08
   8   2   3    1.41    0.10
  -9  -2  -3    1.07    0.09
   9   2   3    1.24    0.09
   8  -3  -3    1.59    0.09
   8  -3  -3    1.43    0.10
  -8   3   3    1.48    0.12
   7  -3  -3    0.89    0.06
   7  -3  -3    0.80    0.08
  -7   3   3    0.92    0.09
  -7   3   3    0.90    0.09
   6  -3  -3   10.58    0.21
   6  -3  -3   10.46    0.25
  -6   3   3   10.68    0.26
  -6   3   3   10.55    0.27
   5  -3  -3    0.30    0.03
   5  -3  -3    0.33    0.05
  -5   3   3    0.30    0.05
  -5   3   3    0.21    0.05
   4  -3  -3    3.90    0.08
   4  -3  -3    3.99    0.12
  -4   3   3    3.95    0.13
  -4   3   3    4.14    0.13
   3  -3  -3   14.37    0.27
   3  -3  -3   14.39    0.27
  -3   3   3   14.32    0.27
  -3   3   3   14.57    0.28
  -3   3   3   14.77    0.29
  -3   3   3   14.32    0.28
   2  -3  -3   20.52    0.36
   2  -3  -3   20.31    0.36
  -2   3   3   20.65    0.37
  -2   3   3   20.36    0.38
  -2   3   3   20.49    0.37
  -2   3   3   20.03    0.36
   1  -3  -3   -0.14    0.02
   1  -3  -3   -0.11    0.02
   1  -3  -3   -0.14    0.02
  -1   3   3   -0.09    0.02
  -1   3   3   -0.15    0.02
  -1   3   3   -0.11    0.02
  -1   3   3   -0.13    0.01
  -1   3   3   -0.11    0.01
  -1   3   3   -0.12    0.02
   0  -3  -3   45.90    0.76
   0  -3  -3   46.64    0.70
   0  -3  -3   45.08    0.75
   0  -3  -3   47.47    0.79
   0  -3  -3   45.24    0.75
   0   3   3   45.83    0.77
   0   3   3   46.46    0.76
   0   3   3   46.15    0.76
   0   3   3   46.33    0.78
  -1  -3  -3    1.62    0.05
  -1  -3  -3    1.78    0.06
  -1  -3  -3    1.74    0.06
  -1  -3  -3    1.61    0.06
  -1  -3  -3    1.65    0.06
   1   3   3    1.70    0.06
   1   3   3    1.34    0.05
   1   3   3    1.56    0.06
   1   3   3    1.53    0.06
   1   3   3    1.65    0.06
  -2  -3  -3   18.76    0.31
  -2  -3  -3   19.05    0.34
  -2  -3  -3   19.05    0.36
  -2  -3  -3   19.71    0.36
  -2  -3  -3   18.58    0.34
  -2  -3  -3   19.05    0.35
   2   3   3   18.89    0.34
   2   3   3   18.92    0.36
   2   3   3   18.72    0.35
   2   3   3   18.62    0.31
   2   3   3   18.44    0.35
  -3  -3  -3    0.00    0.03
  -3  -3  -3    0.00    0.03
  -3  -3  -3    0.02    0.03
  -3  -3  -3   -0.02    0.03
  -3  -3  -3    0.02    0.03
  -3  -3  -3    0.00    0.02
   3   3   3   -0.01    0.03
   3   3   3    0.02    0.02
   3   3   3   -0.04    0.02
   3   3   3   -0.02    0.02
   3   3   3   -0.05    0.03
  -4  -3  -3   99.77    1.69
  -4  -3  -3   98.68    1.63
  -4  -3  -3   96.12    1.69
  -4  -3  -3   96.43    1.60
  -4  -3  -3   97.63    1.61
  -4  -3  -3   97.61    1.51
   4   3   3  100.27    1.68
   4   3   3   97.71    1.60
   4   3   3  100.13    1.61
   4   3   3   98.17    1.51
   4   3   3   99.76    1.63
  -5  -3  -3    0.23    0.06
  -5  -3  -3    0.37    0.06
  -5  -3  -3    0.37    0.06
   5   3   3    0.50    0.06
   5   3   3    0.40    0.06
   5   3   3    0.41    0.04
   5   3   3    0.43    0.06
  -6  -3  -3    0.13    0.06
  -6  -3  -3    0.09    0.05
  -6  -3  -3    0.19    0.06
  -6  -3  -3    0.12    0.05
   6   3   3    0.11    0.04
   6   3   3    0.09    0.05
   6   3   3    0.13    0.05
  -7  -3  -3    0.70    0.08
  -7  -3  -3    0.78    0.09
   7   3   3    0.71    0.08
   7   3   3    0.80    0.06
  -8  -3  -3    3.59    0.15
   8   3   3    3.74    0.13
  -9  -3  -3    0.89    0.09
   9   3   3    0.90    0.07
   8  -4  -3    3.39    0.15
   8  -4  -3    3.21    0.12
   7  -4  -3   12.97    0.25
   7  -4  -3   12.50    0.30
  -7   4   3   12.10    0.31
   6  -4  -3    9.08    0.23
   6  -4  -3    9.62    0.19
  -6   4   3    8.94    0.23
  -6   4   3    9.27    0.24
   5  -4  -3    2.14    0.09
  -5   4   3    2.09    0.10
  -5   4   3    2.15    0.10
   4  -4  -3   18.80    0.36
  -4   4   3   19.06    0.38
  -4   4   3   19.22    0.37
   3  -4  -3    0.14    0.03
  -3   4   3    0.10    0.03
  -3   4   3    0.04    0.03
   2  -4  -3   68.10    1.10
   2  -4  -3   67.72    1.10
  -2   4   3   67.81    1.11
  -2   4   3   70.14    1.13
  -2   4   3   69.01    1.17
  -2   4   3   68.40    1.13
   1  -4  -3  318.27    5.16
   1  -4  -3  331.92    5.10
  -1   4   3  327.39    5.14
  -1   4   3  330.59    5.21
  -1   4   3  324.33    5.45
  -1   4   3  318.84    5.28
   0  -4  -3    5.78    0.13
   0  -4  -3    5.78    0.12
   0  -4  -3    5.70    0.13
   0   4   3    5.99    0.13
   0   4   3    5.85    0.10
   0   4   3    5.66    0.13
   0   4   3    5.76    0.13
   0   4   3    5.82    0.13
  -1  -4  -3    1.28    0.05
  -1  -4  -3    1.27    0.06
  -1  -4  -3    1.33    0.04
  -1  -4  -3    1.34    0.06
   1   4   3    1.27    0.05
   1   4   3    1.25    0.06
  -2  -4  -3    1.11    0.05
  -2  -4  -3    1.15    0.06
  -2  -4  -3    1.11    0.06
  -2  -4  -3    1.11    0.06
  -2  -4  -3    1.14    0.06
   2   4   3    1.17    0.06
   2   4   3    1.11    0.06
   2   4   3    1.15    0.06
   2   4   3    1.21    0.06
   2   4   3    1.28    0.06
  -3  -4  -3   36.86    0.68
  -3  -4  -3   36.33    0.60
  -3  -4  -3   37.71    0.65
  -3  -4  -3   37.13    0.64
  -3  -4  -3   37.60    0.68
  -3  -4  -3   37.56    0.66
   3   4   3   36.58    0.65
   3   4   3   37.58    0.64
   3   4   3   37.54    0.66
   3   4   3   36.92    0.58
   3   4   3   36.31    0.67
  -4  -4  -3   28.45    0.54
  -4  -4  -3   28.58    0.52
  -4  -4  -3   27.65    0.47
  -4  -4  -3   28.18    0.54
  -4  -4  -3   28.13    0.52
  -4  -4  -3   27.32    0.53
   4   4   3   28.03    0.53
   4   4   3   28.22    0.54
   4   4   3   28.38    0.51
   4   4   3   28.07    0.52
   4   4   3   27.95    0.46
  -5  -4  -3    7.43    0.20
  -5  -4  -3    7.73    0.21
  -5  -4  -3    7.73    0.21
  -5  -4  -3    7.95    0.17
   5   4   3    7.43    0.16
   5   4   3    7.51    0.20
   5   4   3    7.78    0.21
   5   4   3    7.60    0.20
  -6  -4  -3   10.88    0.28
  -6  -4  -3   10.95    0.23
   6   4   3   11.29    0.23
   6   4   3   11.35    0.28
  -7  -4  -3    1.43    0.10
   7   4   3    1.67    0.08
   7   4   3    1.58    0.11
  -8  -4  -3    5.37    0.19
   8   4   3    5.15    0.15
  -9  -4  -3    0.55    0.08
   9   4   3    0.60    0.07
   7  -5  -3    9.64    0.25
   6  -5  -3    0.62    0.07
  -6   5   3    0.68    0.07
   5  -5  -3   10.74    0.24
  -5   5   3   11.05    0.26
  -5   5   3   10.88    0.25
   4  -5  -3    3.05    0.10
  -4   5   3    2.90    0.11
  -4   5   3    3.11    0.11
   3  -5  -3   23.62    0.42
  -3   5   3   23.63    0.43
  -3   5   3   23.81    0.45
   2  -5  -3    8.35    0.18
  -2   5   3    8.44    0.19
  -2   5   3    8.63    0.19
  -2   5   3    8.50    0.19
   1  -5  -3    6.70    0.15
   1  -5  -3    6.44    0.15
  -1   5   3    6.47    0.15
  -1   5   3    6.56    0.15
  -1   5   3    6.49    0.16
  -1   5   3    6.73    0.15
   0  -5  -3    2.89    0.09
   0  -5  -3    2.63    0.08
   0   5   3    3.04    0.09
   0   5   3    2.75    0.09
   0   5   3    2.75    0.09
   0   5   3    2.74    0.09
  -1  -5  -3    1.46    0.07
  -1  -5  -3    1.53    0.06
  -1  -5  -3    1.51    0.06
  -1  -5  -3    1.53    0.05
   1   5   3    1.53    0.05
   1   5   3    1.53    0.07
   1   5   3    1.49    0.05
   1   5   3    1.36    0.06
   1   5   3    1.55    0.06
   1   5   3    1.46    0.07
  -2  -5  -3    6.61    0.14
  -2  -5  -3    6.51    0.16
  -2  -5  -3    6.68    0.16
   2   5   3    6.06    0.17
   2   5   3    6.72    0.15
   2   5   3    6.81    0.17
  -3  -5  -3   39.65    0.64
  -3  -5  -3   40.01    0.70
   3   5   3   40.27    0.70
   3   5   3   39.90    0.71
   3   5   3   39.11    0.71
  -4  -5  -3    1.94    0.08
  -4  -5  -3    2.02    0.10
  -4  -5  -3    1.98    0.10
   4   5   3    1.92    0.09
   4   5   3    2.01    0.10
   4   5   3    2.11    0.10
  -5  -5  -3   57.02    0.93
  -5  -5  -3   58.29    1.00
   5   5   3   55.91    1.04
   5   5   3   59.03    1.01
   5   5   3   57.80    1.02
  -6  -5  -3    0.00    0.05
  -6  -5  -3    0.03    0.04
   6   5   3    0.03    0.04
  -7  -5  -3   33.78    0.69
   7   5   3   33.97    0.68
  -8  -5  -3   -0.08    0.05
   8   5   3    0.08    0.05
  -9  -5  -3    0.92    0.11
   7  -6  -3    1.12    0.09
   6  -6  -3    9.08    0.23
  -6   6   3    9.45    0.24
   5  -6  -3    0.37    0.05
  -5   6   3    0.38    0.06
  -5   6   3    0.36    0.05
   4  -6  -3   14.83    0.30
  -4   6   3   14.76    0.31
  -4   6   3   15.04    0.32
   3  -6  -3   56.65    0.93
  -3   6   3   55.44    0.98
  -3   6   3   56.44    0.95
   2  -6  -3    3.37    0.10
  -2   6   3    3.27    0.10
  -2   6   3    3.19    0.11
   1  -6  -3   65.74    1.08
  -1   6   3   66.48    1.10
   0  -6  -3   16.48    0.31
   0   6   3   16.59    0.32
  -1  -6  -3    2.62    0.10
   1   6   3    2.63    0.10
  -2  -6  -3   37.50    0.61
  -2  -6  -3   37.51    0.66
   2   6   3   38.26    0.66
   2   6   3   38.39    0.68
  -3  -6  -3    0.01    0.04
  -3  -6  -3    0.00    0.03
   3   6   3    0.01    0.03
   3   6   3   -0.01    0.04
   3   6   3   -0.01    0.04
  -4  -6  -3    6.91    0.19
  -4  -6  -3    6.84    0.16
   4   6   3    6.97    0.18
   4   6   3    6.65    0.20
   4   6   3    6.65    0.19
  -5  -6  -3   42.92    0.72
  -5  -6  -3   43.32    0.79
   5   6   3   43.41    0.79
   5   6   3   42.83    0.80
   5   6   3   43.71    0.80
  -6  -6  -3   13.62    0.29
   6   6   3   13.68    0.33
  -7  -6  -3   12.03    0.26
   7   6   3   11.55    0.31
  -8  -6  -3    8.98    0.28
   8   6   3    9.36    0.28
   6  -7  -3    9.93    0.25
   5  -7  -3    0.15    0.04
  -5   7   3    0.16    0.05
   4  -7  -3    6.75    0.17
  -4   7   3    6.82    0.18
  -4   7   3    6.89    0.19
   3  -7  -3    1.10    0.07
  -3   7   3    1.16    0.07
  -3   7   3    1.19    0.07
   2  -7  -3    0.18    0.04
  -2   7   3    0.17    0.04
   1  -7  -3    4.68    0.13
  -1   7   3    4.73    0.13
   0  -7  -3    0.33    0.05
   0   7   3    0.35    0.05
   1   7   3   14.17    0.30
  -2  -7  -3   22.17    0.43
   2   7   3   22.46    0.44
  -3  -7  -3    7.74    0.21
  -3  -7  -3    7.57    0.17
   3   7   3    7.59    0.21
   3   7   3    7.77    0.21
   3   7   3    7.54    0.17
  -4  -7  -3    9.34    0.24
  -4  -7  -3    9.23    0.21
   4   7   3    9.28    0.25
   4   7   3    8.85    0.24
   4   7   3    9.43    0.22
  -5  -7  -3    3.30    0.14
  -5  -7  -3    3.19    0.12
   5   7   3    3.26    0.13
   5   7   3    3.35    0.15
   5   7   3    3.51    0.15
  -6  -7  -3    7.35    0.20
   6   7   3    7.89    0.22
  -7  -7  -3    2.30    0.11
   7   7   3    2.26    0.13
   8   7   3    4.84    0.19
   5  -8  -3    1.30    0.08
   4  -8  -3    7.66    0.19
  -4   8   3    7.51    0.19
   3  -8  -3    2.40    0.10
  -3   8   3    2.36    0.10
   2  -8  -3    5.61    0.15
  -2   8   3    5.63    0.15
   1  -8  -3   -0.03    0.03
  -1   8   3    0.06    0.04
   0  -8  -3   32.18    0.57
   0   8   3   31.50    0.58
   1   8   3    0.59    0.06
  -2  -8  -3   18.00    0.37
  -2  -8  -3   17.91    0.32
   2   8   3   17.86    0.38
  -3  -8  -3   13.40    0.31
  -3  -8  -3   12.84    0.26
   3   8   3   13.33    0.31
   3   8   3   13.29    0.31
  -4  -8  -3    0.19    0.06
  -4  -8  -3    0.05    0.04
   4   8   3    0.12    0.06
   4   8   3    0.12    0.06
   4   8   3    0.08    0.03
  -5  -8  -3    6.56    0.21
  -5  -8  -3    6.48    0.18
   5   8   3    6.24    0.21
   5   8   3    6.15    0.17
   5   8   3    6.39    0.21
  -6  -8  -3    6.45    0.19
  -6  -8  -3    6.55    0.22
   6   8   3    6.48    0.19
  -7  -8  -3   16.86    0.35
   7   8   3   16.08    0.39
   4  -9  -3    0.04    0.04
   3  -9  -3    3.44    0.12
   2  -9  -3    0.13    0.04
  -2   9   3    0.23    0.05
   1  -9  -3    0.88    0.07
  -1   9   3    0.94    0.07
   0   9   3    2.00    0.10
  -1  -9  -3    0.05    0.04
   1   9   3    0.03    0.04
  -2  -9  -3    1.50    0.07
  -2  -9  -3    1.52    0.09
   2   9   3    1.39    0.10
  -3  -9  -3    1.48    0.10
  -3  -9  -3    1.56    0.08
   3   9   3    1.47    0.10
   3   9   3    1.72    0.11
  -4  -9  -3    5.47    0.16
  -4  -9  -3    5.55    0.19
   4   9   3    5.34    0.19
   4   9   3    5.37    0.19
  -5  -9  -3    3.57    0.16
  -5  -9  -3    3.62    0.14
   5   9   3    3.52    0.16
   5   9   3    3.66    0.17
   5   9   3    3.59    0.10
  -6  -9  -3    0.04    0.05
  -6  -9  -3   -0.04    0.05
   6   9   3    0.01    0.03
   2 -10  -3    0.03    0.04
   0 -10  -3    0.23    0.05
  -1 -10  -3    4.34    0.15
  -2 -10  -3    0.17    0.04
  -2 -10  -3    0.16    0.06
   2  10   3    0.10    0.06
  -3 -10  -3    5.23    0.16
  -3 -10  -3    5.58    0.19
   3  10   3    5.05    0.19
  -4 -10  -3    0.02    0.04
  -4 -10  -3    0.03    0.05
   4  10   3   -0.07    0.06
  -5 -10  -3    0.93    0.10
  -5 -10  -3    0.76    0.08
  -5  -9   4   19.34    0.40
  -5  -9   4   19.79    0.45
   4   9  -4    0.35    0.08
  -4  -9   4    0.26    0.06
  -4  -9   4    0.26    0.05
   3   9  -4    3.32    0.14
  -3  -9   4    3.38    0.14
   2   9  -4   -0.02    0.05
  -2  -9   4    0.01    0.04
   1   9  -4   32.74    0.60
   1   9  -4   32.69    0.60
  -1  -9   4   33.43    0.60
   0   9  -4    1.38    0.08
   0   9  -4    1.36    0.07
   0  -9   4    1.48    0.07
  -1   9  -4    0.17    0.04
  -1   9  -4    0.22    0.03
   1  -9   4    0.19    0.03
  -2   9  -4   -0.02    0.03
   6   8  -4    8.75    0.27
  -6  -8   4    8.87    0.27
  -6  -8   4    8.60    0.23
   5   8  -4    1.77    0.12
   5   8  -4    1.76    0.12
  -5  -8   4    1.98    0.12
  -5  -8   4    1.95    0.10
   4   8  -4    1.05    0.10
   4   8  -4    1.21    0.10
  -4  -8   4    1.07    0.09
  -4  -8   4    1.23    0.08
   3   8  -4    0.59    0.07
   3   8  -4    0.64    0.07
  -3  -8   4    0.56    0.07
  -3  -8   4    0.63    0.05
   2   8  -4    2.24    0.10
   2   8  -4    2.44    0.11
  -2  -8   4    2.31    0.10
   1   8  -4    0.07    0.04
   1   8  -4    0.18    0.04
  -1  -8   4    0.12    0.04
   0   8  -4    0.05    0.03
   0   8  -4    0.11    0.04
   0  -8   4    0.10    0.04
  -1   8  -4    1.93    0.06
  -1   8  -4    2.02    0.07
   1  -8   4    1.90    0.06
  -2   8  -4    0.39    0.03
   7   7  -4    0.49    0.07
  -7  -7   4    0.52    0.07
   6   7  -4    2.44    0.14
   6   7  -4    2.63    0.14
   6   7  -4    2.28    0.10
  -6  -7   4    2.35    0.13
  -6  -7   4    2.43    0.11
   5   7  -4    0.52    0.08
   5   7  -4    0.62    0.08
   5   7  -4    0.51    0.04
  -5  -7   4    0.50    0.06
  -5  -7   4    0.39    0.07
   4   7  -4   12.53    0.30
   4   7  -4   12.39    0.30
  -4  -7   4   12.58    0.26
  -4  -7   4   12.51    0.30
   3   7  -4   11.61    0.27
   3   7  -4   11.58    0.28
  -3  -7   4   11.92    0.27
  -3  -7   4   11.98    0.23
   2   7  -4   33.10    0.61
   2   7  -4   34.56    0.62
  -2  -7   4   33.60    0.61
   1   7  -4   14.69    0.30
   1   7  -4   14.71    0.30
  -1  -7   4   14.79    0.29
   0   7  -4   10.69    0.22
   0   7  -4   10.61    0.22
   0  -7   4   10.69    0.21
  -1   7  -4    1.83    0.06
  -1   7  -4    1.84    0.06
   1  -7   4    1.85    0.06
  -4   7  -4    0.66    0.04
   8   6  -4   13.25    0.35
  -8  -6   4   13.94    0.31
   7   6  -4    0.39    0.06
  -7  -6   4    0.48    0.07
   6   6  -4    1.41    0.09
   6   6  -4    1.43    0.11
   6   6  -4    1.20    0.10
  -6  -6   4    1.24    0.10
  -6  -6   4    1.32    0.09
   5   6  -4    5.19    0.15
   5   6  -4    5.10    0.18
   5   6  -4    4.79    0.18
  -5  -6   4    5.12    0.15
  -5  -6   4    5.26    0.18
   4   6  -4    0.72    0.08
   4   6  -4    0.54    0.07
   4   6  -4    0.66    0.05
  -4  -6   4    0.63    0.06
  -4  -6   4    0.76    0.07
   3   6  -4    3.41    0.13
   3   6  -4    3.55    0.13
  -3  -6   4    3.62    0.13
  -3  -6   4    3.40    0.10
   2   6  -4   65.00    1.09
   2   6  -4   63.00    1.07
  -2  -6   4   63.87    1.07
   1   6  -4   19.43    0.36
   1   6  -4   19.40    0.37
  -1  -6   4   19.67    0.36
   0   6  -4   27.41    0.47
   0   6  -4   27.71    0.48
   0  -6   4   27.18    0.47
  -1   6  -4    5.75    0.12
  -1   6  -4    5.84    0.12
  -1   6  -4    5.70    0.12
  -1   6  -4    5.81    0.12
   1  -6   4    5.98    0.12
   1  -6   4    5.68    0.12
  -4   6  -4    0.51    0.04
   4  -6   4    0.55    0.03
  -5   6  -4   -0.03    0.03
   5  -6   4   -0.03    0.03
   6  -6   4    9.68    0.20
   8   5  -4    4.22    0.17
   7   5  -4    1.70    0.11
  -7  -5   4    1.76    0.10
   6   5  -4   -0.04    0.04
   6   5  -4    0.04    0.05
   6   5  -4   -0.01    0.05
  -6  -5   4   -0.05    0.04
  -6  -5   4   -0.04    0.05
   5   5  -4   19.11    0.39
   5   5  -4   19.21    0.41
   5   5  -4   18.47    0.41
  -5  -5   4   19.56    0.41
  -5  -5   4   18.88    0.36
   4   5  -4    0.26    0.05
   4   5  -4    0.28    0.04
   4   5  -4    0.33    0.06
  -4  -5   4    0.24    0.04
  -4  -5   4    0.23    0.05
   3   5  -4   32.91    0.60
   3   5  -4   33.57    0.58
   3   5  -4   33.03    0.61
  -3  -5   4   33.31    0.54
  -3  -5   4   33.28    0.60
   2   5  -4    5.18    0.15
   2   5  -4    5.36    0.14
  -2  -5   4    5.38    0.14
   1   5  -4   75.53    1.23
   1   5  -4   75.09    1.21
  -1  -5   4   73.85    1.21
   0   5  -4   13.45    0.25
   0   5  -4   13.50    0.24
   0   5  -4   13.20    0.24
   0   5  -4   13.01    0.24
   0  -5   4   12.99    0.24
   0  -5   4   12.82    0.24
  -1   5  -4    5.13    0.10
  -1   5  -4    5.29    0.10
  -1   5  -4    5.06    0.10
   1  -5   4    5.04    0.10
   1  -5   4    5.00    0.10
   3  -5   4    5.58    0.10
  -4   5  -4    0.02    0.02
  -4   5  -4   -0.02    0.02
  -4   5  -4    0.03    0.02
   4  -5   4    0.03    0.02
  -5   5  -4    2.68    0.08
  -5   5  -4    2.67    0.09
   5  -5   4    2.58    0.08
  -6   5  -4    1.14    0.07
   6  -5   4    1.07    0.06
   7  -5   4    3.45    0.12
   9   4  -4   15.99    0.41
  -9  -4   4   16.04    0.42
   8   4  -4    0.06    0.05
  -8  -4   4    0.04    0.05
   7   4  -4    6.21    0.21
  -7  -4   4    6.58    0.17
  -7  -4   4    6.67    0.22
   6   4  -4    0.29    0.05
  -6  -4   4    0.21    0.05
   5   4  -4    1.04    0.08
   5   4  -4    1.10    0.08
   5   4  -4    0.96    0.08
  -5  -4   4    1.11    0.08
   4   4  -4    1.81    0.10
   4   4  -4    1.84    0.08
   4   4  -4    1.90    0.10
  -4  -4   4    1.74    0.08
  -4  -4   4    1.73    0.09
   3   4  -4    0.03    0.04
   3   4  -4    0.06    0.04
   3   4  -4    0.04    0.03
  -3  -4   4   -0.01    0.03
  -3  -4   4    0.07    0.03
   2   4  -4   27.85    0.49
   2   4  -4   27.19    0.46
   2   4  -4   28.30    0.51
   2   4  -4   26.87    0.49
   2   4  -4   26.87    0.49
   2   4  -4   27.32    0.46
  -2  -4   4   27.14    0.48
  -2  -4   4   27.50    0.43
   1   4  -4    4.68    0.12
   1   4  -4    4.74    0.11
   1   4  -4    4.55    0.12
   1   4  -4    4.70    0.12
  -1  -4   4    4.50    0.11
  -1  -4   4    4.55    0.11
   0   4  -4   46.45    0.77
   0   4  -4   47.56    0.77
   0   4  -4   46.78    0.79
   0   4  -4   46.85    0.76
   0  -4   4   47.03    0.75
   0  -4   4   46.37    0.75
  -1   4  -4  116.27    1.84
  -1   4  -4  116.96    1.84
   1  -4   4  115.73    1.80
   1  -4   4  114.51    1.80
  -3   4  -4   11.10    0.19
  -3   4  -4   10.85    0.20
  -3   4  -4   10.96    0.19
  -3   4  -4   10.76    0.19
  -3   4  -4   11.00    0.19
   3  -4   4   11.01    0.19
   3  -4   4   10.74    0.19
  -4   4  -4    0.71    0.04
  -4   4  -4    0.58    0.04
  -4   4  -4    0.76    0.04
   4  -4   4    0.63    0.04
  -5   4  -4    0.52    0.05
  -5   4  -4    0.55    0.05
  -5   4  -4    0.58    0.05
   5  -4   4    0.51    0.05
  -6   4  -4    0.09    0.04
  -6   4  -4    0.10    0.04
   6  -4   4    0.11    0.04
  -7   4  -4    4.95    0.16
   7  -4   4    4.94    0.15
  -9  -3   4    6.73    0.24
   8   3  -4    4.11    0.17
  -8  -3   4    3.82    0.17
   7   3  -4    8.73    0.25
   6   3  -4    2.78    0.09
   6   3  -4    2.51    0.12
  -6  -3   4    2.60    0.13
  -6  -3   4    2.81    0.10
   5   3  -4    2.25    0.07
   5   3  -4    2.23    0.10
   5   3  -4    2.32    0.11
   5   3  -4    2.39    0.11
  -5  -3   4    2.09    0.11
  -5  -3   4    2.28    0.11
  -5  -3   4    2.31    0.09
   4   3  -4   39.41    0.73
   4   3  -4   40.29    0.72
   4   3  -4   38.86    0.71
  -4  -3   4   40.73    0.74
  -4  -3   4   40.35    0.71
  -4  -3   4   40.26    0.65
   3   3  -4    0.04    0.03
   3   3  -4    0.03    0.03
   3   3  -4    0.04    0.03
   3   3  -4    0.09    0.04
   3   3  -4    0.08    0.04
  -3  -3   4    0.04    0.03
  -3  -3   4    0.03    0.03
  -3  -3   4    0.06    0.03
  -3  -3   4    0.03    0.03
  -3  -3   4    0.07    0.03
   2   3  -4   33.88    0.59
   2   3  -4   33.38    0.59
   2   3  -4   34.76    0.60
  -2  -3   4   33.29    0.54
  -2  -3   4   34.75    0.59
  -2  -3   4   34.80    0.59
  -2  -3   4   34.60    0.61
   1   3  -4    1.42    0.06
   1   3  -4    1.42    0.06
   1   3  -4    1.33    0.06
   1   3  -4    1.47    0.06
  -1  -3   4    1.39    0.05
  -1  -3   4    1.36    0.06
   0   3  -4    9.30    0.18
   0   3  -4    8.95    0.17
   0   3  -4    9.33    0.17
   0   3  -4    9.42    0.17
   0  -3   4    9.36    0.17
   0  -3   4    9.27    0.17
  -1   3  -4   90.98    1.44
  -1   3  -4   91.06    1.44
   1  -3   4   87.67    1.41
   1  -3   4   91.99    1.41
  -2   3  -4   17.10    0.28
  -2   3  -4   16.97    0.28
   2  -3   4   16.91    0.28
  -3   3  -4   34.37    0.56
  -3   3  -4   34.39    0.59
  -3   3  -4   34.90    0.58
  -3   3  -4   34.97    0.56
  -3   3  -4   34.28    0.57
   3  -3   4   35.61    0.56
   3  -3   4   34.52    0.56
  -4   3  -4    0.86    0.05
  -4   3  -4    0.96    0.05
   4  -3   4    0.70    0.05
  -5   3  -4    0.10    0.04
  -5   3  -4    0.13    0.04
  -5   3  -4    0.13    0.04
   5  -3   4    0.16    0.04
  -6   3  -4    7.56    0.19
  -6   3  -4    7.66    0.20
  -6   3  -4    7.74    0.19
   6  -3   4    7.71    0.19
  -7   3  -4    0.42    0.06
   7  -3   4    0.40    0.06
   8  -3   4    0.43    0.06
   9   2  -4    1.79    0.09
  -9  -2   4    1.75    0.12
   8   2  -4   16.59    0.33
  -8  -2   4   16.22    0.39
   7   2  -4    4.90    0.18
   7   2  -4    4.86    0.14
  -7  -2   4    4.79    0.17
   6   2  -4   11.70    0.24
   6   2  -4   11.58    0.29
  -6  -2   4   11.08    0.28
  -6  -2   4   11.63    0.23
   5   2  -4    2.29    0.10
   5   2  -4    2.41    0.08
   5   2  -4    2.42    0.11
   5   2  -4    2.41    0.11
   5   2  -4    2.37    0.11
  -5  -2   4    2.28    0.09
  -5  -2   4    2.45    0.11
  -5  -2   4    2.58    0.11
  -5  -2   4    2.43    0.11
  -5  -2   4    2.46    0.11
   4   2  -4    0.53    0.06
   4   2  -4    0.54    0.05
   4   2  -4    0.55    0.06
   4   2  -4    0.59    0.04
   4   2  -4    0.75    0.06
  -4  -2   4    0.52    0.06
  -4  -2   4    0.61    0.06
  -4  -2   4    0.57    0.06
  -4  -2   4    0.52    0.05
  -4  -2   4    0.60    0.05
   3   2  -4   27.75    0.44
   3   2  -4   27.51    0.49
   3   2  -4   26.82    0.50
   3   2  -4   27.55    0.50
   3   2  -4   27.34    0.51
   3   2  -4   27.82    0.52
  -3  -2   4   28.39    0.50
  -3  -2   4   27.75    0.49
  -3  -2   4   28.32    0.52
  -3  -2   4   28.09    0.52
   2   2  -4    0.56    0.04
   2   2  -4    0.59    0.05
   2   2  -4    0.78    0.05
   2   2  -4    0.67    0.05
   2   2  -4    0.65    0.04
   2   2  -4    0.73    0.05
  -2  -2   4    0.63    0.04
  -2  -2   4    0.70    0.05
  -2  -2   4    0.70    0.05
  -2  -2   4    0.67    0.05
  -2  -2   4    0.65    0.05
   1   2  -4   23.36    0.41
   1   2  -4   23.82    0.41
   1   2  -4   23.99    0.41
   1   2  -4   23.56    0.41
   1   2  -4   23.72    0.42
   1   2  -4   23.73    0.41
  -1  -2   4   23.30    0.40
  -1  -2   4   23.28    0.40
  -1  -2   4   23.71    0.41
  -1  -2   4   23.82    0.36
  -1  -2   4   24.12    0.42
   0   2  -4   25.66    0.45
   0   2  -4   26.13    0.44
   0   2  -4   26.39    0.43
   0   2  -4   26.15    0.44
   0  -2   4   25.76    0.43
   0  -2   4   26.43    0.43
  -1   2  -4   40.25    0.64
  -1   2  -4   40.45    0.63
  -1   2  -4   38.75    0.64
   1  -2   4   39.01    0.63
   1  -2   4   40.09    0.63
  -2   2  -4    2.87    0.07
  -2   2  -4    2.88    0.06
  -2   2  -4    2.95    0.06
  -2   2  -4    2.79    0.07
   2  -2   4    2.94    0.07
  -3   2  -4    0.55    0.04
  -3   2  -4    0.46    0.03
  -3   2  -4    0.40    0.03
  -3   2  -4    0.48    0.04
  -3   2  -4    0.44    0.04
   3  -2   4    0.51    0.04
   3  -2   4    0.49    0.03
  -4   2  -4   46.44    0.77
  -4   2  -4   45.49    0.77
  -4   2  -4   45.81    0.80
  -4   2  -4   45.66    0.76
   4  -2   4   46.01    0.76
  -5   2  -4    5.28    0.14
  -5   2  -4    5.29    0.15
  -5   2  -4    5.47    0.15
   5  -2   4    5.43    0.14
  -6   2  -4    6.92    0.19
  -6   2  -4    7.07    0.19
  -6   2  -4    7.06    0.18
   6  -2   4    6.73    0.18
  -7   2  -4    1.12    0.08
  -7   2  -4    1.18    0.09
  -7   2  -4    1.26    0.09
   7  -2   4    1.26    0.08
   7  -2   4    1.20    0.06
  -8   2  -4    0.08    0.06
   8  -2   4    0.16    0.05
   8  -2   4    0.20    0.04
   9   1  -4    5.10    0.16
  -9  -1   4    4.87    0.18
   8   1  -4    3.12    0.12
  -8  -1   4    3.23    0.14
   7   1  -4    1.32    0.08
   7   1  -4    1.58    0.10
  -7  -1   4    1.61    0.11
  -7  -1   4    1.43    0.10
   6   1  -4   16.24    0.36
   6   1  -4   15.66    0.35
   6   1  -4   16.34    0.31
  -6  -1   4   15.77    0.36
  -6  -1   4   16.10    0.37
  -6  -1   4   15.52    0.35
   5   1  -4   10.94    0.26
   5   1  -4   11.04    0.25
   5   1  -4   10.99    0.26
   5   1  -4   11.35    0.22
  -5  -1   4   10.86    0.26
  -5  -1   4   11.15    0.21
  -5  -1   4   10.69    0.27
  -5  -1   4   10.80    0.26
   4   1  -4    5.44    0.15
   4   1  -4    6.05    0.16
   4   1  -4    5.72    0.16
   4   1  -4    6.01    0.16
   4   1  -4    5.96    0.13
  -4  -1   4    5.88    0.16
  -4  -1   4    6.03    0.16
  -4  -1   4    6.02    0.13
  -4  -1   4    5.62    0.16
  -4  -1   4    5.87    0.15
   3   1  -4    3.16    0.10
   3   1  -4    3.20    0.08
   3   1  -4    3.33    0.11
   3   1  -4    3.25    0.10
   3   1  -4    3.20    0.10
  -3  -1   4    2.90    0.10
  -3  -1   4    3.31    0.11
  -3  -1   4    3.10    0.10
  -3  -1   4    3.06    0.08
   2   1  -4   43.04    0.75
   2   1  -4   43.83    0.67
   2   1  -4   43.77    0.73
   2   1  -4   44.20    0.76
   2   1  -4   45.38    0.72
   2   1  -4   42.27    0.74
  -2  -1   4   43.14    0.72
  -2  -1   4   44.30    0.74
  -2  -1   4   42.74    0.68
  -2  -1   4   43.47    0.76
  -2  -1   4   43.20    0.76
   1   1  -4   48.00    0.80
   1   1  -4   47.66    0.82
   1   1  -4   48.20    0.79
   1   1  -4   48.09    0.78
   1   1  -4   50.31    0.83
  -1  -1   4   48.77    0.82
  -1  -1   4   47.00    0.74
  -1  -1   4   49.23    0.79
  -1  -1   4   46.72    0.78
   0   1  -4   37.51    0.64
   0   1  -4   37.90    0.62
   0   1  -4   37.20    0.62
   0   1  -4   37.82    0.62
   0   1  -4   38.47    0.62
   0   1  -4   37.01    0.61
   0  -1   4   37.42    0.61
   0  -1   4   37.21    0.61
   0  -1   4   37.67    0.61
  -1   1  -4   20.72    0.35
  -1   1  -4   20.50    0.34
  -1   1  -4   21.17    0.35
   1  -1   4   21.22    0.34
   1  -1   4   20.66    0.34
  -2   1  -4    1.84    0.06
  -2   1  -4    1.80    0.06
  -2   1  -4    1.86    0.06
  -2   1  -4    1.84    0.06
   2  -1   4    1.72    0.05
  -3   1  -4    1.08    0.05
  -3   1  -4    1.04    0.05
  -3   1  -4    1.14    0.05
  -3   1  -4    1.14    0.05
  -3   1  -4    1.19    0.05
   3  -1   4    1.14    0.05
   3  -1   4    1.09    0.05
  -4   1  -4    0.32    0.04
  -4   1  -4    0.41    0.04
  -4   1  -4    0.47    0.04
  -4   1  -4    0.42    0.04
  -4   1  -4    0.41    0.04
   4  -1   4    0.36    0.04
  -5   1  -4    1.26    0.07
  -5   1  -4    1.34    0.08
  -5   1  -4    1.28    0.07
   5  -1   4    1.39    0.05
   5  -1   4    1.32    0.07
  -6   1  -4   20.07    0.40
  -6   1  -4   19.86    0.42
  -6   1  -4   19.70    0.40
   6  -1   4   20.03    0.39
   6  -1   4   20.08    0.34
  -7   1  -4   -0.07    0.05
  -7   1  -4    0.01    0.05
  -7   1  -4    0.01    0.05
   7  -1   4   -0.06    0.03
   7  -1   4   -0.03    0.04
  -8   1  -4    0.53    0.08
   8  -1   4    0.61    0.06
   8  -1   4    0.58    0.07
   9  -1   4    2.57    0.14
   9  -1   4    2.70    0.11
   9   0  -4    3.42    0.13
  -9   0   4    3.18    0.13
   8   0  -4    1.30    0.08
   8   0  -4    1.48    0.11
  -8   0   4    1.41    0.11
  -8   0   4    1.43    0.09
   7   0  -4   10.90    0.28
   7   0  -4   11.02    0.24
  -7   0   4   10.79    0.30
  -7   0   4   10.68    0.27
  -7   0   4   11.29    0.29
   6   0  -4    1.27    0.09
   6   0  -4    1.08    0.06
  -6   0   4    1.15    0.09
  -6   0   4    1.18    0.09
  -6   0   4    1.19    0.08
   5   0  -4   38.15    0.69
   5   0  -4   37.62    0.66
   5   0  -4   37.21    0.61
  -5   0   4   36.34    0.68
  -5   0   4   37.16    0.68
  -5   0   4   36.10    0.70
   4   0  -4   43.48    0.77
   4   0  -4   42.22    0.69
   4   0  -4   43.64    0.74
   4   0  -4   42.98    0.74
   4   0  -4   43.69    0.75
  -4   0   4   43.94    0.67
  -4   0   4   41.18    0.78
  -4   0   4   42.69    0.77
  -4   0   4   42.52    0.75
  -4   0   4   42.73    0.73
   3   0  -4   84.86    1.43
   3   0  -4   83.77    1.29
   3   0  -4   85.63    1.36
   3   0  -4   83.61    1.37
   3   0  -4   84.74    1.39
  -3   0   4   84.69    1.36
  -3   0   4   83.45    1.43
  -3   0   4   83.84    1.39
  -3   0   4   86.38    1.29
  -3   0   4   81.51    1.44
   2   0  -4   36.41    0.63
   2   0  -4   35.95    0.56
   2   0  -4   35.75    0.60
   2   0  -4   35.32    0.60
   2   0  -4   34.85    0.61
  -2   0   4   35.21    0.63
  -2   0   4   34.86    0.61
  -2   0   4   36.67    0.63
  -2   0   4   36.12    0.56
  -2   0   4   35.06    0.60
   1   0  -4    6.71    0.12
   1   0  -4    6.50    0.14
   1   0  -4    6.86    0.14
   1   0  -4    6.82    0.14
   1   0  -4    6.68    0.14
   1   0  -4    6.91    0.14
   1   0  -4    6.80    0.15
  -1   0   4    6.75    0.14
  -1   0   4    6.77    0.14
  -1   0   4    6.45    0.14
  -1   0   4    6.59    0.14
  -1   0   4    6.65    0.12
   0   0  -4   36.01    0.60
   0   0  -4   35.13    0.59
   0   0  -4   35.34    0.59
   0   0  -4   36.09    0.61
   0   0  -4   34.35    0.58
   0   0   4   35.40    0.54
   0   0   4   35.47    0.58
   0   0   4   35.19    0.57
  -1   0  -4   24.46    0.41
  -1   0  -4   24.05    0.41
  -1   0  -4   24.39    0.42
   1   0   4   24.39    0.41
   1   0   4   24.78    0.40
   1   0   4   24.61    0.37
   1   0   4   24.36    0.41
  -2   0  -4   16.68    0.29
  -2   0  -4   17.07    0.30
  -2   0  -4   16.31    0.30
  -2   0  -4   16.32    0.29
  -2   0  -4   16.43    0.29
  -2   0  -4   16.67    0.31
   2   0   4   16.53    0.29
   2   0   4   17.01    0.26
   2   0   4   16.77    0.29
   2   0   4   17.03    0.29
  -3   0  -4  130.74    2.20
  -3   0  -4  132.73    2.22
  -3   0  -4  131.60    2.20
  -3   0  -4  134.66    2.11
  -3   0  -4  133.32    2.14
  -3   0  -4  130.42    2.13
   3   0   4  134.97    2.13
   3   0   4  134.13    2.00
   3   0   4  133.07    2.10
   3   0   4  131.98    2.10
  -4   0  -4    5.11    0.14
  -4   0  -4    5.51    0.14
  -4   0  -4    5.53    0.14
  -4   0  -4    5.43    0.12
   4   0   4    5.26    0.11
   4   0   4    5.30    0.14
   4   0   4    5.51    0.14
  -5   0  -4   10.70    0.24
  -5   0  -4   10.53    0.24
  -5   0  -4   10.61    0.25
  -5   0  -4   10.60    0.21
   5   0   4   10.52    0.20
   5   0   4   10.57    0.23
  -6   0  -4    6.40    0.19
  -6   0  -4    6.28    0.14
  -6   0  -4    6.49    0.19
  -6   0  -4    6.42    0.18
   6   0   4    6.69    0.18
   6   0   4    6.41    0.15
  -7   0  -4    6.35    0.19
  -7   0  -4    6.57    0.14
  -7   0  -4    6.43    0.21
  -7   0  -4    6.51    0.20
   7   0   4    6.54    0.19
   7   0   4    6.39    0.16
  -8   0  -4    1.03    0.10
  -8   0  -4    1.10    0.10
   8   0   4    1.20    0.07
   8   0   4    1.12    0.09
   9   0   4    0.66    0.07
   9   0   4    0.60    0.08
   9  -1  -4    0.30    0.07
   9  -1  -4    0.21    0.05
  -9   1   4    0.19    0.04
  -9   1   4    0.10    0.07
   8  -1  -4    9.36    0.23
   8  -1  -4   10.47    0.28
  -8   1   4    9.49    0.23
  -8   1   4    9.82    0.29
  -8   1   4   10.42    0.29
   7  -1  -4   30.18    0.59
   7  -1  -4   30.22    0.53
  -7   1   4   29.95    0.61
  -7   1   4   30.61    0.58
  -7   1   4   30.56    0.63
   6  -1  -4    0.00    0.03
   6  -1  -4   -0.07    0.04
  -6   1   4    0.01    0.05
  -6   1   4    0.05    0.04
  -6   1   4    0.02    0.04
   5  -1  -4    3.79    0.10
   5  -1  -4    3.48    0.12
  -5   1   4    3.66    0.13
  -5   1   4    3.70    0.12
  -5   1   4    3.67    0.13
   4  -1  -4   54.19    0.91
   4  -1  -4   52.49    0.84
   4  -1  -4   52.91    0.89
   4  -1  -4   53.79    0.90
   4  -1  -4   54.97    0.94
  -4   1   4   50.98    0.94
  -4   1   4   52.85    0.93
  -4   1   4   55.29    0.89
  -4   1   4   51.78    0.91
   3  -1  -4   12.87    0.26
   3  -1  -4   13.27    0.23
   3  -1  -4   12.93    0.26
   3  -1  -4   13.52    0.27
   3  -1  -4   13.30    0.26
  -3   1   4   13.57    0.26
  -3   1   4   12.86    0.27
  -3   1   4   13.15    0.27
  -3   1   4   13.17    0.26
  -3   1   4   13.26    0.21
   2  -1  -4   20.26    0.33
   2  -1  -4   20.39    0.36
   2  -1  -4   21.38    0.38
   2  -1  -4   20.87    0.36
   2  -1  -4   20.33    0.37
  -2   1   4   19.94    0.37
  -2   1   4   20.61    0.38
  -2   1   4   21.15    0.36
  -2   1   4   20.71    0.33
  -2   1   4   20.44    0.37
  -2   1   4   20.81    0.39
   1  -1  -4    1.26    0.04
   1  -1  -4    1.31    0.06
   1  -1  -4    1.34    0.06
   1  -1  -4    1.30    0.05
   1  -1  -4    1.27    0.06
   1  -1  -4    1.32    0.05
  -1   1   4    1.22    0.05
  -1   1   4    1.34    0.06
  -1   1   4    1.31    0.05
  -1   1   4    1.28    0.06
  -1   1   4    1.22    0.04
  -1   1   4    1.40    0.06
   0  -1  -4    2.64    0.07
   0  -1  -4    2.66    0.08
   0  -1  -4    2.63    0.07
   0  -1  -4    2.88    0.07
   0  -1  -4    2.82    0.06
   0  -1  -4    2.59    0.07
   0   1   4    2.88    0.08
   0   1   4    2.77    0.07
   0   1   4    2.67    0.08
   0   1   4    2.64    0.06
  -1  -1  -4    6.98    0.15
  -1  -1  -4    7.20    0.15
  -1  -1  -4    6.98    0.14
  -1  -1  -4    7.31    0.13
  -1  -1  -4    7.33    0.14
  -1  -1  -4    6.94    0.15
   1   1   4    7.44    0.15
   1   1   4    7.07    0.13
   1   1   4    7.28    0.14
   1   1   4    7.00    0.15
  -2  -1  -4  299.26    4.93
  -2  -1  -4  291.83    4.88
  -2  -1  -4  300.91    5.12
  -2  -1  -4  302.26    5.08
  -2  -1  -4  306.66    4.85
  -2  -1  -4  308.65    4.58
  -2  -1  -4  304.16    4.79
   2   1   4  310.22    5.05
   2   1   4  314.96    4.88
   2   1   4  301.33    4.63
   2   1   4  301.88    4.81
   2   1   4  308.22    4.86
  -3  -1  -4   13.91    0.28
  -3  -1  -4   14.29    0.27
  -3  -1  -4   14.44    0.28
  -3  -1  -4   14.33    0.28
  -3  -1  -4   14.02    0.27
  -3  -1  -4   14.44    0.29
   3   1   4   14.00    0.24
   3   1   4   14.66    0.28
   3   1   4   14.44    0.27
   3   1   4   14.54    0.27
   3   1   4   14.34    0.27
  -4  -1  -4   27.57    0.50
  -4  -1  -4   27.37    0.50
  -4  -1  -4   27.55    0.48
  -4  -1  -4   27.10    0.49
  -4  -1  -4   26.62    0.50
  -4  -1  -4   26.72    0.52
   4   1   4   27.88    0.48
   4   1   4   28.11    0.50
   4   1   4   27.78    0.49
   4   1   4   26.91    0.45
   4   1   4   27.90    0.49
  -5  -1  -4    2.11    0.09
  -5  -1  -4    2.22    0.09
  -5  -1  -4    2.03    0.09
  -5  -1  -4    2.09    0.10
   5   1   4    1.97    0.09
   5   1   4    2.12    0.07
  -6  -1  -4    0.20    0.06
  -6  -1  -4    0.31    0.06
  -6  -1  -4    0.15    0.05
  -6  -1  -4    0.13    0.04
   6   1   4    0.21    0.04
   6   1   4    0.19    0.05
  -7  -1  -4   31.79    0.64
  -7  -1  -4   31.92    0.59
  -7  -1  -4   30.79    0.62
  -7  -1  -4   31.43    0.61
   7   1   4   31.65    0.55
   7   1   4   32.24    0.60
  -8  -1  -4    0.95    0.10
  -8  -1  -4    0.86    0.06
  -8  -1  -4    0.88    0.10
   8   1   4    0.83    0.07
   8   1   4    0.89    0.09
  -9  -1  -4   12.67    0.27
  -9  -1  -4   13.31    0.35
   9   1   4   13.13    0.34
   9   1   4   12.00    0.28
   9  -2  -4    0.33    0.07
   9  -2  -4    0.37    0.06
   8  -2  -4    3.22    0.12
   8  -2  -4    3.42    0.15
  -8   2   4    3.14    0.15
   7  -2  -4    4.78    0.14
   7  -2  -4    4.66    0.17
  -7   2   4    4.76    0.18
  -7   2   4    4.56    0.12
  -7   2   4    4.54    0.17
   6  -2  -4    9.03    0.23
   6  -2  -4    9.01    0.20
  -6   2   4    9.00    0.20
  -6   2   4    8.91    0.24
  -6   2   4    9.25    0.25
   5  -2  -4   14.91    0.31
   5  -2  -4   14.51    0.27
  -5   2   4   14.54    0.32
  -5   2   4   15.02    0.29
  -5   2   4   14.78    0.33
   4  -2  -4    4.36    0.13
   4  -2  -4    4.29    0.10
  -4   2   4    4.36    0.11
  -4   2   4    4.58    0.14
  -4   2   4    4.55    0.13
   3  -2  -4   13.61    0.26
   3  -2  -4   13.71    0.24
   3  -2  -4   13.80    0.27
   3  -2  -4   14.29    0.27
  -3   2   4   13.53    0.27
  -3   2   4   14.13    0.29
  -3   2   4   13.78    0.28
  -3   2   4   13.74    0.27
  -3   2   4   13.86    0.28
   2  -2  -4  100.22    1.59
   2  -2  -4   99.89    1.59
   2  -2  -4   98.79    1.51
   2  -2  -4  102.45    1.62
  -2   2   4   99.48    1.62
  -2   2   4   98.38    1.60
  -2   2   4  100.55    1.68
  -2   2   4   98.31    1.62
  -2   2   4   99.19    1.67
   1  -2  -4   18.99    0.33
   1  -2  -4   18.87    0.33
   1  -2  -4   19.22    0.34
   1  -2  -4   19.15    0.30
  -1   2   4   18.83    0.34
  -1   2   4   19.10    0.34
  -1   2   4   18.71    0.33
  -1   2   4   18.65    0.34
  -1   2   4   19.07    0.35
   0  -2  -4  127.50    2.16
   0  -2  -4  129.48    1.98
   0  -2  -4  131.12    2.08
   0  -2  -4  130.05    2.04
   0  -2  -4  132.49    2.05
   0   2   4  130.74    2.15
   0   2   4  131.21    2.04
   0   2   4  126.26    2.08
   0   2   4  128.76    1.95
   0   2   4  129.98    2.08
  -1  -2  -4   26.16    0.45
  -1  -2  -4   26.34    0.46
  -1  -2  -4   25.89    0.44
  -1  -2  -4   25.14    0.41
  -1  -2  -4   25.91    0.47
  -1  -2  -4   26.05    0.44
   1   2   4   26.30    0.44
   1   2   4   25.49    0.45
   1   2   4   27.59    0.47
   1   2   4   25.72    0.41
  -2  -2  -4   61.46    1.02
  -2  -2  -4   61.24    1.06
  -2  -2  -4   61.75    0.95
  -2  -2  -4   60.83    1.01
  -2  -2  -4   63.28    1.05
   2   2   4   60.31    1.02
   2   2   4   61.28    1.00
   2   2   4   63.65    1.06
   2   2   4   61.38    0.95
  -3  -2  -4   59.96    1.04
  -3  -2  -4   58.66    0.99
  -3  -2  -4   59.31    1.05
  -3  -2  -4   59.64    1.01
  -3  -2  -4   59.70    0.93
  -3  -2  -4   60.83    1.00
   3   2   4   62.13    1.04
   3   2   4   60.62    0.94
   3   2   4   61.84    1.00
   3   2   4   61.25    0.99
   3   2   4   62.11    1.01
  -4  -2  -4   33.35    0.59
  -4  -2  -4   33.89    0.62
  -4  -2  -4   33.75    0.61
  -4  -2  -4   33.59    0.63
  -4  -2  -4   35.04    0.54
  -4  -2  -4   33.23    0.60
   4   2   4   35.03    0.60
   4   2   4   34.54    0.62
   4   2   4   34.24    0.61
   4   2   4   34.29    0.55
   4   2   4   34.23    0.60
  -5  -2  -4   11.59    0.27
  -5  -2  -4   11.89    0.26
  -5  -2  -4   11.69    0.27
  -5  -2  -4   11.56    0.26
   5   2   4   11.46    0.26
   5   2   4   11.77    0.23
   5   2   4   11.78    0.26
  -6  -2  -4   11.65    0.27
  -6  -2  -4   11.53    0.27
  -6  -2  -4   11.41    0.29
  -6  -2  -4   11.70    0.28
   6   2   4   11.84    0.27
   6   2   4   11.61    0.24
  -7  -2  -4    0.52    0.07
  -7  -2  -4    0.46    0.07
  -7  -2  -4    0.31    0.06
  -7  -2  -4    0.38    0.07
   7   2   4    0.36    0.06
   7   2   4    0.43    0.05
  -8  -2  -4    0.40    0.06
  -8  -2  -4    0.32    0.07
  -8  -2  -4    0.38    0.07
   8   2   4    0.42    0.07
   8   2   4    0.33    0.05
  -9  -2  -4   28.23    0.56
   9   2   4   28.07    0.53
   9   2   4   29.17    0.60
   8  -3  -4   -0.05    0.05
   8  -3  -4    0.04    0.04
  -8   3   4    0.02    0.06
   7  -3  -4    3.99    0.15
   7  -3  -4    4.02    0.12
  -7   3   4    4.19    0.16
  -7   3   4    4.34    0.17
   6  -3  -4   15.87    0.34
   6  -3  -4   15.44    0.29
  -6   3   4   15.52    0.36
  -6   3   4   15.22    0.34
   5  -3  -4    8.91    0.22
   5  -3  -4    8.87    0.18
  -5   3   4    8.90    0.22
  -5   3   4    8.48    0.22
   4  -3  -4   42.55    0.74
   4  -3  -4   43.04    0.68
  -4   3   4   42.65    0.73
  -4   3   4   43.71    0.78
  -4   3   4   44.31    0.73
  -4   3   4   43.67    0.76
   3  -3  -4    2.42    0.06
   3  -3  -4    2.48    0.09
  -3   3   4    2.42    0.09
  -3   3   4    2.31    0.09
  -3   3   4    2.43    0.06
  -3   3   4    2.46    0.09
  -3   3   4    2.42    0.08
  -3   3   4    2.32    0.06
   2  -3  -4   98.76    1.59
   2  -3  -4   99.25    1.62
   2  -3  -4   99.81    1.59
   2  -3  -4   99.89    1.51
  -2   3   4  100.69    1.63
  -2   3   4  101.63    1.66
  -2   3   4   98.81    1.60
  -2   3   4   99.89    1.63
  -2   3   4   99.25    1.66
  -2   3   4  101.61    1.69
   1  -3  -4    8.87    0.15
   1  -3  -4    8.64    0.18
   1  -3  -4    8.95    0.18
   1  -3  -4    8.90    0.18
  -1   3   4    8.27    0.18
  -1   3   4    8.69    0.19
  -1   3   4    8.73    0.17
  -1   3   4    8.75    0.18
  -1   3   4    8.74    0.17
   0  -3  -4    1.63    0.06
   0  -3  -4    1.65    0.06
   0  -3  -4    1.64    0.04
   0  -3  -4    1.59    0.06
   0  -3  -4    1.61    0.06
   0   3   4    1.70    0.06
   0   3   4    1.40    0.06
   0   3   4    1.63    0.06
   0   3   4    1.57    0.06
  -1  -3  -4   10.69    0.22
  -1  -3  -4   11.21    0.22
  -1  -3  -4   11.11    0.22
  -1  -3  -4   11.35    0.22
  -1  -3  -4   10.66    0.19
  -1  -3  -4   10.87    0.21
   1   3   4   11.05    0.18
   1   3   4   11.05    0.21
   1   3   4   11.04    0.22
   1   3   4   11.06    0.22
   1   3   4   11.11    0.23
   1   3   4   10.97    0.22
  -2  -3  -4    0.94    0.04
  -2  -3  -4    0.97    0.06
  -2  -3  -4    1.03    0.06
  -2  -3  -4    1.03    0.06
  -2  -3  -4    1.04    0.06
   2   3   4    0.94    0.05
   2   3   4    0.96    0.06
   2   3   4    0.89    0.05
   2   3   4    0.98    0.04
   2   3   4    0.95    0.06
  -3  -3  -4   12.04    0.25
  -3  -3  -4   11.62    0.26
  -3  -3  -4   11.75    0.25
  -3  -3  -4   12.30    0.22
  -3  -3  -4   12.25    0.25
  -3  -3  -4   12.16    0.26
   3   3   4   11.96    0.25
   3   3   4   12.02    0.22
   3   3   4   11.97    0.25
   3   3   4   11.91    0.24
   3   3   4   12.03    0.25
  -4  -3  -4   28.64    0.52
  -4  -3  -4   27.64    0.54
  -4  -3  -4   28.17    0.46
  -4  -3  -4   27.16    0.51
  -4  -3  -4   27.66    0.53
  -4  -3  -4   28.27    0.51
   4   3   4   27.30    0.52
   4   3   4   28.00    0.51
   4   3   4   28.59    0.53
   4   3   4   28.24    0.51
   4   3   4   28.43    0.47
  -5  -3  -4    3.75    0.14
  -5  -3  -4    3.61    0.14
  -5  -3  -4    3.56    0.10
  -5  -3  -4    3.72    0.13
  -5  -3  -4    3.46    0.13
   5   3   4    3.70    0.10
   5   3   4    3.70    0.13
   5   3   4    3.50    0.13
  -6  -3  -4   98.05    1.76
  -6  -3  -4  101.31    1.70
  -6  -3  -4  101.34    1.68
  -6  -3  -4  100.27    1.75
   6   3   4  101.51    1.57
   6   3   4   99.92    1.67
   6   3   4  103.38    1.75
  -7  -3  -4    0.60    0.07
  -7  -3  -4    0.51    0.08
  -7  -3  -4    0.56    0.08
   7   3   4    0.56    0.06
   7   3   4    0.56    0.07
  -8  -3  -4   13.40    0.33
   8   3   4   13.45    0.29
  -9  -3  -4    4.25    0.16
   9   3   4    3.89    0.14
   8  -4  -4    1.76    0.09
   8  -4  -4    1.61    0.11
   7  -4  -4    0.86    0.06
   7  -4  -4    0.77    0.08
  -7   4   4    0.84    0.09
   6  -4  -4    0.15    0.05
   6  -4  -4    0.06    0.03
  -6   4   4   -0.01    0.04
  -6   4   4    0.09    0.05
   5  -4  -4    1.93    0.07
   5  -4  -4    1.95    0.09
  -5   4   4    1.77    0.09
  -5   4   4    1.94    0.10
   4  -4  -4    3.75    0.12
   4  -4  -4    3.85    0.09
  -4   4   4    3.97    0.13
  -4   4   4    3.74    0.13
   3  -4  -4   21.41    0.40
  -3   4   4   22.04    0.42
  -3   4   4   21.97    0.41
   2  -4  -4  137.07    2.18
   2  -4  -4  138.18    2.19
  -2   4   4  134.80    2.20
  -2   4   4  139.82    2.31
  -2   4   4  139.43    2.23
  -2   4   4  138.88    2.23
   1  -4  -4   20.48    0.36
   1  -4  -4   20.00    0.36
   1  -4  -4   20.07    0.36
  -1   4   4   20.33    0.38
  -1   4   4   19.67    0.36
  -1   4   4   19.62    0.37
  -1   4   4   20.07    0.37
   0  -4  -4   23.17    0.41
   0  -4  -4   22.51    0.36
   0  -4  -4   22.32    0.40
   0  -4  -4   22.61    0.40
   0  -4  -4   22.79    0.40
   0   4   4   22.87    0.40
   0   4   4   22.73    0.41
   0   4   4   22.68    0.40
   0   4   4   22.68    0.41
  -1  -4  -4    1.63    0.07
  -1  -4  -4    1.73    0.05
  -1  -4  -4    1.64    0.07
  -1  -4  -4    1.56    0.07
  -1  -4  -4    1.73    0.07
   1   4   4    1.59    0.06
   1   4   4    1.58    0.07
   1   4   4    1.70    0.07
   1   4   4    1.78    0.07
  -2  -4  -4    2.33    0.08
  -2  -4  -4    2.14    0.08
  -2  -4  -4    2.24    0.08
  -2  -4  -4    2.12    0.08
  -2  -4  -4    2.18    0.07
   2   4   4    2.18    0.08
   2   4   4    2.24    0.08
   2   4   4    2.18    0.08
   2   4   4    2.08    0.08
   2   4   4    2.19    0.05
  -3  -4  -4    2.89    0.10
  -3  -4  -4    2.60    0.10
  -3  -4  -4    2.63    0.08
  -3  -4  -4    2.86    0.10
  -3  -4  -4    2.70    0.10
  -3  -4  -4    2.61    0.10
   3   4   4    2.71    0.07
   3   4   4    2.71    0.10
   3   4   4    2.72    0.10
   3   4   4    2.71    0.10
   3   4   4    2.67    0.09
  -4  -4  -4   49.05    0.85
  -4  -4  -4   47.71    0.89
  -4  -4  -4   48.72    0.87
  -4  -4  -4   49.74    0.89
  -4  -4  -4   49.36    0.85
  -4  -4  -4   49.20    0.79
   4   4   4   51.04    0.87
   4   4   4   49.24    0.89
   4   4   4   49.79    0.85
   4   4   4   50.16    0.79
   4   4   4   51.60    0.86
  -5  -4  -4    3.82    0.14
  -5  -4  -4    4.15    0.15
  -5  -4  -4    3.92    0.14
  -5  -4  -4    4.05    0.14
  -5  -4  -4    3.91    0.11
  -5  -4  -4    4.14    0.14
   5   4   4    3.95    0.14
   5   4   4    4.01    0.14
   5   4   4    4.05    0.11
   5   4   4    3.88    0.14
   5   4   4    4.11    0.14
  -6  -4  -4   27.59    0.48
  -6  -4  -4   27.33    0.56
   6   4   4   27.67    0.48
   6   4   4   28.29    0.56
  -7  -4  -4    5.07    0.18
   7   4   4    5.04    0.14
   7   4   4    4.82    0.18
  -8  -4  -4    0.56    0.08
   8   4   4    0.64    0.07
  -9  -4  -4    0.04    0.05
   9   4   4    0.06    0.04
   7  -5  -4    0.10    0.05
   6  -5  -4    0.46    0.06
  -6   5   4    0.41    0.06
   5  -5  -4    0.29    0.05
  -5   5   4    0.26    0.05
  -5   5   4    0.28    0.05
   4  -5  -4    0.26    0.05
  -4   5   4    0.12    0.04
  -4   5   4    0.25    0.05
   3  -5  -4   18.09    0.34
  -3   5   4   18.10    0.35
  -3   5   4   17.51    0.36
   2  -5  -4    0.78    0.06
  -2   5   4    0.91    0.06
  -2   5   4    0.83    0.06
   1  -5  -4    3.57    0.10
  -1   5   4    3.54    0.10
  -1   5   4    3.42    0.11
  -1   5   4    3.40    0.10
   0  -5  -4    6.33    0.15
   0  -5  -4    6.36    0.11
   0   5   4    6.21    0.15
   0   5   4    6.50    0.15
   0   5   4    6.31    0.15
  -1  -5  -4    0.10    0.03
  -1  -5  -4    0.04    0.03
  -1  -5  -4    0.08    0.02
   1   5   4    0.10    0.02
   1   5   4    0.01    0.02
   1   5   4    0.07    0.02
   1   5   4    0.01    0.03
  -2  -5  -4    4.14    0.12
  -2  -5  -4    3.88    0.10
   2   5   4    4.01    0.12
   2   5   4    3.94    0.11
  -3  -5  -4    0.12    0.03
  -3  -5  -4    0.09    0.04
  -3  -5  -4    0.07    0.04
   3   5   4    0.09    0.03
   3   5   4    0.03    0.04
  -4  -5  -4   37.25    0.70
  -4  -5  -4   36.54    0.66
  -4  -5  -4   36.37    0.61
   4   5   4   36.68    0.66
   4   5   4   37.23    0.68
   4   5   4   36.41    0.68
  -5  -5  -4   58.33    1.06
  -5  -5  -4   58.49    0.94
  -5  -5  -4   57.28    1.01
   5   5   4   57.80    1.05
   5   5   4   58.60    1.03
   5   5   4   58.20    1.01
  -6  -5  -4   20.78    0.38
  -6  -5  -4   20.68    0.45
   6   5   4   20.46    0.44
  -7  -5  -4    6.57    0.22
   7   5   4    6.80    0.22
  -8  -5  -4    2.53    0.14
   8   5   4    2.72    0.14
  -9  -5  -4   13.44    0.36
   7  -6  -4    4.71    0.17
   6  -6  -4    1.30    0.08
  -6   6   4    1.31    0.09
   5  -6  -4    2.88    0.11
  -5   6   4    2.96    0.13
  -5   6   4    3.14    0.12
   4  -6  -4    0.10    0.04
  -4   6   4    0.16    0.04
  -4   6   4    0.16    0.04
   3  -6  -4   17.98    0.34
  -3   6   4   17.43    0.35
  -3   6   4   17.56    0.36
   2  -6  -4   45.91    0.77
  -2   6   4   44.93    0.78
  -2   6   4   44.81    0.81
   1  -6  -4   31.73    0.55
  -1   6   4   30.49    0.55
   0  -6  -4    1.76    0.08
   0  -6  -4    1.84    0.05
   0   6   4    1.77    0.08
  -1  -6  -4    6.39    0.16
  -1  -6  -4    6.33    0.13
   1   6   4    6.42    0.17
  -2  -6  -4    1.48    0.06
   2   6   4    1.48    0.09
   2   6   4    1.58    0.06
  -3  -6  -4   24.63    0.43
  -3  -6  -4   24.97    0.47
   3   6   4   24.83    0.48
   3   6   4   24.58    0.47
  -4  -6  -4   26.89    0.51
  -4  -6  -4   25.82    0.46
   4   6   4   26.23    0.51
   4   6   4   26.39    0.51
   4   6   4   25.86    0.52
  -5  -6  -4   10.82    0.27
  -5  -6  -4   10.45    0.23
   5   6   4   10.25    0.27
   5   6   4   10.54    0.26
   5   6   4   10.62    0.27
  -6  -6  -4    0.84    0.07
   6   6   4    0.72    0.08
  -7  -6  -4   22.44    0.42
  -7  -6  -4   22.57    0.51
   7   6   4   21.75    0.49
  -8  -6  -4    0.02    0.06
   8   6   4    0.05    0.05
   6  -7  -4    0.38    0.06
   5  -7  -4    0.02    0.04
  -5   7   4    0.09    0.05
   4  -7  -4    0.51    0.06
  -4   7   4    0.55    0.06
  -4   7   4    0.42    0.06
   3  -7  -4    2.75    0.10
  -3   7   4    2.67    0.10
  -3   7   4    3.02    0.11
   2  -7  -4    2.88    0.10
  -2   7   4    3.01    0.11
   1  -7  -4    0.11    0.04
  -1   7   4    0.07    0.04
   0  -7  -4    1.71    0.08
   0   7   4    1.69    0.08
  -1  -7  -4    4.52    0.14
   1   7   4    4.79    0.15
  -2  -7  -4   33.80    0.56
  -2  -7  -4   34.05    0.62
   2   7   4   34.57    0.58
   2   7   4   33.58    0.63
  -3  -7  -4    4.34    0.15
  -3  -7  -4    4.37    0.12
   3   7   4    4.32    0.15
   3   7   4    4.44    0.12
  -4  -7  -4    0.24    0.05
  -4  -7  -4    0.30    0.06
   4   7   4    0.37    0.07
   4   7   4    0.35    0.05
   4   7   4    0.30    0.07
  -5  -7  -4   13.62    0.32
  -5  -7  -4   12.98    0.28
   5   7   4   13.32    0.31
   5   7   4   13.17    0.32
   5   7   4   13.11    0.33
  -6  -7  -4    0.05    0.05
   6   7   4    0.15    0.05
  -7  -7  -4   14.43    0.31
   7   7   4   14.35    0.36
   8   7   4    2.80    0.15
   5  -8  -4    1.29    0.09
   4  -8  -4   10.41    0.24
  -4   8   4   10.18    0.24
   3  -8  -4    0.02    0.03
  -3   8   4    0.05    0.04
   2  -8  -4    0.76    0.06
  -2   8   4    0.84    0.07
   1  -8  -4    3.56    0.12
  -1   8   4    3.73    0.12
   0  -8  -4    8.37    0.21
   0   8   4    8.31    0.21
  -1  -8  -4    0.30    0.04
   1   8   4    0.18    0.05
  -2  -8  -4   31.69    0.53
  -2  -8  -4   31.35    0.59
   2   8   4   31.33    0.60
  -3  -8  -4    1.33    0.09
  -3  -8  -4    1.22    0.07
   3   8   4    1.34    0.10
   3   8   4    1.27    0.10
   3   8   4    1.38    0.04
  -4  -8  -4   31.01    0.55
  -4  -8  -4   31.38    0.60
   4   8   4   31.60    0.57
   4   8   4   29.75    0.60
   4   8   4   30.54    0.61
  -5  -8  -4    2.69    0.13
  -5  -8  -4    2.29    0.11
   5   8   4    2.22    0.10
   5   8   4    2.16    0.13
   5   8   4    2.35    0.13
  -6  -8  -4    6.65    0.19
   6   8   4    6.68    0.20
  -7  -8  -4    1.16    0.09
   7   8   4    1.36    0.10
   4  -9  -4    4.41    0.14
   3  -9  -4    2.28    0.10
   2  -9  -4    0.30    0.05
  -2   9   4    0.34    0.05
   1  -9  -4    0.59    0.06
  -1   9   4    0.50    0.06
   0   9   4   12.46    0.29
  -1  -9  -4    8.93    0.23
   1   9   4    8.71    0.23
  -2  -9  -4    0.97    0.07
  -2  -9  -4    0.95    0.08
   2   9   4    0.85    0.09
  -3  -9  -4    2.46    0.12
  -3  -9  -4    2.30    0.10
   3   9   4    2.60    0.13
   3   9   4    2.25    0.12
  -4  -9  -4    0.67    0.07
  -4  -9  -4    0.89    0.09
   4   9   4    0.79    0.09
   4   9   4    0.78    0.09
  -5  -9  -4    0.19    0.06
  -5  -9  -4    0.30    0.06
   5   9   4    0.27    0.04
   5   9   4    0.24    0.07
   5   9   4    0.37    0.08
  -6  -9  -4    8.56    0.23
   6   9   4    8.43    0.22
   2 -10  -4    0.32    0.06
  -1 -10  -4    0.11    0.05
  -2 -10  -4    1.30    0.08
  -2 -10  -4    1.24    0.09
  -3 -10  -4    0.23    0.05
  -3 -10  -4    0.00    0.05
   3  10   4    0.31    0.07
  -4 -10  -4   -0.06    0.04
  -4 -10  -4   -0.05    0.05
   4  10   4   -0.05    0.07
  -5 -10  -4    8.24    0.23
  -5 -10  -4    8.40    0.26
   5  10   4    8.55    0.27
  -4  -9   5    0.60    0.08
  -4  -9   5    0.71    0.07
  -3  -9   5    2.65    0.13
   2   9  -5    0.68    0.08
  -2  -9   5    0.47    0.06
   1   9  -5    7.16    0.19
  -1  -9   5    7.14    0.19
   0   9  -5   18.22    0.35
   0  -9   5   17.76    0.34
  -1   9  -5    3.68    0.10
   1  -9   5    3.44    0.09
   6   8  -5    1.06    0.12
  -6  -8   5    1.16    0.11
  -6  -8   5    0.82    0.08
   5   8  -5    0.38    0.08
   5   8  -5    0.48    0.08
  -5  -8   5    0.46    0.08
  -5  -8   5    0.46    0.07
   4   8  -5    3.66    0.16
   4   8  -5    3.67    0.15
  -4  -8   5    3.60    0.15
  -4  -8   5    3.59    0.12
   3   8  -5    1.72    0.10
   3   8  -5    1.65    0.10
  -3  -8   5    1.61    0.10
  -3  -8   5    1.70    0.08
   2   8  -5    0.18    0.05
   2   8  -5    0.34    0.06
  -2  -8   5    0.30    0.05
   1   8  -5    6.18    0.17
   1   8  -5    6.35    0.17
  -1  -8   5    6.24    0.17
   0   8  -5    0.31    0.04
   0   8  -5    0.33    0.05
   0  -8   5    0.28    0.04
  -1   8  -5    4.11    0.09
  -1   8  -5    3.98    0.10
   1  -8   5    4.01    0.10
  -2   8  -5    0.30    0.03
   7   7  -5    0.15    0.05
  -7  -7   5    0.08    0.05
   6   7  -5   10.02    0.29
   6   7  -5   10.09    0.29
   6   7  -5    9.88    0.23
  -6  -7   5   10.48    0.29
   5   7  -5    7.04    0.15
   5   7  -5    6.97    0.23
   5   7  -5    7.19    0.22
  -5  -7   5    7.22    0.19
  -5  -7   5    7.31    0.23
   4   7  -5    0.98    0.09
   4   7  -5    0.85    0.09
  -4  -7   5    0.78    0.08
  -4  -7   5    0.99    0.07
   3   7  -5    1.47    0.09
   3   7  -5    1.51    0.10
  -3  -7   5    1.61    0.07
  -3  -7   5    1.63    0.10
   2   7  -5    0.48    0.06
   2   7  -5    0.30    0.06
  -2  -7   5    0.31    0.05
   1   7  -5    0.50    0.06
   1   7  -5    0.60    0.06
  -1  -7   5    0.53    0.06
   0   7  -5    2.98    0.09
   0   7  -5    2.91    0.09
   0  -7   5    3.02    0.09
  -1   7  -5    0.71    0.04
  -1   7  -5    0.67    0.04
   1  -7   5    0.61    0.04
   8   6  -5   13.54    0.35
  -8  -6   5   13.93    0.31
   7   6  -5    1.52    0.10
  -7  -6   5    1.49    0.09
   6   6  -5    7.51    0.24
   6   6  -5    7.07    0.23
   6   6  -5    6.84    0.20
  -6  -6   5    7.08    0.23
   5   6  -5    0.05    0.05
   5   6  -5    0.08    0.05
   5   6  -5    0.10    0.04
  -5  -6   5    0.03    0.04
  -5  -6   5    0.17    0.05
   4   6  -5    0.02    0.02
   4   6  -5   -0.01    0.04
   4   6  -5    0.00    0.05
  -4  -6   5   -0.03    0.04
  -4  -6   5    0.04    0.04
   3   6  -5    1.51    0.09
   3   6  -5    1.59    0.09
  -3  -6   5    1.59    0.09
  -3  -6   5    1.66    0.07
   2   6  -5    0.76    0.07
   2   6  -5    0.76    0.07
  -2  -6   5    0.79    0.07
   1   6  -5    3.65    0.11
   1   6  -5    3.46    0.11
  -1  -6   5    3.41    0.11
   0   6  -5    4.11    0.11
   0   6  -5    3.99    0.11
   0  -6   5    3.96    0.11
  -1   6  -5    0.37    0.03
  -1   6  -5    0.36    0.03
  -1   6  -5    0.40    0.03
   1  -6   5    0.30    0.03
   1  -6   5    0.42    0.03
  -4   6  -5    1.49    0.05
  -5   6  -5   20.72    0.34
   5  -6   5   19.55    0.35
   6  -6   5    6.27    0.15
   8   5  -5    1.54    0.11
   7   5  -5    1.44    0.10
  -7  -5   5    1.57    0.09
   6   5  -5    0.71    0.09
   6   5  -5    0.80    0.09
   6   5  -5    0.65    0.07
  -6  -5   5    0.74    0.08
  -6  -5   5    0.73    0.07
   5   5  -5    2.94    0.13
   5   5  -5    2.84    0.11
   5   5  -5    2.91    0.13
  -5  -5   5    2.74    0.10
  -5  -5   5    2.86    0.13
   4   5  -5   26.63    0.52
   4   5  -5   27.32    0.50
   4   5  -5   26.48    0.53
  -4  -5   5   27.23    0.47
  -4  -5   5   27.86    0.52
   3   5  -5   14.45    0.31
   3   5  -5   14.54    0.32
   3   5  -5   14.61    0.26
  -3  -5   5   14.61    0.27
  -3  -5   5   14.22    0.31
   2   5  -5   13.14    0.27
   2   5  -5   13.08    0.28
  -2  -5   5   13.27    0.22
  -2  -5   5   13.09    0.27
   1   5  -5    0.53    0.05
   1   5  -5    0.63    0.05
  -1  -5   5    0.63    0.05
   0   5  -5   32.15    0.54
   0   5  -5   32.18    0.55
   0   5  -5   31.83    0.55
   0   5  -5   32.87    0.57
   0  -5   5   32.30    0.54
   0  -5   5   31.95    0.54
  -1   5  -5    4.96    0.10
  -1   5  -5    4.95    0.10
  -1   5  -5    4.89    0.10
  -1   5  -5    4.79    0.10
   1  -5   5    4.80    0.10
   1  -5   5    5.01    0.10
   3  -5   5    9.11    0.15
   3  -5   5    8.97    0.15
  -4   5  -5    1.28    0.05
  -4   5  -5    1.29    0.05
  -4   5  -5    1.31    0.05
   4  -5   5    1.19    0.05
  -5   5  -5   10.12    0.22
  -5   5  -5   10.06    0.20
  -5   5  -5    9.92    0.20
   5  -5   5    9.90    0.20
  -6   5  -5    0.94    0.06
   6  -5   5    0.93    0.06
   7  -5   5    1.70    0.09
   8   4  -5    1.72    0.12
  -8  -4   5    1.89    0.13
   7   4  -5   11.40    0.30
  -7  -4   5   11.41    0.25
   6   4  -5    0.01    0.04
  -6  -4   5   -0.02    0.04
   5   4  -5    1.21    0.08
   5   4  -5    1.14    0.08
   5   4  -5    1.27    0.09
  -5  -4   5    1.01    0.07
  -5  -4   5    1.05    0.08
   4   4  -5    3.26    0.11
   4   4  -5    3.10    0.12
   4   4  -5    2.94    0.12
  -4  -4   5    3.16    0.12
  -4  -4   5    3.27    0.10
   3   4  -5   32.62    0.59
   3   4  -5   32.98    0.58
   3   4  -5   32.36    0.60
  -3  -4   5   33.35    0.59
  -3  -4   5   32.55    0.54
   2   4  -5   13.67    0.27
   2   4  -5   13.15    0.27
  -2  -4   5   13.11    0.27
  -2  -4   5   13.45    0.23
   1   4  -5   57.23    0.98
   1   4  -5   57.60    0.93
   1   4  -5   58.20    0.95
   1   4  -5   55.89    0.95
  -1  -4   5   55.94    0.93
  -1  -4   5   56.43    0.93
   0   4  -5    3.43    0.09
   0   4  -5    3.36    0.08
   0   4  -5    3.28    0.09
   0   4  -5    3.34    0.09
   0  -4   5    3.33    0.08
   0  -4   5    3.36    0.08
  -1   4  -5    3.26    0.08
  -1   4  -5    3.31    0.07
  -1   4  -5    3.25    0.08
  -1   4  -5    3.30    0.07
   1  -4   5    3.39    0.07
   1  -4   5    3.11    0.07
  -2   4  -5    1.23    0.04
  -2   4  -5    1.25    0.04
   2  -4   5    1.20    0.03
   2  -4   5    1.22    0.04
  -3   4  -5    0.46    0.03
  -3   4  -5    0.46    0.03
  -3   4  -5    0.50    0.03
  -3   4  -5    0.51    0.03
   3  -4   5    0.47    0.03
   3  -4   5    0.48    0.03
  -4   4  -5    3.98    0.10
  -4   4  -5    3.90    0.10
  -4   4  -5    4.04    0.10
   4  -4   5    3.90    0.10
  -5   4  -5   18.93    0.35
  -5   4  -5   19.02    0.37
  -5   4  -5   19.25    0.36
   5  -4   5   19.71    0.35
  -6   4  -5    0.16    0.04
  -6   4  -5    0.09    0.04
   6  -4   5    0.12    0.04
   7  -4   5    0.25    0.05
  -9  -3   5    6.97    0.24
   8   3  -5    0.12    0.06
  -8  -3   5    0.19    0.06
   7   3  -5    3.82    0.16
  -7  -3   5    3.65    0.16
   6   3  -5    0.83    0.08
  -6  -3   5    0.63    0.08
  -6  -3   5    0.61    0.06
   5   3  -5   52.16    0.96
   5   3  -5   52.49    0.94
   5   3  -5   52.84    0.93
  -5  -3   5   53.14    0.93
  -5  -3   5   52.58    0.97
  -5  -3   5   54.30    0.86
   4   3  -5    0.04    0.04
   4   3  -5    0.07    0.03
   4   3  -5    0.04    0.04
  -4  -3   5    0.06    0.04
  -4  -3   5    0.08    0.04
  -4  -3   5    0.13    0.04
   3   3  -5   45.41    0.79
   3   3  -5   43.32    0.77
   3   3  -5   45.00    0.80
  -3  -3   5   45.31    0.81
  -3  -3   5   45.25    0.72
  -3  -3   5   46.54    0.81
  -3  -3   5   45.60    0.77
   2   3  -5    0.01    0.01
   2   3  -5    0.00    0.02
   2   3  -5    0.02    0.03
   2   3  -5    0.02    0.02
   2   3  -5    0.03    0.02
   2   3  -5    0.05    0.03
  -2  -3   5    0.00    0.03
  -2  -3   5   -0.01    0.02
  -2  -3   5    0.00    0.02
  -2  -3   5    0.06    0.03
   1   3  -5   46.75    0.78
   1   3  -5   47.48    0.81
   1   3  -5   46.50    0.79
   1   3  -5   47.25    0.77
  -1  -3   5   46.71    0.77
  -1  -3   5   46.94    0.77
   0   3  -5   10.77    0.20
   0   3  -5   10.67    0.20
   0   3  -5   10.37    0.21
   0   3  -5   10.88    0.20
   0  -3   5   10.62    0.20
   0  -3   5   10.83    0.20
  -1   3  -5   32.39    0.54
  -1   3  -5   33.08    0.53
  -1   3  -5   33.22    0.54
   1  -3   5   31.77    0.53
   1  -3   5   33.90    0.53
  -2   3  -5    7.28    0.14
  -2   3  -5    7.05    0.13
  -2   3  -5    7.46    0.14
   2  -3   5    7.41    0.13
   2  -3   5    7.24    0.13
  -3   3  -5    2.24    0.07
  -3   3  -5    2.33    0.07
  -3   3  -5    2.26    0.06
  -3   3  -5    2.31    0.07
  -3   3  -5    2.43    0.06
   3  -3   5    2.17    0.06
  -4   3  -5   29.04    0.49
  -4   3  -5   28.39    0.51
  -4   3  -5   28.83    0.50
   4  -3   5   28.37    0.49
  -5   3  -5    0.19    0.04
  -5   3  -5    0.14    0.04
  -5   3  -5    0.24    0.04
   5  -3   5    0.09    0.04
  -6   3  -5    2.89    0.11
  -6   3  -5    2.86    0.11
  -6   3  -5    2.93    0.11
   6  -3   5    3.03    0.11
  -7   3  -5    1.31    0.09
  -7   3  -5    1.34    0.09
   7  -3   5    1.37    0.08
   8  -3   5    0.04    0.05
  -9  -2   5    3.66    0.17
   8   2  -5    0.90    0.07
  -8  -2   5    0.80    0.09
   7   2  -5   16.50    0.39
   7   2  -5   16.92    0.32
  -7  -2   5   16.21    0.39
   6   2  -5    0.38    0.05
   6   2  -5    0.24    0.05
  -6  -2   5    0.32    0.05
  -6  -2   5    0.33    0.06
   5   2  -5    0.74    0.07
   5   2  -5    0.56    0.05
   5   2  -5    0.71    0.07
   5   2  -5    0.61    0.06
  -5  -2   5    0.58    0.07
  -5  -2   5    0.69    0.06
  -5  -2   5    0.67    0.07
   4   2  -5   16.09    0.33
   4   2  -5   15.79    0.33
   4   2  -5   16.37    0.33
   4   2  -5   15.98    0.34
   4   2  -5   16.10    0.28
  -4  -2   5   16.29    0.33
  -4  -2   5   16.73    0.35
  -4  -2   5   15.85    0.29
  -4  -2   5   16.42    0.35
  -4  -2   5   16.05    0.34
   3   2  -5    0.65    0.05
   3   2  -5    0.74    0.06
   3   2  -5    0.77    0.05
   3   2  -5    0.67    0.06
   3   2  -5    0.68    0.06
   3   2  -5    0.70    0.03
  -3  -2   5    0.71    0.06
  -3  -2   5    0.68    0.05
  -3  -2   5    0.76    0.05
  -3  -2   5    0.75    0.06
  -3  -2   5    0.81    0.06
   2   2  -5   44.44    0.77
   2   2  -5   44.76    0.76
   2   2  -5   43.91    0.78
   2   2  -5   46.06    0.79
   2   2  -5   45.41    0.75
  -2  -2   5   45.60    0.79
  -2  -2   5   43.17    0.70
  -2  -2   5   46.00    0.79
  -2  -2   5   43.86    0.75
  -2  -2   5   45.98    0.76
   1   2  -5    9.37    0.19
   1   2  -5    9.62    0.18
   1   2  -5    9.88    0.20
   1   2  -5   10.09    0.20
   1   2  -5    9.81    0.19
  -1  -2   5    9.58    0.16
  -1  -2   5    9.84    0.19
  -1  -2   5    9.96    0.19
  -1  -2   5    9.30    0.19
  -1  -2   5    9.40    0.19
   0   2  -5  163.66    2.64
   0   2  -5  162.92    2.64
   0   2  -5  161.91    2.73
   0   2  -5  169.60    2.62
   0  -2   5  162.18    2.59
   0  -2   5  166.82    2.57
  -1   2  -5    2.91    0.07
  -1   2  -5    2.94    0.07
  -1   2  -5    2.95    0.07
   1  -2   5    2.87    0.07
   1  -2   5    3.05    0.07
  -2   2  -5   32.66    0.54
  -2   2  -5   31.83    0.53
  -2   2  -5   31.78    0.52
   2  -2   5   31.57    0.52
   2  -2   5   33.28    0.52
  -3   2  -5   32.54    0.54
  -3   2  -5   31.93    0.54
  -3   2  -5   32.45    0.57
  -3   2  -5   32.76    0.55
  -3   2  -5   32.98    0.55
   3  -2   5   32.58    0.54
  -4   2  -5   12.95    0.26
  -4   2  -5   12.88    0.26
  -4   2  -5   12.89    0.25
   4  -2   5   13.32    0.25
  -5   2  -5    9.67    0.21
  -5   2  -5    9.27    0.21
  -5   2  -5    9.36    0.22
   5  -2   5    9.38    0.21
  -6   2  -5   24.42    0.47
  -6   2  -5   24.48    0.47
  -6   2  -5   24.36    0.49
   6  -2   5   25.25    0.46
  -7   2  -5    0.79    0.08
  -7   2  -5    0.92    0.08
  -7   2  -5    0.98    0.08
   7  -2   5    0.96    0.08
   8  -2   5   13.21    0.31
   9   1  -5    0.70    0.07
  -9  -1   5    0.69    0.08
   8   1  -5    4.00    0.14
  -8  -1   5    4.04    0.16
   7   1  -5    0.45    0.05
  -7  -1   5    0.37    0.07
   6   1  -5    0.87    0.08
   6   1  -5    0.74    0.06
   6   1  -5    0.80    0.08
  -6  -1   5    0.76    0.08
  -6  -1   5    0.91    0.09
  -6  -1   5    0.68    0.08
   5   1  -5    0.79    0.07
   5   1  -5    0.88    0.08
   5   1  -5    0.81    0.06
   5   1  -5    0.97    0.07
  -5  -1   5    0.86    0.07
  -5  -1   5    0.94    0.06
  -5  -1   5    0.85    0.08
  -5  -1   5    0.80    0.08
   4   1  -5   17.52    0.31
   4   1  -5   17.83    0.35
   4   1  -5   17.74    0.35
   4   1  -5   17.32    0.36
  -4  -1   5   18.09    0.31
  -4  -1   5   17.33    0.36
  -4  -1   5   17.28    0.37
  -4  -1   5   17.76    0.35
  -4  -1   5   17.47    0.36
   3   1  -5   13.41    0.28
   3   1  -5   13.75    0.27
   3   1  -5   13.68    0.27
   3   1  -5   13.24    0.28
   3   1  -5   13.27    0.24
  -3  -1   5   13.59    0.28
  -3  -1   5   13.27    0.28
  -3  -1   5   13.66    0.27
  -3  -1   5   13.36    0.28
  -3  -1   5   13.39    0.24
   2   1  -5   92.28    1.55
   2   1  -5   92.81    1.47
   2   1  -5   89.71    1.51
   2   1  -5   94.81    1.56
   2   1  -5   91.64    1.39
   2   1  -5   92.78    1.49
  -2  -1   5   93.02    1.56
  -2  -1   5   93.55    1.56
  -2  -1   5   88.97    1.48
  -2  -1   5   89.96    1.41
  -2  -1   5   93.85    1.50
   1   1  -5   11.94    0.24
   1   1  -5   11.55    0.23
   1   1  -5   12.13    0.23
   1   1  -5   12.37    0.23
   1   1  -5   11.94    0.23
  -1  -1   5   12.08    0.23
  -1  -1   5   11.73    0.23
  -1  -1   5   11.80    0.20
  -1  -1   5   12.41    0.24
   0   1  -5   66.12    1.12
   0   1  -5   67.00    1.11
   0   1  -5   66.27    1.07
   0   1  -5   65.96    1.08
   0   1  -5   66.91    1.08
   0   1  -5   68.13    1.11
   0  -1   5   65.13    1.06
   0  -1   5   67.12    1.08
   0  -1   5   66.87    1.06
  -1   1  -5    4.62    0.10
  -1   1  -5    4.68    0.10
  -1   1  -5    4.57    0.10
   1  -1   5    4.51    0.10
   1  -1   5    4.69    0.10
  -2   1  -5   29.10    0.49
  -2   1  -5   28.94    0.48
  -2   1  -5   28.34    0.49
   2  -1   5   28.34    0.48
   2  -1   5   29.28    0.48
  -3   1  -5   11.88    0.22
  -3   1  -5   11.72    0.23
  -3   1  -5   11.55    0.23
  -3   1  -5   11.67    0.23
   3  -1   5   11.33    0.22
  -4   1  -5   14.31    0.28
  -4   1  -5   14.20    0.28
  -4   1  -5   14.42    0.29
   4  -1   5   14.29    0.27
  -5   1  -5    0.49    0.06
  -5   1  -5    0.56    0.06
  -5   1  -5    0.59    0.06
   5  -1   5    0.66    0.04
   5  -1   5    0.60    0.06
  -6   1  -5    0.10    0.04
  -6   1  -5   -0.07    0.04
  -6   1  -5   -0.05    0.04
   6  -1   5    0.03    0.04
   6  -1   5    0.07    0.03
  -7   1  -5    1.17    0.09
  -7   1  -5    1.02    0.08
  -7   1  -5    1.11    0.08
   7  -1   5    1.25    0.06
   7  -1   5    1.01    0.08
  -8   1  -5    6.59    0.21
  -8   1  -5    6.06    0.20
   8  -1   5    6.37    0.17
   8  -1   5    6.11    0.20
   9  -1   5    2.90    0.14
   9  -1   5    2.98    0.12
   9   0  -5    0.19    0.05
  -9   0   5    0.25    0.06
   8   0  -5    5.48    0.16
  -8   0   5    5.67    0.18
   7   0  -5    7.52    0.19
   7   0  -5    7.59    0.23
  -7   0   5    7.97    0.24
  -7   0   5    7.74    0.22
  -7   0   5    7.54    0.24
   6   0  -5   22.40    0.45
   6   0  -5   22.09    0.40
  -6   0   5   22.51    0.46
  -6   0   5   22.40    0.48
  -6   0   5   22.53    0.47
   5   0  -5    3.72    0.11
   5   0  -5    3.70    0.13
   5   0  -5    3.72    0.13
  -5   0   5    3.97    0.13
  -5   0   5    3.93    0.14
  -5   0   5    3.59    0.14
   4   0  -5    0.12    0.04
   4   0  -5    0.10    0.04
   4   0  -5    0.21    0.04
   4   0  -5    0.15    0.03
   4   0  -5    0.14    0.04
  -4   0   5    0.14    0.04
  -4   0   5    0.15    0.04
  -4   0   5    0.17    0.04
  -4   0   5    0.10    0.04
  -4   0   5    0.11    0.03
   3   0  -5    0.10    0.02
   3   0  -5    0.14    0.04
   3   0  -5    0.17    0.03
   3   0  -5    0.14    0.04
   3   0  -5    0.08    0.03
  -3   0   5    0.12    0.03
  -3   0   5    0.16    0.04
  -3   0   5    0.13    0.03
  -3   0   5    0.16    0.04
  -3   0   5    0.12    0.03
   2   0  -5    1.01    0.06
   2   0  -5    0.98    0.05
   2   0  -5    0.89    0.04
   2   0  -5    1.00    0.06
   2   0  -5    1.08    0.06
  -2   0   5    0.98    0.04
  -2   0   5    0.95    0.06
  -2   0   5    0.99    0.06
  -2   0   5    1.06    0.06
  -2   0   5    0.81    0.05
   1   0  -5    0.44    0.03
   1   0  -5    0.43    0.04
   1   0  -5    0.49    0.04
   1   0  -5    0.36    0.04
   1   0  -5    0.43    0.04
   1   0  -5    0.42    0.04
  -1   0   5    0.44    0.04
  -1   0   5    0.45    0.03
  -1   0   5    0.46    0.04
  -1   0   5    0.37    0.03
  -1   0   5    0.45    0.04
   0   0  -5   35.04    0.59
   0   0  -5   34.96    0.60
   0   0  -5   34.33    0.58
   0   0  -5   34.36    0.58
   0   0  -5   33.77    0.57
   0   0   5   34.52    0.57
   0   0   5   35.26    0.58
   0   0   5   33.89    0.53
  -1   0  -5    6.41    0.13
  -1   0  -5    6.42    0.14
  -1   0  -5    6.20    0.13
   1   0   5    6.59    0.13
   1   0   5    6.76    0.11
   1   0   5    6.71    0.14
   1   0   5    6.83    0.14
  -2   0  -5   29.44    0.50
  -2   0  -5   29.84    0.51
  -2   0  -5   29.22    0.51
  -2   0  -5   29.34    0.51
  -2   0  -5   29.87    0.51
   2   0   5   29.68    0.50
   2   0   5   29.43    0.50
   2   0   5   30.18    0.50
  -3   0  -5    2.68    0.09
  -3   0  -5    2.40    0.08
  -3   0  -5    2.43    0.08
  -3   0  -5    2.82    0.08
  -3   0  -5    2.57    0.07
  -3   0  -5    2.35    0.08
  -3   0  -5    2.46    0.06
   3   0   5    2.43    0.08
   3   0   5    2.33    0.08
  -4   0  -5    6.78    0.14
  -4   0  -5    7.01    0.16
  -4   0  -5    6.86    0.17
  -4   0  -5    6.90    0.17
  -4   0  -5    6.90    0.17
  -4   0  -5    6.83    0.14
   4   0   5    7.07    0.13
   4   0   5    7.08    0.16
  -5   0  -5    0.45    0.05
  -5   0  -5    0.40    0.03
  -5   0  -5    0.38    0.05
  -5   0  -5    0.42    0.05
   5   0   5    0.47    0.04
   5   0   5    0.51    0.05
  -6   0  -5   25.31    0.45
  -6   0  -5   26.64    0.50
  -6   0  -5   26.09    0.50
  -6   0  -5   25.74    0.52
   6   0   5   25.62    0.44
   6   0   5   25.62    0.49
  -7   0  -5    3.72    0.14
  -7   0  -5    3.40    0.14
  -7   0  -5    3.69    0.15
   7   0   5    3.51    0.11
   7   0   5    3.58    0.14
  -8   0  -5    1.12    0.10
  -8   0  -5    1.27    0.10
   8   0   5    1.38    0.10
   8   0   5    1.16    0.07
   9   0   5    2.01    0.12
   9   0   5    2.31    0.10
   9  -1  -5    6.45    0.19
   9  -1  -5    6.41    0.23
  -9   1   5    6.21    0.17
   8  -1  -5    0.27    0.06
   8  -1  -5    0.15    0.05
  -8   1   5    0.28    0.05
  -8   1   5    0.18    0.06
  -8   1   5    0.32    0.07
   7  -1  -5    6.65    0.18
   7  -1  -5    7.05    0.21
  -7   1   5    6.58    0.22
  -7   1   5    6.89    0.19
  -7   1   5    7.07    0.22
   6  -1  -5    3.29    0.11
   6  -1  -5    3.67    0.14
  -6   1   5    3.42    0.14
  -6   1   5    3.41    0.14
  -6   1   5    3.55    0.12
   5  -1  -5    0.66    0.06
   5  -1  -5    0.69    0.05
  -5   1   5    0.65    0.07
  -5   1   5    0.82    0.07
  -5   1   5    0.66    0.07
   4  -1  -5   23.50    0.41
   4  -1  -5   24.96    0.47
   4  -1  -5   24.52    0.46
   4  -1  -5   23.64    0.45
  -4   1   5   23.78    0.47
  -4   1   5   24.26    0.46
  -4   1   5   24.20    0.46
   3  -1  -5    2.99    0.08
   3  -1  -5    2.86    0.09
   3  -1  -5    2.97    0.10
   3  -1  -5    3.04    0.10
   3  -1  -5    3.14    0.10
  -3   1   5    3.01    0.10
  -3   1   5    2.93    0.10
  -3   1   5    3.04    0.10
  -3   1   5    3.10    0.07
  -3   1   5    3.03    0.10
   2  -1  -5   41.83    0.71
   2  -1  -5   40.06    0.69
   2  -1  -5   38.85    0.67
   2  -1  -5   40.50    0.63
   2  -1  -5   40.30    0.67
  -2   1   5   39.48    0.71
  -2   1   5   40.19    0.69
  -2   1   5   40.88    0.67
  -2   1   5   40.70    0.63
  -2   1   5   39.18    0.71
   1  -1  -5   60.05    1.01
   1  -1  -5   62.73    1.04
   1  -1  -5   61.26    1.00
   1  -1  -5   61.44    0.94
   1  -1  -5   61.85    0.99
  -1   1   5   61.14    1.05
  -1   1   5   63.15    0.99
  -1   1   5   60.84    1.04
  -1   1   5   61.25    0.94
  -1   1   5   59.19    1.01
   0  -1  -5    3.33    0.09
   0  -1  -5    3.38    0.09
   0  -1  -5    3.35    0.09
   0  -1  -5    3.35    0.09
   0  -1  -5    3.44    0.07
   0  -1  -5    3.52    0.09
   0   1   5    3.27    0.07
   0   1   5    3.44    0.09
   0   1   5    3.43    0.09
   0   1   5    3.49    0.09
  -1  -1  -5  224.85    3.74
  -1  -1  -5  219.66    3.66
  -1  -1  -5  220.92    3.61
  -1  -1  -5  229.46    3.39
  -1  -1  -5  227.58    3.53
  -1  -1  -5  218.24    3.59
   1   1   5  220.82    3.59
   1   1   5  218.76    3.41
   1   1   5  229.74    3.72
   1   1   5  229.95    3.58
  -2  -1  -5   12.39    0.24
  -2  -1  -5   12.60    0.24
  -2  -1  -5   12.53    0.24
  -2  -1  -5   12.52    0.25
  -2  -1  -5   12.89    0.20
  -2  -1  -5   12.56    0.24
   2   1   5   12.83    0.24
   2   1   5   13.12    0.24
   2   1   5   12.73    0.25
   2   1   5   12.71    0.22
  -3  -1  -5   10.82    0.22
  -3  -1  -5   10.09    0.21
  -3  -1  -5   10.69    0.22
  -3  -1  -5   10.80    0.23
  -3  -1  -5   10.62    0.22
  -3  -1  -5   10.71    0.22
   3   1   5   10.57    0.19
   3   1   5   10.94    0.22
   3   1   5   11.10    0.23
   3   1   5   10.94    0.21
   3   1   5   10.93    0.22
  -4  -1  -5   15.51    0.31
  -4  -1  -5   15.74    0.32
  -4  -1  -5   15.72    0.31
  -4  -1  -5   15.46    0.32
  -4  -1  -5   15.68    0.33
   4   1   5   16.10    0.28
   4   1   5   16.63    0.32
   4   1   5   15.46    0.31
   4   1   5   16.44    0.31
  -5  -1  -5   20.68    0.39
  -5  -1  -5   20.44    0.41
  -5  -1  -5   20.38    0.40
  -5  -1  -5   20.56    0.42
   5   1   5   20.50    0.36
   5   1   5   20.69    0.40
  -6  -1  -5    8.60    0.23
  -6  -1  -5    8.56    0.23
  -6  -1  -5    8.37    0.22
  -6  -1  -5    8.71    0.20
   6   1   5    8.71    0.22
   6   1   5    8.40    0.19
  -7  -1  -5    0.13    0.06
  -7  -1  -5    0.07    0.04
  -7  -1  -5    0.15    0.06
  -7  -1  -5    0.00    0.05
   7   1   5    0.11    0.04
   7   1   5    0.14    0.05
  -8  -1  -5    0.73    0.09
  -8  -1  -5    0.75    0.06
  -8  -1  -5    0.66    0.08
  -8  -1  -5    0.65    0.09
   8   1   5    0.76    0.07
   8   1   5    0.74    0.08
  -9  -1  -5    2.86    0.16
  -9  -1  -5    2.59    0.08
   9   1   5    2.47    0.14
   9   1   5    2.52    0.11
   8  -2  -5    0.33    0.07
   8  -2  -5    0.24    0.05
  -8   2   5    0.32    0.07
  -8   2   5    0.33    0.04
   7  -2  -5   31.36    0.61
   7  -2  -5   30.67    0.55
  -7   2   5   31.57    0.57
  -7   2   5   30.86    0.64
  -7   2   5   30.98    0.62
   6  -2  -5    1.45    0.07
   6  -2  -5    1.28    0.09
  -6   2   5    1.41    0.07
  -6   2   5    1.39    0.09
  -6   2   5    1.40    0.10
   5  -2  -5   29.72    0.49
   5  -2  -5   29.42    0.54
  -5   2   5   28.33    0.57
  -5   2   5   29.67    0.54
  -5   2   5   28.47    0.55
   4  -2  -5    7.93    0.16
   4  -2  -5    7.87    0.19
  -4   2   5    7.90    0.18
  -4   2   5    7.48    0.19
  -4   2   5    7.59    0.20
   3  -2  -5  122.61    1.99
   3  -2  -5  123.51    2.06
   3  -2  -5  121.88    1.85
   3  -2  -5  121.37    1.95
   3  -2  -5  121.22    1.95
  -3   2   5  121.37    2.05
  -3   2   5  121.59    2.06
  -3   2   5  123.62    1.99
  -3   2   5  121.56    1.99
   2  -2  -5   11.32    0.20
   2  -2  -5   11.24    0.23
   2  -2  -5   11.68    0.22
   2  -2  -5   11.37    0.23
   2  -2  -5   11.44    0.23
  -2   2   5   11.25    0.23
  -2   2   5   11.37    0.24
  -2   2   5   11.25    0.23
  -2   2   5   11.45    0.23
  -2   2   5   11.50    0.23
   1  -2  -5   35.16    0.59
   1  -2  -5   35.10    0.59
   1  -2  -5   35.19    0.62
   1  -2  -5   35.26    0.55
   1  -2  -5   35.34    0.60
  -1   2   5   36.13    0.59
  -1   2   5   34.61    0.62
  -1   2   5   34.50    0.60
  -1   2   5   36.32    0.61
  -1   2   5   35.86    0.54
  -1   2   5   34.64    0.62
   0  -2  -5   23.98    0.42
   0  -2  -5   24.25    0.43
   0  -2  -5   24.28    0.44
   0  -2  -5   23.74    0.39
   0  -2  -5   24.49    0.42
   0   2   5   24.85    0.42
   0   2   5   24.45    0.44
   0   2   5   23.43    0.42
   0   2   5   23.87    0.38
  -1  -2  -5    3.46    0.09
  -1  -2  -5    3.53    0.09
  -1  -2  -5    3.23    0.09
  -1  -2  -5    3.29    0.09
  -1  -2  -5    3.28    0.10
  -1  -2  -5    3.36    0.08
   1   2   5    3.42    0.08
   1   2   5    3.42    0.10
   1   2   5    3.43    0.09
   1   2   5    3.22    0.09
  -2  -2  -5  207.07    3.42
  -2  -2  -5  209.83    3.55
  -2  -2  -5  212.57    3.26
  -2  -2  -5  214.35    3.38
  -2  -2  -5  211.23    3.58
   2   2   5  223.32    3.42
   2   2   5  211.71    3.22
   2   2   5  216.29    3.55
   2   2   5  217.84    3.35
  -3  -2  -5   40.33    0.63
  -3  -2  -5   40.65    0.69
  -3  -2  -5   39.55    0.70
  -3  -2  -5   41.19    0.69
  -3  -2  -5   39.53    0.73
  -3  -2  -5   40.27    0.72
   3   2   5   41.13    0.69
   3   2   5   41.99    0.72
   3   2   5   40.08    0.64
   3   2   5   40.95    0.70
   3   2   5   40.43    0.69
  -4  -2  -5   12.91    0.29
  -4  -2  -5   13.10    0.27
  -4  -2  -5   13.09    0.22
  -4  -2  -5   13.09    0.28
  -4  -2  -5   12.50    0.27
  -4  -2  -5   12.85    0.27
   4   2   5   13.31    0.27
   4   2   5   12.78    0.24
   4   2   5   13.06    0.27
   4   2   5   13.18    0.27
   4   2   5   13.38    0.28
  -5  -2  -5    7.03    0.19
  -5  -2  -5    7.28    0.20
  -5  -2  -5    7.35    0.20
  -5  -2  -5    7.47    0.19
   5   2   5    7.03    0.18
   5   2   5    7.61    0.19
   5   2   5    7.22    0.16
  -6  -2  -5    6.50    0.19
  -6  -2  -5    6.28    0.19
  -6  -2  -5    6.35    0.20
  -6  -2  -5    6.40    0.18
   6   2   5    6.72    0.19
   6   2   5    6.29    0.16
  -7  -2  -5    5.32    0.18
  -7  -2  -5    5.16    0.19
  -7  -2  -5    5.57    0.18
  -7  -2  -5    5.60    0.17
   7   2   5    5.43    0.18
   7   2   5    5.35    0.15
  -8  -2  -5    0.19    0.06
  -8  -2  -5    0.18    0.05
  -8  -2  -5    0.11    0.06
  -8  -2  -5    0.13    0.06
   8   2   5    0.22    0.06
   8   2   5    0.17    0.05
  -9  -2  -5   10.87    0.26
  -9  -2  -5   11.04    0.32
   9   2   5   10.30    0.25
   9   2   5   10.70    0.30
   8  -3  -5   26.92    0.56
   8  -3  -5   26.84    0.50
  -8   3   5   26.62    0.57
   7  -3  -5    3.10    0.14
   7  -3  -5    2.99    0.11
  -7   3   5    3.11    0.14
  -7   3   5    3.10    0.15
   6  -3  -5    1.10    0.08
   6  -3  -5    1.02    0.06
  -6   3   5    1.08    0.09
  -6   3   5    1.00    0.04
  -6   3   5    1.04    0.09
   5  -3  -5   48.11    0.78
   5  -3  -5   48.38    0.84
  -5   3   5   48.62    0.89
  -5   3   5   48.74    0.83
  -5   3   5   47.96    0.86
   4  -3  -5    0.19    0.04
   4  -3  -5    0.17    0.03
  -4   3   5    0.22    0.05
  -4   3   5    0.17    0.04
  -4   3   5    0.13    0.03
   3  -3  -5   25.89    0.42
   3  -3  -5   25.91    0.47
  -3   3   5   25.76    0.48
  -3   3   5   26.18    0.49
  -3   3   5   26.25    0.46
  -3   3   5   25.89    0.46
   2  -3  -5    2.41    0.08
   2  -3  -5    2.37    0.08
   2  -3  -5    2.36    0.06
  -2   3   5    2.49    0.07
  -2   3   5    2.32    0.08
  -2   3   5    2.49    0.09
  -2   3   5    2.43    0.09
  -2   3   5    2.48    0.07
   1  -3  -5    0.07    0.03
   1  -3  -5    0.03    0.02
   1  -3  -5    0.04    0.03
   1  -3  -5    0.07    0.03
  -1   3   5    0.07    0.03
  -1   3   5    0.06    0.03
  -1   3   5    0.06    0.03
  -1   3   5    0.05    0.03
  -1   3   5    0.04    0.02
   0  -3  -5    0.06    0.02
   0  -3  -5    0.07    0.03
   0  -3  -5    0.03    0.02
   0  -3  -5    0.05    0.03
   0  -3  -5    0.05    0.03
   0  -3  -5    0.07    0.03
   0   3   5    0.07    0.03
   0   3   5    0.05    0.03
   0   3   5    0.08    0.03
   0   3   5    0.06    0.02
  -1  -3  -5   15.61    0.30
  -1  -3  -5   16.24    0.30
  -1  -3  -5   16.04    0.31
  -1  -3  -5   16.62    0.30
  -1  -3  -5   15.33    0.27
  -1  -3  -5   16.10    0.31
   1   3   5   15.85    0.30
   1   3   5   15.93    0.31
   1   3   5   15.77    0.29
   1   3   5   16.22    0.26
  -2  -3  -5   27.88    0.49
  -2  -3  -5   27.60    0.46
  -2  -3  -5   28.58    0.50
  -2  -3  -5   27.81    0.50
  -2  -3  -5   28.69    0.52
  -2  -3  -5   28.40    0.52
   2   3   5   27.93    0.49
   2   3   5   29.39    0.51
   2   3   5   28.55    0.45
   2   3   5   27.22    0.50
   2   3   5   28.19    0.50
  -3  -3  -5    3.92    0.12
  -3  -3  -5    3.83    0.12
  -3  -3  -5    4.03    0.12
  -3  -3  -5    3.98    0.12
  -3  -3  -5    3.89    0.10
  -3  -3  -5    3.83    0.12
   3   3   5    4.04    0.12
   3   3   5    4.00    0.12
   3   3   5    3.81    0.09
   3   3   5    3.93    0.12
  -4  -3  -5   82.64    1.40
  -4  -3  -5   86.54    1.32
  -4  -3  -5   84.10    1.43
  -4  -3  -5   84.31    1.41
  -4  -3  -5   83.46    1.47
  -4  -3  -5   84.15    1.48
   4   3   5   85.05    1.32
   4   3   5   86.14    1.40
   4   3   5   86.53    1.43
   4   3   5   88.24    1.40
   4   3   5   86.99    1.47
  -5  -3  -5    0.56    0.07
  -5  -3  -5    0.57    0.04
  -5  -3  -5    0.55    0.07
  -5  -3  -5    0.46    0.06
  -5  -3  -5    0.64    0.07
   5   3   5    0.55    0.05
   5   3   5    0.52    0.06
   5   3   5    0.44    0.06
  -6  -3  -5   19.42    0.43
  -6  -3  -5   19.06    0.41
  -6  -3  -5   19.49    0.42
  -6  -3  -5   19.96    0.41
   6   3   5   19.67    0.41
   6   3   5   19.20    0.36
  -7  -3  -5    0.80    0.09
  -7  -3  -5    0.79    0.09
  -7  -3  -5    0.82    0.08
  -7  -3  -5    0.83    0.09
   7   3   5    0.90    0.09
   7   3   5    0.79    0.06
  -8  -3  -5    0.20    0.06
   8   3   5    0.23    0.05
  -9  -3  -5   13.07    0.32
   9   3   5   13.06    0.29
   8  -4  -5    4.50    0.14
   8  -4  -5    4.07    0.17
   7  -4  -5    0.09    0.04
   7  -4  -5    0.18    0.05
  -7   4   5    0.07    0.05
   6  -4  -5   18.61    0.34
   6  -4  -5   18.36    0.39
  -6   4   5   18.68    0.42
  -6   4   5   18.48    0.40
   5  -4  -5    3.25    0.12
   5  -4  -5    3.46    0.10
  -5   4   5    3.14    0.13
  -5   4   5    3.13    0.13
   4  -4  -5   24.57    0.40
   4  -4  -5   24.10    0.45
  -4   4   5   23.63    0.48
  -4   4   5   23.99    0.46
   3  -4  -5    0.49    0.05
   3  -4  -5    0.48    0.03
  -3   4   5    0.46    0.05
  -3   4   5    0.50    0.05
   2  -4  -5   76.05    1.25
   2  -4  -5   77.76    1.17
  -2   4   5   77.75    1.28
  -2   4   5   76.47    1.28
  -2   4   5   77.26    1.32
  -2   4   5   77.97    1.28
  -2   4   5   76.67    1.28
   1  -4  -5   42.94    0.66
   1  -4  -5   42.80    0.72
   1  -4  -5   42.03    0.72
   1  -4  -5   43.26    0.72
   1  -4  -5   42.37    0.74
  -1   4   5   41.69    0.73
  -1   4   5   42.39    0.73
  -1   4   5   42.81    0.73
  -1   4   5   44.14    0.73
  -1   4   5   43.24    0.76
   0  -4  -5   37.36    0.63
   0  -4  -5   36.57    0.65
   0  -4  -5   35.93    0.58
   0  -4  -5   36.47    0.62
   0   4   5   37.10    0.64
   0   4   5   36.49    0.64
   0   4   5   37.96    0.63
  -1  -4  -5   20.38    0.37
  -1  -4  -5   20.48    0.39
  -1  -4  -5   20.89    0.39
  -1  -4  -5   19.80    0.34
  -1  -4  -5   20.91    0.37
  -1  -4  -5   20.76    0.38
   1   4   5   20.00    0.38
   1   4   5   20.10    0.38
   1   4   5   20.18    0.37
   1   4   5   20.60    0.38
  -2  -4  -5   17.34    0.34
  -2  -4  -5   17.77    0.34
  -2  -4  -5   17.94    0.33
  -2  -4  -5   17.67    0.35
  -2  -4  -5   17.80    0.35
  -2  -4  -5   17.10    0.30
   2   4   5   17.67    0.29
   2   4   5   17.41    0.33
   2   4   5   17.70    0.35
   2   4   5   17.29    0.34
   2   4   5   16.80    0.34
  -3  -4  -5    0.94    0.06
  -3  -4  -5    0.91    0.07
  -3  -4  -5    0.97    0.06
  -3  -4  -5    0.94    0.07
  -3  -4  -5    1.01    0.07
  -3  -4  -5    0.89    0.05
   3   4   5    0.88    0.07
   3   4   5    0.98    0.06
   3   4   5    0.95    0.04
   3   4   5    0.86    0.06
  -4  -4  -5  103.38    1.80
  -4  -4  -5  105.01    1.72
  -4  -4  -5  104.63    1.74
  -4  -4  -5  104.01    1.71
  -4  -4  -5  104.56    1.62
  -4  -4  -5  103.79    1.80
   4   4   5  105.17    1.71
   4   4   5  105.46    1.79
   4   4   5  103.73    1.61
   4   4   5  106.54    1.74
   4   4   5  106.18    1.72
  -5  -4  -5   42.23    0.69
  -5  -4  -5   42.99    0.80
  -5  -4  -5   42.61    0.76
  -5  -4  -5   41.98    0.79
  -5  -4  -5   43.03    0.77
   5   4   5   42.60    0.76
   5   4   5   41.22    0.78
   5   4   5   41.68    0.69
  -6  -4  -5   17.16    0.39
   6   4   5   17.66    0.39
   6   4   5   17.96    0.33
  -7  -4  -5    0.34    0.06
   7   4   5    0.36    0.05
  -8  -4  -5   27.64    0.59
   8   4   5   28.57    0.52
  -9  -4  -5    1.22    0.10
   9   4   5    1.24    0.08
   7  -5  -5    2.50    0.10
   7  -5  -5    2.53    0.12
   6  -5  -5    4.25    0.15
   6  -5  -5    4.61    0.12
  -6   5   5    4.31    0.16
   5  -5  -5    6.76    0.19
   5  -5  -5    6.75    0.15
  -5   5   5    6.71    0.20
  -5   5   5    6.65    0.19
   4  -5  -5   13.69    0.24
   4  -5  -5   13.52    0.29
  -4   5   5   13.65    0.30
  -4   5   5   13.80    0.31
   3  -5  -5   16.91    0.33
   3  -5  -5   17.39    0.28
  -3   5   5   16.99    0.35
  -3   5   5   16.89    0.34
   2  -5  -5   41.56    0.64
   2  -5  -5   41.69    0.71
  -2   5   5   41.69    0.75
  -2   5   5   41.57    0.73
   1  -5  -5    0.51    0.03
   1  -5  -5    0.59    0.05
  -1   5   5    0.49    0.05
  -1   5   5    0.52    0.05
   0  -5  -5    2.06    0.08
   0  -5  -5    2.05    0.07
   0  -5  -5    1.88    0.05
   0   5   5    1.90    0.06
   0   5   5    1.94    0.08
   0   5   5    1.89    0.06
  -1  -5  -5    1.44    0.05
  -1  -5  -5    1.36    0.07
  -1  -5  -5    1.62    0.07
   1   5   5    1.39    0.07
   1   5   5    1.39    0.06
  -2  -5  -5   -0.01    0.03
  -2  -5  -5    0.00    0.03
   2   5   5   -0.01    0.03
   2   5   5    0.00    0.03
  -3  -5  -5   12.10    0.24
  -3  -5  -5   12.34    0.27
  -3  -5  -5   12.33    0.28
   3   5   5   11.86    0.27
   3   5   5   12.22    0.26
  -4  -5  -5    0.26    0.05
  -4  -5  -5    0.24    0.05
  -4  -5  -5    0.29    0.05
   4   5   5    0.34    0.06
   4   5   5    0.29    0.06
   4   5   5    0.30    0.05
  -5  -5  -5  100.08    1.76
  -5  -5  -5   99.92    1.57
  -5  -5  -5  102.00    1.68
   5   5   5  100.16    1.71
   5   5   5  100.61    1.75
   5   5   5  102.57    1.68
   5   5   5  101.50    1.56
  -6  -5  -5    6.69    0.16
  -6  -5  -5    6.33    0.20
   6   5   5    6.42    0.16
   6   5   5    6.22    0.20
  -7  -5  -5   12.87    0.33
   7   5   5   12.49    0.32
  -8  -5  -5    4.16    0.18
   8   5   5    4.88    0.19
  -9  -5  -5    0.02    0.06
   7  -6  -5    3.36    0.15
   6  -6  -5    1.31    0.09
  -6   6   5    1.26    0.10
   5  -6  -5    4.15    0.14
  -5   6   5    4.25    0.15
  -5   6   5    4.46    0.16
   4  -6  -5    0.27    0.05
  -4   6   5    0.23    0.05
  -4   6   5    0.19    0.05
   3  -6  -5    0.44    0.05
  -3   6   5    0.48    0.06
  -3   6   5    0.52    0.06
   2  -6  -5    7.95    0.19
  -2   6   5    7.82    0.19
  -2   6   5    7.93    0.20
   1  -6  -5    0.90    0.06
   1  -6  -5    0.90    0.04
  -1   6   5    0.96    0.07
   0  -6  -5    0.17    0.03
   0  -6  -5    0.12    0.04
   0   6   5    0.08    0.04
  -1  -6  -5    6.86    0.17
  -1  -6  -5    6.75    0.14
   1   6   5    6.66    0.18
   1   6   5    6.97    0.14
  -2  -6  -5    0.92    0.05
   2   6   5    0.85    0.07
   2   6   5    0.84    0.05
  -3  -6  -5    0.07    0.04
  -3  -6  -5    0.09    0.04
   3   6   5    0.20    0.05
   3   6   5    0.02    0.03
  -4  -6  -5    5.71    0.18
  -4  -6  -5    5.63    0.15
   4   6   5    5.65    0.18
   4   6   5    5.68    0.17
   4   6   5    5.53    0.18
  -5  -6  -5   10.66    0.27
  -5  -6  -5   10.58    0.23
   5   6   5   10.53    0.26
   5   6   5   10.93    0.27
   5   6   5   10.55    0.28
  -6  -6  -5    1.60    0.11
  -6  -6  -5    1.47    0.09
   6   6   5    1.34    0.10
  -7  -6  -5   24.03    0.53
   7   6   5   22.75    0.51
  -8  -6  -5   -0.01    0.06
   8   6   5    0.03    0.05
   6  -7  -5    0.04    0.05
   5  -7  -5   -0.03    0.04
  -5   7   5   -0.07    0.05
   4  -7  -5    4.38    0.14
  -4   7   5    4.27    0.14
   3  -7  -5    3.71    0.13
  -3   7   5    3.84    0.13
  -3   7   5    3.72    0.13
   2  -7  -5    3.34    0.12
  -2   7   5    3.46    0.12
   1  -7  -5    9.76    0.22
  -1   7   5    9.40    0.22
   0  -7  -5    0.75    0.04
   0  -7  -5    0.75    0.06
   0   7   5    0.79    0.07
  -1  -7  -5   16.08    0.28
  -1  -7  -5   15.97    0.33
   1   7   5   16.13    0.34
   1   7   5   16.02    0.34
  -2  -7  -5    4.71    0.12
   2   7   5    4.65    0.15
   2   7   5    4.71    0.11
  -3  -7  -5   17.69    0.37
  -3  -7  -5   18.08    0.33
   3   7   5   17.75    0.38
   3   7   5   17.93    0.36
  -4  -7  -5   62.67    1.02
  -4  -7  -5   63.96    1.10
   4   7   5   63.82    1.12
   4   7   5   62.45    1.10
   4   7   5   62.97    1.12
  -5  -7  -5    1.28    0.09
  -5  -7  -5    1.23    0.08
   5   7   5    1.52    0.11
   5   7   5    1.36    0.09
   5   7   5    1.44    0.10
  -6  -7  -5    0.64    0.07
   6   7   5    0.51    0.07
  -7  -7  -5    0.43    0.07
   7   7   5    0.74    0.09
   8   7   5    2.37    0.14
   5  -8  -5    2.84    0.12
   4  -8  -5    0.06    0.04
  -4   8   5    0.03    0.04
   3  -8  -5    2.80    0.11
  -3   8   5    2.89    0.12
   2  -8  -5   14.32    0.30
  -2   8   5   14.29    0.31
   1  -8  -5    1.38    0.08
  -1   8   5    1.43    0.09
   0  -8  -5    3.73    0.13
   0   8   5    3.67    0.13
  -1  -8  -5    6.85    0.15
   1   8   5    6.60    0.19
  -2  -8  -5   11.06    0.27
  -2  -8  -5   11.15    0.23
   2   8   5   10.97    0.27
  -3  -8  -5    0.15    0.05
  -3  -8  -5    0.07    0.04
   3   8   5    0.10    0.06
   3   8   5    0.10    0.03
  -4  -8  -5    0.02    0.04
  -4  -8  -5   -0.07    0.05
   4   8   5   -0.01    0.05
   4   8   5    0.08    0.06
   4   8   5    0.01    0.03
  -5  -8  -5    1.64    0.11
  -5  -8  -5    1.62    0.09
   5   8   5    1.65    0.12
   5   8   5    1.70    0.12
   5   8   5    1.67    0.09
  -6  -8  -5    1.69    0.10
   6   8   5    1.67    0.10
  -7  -8  -5    3.82    0.14
   7   8   5    3.67    0.16
   4  -9  -5    0.45    0.06
   3  -9  -5    0.00    0.04
   2  -9  -5    0.37    0.05
  -2   9   5    0.33    0.06
   1  -9  -5    0.31    0.05
  -1   9   5    0.31    0.05
   0  -9  -5    0.29    0.05
   0   9   5    0.15    0.05
  -1  -9  -5    6.70    0.15
   1   9   5    6.38    0.20
  -2  -9  -5   27.15    0.53
  -2  -9  -5   26.88    0.48
   2   9   5   27.73    0.55
  -3  -9  -5    2.21    0.12
  -3  -9  -5    2.30    0.10
   3   9   5    2.30    0.13
   3   9   5    2.64    0.13
  -4  -9  -5   14.85    0.36
  -4  -9  -5   16.07    0.33
   4   9   5   15.31    0.29
   4   9   5   14.80    0.37
   4   9   5   15.81    0.37
  -5  -9  -5   -0.06    0.04
  -5  -9  -5    0.08    0.05
   5   9   5    0.06    0.06
   5   9   5    0.04    0.06
   5   9   5    0.13    0.04
  -6  -9  -5    0.29    0.06
   6   9   5    0.22    0.05
   2 -10  -5    1.25    0.09
   1 -10  -5    9.53    0.24
  -1 -10  -5    9.68    0.25
  -2 -10  -5    2.52    0.13
  -2 -10  -5    2.54    0.10
  -3 -10  -5    3.55    0.15
  -3 -10  -5    3.40    0.13
   3  10   5    3.62    0.16
  -4 -10  -5   11.96    0.31
  -4 -10  -5   11.18    0.27
   4  10   5   11.78    0.32
  -5 -10  -5    2.66    0.12
  -5 -10  -5    2.81    0.15
   5  10   5    2.58    0.16
  -3  -9   6    6.06    0.19
  -2  -9   6    0.09    0.05
  -1  -9   6    0.49    0.06
   0  -9   6   16.99    0.33
   1  -9   6    0.06    0.02
   5   8  -6   18.08    0.43
  -5  -8   6   18.10    0.37
  -5  -8   6   18.02    0.42
   4   8  -6    0.17    0.07
   4   8  -6    0.10    0.06
  -4  -8   6    0.06    0.05
  -4  -8   6    0.18    0.05
   3   8  -6    5.03    0.17
   3   8  -6    4.98    0.17
  -3  -8   6    5.10    0.17
   2   8  -6    0.62    0.07
   2   8  -6    0.52    0.07
  -2  -8   6    0.56    0.07
   1   8  -6    2.51    0.10
   1   8  -6    2.42    0.10
  -1  -8   6    2.57    0.10
   0   8  -6    4.20    0.12
   0   8  -6    4.14    0.12
   0  -8   6    4.26    0.12
  -1   8  -6    1.43    0.06
  -1   8  -6    1.44    0.05
   1  -8   6    1.30    0.05
  -2   8  -6    6.62    0.13
   6   7  -6    2.83    0.16
   6   7  -6    3.31    0.16
   6   7  -6    3.12    0.11
  -6  -7   6    3.12    0.13
  -6  -7   6    3.50    0.16
   5   7  -6    0.86    0.09
   5   7  -6    0.78    0.09
  -5  -7   6    0.93    0.08
  -5  -7   6    0.85    0.09
   4   7  -6    5.46    0.19
   4   7  -6    5.72    0.19
  -4  -7   6    5.68    0.18
  -4  -7   6    5.46    0.15
   3   7  -6   13.89    0.32
   3   7  -6   13.68    0.32
  -3  -7   6   13.81    0.32
  -3  -7   6   14.66    0.27
   2   7  -6    6.82    0.18
   2   7  -6    6.69    0.19
  -2  -7   6    6.52    0.18
   1   7  -6  105.62    1.72
   1   7  -6  104.16    1.70
  -1  -7   6  104.28    1.69
   0   7  -6    0.44    0.05
   0   7  -6    0.44    0.05
   0  -7   6    0.43    0.05
  -1   7  -6    7.93    0.15
  -1   7  -6    7.90    0.16
   1  -7   6    7.65    0.16
  -2   7  -6    1.64    0.05
   7   6  -6    0.38    0.06
  -7  -6   6    0.40    0.07
   6   6  -6    1.14    0.08
   6   6  -6    1.26    0.10
   6   6  -6    1.19    0.11
  -6  -6   6    1.20    0.11
  -6  -6   6    1.05    0.08
   5   6  -6    0.24    0.06
   5   6  -6    0.35    0.07
   5   6  -6    0.25    0.04
  -5  -6   6    0.23    0.05
  -5  -6   6    0.19    0.06
   4   6  -6    6.18    0.19
   4   6  -6    6.24    0.12
   4   6  -6    6.31    0.20
  -4  -6   6    6.02    0.19
  -4  -6   6    6.09    0.16
   3   6  -6    2.44    0.11
   3   6  -6    2.28    0.11
  -3  -6   6    2.43    0.11
  -3  -6   6    2.57    0.09
   2   6  -6    0.15    0.05
   2   6  -6    0.25    0.05
  -2  -6   6    0.22    0.05
   1   6  -6    1.57    0.08
   1   6  -6    1.68    0.08
  -1  -6   6    1.53    0.08
   0   6  -6   11.21    0.22
   0   6  -6   11.01    0.23
   0  -6   6   11.24    0.22
  -1   6  -6    0.02    0.03
  -1   6  -6    0.03    0.02
   1  -6   6    0.04    0.02
  -2   6  -6    1.05    0.04
  -4   6  -6    7.97    0.15
  -4   6  -6    8.23    0.16
   5  -6   6    0.43    0.03
   6  -6   6   -0.09    0.03
   8   5  -6    4.82    0.19
   7   5  -6    0.15    0.05
  -7  -5   6    0.16    0.05
   6   5  -6   12.84    0.33
   6   5  -6   12.60    0.30
   6   5  -6   12.78    0.32
  -6  -5   6   12.29    0.28
  -6  -5   6   12.48    0.32
   5   5  -6    0.11    0.06
   5   5  -6    0.12    0.05
   5   5  -6    0.15    0.04
  -5  -5   6    0.14    0.05
  -5  -5   6    0.15    0.05
   4   5  -6    0.41    0.07
   4   5  -6    0.45    0.06
   4   5  -6    0.39    0.04
  -4  -5   6    0.57    0.07
  -4  -5   6    0.46    0.05
   3   5  -6    3.76    0.14
   3   5  -6    3.70    0.13
   3   5  -6    3.73    0.07
  -3  -5   6    3.70    0.13
  -3  -5   6    3.74    0.10
   2   5  -6   36.85    0.64
   2   5  -6   36.33    0.65
  -2  -5   6   36.63    0.57
  -2  -5   6   36.24    0.64
   1   5  -6    5.60    0.15
   1   5  -6    5.80    0.15
  -1  -5   6    5.78    0.14
   0   5  -6   72.02    1.18
   0   5  -6   72.84    1.17
   0  -5   6   71.90    1.16
  -1   5  -6    0.06    0.02
  -1   5  -6    0.04    0.02
  -1   5  -6    0.05    0.02
  -1   5  -6    0.07    0.02
   1  -5   6    0.06    0.02
   1  -5   6   -0.02    0.02
  -2   5  -6    8.48    0.15
  -2   5  -6    8.36    0.15
  -2   5  -6    8.59    0.15
   2  -5   6    8.29    0.15
   2  -5   6    8.54    0.15
  -3   5  -6    0.03    0.02
   3  -5   6    0.04    0.02
   3  -5   6    0.02    0.02
  -4   5  -6    6.05    0.13
  -4   5  -6    6.05    0.13
  -4   5  -6    6.21    0.12
   4  -5   6    5.86    0.12
  -5   5  -6   10.40    0.21
  -5   5  -6   10.65    0.23
  -5   5  -6   10.54    0.21
   5  -5   6   10.48    0.21
  -6   5  -6   -0.01    0.03
   6  -5   6    0.03    0.03
   8   4  -6    6.58    0.23
   7   4  -6   -0.05    0.04
  -7  -4   6    0.02    0.04
   6   4  -6    8.23    0.23
  -6  -4   6    8.28    0.20
   5   4  -6   28.45    0.57
   5   4  -6   28.61    0.56
   5   4  -6   28.38    0.55
  -5  -4   6   28.04    0.50
  -5  -4   6   28.74    0.56
   4   4  -6   11.06    0.25
   4   4  -6   10.54    0.26
   4   4  -6   10.90    0.26
  -4  -4   6   11.04    0.26
  -4  -4   6   10.80    0.23
   3   4  -6    0.91    0.08
   3   4  -6    1.08    0.06
   3   4  -6    1.00    0.08
  -3  -4   6    1.00    0.06
  -3  -4   6    0.96    0.07
   2   4  -6    1.11    0.07
   2   4  -6    1.23    0.07
  -2  -4   6    1.22    0.05
  -2  -4   6    1.32    0.07
   1   4  -6   13.79    0.27
   1   4  -6   14.35    0.28
  -1  -4   6   13.70    0.27
   0   4  -6    1.84    0.07
   0   4  -6    1.83    0.06
   0   4  -6    1.89    0.07
   0   4  -6    1.86    0.07
   0  -4   6    1.78    0.06
   0  -4   6    1.89    0.07
  -1   4  -6    0.57    0.04
  -1   4  -6    0.58    0.04
  -1   4  -6    0.61    0.04
  -1   4  -6    0.60    0.04
   1  -4   6    0.59    0.03
   1  -4   6    0.60    0.04
  -2   4  -6    6.81    0.13
  -2   4  -6    6.85    0.13
  -2   4  -6    7.08    0.13
   2  -4   6    7.02    0.13
   2  -4   6    6.85    0.13
  -3   4  -6    5.23    0.11
  -3   4  -6    5.21    0.11
  -3   4  -6    5.37    0.11
   3  -4   6    5.01    0.11
   3  -4   6    5.36    0.11
  -4   4  -6   23.78    0.41
  -4   4  -6   23.84    0.43
  -4   4  -6   23.67    0.41
   4  -4   6   23.84    0.41
  -5   4  -6    1.30    0.06
  -5   4  -6    1.24    0.07
  -5   4  -6    1.29    0.07
   5  -4   6    1.16    0.06
  -6   4  -6    1.18    0.07
  -6   4  -6    1.32    0.07
   6  -4   6    1.23    0.07
   7  -4   6    0.03    0.04
   9   3  -6    4.18    0.19
  -9  -3   6    4.10    0.19
   8   3  -6    4.09    0.18
  -8  -3   6    4.31    0.18
   7   3  -6   14.08    0.35
  -7  -3   6   14.85    0.37
  -7  -3   6   14.28    0.29
   6   3  -6    0.00    0.04
  -6  -3   6    0.06    0.04
  -6  -3   6    0.06    0.05
   5   3  -6    9.92    0.25
   5   3  -6   10.14    0.26
   5   3  -6   10.19    0.25
  -5  -3   6    9.93    0.26
  -5  -3   6   10.45    0.22
  -5  -3   6    9.99    0.26
   4   3  -6    6.31    0.18
   4   3  -6    6.41    0.17
   4   3  -6    6.41    0.18
  -4  -3   6    6.61    0.18
  -4  -3   6    6.27    0.15
   3   3  -6    0.76    0.05
   3   3  -6    0.89    0.07
   3   3  -6    0.86    0.07
  -3  -3   6    0.77    0.05
  -3  -3   6    0.73    0.07
   2   3  -6    1.79    0.06
   2   3  -6    1.86    0.08
   2   3  -6    1.93    0.08
   2   3  -6    1.57    0.07
  -2  -3   6    1.85    0.08
  -2  -3   6    1.91    0.06
  -2  -3   6    1.87    0.07
   1   3  -6    2.12    0.08
   1   3  -6    2.08    0.08
   1   3  -6    2.07    0.07
   1   3  -6    2.03    0.07
  -1  -3   6    1.95    0.07
  -1  -3   6    2.06    0.07
   0   3  -6   12.36    0.23
   0   3  -6   12.12    0.23
   0   3  -6   12.27    0.23
   0   3  -6   12.18    0.24
   0  -3   6   12.38    0.23
   0  -3   6   12.26    0.23
  -1   3  -6    2.13    0.06
  -1   3  -6    2.07    0.06
  -1   3  -6    2.14    0.06
   1  -3   6    2.05    0.06
   1  -3   6    2.07    0.06
  -2   3  -6    7.88    0.15
  -2   3  -6    7.58    0.15
  -2   3  -6    7.61    0.15
   2  -3   6    7.75    0.15
   2  -3   6    7.81    0.15
  -3   3  -6   36.35    0.61
  -3   3  -6   36.75    0.60
  -3   3  -6   36.39    0.61
   3  -3   6   36.04    0.60
   3  -3   6   36.97    0.60
  -4   3  -6    3.08    0.09
  -4   3  -6    3.06    0.09
  -4   3  -6    2.99    0.09
   4  -3   6    3.01    0.09
  -5   3  -6    7.99    0.18
  -5   3  -6    7.62    0.18
  -5   3  -6    7.74    0.19
   5  -3   6    8.16    0.18
  -6   3  -6    0.20    0.04
  -6   3  -6    0.15    0.04
  -6   3  -6    0.08    0.04
   6  -3   6    0.13    0.04
  -7   3  -6    7.38    0.20
  -7   3  -6    7.53    0.20
   7  -3   6    7.09    0.19
   8  -3   6    0.05    0.05
  -9  -2   6   -0.07    0.05
  -8  -2   6    2.93    0.15
   7   2  -6   28.76    0.50
   7   2  -6   28.53    0.59
  -7  -2   6   28.13    0.59
   6   2  -6    0.36    0.06
   6   2  -6    0.41    0.05
  -6  -2   6    0.36    0.05
  -6  -2   6    0.40    0.07
   5   2  -6   35.61    0.67
   5   2  -6   34.96    0.68
   5   2  -6   35.93    0.66
   5   2  -6   36.38    0.59
  -5  -2   6   36.01    0.66
  -5  -2   6   35.72    0.69
  -5  -2   6   35.58    0.60
   4   2  -6    0.11    0.03
   4   2  -6    0.04    0.03
   4   2  -6    0.08    0.04
   4   2  -6    0.09    0.04
  -4  -2   6    0.10    0.04
  -4  -2   6    0.08    0.04
  -4  -2   6    0.01    0.04
   3   2  -6   23.07    0.36
   3   2  -6   23.23    0.42
   3   2  -6   22.76    0.44
   3   2  -6   22.16    0.43
   3   2  -6   22.96    0.44
  -3  -2   6   23.38    0.45
  -3  -2   6   22.46    0.43
  -3  -2   6   23.68    0.44
  -3  -2   6   22.85    0.39
  -3  -2   6   22.91    0.45
   2   2  -6    3.27    0.10
   2   2  -6    3.09    0.09
   2   2  -6    3.16    0.10
   2   2  -6    3.17    0.10
   2   2  -6    3.16    0.10
  -2  -2   6    3.25    0.10
  -2  -2   6    3.18    0.08
  -2  -2   6    3.35    0.10
  -2  -2   6    3.11    0.10
  -2  -2   6    3.18    0.10
   1   2  -6    1.53    0.05
   1   2  -6    1.34    0.06
   1   2  -6    1.49    0.05
   1   2  -6    1.52    0.06
   1   2  -6    1.47    0.06
   1   2  -6    1.60    0.06
  -1  -2   6    1.50    0.04
  -1  -2   6    1.51    0.06
  -1  -2   6    1.47    0.06
  -1  -2   6    1.56    0.06
  -1  -2   6    1.48    0.06
   0   2  -6    1.89    0.06
   0   2  -6    1.97    0.06
   0   2  -6    1.92    0.06
   0   2  -6    1.95    0.07
   0  -2   6    1.85    0.06
   0  -2   6    2.05    0.06
  -1   2  -6   27.96    0.47
  -1   2  -6   28.08    0.47
  -1   2  -6   28.16    0.47
   1  -2   6   27.49    0.46
   1  -2   6   28.20    0.46
  -2   2  -6    7.75    0.15
  -2   2  -6    7.76    0.16
  -2   2  -6    7.70    0.15
   2  -2   6    7.68    0.15
   2  -2   6    7.51    0.15
  -3   2  -6    3.92    0.10
  -3   2  -6    3.84    0.10
  -3   2  -6    3.72    0.10
   3  -2   6    3.98    0.10
   3  -2   6    3.71    0.10
  -4   2  -6    3.67    0.11
  -4   2  -6    3.82    0.11
  -4   2  -6    3.87    0.11
   4  -2   6    3.82    0.10
  -5   2  -6   24.18    0.45
  -5   2  -6   23.96    0.44
  -5   2  -6   23.94    0.46
   5  -2   6   23.73    0.43
  -6   2  -6    2.69    0.11
  -6   2  -6    2.90    0.12
  -6   2  -6    3.17    0.12
   6  -2   6    2.71    0.11
  -7   2  -6    1.14    0.08
  -7   2  -6    1.19    0.08
   7  -2   6    0.99    0.08
  -8   2  -6    0.22    0.07
   8  -2   6    0.20    0.04
   8  -2   6    0.26    0.06
   9   1  -6    0.21    0.05
  -9  -1   6    0.29    0.07
   8   1  -6   16.71    0.34
  -8  -1   6   16.71    0.40
   7   1  -6    0.67    0.06
  -7  -1   6    0.68    0.08
   6   1  -6   49.68    0.80
   6   1  -6   48.79    0.91
  -6  -1   6   47.91    0.91
   5   1  -6   18.61    0.34
   5   1  -6   18.51    0.39
   5   1  -6   19.24    0.40
  -5  -1   6   19.02    0.34
  -5  -1   6   19.19    0.40
  -5  -1   6   18.70    0.41
  -5  -1   6   18.71    0.40
   4   1  -6   69.30    1.17
   4   1  -6   71.27    1.10
   4   1  -6   68.97    1.18
   4   1  -6   69.87    1.23
   4   1  -6   68.66    1.20
  -4  -1   6   71.56    1.20
  -4  -1   6   73.13    1.18
  -4  -1   6   71.27    1.11
  -4  -1   6   71.04    1.24
  -4  -1   6   70.40    1.24
   3   1  -6   25.11    0.46
   3   1  -6   25.34    0.47
   3   1  -6   25.26    0.41
   3   1  -6   25.35    0.46
   3   1  -6   24.56    0.47
  -3  -1   6   25.49    0.46
  -3  -1   6   24.62    0.42
  -3  -1   6   25.04    0.48
  -3  -1   6   24.97    0.47
   2   1  -6    1.28    0.07
   2   1  -6    1.33    0.06
   2   1  -6    1.25    0.07
   2   1  -6    1.34    0.06
   2   1  -6    1.35    0.06
   2   1  -6    1.28    0.04
  -2  -1   6    1.33    0.07
  -2  -1   6    1.38    0.07
  -2  -1   6    1.21    0.05
  -2  -1   6    1.35    0.07
   1   1  -6   12.71    0.24
   1   1  -6   12.75    0.26
   1   1  -6   12.23    0.24
   1   1  -6   12.98    0.25
   1   1  -6   12.68    0.25
  -1  -1   6   12.62    0.25
  -1  -1   6   12.49    0.22
  -1  -1   6   13.22    0.25
  -1  -1   6   12.66    0.24
   0   1  -6    1.08    0.05
   0   1  -6    0.93    0.05
   0   1  -6    1.00    0.05
   0   1  -6    1.03    0.04
   0   1  -6    1.02    0.04
   0   1  -6    1.16    0.05
   0  -1   6    1.07    0.05
   0  -1   6    1.11    0.05
   0  -1   6    1.03    0.05
   0  -1   6    1.04    0.03
  -1   1  -6    0.09    0.02
  -1   1  -6    0.04    0.02
  -1   1  -6    0.13    0.02
   1  -1   6    0.11    0.02
  -2   1  -6    0.89    0.05
  -2   1  -6    0.86    0.04
  -2   1  -6    0.84    0.05
   2  -1   6    0.89    0.04
   2  -1   6    0.93    0.05
  -3   1  -6    3.54    0.10
  -3   1  -6    3.69    0.10
  -3   1  -6    3.75    0.10
  -3   1  -6    3.55    0.10
   3  -1   6    3.63    0.10
   3  -1   6    3.73    0.10
  -4   1  -6   62.59    1.04
  -4   1  -6   61.76    1.07
  -4   1  -6   61.55    1.02
   4  -1   6   61.95    1.02
  -5   1  -6    0.48    0.06
  -5   1  -6    0.50    0.05
   5  -1   6    0.29    0.05
  -6   1  -6   43.66    0.78
  -6   1  -6   42.87    0.77
  -6   1  -6   43.32    0.81
   6  -1   6   44.41    0.70
   6  -1   6   43.48    0.76
  -7   1  -6    3.20    0.13
  -7   1  -6    3.24    0.13
  -7   1  -6    3.16    0.14
   7  -1   6    3.34    0.10
   7  -1   6    3.05    0.13
  -8   1  -6   21.12    0.46
  -8   1  -6   22.08    0.47
   8  -1   6   21.82    0.45
   8  -1   6   21.62    0.40
   9   0  -6    1.52    0.09
  -9   0   6    1.33    0.10
   8   0  -6    1.11    0.08
  -8   0   6    1.01    0.09
   7   0  -6    7.51    0.19
   7   0  -6    7.82    0.23
  -7   0   6    7.89    0.24
  -7   0   6    7.71    0.22
   6   0  -6    2.06    0.09
   6   0  -6    2.04    0.11
  -6   0   6    1.99    0.11
  -6   0   6    1.90    0.11
  -6   0   6    2.07    0.11
   5   0  -6    2.51    0.11
   5   0  -6    2.73    0.11
   5   0  -6    2.57    0.09
  -5   0   6    2.64    0.12
  -5   0   6    2.70    0.12
  -5   0   6    2.48    0.11
   4   0  -6   10.53    0.23
   4   0  -6   10.17    0.24
   4   0  -6    9.90    0.20
   4   0  -6   10.63    0.24
   4   0  -6   10.35    0.23
  -4   0   6   10.17    0.23
  -4   0   6   10.34    0.25
  -4   0   6    9.89    0.24
  -4   0   6   10.15    0.24
  -4   0   6   10.29    0.20
   3   0  -6   38.10    0.60
   3   0  -6   36.64    0.66
   3   0  -6   38.41    0.65
   3   0  -6   37.21    0.65
  -3   0   6   37.94    0.60
  -3   0   6   37.56    0.68
  -3   0   6   37.15    0.66
  -3   0   6   36.43    0.65
  -3   0   6   36.93    0.68
   2   0  -6    4.12    0.11
   2   0  -6    3.98    0.12
   2   0  -6    4.13    0.11
   2   0  -6    4.10    0.09
   2   0  -6    4.07    0.11
  -2   0   6    4.17    0.12
  -2   0   6    4.09    0.11
  -2   0   6    3.96    0.09
  -2   0   6    4.11    0.12
  -2   0   6    4.25    0.12
   1   0  -6   25.31    0.45
   1   0  -6   25.27    0.46
   1   0  -6   26.16    0.40
   1   0  -6   23.89    0.44
   1   0  -6   25.65    0.46
   1   0  -6   25.30    0.44
  -1   0   6   26.19    0.46
  -1   0   6   25.21    0.41
  -1   0   6   24.75    0.44
  -1   0   6   25.32    0.46
  -1   0   6   25.58    0.45
   0   0  -6    1.24    0.05
   0   0  -6    1.37    0.06
   0   0  -6    1.30    0.06
   0   0  -6    1.23    0.05
   0   0  -6    1.23    0.06
   0   0  -6    1.27    0.06
   0   0   6    1.27    0.05
   0   0   6    1.29    0.04
   0   0   6    1.27    0.05
  -1   0  -6    3.31    0.09
  -1   0  -6    3.24    0.09
  -1   0  -6    3.25    0.08
   1   0   6    3.35    0.09
   1   0   6    3.21    0.09
   1   0   6    3.29    0.09
   1   0   6    3.31    0.07
  -2   0  -6    3.81    0.10
  -2   0  -6    3.84    0.10
  -2   0  -6    3.95    0.10
  -2   0  -6    4.00    0.09
   2   0   6    4.05    0.10
   2   0   6    3.96    0.10
   2   0   6    3.82    0.10
  -3   0  -6    0.08    0.03
  -3   0  -6    0.08    0.03
  -3   0  -6    0.05    0.03
  -3   0  -6   -0.01    0.02
  -3   0  -6    0.02    0.03
  -3   0  -6   -0.01    0.02
   3   0   6    0.02    0.03
   3   0   6    0.01    0.02
   3   0   6   -0.03    0.02
  -4   0  -6    1.38    0.05
  -4   0  -6    1.40    0.05
  -4   0  -6    1.46    0.07
  -4   0  -6    1.40    0.07
  -4   0  -6    1.47    0.08
   4   0   6    1.31    0.07
   4   0   6    1.39    0.05
  -5   0  -6    0.35    0.05
  -5   0  -6    0.28    0.05
  -5   0  -6    0.28    0.03
  -5   0  -6    0.31    0.03
  -5   0  -6    0.23    0.05
   5   0   6    0.31    0.04
   5   0   6    0.22    0.05
  -6   0  -6   25.29    0.50
  -6   0  -6   26.14    0.52
  -6   0  -6   26.10    0.49
   6   0   6   24.80    0.48
   6   0   6   24.78    0.43
  -7   0  -6    9.17    0.25
  -7   0  -6    9.28    0.24
  -7   0  -6    9.23    0.25
   7   0   6    8.92    0.24
   7   0   6    8.96    0.20
  -8   0  -6    8.72    0.25
  -8   0  -6    8.69    0.25
   8   0   6    8.68    0.24
   8   0   6    8.67    0.21
   9   0   6    0.38    0.06
   9   0   6    0.25    0.06
   9  -1  -6    1.22    0.09
  -9   1   6    1.29    0.08
   8  -1  -6    0.33    0.07
   8  -1  -6    0.35    0.05
  -8   1   6    0.38    0.06
  -8   1   6    0.41    0.08
   7  -1  -6   14.30    0.29
   7  -1  -6   14.24    0.34
  -7   1   6   14.14    0.32
  -7   1   6   14.12    0.35
  -7   1   6   13.92    0.36
   6  -1  -6    0.07    0.05
   6  -1  -6    0.12    0.04
  -6   1   6    0.06    0.04
  -6   1   6    0.12    0.05
  -6   1   6   -0.01    0.05
   5  -1  -6   20.80    0.42
   5  -1  -6   21.00    0.38
  -5   1   6   21.29    0.45
  -5   1   6   21.28    0.43
  -5   1   6   21.13    0.43
   4  -1  -6   12.93    0.28
   4  -1  -6   13.23    0.24
   4  -1  -6   13.09    0.28
  -4   1   6   12.67    0.29
  -4   1   6   12.61    0.28
  -4   1   6   12.76    0.28
   3  -1  -6    0.61    0.05
   3  -1  -6    0.60    0.04
   3  -1  -6    0.64    0.06
   3  -1  -6    0.62    0.05
   3  -1  -6    0.49    0.05
  -3   1   6    0.62    0.06
  -3   1   6    0.64    0.04
  -3   1   6    0.61    0.06
  -3   1   6    0.62    0.05
  -3   1   6    0.64    0.05
   2  -1  -6   73.69    1.21
   2  -1  -6   73.45    1.19
   2  -1  -6   73.41    1.19
   2  -1  -6   73.60    1.12
   2  -1  -6   74.68    1.25
  -2   1   6   72.48    1.12
  -2   1   6   73.25    1.25
  -2   1   6   71.40    1.25
  -2   1   6   72.02    1.21
  -2   1   6   71.64    1.18
   1  -1  -6   12.23    0.24
   1  -1  -6   11.74    0.24
   1  -1  -6   12.15    0.21
   1  -1  -6   12.46    0.24
   1  -1  -6   12.15    0.23
  -1   1   6   11.96    0.21
  -1   1   6   12.25    0.25
  -1   1   6   11.69    0.23
  -1   1   6   12.44    0.25
  -1   1   6   12.11    0.24
   0  -1  -6   89.43    1.48
   0  -1  -6   89.92    1.54
   0  -1  -6   90.91    1.47
   0  -1  -6   91.43    1.38
   0  -1  -6   92.06    1.45
   0  -1  -6   91.48    1.53
   0   1   6   92.19    1.46
   0   1   6   89.52    1.39
   0   1   6   89.84    1.48
   0   1   6   96.01    1.54
  -1  -1  -6   54.85    0.81
  -1  -1  -6   51.50    0.87
  -1  -1  -6   51.99    0.88
  -1  -1  -6   51.77    0.88
  -1  -1  -6   52.98    0.91
  -1  -1  -6   53.77    0.86
   1   1   6   52.72    0.88
   1   1   6   51.34    0.82
   1   1   6   53.88    0.86
   1   1   6   54.64    0.91
  -2  -1  -6   10.37    0.21
  -2  -1  -6   10.57    0.22
  -2  -1  -6   10.55    0.22
  -2  -1  -6   10.37    0.21
  -2  -1  -6   10.60    0.21
   2   1   6   10.99    0.22
   2   1   6   10.97    0.22
   2   1   6   10.69    0.21
   2   1   6   10.32    0.19
  -3  -1  -6   47.80    0.80
  -3  -1  -6   47.43    0.82
  -3  -1  -6   45.70    0.83
  -3  -1  -6   47.12    0.80
  -3  -1  -6   45.50    0.79
   3   1   6   47.51    0.83
   3   1   6   47.61    0.80
   3   1   6   46.26    0.74
   3   1   6   48.28    0.78
   3   1   6   47.29    0.79
  -4  -1  -6   16.00    0.33
  -4  -1  -6   16.02    0.31
  -4  -1  -6   16.17    0.32
  -4  -1  -6   15.97    0.32
   4   1   6   15.63    0.28
   4   1   6   16.05    0.31
  -5  -1  -6    5.66    0.17
  -5  -1  -6    5.66    0.17
  -5  -1  -6    5.87    0.15
  -5  -1  -6    5.87    0.16
   5   1   6    5.95    0.13
   5   1   6    5.69    0.16
  -6  -1  -6    7.72    0.22
  -6  -1  -6    7.80    0.21
  -6  -1  -6    7.87    0.21
  -6  -1  -6    7.70    0.18
   6   1   6    7.37    0.17
   6   1   6    7.75    0.21
  -7  -1  -6   23.85    0.50
  -7  -1  -6   23.09    0.48
  -7  -1  -6   23.37    0.48
  -7  -1  -6   23.21    0.44
   7   1   6   22.94    0.42
   7   1   6   23.50    0.47
  -8  -1  -6    0.62    0.08
  -8  -1  -6    0.65    0.05
  -8  -1  -6    0.71    0.09
  -8  -1  -6    0.79    0.09
   8   1   6    0.72    0.08
   8   1   6    0.61    0.06
   9   1   6    8.48    0.26
   9   1   6    8.05    0.21
   8  -2  -6    0.16    0.05
   8  -2  -6    0.19    0.06
  -8   2   6    0.14    0.06
  -8   2   6    0.13    0.04
   7  -2  -6    0.22    0.05
   7  -2  -6    0.16    0.06
  -7   2   6    0.35    0.05
  -7   2   6    0.18    0.06
  -7   2   6    0.35    0.07
   6  -2  -6    1.61    0.08
   6  -2  -6    1.49    0.09
  -6   2   6    1.62    0.10
  -6   2   6    1.49    0.10
  -6   2   6    1.52    0.08
   5  -2  -6   17.86    0.32
   5  -2  -6   17.61    0.36
  -5   2   6   17.25    0.38
  -5   2   6   16.77    0.37
  -5   2   6   17.86    0.35
   4  -2  -6    0.86    0.07
   4  -2  -6    0.80    0.05
  -4   2   6    0.88    0.07
  -4   2   6    0.76    0.07
  -4   2   6    0.93    0.06
   3  -2  -6    1.71    0.08
   3  -2  -6    1.59    0.08
   3  -2  -6    1.55    0.07
   3  -2  -6    1.56    0.06
   3  -2  -6    1.56    0.07
  -3   2   6    1.63    0.07
  -3   2   6    1.61    0.07
  -3   2   6    1.53    0.08
  -3   2   6    1.38    0.08
   2  -2  -6   10.75    0.23
   2  -2  -6   10.86    0.22
   2  -2  -6   10.59    0.20
   2  -2  -6   11.02    0.23
   2  -2  -6   10.82    0.22
  -2   2   6   10.79    0.18
  -2   2   6   11.07    0.22
  -2   2   6   11.25    0.24
  -2   2   6   10.56    0.23
  -2   2   6   10.87    0.23
   1  -2  -6    1.31    0.06
   1  -2  -6    1.33    0.06
   1  -2  -6    1.25    0.05
   1  -2  -6    1.38    0.06
   1  -2  -6    1.27    0.06
  -1   2   6    1.30    0.07
  -1   2   6    1.20    0.06
  -1   2   6    1.25    0.04
  -1   2   6    1.34    0.06
  -1   2   6    1.28    0.06
   0  -2  -6    0.07    0.03
   0  -2  -6    0.04    0.02
   0  -2  -6   -0.03    0.03
   0  -2  -6    0.05    0.03
   0  -2  -6    0.08    0.03
   0   2   6    0.06    0.03
   0   2   6    0.01    0.03
   0   2   6   -0.01    0.03
   0   2   6    0.06    0.02
  -1  -2  -6    1.81    0.07
  -1  -2  -6    1.77    0.05
  -1  -2  -6    1.77    0.07
  -1  -2  -6    1.69    0.07
  -1  -2  -6    1.76    0.07
   1   2   6    1.70    0.07
   1   2   6    1.65    0.07
   1   2   6    1.80    0.07
   1   2   6    1.72    0.05
  -2  -2  -6   43.15    0.72
  -2  -2  -6   42.06    0.77
  -2  -2  -6   43.12    0.67
  -2  -2  -6   42.62    0.73
  -2  -2  -6   43.52    0.76
  -2  -2  -6   41.75    0.74
   2   2   6   44.32    0.74
   2   2   6   43.57    0.68
   2   2   6   44.10    0.76
   2   2   6   44.51    0.74
   2   2   6   43.48    0.73
  -3  -2  -6    3.60    0.08
  -3  -2  -6    3.54    0.12
  -3  -2  -6    3.64    0.11
  -3  -2  -6    3.70    0.11
  -3  -2  -6    3.55    0.11
  -3  -2  -6    3.57    0.11
   3   2   6    3.70    0.11
   3   2   6    3.74    0.11
   3   2   6    3.57    0.11
   3   2   6    3.65    0.09
   3   2   6    3.56    0.11
  -4  -2  -6    6.99    0.18
  -4  -2  -6    7.15    0.19
  -4  -2  -6    7.27    0.18
  -4  -2  -6    7.23    0.19
   4   2   6    7.52    0.18
   4   2   6    7.49    0.18
   4   2   6    7.50    0.18
   4   2   6    7.41    0.16
  -5  -2  -6    4.14    0.13
  -5  -2  -6    4.03    0.14
  -5  -2  -6    3.98    0.14
  -5  -2  -6    4.28    0.14
   5   2   6    4.18    0.14
   5   2   6    4.18    0.11
  -6  -2  -6    0.25    0.06
  -6  -2  -6    0.29    0.06
  -6  -2  -6    0.32    0.06
  -6  -2  -6    0.27    0.05
   6   2   6    0.31    0.06
   6   2   6    0.33    0.05
  -7  -2  -6    0.71    0.08
  -7  -2  -6    0.94    0.09
  -7  -2  -6    0.87    0.09
  -7  -2  -6    0.73    0.07
   7   2   6    0.80    0.08
   7   2   6    0.75    0.06
  -8  -2  -6    4.24    0.14
  -8  -2  -6    4.02    0.17
  -8  -2  -6    4.50    0.18
  -8  -2  -6    4.13    0.17
   8   2   6    4.10    0.16
   8   2   6    4.16    0.14
  -9  -2  -6   -0.11    0.06
  -9  -2  -6   -0.03    0.04
   9   2   6   -0.04    0.04
   9   2   6   -0.08    0.05
   8  -3  -6    0.34    0.06
   8  -3  -6    0.33    0.07
  -8   3   6    0.33    0.08
   7  -3  -6    0.78    0.08
   7  -3  -6    0.79    0.07
  -7   3   6    0.79    0.09
  -7   3   6    0.84    0.09
   6  -3  -6    0.73    0.06
   6  -3  -6    0.67    0.08
  -6   3   6    0.62    0.05
  -6   3   6    0.74    0.08
  -6   3   6    0.60    0.08
   5  -3  -6    0.20    0.05
   5  -3  -6    0.21    0.04
  -5   3   6    0.23    0.05
  -5   3   6    0.14    0.05
   4  -3  -6   11.44    0.22
   4  -3  -6   11.75    0.26
  -4   3   6   11.54    0.27
  -4   3   6   11.54    0.26
   3  -3  -6    0.04    0.02
   3  -3  -6    0.02    0.03
  -3   3   6    0.05    0.03
  -3   3   6    0.04    0.04
  -3   3   6    0.04    0.04
   2  -3  -6   13.83    0.24
   2  -3  -6   13.60    0.27
   2  -3  -6   13.92    0.28
   2  -3  -6   13.74    0.27
   2  -3  -6   14.01    0.28
  -2   3   6   13.35    0.28
  -2   3   6   13.84    0.28
  -2   3   6   13.98    0.29
  -2   3   6   13.68    0.27
   1  -3  -6    3.25    0.09
   1  -3  -6    3.29    0.10
   1  -3  -6    3.26    0.08
   1  -3  -6    3.39    0.10
   1  -3  -6    3.31    0.10
  -1   3   6    3.26    0.10
  -1   3   6    3.25    0.10
  -1   3   6    3.38    0.10
  -1   3   6    3.21    0.09
  -1   3   6    3.14    0.10
   0  -3  -6    9.02    0.20
   0  -3  -6    8.75    0.19
   0  -3  -6    8.59    0.16
   0  -3  -6    9.51    0.20
   0  -3  -6    8.95    0.19
   0   3   6    9.02    0.15
   0   3   6    9.25    0.19
   0   3   6    9.07    0.19
   0   3   6    8.57    0.19
  -1  -3  -6   18.65    0.34
  -1  -3  -6   18.94    0.36
  -1  -3  -6   18.26    0.36
  -1  -3  -6   19.15    0.34
  -1  -3  -6   18.44    0.31
  -1  -3  -6   19.11    0.35
   1   3   6   18.66    0.36
   1   3   6   18.23    0.35
   1   3   6   18.68    0.34
   1   3   6   18.71    0.31
  -2  -3  -6   17.50    0.35
  -2  -3  -6   17.57    0.33
  -2  -3  -6   18.04    0.33
  -2  -3  -6   18.10    0.34
  -2  -3  -6   17.41    0.30
  -2  -3  -6   16.93    0.35
   2   3   6   17.35    0.34
   2   3   6   17.47    0.33
   2   3   6   17.96    0.35
   2   3   6   17.62    0.30
  -3  -3  -6   26.01    0.43
  -3  -3  -6   25.31    0.50
  -3  -3  -6   25.32    0.49
  -3  -3  -6   25.87    0.48
  -3  -3  -6   25.63    0.47
  -3  -3  -6   26.45    0.48
   3   3   6   26.97    0.49
   3   3   6   25.68    0.43
   3   3   6   26.50    0.48
   3   3   6   26.71    0.47
  -4  -3  -6    8.59    0.21
  -4  -3  -6    8.47    0.21
  -4  -3  -6    8.58    0.21
  -4  -3  -6    8.44    0.21
  -4  -3  -6    8.74    0.17
  -4  -3  -6    8.32    0.22
   4   3   6    8.36    0.20
   4   3   6    8.79    0.21
   4   3   6    8.33    0.21
   4   3   6    8.46    0.18
   4   3   6    8.90    0.21
  -5  -3  -6   21.60    0.43
  -5  -3  -6   21.61    0.44
  -5  -3  -6   21.27    0.44
  -5  -3  -6   21.88    0.46
   5   3   6   21.95    0.39
   5   3   6   21.88    0.44
   5   3   6   22.27    0.43
  -6  -3  -6    4.60    0.16
  -6  -3  -6    4.69    0.17
  -6  -3  -6    4.58    0.17
  -6  -3  -6    4.83    0.16
   6   3   6    4.45    0.13
   6   3   6    4.86    0.16
  -7  -3  -6    2.56    0.13
  -7  -3  -6    2.30    0.12
  -7  -3  -6    2.53    0.13
  -7  -3  -6    2.38    0.13
   7   3   6    2.37    0.12
   7   3   6    2.53    0.10
  -8  -3  -6    0.84    0.08
   8   3   6    1.06    0.07
  -9  -3  -6    0.00    0.05
   9   3   6   -0.14    0.04
   8  -4  -6   10.86    0.30
   8  -4  -6   11.18    0.26
   7  -4  -6    5.59    0.16
   7  -4  -6    5.55    0.19
  -7   4   6    5.38    0.19
   6  -4  -6    0.36    0.06
   6  -4  -6    0.42    0.05
  -6   4   6    0.55    0.07
  -6   4   6    0.33    0.07
   5  -4  -6   10.26    0.25
   5  -4  -6   10.16    0.21
  -5   4   6   10.42    0.26
  -5   4   6   10.50    0.26
   4  -4  -6   -0.01    0.04
   4  -4  -6    0.04    0.03
  -4   4   6   -0.01    0.04
  -4   4   6    0.03    0.04
  -4   4   6    0.01    0.01
   3  -4  -6   25.82    0.42
   3  -4  -6   25.92    0.47
  -3   4   6   25.99    0.49
  -3   4   6   25.61    0.45
  -3   4   6   25.75    0.45
  -3   4   6   26.05    0.50
   2  -4  -6   56.01    0.94
   2  -4  -6   56.46    0.87
  -2   4   6   55.98    0.96
  -2   4   6   57.67    0.96
  -2   4   6   56.00    0.96
  -2   4   6   56.73    1.00
   1  -4  -6   84.37    1.41
   1  -4  -6   86.65    1.37
   1  -4  -6   83.43    1.27
   1  -4  -6   84.94    1.35
  -1   4   6   85.18    1.35
  -1   4   6   83.87    1.37
  -1   4   6   69.72    1.36
  -1   4   6   82.86    1.42
  -1   4   6   84.41    1.40
  -1   4   6   84.25    1.40
   0  -4  -6    0.61    0.05
   0  -4  -6    0.58    0.05
   0  -4  -6    0.59    0.05
   0  -4  -6    0.66    0.05
   0  -4  -6    0.74    0.05
   0  -4  -6    0.50    0.04
   0   4   6    0.49    0.05
   0   4   6    0.59    0.05
   0   4   6    0.52    0.04
  -1  -4  -6    1.86    0.06
  -1  -4  -6    2.28    0.09
  -1  -4  -6    2.05    0.08
  -1  -4  -6    2.06    0.08
  -1  -4  -6    2.09    0.08
  -1  -4  -6    2.07    0.08
   1   4   6    1.95    0.05
   1   4   6    2.04    0.08
   1   4   6    1.89    0.07
   1   4   6    1.98    0.08
  -2  -4  -6   22.17    0.41
  -2  -4  -6   22.19    0.41
  -2  -4  -6   22.63    0.42
  -2  -4  -6   21.96    0.43
  -2  -4  -6   22.26    0.43
  -2  -4  -6   21.92    0.37
   2   4   6   21.51    0.41
   2   4   6   21.86    0.41
   2   4   6   21.58    0.42
   2   4   6   22.15    0.36
  -3  -4  -6   37.81    0.67
  -3  -4  -6   37.73    0.69
  -3  -4  -6   36.54    0.66
  -3  -4  -6   37.23    0.61
  -3  -4  -6   38.15    0.69
  -3  -4  -6   37.27    0.66
   3   4   6   38.04    0.60
   3   4   6   37.93    0.67
   3   4   6   37.43    0.66
   3   4   6   36.81    0.68
  -4  -4  -6    2.47    0.09
  -4  -4  -6    2.45    0.11
  -4  -4  -6    2.41    0.11
  -4  -4  -6    2.41    0.11
  -4  -4  -6    2.52    0.11
  -4  -4  -6    2.40    0.11
   4   4   6    2.46    0.11
   4   4   6    2.48    0.11
   4   4   6    2.34    0.10
   4   4   6    2.39    0.08
   4   4   6    2.43    0.10
  -5  -4  -6   10.22    0.26
  -5  -4  -6   10.28    0.27
  -5  -4  -6   10.30    0.26
  -5  -4  -6   10.55    0.21
  -5  -4  -6   10.35    0.25
   5   4   6   10.29    0.25
   5   4   6   10.94    0.26
   5   4   6   10.40    0.22
  -6  -4  -6    1.07    0.09
   6   4   6    1.13    0.09
   6   4   6    1.16    0.07
  -7  -4  -6    3.66    0.15
   7   4   6    4.11    0.13
  -8  -4  -6    0.50    0.08
   8   4   6    0.58    0.06
  -9  -4  -6    0.87    0.09
   9   4   6    0.88    0.08
   7  -5  -6    0.06    0.05
   7  -5  -6    0.02    0.04
   6  -5  -6   10.40    0.22
   6  -5  -6    9.67    0.26
  -6   5   6    9.91    0.27
   5  -5  -6    0.39    0.06
   5  -5  -6    0.33    0.04
  -5   5   6    0.38    0.06
  -5   5   6    0.37    0.06
   4  -5  -6    3.36    0.12
   4  -5  -6    3.47    0.09
  -4   5   6    3.70    0.13
  -4   5   6    3.56    0.13
   3  -5  -6    0.28    0.03
   3  -5  -6    0.28    0.05
  -3   5   6    0.28    0.05
  -3   5   6    0.27    0.05
   2  -5  -6   36.32    0.64
   2  -5  -6   36.91    0.58
  -2   5   6   36.24    0.67
  -2   5   6   36.48    0.65
   1  -5  -6   14.23    0.24
   1  -5  -6   14.25    0.29
  -1   5   6   14.29    0.30
  -1   5   6   14.18    0.26
  -1   5   6   14.30    0.26
   0  -5  -6    1.47    0.05
   0  -5  -6    1.42    0.07
   0   5   6    1.44    0.08
   0   5   6    1.53    0.06
  -1  -5  -6    0.17    0.04
  -1  -5  -6    0.14    0.03
   1   5   6    0.15    0.04
   1   5   6    0.09    0.03
  -2  -5  -6    0.74    0.06
  -2  -5  -6    0.86    0.05
  -2  -5  -6    0.83    0.06
   2   5   6    0.84    0.07
   2   5   6    0.74    0.07
   2   5   6    0.81    0.06
  -3  -5  -6    0.35    0.05
  -3  -5  -6    0.42    0.05
  -3  -5  -6    0.30    0.05
   3   5   6    0.48    0.06
   3   5   6    0.41    0.05
  -4  -5  -6   29.95    0.59
  -4  -5  -6   29.40    0.56
  -4  -5  -6   30.40    0.51
   4   5   6   30.04    0.57
   4   5   6   28.99    0.57
   4   5   6   30.58    0.49
   4   5   6   30.02    0.56
  -5  -5  -6    0.22    0.06
  -5  -5  -6    0.20    0.05
   5   5   6    0.33    0.06
   5   5   6    0.29    0.04
  -6  -5  -6   16.19    0.38
  -6  -5  -6   17.10    0.32
   6   5   6   16.99    0.32
   6   5   6   16.38    0.38
  -7  -5  -6    9.45    0.27
   7   5   6   10.17    0.22
   7   5   6    9.72    0.27
  -8  -5  -6   10.10    0.29
  -9  -5  -6    0.15    0.06
   7  -6  -6    0.59    0.06
   6  -6  -6    1.58    0.10
   6  -6  -6    1.47    0.08
  -6   6   6    1.43    0.11
   5  -6  -6    1.66    0.09
  -5   6   6    1.62    0.10
   4  -6  -6    5.26    0.16
  -4   6   6    5.11    0.16
  -4   6   6    5.46    0.17
   3  -6  -6    0.82    0.07
  -3   6   6    0.85    0.07
  -3   6   6    0.86    0.07
   2  -6  -6  109.17    1.77
   2  -6  -6  111.15    1.66
  -2   6   6  109.14    1.80
  -2   6   6  107.58    1.87
   1  -6  -6    5.16    0.11
   1  -6  -6    5.11    0.14
  -1   6   6    4.99    0.15
   0  -6  -6    0.03    0.03
   0  -6  -6   -0.02    0.03
   0   6   6    0.00    0.01
   0   6   6    0.02    0.04
   0   6   6   -0.01    0.01
  -1  -6  -6    5.42    0.15
  -1  -6  -6    5.38    0.13
   1   6   6    5.47    0.16
   1   6   6    5.67    0.13
  -2  -6  -6    8.36    0.21
  -2  -6  -6    8.47    0.18
   2   6   6    8.42    0.21
   2   6   6    8.45    0.19
  -3  -6  -6    6.14    0.18
  -3  -6  -6    6.03    0.15
   3   6   6    6.27    0.17
   3   6   6    5.95    0.18
  -4  -6  -6   57.09    0.93
  -4  -6  -6   58.40    1.00
   4   6   6   56.69    1.03
   4   6   6   57.83    1.01
   4   6   6   57.47    1.02
  -5  -6  -6    1.36    0.08
  -5  -6  -6    1.18    0.09
  -5  -6  -6    1.34    0.10
   5   6   6    1.34    0.10
   5   6   6    1.25    0.09
  -6  -6  -6   15.14    0.37
  -6  -6  -6   15.28    0.31
   6   6   6   14.46    0.35
  -7  -6  -6    4.93    0.19
   7   6   6    4.62    0.18
  -8  -6  -6   13.11    0.35
   8   6   6   12.37    0.34
   6  -7  -6    0.08    0.06
   5  -7  -6    5.86    0.18
  -5   7   6    5.92    0.19
   4  -7  -6    0.50    0.06
  -4   7   6    0.47    0.06
   3  -7  -6    0.84    0.07
  -3   7   6    1.00    0.08
  -3   7   6    0.99    0.08
   2  -7  -6    6.97    0.19
  -2   7   6    7.10    0.19
   1  -7  -6    2.23    0.07
   1  -7  -6    2.16    0.10
  -1   7   6    2.25    0.10
   0  -7  -6    0.56    0.06
   0  -7  -6    0.52    0.04
   0   7   6    0.61    0.07
  -1  -7  -6   12.75    0.28
  -1  -7  -6   12.78    0.24
   1   7   6   12.81    0.29
   1   7   6   12.77    0.22
  -2  -7  -6    0.53    0.05
   2   7   6    0.43    0.06
   2   7   6    0.44    0.04
  -3  -7  -6    9.86    0.25
  -3  -7  -6    9.78    0.21
   3   7   6    9.68    0.22
   3   7   6    9.47    0.25
  -4  -7  -6    6.96    0.21
  -4  -7  -6    6.74    0.17
   4   7   6    7.22    0.21
   4   7   6    6.65    0.19
   4   7   6    7.00    0.21
  -5  -7  -6    7.80    0.23
  -5  -7  -6    7.98    0.20
   5   7   6    8.37    0.25
   5   7   6    8.37    0.24
   5   7   6    7.82    0.22
  -6  -7  -6    0.51    0.06
   6   7   6    0.40    0.07
   7   7   6   20.53    0.47
   8   7   6   -0.01    0.05
   5  -8  -6    0.58    0.07
   4  -8  -6    2.97    0.13
   3  -8  -6    6.64    0.19
  -3   8   6    6.65    0.19
   2  -8  -6    5.99    0.17
  -2   8   6    6.14    0.18
   1  -8  -6    4.03    0.14
  -1   8   6    4.42    0.15
   0  -8  -6    1.21    0.08
   0  -8  -6    1.22    0.06
   0   8   6    1.22    0.08
  -1  -8  -6    9.54    0.20
  -1  -8  -6    9.51    0.24
   1   8   6    9.48    0.25
   1   8   6    9.69    0.25
  -2  -8  -6    6.86    0.17
   2   8   6    7.16    0.21
  -3  -8  -6    0.60    0.06
  -3  -8  -6    0.61    0.07
   3   8   6    0.48    0.05
   3   8   6    0.60    0.08
  -4  -8  -6    8.94    0.21
  -4  -8  -6    9.01    0.25
   4   8   6    8.75    0.22
   4   8   6    8.72    0.25
   4   8   6    8.46    0.25
  -5  -8  -6    3.25    0.12
  -5  -8  -6    3.03    0.15
   5   8   6    3.36    0.15
   5   8   6    3.18    0.13
   5   8   6    3.05    0.15
  -6  -8  -6    2.10    0.10
   6   8   6    2.25    0.12
  -7  -8  -6    3.95    0.14
   7   8   6    4.24    0.17
   3  -9  -6    1.50    0.09
   2  -9  -6    0.38    0.06
  -2   9   6    0.32    0.06
   1  -9  -6    0.65    0.07
  -1   9   6    0.61    0.07
   0  -9  -6    0.94    0.08
   0   9   6    0.97    0.08
   1   9   6   14.00    0.33
  -2  -9  -6    0.06    0.05
  -2  -9  -6   -0.01    0.04
   2   9   6    0.02    0.06
  -3  -9  -6    2.15    0.12
  -3  -9  -6    2.34    0.10
   3   9   6    2.34    0.13
  -4  -9  -6    8.09    0.24
  -4  -9  -6    7.56    0.20
   4   9   6    7.53    0.24
   4   9   6    7.66    0.24
   4   9   6    7.69    0.18
  -5  -9  -6    0.67    0.07
  -5  -9  -6    0.74    0.09
   5   9   6    0.66    0.06
   5   9   6    0.56    0.09
   5   9   6    0.74    0.09
  -6  -9  -6    4.85    0.17
   6   9   6    5.01    0.17
   2 -10  -6    6.52    0.19
   1 -10  -6    0.98    0.08
  -1 -10  -6    0.46    0.06
  -2 -10  -6    4.39    0.14
  -2 -10  -6    4.73    0.17
  -3 -10  -6    2.13    0.11
  -3 -10  -6    2.17    0.13
   3  10   6    2.58    0.14
  -4 -10  -6    0.16    0.06
  -4 -10  -6    0.18    0.07
   4  10   6    0.18    0.08
  -5 -10  -6    0.05    0.05
  -5 -10  -6    0.12    0.06
   5  10   6    0.13    0.08
  -2  -9   7    9.36    0.24
  -1  -9   7    0.06    0.05
   0  -9   7    0.92    0.07
  -5  -8   7    6.31    0.22
  -5  -8   7    6.53    0.19
   4   8  -7    1.34    0.11
  -4  -8   7    1.41    0.09
  -4  -8   7    1.35    0.10
   3   8  -7    0.81    0.09
  -3  -8   7    0.86    0.08
   2   8  -7    3.26    0.13
   2   8  -7    3.60    0.14
  -2  -8   7    3.45    0.13
   1   8  -7   -0.02    0.04
   1   8  -7   -0.03    0.04
  -1  -8   7   -0.05    0.04
   0   8  -7    4.59    0.13
   0   8  -7    4.52    0.13
   0  -8   7    4.67    0.13
  -1   8  -7    0.30    0.03
  -1   8  -7    0.29    0.04
   1  -8   7    0.36    0.03
  -2   8  -7    0.33    0.03
   6   7  -7    0.52    0.08
   6   7  -7    0.57    0.10
   6   7  -7    0.50    0.05
  -6  -7   7    0.41    0.08
   5   7  -7   20.92    0.47
   5   7  -7   20.58    0.46
  -5  -7   7   20.41    0.40
  -5  -7   7   20.35    0.46
   4   7  -7    3.05    0.14
   4   7  -7    3.08    0.14
  -4  -7   7    3.15    0.11
  -4  -7   7    3.14    0.14
   3   7  -7    4.33    0.16
   3   7  -7    4.18    0.15
  -3  -7   7    4.16    0.15
  -3  -7   7    4.03    0.12
   2   7  -7    9.06    0.23
   2   7  -7    9.06    0.23
  -2  -7   7    9.45    0.23
   1   7  -7   16.84    0.34
   1   7  -7   16.30    0.33
  -1  -7   7   16.92    0.33
   0   7  -7    0.07    0.04
   0   7  -7    0.08    0.03
   0  -7   7    0.09    0.03
  -1   7  -7    0.04    0.03
  -1   7  -7    0.06    0.02
   1  -7   7    0.01    0.02
  -2   7  -7    2.19    0.06
   7   6  -7    3.47    0.14
  -7  -6   7    3.46    0.14
   6   6  -7    8.79    0.26
   6   6  -7    8.61    0.22
   6   6  -7    8.23    0.26
  -6  -6   7    8.27    0.22
  -6  -6   7    9.01    0.27
   5   6  -7    2.11    0.08
   5   6  -7    1.98    0.12
   5   6  -7    2.06    0.12
  -5  -6   7    2.15    0.12
  -5  -6   7    1.92    0.10
   4   6  -7    3.22    0.14
   4   6  -7    3.49    0.15
  -4  -6   7    3.39    0.14
  -4  -6   7    3.25    0.11
   3   6  -7   18.99    0.39
   3   6  -7   18.13    0.39
  -3  -6   7   19.17    0.34
  -3  -6   7   18.36    0.39
   2   6  -7    0.02    0.04
   2   6  -7   -0.03    0.04
  -2  -6   7    0.04    0.04
   1   6  -7   30.94    0.57
   1   6  -7   31.43    0.56
  -1  -6   7   31.57    0.56
   0   6  -7    4.38    0.12
   0   6  -7    4.53    0.12
   0  -6   7    4.97    0.12
  -1   6  -7    8.83    0.17
  -1   6  -7    8.94    0.18
   1  -6   7    8.61    0.17
  -2   6  -7    0.20    0.02
   2  -6   7    0.17    0.02
  -3   6  -7    6.02    0.12
  -4   6  -7    3.60    0.09
  -4   6  -7    3.64    0.08
  -5   6  -7   12.10    0.23
   5  -6   7   11.57    0.21
   8   5  -7   10.78    0.30
   7   5  -7    3.42    0.15
  -7  -5   7    3.46    0.13
   6   5  -7   14.99    0.35
   6   5  -7   15.12    0.37
   6   5  -7   15.60    0.38
  -6  -5   7   15.19    0.32
  -6  -5   7   15.52    0.37
   5   5  -7    1.40    0.08
   5   5  -7    1.35    0.10
   5   5  -7    1.52    0.10
  -5  -5   7    1.29    0.10
  -5  -5   7    1.32    0.08
   4   5  -7   12.44    0.26
   4   5  -7   12.54    0.29
   4   5  -7   12.02    0.30
  -4  -5   7   12.45    0.25
  -4  -5   7   12.45    0.30
   3   5  -7    2.33    0.11
   3   5  -7    2.45    0.11
  -3  -5   7    2.53    0.11
  -3  -5   7    2.45    0.08
   2   5  -7  199.29    3.19
   2   5  -7  199.42    3.23
  -2  -5   7  200.69    3.01
  -2  -5   7  199.43    3.17
   1   5  -7   11.98    0.25
   1   5  -7   11.75    0.25
  -1  -5   7   11.56    0.24
   0   5  -7    0.92    0.06
   0   5  -7    0.91    0.06
   0  -5   7    0.92    0.06
  -1   5  -7    2.07    0.07
  -1   5  -7    2.14    0.07
   1  -5   7    2.25    0.07
  -2   5  -7    2.45    0.06
  -2   5  -7    2.38    0.06
  -2   5  -7    2.43    0.06
   2  -5   7    2.47    0.06
   2  -5   7    2.58    0.06
  -3   5  -7    0.42    0.03
  -3   5  -7    0.44    0.03
  -3   5  -7    0.40    0.03
   3  -5   7    0.43    0.03
  -4   5  -7    0.97    0.04
  -4   5  -7    0.89    0.05
  -4   5  -7    0.89    0.05
   4  -5   7    0.88    0.04
  -5   5  -7    1.35    0.06
  -5   5  -7    1.28    0.06
   5  -5   7    1.22    0.06
  -6   5  -7    8.02    0.19
   6  -5   7    8.11    0.18
   8   4  -7    1.61    0.12
   7   4  -7    3.75    0.16
  -7  -4   7    3.88    0.13
   6   4  -7    1.43    0.10
  -6  -4   7    1.47    0.09
   5   4  -7    0.02    0.04
   5   4  -7    0.05    0.05
   5   4  -7    0.12    0.05
  -5  -4   7   -0.03    0.04
  -5  -4   7    0.00    0.04
   4   4  -7    0.23    0.05
   4   4  -7    0.25    0.04
   4   4  -7    0.24    0.06
  -4  -4   7    0.25    0.06
  -4  -4   7    0.30    0.05
   3   4  -7   19.34    0.39
   3   4  -7   18.77    0.38
   3   4  -7   19.20    0.36
  -3  -4   7   18.58    0.34
  -3  -4   7   19.30    0.38
   2   4  -7    7.62    0.19
   2   4  -7    7.82    0.19
  -2  -4   7    7.58    0.15
  -2  -4   7    7.70    0.19
   1   4  -7    2.24    0.09
   1   4  -7    2.25    0.09
  -1  -4   7    2.23    0.08
   0   4  -7   25.19    0.43
   0   4  -7   25.25    0.44
   0   4  -7   24.12    0.44
   0  -4   7   24.97    0.43
  -1   4  -7    0.57    0.04
  -1   4  -7    0.59    0.04
  -1   4  -7    0.55    0.04
  -1   4  -7    0.52    0.04
   1  -4   7    0.53    0.04
   1  -4   7    0.48    0.04
  -2   4  -7    8.21    0.16
  -2   4  -7    8.51    0.17
  -2   4  -7    8.76    0.17
   2  -4   7    8.61    0.16
   2  -4   7    8.46    0.16
  -3   4  -7    1.92    0.06
  -3   4  -7    1.83    0.06
  -3   4  -7    1.80    0.06
   3  -4   7    1.87    0.06
  -4   4  -7    1.19    0.06
  -4   4  -7    1.15    0.06
  -4   4  -7    1.18    0.06
  -5   4  -7    9.07    0.20
  -5   4  -7    9.48    0.21
  -5   4  -7    9.43    0.20
   5  -4   7    9.58    0.20
  -6   4  -7    1.93    0.09
  -6   4  -7    1.71    0.09
   6  -4   7    1.90    0.08
   7  -4   7    0.07    0.04
   8   3  -7    5.26    0.20
  -8  -3   7    4.95    0.20
   7   3  -7    0.18    0.06
  -7  -3   7    0.15    0.04
  -7  -3   7    0.11    0.06
   6   3  -7   11.21    0.29
  -6  -3   7   11.61    0.25
   5   3  -7   11.01    0.27
   5   3  -7   11.17    0.28
   5   3  -7   10.73    0.27
  -5  -3   7   10.93    0.27
  -5  -3   7   10.69    0.23
   4   3  -7   28.61    0.55
   4   3  -7   29.46    0.56
   4   3  -7   29.07    0.57
  -4  -3   7   29.80    0.51
  -4  -3   7   29.72    0.56
   3   3  -7   84.18    1.42
   3   3  -7   82.32    1.40
   3   3  -7   81.05    1.38
  -3  -3   7   83.01    1.37
  -3  -3   7   84.86    1.29
   2   3  -7   49.54    0.83
   2   3  -7   48.06    0.82
   2   3  -7   48.84    0.84
   2   3  -7   46.73    0.83
  -2  -3   7   48.36    0.82
  -2  -3   7   48.97    0.76
   1   3  -7   35.58    0.64
   1   3  -7   36.25    0.63
   1   3  -7   35.68    0.62
   1   3  -7   36.52    0.62
  -1  -3   7   35.23    0.61
  -1  -3   7   36.24    0.55
   0   3  -7   33.28    0.56
   0   3  -7   32.54    0.59
   0   3  -7   33.59    0.57
   0   3  -7   33.93    0.57
   0  -3   7   33.59    0.56
   0  -3   7   33.55    0.56
  -1   3  -7   16.68    0.30
  -1   3  -7   16.82    0.30
  -1   3  -7   16.64    0.30
  -1   3  -7   16.82    0.31
   1  -3   7   16.62    0.30
   1  -3   7   17.08    0.30
  -2   3  -7   24.50    0.42
  -2   3  -7   24.22    0.41
  -2   3  -7   24.06    0.42
   2  -3   7   24.47    0.41
   2  -3   7   24.07    0.41
  -3   3  -7    0.88    0.05
  -3   3  -7    0.89    0.05
  -3   3  -7    0.84    0.05
   3  -3   7    0.79    0.04
  -4   3  -7   11.32    0.24
  -4   3  -7   11.04    0.23
  -4   3  -7   11.42    0.22
   4  -3   7   11.39    0.22
  -5   3  -7    3.89    0.12
  -5   3  -7    3.68    0.11
  -5   3  -7    3.72    0.12
   5  -3   7    3.82    0.11
  -6   3  -7    0.04    0.04
  -6   3  -7   -0.06    0.03
  -6   3  -7    0.02    0.04
   6  -3   7    0.02    0.03
  -7   3  -7    0.59    0.07
  -7   3  -7    0.70    0.07
   7  -3   7    0.82    0.07
   8   2  -7    0.78    0.09
  -8  -2   7    0.71    0.09
   7   2  -7    9.58    0.27
  -7  -2   7    8.98    0.27
   6   2  -7    2.60    0.12
  -6  -2   7    2.54    0.13
  -6  -2   7    2.58    0.10
   5   2  -7    1.17    0.09
   5   2  -7    1.16    0.09
   5   2  -7    1.19    0.08
  -5  -2   7    1.24    0.07
  -5  -2   7    1.25    0.09
  -5  -2   7    1.18    0.09
   4   2  -7    7.20    0.19
   4   2  -7    6.80    0.19
   4   2  -7    6.85    0.19
  -4  -2   7    6.98    0.16
  -4  -2   7    6.94    0.19
  -4  -2   7    7.15    0.19
   3   2  -7   14.87    0.31
   3   2  -7   15.53    0.31
   3   2  -7   15.11    0.32
  -3  -2   7   15.59    0.32
  -3  -2   7   15.81    0.28
   2   2  -7    0.14    0.04
   2   2  -7    0.12    0.03
   2   2  -7    0.15    0.04
   2   2  -7    0.11    0.04
   2   2  -7    0.12    0.04
  -2  -2   7    0.11    0.03
  -2  -2   7    0.12    0.04
  -2  -2   7    0.08    0.03
  -2  -2   7    0.12    0.03
   1   2  -7    2.88    0.09
   1   2  -7    2.67    0.09
   1   2  -7    2.59    0.07
   1   2  -7    2.66    0.07
   1   2  -7    2.65    0.09
  -1  -2   7    2.63    0.06
  -1  -2   7    2.62    0.09
  -1  -2   7    2.74    0.09
  -1  -2   7    2.78    0.08
  -1  -2   7    2.76    0.09
   0   2  -7    7.99    0.17
   0   2  -7    8.14    0.17
   0   2  -7    7.94    0.17
   0   2  -7    7.82    0.17
   0  -2   7    8.05    0.17
   0  -2   7    7.82    0.17
  -1   2  -7    5.03    0.12
  -1   2  -7    4.90    0.12
  -1   2  -7    4.77    0.11
   1  -2   7    4.92    0.11
   1  -2   7    4.97    0.11
  -2   2  -7   24.46    0.42
  -2   2  -7   24.24    0.43
  -2   2  -7   24.65    0.42
   2  -2   7   24.51    0.42
   2  -2   7   24.10    0.42
  -3   2  -7    0.14    0.03
  -3   2  -7    0.17    0.03
  -3   2  -7    0.14    0.03
   3  -2   7    0.17    0.03
   3  -2   7    0.12    0.03
  -4   2  -7    0.27    0.04
  -4   2  -7    0.27    0.04
  -4   2  -7    0.25    0.04
   4  -2   7    0.22    0.04
  -5   2  -7    0.62    0.06
  -5   2  -7    0.56    0.06
  -5   2  -7    0.60    0.06
   5  -2   7    0.69    0.06
  -6   2  -7    0.21    0.05
  -6   2  -7    0.26    0.05
  -6   2  -7    0.22    0.05
   6  -2   7    0.30    0.05
  -7   2  -7    1.14    0.09
  -7   2  -7    1.27    0.09
   7  -2   7    1.14    0.08
   8  -2   7    0.03    0.05
   9   1  -7    6.69    0.19
  -9  -1   7    6.61    0.23
   8   1  -7    0.30    0.05
  -8  -1   7    0.37    0.07
   7   1  -7   15.66    0.31
   7   1  -7   15.98    0.38
  -7  -1   7   14.55    0.36
   6   1  -7    2.37    0.12
   6   1  -7    2.44    0.09
  -6  -1   7    2.06    0.12
   5   1  -7   56.85    0.90
   5   1  -7   56.08    1.02
  -5  -1   7   55.83    1.02
  -5  -1   7   56.74    0.90
   4   1  -7    0.47    0.06
   4   1  -7    0.37    0.05
   4   1  -7    0.36    0.05
   4   1  -7    0.35    0.04
   4   1  -7    0.32    0.06
  -4  -1   7    0.39    0.06
  -4  -1   7    0.36    0.04
  -4  -1   7    0.39    0.06
  -4  -1   7    0.30    0.05
  -4  -1   7    0.37    0.05
   3   1  -7   16.34    0.28
   3   1  -7   16.20    0.32
   3   1  -7   15.42    0.32
   3   1  -7   15.96    0.33
   3   1  -7   16.45    0.33
  -3  -1   7   16.66    0.34
  -3  -1   7   16.39    0.33
  -3  -1   7   16.14    0.29
  -3  -1   7   15.98    0.33
  -3  -1   7   16.37    0.34
   2   1  -7    9.48    0.21
   2   1  -7    9.82    0.21
   2   1  -7    9.75    0.21
   2   1  -7    9.42    0.22
   2   1  -7    9.83    0.17
   2   1  -7    9.41    0.22
  -2  -1   7   10.03    0.22
  -2  -1   7    9.53    0.21
  -2  -1   7    9.82    0.22
  -2  -1   7    9.56    0.18
  -2  -1   7    9.63    0.21
   1   1  -7   10.69    0.23
   1   1  -7   11.05    0.23
   1   1  -7   11.12    0.22
   1   1  -7   11.36    0.23
   1   1  -7   11.11    0.22
  -1  -1   7   10.85    0.22
  -1  -1   7   10.83    0.19
  -1  -1   7   11.26    0.23
  -1  -1   7   10.66    0.22
  -1  -1   7   10.89    0.23
   0   1  -7   39.25    0.67
   0   1  -7   38.80    0.65
   0   1  -7   39.50    0.67
   0   1  -7   39.26    0.67
   0   1  -7   38.66    0.66
   0  -1   7   40.16    0.66
   0  -1   7   39.57    0.65
   0  -1   7   38.60    0.65
  -1   1  -7    3.54    0.09
  -1   1  -7    3.64    0.10
  -1   1  -7    3.65    0.10
   1  -1   7    3.54    0.09
   1  -1   7    3.59    0.09
  -2   1  -7   25.75    0.45
  -2   1  -7   25.69    0.44
  -2   1  -7   25.55    0.45
   2  -1   7   25.70    0.44
   2  -1   7   25.89    0.44
  -3   1  -7   59.84    0.98
  -3   1  -7   60.19    1.00
  -3   1  -7   60.47    0.99
   3  -1   7   59.50    0.97
   3  -1   7   59.00    0.97
  -4   1  -7    5.06    0.14
  -4   1  -7    5.47    0.15
  -4   1  -7    5.21    0.14
   4  -1   7    5.23    0.14
  -5   1  -7   37.42    0.66
  -5   1  -7   37.22    0.67
  -5   1  -7   37.14    0.69
   5  -1   7   37.12    0.65
  -6   1  -7    0.32    0.06
  -6   1  -7    0.22    0.05
  -6   1  -7    0.31    0.06
   6  -1   7    0.29    0.05
   6  -1   7    0.30    0.04
  -7   1  -7    4.65    0.17
  -7   1  -7    4.51    0.16
  -7   1  -7    4.53    0.16
   7  -1   7    4.61    0.13
   7  -1   7    4.61    0.15
  -8   1  -7    0.03    0.06
   8  -1   7    0.04    0.04
   8  -1   7   -0.04    0.05
   9   0  -7    1.30    0.09
  -9   0   7    1.39    0.10
   8   0  -7   27.25    0.51
  -8   0   7   27.01    0.57
   7   0  -7    2.11    0.09
  -7   0   7    2.18    0.12
   6   0  -7   37.78    0.64
   6   0  -7   38.11    0.71
  -6   0   7   39.18    0.73
  -6   0   7   37.58    0.73
  -6   0   7   38.11    0.75
   5   0  -7    8.42    0.22
   5   0  -7    8.20    0.18
   5   0  -7    8.31    0.22
  -5   0   7    8.16    0.22
  -5   0   7    8.20    0.22
  -5   0   7    8.28    0.17
  -5   0   7    8.48    0.23
   4   0  -7   48.08    0.84
   4   0  -7   47.98    0.77
   4   0  -7   48.22    0.85
   4   0  -7   47.75    0.83
   4   0  -7   48.67    0.87
  -4   0   7   49.05    0.88
  -4   0   7   49.21    0.84
  -4   0   7   47.81    0.87
  -4   0   7   47.64    0.85
  -4   0   7   48.17    0.77
   3   0  -7   12.72    0.23
   3   0  -7   13.22    0.28
   3   0  -7   12.53    0.28
   3   0  -7   13.19    0.27
   3   0  -7   12.70    0.27
  -3   0   7   12.97    0.24
  -3   0   7   12.51    0.27
  -3   0   7   13.07    0.28
  -3   0   7   12.88    0.28
  -3   0   7   13.25    0.29
   2   0  -7    1.16    0.07
   2   0  -7    1.11    0.06
   2   0  -7    1.19    0.06
   2   0  -7    1.17    0.05
   2   0  -7    1.14    0.07
  -2   0   7    1.19    0.06
  -2   0   7    1.10    0.05
  -2   0   7    1.23    0.07
  -2   0   7    1.15    0.07
  -2   0   7    1.10    0.06
   1   0  -7    2.63    0.09
   1   0  -7    2.85    0.07
   1   0  -7    2.79    0.09
   1   0  -7    3.03    0.09
   1   0  -7    2.70    0.09
   1   0  -7    2.96    0.10
  -1   0   7    2.97    0.09
  -1   0   7    2.84    0.09
  -1   0   7    2.90    0.09
  -1   0   7    2.79    0.08
  -1   0   7    2.89    0.09
   0   0  -7  144.26    2.39
   0   0  -7  143.13    2.30
   0   0  -7  128.50    2.25
   0   0  -7  144.60    2.27
   0   0  -7  141.80    2.30
   0   0  -7  144.64    2.38
   0   0   7  146.05    2.26
   0   0   7  144.84    2.30
   0   0   7  143.82    2.16
   0   0   7  147.89    2.39
  -1   0  -7    6.09    0.13
  -1   0  -7    6.06    0.14
  -1   0  -7    6.17    0.14
   1   0   7    6.08    0.11
   1   0   7    6.11    0.14
   1   0   7    6.06    0.14
  -2   0  -7    2.37    0.08
  -2   0  -7    2.53    0.08
  -2   0  -7    2.52    0.07
  -2   0  -7    2.53    0.08
   2   0   7    2.39    0.08
   2   0   7    2.47    0.08
   2   0   7    2.66    0.08
  -3   0  -7    0.10    0.03
  -3   0  -7    0.07    0.03
  -3   0  -7    0.05    0.03
  -3   0  -7    0.12    0.02
  -3   0  -7    0.09    0.02
  -3   0  -7    0.14    0.03
   3   0   7    0.11    0.03
   3   0   7    0.11    0.02
   3   0   7    0.09    0.03
  -4   0  -7   22.72    0.40
  -4   0  -7   23.30    0.43
  -4   0  -7   23.40    0.43
  -4   0  -7   23.43    0.45
  -4   0  -7   22.62    0.40
   4   0   7   22.82    0.42
   4   0   7   23.41    0.38
  -5   0  -7    7.40    0.19
  -5   0  -7    7.20    0.19
  -5   0  -7    7.08    0.19
   5   0   7    7.11    0.18
   5   0   7    7.28    0.15
  -6   0  -7    4.00    0.15
  -6   0  -7    3.69    0.14
  -6   0  -7    3.90    0.14
   6   0   7    3.63    0.13
   6   0   7    3.66    0.11
  -7   0  -7    1.65    0.11
  -7   0  -7    1.70    0.10
  -7   0  -7    1.52    0.10
   7   0   7    1.41    0.09
   7   0   7    1.60    0.08
  -8   0  -7    0.09    0.06
  -8   0  -7    0.02    0.06
   8   0   7    0.15    0.05
   8   0   7    0.19    0.05
   9   0   7    0.35    0.06
   9   0   7    0.29    0.07
   8  -1  -7    6.08    0.17
  -8   1   7    6.03    0.19
   7  -1  -7    0.92    0.09
   7  -1  -7    0.83    0.07
  -7   1   7    0.77    0.09
  -7   1   7    0.93    0.08
  -7   1   7    0.89    0.10
   6  -1  -7   37.84    0.63
   6  -1  -7   37.09    0.69
  -6   1   7   36.67    0.74
  -6   1   7   36.80    0.71
  -6   1   7   37.83    0.71
   5  -1  -7   20.69    0.42
   5  -1  -7   20.59    0.37
  -5   1   7   19.91    0.44
  -5   1   7   21.02    0.43
  -5   1   7   20.69    0.42
   4  -1  -7   56.67    0.96
   4  -1  -7   57.20    1.00
   4  -1  -7   55.99    0.89
  -4   1   7   53.74    1.01
  -4   1   7   55.62    1.00
  -4   1   7   55.74    0.98
  -4   1   7   57.15    0.87
   3  -1  -7   39.45    0.63
   3  -1  -7   40.20    0.70
   3  -1  -7   39.23    0.68
   3  -1  -7   40.62    0.72
   3  -1  -7   38.44    0.68
  -3   1   7   39.34    0.68
  -3   1   7   38.53    0.72
  -3   1   7   38.19    0.70
  -3   1   7   38.71    0.71
  -3   1   7   40.22    0.62
   2  -1  -7   21.57    0.39
   2  -1  -7   22.00    0.39
   2  -1  -7   21.39    0.35
   2  -1  -7   21.41    0.41
   2  -1  -7   20.13    0.40
  -2   1   7   20.85    0.35
  -2   1   7   21.16    0.39
  -2   1   7   20.90    0.41
  -2   1   7   20.95    0.40
  -2   1   7   21.24    0.41
   1  -1  -7   88.12    1.40
   1  -1  -7   87.39    1.47
   1  -1  -7   85.59    1.39
   1  -1  -7   88.02    1.32
   1  -1  -7   83.71    1.42
  -1   1   7   85.50    1.47
  -1   1   7   86.14    1.47
  -1   1   7   85.87    1.32
  -1   1   7   87.58    1.42
  -1   1   7   87.61    1.40
   0  -1  -7   54.28    0.90
   0  -1  -7   55.37    0.85
   0  -1  -7   53.74    0.91
   0  -1  -7   55.72    0.95
   0  -1  -7   52.42    0.92
   0  -1  -7   54.66    0.95
   0   1   7   57.37    0.95
   0   1   7   54.57    0.85
   0   1   7   55.55    0.90
   0   1   7   56.14    0.92
  -1  -1  -7   27.53    0.49
  -1  -1  -7   27.72    0.50
  -1  -1  -7   27.98    0.48
  -1  -1  -7   28.71    0.44
  -1  -1  -7   27.08    0.49
   1   1   7   27.23    0.45
   1   1   7   27.83    0.48
   1   1   7   27.86    0.51
   1   1   7   27.78    0.49
  -2  -1  -7   36.99    0.65
  -2  -1  -7   36.39    0.63
  -2  -1  -7   35.91    0.63
  -2  -1  -7   36.47    0.62
  -2  -1  -7   36.48    0.64
   2   1   7   37.15    0.62
   2   1   7   37.42    0.63
   2   1   7   36.17    0.58
   2   1   7   37.37    0.65
  -3  -1  -7   99.57    1.65
  -3  -1  -7  101.83    1.70
  -3  -1  -7   99.62    1.71
  -3  -1  -7   99.03    1.65
  -3  -1  -7   99.23    1.63
   3   1   7   98.21    1.54
   3   1   7  101.82    1.62
   3   1   7  101.88    1.62
   3   1   7  103.69    1.71
   3   1   7  103.31    1.65
  -4  -1  -7    3.65    0.12
  -4  -1  -7    3.82    0.11
  -4  -1  -7    3.73    0.12
  -4  -1  -7    3.61    0.13
   4   1   7    3.81    0.12
   4   1   7    3.76    0.10
  -5  -1  -7   24.66    0.49
  -5  -1  -7   24.11    0.47
  -5  -1  -7   24.21    0.45
  -5  -1  -7   24.50    0.47
   5   1   7   24.25    0.42
   5   1   7   24.85    0.46
  -6  -1  -7   12.50    0.30
  -6  -1  -7   12.31    0.29
  -6  -1  -7   12.13    0.25
  -6  -1  -7   11.94    0.29
   6   1   7   12.78    0.28
   6   1   7   12.08    0.24
  -7  -1  -7   10.60    0.28
  -7  -1  -7   10.67    0.22
  -7  -1  -7   10.70    0.28
  -7  -1  -7   10.09    0.27
   7   1   7   10.63    0.23
   7   1   7   10.82    0.27
  -8  -1  -7   12.11    0.31
  -8  -1  -7   11.98    0.23
  -8  -1  -7   11.96    0.32
   8   1   7   12.74    0.31
   8   1   7   11.55    0.26
  -9  -1  -7    3.27    0.17
   9   1   7    3.09    0.13
   9   1   7    3.12    0.15
   8  -2  -7    4.24    0.17
   8  -2  -7    3.56    0.13
  -8   2   7    4.16    0.18
  -8   2   7    3.91    0.13
   7  -2  -7    1.83    0.11
   7  -2  -7    1.64    0.09
  -7   2   7    1.91    0.12
  -7   2   7    1.88    0.12
  -7   2   7    1.86    0.09
   6  -2  -7    2.28    0.12
   6  -2  -7    2.36    0.09
  -6   2   7    2.57    0.13
  -6   2   7    2.24    0.10
  -6   2   7    2.10    0.12
   5  -2  -7    9.19    0.23
   5  -2  -7    9.09    0.20
  -5   2   7    8.79    0.24
  -5   2   7    9.11    0.22
  -5   2   7    8.46    0.23
   4  -2  -7    3.25    0.10
   4  -2  -7    3.29    0.12
  -4   2   7    3.26    0.11
  -4   2   7    3.29    0.13
  -4   2   7    3.51    0.13
   3  -2  -7    8.67    0.20
   3  -2  -7    8.86    0.20
   3  -2  -7    8.85    0.21
   3  -2  -7    8.80    0.18
   3  -2  -7    8.68    0.21
  -3   2   7    8.38    0.21
  -3   2   7    9.09    0.20
  -3   2   7    8.67    0.22
  -3   2   7    8.85    0.21
   2  -2  -7   59.39    1.00
   2  -2  -7   61.39    1.00
   2  -2  -7   61.03    1.05
   2  -2  -7   61.12    1.01
   2  -2  -7   60.95    0.94
  -2   2   7   59.15    0.99
  -2   2   7   60.32    0.92
  -2   2   7   58.16    1.01
  -2   2   7   59.09    1.04
  -2   2   7   59.53    1.05
   1  -2  -7    7.53    0.15
   1  -2  -7    7.50    0.18
   1  -2  -7    7.91    0.18
   1  -2  -7    7.86    0.17
   1  -2  -7    7.71    0.17
  -1   2   7    7.91    0.18
  -1   2   7    7.46    0.14
  -1   2   7    7.50    0.17
  -1   2   7    7.62    0.18
  -1   2   7    7.94    0.18
   0  -2  -7   30.68    0.54
   0  -2  -7   31.31    0.55
   0  -2  -7   31.98    0.54
   0  -2  -7   31.49    0.50
   0  -2  -7   31.21    0.56
   0   2   7   31.72    0.56
   0   2   7   31.49    0.54
   0   2   7   30.19    0.50
   0   2   7   30.72    0.55
  -1  -2  -7   42.28    0.74
  -1  -2  -7   44.89    0.78
  -1  -2  -7   43.21    0.74
  -1  -2  -7   44.66    0.69
  -1  -2  -7   43.73    0.75
   1   2   7   44.46    0.69
   1   2   7   44.91    0.75
   1   2   7   43.64    0.74
   1   2   7   44.93    0.78
  -2  -2  -7   23.23    0.43
  -2  -2  -7   23.55    0.42
  -2  -2  -7   23.78    0.38
  -2  -2  -7   22.81    0.42
  -2  -2  -7   23.70    0.44
  -2  -2  -7   22.96    0.45
   2   2   7   24.72    0.45
   2   2   7   23.62    0.39
   2   2   7   23.49    0.42
   2   2   7   23.56    0.43
  -3  -2  -7   78.98    1.31
  -3  -2  -7   79.57    1.22
  -3  -2  -7   79.42    1.33
  -3  -2  -7   79.46    1.37
  -3  -2  -7   79.93    1.30
  -3  -2  -7   78.40    1.38
   3   2   7   79.96    1.33
   3   2   7   82.22    1.38
   3   2   7   80.83    1.24
   3   2   7   80.74    1.31
  -4  -2  -7    0.03    0.04
  -4  -2  -7    0.02    0.03
  -4  -2  -7   -0.01    0.03
  -4  -2  -7    0.04    0.03
   4   2   7    0.00    0.02
   4   2   7   -0.01    0.03
   4   2   7    0.00    0.03
  -5  -2  -7   13.31    0.31
  -5  -2  -7   13.33    0.30
  -5  -2  -7   13.85    0.30
  -5  -2  -7   13.45    0.31
   5   2   7   13.99    0.26
   5   2   7   14.09    0.30
  -6  -2  -7   16.58    0.37
  -6  -2  -7   16.23    0.38
  -6  -2  -7   17.24    0.36
  -6  -2  -7   16.64    0.35
   6   2   7   16.68    0.36
   6   2   7   16.47    0.32
  -7  -2  -7    3.29    0.14
  -7  -2  -7    3.00    0.12
  -7  -2  -7    3.11    0.14
  -7  -2  -7    3.32    0.15
   7   2   7    2.92    0.11
   7   2   7    3.20    0.13
  -8  -2  -7    9.12    0.27
  -8  -2  -7    9.25    0.28
  -8  -2  -7    9.16    0.23
  -8  -2  -7    9.36    0.26
   8   2   7    9.27    0.26
   8   2   7    9.14    0.22
  -9  -2  -7    0.83    0.11
  -9  -2  -7    0.90    0.10
  -9  -2  -7    0.70    0.06
   9   2   7    0.76    0.09
   9   2   7    0.84    0.08
   8  -3  -7    0.01    0.04
   8  -3  -7    0.06    0.06
  -8   3   7   -0.02    0.07
   7  -3  -7   11.12    0.29
   7  -3  -7   11.20    0.25
  -7   3   7   11.46    0.32
  -7   3   7   11.33    0.23
  -7   3   7   11.50    0.31
   6  -3  -7    7.51    0.21
   6  -3  -7    6.98    0.17
  -6   3   7    6.90    0.21
  -6   3   7    7.25    0.22
   5  -3  -7    5.44    0.17
   5  -3  -7    5.17    0.14
  -5   3   7    5.19    0.17
  -5   3   7    5.04    0.17
  -5   3   7    5.18    0.14
   4  -3  -7    3.72    0.13
   4  -3  -7    3.92    0.11
  -4   3   7    3.83    0.12
  -4   3   7    3.81    0.14
  -4   3   7    3.62    0.14
   3  -3  -7   46.56    0.73
   3  -3  -7   46.03    0.79
  -3   3   7   45.23    0.81
  -3   3   7   46.44    0.84
   2  -3  -7    2.79    0.09
   2  -3  -7    2.95    0.10
   2  -3  -7    2.89    0.10
   2  -3  -7    2.88    0.08
   2  -3  -7    2.92    0.10
  -2   3   7    3.19    0.11
  -2   3   7    2.85    0.10
  -2   3   7    2.93    0.11
  -2   3   7    3.04    0.10
   1  -3  -7   21.95    0.39
   1  -3  -7   21.56    0.40
   1  -3  -7   21.60    0.36
   1  -3  -7   21.60    0.41
   1  -3  -7   21.39    0.40
  -1   3   7   21.56    0.39
  -1   3   7   21.26    0.42
  -1   3   7   21.52    0.41
  -1   3   7   20.66    0.40
  -1   3   7   21.79    0.34
   0  -3  -7    7.01    0.14
   0  -3  -7    7.03    0.17
   0  -3  -7    7.03    0.17
   0  -3  -7    6.80    0.16
   0  -3  -7    6.97    0.16
   0   3   7    6.63    0.16
   0   3   7    6.85    0.17
   0   3   7    6.87    0.16
   0   3   7    6.93    0.13
  -1  -3  -7    5.00    0.13
  -1  -3  -7    5.18    0.13
  -1  -3  -7    5.06    0.11
  -1  -3  -7    4.91    0.13
  -1  -3  -7    5.02    0.13
  -1  -3  -7    4.96    0.14
   1   3   7    4.93    0.14
   1   3   7    4.75    0.13
   1   3   7    4.93    0.11
   1   3   7    4.82    0.13
  -2  -3  -7   21.35    0.42
  -2  -3  -7   22.34    0.41
  -2  -3  -7   21.60    0.42
  -2  -3  -7   22.36    0.41
  -2  -3  -7   21.17    0.40
  -2  -3  -7   21.27    0.37
   2   3   7   22.01    0.40
   2   3   7   21.89    0.37
   2   3   7   21.73    0.42
   2   3   7   22.28    0.41
  -3  -3  -7    0.41    0.05
  -3  -3  -7    0.59    0.05
  -3  -3  -7    0.45    0.05
  -3  -3  -7    0.53    0.05
  -3  -3  -7    0.51    0.04
   3   3   7    0.60    0.06
   3   3   7    0.52    0.04
   3   3   7    0.53    0.05
   3   3   7    0.55    0.06
  -4  -3  -7   23.03    0.45
  -4  -3  -7   22.52    0.46
  -4  -3  -7   22.32    0.43
  -4  -3  -7   21.82    0.44
  -4  -3  -7   22.60    0.38
   4   3   7   22.49    0.39
   4   3   7   22.25    0.43
   4   3   7   22.73    0.44
   4   3   7   22.83    0.44
  -5  -3  -7    3.07    0.12
  -5  -3  -7    2.96    0.12
  -5  -3  -7    2.54    0.12
  -5  -3  -7    2.68    0.11
   5   3   7    2.73    0.09
   5   3   7    2.86    0.12
   5   3   7    3.04    0.12
  -6  -3  -7    7.82    0.23
  -6  -3  -7    7.96    0.22
  -6  -3  -7    7.52    0.22
  -6  -3  -7    7.33    0.21
   6   3   7    7.62    0.21
   6   3   7    7.33    0.18
  -7  -3  -7   10.41    0.28
  -7  -3  -7   10.56    0.29
  -7  -3  -7   10.39    0.28
  -7  -3  -7   10.08    0.26
   7   3   7   10.21    0.27
   7   3   7    9.90    0.23
  -8  -3  -7   -0.07    0.04
   8   3   7   -0.04    0.05
   8   3   7    0.01    0.04
  -9  -3  -7   16.18    0.37
   9   3   7   16.61    0.35
   8  -4  -7    0.58    0.07
   8  -4  -7    0.50    0.08
   7  -4  -7    0.52    0.08
   7  -4  -7    0.53    0.06
  -7   4   7    0.48    0.08
   6  -4  -7    3.45    0.14
   6  -4  -7    3.48    0.11
  -6   4   7    3.50    0.15
  -6   4   7    3.45    0.15
   5  -4  -7   11.47    0.28
   5  -4  -7   11.97    0.24
  -5   4   7   11.67    0.30
  -5   4   7   11.86    0.29
  -5   4   7   12.11    0.22
   4  -4  -7    7.89    0.21
   4  -4  -7    7.64    0.17
  -4   4   7    8.06    0.22
  -4   4   7    7.96    0.21
  -4   4   7    8.08    0.17
   3  -4  -7    6.54    0.17
   3  -4  -7    6.41    0.14
  -3   4   7    6.29    0.18
  -3   4   7    6.68    0.15
  -3   4   7    6.40    0.18
   2  -4  -7    0.13    0.04
   2  -4  -7    0.13    0.03
  -2   4   7    0.15    0.04
  -2   4   7    0.09    0.04
  -2   4   7    0.07    0.03
   1  -4  -7    0.99    0.06
   1  -4  -7    0.91    0.06
   1  -4  -7    0.89    0.05
   1  -4  -7    0.82    0.06
  -1   4   7    0.98    0.06
  -1   4   7    0.90    0.07
  -1   4   7    1.04    0.07
   0  -4  -7   11.62    0.24
   0  -4  -7   11.73    0.25
   0  -4  -7   12.10    0.24
   0  -4  -7   11.56    0.25
   0  -4  -7   11.51    0.24
   0  -4  -7   11.48    0.21
   0   4   7   11.27    0.25
   0   4   7   11.45    0.24
   0   4   7   11.31    0.24
  -1  -4  -7    2.36    0.09
  -1  -4  -7    2.35    0.07
  -1  -4  -7    2.36    0.09
  -1  -4  -7    2.33    0.09
  -1  -4  -7    2.49    0.09
  -1  -4  -7    2.40    0.09
   1   4   7    2.35    0.09
   1   4   7    2.34    0.06
   1   4   7    2.34    0.09
   1   4   7    2.42    0.09
  -2  -4  -7   11.12    0.25
  -2  -4  -7   11.45    0.25
  -2  -4  -7   11.17    0.24
  -2  -4  -7   11.43    0.22
  -2  -4  -7   11.44    0.25
  -2  -4  -7   11.28    0.26
   2   4   7   10.92    0.24
   2   4   7   11.45    0.25
   2   4   7   11.45    0.20
   2   4   7   11.23    0.25
  -3  -4  -7    0.13    0.04
  -3  -4  -7    0.09    0.03
  -3  -4  -7    0.15    0.04
  -3  -4  -7    0.19    0.05
  -3  -4  -7    0.22    0.04
   3   4   7    0.20    0.05
   3   4   7    0.15    0.04
   3   4   7    0.16    0.03
   3   4   7    0.16    0.04
  -4  -4  -7    1.01    0.08
  -4  -4  -7    0.91    0.08
  -4  -4  -7    1.03    0.06
  -4  -4  -7    0.99    0.08
  -4  -4  -7    1.00    0.08
  -4  -4  -7    1.05    0.07
   4   4   7    0.98    0.08
   4   4   7    0.92    0.07
   4   4   7    1.09    0.08
   4   4   7    0.97    0.05
   4   4   7    0.98    0.07
  -5  -4  -7    2.60    0.09
  -5  -4  -7    2.27    0.12
  -5  -4  -7    2.51    0.12
  -5  -4  -7    2.52    0.12
  -5  -4  -7    2.56    0.12
   5   4   7    2.64    0.12
   5   4   7    2.41    0.09
   5   4   7    2.45    0.11
  -6  -4  -7   11.87    0.30
   6   4   7   12.03    0.25
   6   4   7   11.85    0.29
  -7  -4  -7    0.14    0.05
   7   4   7    0.23    0.05
  -8  -4  -7   10.43    0.28
   8   4   7   10.37    0.24
  -9  -4  -7    1.99    0.12
   9   4   7    2.05    0.10
   7  -5  -7    2.36    0.13
   7  -5  -7    2.41    0.10
   6  -5  -7    0.05    0.04
   6  -5  -7    0.08    0.05
  -6   5   7    0.12    0.05
   5  -5  -7    0.01    0.03
   5  -5  -7    0.03    0.04
  -5   5   7    0.02    0.04
  -5   5   7    0.06    0.05
   4  -5  -7   19.01    0.39
   4  -5  -7   19.58    0.34
  -4   5   7   19.41    0.42
  -4   5   7   19.84    0.41
   3  -5  -7    2.05    0.07
   3  -5  -7    2.23    0.10
  -3   5   7    2.24    0.11
  -3   5   7    2.22    0.10
   2  -5  -7   18.90    0.37
   2  -5  -7   18.62    0.32
  -2   5   7   19.47    0.40
  -2   5   7   18.58    0.38
  -2   5   7   19.01    0.33
   1  -5  -7    3.09    0.11
   1  -5  -7    2.82    0.08
  -1   5   7    2.96    0.11
  -1   5   7    2.98    0.08
   0  -5  -7   18.53    0.32
   0  -5  -7   18.77    0.36
   0   5   7   18.64    0.37
   0   5   7   19.26    0.35
  -1  -5  -7    6.53    0.17
  -1  -5  -7    6.59    0.17
  -1  -5  -7    6.62    0.14
   1   5   7    6.68    0.16
   1   5   7    6.44    0.17
  -2  -5  -7   10.15    0.24
  -2  -5  -7    9.89    0.20
  -2  -5  -7    9.88    0.23
   2   5   7    9.68    0.23
   2   5   7    9.97    0.22
  -3  -5  -7   10.46    0.21
  -3  -5  -7   10.84    0.26
   3   5   7   10.16    0.24
   3   5   7   10.54    0.19
   3   5   7   10.60    0.25
  -4  -5  -7    0.16    0.05
  -4  -5  -7    0.17    0.05
  -4  -5  -7    0.17    0.04
   4   5   7    0.17    0.05
   4   5   7    0.21    0.03
   4   5   7    0.13    0.05
   4   5   7    0.22    0.06
  -5  -5  -7   11.66    0.29
  -5  -5  -7   11.90    0.24
   5   5   7   11.90    0.24
   5   5   7   11.84    0.29
  -6  -5  -7   25.45    0.54
   6   5   7   25.57    0.53
   6   5   7   25.70    0.45
  -7  -5  -7    1.79    0.12
   7   5   7    1.64    0.08
   7   5   7    1.83    0.12
  -8  -5  -7   14.76    0.38
   8   5   7   15.30    0.32
   6  -6  -7    5.03    0.18
   6  -6  -7    5.00    0.14
   5  -6  -7   -0.02    0.04
   5  -6  -7    0.05    0.03
  -5   6   7    0.03    0.05
   4  -6  -7    6.01    0.18
   4  -6  -7    6.28    0.14
  -4   6   7    6.16    0.19
  -4   6   7    6.19    0.19
   3  -6  -7   27.19    0.45
   3  -6  -7   26.52    0.51
  -3   6   7   26.44    0.52
  -3   6   7   26.76    0.54
   2  -6  -7    0.63    0.07
  -2   6   7    0.54    0.06
  -2   6   7    0.55    0.06
   1  -6  -7    8.75    0.21
   1  -6  -7    9.27    0.18
  -1   6   7    8.83    0.22
   0  -6  -7   13.48    0.29
   0  -6  -7   13.40    0.25
   0   6   7   13.59    0.26
   0   6   7   13.30    0.29
  -1  -6  -7    0.76    0.05
  -1  -6  -7    0.73    0.07
   1   6   7    0.76    0.05
   1   6   7    0.74    0.07
  -2  -6  -7   24.34    0.47
  -2  -6  -7   24.11    0.42
   2   6   7   23.54    0.47
   2   6   7   24.45    0.46
   2   6   7   24.07    0.47
  -3  -6  -7    2.05    0.08
   3   6   7    2.11    0.11
   3   6   7    2.03    0.09
  -4  -6  -7    1.21    0.07
  -4  -6  -7    1.24    0.09
   4   6   7    1.35    0.09
   4   6   7    1.48    0.10
   4   6   7    1.10    0.09
  -5  -6  -7    3.82    0.12
  -5  -6  -7    3.72    0.15
   5   6   7    3.70    0.14
  -6  -6  -7    6.65    0.17
  -6  -6  -7    6.85    0.22
   6   6   7    6.25    0.21
  -7  -6  -7    0.43    0.08
   7   6   7    0.37    0.07
  -8  -6  -7    2.61    0.15
   8   6   7    2.57    0.14
   6  -7  -7    0.97    0.09
   5  -7  -7    0.16    0.05
   4  -7  -7    3.81    0.14
  -4   7   7    3.91    0.15
   3  -7  -7   11.37    0.27
  -3   7   7   11.06    0.27
  -3   7   7   11.39    0.28
   2  -7  -7   23.79    0.40
   2  -7  -7   23.21    0.46
  -2   7   7   22.94    0.46
   1  -7  -7    8.33    0.21
   1  -7  -7    8.46    0.17
  -1   7   7    8.47    0.22
   0  -7  -7    9.25    0.23
   0  -7  -7    9.29    0.19
   0   7   7    9.64    0.24
  -1  -7  -7   10.72    0.25
  -1  -7  -7   10.91    0.22
   1   7   7   11.05    0.26
   1   7   7   11.06    0.22
  -2  -7  -7    4.06    0.14
  -2  -7  -7    4.10    0.12
   2   7   7    4.19    0.12
   2   7   7    3.91    0.15
  -3  -7  -7    0.78    0.07
  -3  -7  -7    0.70    0.08
   3   7   7    0.71    0.06
   3   7   7    0.77    0.08
  -4  -7  -7   11.94    0.29
  -4  -7  -7   11.72    0.25
   4   7   7   11.62    0.28
   4   7   7   11.66    0.30
   4   7   7   11.55    0.29
  -5  -7  -7    5.59    0.16
   5   7   7    5.70    0.18
  -6  -7  -7    3.30    0.12
   6   7   7    3.37    0.14
   7   7   7    3.34    0.16
  -8  -7  -7    4.34    0.19
   8   7   7    4.09    0.18
   5  -8  -7    1.95    0.11
   4  -8  -7    1.35    0.09
   3  -8  -7   36.92    0.67
  -3   8   7   35.95    0.68
   2  -8  -7    0.06    0.04
  -2   8   7    0.14    0.05
   1  -8  -7    3.51    0.10
   1  -8  -7    3.35    0.13
  -1   8   7    3.54    0.14
   0  -8  -7    0.41    0.06
   0  -8  -7    0.45    0.05
   0   8   7    0.44    0.06
  -1  -8  -7   19.54    0.36
  -1  -8  -7   19.43    0.41
   1   8   7   19.90    0.42
  -2  -8  -7   -0.04    0.04
   2   8   7   -0.11    0.05
   2   8   7    0.00    0.02
  -3  -8  -7   54.97    0.99
  -3  -8  -7   56.96    0.92
   3   8   7   56.47    0.98
   3   8   7   55.59    1.01
  -4  -8  -7   -0.01    0.04
  -4  -8  -7    0.00    0.05
   4   8   7    0.00    0.04
   4   8   7    0.04    0.05
   4   8   7    0.09    0.05
  -5  -8  -7   14.40    0.31
  -5  -8  -7   14.77    0.36
   5   8   7   14.67    0.34
  -6  -8  -7    0.10    0.05
   6   8   7    0.08    0.05
  -7  -8  -7    2.95    0.12
   7   8   7    2.87    0.14
   3  -9  -7    0.19    0.05
   2  -9  -7    1.33    0.09
  -2   9   7    1.33    0.10
   1  -9  -7    0.17    0.05
  -1   9   7    0.26    0.06
   0  -9  -7    4.76    0.13
   0  -9  -7    4.91    0.16
   0   9   7    4.65    0.16
  -1  -9  -7    0.82    0.08
  -1  -9  -7    0.83    0.06
   1   9   7    0.95    0.09
  -2  -9  -7    4.50    0.14
   2   9   7    4.70    0.17
  -3  -9  -7   23.18    0.48
  -3  -9  -7   22.55    0.43
   3   9   7   23.27    0.50
   3   9   7   22.85    0.41
  -4  -9  -7    0.02    0.05
  -4  -9  -7   -0.05    0.04
   4   9   7    0.04    0.06
   4   9   7    0.02    0.06
   4   9   7    0.08    0.04
  -5  -9  -7    0.87    0.08
  -5  -9  -7    0.91    0.10
   5   9   7    0.81    0.07
   5   9   7    0.83    0.10
  -6  -9  -7   -0.03    0.04
   6   9   7   -0.03    0.04
   2 -10  -7    0.90    0.09
   1 -10  -7    1.01    0.08
   0 -10  -7    0.04    0.05
   0 -10  -7    0.04    0.04
  -1 -10  -7    0.08    0.04
  -2 -10  -7    5.61    0.16
  -2 -10  -7    6.11    0.20
  -3 -10  -7    5.36    0.20
  -3 -10  -7    5.53    0.17
  -4 -10  -7    0.26    0.06
  -4 -10  -7    0.28    0.07
   4  10   7    0.39    0.08
  -4  -8   8    5.25    0.19
  -4  -8   8    5.45    0.16
   3   8  -8    5.58    0.19
  -3  -8   8    5.51    0.18
   2   8  -8    1.73    0.10
  -2  -8   8    1.60    0.10
   1   8  -8    0.75    0.07
  -1  -8   8    0.77    0.07
   0   8  -8    3.88    0.12
   0   8  -8    3.93    0.12
   0  -8   8    3.87    0.12
  -1   8  -8    1.75    0.08
  -1   8  -8    1.85    0.06
   1  -8   8    1.80    0.06
  -2   8  -8    1.32    0.05
   6   7  -8    3.48    0.17
  -6  -7   8    3.29    0.14
  -6  -7   8    3.52    0.17
   5   7  -8   -0.10    0.06
   5   7  -8    0.03    0.06
  -5  -7   8    0.01    0.05
  -5  -7   8   -0.01    0.04
   4   7  -8    1.04    0.10
   4   7  -8    1.27    0.10
  -4  -7   8    1.18    0.10
  -4  -7   8    1.00    0.08
   3   7  -8    2.28    0.12
   3   7  -8    2.09    0.11
  -3  -7   8    2.26    0.11
  -3  -7   8    2.19    0.09
   2   7  -8   11.05    0.27
   2   7  -8   10.89    0.26
  -2  -7   8   10.83    0.26
   1   7  -8    0.12    0.04
   1   7  -8    0.11    0.04
  -1  -7   8    0.05    0.04
   0   7  -8    0.20    0.04
   0   7  -8    0.18    0.04
   0  -7   8    0.17    0.04
  -1   7  -8    8.62    0.17
  -1   7  -8    8.35    0.18
   1  -7   8    8.19    0.17
  -2   7  -8    0.57    0.04
   2  -7   8    0.62    0.03
   7   6  -8   18.21    0.40
  -7  -6   8   17.61    0.38
   6   6  -8    1.25    0.12
   6   6  -8    1.33    0.11
   6   6  -8    1.11    0.08
  -6  -6   8    1.06    0.08
  -6  -6   8    1.19    0.11
   5   6  -8    7.15    0.23
   5   6  -8    7.31    0.17
   5   6  -8    7.63    0.23
  -5  -6   8    7.39    0.20
  -5  -6   8    7.64    0.23
   4   6  -8    0.02    0.05
   4   6  -8    0.06    0.05
  -4  -6   8    0.14    0.05
  -4  -6   8    0.07    0.04
   3   6  -8    0.27    0.06
   3   6  -8    0.26    0.06
  -3  -6   8    0.32    0.05
  -3  -6   8    0.25    0.06
   2   6  -8    0.08    0.04
   2   6  -8    0.14    0.05
  -2  -6   8    0.11    0.04
   1   6  -8    4.61    0.14
   1   6  -8    5.08    0.15
  -1  -6   8    4.74    0.14
   0   6  -8    2.65    0.09
   0   6  -8    2.37    0.09
   0  -6   8    2.59    0.09
  -1   6  -8    4.85    0.12
  -1   6  -8    4.86    0.12
   1  -6   8    4.89    0.12
  -2   6  -8    0.09    0.02
  -2   6  -8    0.11    0.03
   2  -6   8    0.07    0.02
  -3   6  -8    5.96    0.12
  -4   6  -8    0.02    0.02
  -5   6  -8   14.89    0.28
   5  -6   8   15.17    0.26
   7   5  -8    2.29    0.12
  -7  -5   8    2.24    0.11
   6   5  -8    2.74    0.12
   6   5  -8    2.27    0.14
  -6  -5   8    2.57    0.11
  -6  -5   8    2.57    0.14
   5   5  -8   15.10    0.33
   5   5  -8   15.63    0.37
   5   5  -8   16.01    0.36
  -5  -5   8   15.43    0.36
  -5  -5   8   15.03    0.32
   4   5  -8    2.35    0.12
   4   5  -8    2.19    0.11
   4   5  -8    2.24    0.08
  -4  -5   8    2.31    0.12
  -4  -5   8    2.37    0.10
   3   5  -8    1.02    0.08
   3   5  -8    1.20    0.09
  -3  -5   8    1.19    0.08
  -3  -5   8    1.23    0.06
   2   5  -8    0.28    0.05
   2   5  -8    0.24    0.06
  -2  -5   8    0.31    0.06
  -2  -5   8    0.25    0.04
   1   5  -8    0.27    0.04
   1   5  -8    0.22    0.05
  -1  -5   8    0.18    0.04
   0   5  -8   15.96    0.30
   0   5  -8   15.76    0.31
   0  -5   8   15.94    0.30
  -1   5  -8    4.63    0.11
  -1   5  -8    4.62    0.11
   1  -5   8    4.63    0.11
  -2   5  -8    5.25    0.11
  -2   5  -8    5.24    0.12
   2  -5   8    5.10    0.11
  -3   5  -8    3.81    0.09
  -3   5  -8    3.98    0.09
   3  -5   8    3.82    0.09
  -4   5  -8    0.06    0.03
  -4   5  -8    0.10    0.03
  -4   5  -8    0.08    0.02
   4  -5   8    0.06    0.02
  -5   5  -8    0.27    0.04
  -5   5  -8    0.33    0.04
   5  -5   8    0.37    0.04
   6  -5   8    3.80    0.11
   8   4  -8    6.83    0.23
   7   4  -8    0.87    0.09
  -7  -4   8    0.96    0.08
   6   4  -8   11.62    0.29
  -6  -4   8   11.93    0.27
   5   4  -8   -0.03    0.04
   5   4  -8    0.06    0.04
   5   4  -8    0.04    0.05
  -5  -4   8    0.01    0.04
  -5  -4   8    0.04    0.05
   4   4  -8   13.57    0.29
   4   4  -8   13.11    0.32
   4   4  -8   13.43    0.31
  -4  -4   8   13.67    0.31
  -4  -4   8   13.72    0.27
   3   4  -8    4.29    0.15
   3   4  -8    4.16    0.14
   3   4  -8    4.16    0.11
  -3  -4   8    4.14    0.12
  -3  -4   8    4.48    0.14
   2   4  -8   31.42    0.57
   2   4  -8   31.01    0.56
  -2  -4   8   29.96    0.56
  -2  -4   8   31.15    0.50
   1   4  -8    7.98    0.19
   1   4  -8    7.95    0.19
  -1  -4   8    7.97    0.19
   0   4  -8   13.91    0.27
   0   4  -8   13.99    0.28
   0  -4   8   14.12    0.27
  -1   4  -8    0.46    0.04
  -1   4  -8    0.41    0.04
   1  -4   8    0.44    0.04
  -2   4  -8    7.63    0.16
  -2   4  -8    7.63    0.16
   2  -4   8    7.55    0.16
  -3   4  -8    0.07    0.03
  -3   4  -8    0.04    0.02
   3  -4   8    0.08    0.02
  -4   4  -8   60.14    0.99
  -4   4  -8   61.56    1.04
  -4   4  -8   59.39    0.99
   4  -4   8   60.03    0.98
  -5   4  -8    1.96    0.08
  -5   4  -8    1.91    0.08
  -5   4  -8    2.10    0.09
   5  -4   8    2.11    0.08
  -6   4  -8    3.16    0.11
  -6   4  -8    3.27    0.11
   6  -4   8    3.20    0.11
   7  -4   8    1.35    0.08
   8   3  -8    0.00    0.05
  -8  -3   8   -0.08    0.05
   7   3  -8   12.36    0.33
  -7  -3   8   12.80    0.34
  -7  -3   8   13.28    0.28
   6   3  -8   26.23    0.55
  -6  -3   8   26.93    0.48
   5   3  -8    2.45    0.12
   5   3  -8    2.43    0.11
   5   3  -8    2.49    0.12
  -5  -3   8    2.29    0.10
  -5  -3   8    2.41    0.12
   4   3  -8   25.76    0.52
   4   3  -8   25.54    0.51
   4   3  -8   26.41    0.51
  -4  -3   8   26.42    0.46
  -4  -3   8   26.22    0.51
   3   3  -8   18.29    0.38
   3   3  -8   18.77    0.39
   3   3  -8   19.27    0.37
  -3  -3   8   18.81    0.38
  -3  -3   8   19.14    0.34
   2   3  -8   91.94    1.48
   2   3  -8   92.10    1.51
   2   3  -8   89.03    1.50
  -2  -3   8   89.49    1.39
  -2  -3   8   89.17    1.47
   1   3  -8    2.27    0.09
   1   3  -8    2.11    0.09
  -1  -3   8    2.08    0.05
  -1  -3   8    1.96    0.08
   0   3  -8    8.55    0.19
   0   3  -8    8.36    0.19
   0   3  -8    8.44    0.19
   0   3  -8    8.61    0.18
   0  -3   8    8.44    0.18
  -1   3  -8    0.13    0.03
  -1   3  -8    0.14    0.03
  -1   3  -8    0.15    0.03
  -1   3  -8    0.18    0.03
   1  -3   8    0.19    0.03
   1  -3   8    0.22    0.03
  -2   3  -8    0.11    0.03
  -2   3  -8    0.14    0.03
  -2   3  -8    0.10    0.03
   2  -3   8    0.08    0.03
  -3   3  -8   11.00    0.22
  -3   3  -8   10.95    0.21
   3  -3   8   10.84    0.21
  -4   3  -8    5.66    0.14
  -4   3  -8    5.72    0.14
  -4   3  -8    5.85    0.15
   4  -3   8    5.83    0.14
  -5   3  -8   18.10    0.37
  -5   3  -8   18.67    0.36
  -5   3  -8   18.38    0.35
   5  -3   8   18.35    0.35
  -6   3  -8    0.27    0.05
  -6   3  -8    0.26    0.05
   6  -3   8    0.29    0.05
  -7   3  -8    0.79    0.08
   7  -3   8    0.73    0.07
   8   2  -8    0.15    0.06
  -8  -2   8    0.22    0.07
   7   2  -8   17.94    0.42
  -7  -2   8   17.69    0.42
   6   2  -8    3.54    0.15
  -6  -2   8    3.58    0.15
  -6  -2   8    3.68    0.12
   5   2  -8    8.02    0.22
   5   2  -8    7.77    0.22
   5   2  -8    7.18    0.21
  -5  -2   8    7.64    0.22
  -5  -2   8    7.53    0.18
  -5  -2   8    7.35    0.21
   4   2  -8    8.01    0.22
   4   2  -8    7.77    0.21
   4   2  -8    7.70    0.20
  -4  -2   8    7.79    0.18
  -4  -2   8    7.84    0.21
  -4  -2   8    7.82    0.21
   3   2  -8    0.74    0.07
   3   2  -8    0.73    0.07
   3   2  -8    0.67    0.06
  -3  -2   8    0.70    0.06
  -3  -2   8    0.61    0.05
  -3  -2   8    0.65    0.06
   2   2  -8   10.16    0.23
   2   2  -8   10.32    0.23
   2   2  -8    9.94    0.21
  -2  -2   8   10.07    0.23
  -2  -2   8    9.98    0.19
   1   2  -8    0.32    0.03
   1   2  -8    0.28    0.04
   1   2  -8    0.36    0.03
   1   2  -8    0.36    0.04
   1   2  -8    0.39    0.05
  -1  -2   8    0.31    0.04
  -1  -2   8    0.32    0.03
   0   2  -8    0.07    0.03
   0   2  -8    0.05    0.03
   0   2  -8    0.05    0.03
   0   2  -8    0.07    0.03
   0  -2   8    0.07    0.03
   0  -2   8    0.09    0.03
  -1   2  -8    9.41    0.20
  -1   2  -8    9.18    0.19
  -1   2  -8    9.47    0.20
  -1   2  -8    9.43    0.19
   1  -2   8    9.40    0.19
   1  -2   8    9.28    0.19
  -2   2  -8   -0.01    0.02
  -2   2  -8    0.03    0.03
  -2   2  -8    0.03    0.03
   2  -2   8    0.02    0.02
   2  -2   8    0.04    0.02
  -3   2  -8   36.04    0.62
  -3   2  -8   35.56    0.61
   3  -2   8   35.97    0.61
  -4   2  -8   40.57    0.70
  -4   2  -8   40.53    0.73
  -4   2  -8   41.10    0.70
   4  -2   8   40.69    0.69
  -5   2  -8   20.00    0.39
  -5   2  -8   20.33    0.41
  -5   2  -8   20.11    0.39
   5  -2   8   20.29    0.38
  -6   2  -8    0.31    0.05
  -6   2  -8    0.22    0.05
  -6   2  -8    0.28    0.05
   6  -2   8    0.28    0.05
  -7   2  -8    5.88    0.18
  -7   2  -8    6.08    0.18
   7  -2   8    5.76    0.17
   8  -2   8    0.45    0.07
   8   1  -8    0.01    0.04
  -8  -1   8    0.05    0.05
   7   1  -8    1.08    0.10
   7   1  -8    1.09    0.07
  -7  -1   8    0.82    0.09
   6   1  -8    0.46    0.07
   6   1  -8    0.46    0.05
  -6  -1   8    0.35    0.06
   5   1  -8    7.40    0.17
   5   1  -8    7.24    0.21
  -5  -1   8    7.59    0.21
  -5  -1   8    7.32    0.17
   4   1  -8   11.11    0.26
   4   1  -8   11.11    0.22
   4   1  -8   11.28    0.26
   4   1  -8   11.02    0.27
  -4  -1   8   11.24    0.23
  -4  -1   8   11.36    0.27
  -4  -1   8   11.45    0.26
   3   1  -8   44.91    0.78
   3   1  -8   44.81    0.70
   3   1  -8   43.37    0.80
   3   1  -8   44.71    0.79
   3   1  -8   43.74    0.77
  -3  -1   8   45.05    0.81
  -3  -1   8   44.69    0.81
  -3  -1   8   44.54    0.78
  -3  -1   8   44.50    0.72
  -3  -1   8   46.14    0.79
   2   1  -8   37.51    0.68
   2   1  -8   37.09    0.57
   2   1  -8   37.59    0.66
   2   1  -8   36.42    0.65
   2   1  -8   37.93    0.67
   2   1  -8   36.89    0.64
  -2  -1   8   37.23    0.65
  -2  -1   8   36.37    0.60
  -2  -1   8   38.15    0.68
  -2  -1   8   38.06    0.68
  -2  -1   8   37.87    0.66
   1   1  -8   52.66    0.91
   1   1  -8   52.15    0.89
   1   1  -8   52.75    0.93
   1   1  -8   53.18    0.88
   1   1  -8   52.26    0.90
  -1  -1   8   54.11    0.92
  -1  -1   8   51.68    0.92
  -1  -1   8   52.00    0.82
  -1  -1   8   53.72    0.88
  -1  -1   8   53.45    0.89
   0   1  -8    1.99    0.06
   0   1  -8    1.82    0.06
   0   1  -8    1.90    0.07
   0   1  -8    1.71    0.07
   0   1  -8    1.95    0.07
   0  -1   8    1.92    0.05
   0  -1   8    1.91    0.07
   0  -1   8    1.89    0.07
   0  -1   8    1.86    0.07
  -1   1  -8   23.59    0.43
  -1   1  -8   23.97    0.42
  -1   1  -8   23.71    0.43
   1  -1   8   23.92    0.42
   1  -1   8   24.00    0.42
  -2   1  -8    7.64    0.17
  -2   1  -8    7.80    0.17
  -2   1  -8    7.48    0.17
   2  -1   8    7.87    0.17
   2  -1   8    7.36    0.16
  -3   1  -8    2.84    0.09
  -3   1  -8    2.85    0.09
   3  -1   8    2.71    0.09
  -4   1  -8    0.09    0.04
  -4   1  -8    0.02    0.04
  -4   1  -8    0.01    0.04
   4  -1   8    0.06    0.03
  -5   1  -8    4.07    0.13
  -5   1  -8    4.17    0.13
  -5   1  -8    3.99    0.14
   5  -1   8    4.01    0.13
  -6   1  -8    5.27    0.17
  -6   1  -8    5.01    0.16
  -6   1  -8    5.08    0.16
   6  -1   8    4.87    0.15
  -7   1  -8    3.73    0.15
  -7   1  -8    4.01    0.15
   7  -1   8    3.63    0.14
   7  -1   8    3.83    0.11
  -8   1  -8    0.05    0.06
   8  -1   8    0.04    0.04
   8  -1   8    0.05    0.05
   8   0  -8    9.93    0.24
  -8   0   8   10.01    0.28
   7   0  -8    0.42    0.06
  -7   0   8    0.43    0.07
   6   0  -8    1.68    0.08
   6   0  -8    1.74    0.11
  -6   0   8    1.84    0.11
   5   0  -8   16.63    0.31
   5   0  -8   16.73    0.37
   5   0  -8   16.40    0.36
  -5   0   8   17.02    0.30
  -5   0   8   17.15    0.38
  -5   0   8   16.58    0.37
  -5   0   8   16.87    0.37
   4   0  -8   11.52    0.27
   4   0  -8   10.99    0.27
   4   0  -8   11.34    0.22
   4   0  -8   11.90    0.27
   4   0  -8   11.42    0.26
  -4   0   8   11.47    0.28
  -4   0   8   11.42    0.22
  -4   0   8   11.51    0.26
  -4   0   8   11.32    0.27
  -4   0   8   11.45    0.27
   3   0  -8   10.61    0.20
   3   0  -8   10.01    0.23
   3   0  -8   10.72    0.25
   3   0  -8   10.45    0.24
   3   0  -8   10.70    0.24
  -3   0   8   10.33    0.21
  -3   0   8   10.64    0.25
  -3   0   8   10.47    0.24
  -3   0   8   10.33    0.24
  -3   0   8   10.61    0.25
   2   0  -8    2.64    0.10
   2   0  -8    2.46    0.10
   2   0  -8    2.70    0.10
   2   0  -8    2.80    0.07
   2   0  -8    2.61    0.09
  -2   0   8    2.87    0.10
  -2   0   8    2.58    0.10
  -2   0   8    2.69    0.10
  -2   0   8    3.02    0.10
  -2   0   8    2.68    0.08
   1   0  -8    4.81    0.13
   1   0  -8    4.91    0.14
   1   0  -8    4.94    0.13
   1   0  -8    4.72    0.13
   1   0  -8    4.88    0.09
   1   0  -8    4.81    0.13
  -1   0   8    5.22    0.13
  -1   0   8    4.67    0.11
  -1   0   8    4.97    0.13
  -1   0   8    4.98    0.13
  -1   0   8    4.87    0.13
   0   0  -8   18.72    0.35
   0   0  -8   18.80    0.36
   0   0  -8   16.79    0.34
   0   0  -8   19.15    0.36
   0   0  -8   18.73    0.35
   0   0  -8   19.13    0.35
   0   0   8   19.00    0.35
   0   0   8   18.92    0.31
   0   0   8   19.43    0.35
   0   0   8   19.10    0.36
  -1   0  -8    1.64    0.07
  -1   0  -8    1.44    0.07
  -1   0  -8    1.61    0.06
   1   0   8    1.51    0.06
   1   0   8    1.56    0.06
   1   0   8    1.36    0.05
  -2   0  -8   17.01    0.31
  -2   0  -8   16.50    0.32
  -2   0  -8   17.01    0.30
  -2   0  -8   14.54    0.31
   2   0   8   16.47    0.27
   2   0   8   16.93    0.31
   2   0   8   16.81    0.31
   2   0   8   16.11    0.31
   2   0   8   16.51    0.31
  -3   0  -8   12.61    0.27
  -3   0  -8   12.51    0.25
  -3   0  -8   12.47    0.23
  -3   0  -8   12.50    0.26
   3   0   8   12.38    0.22
   3   0   8   12.38    0.25
  -4   0  -8    8.67    0.21
  -4   0  -8    8.53    0.21
  -4   0  -8    8.65    0.20
   4   0   8    8.40    0.20
   4   0   8    8.91    0.17
  -5   0  -8   15.99    0.34
  -5   0  -8   16.66    0.35
  -5   0  -8   16.64    0.36
   5   0   8   16.43    0.29
   5   0   8   16.92    0.34
  -6   0  -8    0.67    0.07
  -6   0  -8    0.63    0.07
  -6   0  -8    0.66    0.07
   6   0   8    0.66    0.05
   6   0   8    0.67    0.07
  -7   0  -8    5.77    0.19
  -7   0  -8    5.66    0.19
  -7   0  -8    5.73    0.20
   7   0   8    5.62    0.15
   7   0   8    5.60    0.18
  -8   0  -8   12.76    0.32
  -8   0  -8   12.68    0.32
   8   0   8   12.08    0.27
   8   0   8   12.20    0.31
   8  -1  -8    1.07    0.08
  -8   1   8    1.01    0.09
   7  -1  -8    1.01    0.10
   7  -1  -8    0.79    0.07
  -7   1   8    0.95    0.09
   6  -1  -8    2.07    0.11
   6  -1  -8    2.12    0.09
  -6   1   8    2.11    0.12
  -6   1   8    2.24    0.11
  -6   1   8    2.32    0.13
   5  -1  -8    4.32    0.15
   5  -1  -8    4.30    0.12
  -5   1   8    4.32    0.15
  -5   1   8    4.38    0.16
  -5   1   8    4.68    0.16
   4  -1  -8    4.96    0.13
   4  -1  -8    4.89    0.15
   4  -1  -8    5.00    0.16
  -4   1   8    4.76    0.16
  -4   1   8    4.83    0.16
  -4   1   8    5.11    0.11
  -4   1   8    4.98    0.15
   3  -1  -8   16.38    0.33
   3  -1  -8   16.18    0.29
   3  -1  -8   16.24    0.34
   3  -1  -8   16.29    0.34
   3  -1  -8   16.11    0.33
  -3   1   8   15.37    0.34
  -3   1   8   16.16    0.34
  -3   1   8   15.85    0.33
  -3   1   8   16.25    0.28
  -3   1   8   16.54    0.35
   2  -1  -8   20.83    0.35
   2  -1  -8   20.37    0.40
   2  -1  -8   20.31    0.38
   2  -1  -8   20.87    0.40
   2  -1  -8   21.02    0.39
  -2   1   8   20.65    0.40
  -2   1   8   20.51    0.35
  -2   1   8   19.98    0.41
  -2   1   8   20.60    0.40
  -2   1   8   20.34    0.39
   1  -1  -8   40.40    0.72
   1  -1  -8   41.96    0.71
   1  -1  -8   42.18    0.66
   1  -1  -8   42.01    0.71
   1  -1  -8   41.23    0.74
  -1   1   8   40.92    0.66
  -1   1   8   41.51    0.72
  -1   1   8   41.18    0.71
  -1   1   8   41.92    0.75
  -1   1   8   42.85    0.74
   0  -1  -8   35.93    0.59
   0  -1  -8   34.51    0.62
   0  -1  -8   34.49    0.54
   0  -1  -8   34.69    0.63
   0  -1  -8   33.43    0.60
   0  -1  -8   33.37    0.61
   0   1   8   33.78    0.55
   0   1   8   34.91    0.60
   0   1   8   35.53    0.62
   0   1   8   35.38    0.61
  -1  -1  -8    2.35    0.08
  -1  -1  -8    2.14    0.08
  -1  -1  -8    2.38    0.05
  -1  -1  -8    2.33    0.08
  -1  -1  -8    2.48    0.09
   1   1   8    2.28    0.08
   1   1   8    2.27    0.08
   1   1   8    2.39    0.07
  -2  -1  -8   38.74    0.67
  -2  -1  -8   39.47    0.68
  -2  -1  -8   38.26    0.66
  -2  -1  -8   39.87    0.69
  -2  -1  -8   39.58    0.69
   2   1   8   38.52    0.62
   2   1   8   40.29    0.67
   2   1   8   40.25    0.71
   2   1   8   39.74    0.68
  -3  -1  -8    2.94    0.11
  -3  -1  -8    3.02    0.11
  -3  -1  -8    3.22    0.11
  -3  -1  -8    3.21    0.10
   3   1   8    3.17    0.11
   3   1   8    3.08    0.08
   3   1   8    3.21    0.10
  -4  -1  -8   26.34    0.49
  -4  -1  -8   25.80    0.51
  -4  -1  -8   26.14    0.48
  -4  -1  -8   26.32    0.49
   4   1   8   26.38    0.48
   4   1   8   26.44    0.44
  -5  -1  -8    3.66    0.13
  -5  -1  -8    3.82    0.11
  -5  -1  -8    3.49    0.13
  -5  -1  -8    3.70    0.14
   5   1   8    3.79    0.11
   5   1   8    3.67    0.13
  -6  -1  -8    6.83    0.20
  -6  -1  -8    6.91    0.16
  -6  -1  -8    6.99    0.21
  -6  -1  -8    6.60    0.19
   6   1   8    6.91    0.16
   6   1   8    7.07    0.20
  -7  -1  -8    4.41    0.17
  -7  -1  -8    4.67    0.12
  -7  -1  -8    4.64    0.17
  -7  -1  -8    4.36    0.17
   7   1   8    5.04    0.14
   7   1   8    4.35    0.16
  -8  -1  -8    0.29    0.07
  -8  -1  -8    0.35    0.07
   8   1   8    0.28    0.05
   8   1   8    0.34    0.06
  -9  -1  -8    0.17    0.08
   9   1   8    0.19    0.05
   9   1   8    0.14    0.06
   8  -2  -8    3.80    0.14
   8  -2  -8    4.18    0.18
  -8   2   8    3.85    0.18
  -8   2   8    3.74    0.13
   7  -2  -8    0.50    0.06
   7  -2  -8    0.46    0.07
  -7   2   8    0.43    0.07
  -7   2   8    0.54    0.08
  -7   2   8    0.47    0.06
   6  -2  -8    8.35    0.24
   6  -2  -8    8.13    0.20
  -6   2   8    8.25    0.22
  -6   2   8    8.70    0.25
  -6   2   8    8.23    0.24
   5  -2  -8    0.04    0.03
   5  -2  -8    0.01    0.04
  -5   2   8    0.21    0.05
  -5   2   8    0.04    0.05
  -5   2   8    0.04    0.05
   4  -2  -8   14.65    0.27
   4  -2  -8   14.75    0.31
  -4   2   8   13.73    0.32
  -4   2   8   14.37    0.31
  -4   2   8   14.40    0.33
   3  -2  -8    0.11    0.03
   3  -2  -8    0.11    0.04
   3  -2  -8    0.19    0.04
   3  -2  -8    0.16    0.04
  -3   2   8    0.08    0.04
  -3   2   8    0.08    0.04
  -3   2   8    0.07    0.04
  -3   2   8    0.09    0.02
   2  -2  -8    1.66    0.08
   2  -2  -8    1.48    0.08
   2  -2  -8    1.39    0.06
   2  -2  -8    1.59    0.08
   2  -2  -8    1.46    0.08
  -2   2   8    1.39    0.07
  -2   2   8    1.45    0.08
  -2   2   8    1.38    0.08
  -2   2   8    1.49    0.07
  -2   2   8    1.40    0.05
   1  -2  -8   14.62    0.29
   1  -2  -8   14.64    0.30
   1  -2  -8   14.79    0.29
   1  -2  -8   15.03    0.26
   1  -2  -8   15.22    0.30
  -1   2   8   14.78    0.26
  -1   2   8   14.50    0.31
  -1   2   8   14.74    0.29
  -1   2   8   14.55    0.30
  -1   2   8   14.78    0.30
   0  -2  -8   26.48    0.46
   0  -2  -8   25.47    0.47
   0  -2  -8   25.84    0.42
   0  -2  -8   25.66    0.46
   0  -2  -8   25.64    0.48
   0   2   8   25.80    0.42
   0   2   8   25.99    0.47
   0   2   8   24.84    0.46
  -1  -2  -8    1.43    0.07
  -1  -2  -8    1.53    0.07
  -1  -2  -8    1.44    0.05
  -1  -2  -8    1.46    0.07
  -1  -2  -8    1.45    0.07
   1   2   8    1.68    0.07
   1   2   8    1.56    0.07
   1   2   8    1.61    0.06
   1   2   8    1.49    0.07
  -2  -2  -8   16.69    0.28
  -2  -2  -8   16.14    0.32
  -2  -2  -8   16.15    0.34
  -2  -2  -8   15.93    0.32
  -2  -2  -8   16.09    0.33
  -2  -2  -8   16.36    0.33
   2   2   8   16.91    0.29
   2   2   8   16.41    0.32
   2   2   8   16.82    0.33
   2   2   8   16.76    0.32
  -3  -2  -8    3.43    0.12
  -3  -2  -8    3.66    0.12
  -3  -2  -8    3.44    0.12
  -3  -2  -8    3.75    0.08
  -3  -2  -8    3.59    0.12
   3   2   8    3.74    0.12
   3   2   8    3.74    0.10
   3   2   8    3.74    0.12
   3   2   8    3.91    0.12
  -4  -2  -8    5.66    0.15
  -4  -2  -8    5.35    0.16
  -4  -2  -8    5.45    0.16
  -4  -2  -8    5.24    0.16
   4   2   8    5.55    0.15
   4   2   8    5.49    0.13
  -5  -2  -8    0.36    0.06
  -5  -2  -8    0.63    0.07
  -5  -2  -8    0.41    0.05
  -5  -2  -8    0.53    0.07
   5   2   8    0.44    0.06
   5   2   8    0.43    0.05
  -6  -2  -8    4.74    0.16
  -6  -2  -8    4.96    0.17
  -6  -2  -8    4.79    0.15
  -6  -2  -8    4.95    0.17
   6   2   8    4.75    0.13
   6   2   8    5.04    0.16
  -7  -2  -8    0.19    0.05
  -7  -2  -8    0.11    0.05
  -7  -2  -8    0.06    0.05
  -7  -2  -8    0.10    0.05
   7   2   8    0.15    0.04
   7   2   8    0.11    0.05
  -8  -2  -8    0.94    0.10
  -8  -2  -8    1.05    0.07
  -8  -2  -8    1.01    0.11
  -8  -2  -8    1.18    0.10
   8   2   8    1.01    0.08
   8   2   8    0.96    0.10
  -9  -2  -8    0.54    0.09
  -9  -2  -8    0.57    0.05
   9   2   8    0.43    0.06
   9   2   8    0.55    0.08
   8  -3  -8    0.63    0.09
   8  -3  -8    0.65    0.07
   7  -3  -8    7.20    0.23
   7  -3  -8    7.02    0.19
  -7   3   8    7.37    0.25
  -7   3   8    7.13    0.23
   6  -3  -8   18.47    0.36
   6  -3  -8   18.88    0.41
  -6   3   8   18.57    0.38
  -6   3   8   18.96    0.44
  -6   3   8   19.26    0.43
   5  -3  -8    2.03    0.10
   5  -3  -8    1.75    0.08
  -5   3   8    1.67    0.10
  -5   3   8    1.73    0.11
  -5   3   8    1.76    0.08
   4  -3  -8   56.53    0.97
   4  -3  -8   57.16    0.91
  -4   3   8   56.57    1.03
  -4   3   8   55.80    1.00
  -4   3   8   56.89    1.00
   3  -3  -8   13.18    0.28
   3  -3  -8   12.65    0.24
  -3   3   8   12.25    0.28
  -3   3   8   13.27    0.28
  -3   3   8   12.53    0.29
   2  -3  -8  113.76    1.84
   2  -3  -8  114.66    1.94
   2  -3  -8  113.66    1.88
   2  -3  -8  115.70    1.75
  -2   3   8  114.16    1.93
  -2   3   8  113.89    1.95
  -2   3   8  113.15    1.88
   1  -3  -8    4.72    0.13
   1  -3  -8    4.91    0.11
   1  -3  -8    4.62    0.14
   1  -3  -8    4.72    0.13
   1  -3  -8    4.89    0.14
  -1   3   8    4.77    0.13
  -1   3   8    4.64    0.14
  -1   3   8    4.67    0.13
  -1   3   8    4.53    0.13
  -1   3   8    4.71    0.10
   0  -3  -8    0.06    0.02
   0  -3  -8   -0.01    0.03
   0  -3  -8    0.02    0.03
   0  -3  -8    0.02    0.03
   0  -3  -8    0.00    0.03
   0   3   8   -0.01    0.03
   0   3   8    0.05    0.03
   0   3   8    0.00    0.02
   0   3   8    0.03    0.03
  -1  -3  -8   67.61    1.09
  -1  -3  -8   65.45    1.14
  -1  -3  -8   66.14    1.09
  -1  -3  -8   66.15    1.02
  -1  -3  -8   66.16    1.11
   1   3   8   66.32    1.02
   1   3   8   66.67    1.15
   1   3   8   64.57    1.11
   1   3   8   63.76    1.08
  -2  -3  -8   60.26    1.03
  -2  -3  -8   60.49    1.06
  -2  -3  -8   60.81    1.02
  -2  -3  -8   60.22    0.95
  -2  -3  -8   60.55    1.07
  -2  -3  -8   59.31    1.01
   2   3   8   60.64    0.95
   2   3   8   61.36    1.06
   2   3   8   61.05    1.01
   2   3   8   62.13    1.03
  -3  -3  -8   47.33    0.86
  -3  -3  -8   47.96    0.87
  -3  -3  -8   48.10    0.84
  -3  -3  -8   46.97    0.83
  -3  -3  -8   47.81    0.76
   3   3   8   49.37    0.84
   3   3   8   48.12    0.86
   3   3   8   48.11    0.82
   3   3   8   48.22    0.77
  -4  -3  -8    1.90    0.10
  -4  -3  -8    1.90    0.09
  -4  -3  -8    2.04    0.10
  -4  -3  -8    2.07    0.10
  -4  -3  -8    1.97    0.07
   4   3   8    1.91    0.09
   4   3   8    1.95    0.10
   4   3   8    1.99    0.08
  -5  -3  -8   22.67    0.46
  -5  -3  -8   23.48    0.48
  -5  -3  -8   23.12    0.46
  -5  -3  -8   22.45    0.46
   5   3   8   22.08    0.40
   5   3   8   23.06    0.45
  -6  -3  -8    5.06    0.16
  -6  -3  -8    4.90    0.18
  -6  -3  -8    5.22    0.18
  -6  -3  -8    5.02    0.18
   6   3   8    5.24    0.17
   6   3   8    5.18    0.14
  -7  -3  -8    4.25    0.17
  -7  -3  -8    3.94    0.17
  -7  -3  -8    4.10    0.17
  -7  -3  -8    3.67    0.14
   7   3   8    4.03    0.13
   7   3   8    4.22    0.16
  -8  -3  -8    2.97    0.13
   8   3   8    3.22    0.15
   8   3   8    2.99    0.12
  -9  -3  -8    3.06    0.13
   9   3   8    2.88    0.13
   7  -4  -8    5.08    0.19
   7  -4  -8    5.03    0.16
  -7   4   8    5.24    0.20
   6  -4  -8    1.34    0.10
   6  -4  -8    1.40    0.08
  -6   4   8    1.49    0.11
  -6   4   8    1.41    0.05
  -6   4   8    1.44    0.11
   5  -4  -8    2.14    0.09
   5  -4  -8    2.10    0.11
  -5   4   8    2.21    0.12
  -5   4   8    2.07    0.08
  -5   4   8    2.03    0.11
   4  -4  -8    6.16    0.15
   4  -4  -8    6.31    0.18
  -4   4   8    6.11    0.19
  -4   4   8    6.17    0.19
  -4   4   8    6.38    0.15
   3  -4  -8    8.34    0.21
   3  -4  -8    8.11    0.17
  -3   4   8    7.92    0.21
  -3   4   8    8.41    0.22
  -3   4   8    8.20    0.19
   2  -4  -8    0.88    0.06
   2  -4  -8    0.79    0.05
  -2   4   8    0.69    0.07
  -2   4   8    0.82    0.06
  -2   4   8    0.98    0.07
   1  -4  -8   17.08    0.34
   1  -4  -8   17.69    0.35
   1  -4  -8   17.23    0.30
  -1   4   8   17.02    0.34
  -1   4   8   17.26    0.35
  -1   4   8   17.16    0.36
   0  -4  -8    2.94    0.10
   0  -4  -8    2.94    0.10
   0  -4  -8    2.84    0.08
   0  -4  -8    2.91    0.10
   0  -4  -8    3.00    0.11
   0  -4  -8    2.99    0.11
   0   4   8    2.96    0.11
   0   4   8    2.85    0.10
   0   4   8    2.92    0.06
   0   4   8    3.08    0.10
  -1  -4  -8   33.85    0.61
  -1  -4  -8   35.47    0.63
  -1  -4  -8   34.71    0.64
  -1  -4  -8   35.39    0.61
  -1  -4  -8   34.94    0.57
  -1  -4  -8   34.86    0.64
   1   4   8   34.26    0.63
   1   4   8   33.88    0.61
   1   4   8   35.09    0.64
   1   4   8   35.52    0.55
  -2  -4  -8    0.17    0.04
  -2  -4  -8    0.11    0.04
  -2  -4  -8    0.07    0.03
  -2  -4  -8    0.09    0.03
  -2  -4  -8    0.17    0.04
  -2  -4  -8    0.15    0.04
   2   4   8    0.08    0.03
   2   4   8    0.08    0.03
   2   4   8    0.17    0.04
   2   4   8    0.07    0.04
  -3  -4  -8   15.30    0.32
  -3  -4  -8   14.88    0.28
  -3  -4  -8   14.97    0.33
  -3  -4  -8   14.96    0.31
  -3  -4  -8   14.74    0.33
   3   4   8   15.35    0.31
   3   4   8   14.41    0.32
   3   4   8   15.04    0.27
   3   4   8   14.94    0.32
  -4  -4  -8    3.26    0.13
  -4  -4  -8    3.48    0.13
  -4  -4  -8    3.29    0.13
  -4  -4  -8    3.40    0.10
  -4  -4  -8    3.46    0.13
   4   4   8    3.16    0.10
   4   4   8    3.21    0.12
   4   4   8    3.48    0.12
  -5  -4  -8   26.82    0.52
  -5  -4  -8   26.71    0.55
  -5  -4  -8   26.34    0.53
  -5  -4  -8   25.71    0.53
   5   4   8   25.81    0.52
   5   4   8   26.07    0.51
   5   4   8   26.71    0.46
  -6  -4  -8    0.07    0.05
   6   4   8    0.06    0.04
  -7  -4  -8    7.85    0.23
   7   4   8    7.74    0.19
  -8  -4  -8    1.07    0.10
   8   4   8    1.21    0.08
  -9  -4  -8   10.74    0.29
   9   4   8   10.77    0.26
   7  -5  -8    2.95    0.14
   7  -5  -8    3.06    0.12
   6  -5  -8   -0.03    0.03
   6  -5  -8    0.01    0.04
  -6   5   8    0.02    0.05
   5  -5  -8    3.78    0.15
   5  -5  -8    4.13    0.12
  -5   5   8    4.04    0.15
  -5   5   8    4.07    0.16
   4  -5  -8    0.99    0.08
   4  -5  -8    0.90    0.06
  -4   5   8    0.86    0.08
  -4   5   8    0.88    0.08
   3  -5  -8   43.78    0.71
   3  -5  -8   44.01    0.78
  -3   5   8   43.76    0.76
  -3   5   8   44.98    0.80
  -3   5   8   44.81    0.83
   2  -5  -8    4.46    0.11
   2  -5  -8    4.46    0.14
  -2   5   8    4.31    0.14
  -2   5   8    4.36    0.11
  -2   5   8    4.79    0.16
   1  -5  -8    8.94    0.21
   1  -5  -8    8.80    0.18
  -1   5   8    8.79    0.19
  -1   5   8    8.61    0.22
   0  -5  -8    3.64    0.10
   0  -5  -8    3.59    0.12
   0   5   8    3.56    0.11
   0   5   8    3.49    0.12
  -1  -5  -8    0.19    0.04
  -1  -5  -8    0.21    0.05
  -1  -5  -8    0.26    0.05
   1   5   8    0.20    0.04
   1   5   8    0.33    0.05
  -2  -5  -8    4.22    0.11
  -2  -5  -8    4.30    0.14
  -2  -5  -8    4.06    0.14
   2   5   8    4.26    0.13
   2   5   8    4.21    0.14
  -3  -5  -8    3.11    0.12
  -3  -5  -8    3.20    0.10
   3   5   8    3.35    0.09
   3   5   8    2.96    0.11
   3   5   8    3.01    0.12
  -4  -5  -8    8.63    0.22
  -4  -5  -8    8.44    0.19
  -4  -5  -8    8.56    0.23
   4   5   8    7.78    0.21
   4   5   8    8.81    0.23
   4   5   8    8.50    0.18
  -5  -5  -8    9.74    0.21
  -5  -5  -8    9.63    0.26
   5   5   8    9.60    0.21
   5   5   8   10.03    0.26
  -6  -5  -8   11.72    0.31
   6   5   8   12.10    0.25
   6   5   8   12.07    0.30
  -7  -5  -8    3.30    0.15
   7   5   8    3.54    0.12
  -8  -5  -8    0.84    0.10
   8   5   8    0.74    0.07
   6  -6  -8    5.34    0.19
   6  -6  -8    5.34    0.15
   5  -6  -8    0.24    0.04
   5  -6  -8    0.13    0.05
  -5   6   8    0.20    0.06
   4  -6  -8    9.65    0.25
   4  -6  -8    9.80    0.21
  -4   6   8    9.81    0.26
  -4   6   8   10.06    0.27
   3  -6  -8    0.61    0.07
   3  -6  -8    0.57    0.05
  -3   6   8    0.52    0.07
  -3   6   8    0.55    0.07
   2  -6  -8    0.96    0.05
   2  -6  -8    1.05    0.08
  -2   6   8    1.01    0.08
  -2   6   8    0.96    0.08
   1  -6  -8    1.96    0.10
   1  -6  -8    2.11    0.07
  -1   6   8    2.26    0.11
  -1   6   8    1.97    0.06
   0  -6  -8    6.34    0.14
   0  -6  -8    6.05    0.17
   0   6   8    5.67    0.17
   0   6   8    6.08    0.14
  -1  -6  -8    4.97    0.15
  -1  -6  -8    4.84    0.13
   1   6   8    4.86    0.16
   1   6   8    5.06    0.13
  -2  -6  -8    0.34    0.06
  -2  -6  -8    0.33    0.05
   2   6   8    0.27    0.06
   2   6   8    0.28    0.04
  -3  -6  -8    7.96    0.18
   3   6   8    7.92    0.22
   3   6   8    7.70    0.20
  -4  -6  -8    0.04    0.04
  -4  -6  -8    0.04    0.04
  -4  -6  -8    0.01    0.04
   4   6   8    0.01    0.04
   4   6   8   -0.02    0.04
  -5  -6  -8    0.68    0.08
  -5  -6  -8    0.67    0.06
   5   6   8    0.62    0.07
  -6  -6  -8   12.75    0.26
  -6  -6  -8   12.56    0.33
   6   6   8   12.19    0.32
  -7  -6  -8   14.09    0.37
   7   6   8   14.30    0.36
  -8  -6  -8    8.24    0.27
   8   6   8    8.32    0.27
   6  -7  -8    0.05    0.04
   5  -7  -8    0.17    0.06
   5  -7  -8    0.19    0.04
   4  -7  -8    0.30    0.04
   4  -7  -8    0.25    0.06
  -4   7   8    0.20    0.06
   3  -7  -8    0.15    0.05
   3  -7  -8    0.10    0.04
  -3   7   8    0.05    0.05
  -3   7   8    0.08    0.05
   2  -7  -8    6.34    0.19
   2  -7  -8    6.62    0.15
  -2   7   8    6.22    0.19
   1  -7  -8    2.19    0.10
   1  -7  -8    2.06    0.08
  -1   7   8    2.37    0.11
   0  -7  -8    4.49    0.12
   0  -7  -8    4.50    0.15
   0   7   8    4.71    0.16
   0   7   8    4.49    0.10
  -1  -7  -8    0.31    0.04
  -1  -7  -8    0.36    0.06
   1   7   8    0.38    0.04
   1   7   8    0.38    0.06
  -2  -7  -8   14.29    0.28
  -2  -7  -8   14.19    0.32
   2   7   8   14.57    0.33
   2   7   8   14.09    0.30
   2   7   8   14.43    0.33
  -3  -7  -8    0.11    0.04
   3   7   8    0.15    0.04
   3   7   8    0.08    0.05
  -4  -7  -8   29.14    0.57
  -4  -7  -8   27.99    0.51
   4   7   8   28.07    0.56
   4   7   8   29.07    0.58
  -5  -7  -8    4.62    0.14
   5   7   8    4.69    0.17
  -6  -7  -8    0.03    0.04
   6   7   8    0.04    0.05
  -7  -7  -8    2.21    0.14
   7   7   8    1.80    0.12
   5  -8  -8    0.17    0.06
   4  -8  -8    0.38    0.06
   3  -8  -8    0.51    0.07
   3  -8  -8    0.56    0.05
  -3   8   8    0.51    0.07
   2  -8  -8    7.63    0.22
   2  -8  -8    8.34    0.18
  -2   8   8    8.16    0.23
   1  -8  -8    4.75    0.13
   1  -8  -8    4.53    0.15
  -1   8   8    4.81    0.16
   0  -8  -8    6.75    0.19
   0  -8  -8    6.57    0.16
   0   8   8    6.78    0.20
  -1  -8  -8    5.04    0.14
  -1  -8  -8    5.16    0.17
   1   8   8    5.36    0.18
  -2  -8  -8   18.16    0.35
   2   8   8   17.83    0.35
   2   8   8   17.77    0.40
  -3  -8  -8    1.89    0.10
  -3  -8  -8    2.13    0.12
   3   8   8    1.87    0.12
   3   8   8    2.10    0.09
  -4  -8  -8    6.22    0.21
  -4  -8  -8    6.13    0.17
   4   8   8    6.20    0.21
   4   8   8    6.05    0.18
  -5  -8  -8    2.07    0.10
   5   8   8    1.91    0.11
  -6  -8  -8    8.68    0.22
   6   8   8    8.22    0.25
   7   8   8    3.56    0.16
   3  -9  -8    8.84    0.24
   2  -9  -8    0.56    0.07
  -2   9   8    0.62    0.08
   1  -9  -8    3.44    0.11
   1  -9  -8    3.20    0.14
  -1   9   8    3.40    0.14
   0  -9  -8    1.63    0.08
   0  -9  -8    1.78    0.10
   0   9   8    1.62    0.10
  -1  -9  -8   16.68    0.37
   1   9   8   16.46    0.38
   1   9   8   16.80    0.38
  -2  -9  -8    0.07    0.05
   2   9   8    0.05    0.05
  -3  -9  -8   32.68    0.58
  -3  -9  -8   32.90    0.64
   3   9   8   32.89    0.59
   3   9   8   32.35    0.66
  -4  -9  -8   13.77    0.34
  -4  -9  -8   13.16    0.29
   4   9   8   13.04    0.34
   4   9   8   12.90    0.29
   4   9   8   13.57    0.35
  -5  -9  -8    3.07    0.13
   5   9   8    2.90    0.12
  -6  -9  -8    1.08    0.09
   6   9   8    0.91    0.09
   1 -10  -8   -0.01    0.05
   0 -10  -8    5.00    0.18
   0 -10  -8    5.26    0.15
  -1 -10  -8    2.40    0.10
  -2 -10  -8    8.82    0.22
  -2 -10  -8    9.09    0.26
  -3 -10  -8    6.97    0.20
  -3 -10  -8    6.75    0.22
   3  10   8    6.72    0.23
  -4 -10  -8   12.59    0.34
  -4 -10  -8   12.11    0.29
   4  10   8   12.86    0.34
  -3  -8   9    0.08    0.06
  -2  -8   9   11.90    0.28
  -1  -8   9    0.33    0.05
   0   8  -9    7.69    0.19
   0  -8   9    7.31    0.18
  -1   8  -9    2.40    0.09
   1  -8   9    2.39    0.08
   5   7  -9    1.05    0.11
  -5  -7   9    0.94    0.08
  -5  -7   9    0.98    0.10
   4   7  -9    0.00    0.06
   4   7  -9   -0.01    0.05
  -4  -7   9    0.04    0.04
  -4  -7   9   -0.02    0.05
   3   7  -9    3.13    0.14
   3   7  -9    3.25    0.14
  -3  -7   9    3.22    0.14
  -3  -7   9    3.18    0.11
   2   7  -9    2.98    0.13
   2   7  -9    2.90    0.12
  -2  -7   9    3.07    0.13
   1   7  -9    0.03    0.04
   1   7  -9    0.12    0.04
  -1  -7   9    0.05    0.04
   0   7  -9   18.76    0.36
   0   7  -9   18.72    0.36
   0  -7   9   19.08    0.36
  -1   7  -9    5.87    0.14
  -1   7  -9    5.95    0.14
   1  -7   9    5.94    0.14
  -2   7  -9    2.25    0.07
   2  -7   9    2.27    0.06
  -3   7  -9    0.33    0.03
   6   6  -9    5.60    0.21
   6   6  -9    5.87    0.23
   6   6  -9    5.72    0.16
  -6  -6   9    5.94    0.22
  -6  -6   9    5.40    0.18
   5   6  -9   15.44    0.29
   5   6  -9   16.25    0.38
   5   6  -9   15.69    0.39
  -5  -6   9   15.77    0.38
  -5  -6   9   15.32    0.33
   4   6  -9    4.65    0.17
   4   6  -9    4.95    0.18
  -4  -6   9    4.67    0.17
  -4  -6   9    4.50    0.14
   3   6  -9   11.42    0.28
   3   6  -9   10.91    0.28
  -3  -6   9   11.18    0.28
  -3  -6   9   11.09    0.23
   2   6  -9    3.62    0.13
   2   6  -9    3.70    0.14
  -2  -6   9    3.75    0.13
   1   6  -9    2.57    0.10
   1   6  -9    2.64    0.10
  -1  -6   9    2.55    0.10
   0   6  -9    2.72    0.10
   0   6  -9    2.81    0.10
   0  -6   9    2.87    0.10
  -1   6  -9    0.02    0.03
  -1   6  -9    0.05    0.03
   1  -6   9    0.02    0.03
  -2   6  -9    0.56    0.04
  -2   6  -9    0.49    0.03
   2  -6   9    0.50    0.04
  -3   6  -9    0.33    0.03
   3  -6   9    0.44    0.03
  -4   6  -9    1.85    0.06
   4  -6   9    1.85    0.05
   7   5  -9   14.80    0.36
  -7  -5   9   14.74    0.33
   6   5  -9    0.57    0.07
   6   5  -9    0.51    0.08
  -6  -5   9    0.60    0.08
  -6  -5   9    0.40    0.06
   5   5  -9    2.44    0.10
   5   5  -9    2.70    0.14
   5   5  -9    2.47    0.13
  -5  -5   9    2.42    0.11
  -5  -5   9    2.56    0.13
   4   5  -9    1.15    0.06
   4   5  -9    1.28    0.10
   4   5  -9    1.35    0.10
  -4  -5   9    1.18    0.08
  -4  -5   9    1.30    0.09
   3   5  -9    5.59    0.18
   3   5  -9    5.69    0.18
  -3  -5   9    5.38    0.14
  -3  -5   9    5.52    0.17
   2   5  -9   22.42    0.45
   2   5  -9   22.04    0.44
  -2  -5   9   22.74    0.38
  -2  -5   9   22.62    0.44
   1   5  -9   52.86    0.92
   1   5  -9   53.45    0.91
  -1  -5   9   54.04    0.91
   0   5  -9    0.69    0.06
   0   5  -9    0.64    0.06
   0  -5   9    0.69    0.06
  -1   5  -9    5.24    0.13
  -1   5  -9    5.10    0.13
   1  -5   9    5.34    0.13
  -2   5  -9    6.40    0.14
  -2   5  -9    6.57    0.14
   2  -5   9    6.60    0.14
  -3   5  -9   17.48    0.31
  -3   5  -9   17.38    0.31
   3  -5   9   16.59    0.30
  -4   5  -9    9.41    0.18
  -4   5  -9    9.13    0.19
  -4   5  -9    9.30    0.20
   4  -5   9    9.10    0.18
  -5   5  -9    2.00    0.07
  -5   5  -9    2.12    0.08
   5  -5   9    2.08    0.07
   7   4  -9    8.88    0.26
  -7  -4   9    9.09    0.23
   6   4  -9    0.21    0.05
  -6  -4   9    0.15    0.05
   5   4  -9    9.63    0.26
   5   4  -9    9.53    0.27
   5   4  -9    9.75    0.24
  -5  -4   9    9.49    0.22
  -5  -4   9    9.74    0.26
   4   4  -9    1.07    0.09
   4   4  -9    0.86    0.06
   4   4  -9    0.98    0.09
  -4  -4   9    1.07    0.09
  -4  -4   9    0.93    0.07
   3   4  -9    2.98    0.13
   3   4  -9    3.10    0.09
   3   4  -9    2.90    0.12
  -3  -4   9    2.98    0.10
  -3  -4   9    2.96    0.12
   2   4  -9    2.32    0.11
   2   4  -9    2.67    0.11
  -2  -4   9    2.54    0.08
  -2  -4   9    2.27    0.10
   1   4  -9    3.38    0.11
   1   4  -9    3.39    0.12
  -1  -4   9    3.33    0.11
   0   4  -9    4.42    0.12
   0   4  -9    4.43    0.13
   0  -4   9    4.44    0.12
  -1   4  -9    7.15    0.16
  -1   4  -9    6.92    0.16
   1  -4   9    7.06    0.16
  -2   4  -9    2.98    0.09
  -2   4  -9    3.03    0.09
   2  -4   9    3.15    0.09
  -3   4  -9    0.20    0.03
  -3   4  -9    0.17    0.03
   3  -4   9    0.17    0.03
  -4   4  -9    4.13    0.11
  -4   4  -9    4.25    0.12
  -4   4  -9    4.16    0.11
   4  -4   9    4.21    0.11
  -5   4  -9    0.09    0.04
  -5   4  -9    0.09    0.04
   5  -4   9    0.05    0.03
  -6   4  -9    0.58    0.06
   6  -4   9    0.56    0.06
   8   3  -9   20.15    0.49
  -8  -3   9   21.47    0.50
   7   3  -9    1.83    0.12
  -7  -3   9    2.13    0.10
   6   3  -9    7.90    0.23
  -6  -3   9    7.37    0.19
   5   3  -9    3.47    0.13
   5   3  -9    3.25    0.14
   5   3  -9    3.09    0.14
  -5  -3   9    3.50    0.15
  -5  -3   9    3.39    0.12
   4   3  -9    5.07    0.17
   4   3  -9    4.66    0.15
   4   3  -9    4.64    0.16
  -4  -3   9    4.89    0.17
  -4  -3   9    4.88    0.14
   3   3  -9   17.68    0.35
   3   3  -9   17.73    0.37
   3   3  -9   16.76    0.37
  -3  -3   9   18.30    0.37
  -3  -3   9   17.49    0.32
   2   3  -9   25.72    0.47
   2   3  -9   24.87    0.44
   2   3  -9   24.76    0.48
  -2  -3   9   24.45    0.42
  -2  -3   9   25.06    0.47
   1   3  -9    3.69    0.12
   1   3  -9    3.80    0.12
  -1  -3   9    3.77    0.09
  -1  -3   9    3.61    0.12
   0   3  -9    5.54    0.15
   0   3  -9    5.68    0.14
   0  -3   9    5.64    0.14
  -1   3  -9    1.18    0.06
  -1   3  -9    1.18    0.06
   1  -3   9    1.08    0.06
  -2   3  -9   19.94    0.36
  -2   3  -9   20.09    0.37
   2  -3   9   20.23    0.36
  -3   3  -9    0.44    0.04
  -3   3  -9    0.38    0.04
   3  -3   9    0.54    0.05
  -4   3  -9    0.68    0.05
  -4   3  -9    0.70    0.06
  -4   3  -9    0.70    0.06
   4  -3   9    0.61    0.05
  -5   3  -9    2.68    0.10
  -5   3  -9    2.69    0.10
  -5   3  -9    2.54    0.10
   5  -3   9    2.67    0.10
  -6   3  -9    2.54    0.11
  -6   3  -9    2.63    0.11
   6  -3   9    2.65    0.10
   7  -3   9    1.48    0.09
   8   2  -9    6.42    0.23
  -8  -2   9    6.42    0.23
   7   2  -9    5.96    0.21
  -7  -2   9    5.73    0.21
   6   2  -9   21.35    0.47
  -6  -2   9   21.92    0.48
  -6  -2   9   22.05    0.41
   5   2  -9    0.08    0.05
   5   2  -9    0.05    0.04
   5   2  -9   -0.04    0.05
  -5  -2   9    0.05    0.04
  -5  -2   9    0.02    0.04
  -5  -2   9    0.08    0.05
   4   2  -9   35.65    0.68
   4   2  -9   35.70    0.68
   4   2  -9   36.06    0.67
  -4  -2   9   36.45    0.61
  -4  -2   9   37.53    0.67
   3   2  -9    4.64    0.15
   3   2  -9    4.44    0.14
   3   2  -9    4.54    0.15
  -3  -2   9    4.59    0.15
  -3  -2   9    4.52    0.12
   2   2  -9   52.37    0.92
   2   2  -9   52.57    0.90
   2   2  -9   53.65    0.92
  -2  -2   9   53.88    0.90
  -2  -2   9   52.34    0.84
   1   2  -9    5.51    0.12
   1   2  -9    5.36    0.12
   1   2  -9    5.43    0.15
   1   2  -9    5.63    0.15
  -1  -2   9    5.54    0.15
  -1  -2   9    5.61    0.12
   0   2  -9    0.30    0.04
   0   2  -9    0.46    0.05
   0  -2   9    0.36    0.04
   0  -2   9    0.44    0.03
  -1   2  -9    0.59    0.05
  -1   2  -9    0.57    0.05
   1  -2   9    0.61    0.05
  -2   2  -9   34.36    0.59
  -2   2  -9   34.70    0.60
   2  -2   9   34.80    0.59
  -3   2  -9   63.33    1.05
  -3   2  -9   63.84    1.06
   3  -2   9   63.49    1.04
  -4   2  -9   29.98    0.54
  -4   2  -9   29.75    0.56
  -4   2  -9   30.37    0.54
   4  -2   9   30.45    0.53
  -5   2  -9    0.06    0.04
  -5   2  -9   -0.02    0.04
  -5   2  -9    0.04    0.04
   5  -2   9   -0.04    0.03
  -6   2  -9    6.15    0.18
  -6   2  -9    6.14    0.19
  -6   2  -9    6.58    0.18
   6  -2   9    6.46    0.18
  -7   2  -9   -0.03    0.05
  -7   2  -9   -0.02    0.05
   7  -2   9   -0.04    0.04
  -8  -1   9    0.75    0.09
   7   1  -9   41.22    0.82
  -7  -1   9   40.79    0.81
   6   1  -9    0.70    0.06
   6   1  -9    0.60    0.08
  -6  -1   9    0.50    0.08
   5   1  -9   38.94    0.64
   5   1  -9   37.91    0.74
  -5  -1   9   38.66    0.65
  -5  -1   9   38.44    0.74
   4   1  -9   42.60    0.81
   4   1  -9   45.31    0.80
   4   1  -9   43.40    0.81
   4   1  -9   44.68    0.71
  -4  -1   9   44.82    0.73
  -4  -1   9   44.97    0.79
  -4  -1   9   44.76    0.83
   3   1  -9    7.99    0.21
   3   1  -9    7.86    0.20
   3   1  -9    7.93    0.20
  -3  -1   9    8.17    0.21
  -3  -1   9    7.99    0.21
  -3  -1   9    8.09    0.18
   2   1  -9   24.43    0.46
   2   1  -9   24.27    0.45
   2   1  -9   23.75    0.46
  -2  -1   9   24.08    0.41
  -2  -1   9   24.07    0.47
  -2  -1   9   24.72    0.47
  -2  -1   9   23.77    0.45
   1   1  -9   14.69    0.30
   1   1  -9   14.81    0.29
   1   1  -9   14.85    0.30
   1   1  -9   14.96    0.31
  -1  -1   9   15.24    0.31
  -1  -1   9   14.85    0.30
  -1  -1   9   14.34    0.30
  -1  -1   9   14.58    0.26
  -1  -1   9   15.02    0.30
   0   1  -9    2.58    0.07
   0   1  -9    2.47    0.09
   0   1  -9    2.61    0.07
   0   1  -9    2.49    0.09
   0  -1   9    2.66    0.09
   0  -1   9    2.60    0.09
   0  -1   9    2.51    0.07
  -1   1  -9    1.22    0.06
  -1   1  -9    1.12    0.06
  -1   1  -9    1.12    0.06
  -1   1  -9    1.29    0.07
   1  -1   9    1.22    0.06
   1  -1   9    1.19    0.04
  -2   1  -9    2.59    0.09
  -2   1  -9    2.76    0.09
   2  -1   9    2.71    0.09
  -3   1  -9   20.06    0.38
  -3   1  -9   20.48    0.39
   3  -1   9   20.41    0.38
  -4   1  -9   54.97    0.98
  -4   1  -9   56.08    0.95
  -4   1  -9   55.69    0.93
   4  -1   9   54.71    0.93
  -5   1  -9    9.68    0.23
  -5   1  -9    9.90    0.24
  -5   1  -9    9.72    0.23
   5  -1   9    9.38    0.22
  -6   1  -9    0.41    0.06
  -6   1  -9    0.30    0.06
  -6   1  -9    0.23    0.05
   6  -1   9    0.30    0.05
   6  -1   9    0.41    0.04
  -7   1  -9   11.95    0.29
  -7   1  -9   12.28    0.30
   7  -1   9   12.52    0.29
   7  -1   9   12.23    0.25
   8  -1   9    0.19    0.06
   8  -1   9    0.17    0.05
   8   0  -9    0.04    0.04
  -8   0   9   -0.11    0.05
   7   0  -9   14.68    0.31
  -7   0   9   14.53    0.36
   6   0  -9    0.07    0.04
   6   0  -9    0.09    0.05
  -6   0   9    0.09    0.05
   5   0  -9   12.43    0.25
   5   0  -9   12.63    0.30
  -5   0   9   12.36    0.30
  -5   0   9   12.42    0.24
   4   0  -9    6.72    0.19
   4   0  -9    6.76    0.15
   4   0  -9    6.74    0.19
   4   0  -9    6.86    0.19
   4   0  -9    6.82    0.19
  -4   0   9    6.66    0.19
  -4   0   9    6.62    0.19
  -4   0   9    6.60    0.19
  -4   0   9    6.56    0.20
  -4   0   9    7.10    0.16
   3   0  -9    4.59    0.14
   3   0  -9    4.71    0.14
   3   0  -9    4.57    0.14
   3   0  -9    4.69    0.11
   3   0  -9    4.69    0.15
  -3   0   9    4.67    0.15
  -3   0   9    4.59    0.15
  -3   0   9    4.53    0.15
  -3   0   9    4.74    0.12
  -3   0   9    4.65    0.14
   2   0  -9    0.75    0.06
   2   0  -9    0.73    0.06
   2   0  -9    0.81    0.06
   2   0  -9    0.74    0.04
   2   0  -9    0.76    0.06
  -2   0   9    0.70    0.05
  -2   0   9    0.84    0.06
  -2   0   9    0.84    0.06
  -2   0   9    0.69    0.06
  -2   0   9    0.76    0.06
   1   0  -9    1.40    0.07
   1   0  -9    1.50    0.07
   1   0  -9    1.54    0.04
   1   0  -9    1.53    0.07
   1   0  -9    1.47    0.08
   1   0  -9    1.56    0.07
  -1   0   9    1.48    0.06
  -1   0   9    1.59    0.08
  -1   0   9    1.46    0.07
  -1   0   9    1.54    0.07
  -1   0   9    1.49    0.07
   0   0  -9    6.12    0.16
   0   0  -9    5.99    0.15
   0   0  -9    6.22    0.15
   0   0  -9    6.01    0.15
   0   0  -9    6.03    0.16
   0   0   9    6.07    0.13
   0   0   9    6.22    0.15
   0   0   9    6.27    0.15
   0   0   9    6.16    0.16
  -1   0  -9   12.20    0.24
  -1   0  -9   12.34    0.25
  -1   0  -9   11.04    0.25
  -1   0  -9   12.17    0.25
  -1   0  -9   12.45    0.24
   1   0   9   12.16    0.25
   1   0   9   12.38    0.22
   1   0   9   12.64    0.25
  -2   0  -9   14.51    0.30
  -2   0  -9   14.81    0.27
  -2   0  -9   14.81    0.29
   2   0   9   14.85    0.25
   2   0   9   14.68    0.29
  -3   0  -9    0.73    0.06
  -3   0  -9    0.64    0.03
  -3   0  -9    0.70    0.03
  -3   0  -9    0.71    0.06
   3   0   9    0.70    0.04
   3   0   9    0.78    0.06
  -4   0  -9    2.10    0.10
  -4   0  -9    2.13    0.09
  -4   0  -9    1.97    0.09
   4   0   9    2.00    0.07
   4   0   9    1.81    0.09
  -5   0  -9   37.09    0.66
  -5   0  -9   35.71    0.66
  -5   0  -9   35.42    0.69
   5   0   9   35.87    0.65
   5   0   9   36.78    0.59
  -6   0  -9    1.33    0.09
  -6   0  -9    1.30    0.09
  -6   0  -9    1.23    0.09
   6   0   9    1.14    0.06
   6   0   9    1.12    0.08
  -7   0  -9   13.32    0.32
  -7   0  -9   13.10    0.32
  -7   0  -9   13.21    0.33
   7   0   9   12.99    0.27
   7   0   9   13.01    0.31
  -8   0  -9    1.38    0.11
   8   0   9    1.13    0.10
   8   0   9    1.09    0.07
   8  -1  -9    2.07    0.10
  -8   1   9    1.91    0.11
   7  -1  -9    8.73    0.21
  -7   1   9    8.56    0.24
   6  -1  -9   12.94    0.32
   6  -1  -9   12.82    0.27
  -6   1   9   13.24    0.33
  -6   1   9   12.37    0.31
   5  -1  -9    0.43    0.07
   5  -1  -9    0.34    0.05
   5  -1  -9    0.49    0.07
  -5   1   9    0.54    0.07
  -5   1   9    0.46    0.06
  -5   1   9    0.37    0.07
   4  -1  -9   61.51    0.97
   4  -1  -9   60.56    1.04
   4  -1  -9   60.40    1.09
  -4   1   9   61.68    1.07
  -4   1   9   61.33    0.96
  -4   1   9   60.97    1.10
  -4   1   9   60.11    1.09
   3  -1  -9   15.29    0.33
   3  -1  -9   15.22    0.28
   3  -1  -9   15.10    0.32
   3  -1  -9   15.19    0.33
   3  -1  -9   14.83    0.32
  -3   1   9   15.19    0.27
  -3   1   9   15.41    0.33
  -3   1   9   15.26    0.33
  -3   1   9   15.33    0.32
  -3   1   9   15.06    0.33
   2  -1  -9    2.54    0.10
   2  -1  -9    2.55    0.10
   2  -1  -9    2.55    0.08
   2  -1  -9    2.57    0.10
   2  -1  -9    2.77    0.11
  -2   1   9    2.51    0.10
  -2   1   9    2.62    0.08
  -2   1   9    2.60    0.10
  -2   1   9    2.68    0.11
  -2   1   9    2.77    0.10
   1  -1  -9   88.23    1.45
   1  -1  -9   87.58    1.48
   1  -1  -9   86.73    1.52
   1  -1  -9   91.04    1.46
   1  -1  -9   91.43    1.36
  -1   1   9   89.74    1.48
  -1   1   9   86.98    1.45
  -1   1   9   88.81    1.53
  -1   1   9   91.18    1.53
  -1   1   9   88.73    1.37
   0  -1  -9    3.73    0.08
   0  -1  -9    3.29    0.11
   0  -1  -9    3.68    0.11
   0  -1  -9    3.74    0.11
   0  -1  -9    3.46    0.11
   0  -1  -9    3.54    0.12
   0   1   9    3.79    0.12
   0   1   9    3.54    0.11
   0   1   9    3.81    0.09
   0   1   9    3.72    0.11
  -1  -1  -9   29.86    0.52
  -1  -1  -9   29.96    0.54
  -1  -1  -9   28.96    0.53
  -1  -1  -9   28.74    0.52
   1   1   9   29.86    0.53
   1   1   9   29.32    0.48
   1   1   9   30.15    0.52
   1   1   9   29.84    0.55
  -2  -1  -9   28.84    0.53
  -2  -1  -9   28.85    0.52
  -2  -1  -9   28.63    0.53
  -2  -1  -9   29.27    0.53
   2   1   9   29.60    0.52
   2   1   9   30.42    0.55
   2   1   9   28.83    0.48
   2   1   9   29.63    0.53
  -3  -1  -9    2.19    0.09
  -3  -1  -9    2.16    0.08
  -3  -1  -9    2.14    0.09
  -3  -1  -9    2.12    0.09
   3   1   9    2.26    0.07
   3   1   9    2.36    0.09
  -4  -1  -9    4.59    0.15
  -4  -1  -9    4.26    0.14
  -4  -1  -9    4.36    0.14
  -4  -1  -9    4.50    0.12
   4   1   9    4.57    0.14
   4   1   9    4.48    0.11
  -5  -1  -9    2.68    0.12
  -5  -1  -9    2.69    0.12
  -5  -1  -9    2.71    0.09
  -5  -1  -9    2.60    0.12
   5   1   9    2.84    0.09
   5   1   9    2.58    0.11
  -6  -1  -9   24.55    0.44
  -6  -1  -9   24.19    0.51
  -6  -1  -9   24.45    0.49
  -6  -1  -9   23.78    0.48
   6   1   9   23.76    0.48
   6   1   9   24.35    0.43
  -7  -1  -9    0.10    0.06
  -7  -1  -9    0.03    0.02
  -7  -1  -9    0.03    0.05
  -7  -1  -9    0.10    0.05
   7   1   9    0.04    0.04
   7   1   9    0.03    0.03
  -8  -1  -9    5.73    0.20
  -8  -1  -9    5.65    0.20
   8   1   9    5.54    0.19
   8   1   9    5.30    0.16
   8  -2  -9    5.61    0.17
  -8   2   9    5.51    0.17
   7  -2  -9    0.47    0.06
   7  -2  -9    0.55    0.08
  -7   2   9    0.51    0.08
  -7   2   9    0.58    0.07
   6  -2  -9    0.61    0.08
   6  -2  -9    0.53    0.06
  -6   2   9    0.39    0.07
  -6   2   9    0.47    0.06
  -6   2   9    0.54    0.08
   5  -2  -9    0.42    0.05
   5  -2  -9    0.43    0.06
  -5   2   9    0.45    0.07
  -5   2   9    0.34    0.06
  -5   2   9    0.50    0.06
   4  -2  -9   16.41    0.36
   4  -2  -9   16.13    0.30
   4  -2  -9   16.18    0.35
  -4   2   9   15.83    0.35
  -4   2   9   15.84    0.36
  -4   2   9   15.86    0.35
   3  -2  -9    0.11    0.04
   3  -2  -9    0.07    0.03
   3  -2  -9    0.09    0.04
  -3   2   9    0.02    0.04
  -3   2   9    0.08    0.04
  -3   2   9    0.10    0.03
  -3   2   9    0.07    0.04
   2  -2  -9    0.29    0.04
   2  -2  -9    0.29    0.05
   2  -2  -9    0.24    0.04
   2  -2  -9    0.21    0.04
   2  -2  -9    0.25    0.04
  -2   2   9    0.25    0.03
  -2   2   9    0.20    0.05
  -2   2   9    0.27    0.04
  -2   2   9    0.32    0.05
  -2   2   9    0.30    0.05
   1  -2  -9   19.07    0.37
   1  -2  -9   19.51    0.37
   1  -2  -9   19.65    0.33
   1  -2  -9   18.89    0.38
   1  -2  -9   19.61    0.38
  -1   2   9   19.43    0.33
  -1   2   9   19.45    0.38
  -1   2   9   19.24    0.39
  -1   2   9   19.76    0.38
  -1   2   9   18.79    0.37
   0  -2  -9    7.77    0.19
   0  -2  -9    7.80    0.18
   0  -2  -9    7.98    0.19
   0  -2  -9    7.98    0.19
   0  -2  -9    8.01    0.16
   0   2   9    8.02    0.16
   0   2   9    8.24    0.19
   0   2   9    7.95    0.19
   0   2   9    7.75    0.19
  -1  -2  -9    0.90    0.06
  -1  -2  -9    0.87    0.06
  -1  -2  -9    0.90    0.06
  -1  -2  -9    0.90    0.06
  -1  -2  -9    0.93    0.04
   1   2   9    0.92    0.06
   1   2   9    0.91    0.06
   1   2   9    0.92    0.06
   1   2   9    0.88    0.05
  -2  -2  -9    6.19    0.16
  -2  -2  -9    6.22    0.16
  -2  -2  -9    6.61    0.16
  -2  -2  -9    6.46    0.12
  -2  -2  -9    6.31    0.17
   2   2   9    6.42    0.14
   2   2   9    6.47    0.17
   2   2   9    6.40    0.16
   2   2   9    6.57    0.17
  -3  -2  -9    1.62    0.08
  -3  -2  -9    1.79    0.08
  -3  -2  -9    1.48    0.08
  -3  -2  -9    1.78    0.09
   3   2   9    1.68    0.08
   3   2   9    1.76    0.07
   3   2   9    1.80    0.09
  -4  -2  -9    0.09    0.04
  -4  -2  -9    0.00    0.04
  -4  -2  -9   -0.03    0.04
  -4  -2  -9    0.09    0.04
   4   2   9    0.07    0.03
   4   2   9    0.03    0.04
  -5  -2  -9    3.81    0.14
  -5  -2  -9    3.53    0.14
  -5  -2  -9    3.58    0.14
  -5  -2  -9    3.68    0.12
   5   2   9    3.66    0.11
   5   2   9    3.62    0.13
  -6  -2  -9    0.58    0.07
  -6  -2  -9    0.65    0.06
  -6  -2  -9    0.69    0.08
  -6  -2  -9    0.79    0.08
   6   2   9    0.70    0.06
   6   2   9    0.64    0.07
  -7  -2  -9    0.84    0.09
  -7  -2  -9    0.87    0.09
  -7  -2  -9    0.82    0.09
  -7  -2  -9    0.71    0.06
   7   2   9    0.59    0.08
   7   2   9    0.71    0.07
  -8  -2  -9   11.67    0.32
  -8  -2  -9   11.40    0.25
  -8  -2  -9   11.59    0.31
   8   2   9   11.56    0.31
   8  -3  -9    5.60    0.18
   8  -3  -9    6.00    0.22
  -8   3   9    5.42    0.15
   7  -3  -9    0.01    0.04
   7  -3  -9    0.06    0.05
  -7   3   9   -0.06    0.06
  -7   3   9    0.10    0.06
   6  -3  -9    0.53    0.07
   6  -3  -9    0.53    0.06
  -6   3   9    0.56    0.06
  -6   3   9    0.55    0.08
  -6   3   9    0.60    0.08
   5  -3  -9   24.34    0.49
   5  -3  -9   23.99    0.43
  -5   3   9   23.82    0.50
  -5   3   9   24.44    0.48
  -5   3   9   23.92    0.51
   4  -3  -9    0.15    0.04
   4  -3  -9    0.19    0.05
  -4   3   9    0.12    0.04
  -4   3   9    0.14    0.05
  -4   3   9    0.18    0.05
   3  -3  -9   -0.02    0.04
   3  -3  -9    0.04    0.03
  -3   3   9    0.04    0.04
  -3   3   9    0.02    0.04
  -3   3   9   -0.01    0.04
   2  -3  -9   11.52    0.26
   2  -3  -9   11.58    0.26
   2  -3  -9   11.33    0.22
  -2   3   9   11.19    0.27
  -2   3   9   11.20    0.26
   1  -3  -9    6.78    0.17
   1  -3  -9    6.59    0.14
   1  -3  -9    6.66    0.17
   1  -3  -9    6.65    0.17
   1  -3  -9    6.52    0.17
  -1   3   9    6.45    0.17
  -1   3   9    6.66    0.17
  -1   3   9    6.58    0.13
  -1   3   9    6.39    0.17
  -1   3   9    6.77    0.18
   0  -3  -9   74.20    1.28
   0  -3  -9   77.70    1.32
   0  -3  -9   74.46    1.25
   0  -3  -9   77.68    1.26
   0  -3  -9   76.73    1.18
   0   3   9   77.01    1.26
   0   3   9   77.77    1.28
   0   3   9   76.18    1.32
   0   3   9   75.06    1.18
  -1  -3  -9    0.49    0.05
  -1  -3  -9    0.38    0.05
  -1  -3  -9    0.38    0.05
  -1  -3  -9    0.71    0.06
  -1  -3  -9    0.41    0.04
   1   3   9    0.50    0.05
   1   3   9    0.38    0.05
   1   3   9    0.50    0.06
   1   3   9    0.51    0.04
  -2  -3  -9   31.68    0.57
  -2  -3  -9   31.56    0.51
  -2  -3  -9   30.92    0.59
  -2  -3  -9   31.04    0.56
  -2  -3  -9   31.41    0.58
  -2  -3  -9   31.37    0.59
   2   3   9   31.38    0.59
   2   3   9   31.44    0.57
   2   3   9   31.52    0.56
   2   3   9   31.61    0.52
  -3  -3  -9   13.69    0.24
  -3  -3  -9   13.14    0.29
  -3  -3  -9   13.05    0.30
  -3  -3  -9   13.10    0.29
  -3  -3  -9   12.89    0.29
   3   3   9   13.47    0.29
   3   3   9   13.66    0.30
   3   3   9   13.57    0.25
   3   3   9   13.20    0.28
  -4  -3  -9    5.82    0.17
  -4  -3  -9    5.47    0.17
  -4  -3  -9    5.95    0.18
  -4  -3  -9    5.84    0.18
   4   3   9    6.01    0.14
   4   3   9    5.72    0.17
   4   3   9    5.84    0.17
  -5  -3  -9    4.88    0.16
  -5  -3  -9    5.08    0.17
  -5  -3  -9    5.11    0.17
  -5  -3  -9    4.93    0.17
   5   3   9    4.91    0.13
   5   3   9    5.16    0.16
  -6  -3  -9   12.63    0.30
  -6  -3  -9   12.85    0.32
  -6  -3  -9   12.70    0.31
  -6  -3  -9   13.03    0.32
   6   3   9   12.60    0.31
   6   3   9   12.79    0.27
  -7  -3  -9    0.87    0.09
  -7  -3  -9    0.75    0.08
  -7  -3  -9    0.79    0.09
  -7  -3  -9    0.93    0.10
   7   3   9    0.78    0.07
   7   3   9    0.83    0.09
  -8  -3  -9   -0.04    0.04
   8   3   9   -0.02    0.05
   8   3   9    0.02    0.04
   7  -4  -9    3.85    0.14
   7  -4  -9    4.34    0.18
  -7   4   9    4.21    0.19
   6  -4  -9    2.10    0.09
   6  -4  -9    2.00    0.12
  -6   4   9    2.13    0.13
  -6   4   9    2.12    0.08
  -6   4   9    1.99    0.12
   5  -4  -9    2.20    0.09
   5  -4  -9    2.05    0.11
  -5   4   9    1.98    0.12
  -5   4   9    2.02    0.08
  -5   4   9    2.00    0.12
   4  -4  -9    1.38    0.09
   4  -4  -9    1.47    0.07
  -4   4   9    1.56    0.08
  -4   4   9    1.52    0.10
  -4   4   9    1.43    0.10
   3  -4  -9   19.54    0.35
   3  -4  -9   19.60    0.40
  -3   4   9   19.35    0.39
  -3   4   9   19.58    0.42
  -3   4   9   19.32    0.41
   2  -4  -9    0.81    0.07
   2  -4  -9    0.82    0.05
  -2   4   9    0.79    0.07
  -2   4   9    0.90    0.06
  -2   4   9    0.85    0.07
   1  -4  -9   31.95    0.59
   1  -4  -9   31.31    0.52
   1  -4  -9   31.46    0.57
  -1   4   9   30.40    0.58
  -1   4   9   31.73    0.58
   0  -4  -9    1.40    0.06
   0  -4  -9    1.29    0.08
   0  -4  -9    1.34    0.07
   0  -4  -9    1.38    0.08
   0   4   9    1.27    0.08
   0   4   9    1.33    0.07
   0   4   9    1.45    0.05
  -1  -4  -9   12.38    0.27
  -1  -4  -9   11.92    0.26
  -1  -4  -9   11.88    0.27
  -1  -4  -9   11.77    0.23
  -1  -4  -9   12.12    0.26
  -1  -4  -9   11.68    0.27
   1   4   9   11.82    0.26
   1   4   9   11.59    0.26
   1   4   9   12.17    0.22
   1   4   9   12.16    0.27
  -2  -4  -9   35.64    0.67
  -2  -4  -9   35.82    0.65
  -2  -4  -9   35.37    0.64
  -2  -4  -9   35.67    0.59
  -2  -4  -9   35.58    0.67
  -2  -4  -9   36.00    0.64
   2   4   9   35.65    0.66
   2   4   9   34.94    0.65
   2   4   9   36.01    0.64
   2   4   9   36.08    0.58
  -3  -4  -9    0.50    0.06
  -3  -4  -9    0.69    0.07
  -3  -4  -9    0.50    0.06
  -3  -4  -9    0.57    0.05
  -3  -4  -9    0.52    0.06
   3   4   9    0.52    0.06
   3   4   9    0.56    0.06
   3   4   9    0.52    0.06
   3   4   9    0.55    0.05
  -4  -4  -9    6.63    0.19
  -4  -4  -9    7.09    0.20
  -4  -4  -9    7.23    0.20
  -4  -4  -9    6.88    0.20
  -4  -4  -9    6.90    0.16
   4   4   9    6.98    0.16
   4   4   9    7.06    0.19
   4   4   9    7.09    0.20
  -5  -4  -9    4.05    0.16
  -5  -4  -9    4.21    0.15
  -5  -4  -9    3.86    0.15
  -5  -4  -9    4.18    0.15
   5   4   9    3.98    0.15
   5   4   9    3.79    0.14
   5   4   9    4.15    0.12
  -6  -4  -9    0.68    0.08
   6   4   9    0.60    0.06
  -7  -4  -9    3.56    0.15
   7   4   9    3.54    0.12
  -8  -4  -9    0.21    0.06
   8   4   9    0.14    0.05
   7  -5  -9   12.44    0.33
   7  -5  -9   12.09    0.28
   6  -5  -9    0.70    0.07
   6  -5  -9    0.75    0.08
  -6   5   9    0.53    0.08
   5  -5  -9   15.91    0.32
   5  -5  -9   15.88    0.36
  -5   5   9   16.05    0.37
  -5   5   9   16.55    0.39
   4  -5  -9    0.07    0.04
   4  -5  -9    0.13    0.05
  -4   5   9    0.07    0.03
  -4   5   9    0.04    0.05
  -4   5   9    0.03    0.05
   3  -5  -9    4.70    0.16
   3  -5  -9    4.72    0.13
  -3   5   9    4.96    0.13
  -3   5   9    4.55    0.16
  -3   5   9    4.76    0.17
   2  -5  -9    0.04    0.03
   2  -5  -9    0.09    0.05
  -2   5   9    0.02    0.05
  -2   5   9    0.10    0.03
  -2   5   9    0.15    0.05
   1  -5  -9   19.15    0.34
   1  -5  -9   19.72    0.39
  -1   5   9   19.31    0.38
  -1   5   9   19.76    0.40
   0  -5  -9    8.10    0.20
   0  -5  -9    8.07    0.17
   0   5   9    8.08    0.21
   0   5   9    8.12    0.20
  -1  -5  -9   60.96    0.96
  -1  -5  -9   60.54    1.03
  -1  -5  -9   61.34    1.08
   1   5   9   60.95    1.07
   1   5   9   59.71    1.05
  -2  -5  -9   16.13    0.35
  -2  -5  -9   16.51    0.30
  -2  -5  -9   16.38    0.34
   2   5   9   15.74    0.34
   2   5   9   16.48    0.35
  -3  -5  -9   26.13    0.53
  -3  -5  -9   26.83    0.46
   3   5   9   26.44    0.52
   3   5   9   27.15    0.53
   3   5   9   27.22    0.45
  -4  -5  -9    5.18    0.14
  -4  -5  -9    5.59    0.18
   4   5   9    5.24    0.17
   4   5   9    5.42    0.13
  -5  -5  -9   21.17    0.47
  -5  -5  -9   22.19    0.39
   5   5   9   21.88    0.39
   5   5   9   21.92    0.46
  -6  -5  -9    3.63    0.15
   6   5   9    3.77    0.15
   6   5   9    3.54    0.12
  -7  -5  -9    2.69    0.14
   7   5   9    2.81    0.11
  -8  -5  -9    5.01    0.19
   8   5   9    5.05    0.16
   6  -6  -9    0.11    0.05
   6  -6  -9    0.02    0.04
   5  -6  -9    0.05    0.05
   5  -6  -9    0.11    0.04
  -5   6   9    0.04    0.05
   4  -6  -9    0.72    0.06
   4  -6  -9    0.66    0.07
  -4   6   9    0.71    0.08
  -4   6   9    0.78    0.08
   3  -6  -9    1.48    0.07
   3  -6  -9    1.46    0.09
  -3   6   9    1.51    0.10
  -3   6   9    1.55    0.10
   2  -6  -9   17.11    0.36
   2  -6  -9   16.53    0.31
  -2   6   9   16.90    0.31
  -2   6   9   17.51    0.38
  -2   6   9   16.37    0.37
   1  -6  -9    0.69    0.05
   1  -6  -9    0.73    0.07
  -1   6   9    0.63    0.05
  -1   6   9    0.59    0.07
   0  -6  -9    2.26    0.10
   0  -6  -9    2.30    0.08
   0   6   9    2.33    0.11
   0   6   9    2.28    0.09
  -1  -6  -9    0.61    0.05
  -1  -6  -9    0.56    0.07
   1   6   9    0.56    0.07
   1   6   9    0.50    0.05
  -2  -6  -9    0.30    0.05
  -2  -6  -9    0.24    0.06
   2   6   9    0.24    0.05
   2   6   9    0.29    0.06
  -3  -6  -9   14.67    0.29
   3   6   9   14.01    0.32
   3   6   9   14.60    0.33
  -4  -6  -9    0.70    0.06
  -4  -6  -9    0.78    0.08
  -4  -6  -9    0.78    0.08
   4   6   9    0.83    0.08
   4   6   9    0.68    0.07
  -5  -6  -9   13.39    0.27
   5   6   9   12.66    0.31
  -6  -6  -9    3.05    0.15
   6   6   9    2.69    0.13
  -7  -6  -9    1.28    0.11
   7   6   9    1.32    0.11
  -8  -6  -9    0.10    0.06
   5  -7  -9    1.18    0.08
   5  -7  -9    1.14    0.09
   4  -7  -9    8.66    0.20
   4  -7  -9    8.82    0.24
  -4   7   9    8.87    0.25
   3  -7  -9    8.53    0.19
   3  -7  -9    8.31    0.23
  -3   7   9    8.24    0.23
  -3   7   9    8.52    0.25
   2  -7  -9    1.50    0.07
   2  -7  -9    1.49    0.10
  -2   7   9    1.35    0.10
   1  -7  -9    0.72    0.07
   1  -7  -9    0.71    0.06
  -1   7   9    0.68    0.07
   0  -7  -9   29.69    0.56
   0  -7  -9   29.04    0.51
   0   7   9   29.76    0.58
   0   7   9   30.09    0.53
  -1  -7  -9    2.70    0.12
  -1  -7  -9    2.66    0.10
   1   7   9    2.73    0.10
   1   7   9    2.79    0.12
  -2  -7  -9   14.81    0.34
  -2  -7  -9   14.91    0.29
   2   7   9   14.81    0.34
   2   7   9   14.90    0.32
   2   7   9   15.01    0.35
  -3  -7  -9    0.65    0.06
   3   7   9    0.78    0.09
   3   7   9    0.90    0.07
  -4  -7  -9   11.20    0.25
  -4  -7  -9   10.77    0.28
   4   7   9   10.96    0.27
   4   7   9   11.56    0.30
  -5  -7  -9    0.89    0.08
   5   7   9    0.90    0.09
  -6  -7  -9   14.66    0.30
   6   7   9   14.27    0.36
  -7  -7  -9    0.41    0.08
   7   7   9    0.46    0.08
   4  -8  -9    3.61    0.12
   4  -8  -9    3.50    0.15
   3  -8  -9   10.56    0.22
   3  -8  -9   10.34    0.27
  -3   8   9   10.04    0.27
   2  -8  -9    4.31    0.13
   2  -8  -9    4.51    0.16
  -2   8   9    4.51    0.16
   1  -8  -9    0.55    0.07
   1  -8  -9    0.51    0.05
  -1   8   9    0.48    0.07
   0  -8  -9    1.04    0.08
   0  -8  -9    0.98    0.07
   0   8   9    0.86    0.08
  -1  -8  -9    5.41    0.15
  -1  -8  -9    5.58    0.18
   1   8   9    5.45    0.13
   1   8   9    5.28    0.18
  -2  -8  -9    1.67    0.09
  -2  -8  -9    1.88    0.11
   2   8   9    1.76    0.08
   2   8   9    1.53    0.11
  -3  -8  -9    0.94    0.08
   3   8   9    0.99    0.07
   3   8   9    0.87    0.09
  -4  -8  -9    0.97    0.08
  -4  -8  -9    1.08    0.10
   4   8   9    1.03    0.10
   4   8   9    0.93    0.08
  -5  -8  -9    0.13    0.05
   5   8   9    0.24    0.06
  -6  -8  -9    0.31    0.06
   6   8   9    0.33    0.06
   7   8   9   -0.07    0.04
   3  -9  -9    0.33    0.07
   3  -9  -9    0.24    0.05
   2  -9  -9    0.32    0.06
   2  -9  -9    0.49    0.05
   1  -9  -9    0.02    0.03
   1  -9  -9    0.01    0.04
  -1   9   9   -0.05    0.05
   0  -9  -9    4.26    0.16
   0  -9  -9    4.35    0.13
   0   9   9    4.16    0.16
  -1  -9  -9    1.62    0.08
  -1  -9  -9    1.59    0.10
   1   9   9    1.43    0.10
  -2  -9  -9    1.73    0.09
   2   9   9    1.55    0.11
  -3  -9  -9    0.03    0.05
  -3  -9  -9    0.06    0.05
   3   9   9    0.04    0.03
   3   9   9    0.00    0.06
  -4  -9  -9    0.11    0.06
  -4  -9  -9    0.03    0.05
   4   9   9    0.10    0.04
   4   9   9    0.06    0.06
  -5  -9  -9    3.91    0.14
   5   9   9    3.89    0.15
  -6  -9  -9    1.71    0.10
   6   9   9    1.39    0.10
   1 -10  -9    2.82    0.14
   1 -10  -9    2.57    0.11
   0 -10  -9    0.02    0.04
   0 -10  -9    0.00    0.05
  -1 -10  -9    6.38    0.18
  -1 -10  -9    6.15    0.21
  -2 -10  -9    0.01    0.05
  -3 -10  -9   14.89    0.37
  -3 -10  -9   14.56    0.32
  -4 -10  -9    0.05    0.05
  -4 -10  -9   -0.04    0.05
   4  10   9   -0.01    0.03
   4  10   9   -0.05    0.07
  -2  -8  10    2.25    0.12
  -1  -8  10    0.28    0.06
   0  -8  10    1.62    0.08
  -5  -7  10    1.60    0.12
  -5  -7  10    1.73    0.10
   4   7 -10   12.11    0.32
  -4  -7  10   11.88    0.31
   3   7 -10    1.31    0.10
  -3  -7  10    1.47    0.10
  -3  -7  10    1.35    0.08
   2   7 -10    1.57    0.10
   2   7 -10    1.60    0.10
  -2  -7  10    1.56    0.09
   1   7 -10    1.97    0.10
   1   7 -10    1.74    0.09
  -1  -7  10    1.85    0.09
   0   7 -10    1.22    0.08
   0   7 -10    1.27    0.07
   0  -7  10    1.26    0.07
  -1   7 -10   -0.01    0.03
  -1   7 -10    0.01    0.03
   1  -7  10   -0.03    0.03
  -2   7 -10   15.62    0.27
  -2   7 -10   15.63    0.29
   2  -7  10   15.56    0.28
   6   6 -10    0.47    0.05
  -6  -6  10    0.46    0.07
  -6  -6  10    0.40    0.08
   5   6 -10   25.72    0.56
   5   6 -10   25.42    0.55
  -5  -6  10   26.75    0.55
  -5  -6  10   25.52    0.49
   4   6 -10    4.43    0.17
   4   6 -10    4.45    0.17
  -4  -6  10    4.34    0.17
  -4  -6  10    4.00    0.14
   3   6 -10    0.09    0.05
   3   6 -10    0.03    0.05
  -3  -6  10    0.11    0.05
  -3  -6  10    0.06    0.04
   2   6 -10    4.40    0.15
   2   6 -10    4.12    0.15
  -2  -6  10    4.28    0.15
   1   6 -10    2.92    0.11
   1   6 -10    2.68    0.11
  -1  -6  10    2.74    0.11
   0   6 -10    7.28    0.18
   0   6 -10    7.25    0.18
   0  -6  10    7.09    0.18
  -1   6 -10    5.69    0.15
  -1   6 -10    5.89    0.14
   1  -6  10    5.90    0.14
  -2   6 -10    3.97    0.11
  -2   6 -10    3.90    0.10
   2  -6  10    3.84    0.10
  -3   6 -10    5.37    0.11
  -3   6 -10    5.31    0.13
   3  -6  10    5.49    0.12
  -4   6 -10    0.16    0.04
   4  -6  10    0.12    0.02
   7   5 -10    4.26    0.16
  -7  -5  10    4.32    0.16
   6   5 -10    1.80    0.10
  -6  -5  10    1.69    0.10
  -6  -5  10    1.53    0.12
   5   5 -10    7.24    0.23
   5   5 -10    6.64    0.18
   5   5 -10    6.94    0.22
  -5  -5  10    7.15    0.23
  -5  -5  10    6.80    0.19
   4   5 -10    0.06    0.05
   4   5 -10    0.07    0.02
   4   5 -10    0.01    0.05
  -4  -5  10   -0.01    0.05
  -4  -5  10    0.11    0.04
   3   5 -10   32.33    0.63
   3   5 -10   31.89    0.61
  -3  -5  10   32.60    0.61
   2   5 -10    0.06    0.04
   2   5 -10    0.08    0.05
  -2  -5  10    0.12    0.04
  -2  -5  10    0.03    0.04
   1   5 -10    4.22    0.14
   1   5 -10    4.37    0.14
  -1  -5  10    4.25    0.13
   0   5 -10    4.87    0.14
   0   5 -10    4.82    0.14
   0  -5  10    4.67    0.13
  -1   5 -10    5.37    0.14
  -1   5 -10    5.16    0.14
   1  -5  10    5.13    0.13
  -2   5 -10    8.54    0.18
  -2   5 -10    8.53    0.18
   2  -5  10    8.55    0.18
  -3   5 -10    1.32    0.06
  -3   5 -10    1.43    0.06
   3  -5  10    1.37    0.06
  -4   5 -10    0.04    0.03
  -4   5 -10    0.04    0.03
   4  -5  10    0.09    0.03
  -5   5 -10    4.26    0.13
   5  -5  10    4.36    0.12
   7   4 -10    0.05    0.05
  -7  -4  10    0.01    0.04
   6   4 -10    7.03    0.21
  -6  -4  10    7.21    0.20
   5   4 -10    8.62    0.26
   5   4 -10    9.40    0.26
   5   4 -10    8.89    0.23
  -5  -4  10    8.65    0.22
  -5  -4  10    8.72    0.25
   4   4 -10    0.18    0.04
   4   4 -10    0.26    0.06
   4   4 -10    0.15    0.06
  -4  -4  10    0.27    0.06
  -4  -4  10    0.23    0.05
   3   4 -10   30.27    0.59
   3   4 -10   30.25    0.58
   3   4 -10   30.60    0.53
  -3  -4  10   30.63    0.58
  -3  -4  10   30.60    0.52
   2   4 -10    0.24    0.05
   2   4 -10    0.15    0.05
  -2  -4  10    0.18    0.04
  -2  -4  10    0.15    0.05
   1   4 -10   26.93    0.50
   1   4 -10   26.50    0.51
  -1  -4  10   27.09    0.50
   0   4 -10    8.40    0.20
   0   4 -10    8.62    0.20
   0  -4  10    8.72    0.20
  -1   4 -10    1.77    0.08
  -1   4 -10    1.84    0.08
   1  -4  10    1.88    0.08
  -2   4 -10   18.55    0.35
  -2   4 -10   18.99    0.35
   2  -4  10   18.85    0.35
  -3   4 -10    6.70    0.16
  -3   4 -10    6.87    0.16
   3  -4  10    6.96    0.16
  -4   4 -10    2.46    0.09
  -4   4 -10    2.54    0.09
  -4   4 -10    2.60    0.10
   4  -4  10    2.43    0.09
  -5   4 -10    6.42    0.16
  -5   4 -10    6.16    0.16
   5  -4  10    6.38    0.16
   6  -4  10    1.11    0.07
   8   3 -10    0.12    0.06
   7   3 -10    2.13    0.13
  -7  -3  10    2.14    0.10
   6   3 -10    3.96    0.15
  -6  -3  10    3.53    0.13
   5   3 -10    2.74    0.14
   5   3 -10    2.78    0.14
   5   3 -10    2.59    0.12
  -5  -3  10    2.53    0.13
  -5  -3  10    2.52    0.11
   4   3 -10    1.52    0.10
   4   3 -10    1.48    0.08
   4   3 -10    1.39    0.10
  -4  -3  10    1.53    0.09
  -4  -3  10    1.44    0.08
   3   3 -10  138.53    2.34
   3   3 -10  142.73    2.38
   3   3 -10  140.71    2.31
  -3  -3  10  143.34    2.18
  -3  -3  10  142.84    2.30
   2   3 -10   51.76    0.89
   2   3 -10   52.70    0.92
   2   3 -10   52.69    0.90
  -2  -3  10   51.91    0.90
  -2  -3  10   51.93    0.83
   1   3 -10    0.21    0.05
   1   3 -10    0.22    0.05
  -1  -3  10    0.23    0.05
  -1  -3  10    0.19    0.03
   0   3 -10    2.07    0.09
   0   3 -10    2.15    0.09
   0  -3  10    2.22    0.09
  -1   3 -10    0.27    0.04
  -1   3 -10    0.20    0.04
   1  -3  10    0.27    0.04
  -2   3 -10    0.68    0.05
  -2   3 -10    0.70    0.05
   2  -3  10    0.67    0.05
  -3   3 -10   25.06    0.45
  -3   3 -10   24.63    0.45
   3  -3  10   25.46    0.45
  -4   3 -10    0.37    0.05
  -4   3 -10    0.37    0.05
  -4   3 -10    0.37    0.05
   4  -3  10    0.37    0.05
  -5   3 -10    6.79    0.17
  -5   3 -10    6.55    0.17
  -5   3 -10    6.89    0.19
   5  -3  10    6.90    0.17
  -6   3 -10    0.30    0.05
  -6   3 -10    0.32    0.05
   6  -3  10    0.35    0.05
   7  -3  10    0.27    0.06
   8   2 -10    9.48    0.29
  -8  -2  10    9.29    0.29
   7   2 -10    0.43    0.07
  -7  -2  10    0.50    0.08
   6   2 -10    0.43    0.07
  -6  -2  10    0.35    0.05
  -6  -2  10    0.44    0.07
   5   2 -10    0.14    0.05
  -5  -2  10    0.14    0.04
  -5  -2  10    0.11    0.05
   4   2 -10   22.01    0.47
   4   2 -10   22.71    0.46
   4   2 -10   21.94    0.45
  -4  -2  10   22.33    0.41
  -4  -2  10   22.78    0.46
   3   2 -10   20.36    0.42
   3   2 -10   20.44    0.41
   3   2 -10   20.64    0.42
  -3  -2  10   20.40    0.41
  -3  -2  10   20.26    0.37
   2   2 -10   24.87    0.48
   2   2 -10   24.60    0.46
   2   2 -10   24.65    0.47
  -2  -2  10   25.42    0.43
  -2  -2  10   25.21    0.47
   1   2 -10    9.20    0.18
   1   2 -10    9.32    0.22
   1   2 -10    9.43    0.22
  -1  -2  10    8.86    0.21
  -1  -2  10    9.16    0.18
   0   2 -10   16.73    0.33
   0   2 -10   16.72    0.33
   0  -2  10   16.73    0.33
  -1   2 -10    2.11    0.09
  -1   2 -10    2.44    0.09
   1  -2  10    2.17    0.08
  -2   2 -10    9.17    0.20
  -2   2 -10    9.09    0.20
   2  -2  10    8.90    0.20
  -3   2 -10    1.03    0.07
  -3   2 -10    1.14    0.07
   3  -2  10    1.08    0.07
  -4   2 -10   22.11    0.42
  -4   2 -10   21.81    0.44
  -4   2 -10   22.09    0.42
   4  -2  10   22.62    0.41
  -5   2 -10    1.23    0.08
  -5   2 -10    1.12    0.07
  -5   2 -10    1.11    0.07
   5  -2  10    1.16    0.07
  -6   2 -10    0.28    0.05
  -6   2 -10    0.35    0.06
   6  -2  10    0.31    0.05
  -7   2 -10    0.01    0.05
   7  -2  10    0.00    0.04
  -8  -1  10   10.52    0.31
   7   1 -10    0.45    0.08
  -7  -1  10    0.40    0.08
   6   1 -10   12.22    0.31
  -6  -1  10   11.98    0.32
   5   1 -10    1.90    0.11
  -5  -1  10    2.32    0.12
  -5  -1  10    2.32    0.09
   4   1 -10   52.53    0.91
   4   1 -10   49.11    0.93
   4   1 -10   52.26    0.93
  -4  -1  10   50.97    0.95
  -4  -1  10   51.45    0.84
  -4  -1  10   52.01    0.91
   3   1 -10  119.59    2.05
   3   1 -10  121.43    2.00
   3   1 -10  119.47    1.97
  -3  -1  10  122.71    2.07
  -3  -1  10  119.74    1.86
  -3  -1  10  119.74    1.96
   2   1 -10   15.50    0.32
   2   1 -10   16.12    0.33
   2   1 -10   15.62    0.33
  -2  -1  10   15.75    0.33
  -2  -1  10   15.77    0.29
   1   1 -10    0.17    0.03
   1   1 -10    0.10    0.04
   1   1 -10    0.07    0.04
  -1  -1  10    0.13    0.03
  -1  -1  10    0.15    0.04
   0   1 -10    8.09    0.16
   0   1 -10    7.78    0.19
   0   1 -10    7.60    0.18
   0   1 -10    7.50    0.16
   0  -1  10    7.64    0.18
   0  -1  10    7.72    0.15
  -1   1 -10    8.91    0.20
  -1   1 -10    8.45    0.20
   1  -1  10    8.65    0.20
   1  -1  10    9.07    0.16
  -2   1 -10   19.55    0.37
  -2   1 -10   19.70    0.38
   2  -1  10   19.35    0.37
  -3   1 -10    2.68    0.10
  -3   1 -10    2.84    0.10
   3  -1  10    2.82    0.10
  -4   1 -10   19.20    0.40
  -4   1 -10   19.40    0.39
  -4   1 -10   19.60    0.38
   4  -1  10   19.58    0.38
  -5   1 -10    0.61    0.07
  -5   1 -10    0.53    0.06
  -5   1 -10    0.73    0.07
   5  -1  10    0.53    0.06
  -6   1 -10    7.72    0.21
  -6   1 -10    7.91    0.22
  -6   1 -10    7.60    0.21
   6  -1  10    7.80    0.21
   6  -1  10    7.75    0.17
  -7   1 -10    0.33    0.07
  -7   1 -10    0.26    0.06
   7  -1  10    0.29    0.05
   7  -1  10    0.18    0.05
   8  -1  10    2.22    0.10
   8  -1  10    2.18    0.12
   8   0 -10   -0.03    0.04
  -8   0  10   -0.09    0.05
   7   0 -10   11.04    0.25
  -7   0  10   10.33    0.29
   6   0 -10    0.21    0.06
   6   0 -10    0.31    0.05
  -6   0  10    0.43    0.07
   5   0 -10   14.25    0.28
   5   0 -10   13.84    0.33
  -5   0  10   13.75    0.33
  -5   0  10   14.04    0.27
   4   0 -10   21.17    0.45
   4   0 -10   22.14    0.45
   4   0 -10   21.51    0.38
  -4   0  10   21.43    0.45
  -4   0  10   21.35    0.38
   3   0 -10    0.39    0.04
   3   0 -10    0.45    0.06
   3   0 -10    0.42    0.06
   3   0 -10    0.48    0.06
  -3   0  10    0.33    0.04
  -3   0  10    0.40    0.06
  -3   0  10    0.37    0.06
   2   0 -10    2.16    0.09
   2   0 -10    2.07    0.10
   2   0 -10    2.04    0.10
   2   0 -10    2.13    0.06
  -2   0  10    2.08    0.10
  -2   0  10    2.12    0.10
  -2   0  10    1.97    0.09
  -2   0  10    1.99    0.08
  -2   0  10    2.14    0.10
   1   0 -10   21.41    0.43
   1   0 -10   22.63    0.43
   1   0 -10   22.06    0.42
   1   0 -10   22.30    0.44
  -1   0  10   22.22    0.42
  -1   0  10   22.39    0.44
  -1   0  10   22.39    0.38
  -1   0  10   22.48    0.44
  -1   0  10   22.31    0.42
   0   0 -10   27.75    0.51
   0   0 -10   28.47    0.52
   0   0 -10   28.56    0.54
   0   0 -10   28.36    0.52
   0   0  10   28.00    0.51
   0   0  10   29.27    0.52
   0   0  10   28.28    0.47
   0   0  10   28.17    0.53
  -1   0 -10   29.16    0.53
  -1   0 -10   29.88    0.53
  -1   0 -10   28.96    0.53
   1   0  10   29.47    0.52
   1   0  10   29.63    0.48
  -2   0 -10   25.19    0.44
  -2   0 -10   24.77    0.46
  -2   0 -10   24.20    0.45
  -2   0 -10   24.47    0.44
   2   0  10   25.09    0.45
   2   0  10   24.13    0.40
  -3   0 -10   22.92    0.44
  -3   0 -10   23.03    0.44
  -3   0 -10   23.01    0.40
  -3   0 -10   22.97    0.40
   3   0  10   24.00    0.44
   3   0  10   23.39    0.39
  -4   0 -10   43.24    0.79
  -4   0 -10   42.09    0.75
  -4   0 -10   43.36    0.77
   4   0  10   43.36    0.69
   4   0  10   42.46    0.75
  -5   0 -10    0.97    0.08
  -5   0 -10    0.90    0.08
  -5   0 -10    0.94    0.08
   5   0  10    1.11    0.06
   5   0  10    0.90    0.08
  -6   0 -10    2.84    0.13
  -6   0 -10    3.27    0.14
  -6   0 -10    3.20    0.13
   6   0  10    3.12    0.13
   6   0  10    3.30    0.10
  -7   0 -10    0.19    0.06
  -7   0 -10    0.08    0.06
   7   0  10    0.10    0.04
   7   0  10    0.09    0.05
  -8   0 -10    0.02    0.07
   8   0  10    0.04    0.04
   8   0  10    0.01    0.04
   8  -1 -10    1.23    0.08
  -8   1  10    1.24    0.10
   7  -1 -10    8.42    0.21
  -7   1  10    8.58    0.25
   6  -1 -10    0.13    0.04
  -6   1  10    0.12    0.05
   5  -1 -10   76.89    1.36
   5  -1 -10   77.18    1.21
  -5   1  10   74.00    1.35
   4  -1 -10    4.00    0.14
   4  -1 -10    4.03    0.15
   4  -1 -10    3.98    0.12
  -4   1  10    4.17    0.16
  -4   1  10    4.14    0.15
  -4   1  10    3.93    0.15
  -4   1  10    3.94    0.11
   3  -1 -10   43.55    0.70
   3  -1 -10   43.62    0.76
   3  -1 -10   43.04    0.76
   3  -1 -10   42.10    0.78
   3  -1 -10   42.47    0.79
  -3   1  10   42.54    0.78
  -3   1  10   42.90    0.79
  -3   1  10   43.24    0.80
  -3   1  10   42.77    0.69
  -3   1  10   42.68    0.76
   2  -1 -10    4.26    0.13
   2  -1 -10    4.29    0.13
   2  -1 -10    4.18    0.14
   2  -1 -10    4.31    0.11
   2  -1 -10    4.29    0.14
  -2   1  10    4.26    0.11
  -2   1  10    4.10    0.14
  -2   1  10    4.40    0.14
  -2   1  10    4.31    0.14
  -2   1  10    4.01    0.13
   1  -1 -10   24.97    0.46
   1  -1 -10   24.97    0.41
   1  -1 -10   24.71    0.48
   1  -1 -10   24.91    0.48
   1  -1 -10   24.76    0.47
  -1   1  10   25.27    0.47
  -1   1  10   25.66    0.48
  -1   1  10   24.54    0.42
  -1   1  10   25.00    0.47
  -1   1  10   25.31    0.49
   0  -1 -10    6.08    0.17
   0  -1 -10    6.25    0.16
   0  -1 -10    6.56    0.16
   0  -1 -10    6.18    0.16
   0  -1 -10    6.44    0.12
   0   1  10    6.39    0.17
   0   1  10    6.31    0.16
   0   1  10    6.50    0.14
   0   1  10    6.58    0.17
  -1  -1 -10    9.14    0.20
  -1  -1 -10    8.78    0.21
  -1  -1 -10    9.12    0.20
  -1  -1 -10    8.95    0.21
  -1  -1 -10    9.04    0.22
   1   1  10    9.14    0.21
   1   1  10    9.42    0.18
   1   1  10    9.45    0.21
   1   1  10    9.13    0.21
  -2  -1 -10    2.37    0.09
  -2  -1 -10    2.37    0.10
  -2  -1 -10    2.27    0.09
   2   1  10    2.36    0.07
   2   1  10    2.35    0.09
  -3  -1 -10   45.21    0.80
  -3  -1 -10   45.70    0.83
  -3  -1 -10   45.04    0.79
  -3  -1 -10   46.12    0.80
   3   1  10   45.64    0.79
   3   1  10   46.04    0.73
  -4  -1 -10    4.05    0.14
  -4  -1 -10    4.34    0.15
  -4  -1 -10    4.30    0.14
  -4  -1 -10    4.11    0.11
   4   1  10    4.05    0.13
   4   1  10    4.03    0.11
  -5  -1 -10   10.01    0.21
  -5  -1 -10    9.61    0.25
  -5  -1 -10    9.91    0.26
  -5  -1 -10    9.54    0.24
   5   1  10    9.73    0.24
   5   1  10    9.82    0.21
  -6  -1 -10    6.64    0.14
  -6  -1 -10    6.97    0.21
  -6  -1 -10    6.89    0.20
  -6  -1 -10    6.96    0.21
   6   1  10    6.45    0.17
   6   1  10    6.64    0.20
  -7  -1 -10    4.22    0.17
  -7  -1 -10    4.55    0.18
  -7  -1 -10    4.43    0.17
   7   1  10    4.04    0.16
   7   1  10    4.20    0.13
  -8  -1 -10    1.45    0.11
  -8  -1 -10    1.45    0.12
   8   1  10    1.51    0.10
   8   1  10    1.49    0.09
   8  -2 -10    7.43    0.21
  -8   2  10    7.40    0.21
   7  -2 -10    3.22    0.12
  -7   2  10    2.89    0.13
   6  -2 -10    2.63    0.13
   6  -2 -10    2.52    0.10
  -6   2  10    2.56    0.12
  -6   2  10    2.56    0.14
   5  -2 -10    0.73    0.06
   5  -2 -10    0.69    0.08
  -5   2  10    0.71    0.08
  -5   2  10    0.81    0.08
  -5   2  10    0.73    0.08
   4  -2 -10    0.42    0.05
   4  -2 -10    0.44    0.06
   4  -2 -10    0.24    0.05
  -4   2  10    0.38    0.06
  -4   2  10    0.43    0.07
  -4   2  10    0.42    0.07
   3  -2 -10    1.75    0.09
   3  -2 -10    1.79    0.09
   3  -2 -10    1.80    0.07
  -3   2  10    1.87    0.10
  -3   2  10    1.93    0.07
  -3   2  10    1.74    0.10
  -3   2  10    1.96    0.10
   2  -2 -10    0.14    0.04
   2  -2 -10    0.19    0.04
   2  -2 -10    0.25    0.05
   2  -2 -10    0.24    0.05
   2  -2 -10    0.25    0.04
  -2   2  10    0.27    0.05
  -2   2  10    0.21    0.05
  -2   2  10    0.24    0.05
  -2   2  10    0.17    0.04
  -2   2  10    0.24    0.03
   1  -2 -10   40.95    0.65
   1  -2 -10   39.85    0.73
   1  -2 -10   40.18    0.71
   1  -2 -10   40.23    0.72
   1  -2 -10   40.97    0.70
  -1   2  10   39.73    0.73
  -1   2  10   40.46    0.74
  -1   2  10   39.04    0.70
  -1   2  10   40.72    0.72
  -1   2  10   39.32    0.65
   0  -2 -10   56.01    0.95
   0  -2 -10   56.15    0.87
   0  -2 -10   54.43    0.98
   0  -2 -10   56.28    0.96
   0  -2 -10   56.48    0.94
   0   2  10   55.55    0.88
   0   2  10   56.67    0.96
   0   2  10   56.78    0.99
   0   2  10   54.38    0.94
  -1  -2 -10    0.58    0.04
  -1  -2 -10    0.48    0.05
  -1  -2 -10    0.56    0.06
  -1  -2 -10    0.47    0.05
  -1  -2 -10    0.50    0.05
   1   2  10    0.62    0.06
   1   2  10    0.48    0.05
   1   2  10    0.55    0.04
   1   2  10    0.56    0.05
  -2  -2 -10   25.10    0.49
  -2  -2 -10   26.01    0.48
  -2  -2 -10   25.67    0.49
   2   2  10   25.45    0.50
   2   2  10   26.34    0.48
   2   2  10   25.62    0.48
   2   2  10   26.46    0.44
  -3  -2 -10   16.93    0.36
  -3  -2 -10   17.03    0.37
  -3  -2 -10   16.92    0.35
  -3  -2 -10   17.31    0.35
   3   2  10   16.84    0.31
   3   2  10   17.42    0.35
   3   2  10   17.20    0.36
  -4  -2 -10    7.57    0.20
  -4  -2 -10    7.73    0.19
  -4  -2 -10    7.20    0.21
  -4  -2 -10    7.53    0.20
   4   2  10    7.26    0.17
   4   2  10    7.68    0.20
  -5  -2 -10    4.33    0.15
  -5  -2 -10    4.36    0.16
  -5  -2 -10    4.45    0.14
  -5  -2 -10    4.27    0.16
   5   2  10    4.49    0.13
   5   2  10    4.42    0.15
  -6  -2 -10    8.60    0.21
  -6  -2 -10    8.61    0.25
  -6  -2 -10    8.73    0.24
  -6  -2 -10    8.93    0.24
   6   2  10    8.72    0.20
   6   2  10    8.91    0.24
  -7  -2 -10    5.69    0.20
  -7  -2 -10    6.38    0.21
  -7  -2 -10    6.32    0.22
  -7  -2 -10    6.17    0.16
   7   2  10    5.83    0.20
   7   2  10    6.10    0.17
  -8  -2 -10    0.15    0.07
  -8  -2 -10    0.02    0.06
  -8  -2 -10    0.15    0.04
   8   2  10    0.13    0.05
   8   2  10    0.10    0.05
   7  -3 -10    0.06    0.05
   7  -3 -10   -0.03    0.04
  -7   3  10    0.06    0.04
  -7   3  10    0.13    0.06
   6  -3 -10    5.36    0.16
   6  -3 -10    5.81    0.20
  -6   3  10    5.61    0.17
  -6   3  10    5.84    0.21
  -6   3  10    5.62    0.21
   5  -3 -10    0.07    0.05
   5  -3 -10    0.10    0.04
  -5   3  10    0.05    0.05
  -5   3  10    0.08    0.04
  -5   3  10    0.05    0.05
   4  -3 -10   19.66    0.41
   4  -3 -10   19.18    0.36
  -4   3  10   19.23    0.40
  -4   3  10   19.03    0.42
  -4   3  10   19.30    0.43
   3  -3 -10    5.12    0.13
   3  -3 -10    5.21    0.16
  -3   3  10    4.94    0.17
  -3   3  10    5.05    0.17
  -3   3  10    5.15    0.16
   2  -3 -10   37.57    0.61
   2  -3 -10   38.21    0.70
   2  -3 -10   37.78    0.67
  -2   3  10   37.11    0.71
  -2   3  10   37.36    0.69
  -2   3  10   36.33    0.69
   1  -3 -10   33.67    0.61
   1  -3 -10   34.25    0.63
   1  -3 -10   33.37    0.60
   1  -3 -10   34.02    0.62
   1  -3 -10   33.54    0.55
  -1   3  10   33.50    0.62
  -1   3  10   33.91    0.54
  -1   3  10   32.50    0.63
  -1   3  10   33.62    0.60
   0  -3 -10   10.08    0.24
   0  -3 -10   10.14    0.24
   0  -3 -10   10.24    0.23
   0  -3 -10   10.24    0.23
   0  -3 -10   10.28    0.20
   0   3  10   10.25    0.24
   0   3  10    9.99    0.23
   0   3  10   10.23    0.24
   0   3  10   10.24    0.20
  -1  -3 -10    3.03    0.11
  -1  -3 -10    2.75    0.11
  -1  -3 -10    2.78    0.08
  -1  -3 -10    2.72    0.11
  -1  -3 -10    2.84    0.11
   1   3  10    2.93    0.09
   1   3  10    2.71    0.10
   1   3  10    2.73    0.11
   1   3  10    2.98    0.11
  -2  -3 -10   15.86    0.33
  -2  -3 -10   16.24    0.28
  -2  -3 -10   15.83    0.34
  -2  -3 -10   15.26    0.32
  -2  -3 -10   15.75    0.33
  -2  -3 -10   15.24    0.33
   2   3  10   15.76    0.34
   2   3  10   15.60    0.33
   2   3  10   15.76    0.32
   2   3  10   15.97    0.29
  -3  -3 -10    0.02    0.04
  -3  -3 -10    0.06    0.04
  -3  -3 -10    0.02    0.04
  -3  -3 -10    0.07    0.04
  -3  -3 -10    0.05    0.03
   3   3  10    0.02    0.03
   3   3  10    0.06    0.04
   3   3  10    0.03    0.04
  -4  -3 -10    3.53    0.14
  -4  -3 -10    3.61    0.14
  -4  -3 -10    3.89    0.14
  -4  -3 -10    3.70    0.13
   4   3  10    4.07    0.14
   4   3  10    3.59    0.11
   4   3  10    3.79    0.14
  -5  -3 -10   10.57    0.27
  -5  -3 -10   10.31    0.27
  -5  -3 -10   10.65    0.28
  -5  -3 -10   10.49    0.26
   5   3  10   11.09    0.27
   5   3  10   10.13    0.22
  -6  -3 -10    0.11    0.04
  -6  -3 -10    0.16    0.06
  -6  -3 -10    0.12    0.05
  -6  -3 -10    0.07    0.05
   6   3  10    0.12    0.04
   6   3  10    0.10    0.05
  -7  -3 -10    3.34    0.15
  -7  -3 -10    3.36    0.15
  -7  -3 -10    2.92    0.12
  -7  -3 -10    3.42    0.15
   7   3  10    2.93    0.11
   7   3  10    3.29    0.14
  -8  -3 -10    7.03    0.20
   8   3  10    7.06    0.23
   8   3  10    6.87    0.19
   7  -4 -10    0.92    0.08
   7  -4 -10    1.08    0.10
  -7   4  10    0.96    0.05
  -7   4  10    0.96    0.11
   6  -4 -10    0.01    0.05
   6  -4 -10    0.07    0.04
  -6   4  10    0.08    0.05
  -6   4  10    0.16    0.07
  -6   4  10    0.04    0.03
   5  -4 -10    1.11    0.07
   5  -4 -10    1.20    0.09
  -5   4  10    1.09    0.10
  -5   4  10    1.29    0.10
  -5   4  10    1.24    0.07
   4  -4 -10    3.11    0.11
   4  -4 -10    3.01    0.13
  -4   4  10    2.93    0.14
  -4   4  10    3.20    0.14
  -4   4  10    3.16    0.12
   3  -4 -10   12.82    0.30
   3  -4 -10   13.16    0.26
  -3   4  10   12.92    0.31
  -3   4  10   12.90    0.29
  -3   4  10   13.11    0.31
   2  -4 -10   14.96    0.32
   2  -4 -10   14.66    0.28
  -2   4  10   14.56    0.33
  -2   4  10   14.66    0.34
  -2   4  10   14.62    0.32
   1  -4 -10   11.07    0.25
   1  -4 -10   10.95    0.22
  -1   4  10   10.88    0.26
  -1   4  10   10.99    0.25
   0  -4 -10   22.91    0.45
   0  -4 -10   22.11    0.39
   0  -4 -10   21.86    0.43
   0   4  10   22.46    0.44
   0   4  10   22.41    0.37
   0   4  10   21.70    0.44
  -1  -4 -10    3.16    0.10
  -1  -4 -10    3.11    0.12
  -1  -4 -10    3.05    0.12
  -1  -4 -10    3.07    0.11
  -1  -4 -10    3.11    0.12
   1   4  10    3.25    0.12
   1   4  10    3.11    0.09
   1   4  10    3.08    0.12
   1   4  10    3.01    0.12
  -2  -4 -10    9.81    0.24
  -2  -4 -10    9.23    0.23
  -2  -4 -10    9.57    0.19
  -2  -4 -10    9.56    0.23
  -2  -4 -10    9.39    0.23
  -2  -4 -10    9.29    0.23
   2   4  10    9.21    0.19
   2   4  10    9.22    0.23
   2   4  10    9.49    0.24
   2   4  10    9.37    0.23
  -3  -4 -10    0.51    0.07
  -3  -4 -10    0.55    0.05
  -3  -4 -10    0.57    0.07
  -3  -4 -10    0.50    0.06
  -3  -4 -10    0.72    0.07
   3   4  10    0.40    0.06
   3   4  10    0.47    0.06
   3   4  10    0.51    0.05
  -4  -4 -10    0.13    0.05
  -4  -4 -10    0.15    0.05
  -4  -4 -10    0.17    0.05
  -4  -4 -10    0.22    0.05
   4   4  10    0.14    0.04
   4   4  10    0.12    0.04
   4   4  10    0.08    0.04
  -5  -4 -10    0.26    0.06
  -5  -4 -10    0.19    0.06
  -5  -4 -10    0.28    0.06
   5   4  10    0.31    0.06
   5   4  10    0.25    0.04
   5   4  10    0.24    0.05
  -6  -4 -10    1.03    0.09
   6   4  10    1.02    0.07
  -7  -4 -10    0.05    0.05
   7   4  10    0.02    0.04
  -8  -4 -10    1.67    0.11
   8   4  10    1.63    0.09
   7  -5 -10    0.16    0.06
   7  -5 -10    0.11    0.05
   6  -5 -10    2.78    0.11
   6  -5 -10    2.74    0.14
  -6   5  10    2.92    0.15
   5  -5 -10    9.58    0.26
   5  -5 -10    9.59    0.22
  -5   5  10    9.21    0.19
  -5   5  10    9.28    0.27
  -5   5  10    9.76    0.27
   4  -5 -10    1.80    0.08
   4  -5 -10    2.14    0.11
  -4   5  10    2.02    0.12
  -4   5  10    2.10    0.12
  -4   5  10    2.06    0.08
   3  -5 -10   12.27    0.29
   3  -5 -10   12.54    0.25
  -3   5  10   12.48    0.30
  -3   5  10   12.49    0.31
  -3   5  10   12.47    0.27
   2  -5 -10    1.55    0.07
   2  -5 -10    1.61    0.09
  -2   5  10    1.46    0.09
  -2   5  10    1.47    0.08
  -2   5  10    1.44    0.10
   1  -5 -10   33.90    0.57
   1  -5 -10   34.60    0.63
  -1   5  10   33.98    0.63
  -1   5  10   34.21    0.64
   0  -5 -10    0.24    0.05
   0  -5 -10    0.25    0.04
   0   5  10    0.38    0.06
   0   5  10    0.15    0.04
  -1  -5 -10   23.60    0.41
  -1  -5 -10   24.38    0.48
  -1  -5 -10   23.35    0.46
   1   5  10   23.03    0.47
   1   5  10   24.02    0.47
  -2  -5 -10    1.05    0.08
  -2  -5 -10    0.96    0.08
  -2  -5 -10    0.94    0.06
   2   5  10    1.00    0.08
   2   5  10    0.87    0.07
  -3  -5 -10    4.06    0.12
  -3  -5 -10    3.83    0.15
   3   5  10    4.31    0.11
   3   5  10    3.94    0.14
   3   5  10    4.24    0.15
  -4  -5 -10    0.10    0.04
  -4  -5 -10    0.04    0.04
   4   5  10   -0.03    0.03
   4   5  10    0.07    0.04
  -5  -5 -10    0.58    0.08
   5   5  10    0.61    0.05
   5   5  10    0.47    0.07
  -6  -5 -10    0.14    0.05
   6   5  10    0.18    0.05
   6   5  10    0.09    0.04
  -7  -5 -10    4.33    0.17
   7   5  10    4.54    0.14
  -8  -5 -10    1.75    0.12
   8   5  10    1.70    0.09
   6  -6 -10    0.16    0.05
   6  -6 -10    0.11    0.06
   5  -6 -10    1.86    0.11
   5  -6 -10    1.91    0.09
  -5   6  10    2.10    0.12
   4  -6 -10    0.41    0.05
   4  -6 -10    0.45    0.07
  -4   6  10    0.40    0.07
  -4   6  10    0.45    0.08
   3  -6 -10    8.23    0.23
   3  -6 -10    8.09    0.19
  -3   6  10    8.61    0.25
  -3   6  10    8.39    0.24
  -3   6  10    8.26    0.17
   2  -6 -10    5.13    0.17
   2  -6 -10    4.93    0.13
  -2   6  10    4.97    0.13
  -2   6  10    5.05    0.17
   1  -6 -10   14.34    0.28
   1  -6 -10   14.54    0.32
  -1   6  10   13.97    0.29
  -1   6  10   13.99    0.33
   0  -6 -10    2.22    0.11
   0  -6 -10    2.26    0.09
   0   6  10    2.32    0.11
   0   6  10    2.29    0.10
  -1  -6 -10   50.29    0.83
  -1  -6 -10   51.44    0.90
   1   6  10   52.31    0.91
   1   6  10   50.32    0.92
  -2  -6 -10    3.54    0.11
  -2  -6 -10    3.60    0.14
   2   6  10    3.49    0.14
   2   6  10    3.48    0.12
  -3  -6 -10    5.93    0.19
  -3  -6 -10    6.09    0.16
   3   6  10    5.72    0.17
   3   6  10    6.10    0.19
  -4  -6 -10    4.77    0.17
  -4  -6 -10    4.52    0.13
   4   6  10    4.49    0.16
  -5  -6 -10    3.43    0.15
  -5  -6 -10    3.21    0.11
   5   6  10    3.35    0.14
  -6  -6 -10    0.34    0.07
   6   6  10    0.50    0.07
  -7  -6 -10   10.70    0.31
   7   6  10   10.74    0.30
  -8  -6 -10   -0.03    0.05
   5  -7 -10   11.65    0.26
   5  -7 -10   11.66    0.31
   4  -7 -10    5.44    0.18
   4  -7 -10    5.12    0.15
  -4   7  10    4.98    0.18
   3  -7 -10    0.03    0.04
   3  -7 -10    0.06    0.05
  -3   7  10    0.06    0.05
  -3   7  10    0.13    0.06
   2  -7 -10    9.53    0.21
   2  -7 -10   10.08    0.26
  -2   7  10   10.25    0.27
   1  -7 -10    8.51    0.19
   1  -7 -10    8.44    0.23
  -1   7  10    8.86    0.18
  -1   7  10    8.60    0.24
   0  -7 -10   24.21    0.44
   0  -7 -10   25.05    0.49
   0   7  10   24.42    0.50
   0   7  10   24.53    0.46
  -1  -7 -10   12.53    0.26
  -1  -7 -10   12.37    0.30
   1   7  10   12.38    0.27
   1   7  10   12.20    0.30
  -2  -7 -10   10.00    0.26
  -2  -7 -10    9.54    0.22
   2   7  10    9.11    0.23
   2   7  10    9.30    0.26
  -3  -7 -10    6.83    0.17
   3   7  10    6.63    0.21
   3   7  10    6.75    0.19
  -4  -7 -10    5.40    0.15
   4   7  10    5.09    0.17
  -5  -7 -10    7.36    0.19
   5   7  10    7.36    0.22
  -6  -7 -10    1.46    0.11
   6   7  10    1.37    0.10
  -7  -7 -10    0.40    0.08
   7   7  10    0.51    0.08
   4  -8 -10    3.13    0.12
   4  -8 -10    3.10    0.14
   3  -8 -10    4.37    0.13
   3  -8 -10    4.74    0.17
  -3   8  10    4.66    0.18
   2  -8 -10    0.10    0.04
   2  -8 -10    0.07    0.05
  -2   8  10    0.05    0.05
   1  -8 -10    0.27    0.05
   1  -8 -10    0.26    0.06
  -1   8  10    0.37    0.07
   0  -8 -10   11.84    0.25
   0  -8 -10   12.06    0.30
   0   8  10   11.98    0.21
   0   8  10   11.97    0.30
  -1  -8 -10    2.16    0.09
  -1  -8 -10    2.11    0.11
   1   8  10    2.19    0.12
   1   8  10    2.26    0.08
  -2  -8 -10   14.75    0.31
  -2  -8 -10   15.17    0.35
   2   8  10   14.98    0.36
   2   8  10   15.28    0.36
   2   8  10   15.12    0.32
  -3  -8 -10    0.61    0.07
   3   8  10    0.58    0.08
   3   8  10    0.59    0.07
  -4  -8 -10    6.56    0.18
   4   8  10    6.59    0.20
  -5  -8 -10    1.12    0.08
   5   8  10    1.25    0.10
  -6  -8 -10    0.06    0.05
   6   8  10    0.17    0.06
   3  -9 -10    0.02    0.06
   3  -9 -10    0.01    0.04
   2  -9 -10   -0.04    0.03
   2  -9 -10   -0.02    0.05
   1  -9 -10    4.86    0.14
   1  -9 -10    4.82    0.17
  -1   9  10    4.77    0.18
   0  -9 -10    0.88    0.09
   0  -9 -10    0.86    0.07
   0   9  10    0.78    0.09
  -1  -9 -10    3.20    0.14
  -1  -9 -10    3.14    0.12
   1   9  10    3.17    0.15
  -2  -9 -10   18.09    0.36
   2   9  10   17.79    0.34
   2   9  10   18.27    0.42
  -3  -9 -10    2.24    0.11
   3   9  10    2.15    0.10
   3   9  10    2.25    0.13
  -4  -9 -10   13.70    0.31
  -4  -9 -10   13.66    0.35
   4   9  10   13.82    0.32
  -5  -9 -10    0.34    0.07
   5   9  10    0.30    0.06
   1 -10 -10    0.45    0.06
   1 -10 -10    0.43    0.08
   0 -10 -10    0.37    0.06
   0 -10 -10    0.40    0.07
  -1 -10 -10    6.29    0.21
  -1 -10 -10    6.23    0.18
  -2 -10 -10    0.32    0.06
  -3 -10 -10    3.61    0.14
  -3 -10 -10    3.73    0.17
  -4 -10 -10    1.38    0.10
  -4 -10 -10    1.47    0.11
   4  10  10    1.48    0.08
  -4  -7  11    0.91    0.10
  -4  -7  11    0.96    0.09
  -3  -7  11    1.16    0.08
  -3  -7  11    1.27    0.10
   2   7 -11    2.02    0.12
  -2  -7  11    2.04    0.11
   1   7 -11   12.15    0.28
  -1  -7  11   11.57    0.27
   0   7 -11    4.24    0.14
   0  -7  11    4.07    0.13
  -1   7 -11    0.12    0.04
   1  -7  11    0.10    0.03
   2  -7  11    3.52    0.09
   5   6 -11    1.67    0.13
  -5  -6  11    1.72    0.12
  -5  -6  11    1.57    0.10
   4   6 -11    0.33    0.07
   4   6 -11    0.39    0.07
  -4  -6  11    0.24    0.06
  -4  -6  11    0.34    0.07
   3   6 -11    0.76    0.09
   3   6 -11    0.98    0.09
  -3  -6  11    0.84    0.08
  -3  -6  11    0.88    0.07
   2   6 -11    5.97    0.19
   2   6 -11    6.27    0.19
  -2  -6  11    6.21    0.19
   1   6 -11    1.19    0.08
   1   6 -11    1.21    0.08
  -1  -6  11    1.33    0.08
   0   6 -11    9.08    0.22
   0   6 -11    9.40    0.22
   0  -6  11    9.03    0.21
  -1   6 -11    0.22    0.04
  -1   6 -11    0.22    0.04
   1  -6  11    0.18    0.04
  -2   6 -11    5.36    0.13
  -2   6 -11    5.62    0.14
   2  -6  11    5.53    0.13
  -3   6 -11    0.06    0.03
  -3   6 -11    0.06    0.04
   3  -6  11    0.09    0.03
   6   5 -11   12.46    0.29
  -6  -5  11   11.91    0.29
   5   5 -11   19.99    0.45
   5   5 -11   19.65    0.39
   5   5 -11   19.92    0.46
  -5  -5  11   19.39    0.40
  -5  -5  11   20.19    0.45
   4   5 -11    4.90    0.18
   4   5 -11    4.98    0.18
  -4  -5  11    5.01    0.18
  -4  -5  11    5.02    0.15
   3   5 -11    0.64    0.08
   3   5 -11    0.73    0.08
  -3  -5  11    0.62    0.08
   2   5 -11    3.56    0.14
   2   5 -11    3.55    0.14
  -2  -5  11    3.63    0.11
  -2  -5  11    3.50    0.13
   1   5 -11    0.28    0.05
   1   5 -11    0.25    0.05
  -1  -5  11    0.24    0.05
   0   5 -11    0.41    0.05
   0   5 -11    0.36    0.05
   0  -5  11    0.49    0.05
  -1   5 -11   26.95    0.49
  -1   5 -11   26.25    0.48
   1  -5  11   26.86    0.48
  -2   5 -11   -0.03    0.03
  -2   5 -11   -0.01    0.03
   2  -5  11    0.06    0.03
  -3   5 -11    2.37    0.08
  -3   5 -11    2.44    0.09
   3  -5  11    2.34    0.08
  -4   5 -11    4.79    0.12
  -4   5 -11    4.74    0.13
   4  -5  11    4.76    0.12
   5  -5  11    2.04    0.08
   7   4 -11    4.07    0.17
  -7  -4  11    4.39    0.15
   6   4 -11   12.33    0.31
  -6  -4  11   12.81    0.29
   5   4 -11   12.71    0.30
   5   4 -11   13.37    0.34
   5   4 -11   13.17    0.34
  -5  -4  11   13.66    0.34
  -5  -4  11   12.95    0.29
   4   4 -11    0.42    0.07
   4   4 -11    0.35    0.05
   4   4 -11    0.52    0.07
  -4  -4  11    0.49    0.07
  -4  -4  11    0.36    0.06
   3   4 -11    5.49    0.12
   3   4 -11    5.67    0.18
   3   4 -11    5.63    0.18
  -3  -4  11    5.76    0.18
  -3  -4  11    5.55    0.15
   2   4 -11    1.12    0.08
   2   4 -11    1.00    0.08
  -2  -4  11    1.02    0.08
  -2  -4  11    1.08    0.06
   1   4 -11    7.25    0.20
   1   4 -11    7.36    0.19
  -1  -4  11    7.43    0.19
  -1  -4  11    7.61    0.15
   0   4 -11    0.10    0.04
   0   4 -11    0.15    0.05
   0  -4  11    0.14    0.04
  -1   4 -11   14.28    0.29
  -1   4 -11   14.21    0.29
   1  -4  11   14.22    0.29
  -2   4 -11    4.12    0.12
  -2   4 -11    4.14    0.12
   2  -4  11    3.99    0.12
  -3   4 -11   17.73    0.34
  -3   4 -11   17.85    0.34
   3  -4  11   18.06    0.34
  -4   4 -11    0.06    0.03
  -4   4 -11    0.10    0.04
   4  -4  11    0.09    0.03
  -5   4 -11   17.66    0.36
  -5   4 -11   18.18    0.35
   5  -4  11   18.05    0.35
   6  -4  11    1.09    0.08
   7   3 -11    3.04    0.15
  -7  -3  11    3.18    0.12
   6   3 -11    1.92    0.11
  -6  -3  11    1.97    0.10
   5   3 -11    3.48    0.15
   5   3 -11    3.29    0.13
   5   3 -11    3.49    0.16
  -5  -3  11    3.52    0.15
  -5  -3  11    3.11    0.12
   4   3 -11    4.72    0.17
   4   3 -11    4.67    0.17
   4   3 -11    4.53    0.15
  -4  -3  11    4.47    0.14
  -4  -3  11    4.61    0.17
   3   3 -11   56.61    0.98
   3   3 -11   54.91    0.98
   3   3 -11   56.20    1.00
  -3  -3  11   56.27    0.91
  -3  -3  11   56.37    0.98
   2   3 -11    5.89    0.13
   2   3 -11    6.02    0.18
   2   3 -11    5.85    0.18
  -2  -3  11    6.03    0.18
  -2  -3  11    5.93    0.15
   1   3 -11   19.14    0.38
   1   3 -11   18.63    0.38
  -1  -3  11   18.36    0.37
   0   3 -11   20.88    0.41
   0   3 -11   21.13    0.40
   0  -3  11   21.39    0.40
  -1   3 -11    0.95    0.07
  -1   3 -11    1.00    0.07
   1  -3  11    1.03    0.07
  -2   3 -11    4.36    0.13
  -2   3 -11    4.26    0.13
   2  -3  11    4.39    0.13
  -3   3 -11   13.00    0.27
  -3   3 -11   12.70    0.27
   3  -3  11   13.21    0.27
  -4   3 -11    5.96    0.16
  -4   3 -11    6.41    0.17
  -4   3 -11    5.99    0.16
   4  -3  11    5.96    0.16
  -5   3 -11    1.44    0.08
  -5   3 -11    1.38    0.08
   5  -3  11    1.48    0.08
  -6   3 -11    0.25    0.06
   6  -3  11    0.26    0.05
   7   2 -11    8.32    0.26
  -7  -2  11    9.06    0.28
   6   2 -11   16.39    0.39
  -6  -2  11   16.96    0.34
   5   2 -11    2.06    0.11
  -5  -2  11    2.13    0.10
   4   2 -11   13.28    0.31
   4   2 -11   13.70    0.32
   4   2 -11   13.69    0.33
  -4  -2  11   13.26    0.28
  -4  -2  11   13.73    0.32
   3   2 -11    0.66    0.06
   3   2 -11    0.81    0.08
   3   2 -11    0.75    0.08
  -3  -2  11    0.71    0.06
  -3  -2  11    0.75    0.08
   2   2 -11    7.91    0.18
   2   2 -11    7.57    0.21
   2   2 -11    7.75    0.20
  -2  -2  11    7.82    0.17
  -2  -2  11    7.87    0.21
   1   2 -11    3.75    0.13
   1   2 -11    3.82    0.13
   1   2 -11    3.82    0.10
  -1  -2  11    3.87    0.10
  -1  -2  11    3.76    0.13
   0   2 -11    0.01    0.04
   0   2 -11    0.04    0.04
   0  -2  11    0.00    0.03
   0  -2  11    0.00    0.03
  -1   2 -11    0.72    0.06
  -1   2 -11    0.55    0.06
   1  -2  11    0.64    0.06
  -2   2 -11   18.40    0.35
  -2   2 -11   17.78    0.36
   2  -2  11   18.31    0.35
  -3   2 -11    3.52    0.12
  -3   2 -11    3.42    0.12
   3  -2  11    3.42    0.11
  -4   2 -11   74.98    1.30
  -4   2 -11   73.25    1.25
  -4   2 -11   73.86    1.23
   4  -2  11   74.15    1.23
  -5   2 -11    0.45    0.06
  -5   2 -11    0.41    0.06
  -5   2 -11    0.52    0.06
   5  -2  11    0.44    0.06
  -6   2 -11    3.91    0.14
  -6   2 -11    3.88    0.14
   6  -2  11    3.87    0.13
   7  -2  11    0.55    0.07
   8   1 -11    0.66    0.09
  -8  -1  11    0.63    0.09
   7   1 -11    0.37    0.07
  -7  -1  11    0.33    0.07
   6   1 -11    4.15    0.17
  -6  -1  11    3.77    0.17
   5   1 -11    0.89    0.08
  -5  -1  11    0.95    0.07
  -5  -1  11    0.97    0.09
   4   1 -11    7.81    0.23
   4   1 -11    7.66    0.21
   4   1 -11    7.31    0.21
  -4  -1  11    7.54    0.22
  -4  -1  11    7.36    0.18
  -4  -1  11    7.47    0.22
   3   1 -11    2.46    0.12
   3   1 -11    2.41    0.11
   3   1 -11    2.50    0.12
  -3  -1  11    2.23    0.11
  -3  -1  11    2.33    0.09
   2   1 -11   29.72    0.56
   2   1 -11   28.95    0.56
   2   1 -11   29.87    0.55
  -2  -1  11   29.81    0.50
  -2  -1  11   29.70    0.55
   1   1 -11   16.99    0.33
   1   1 -11   16.47    0.34
   1   1 -11   16.10    0.34
  -1  -1  11   16.57    0.34
  -1  -1  11   16.29    0.30
   0   1 -11   30.59    0.56
   0   1 -11   31.36    0.57
   0   1 -11   31.01    0.54
   0  -1  11   30.60    0.50
   0  -1  11   30.58    0.55
  -1   1 -11    0.72    0.06
  -1   1 -11    0.67    0.06
   1  -1  11    0.66    0.06
   1  -1  11    0.76    0.04
  -2   1 -11   11.27    0.25
  -2   1 -11   11.12    0.25
   2  -1  11   11.50    0.20
   2  -1  11   11.65    0.25
  -3   1 -11   17.26    0.35
  -3   1 -11   17.02    0.34
   3  -1  11   17.77    0.34
  -4   1 -11    0.21    0.05
  -4   1 -11    0.32    0.05
  -4   1 -11    0.16    0.05
   4  -1  11    0.18    0.05
  -5   1 -11    0.58    0.07
  -5   1 -11    0.58    0.07
  -5   1 -11    0.71    0.07
   5  -1  11    0.49    0.06
  -6   1 -11    6.05    0.19
  -6   1 -11    6.28    0.19
   6  -1  11    6.11    0.15
   6  -1  11    5.88    0.18
  -7   1 -11    1.76    0.11
   7  -1  11    2.01    0.11
   7  -1  11    1.69    0.08
  -8   0  11    3.16    0.16
  -7   0  11    2.38    0.14
   6   0 -11    0.28    0.06
   6   0 -11    0.26    0.05
  -6   0  11    0.27    0.07
   5   0 -11   43.78    0.72
   5   0 -11   42.55    0.83
  -5   0  11   43.49    0.83
  -5   0  11   43.62    0.72
   4   0 -11    1.64    0.07
   4   0 -11    1.62    0.10
  -4   0  11    1.57    0.08
  -4   0  11    1.47    0.10
   3   0 -11   33.20    0.65
   3   0 -11   35.14    0.65
   3   0 -11   34.01    0.63
  -3   0  11   34.48    0.66
  -3   0  11   34.19    0.63
  -3   0  11   34.29    0.58
   2   0 -11   10.08    0.24
   2   0 -11    9.96    0.24
   2   0 -11    9.78    0.24
  -2   0  11   10.29    0.25
  -2   0  11    9.86    0.21
  -2   0  11    9.90    0.24
   1   0 -11    1.12    0.07
   1   0 -11    1.17    0.08
   1   0 -11    1.23    0.07
  -1   0  11    1.20    0.08
  -1   0  11    1.06    0.06
  -1   0  11    1.12    0.07
   0   0 -11    8.64    0.21
   0   0 -11    8.97    0.20
   0   0 -11    8.67    0.21
   0   0  11    8.87    0.18
   0   0  11    9.17    0.21
  -1   0 -11   -0.01    0.03
  -1   0 -11    0.00    0.03
  -1   0 -11    0.04    0.04
   1   0  11    0.00    0.03
   1   0  11    0.06    0.03
  -2   0 -11   34.88    0.64
  -2   0 -11   34.48    0.63
  -2   0 -11   36.38    0.61
   2   0  11   35.48    0.63
   2   0  11   35.44    0.57
  -3   0 -11   94.58    1.60
  -3   0 -11   96.82    1.61
  -3   0 -11   96.92    1.59
   3   0  11   97.66    1.58
   3   0  11   97.61    1.49
  -4   0 -11    6.42    0.18
  -4   0 -11    6.06    0.18
  -4   0 -11    6.46    0.19
   4   0  11    6.41    0.14
   4   0  11    6.39    0.18
  -5   0 -11    7.49    0.21
  -5   0 -11    7.10    0.21
  -5   0 -11    7.30    0.20
   5   0  11    6.82    0.19
   5   0  11    7.34    0.16
  -6   0 -11    1.25    0.10
  -6   0 -11    1.35    0.09
  -6   0 -11    1.17    0.09
   6   0  11    1.16    0.08
   6   0  11    1.29    0.07
  -7   0 -11   13.82    0.33
  -7   0 -11   13.67    0.34
   7   0  11   13.72    0.32
   7   0  11   13.31    0.28
   8   0  11    0.15    0.06
   8   0  11    0.11    0.04
   8  -1 -11    0.19    0.05
  -8   1  11    0.09    0.05
   7  -1 -11    0.26    0.05
  -7   1  11    0.14    0.06
   6  -1 -11    3.44    0.12
  -6   1  11    3.18    0.15
   5  -1 -11    7.75    0.23
   5  -1 -11    8.43    0.19
  -5   1  11    8.00    0.23
   4  -1 -11   23.13    0.48
   4  -1 -11   22.38    0.40
  -4   1  11   23.28    0.40
  -4   1  11   22.27    0.48
   3  -1 -11   41.94    0.77
   3  -1 -11   42.57    0.68
   3  -1 -11   41.71    0.75
   3  -1 -11   41.58    0.78
  -3   1  11   41.58    0.78
  -3   1  11   41.58    0.68
  -3   1  11   41.40    0.75
   2  -1 -11    0.71    0.07
   2  -1 -11    0.79    0.05
   2  -1 -11    0.82    0.07
   2  -1 -11    0.74    0.07
   2  -1 -11    0.59    0.06
  -2   1  11    0.63    0.06
  -2   1  11    0.55    0.05
  -2   1  11    0.61    0.06
  -2   1  11    0.69    0.07
  -2   1  11    0.77    0.07
   1  -1 -11    9.71    0.23
   1  -1 -11    9.79    0.24
   1  -1 -11    9.43    0.23
   1  -1 -11    9.86    0.18
  -1   1  11    9.54    0.23
  -1   1  11   10.09    0.24
  -1   1  11    9.87    0.20
  -1   1  11    9.95    0.23
   0  -1 -11    3.08    0.11
   0  -1 -11    3.23    0.12
   0  -1 -11    3.32    0.12
   0   1  11    3.21    0.09
   0   1  11    3.04    0.11
   0   1  11    3.17    0.12
  -1  -1 -11   30.86    0.57
  -1  -1 -11   31.66    0.58
  -1  -1 -11   30.88    0.58
   1   1  11   31.05    0.56
   1   1  11   31.85    0.59
   1   1  11   31.31    0.52
  -2  -1 -11    0.51    0.05
  -2  -1 -11    0.50    0.06
  -2  -1 -11    0.55    0.06
   2   1  11    0.44    0.05
   2   1  11    0.53    0.05
  -3  -1 -11    5.88    0.17
  -3  -1 -11    5.94    0.15
  -3  -1 -11    6.01    0.17
  -3  -1 -11    5.77    0.17
   3   1  11    6.20    0.17
   3   1  11    6.09    0.14
  -4  -1 -11    2.69    0.12
  -4  -1 -11    2.85    0.12
  -4  -1 -11    2.75    0.09
  -4  -1 -11    2.85    0.12
   4   1  11    2.77    0.11
   4   1  11    2.74    0.09
  -5  -1 -11    4.16    0.11
  -5  -1 -11    3.96    0.15
  -5  -1 -11    4.16    0.16
  -5  -1 -11    4.06    0.15
   5   1  11    4.21    0.15
   5   1  11    3.88    0.12
  -6  -1 -11    2.83    0.13
  -6  -1 -11    2.78    0.13
  -6  -1 -11    2.81    0.06
  -6  -1 -11    2.91    0.13
   6   1  11    2.72    0.10
   6   1  11    2.66    0.12
  -7  -1 -11    7.27    0.23
  -7  -1 -11    6.49    0.21
   7   1  11    6.89    0.18
   7   1  11    6.55    0.21
  -8  -1 -11    0.03    0.07
   8   1  11   -0.01    0.05
   8   1  11    0.03    0.04
   7  -2 -11    0.02    0.04
  -7   2  11    0.10    0.05
   6  -2 -11    0.52    0.06
  -6   2  11    0.40    0.07
   5  -2 -11   21.00    0.40
   5  -2 -11   21.57    0.45
  -5   2  11   21.09    0.46
  -5   2  11   20.92    0.45
   4  -2 -11    0.97    0.08
   4  -2 -11    0.98    0.08
   4  -2 -11    0.90    0.06
  -4   2  11    0.82    0.08
  -4   2  11    1.00    0.09
  -4   2  11    0.87    0.08
   3  -2 -11    0.21    0.05
   3  -2 -11    0.20    0.04
   3  -2 -11    0.27    0.05
  -3   2  11    0.26    0.04
  -3   2  11    0.22    0.05
  -3   2  11    0.25    0.05
  -3   2  11    0.25    0.06
   2  -2 -11   16.03    0.36
   2  -2 -11   17.00    0.31
   2  -2 -11   16.52    0.35
   2  -2 -11   16.57    0.35
   2  -2 -11   17.07    0.36
  -2   2  11   17.04    0.30
  -2   2  11   17.19    0.35
  -2   2  11   16.69    0.36
  -2   2  11   17.02    0.36
  -2   2  11   16.77    0.37
   1  -2 -11   22.07    0.37
   1  -2 -11   21.45    0.43
   1  -2 -11   22.00    0.44
   1  -2 -11   21.90    0.42
   1  -2 -11   21.85    0.43
  -1   2  11   21.73    0.38
  -1   2  11   21.90    0.43
  -1   2  11   21.92    0.44
  -1   2  11   21.52    0.42
   0  -2 -11    5.69    0.12
   0  -2 -11    5.59    0.15
   0  -2 -11    5.36    0.16
   0  -2 -11    5.58    0.16
   0  -2 -11    5.61    0.16
   0   2  11    5.44    0.16
   0   2  11    5.50    0.13
   0   2  11    5.45    0.16
  -1  -2 -11  122.44    2.07
  -1  -2 -11  128.90    1.94
  -1  -2 -11  125.42    2.11
  -1  -2 -11  129.83    2.17
   1   2  11  131.60    2.18
   1   2  11  128.89    2.10
   1   2  11  128.68    1.96
   1   2  11  128.12    2.07
  -2  -2 -11   33.57    0.63
  -2  -2 -11   34.17    0.62
  -2  -2 -11   34.26    0.63
   2   2  11   35.05    0.65
   2   2  11   34.90    0.57
   2   2  11   34.50    0.62
  -3  -2 -11  103.12    1.77
  -3  -2 -11  105.30    1.75
  -3  -2 -11  104.03    1.84
  -3  -2 -11  108.71    1.81
   3   2  11  107.18    1.74
   3   2  11  109.06    1.65
  -4  -2 -11    5.83    0.16
  -4  -2 -11    5.57    0.17
  -4  -2 -11    5.77    0.18
  -4  -2 -11    5.72    0.18
   4   2  11    5.80    0.14
   4   2  11    5.37    0.17
  -5  -2 -11   11.30    0.29
  -5  -2 -11   11.31    0.28
  -5  -2 -11   11.30    0.26
  -5  -2 -11   11.36    0.28
   5   2  11   11.55    0.28
   5   2  11   11.31    0.24
  -6  -2 -11    0.79    0.06
  -6  -2 -11    0.86    0.09
  -6  -2 -11    0.74    0.08
  -6  -2 -11    0.83    0.09
   6   2  11    0.88    0.08
   6   2  11    0.76    0.07
  -7  -2 -11    0.87    0.10
  -7  -2 -11    0.77    0.09
  -7  -2 -11    0.71    0.06
  -7  -2 -11    0.70    0.09
   7   2  11    0.72    0.07
   7   2  11    0.65    0.08
  -8  -2 -11    0.83    0.10
  -8  -2 -11    0.85    0.05
  -8  -2 -11    0.81    0.10
   8   2  11    0.73    0.07
   8   2  11    0.80    0.09
   7  -3 -11    1.52    0.09
  -7   3  11    1.68    0.09
   6  -3 -11    6.78    0.18
   6  -3 -11    6.58    0.22
  -6   3  11    6.94    0.20
  -6   3  11    7.11    0.23
   5  -3 -11    1.36    0.08
   5  -3 -11    1.50    0.10
  -5   3  11    1.61    0.11
  -5   3  11    1.39    0.11
  -5   3  11    1.47    0.09
   4  -3 -11    8.84    0.24
   4  -3 -11    8.83    0.20
  -4   3  11    8.62    0.25
  -4   3  11    8.75    0.23
  -4   3  11    8.85    0.25
   3  -3 -11   11.97    0.25
   3  -3 -11   11.99    0.29
   3  -3 -11   12.68    0.30
  -3   3  11   12.12    0.29
  -3   3  11   12.02    0.30
  -3   3  11   12.66    0.31
   2  -3 -11   58.40    1.03
   2  -3 -11   56.69    0.98
   2  -3 -11   56.78    0.91
  -2   3  11   56.45    1.04
  -2   3  11   57.22    1.00
  -2   3  11   55.70    1.02
   1  -3 -11    1.93    0.10
   1  -3 -11    1.87    0.10
   1  -3 -11    1.91    0.10
   1  -3 -11    1.83    0.07
   1  -3 -11    1.91    0.09
  -1   3  11    1.91    0.10
  -1   3  11    1.75    0.09
  -1   3  11    1.90    0.07
  -1   3  11    1.93    0.10
   0  -3 -11   58.16    1.03
   0  -3 -11   55.27    1.00
   0  -3 -11   57.97    0.91
   0  -3 -11   58.72    0.99
   0  -3 -11   57.92    0.98
   0   3  11   56.19    0.98
   0   3  11   58.23    0.91
   0   3  11   58.72    1.03
   0   3  11   59.15    1.01
  -1  -3 -11    2.42    0.10
  -1  -3 -11    2.41    0.11
  -1  -3 -11    2.45    0.10
  -1  -3 -11    2.32    0.11
  -1  -3 -11    2.39    0.08
   1   3  11    2.55    0.11
   1   3  11    2.34    0.10
   1   3  11    2.32    0.08
   1   3  11    2.45    0.11
  -2  -3 -11   25.97    0.52
  -2  -3 -11   26.13    0.50
  -2  -3 -11   26.40    0.49
  -2  -3 -11   24.93    0.50
  -2  -3 -11   26.26    0.43
   2   3  11   26.01    0.51
   2   3  11   25.78    0.45
   2   3  11   25.64    0.49
  -3  -3 -11    1.31    0.09
  -3  -3 -11    1.17    0.08
  -3  -3 -11    1.32    0.09
  -3  -3 -11    1.25    0.09
   3   3  11    1.41    0.09
   3   3  11    1.38    0.07
   3   3  11    1.45    0.09
  -4  -3 -11    4.30    0.16
  -4  -3 -11    4.13    0.14
  -4  -3 -11    4.28    0.15
  -4  -3 -11    4.20    0.15
   4   3  11    4.24    0.15
   4   3  11    4.07    0.12
  -5  -3 -11    0.12    0.05
  -5  -3 -11    0.16    0.06
  -5  -3 -11    0.10    0.05
  -5  -3 -11    0.19    0.05
   5   3  11    0.10    0.04
   5   3  11    0.19    0.05
  -6  -3 -11    0.17    0.06
  -6  -3 -11    0.23    0.06
  -6  -3 -11    0.08    0.05
  -6  -3 -11    0.03    0.04
   6   3  11    0.19    0.05
   6   3  11    0.10    0.04
  -7  -3 -11    0.82    0.08
  -7  -3 -11    0.99    0.10
  -7  -3 -11    0.78    0.09
  -7  -3 -11    1.02    0.10
   7   3  11    0.73    0.09
   7   3  11    0.76    0.07
  -8  -3 -11   -0.04    0.04
   8   3  11   -0.03    0.04
   8   3  11   -0.07    0.05
   7  -4 -11    1.27    0.09
   7  -4 -11    1.29    0.11
  -7   4  11    1.16    0.07
  -7   4  11    1.28    0.13
   6  -4 -11    3.58    0.13
   6  -4 -11    3.63    0.16
  -6   4  11    3.81    0.17
  -6   4  11    3.56    0.13
  -6   4  11    3.59    0.17
   5  -4 -11    0.63    0.08
   5  -4 -11    0.65    0.06
  -5   4  11    0.57    0.06
  -5   4  11    0.62    0.08
  -5   4  11    0.45    0.08
   4  -4 -11    1.47    0.10
   4  -4 -11    1.27    0.08
  -4   4  11    1.23    0.10
  -4   4  11    1.23    0.10
  -4   4  11    1.35    0.08
   3  -4 -11    0.71    0.08
   3  -4 -11    0.76    0.06
  -3   4  11    0.70    0.08
  -3   4  11    0.68    0.07
  -3   4  11    0.85    0.08
   2  -4 -11    8.94    0.23
   2  -4 -11    9.05    0.20
  -2   4  11    8.90    0.23
  -2   4  11    9.28    0.25
  -2   4  11    9.33    0.24
   1  -4 -11   12.22    0.24
   1  -4 -11   12.21    0.29
   1  -4 -11   12.67    0.28
  -1   4  11   11.99    0.28
  -1   4  11   12.06    0.29
   0  -4 -11   18.59    0.34
   0  -4 -11   19.07    0.40
   0  -4 -11   18.51    0.38
   0   4  11   18.95    0.40
   0   4  11   18.69    0.40
   0   4  11   19.82    0.33
  -1  -4 -11    1.50    0.09
  -1  -4 -11    1.55    0.09
  -1  -4 -11    1.46    0.07
  -1  -4 -11    1.53    0.09
  -1  -4 -11    1.75    0.09
   1   4  11    1.31    0.09
   1   4  11    1.54    0.06
   1   4  11    1.48    0.09
  -2  -4 -11   27.77    0.55
  -2  -4 -11   27.87    0.54
  -2  -4 -11   27.61    0.52
  -2  -4 -11   27.47    0.47
  -2  -4 -11   27.46    0.54
  -2  -4 -11   27.09    0.52
   2   4  11   28.44    0.53
   2   4  11   26.84    0.53
   2   4  11   27.34    0.54
   2   4  11   28.11    0.47
  -3  -4 -11    3.65    0.14
  -3  -4 -11    3.66    0.11
  -3  -4 -11    3.55    0.14
  -3  -4 -11    3.50    0.14
  -3  -4 -11    3.65    0.14
   3   4  11    3.59    0.13
   3   4  11    3.80    0.11
   3   4  11    3.77    0.14
  -4  -4 -11   26.97    0.55
  -4  -4 -11   25.31    0.53
  -4  -4 -11   26.24    0.52
  -4  -4 -11   26.77    0.53
   4   4  11   26.13    0.46
   4   4  11   26.71    0.52
   4   4  11   25.64    0.53
  -5  -4 -11    0.54    0.07
  -5  -4 -11    0.44    0.07
   5   4  11    0.52    0.05
   5   4  11    0.53    0.07
  -6  -4 -11    6.90    0.21
   6   4  11    7.14    0.18
  -7  -4 -11    0.96    0.09
   7   4  11    0.95    0.07
  -8  -4 -11    0.82    0.09
   8   4  11    0.71    0.07
   6  -5 -11    4.20    0.14
   6  -5 -11    4.10    0.17
  -6   5  11    4.19    0.18
   5  -5 -11    1.17    0.10
   5  -5 -11    1.15    0.08
  -5   5  11    0.95    0.11
  -5   5  11    1.23    0.06
  -5   5  11    1.14    0.10
   4  -5 -11    6.82    0.18
   4  -5 -11    7.16    0.22
  -4   5  11    6.92    0.22
  -4   5  11    6.82    0.18
  -4   5  11    7.24    0.23
   3  -5 -11   16.75    0.32
   3  -5 -11   16.48    0.37
  -3   5  11   16.63    0.38
  -3   5  11   16.96    0.35
  -3   5  11   16.47    0.39
   2  -5 -11   38.26    0.65
   2  -5 -11   39.61    0.71
  -2   5  11   38.55    0.71
  -2   5  11   38.62    0.73
  -2   5  11   38.81    0.75
   1  -5 -11   14.18    0.28
   1  -5 -11   14.65    0.32
  -1   5  11   14.03    0.33
  -1   5  11   14.82    0.32
   0  -5 -11   20.92    0.38
   0  -5 -11   21.02    0.43
   0   5  11   20.58    0.43
   0   5  11   21.66    0.44
  -1  -5 -11    5.72    0.15
  -1  -5 -11    6.25    0.18
  -1  -5 -11    6.09    0.18
   1   5  11    6.03    0.18
   1   5  11    5.91    0.18
  -2  -5 -11    1.00    0.07
  -2  -5 -11    1.02    0.08
  -2  -5 -11    1.05    0.08
   2   5  11    1.02    0.08
   2   5  11    1.08    0.06
   2   5  11    1.24    0.09
  -3  -5 -11    1.99    0.09
  -3  -5 -11    2.02    0.11
   3   5  11    1.96    0.08
   3   5  11    1.84    0.10
  -4  -5 -11   14.93    0.36
  -4  -5 -11   15.71    0.30
   4   5  11   15.28    0.35
   4   5  11   15.85    0.30
  -5  -5 -11    0.10    0.05
   5   5  11    0.20    0.05
   5   5  11    0.16    0.04
  -6  -5 -11    4.52    0.18
   6   5  11    4.90    0.14
  -7  -5 -11    0.03    0.05
   7   5  11   -0.04    0.03
  -8  -5 -11    4.61    0.18
   8   5  11    4.43    0.15
   6  -6 -11   -0.01    0.04
   6  -6 -11    0.04    0.05
   5  -6 -11    6.47    0.18
   5  -6 -11    7.04    0.22
  -5   6  11    6.80    0.23
   4  -6 -11    1.01    0.09
   4  -6 -11    0.93    0.07
  -4   6  11    0.91    0.10
  -4   6  11    0.97    0.04
  -4   6  11    0.94    0.09
   3  -6 -11    1.21    0.07
   3  -6 -11    1.15    0.09
  -3   6  11    1.25    0.10
  -3   6  11    1.12    0.09
  -3   6  11    1.21    0.06
   2  -6 -11    7.86    0.18
   2  -6 -11    7.68    0.22
  -2   6  11    7.58    0.22
  -2   6  11    7.70    0.19
   1  -6 -11    1.14    0.09
   1  -6 -11    1.13    0.07
  -1   6  11    0.85    0.08
  -1   6  11    1.01    0.07
   0  -6 -11    2.96    0.13
   0  -6 -11    3.19    0.11
   0   6  11    3.21    0.12
   0   6  11    3.31    0.14
  -1  -6 -11    0.09    0.04
  -1  -6 -11    0.14    0.05
   1   6  11    0.13    0.05
   1   6  11    0.16    0.05
  -2  -6 -11    4.67    0.16
  -2  -6 -11    4.66    0.13
   2   6  11    4.87    0.17
   2   6  11    4.41    0.15
  -3  -6 -11    1.34    0.07
  -3  -6 -11    1.11    0.09
   3   6  11    1.07    0.08
  -4  -6 -11    1.77    0.11
  -4  -6 -11    1.94    0.09
   4   6  11    2.04    0.11
  -5  -6 -11    8.27    0.25
   5   6  11    7.64    0.23
  -6  -6 -11    2.34    0.13
   6   6  11    2.19    0.12
  -7  -6 -11    3.13    0.16
   5  -7 -11    3.74    0.16
   5  -7 -11    3.57    0.13
   4  -7 -11    0.21    0.06
   4  -7 -11    0.18    0.05
  -4   7  11    0.15    0.06
   3  -7 -11   14.69    0.35
   3  -7 -11   14.94    0.31
  -3   7  11   15.31    0.38
  -3   7  11   15.68    0.37
   2  -7 -11    1.38    0.07
   2  -7 -11    1.33    0.10
  -2   7  11    1.61    0.11
  -2   7  11    1.35    0.05
   1  -7 -11    6.04    0.16
   1  -7 -11    6.05    0.19
  -1   7  11    6.04    0.20
  -1   7  11    6.19    0.15
   0  -7 -11    2.68    0.10
   0  -7 -11    2.70    0.13
   0   7  11    2.84    0.13
   0   7  11    2.69    0.10
  -1  -7 -11   -0.03    0.04
  -1  -7 -11   -0.09    0.04
   1   7  11   -0.02    0.05
   1   7  11   -0.01    0.03
  -2  -7 -11    0.06    0.04
  -2  -7 -11    0.00    0.05
   2   7  11    0.00    0.04
   2   7  11    0.09    0.05
  -3  -7 -11    0.32    0.05
   3   7  11    0.24    0.05
   3   7  11    0.21    0.06
  -4  -7 -11    0.11    0.04
   4   7  11    0.02    0.04
  -5  -7 -11    1.15    0.08
   5   7  11    0.91    0.09
  -6  -7 -11   -0.05    0.05
   6   7  11   -0.01    0.05
  -7  -7 -11    3.96    0.18
   7   7  11    3.86    0.17
   4  -8 -11    4.21    0.14
   4  -8 -11    3.93    0.17
   3  -8 -11    1.69    0.09
   3  -8 -11    1.52    0.11
  -3   8  11    1.63    0.12
   2  -8 -11    3.46    0.15
   2  -8 -11    3.46    0.12
  -2   8  11    3.38    0.15
   1  -8 -11    0.11    0.04
   1  -8 -11    0.09    0.05
  -1   8  11    0.10    0.05
   0  -8 -11    3.74    0.15
   0  -8 -11    3.36    0.12
   0   8  11    3.59    0.15
   0   8  11    3.48    0.10
  -1  -8 -11   13.28    0.28
  -1  -8 -11   13.32    0.33
   1   8  11   13.63    0.29
   1   8  11   13.71    0.34
  -2  -8 -11    4.45    0.17
  -2  -8 -11    4.35    0.14
   2   8  11    4.54    0.18
   2   8  11    4.32    0.14
   2   8  11    4.25    0.17
  -3  -8 -11    5.46    0.16
   3   8  11    5.50    0.20
   3   8  11    5.53    0.17
  -4  -8 -11    3.88    0.14
   4   8  11    3.94    0.15
  -5  -8 -11    1.89    0.10
   5   8  11    1.83    0.11
   6   8  11    9.46    0.28
   3  -9 -11    0.43    0.06
   3  -9 -11    0.65    0.09
   2  -9 -11    5.65    0.16
   2  -9 -11    5.13    0.19
   1  -9 -11    1.59    0.09
   1  -9 -11    1.44    0.10
  -1   9  11    1.45    0.12
   0  -9 -11    8.30    0.24
   0  -9 -11    8.03    0.20
   0   9  11    8.34    0.25
  -1  -9 -11    2.13    0.12
  -1  -9 -11    2.10    0.10
   1   9  11    2.07    0.12
  -2  -9 -11    2.31    0.13
  -2  -9 -11    2.11    0.11
   2   9  11    2.02    0.13
   2   9  11    2.17    0.09
  -3  -9 -11    2.78    0.12
   3   9  11    3.01    0.15
   3   9  11    2.70    0.11
  -4  -9 -11    5.74    0.18
   4   9  11    5.54    0.18
  -5  -9 -11    0.76    0.08
   5   9  11    0.65    0.08
   0 -10 -11    0.03    0.05
   0 -10 -11    0.02    0.05
  -1 -10 -11    0.03    0.05
  -1 -10 -11    0.00    0.05
  -2 -10 -11    7.49    0.21
  -3 -10 -11    0.24    0.07
  -3 -10 -11    0.16    0.06
   3  10  11    0.16    0.03
  -3  -7  12    0.62    0.07
  -3  -7  12    0.72    0.09
  -2  -7  12    1.22    0.09
  -1  -7  12    1.52    0.09
   0  -7  12    1.05    0.08
   1  -7  12    3.42    0.11
   5   6 -12    3.44    0.17
  -5  -6  12    3.12    0.13
  -5  -6  12    3.07    0.16
   4   6 -12   12.24    0.32
  -4  -6  12   12.35    0.28
  -4  -6  12   12.38    0.32
   3   6 -12    1.21    0.10
  -3  -6  12    1.20    0.09
   2   6 -12    2.57    0.12
   2   6 -12    2.69    0.13
  -2  -6  12    2.48    0.12
   1   6 -12    0.04    0.05
   1   6 -12    0.10    0.05
  -1  -6  12    0.10    0.04
   0   6 -12    3.20    0.12
   0   6 -12    3.14    0.12
   0  -6  12    3.19    0.12
  -1   6 -12    3.02    0.11
  -1   6 -12    3.11    0.11
   1  -6  12    2.86    0.10
  -2   6 -12    0.31    0.05
   2  -6  12    0.32    0.04
   3  -6  12    0.85    0.05
   6   5 -12    0.04    0.04
  -6  -5  12   -0.04    0.05
   5   5 -12    7.91    0.25
   5   5 -12    7.42    0.25
   5   5 -12    7.42    0.18
  -5  -5  12    8.03    0.25
  -5  -5  12    7.39    0.21
   4   5 -12    0.18    0.06
   4   5 -12    0.24    0.07
  -4  -5  12    0.23    0.06
  -4  -5  12    0.21    0.06
   3   5 -12    2.06    0.12
   3   5 -12    2.05    0.11
  -3  -5  12    1.96    0.09
  -3  -5  12    2.01    0.11
   2   5 -12    0.73    0.08
   2   5 -12    0.83    0.08
  -2  -5  12    0.71    0.07
  -2  -5  12    0.80    0.06
   1   5 -12    1.34    0.09
   1   5 -12    1.50    0.09
  -1  -5  12    1.20    0.08
   0   5 -12    1.54    0.08
   0   5 -12    1.58    0.09
   0  -5  12    1.65    0.09
  -1   5 -12    2.70    0.10
  -1   5 -12    2.91    0.11
   1  -5  12    2.67    0.10
  -2   5 -12    3.22    0.11
  -2   5 -12    3.28    0.11
   2  -5  12    3.49    0.11
  -3   5 -12    0.48    0.05
  -3   5 -12    0.60    0.05
   3  -5  12    0.56    0.05
  -4   5 -12    3.56    0.12
   4  -5  12    3.37    0.10
   6   4 -12   12.23    0.31
  -6  -4  12   12.52    0.29
   5   4 -12    1.80    0.12
   5   4 -12    1.64    0.12
   5   4 -12    1.68    0.09
  -5  -4  12    1.79    0.12
  -5  -4  12    1.68    0.10
   4   4 -12    4.49    0.17
   4   4 -12    4.25    0.17
   4   4 -12    4.64    0.13
  -4  -4  12    4.36    0.14
  -4  -4  12    4.50    0.17
   3   4 -12    8.36    0.24
   3   4 -12    8.19    0.24
  -3  -4  12    8.76    0.24
  -3  -4  12    8.31    0.20
   2   4 -12    0.52    0.07
   2   4 -12    0.70    0.08
  -2  -4  12    0.65    0.07
  -2  -4  12    0.68    0.06
   1   4 -12    7.48    0.20
   1   4 -12    7.63    0.20
  -1  -4  12    7.70    0.20
   0   4 -12    5.36    0.16
   0   4 -12    5.33    0.16
   0  -4  12    5.38    0.15
  -1   4 -12    0.06    0.04
  -1   4 -12   -0.01    0.03
   1  -4  12    0.03    0.03
  -2   4 -12    2.12    0.09
  -2   4 -12    2.23    0.09
   2  -4  12    2.23    0.09
  -3   4 -12    0.77    0.06
  -3   4 -12    0.58    0.06
   3  -4  12    0.70    0.06
  -4   4 -12   12.86    0.28
  -4   4 -12   13.32    0.28
   4  -4  12   12.98    0.27
  -5   4 -12    0.12    0.05
   5  -4  12    0.16    0.04
   7   3 -12    2.49    0.14
   6   3 -12    6.23    0.20
  -6  -3  12    6.10    0.18
   5   3 -12    8.07    0.25
   5   3 -12    7.64    0.22
  -5  -3  12    7.55    0.20
  -5  -3  12    7.85    0.24
   4   3 -12    0.09    0.05
   4   3 -12    0.10    0.06
   4   3 -12    0.10    0.04
  -4  -3  12    0.17    0.05
  -4  -3  12    0.10    0.05
   3   3 -12    0.02    0.05
   3   3 -12    0.02    0.05
   3   3 -12   -0.04    0.03
  -3  -3  12    0.11    0.05
  -3  -3  12   -0.01    0.04
   2   3 -12   10.89    0.27
   2   3 -12   11.24    0.27
   2   3 -12   10.95    0.21
  -2  -3  12   10.97    0.27
  -2  -3  12   11.10    0.23
   1   3 -12    6.37    0.18
   1   3 -12    6.25    0.18
  -1  -3  12    6.45    0.15
  -1  -3  12    6.31    0.18
   0   3 -12   10.54    0.24
   0   3 -12   10.21    0.24
   0  -3  12   10.34    0.24
  -1   3 -12   20.88    0.40
  -1   3 -12   21.09    0.41
   1  -3  12   21.03    0.40
  -2   3 -12    2.92    0.11
  -2   3 -12    2.54    0.10
   2  -3  12    2.69    0.10
  -3   3 -12    5.37    0.15
  -3   3 -12    5.64    0.15
   3  -3  12    5.42    0.15
  -4   3 -12    0.42    0.05
  -4   3 -12    0.37    0.05
   4  -3  12    0.45    0.05
  -5   3 -12    2.66    0.11
  -5   3 -12    2.80    0.11
   5  -3  12    2.77    0.11
   6  -3  12    0.19    0.05
   7   2 -12   10.18    0.29
   6   2 -12    0.29    0.06
  -6  -2  12    0.33    0.05
   5   2 -12    1.40    0.10
  -5  -2  12    1.58    0.09
   4   2 -12    1.33    0.10
   4   2 -12    1.43    0.09
   4   2 -12    1.32    0.10
  -4  -2  12    1.36    0.08
  -4  -2  12    1.31    0.10
   3   2 -12    7.04    0.21
   3   2 -12    6.78    0.21
   3   2 -12    7.08    0.19
  -3  -2  12    6.78    0.17
  -3  -2  12    7.33    0.21
   2   2 -12    7.15    0.20
   2   2 -12    7.12    0.20
   2   2 -12    7.11    0.17
  -2  -2  12    7.04    0.20
  -2  -2  12    6.74    0.17
   1   2 -12    1.75    0.09
   1   2 -12    1.75    0.06
   1   2 -12    1.83    0.10
  -1  -2  12    1.89    0.07
  -1  -2  12    1.82    0.09
   0   2 -12   19.80    0.40
   0   2 -12   19.70    0.39
   0  -2  12   19.98    0.39
   0  -2  12   20.44    0.34
  -1   2 -12    0.37    0.05
  -1   2 -12    0.35    0.05
   1  -2  12    0.40    0.04
   1  -2  12    0.37    0.05
  -2   2 -12    9.43    0.22
  -2   2 -12    9.53    0.22
   2  -2  12    9.60    0.22
  -3   2 -12   12.43    0.27
  -3   2 -12   12.45    0.27
   3  -2  12   12.51    0.27
  -4   2 -12    1.37    0.08
  -4   2 -12    1.56    0.09
  -4   2 -12    1.36    0.08
   4  -2  12    1.41    0.08
  -5   2 -12    3.59    0.13
  -5   2 -12    3.59    0.13
   5  -2  12    3.73    0.13
  -6   2 -12    0.86    0.08
   6  -2  12    1.05    0.08
   7  -2  12   11.50    0.28
   7   1 -12    1.05    0.10
  -7  -1  12    1.49    0.12
   6   1 -12    4.30    0.17
  -6  -1  12    4.42    0.18
   5   1 -12    0.25    0.06
  -5  -1  12    0.17    0.04
  -5  -1  12    0.26    0.06
   4   1 -12   14.69    0.34
   4   1 -12   15.06    0.35
   4   1 -12   15.06    0.36
  -4  -1  12   14.15    0.29
  -4  -1  12   14.94    0.34
   3   1 -12   63.35    1.11
   3   1 -12   63.78    1.09
   3   1 -12   62.42    1.12
  -3  -1  12   62.98    1.09
  -3  -1  12   62.03    1.01
   2   1 -12    0.59    0.06
   2   1 -12    0.66    0.07
   2   1 -12    0.63    0.07
  -2  -1  12    0.67    0.07
  -2  -1  12    0.69    0.06
   1   1 -12    1.47    0.07
   1   1 -12    1.41    0.09
   1   1 -12    1.48    0.09
  -1  -1  12    1.51    0.09
  -1  -1  12    1.42    0.07
   0   1 -12    0.81    0.05
   0   1 -12    0.69    0.07
   0   1 -12    0.76    0.07
   0  -1  12    0.80    0.07
   0  -1  12    0.67    0.05
  -1   1 -12    3.27    0.12
  -1   1 -12    3.48    0.12
   1  -1  12    3.57    0.09
   1  -1  12    3.47    0.12
  -2   1 -12   33.91    0.61
  -2   1 -12   33.72    0.62
   2  -1  12   34.63    0.55
   2  -1  12   33.81    0.61
  -3   1 -12   46.04    0.79
  -3   1 -12   44.83    0.80
   3  -1  12   44.30    0.78
  -4   1 -12    2.04    0.10
  -4   1 -12    2.04    0.10
  -4   1 -12    2.17    0.10
   4  -1  12    2.16    0.07
   4  -1  12    2.02    0.10
  -5   1 -12    2.34    0.12
  -5   1 -12    2.33    0.11
  -5   1 -12    2.33    0.11
   5  -1  12    2.37    0.08
   5  -1  12    2.28    0.10
  -6   1 -12    3.24    0.14
  -6   1 -12    3.60    0.14
   6  -1  12    3.51    0.11
   6  -1  12    3.45    0.14
  -7   1 -12    1.33    0.11
   7  -1  12    1.37    0.08
   7  -1  12    0.97    0.09
   7   0 -12    0.76    0.09
  -7   0  12    0.70    0.09
   6   0 -12   10.21    0.29
  -6   0  12    9.94    0.29
   5   0 -12    0.44    0.07
  -5   0  12    0.58    0.06
  -5   0  12    0.44    0.08
   4   0 -12    2.63    0.12
  -4   0  12    2.49    0.13
  -4   0  12    2.58    0.10
   3   0 -12    0.19    0.06
   3   0 -12    0.07    0.04
   3   0 -12    0.13    0.05
  -3   0  12    0.15    0.04
  -3   0  12    0.06    0.05
  -3   0  12    0.11    0.05
   2   0 -12    2.10    0.11
   2   0 -12    2.10    0.10
   2   0 -12    1.92    0.10
  -2   0  12    1.78    0.08
  -2   0  12    1.97    0.10
  -2   0  12    1.78    0.10
   1   0 -12    2.73    0.12
   1   0 -12    2.77    0.12
   1   0 -12    2.69    0.10
  -1   0  12    2.59    0.11
  -1   0  12    2.76    0.09
   0   0 -12    4.37    0.12
   0   0 -12    4.22    0.14
   0   0 -12    4.18    0.14
   0   0  12    4.32    0.14
   0   0  12    4.17    0.11
  -1   0 -12    2.95    0.11
  -1   0 -12    3.04    0.11
  -1   0 -12    3.04    0.09
   1   0  12    2.92    0.09
   1   0  12    3.04    0.11
  -2   0 -12    2.17    0.07
  -2   0 -12    2.27    0.10
  -2   0 -12    2.18    0.10
   2   0  12    2.09    0.08
   2   0  12    2.16    0.10
  -3   0 -12   22.02    0.44
  -3   0 -12   21.65    0.43
   3   0  12   22.63    0.38
   3   0  12   21.69    0.43
  -4   0 -12   17.86    0.38
  -4   0 -12   17.61    0.37
  -4   0 -12   17.81    0.39
   4   0  12   17.53    0.32
   4   0  12   17.76    0.37
  -5   0 -12    0.15    0.05
  -5   0 -12    0.30    0.06
  -5   0 -12    0.25    0.06
   5   0  12    0.29    0.04
   5   0  12    0.31    0.05
  -6   0 -12   16.17    0.37
  -6   0 -12   16.57    0.37
   6   0  12   16.01    0.36
   6   0  12   16.08    0.32
  -7   0 -12    5.26    0.19
   7   0  12    5.12    0.15
   7   0  12    5.26    0.18
   7  -1 -12    1.09    0.08
  -7   1  12    1.12    0.10
   6  -1 -12    3.46    0.12
  -6   1  12    3.34    0.15
   5  -1 -12    0.49    0.07
   5  -1 -12    0.57    0.06
  -5   1  12    0.57    0.08
   4  -1 -12    0.10    0.03
   4  -1 -12    0.03    0.05
  -4   1  12    0.10    0.05
  -4   1  12    0.05    0.03
   3  -1 -12    2.54    0.12
   3  -1 -12    2.49    0.09
  -3   1  12    2.39    0.12
  -3   1  12    2.47    0.09
   2  -1 -12    1.22    0.06
   2  -1 -12    1.26    0.09
   2  -1 -12    1.15    0.09
   2  -1 -12    1.26    0.08
  -2   1  12    1.11    0.07
  -2   1  12    1.33    0.09
  -2   1  12    1.19    0.09
   1  -1 -12    0.07    0.04
   1  -1 -12    0.06    0.04
   1  -1 -12    0.04    0.04
  -1   1  12    0.03    0.04
  -1   1  12    0.04    0.04
  -1   1  12    0.04    0.03
   0  -1 -12   14.99    0.32
   0  -1 -12   14.78    0.31
   0  -1 -12   14.33    0.31
   0   1  12   15.19    0.33
   0   1  12   14.77    0.32
   0   1  12   14.63    0.28
  -1  -1 -12    3.80    0.13
  -1  -1 -12    3.94    0.12
  -1  -1 -12    3.59    0.13
   1   1  12    3.67    0.13
   1   1  12    3.68    0.11
  -2  -1 -12   61.41    1.05
  -2  -1 -12   58.98    1.03
  -2  -1 -12   60.89    1.05
   2   1  12   60.55    0.96
   2   1  12   61.06    1.03
  -3  -1 -12   10.03    0.25
  -3  -1 -12   10.45    0.22
  -3  -1 -12   10.07    0.24
   3   1  12   10.11    0.24
   3   1  12   10.32    0.21
  -4  -1 -12   -0.01    0.04
  -4  -1 -12   -0.02    0.04
  -4  -1 -12   -0.06    0.04
  -4  -1 -12    0.00    0.03
   4   1  12   -0.02    0.03
   4   1  12   -0.05    0.04
  -5  -1 -12    3.76    0.14
  -5  -1 -12    3.76    0.15
  -5  -1 -12    3.97    0.16
  -5  -1 -12    4.02    0.10
   5   1  12    4.06    0.15
   5   1  12    3.79    0.12
  -6  -1 -12    1.46    0.10
  -6  -1 -12    1.60    0.11
  -6  -1 -12    1.72    0.11
   6   1  12    1.65    0.08
   6   1  12    1.60    0.10
  -7  -1 -12    2.42    0.13
  -7  -1 -12    2.45    0.14
   7   1  12    2.34    0.10
   7   1  12    2.23    0.12
   8   1  12    3.64    0.13
   8   1  12    3.59    0.16
   7  -2 -12    1.12    0.08
  -7   2  12    0.98    0.09
   6  -2 -12    0.15    0.05
  -6   2  12    0.05    0.05
   5  -2 -12    8.80    0.21
  -5   2  12    8.48    0.24
   4  -2 -12    8.17    0.23
   4  -2 -12    8.20    0.19
  -4   2  12    7.98    0.23
   3  -2 -12   28.04    0.48
   3  -2 -12   28.83    0.57
  -3   2  12   27.11    0.56
  -3   2  12   28.25    0.48
   2  -2 -12    4.40    0.15
   2  -2 -12    4.38    0.15
   2  -2 -12    4.28    0.15
   2  -2 -12    4.19    0.11
  -2   2  12    4.06    0.15
  -2   2  12    4.16    0.12
  -2   2  12    4.11    0.15
  -2   2  12    4.14    0.15
  -2   2  12    4.35    0.15
   1  -2 -12    3.77    0.13
   1  -2 -12    3.82    0.13
   1  -2 -12    3.75    0.10
   1  -2 -12    3.81    0.14
  -1   2  12    3.53    0.13
  -1   2  12    3.47    0.11
  -1   2  12    3.68    0.14
  -1   2  12    3.54    0.13
   0  -2 -12   12.37    0.22
   0  -2 -12   12.16    0.28
   0  -2 -12   11.94    0.27
   0  -2 -12   11.81    0.27
   0   2  12   12.07    0.24
   0   2  12   11.34    0.28
   0   2  12   12.03    0.27
  -1  -2 -12    1.44    0.08
  -1  -2 -12    1.60    0.09
  -1  -2 -12    1.68    0.09
   1   2  12    1.44    0.07
   1   2  12    1.47    0.09
   1   2  12    1.62    0.09
  -2  -2 -12   30.24    0.57
  -2  -2 -12   30.50    0.57
  -2  -2 -12   29.96    0.58
   2   2  12   30.12    0.56
   2   2  12   30.87    0.52
  -3  -2 -12    6.56    0.20
  -3  -2 -12    6.54    0.19
  -3  -2 -12    7.12    0.20
  -3  -2 -12    7.23    0.19
   3   2  12    7.03    0.16
   3   2  12    7.20    0.19
  -4  -2 -12    4.03    0.15
  -4  -2 -12    4.10    0.13
  -4  -2 -12    4.04    0.15
  -4  -2 -12    4.21    0.15
   4   2  12    4.03    0.14
   4   2  12    4.26    0.12
  -5  -2 -12    2.07    0.11
  -5  -2 -12    2.16    0.12
  -5  -2 -12    2.18    0.09
  -5  -2 -12    2.15    0.12
   5   2  12    1.99    0.11
   5   2  12    1.97    0.09
  -6  -2 -12    0.36    0.05
  -6  -2 -12    0.33    0.06
  -6  -2 -12    0.31    0.07
  -6  -2 -12    0.35    0.07
   6   2  12    0.43    0.05
   6   2  12    0.33    0.06
  -7  -2 -12   15.34    0.38
  -7  -2 -12   14.77    0.30
  -7  -2 -12   15.13    0.36
   7   2  12   14.52    0.36
  -8  -2 -12    3.03    0.16
   8   2  12    2.71    0.14
   8   2  12    2.84    0.12
   7  -3 -12    5.33    0.17
  -7   3  12    5.74    0.18
   6  -3 -12    1.21    0.08
  -6   3  12    1.31    0.09
   5  -3 -12    0.19    0.04
   5  -3 -12    0.17    0.06
  -5   3  12    0.15    0.06
  -5   3  12    0.10    0.05
   4  -3 -12    8.08    0.19
   4  -3 -12    8.26    0.23
  -4   3  12    8.18    0.24
  -4   3  12    7.58    0.22
  -4   3  12    8.51    0.25
   3  -3 -12    1.74    0.10
   3  -3 -12    1.94    0.11
   3  -3 -12    1.90    0.08
  -3   3  12    1.90    0.11
  -3   3  12    1.86    0.11
  -3   3  12    2.00    0.10
   2  -3 -12    0.98    0.08
   2  -3 -12    0.87    0.06
   2  -3 -12    0.81    0.08
  -2   3  12    0.99    0.08
  -2   3  12    0.75    0.07
  -2   3  12    0.90    0.05
  -2   3  12    0.89    0.08
   1  -3 -12   12.40    0.29
   1  -3 -12   12.80    0.29
   1  -3 -12   12.84    0.25
  -1   3  12   13.11    0.30
  -1   3  12   12.57    0.24
  -1   3  12   12.34    0.29
   0  -3 -12    8.57    0.18
   0  -3 -12    9.00    0.23
   0  -3 -12    8.43    0.22
   0  -3 -12    8.60    0.22
   0  -3 -12    8.48    0.22
   0   3  12    8.64    0.22
   0   3  12    8.54    0.18
   0   3  12    8.38    0.22
   0   3  12    8.99    0.23
  -1  -3 -12   53.64    0.84
  -1  -3 -12   50.40    0.95
  -1  -3 -12   54.20    0.92
  -1  -3 -12   52.58    0.94
   1   3  12   52.81    0.85
   1   3  12   52.87    0.96
   1   3  12   52.87    0.91
  -2  -3 -12    2.53    0.11
  -2  -3 -12    2.47    0.12
  -2  -3 -12    2.57    0.12
  -2  -3 -12    2.56    0.11
   2   3  12    2.50    0.09
   2   3  12    2.61    0.11
  -3  -3 -12    8.79    0.24
  -3  -3 -12    8.80    0.23
  -3  -3 -12    8.93    0.23
  -3  -3 -12    8.99    0.24
   3   3  12    8.85    0.20
   3   3  12    9.16    0.23
   3   3  12    9.21    0.24
  -4  -3 -12    0.44    0.07
  -4  -3 -12    0.50    0.07
  -4  -3 -12    0.56    0.07
  -4  -3 -12    0.47    0.06
   4   3  12    0.49    0.05
   4   3  12    0.55    0.07
  -5  -3 -12   16.19    0.37
  -5  -3 -12   16.05    0.35
  -5  -3 -12   15.77    0.38
  -5  -3 -12   16.33    0.37
   5   3  12   15.24    0.31
   5   3  12   16.17    0.36
  -6  -3 -12    4.70    0.16
  -6  -3 -12    5.01    0.18
  -6  -3 -12    4.76    0.18
  -6  -3 -12    4.96    0.19
   6   3  12    4.84    0.15
   6   3  12    5.00    0.18
  -7  -3 -12    2.04    0.13
  -7  -3 -12    1.79    0.12
  -7  -3 -12    1.72    0.09
   7   3  12    1.68    0.09
   7   3  12    1.58    0.11
  -8  -3 -12    1.09    0.08
   8   3  12    1.05    0.11
   8   3  12    1.17    0.09
   7  -4 -12    0.13    0.05
  -7   4  12    0.09    0.04
   6  -4 -12    0.94    0.10
   6  -4 -12    0.93    0.07
  -6   4  12    1.01    0.08
  -6   4  12    0.93    0.10
   5  -4 -12    0.71    0.08
   5  -4 -12    0.61    0.06
  -5   4  12    0.69    0.09
  -5   4  12    0.64    0.07
  -5   4  12    0.55    0.08
   4  -4 -12    2.16    0.10
   4  -4 -12    2.39    0.12
  -4   4  12    2.43    0.11
  -4   4  12    2.40    0.13
  -4   4  12    2.25    0.13
   3  -4 -12   -0.04    0.04
   3  -4 -12    0.05    0.03
  -3   4  12    0.05    0.05
  -3   4  12   -0.04    0.05
  -3   4  12    0.04    0.04
   2  -4 -12   17.45    0.33
   2  -4 -12   17.50    0.37
  -2   4  12   17.35    0.40
  -2   4  12   17.23    0.38
  -2   4  12   16.76    0.37
   1  -4 -12   10.78    0.26
   1  -4 -12   10.96    0.27
   1  -4 -12   10.95    0.22
  -1   4  12   10.86    0.27
  -1   4  12   10.34    0.26
   0  -4 -12   74.60    1.28
   0  -4 -12   76.49    1.19
   0  -4 -12   76.26    1.34
   0   4  12   76.72    1.18
   0   4  12   72.58    1.33
   0   4  12   77.91    1.31
  -1  -4 -12    1.90    0.10
  -1  -4 -12    2.10    0.08
  -1  -4 -12    1.83    0.10
   1   4  12    1.78    0.10
   1   4  12    1.89    0.10
   1   4  12    1.88    0.08
  -2  -4 -12   13.59    0.32
  -2  -4 -12   14.57    0.27
  -2  -4 -12   14.83    0.34
  -2  -4 -12   14.50    0.33
   2   4  12   14.21    0.32
   2   4  12   14.00    0.33
   2   4  12   14.36    0.27
  -3  -4 -12   14.18    0.32
  -3  -4 -12   14.18    0.34
  -3  -4 -12   13.51    0.32
  -3  -4 -12   13.60    0.32
   3   4  12   13.69    0.32
   3   4  12   13.41    0.32
   3   4  12   14.04    0.27
  -4  -4 -12    5.19    0.17
  -4  -4 -12    5.37    0.18
  -4  -4 -12    5.41    0.18
   4   4  12    5.29    0.18
   4   4  12    5.25    0.14
   4   4  12    5.43    0.18
  -5  -4 -12    1.41    0.10
   5   4  12    1.27    0.07
   5   4  12    1.32    0.09
  -6  -4 -12    3.97    0.15
   6   4  12    4.02    0.13
  -7  -4 -12    1.05    0.09
   7   4  12    0.89    0.07
  -8  -4 -12   18.61    0.42
   8   4  12   18.57    0.39
   6  -5 -12    8.00    0.21
   6  -5 -12    8.24    0.26
  -6   5  12    7.89    0.19
  -6   5  12    8.61    0.27
   5  -5 -12    4.56    0.18
   5  -5 -12    4.55    0.15
  -5   5  12    4.46    0.14
  -5   5  12    4.57    0.19
  -5   5  12    4.67    0.20
   4  -5 -12    0.12    0.04
   4  -5 -12    0.06    0.05
  -4   5  12    0.16    0.04
  -4   5  12    0.10    0.05
  -4   5  12    0.14    0.06
   3  -5 -12    0.84    0.08
   3  -5 -12    0.91    0.07
  -3   5  12    0.77    0.09
  -3   5  12    0.85    0.09
  -3   5  12    0.86    0.07
   2  -5 -12    6.31    0.19
   2  -5 -12    5.80    0.15
  -2   5  12    6.01    0.20
  -2   5  12    6.06    0.18
   1  -5 -12    2.49    0.10
   1  -5 -12    2.90    0.13
  -1   5  12    2.72    0.13
  -1   5  12    2.62    0.11
   0  -5 -12   38.26    0.70
   0  -5 -12   38.04    0.64
   0   5  12   37.55    0.71
   0   5  12   38.69    0.72
  -1  -5 -12    4.87    0.13
  -1  -5 -12    4.77    0.16
  -1  -5 -12    4.81    0.17
   1   5  12    4.96    0.17
   1   5  12    4.79    0.16
  -2  -5 -12   25.26    0.52
  -2  -5 -12   25.90    0.45
   2   5  12   26.11    0.44
   2   5  12   24.50    0.52
  -3  -5 -12    8.27    0.19
  -3  -5 -12    8.32    0.23
   3   5  12    8.32    0.18
   3   5  12    8.15    0.23
  -4  -5 -12    4.18    0.16
   4   5  12    4.29    0.12
   4   5  12    4.41    0.16
  -5  -5 -12    6.84    0.22
   5   5  12    6.76    0.21
   5   5  12    7.17    0.18
  -6  -5 -12    0.05    0.05
   6   5  12    0.06    0.04
  -7  -5 -12   -0.06    0.05
   7   5  12    0.06    0.04
   5  -6 -12    0.75    0.07
   5  -6 -12    0.71    0.09
  -5   6  12    0.64    0.10
   4  -6 -12    0.34    0.05
   4  -6 -12    0.27    0.06
  -4   6  12    0.33    0.07
  -4   6  12    0.28    0.07
  -4   6  12    0.24    0.04
   3  -6 -12    0.34    0.05
   3  -6 -12    0.41    0.07
  -3   6  12    0.45    0.07
  -3   6  12    0.36    0.05
  -3   6  12    0.44    0.07
   2  -6 -12    0.69    0.08
   2  -6 -12    0.60    0.06
  -2   6  12    0.62    0.06
  -2   6  12    0.73    0.08
   1  -6 -12   20.14    0.39
   1  -6 -12   21.31    0.44
  -1   6  12   20.72    0.43
  -1   6  12   21.69    0.46
   0  -6 -12    0.05    0.05
   0  -6 -12    0.10    0.04
   0   6  12    0.05    0.04
   0   6  12   -0.01    0.05
  -1  -6 -12    6.44    0.17
  -1  -6 -12    6.85    0.20
   1   6  12    6.76    0.21
   1   6  12    6.41    0.19
  -2  -6 -12    5.84    0.19
  -2  -6 -12    5.96    0.16
   2   6  12    5.72    0.18
   2   6  12    5.76    0.19
  -3  -6 -12    5.78    0.16
  -3  -6 -12    5.66    0.19
   3   6  12    5.32    0.17
  -4  -6 -12   26.94    0.48
  -4  -6 -12   26.75    0.56
   4   6  12   25.79    0.54
  -5  -6 -12    0.46    0.07
   5   6  12    0.52    0.07
  -6  -6 -12    3.15    0.16
   6   6  12    3.81    0.16
  -7  -6 -12   14.76    0.38
   5  -7 -12    5.65    0.17
   5  -7 -12    6.00    0.21
   4  -7 -12   -0.01    0.04
   4  -7 -12   -0.08    0.05
  -4   7  12   -0.04    0.06
   3  -7 -12    4.20    0.14
   3  -7 -12    4.09    0.17
  -3   7  12    4.38    0.18
   2  -7 -12    0.05    0.05
   2  -7 -12    0.25    0.05
  -2   7  12    0.13    0.03
  -2   7  12    0.19    0.06
   1  -7 -12    3.10    0.14
   1  -7 -12    3.13    0.11
  -1   7  12    3.13    0.11
  -1   7  12    3.25    0.14
   0  -7 -12    3.80    0.13
   0  -7 -12    3.71    0.15
   0   7  12    3.82    0.13
   0   7  12    3.75    0.16
  -1  -7 -12   11.13    0.28
  -1  -7 -12   11.09    0.24
   1   7  12   10.74    0.26
   1   7  12   11.31    0.29
  -2  -7 -12    0.09    0.05
  -2  -7 -12    0.22    0.05
   2   7  12    0.09    0.06
   2   7  12    0.26    0.05
  -3  -7 -12   14.44    0.30
   3   7  12   14.77    0.34
  -4  -7 -12    0.12    0.04
   4   7  12    0.01    0.04
  -5  -7 -12    9.56    0.28
   5   7  12    9.05    0.26
  -6  -7 -12    0.74    0.09
   6   7  12    0.82    0.09
  -7  -7 -12    1.99    0.14
   7   7  12    2.03    0.13
   4  -8 -12    0.39    0.06
   4  -8 -12    0.39    0.08
   3  -8 -12    0.65    0.07
   3  -8 -12    0.81    0.09
   2  -8 -12    1.95    0.09
   2  -8 -12    1.98    0.12
  -2   8  12    1.94    0.12
   1  -8 -12    1.57    0.10
   1  -8 -12    1.48    0.08
  -1   8  12    1.48    0.11
  -1   8  12    1.37    0.05
   0  -8 -12    0.47    0.07
   0  -8 -12    0.50    0.06
   0   8  12    0.46    0.07
   0   8  12    0.44    0.05
  -1  -8 -12    3.72    0.15
  -1  -8 -12    3.43    0.12
   1   8  12    3.84    0.16
   1   8  12    3.60    0.12
  -2  -8 -12    0.12    0.06
  -2  -8 -12    0.02    0.05
   2   8  12    0.07    0.04
   2   8  12    0.18    0.06
  -3  -8 -12    3.68    0.13
   3   8  12    3.85    0.14
  -4  -8 -12    0.17    0.05
   4   8  12    0.06    0.05
  -5  -8 -12    3.64    0.13
   5   8  12    3.42    0.15
   6   8  12    0.27    0.07
   2  -9 -12    2.82    0.14
   2  -9 -12    2.96    0.12
   1  -9 -12    2.17    0.10
   1  -9 -12    2.28    0.13
  -1   9  12    2.11    0.14
   0  -9 -12    5.49    0.20
   0  -9 -12    5.41    0.16
   0   9  12    5.75    0.21
  -1  -9 -12    0.96    0.10
  -1  -9 -12    0.81    0.08
   1   9  12    0.91    0.05
   1   9  12    0.84    0.10
  -2  -9 -12    7.37    0.20
  -2  -9 -12    7.51    0.24
   2   9  12    7.76    0.25
   2   9  12    7.70    0.25
   2   9  12    7.36    0.19
  -3  -9 -12    0.53    0.07
   3   9  12    0.60    0.07
  -4  -9 -12    8.72    0.23
   4   9  12    8.81    0.24
  -5  -9 -12    0.89    0.08
   5   9  12    0.78    0.09
   0 -10 -12    6.02    0.22
  -1 -10 -12    0.28    0.07
  -1 -10 -12    0.24    0.06
  -2 -10 -12    2.06    0.11
  -3 -10 -12    0.27    0.06
  -4  -6  13    3.94    0.17
  -4  -6  13    4.21    0.15
   3   6 -13    4.46    0.18
  -3  -6  13    4.40    0.14
  -3  -6  13    4.38    0.17
   2   6 -13    0.54    0.08
  -2  -6  13    0.55    0.07
   1   6 -13    1.97    0.11
  -1  -6  13    1.92    0.10
   0   6 -13    1.53    0.09
   0  -6  13    1.57    0.09
  -1   6 -13    0.01    0.04
   1  -6  13   -0.02    0.04
   2  -6  13   12.47    0.26
   5   5 -13    0.27    0.08
   5   5 -13    0.18    0.03
  -5  -5  13    0.09    0.05
  -5  -5  13    0.16    0.06
   4   5 -13   11.41    0.31
   4   5 -13   10.73    0.31
  -4  -5  13   10.82    0.30
  -4  -5  13   10.91    0.26
   3   5 -13    0.12    0.06
   3   5 -13    0.16    0.06
  -3  -5  13    0.14    0.05
  -3  -5  13    0.14    0.05
   2   5 -13    0.00    0.05
   2   5 -13    0.03    0.04
  -2  -5  13    0.00    0.04
  -2  -5  13    0.06    0.04
   1   5 -13    3.00    0.13
   1   5 -13    2.86    0.12
  -1  -5  13    2.73    0.12
   0   5 -13    0.16    0.05
   0   5 -13    0.17    0.05
   0  -5  13    0.21    0.05
  -1   5 -13    6.98    0.18
  -1   5 -13    6.83    0.18
   1  -5  13    6.97    0.18
  -2   5 -13   10.47    0.24
  -2   5 -13   10.26    0.23
   2  -5  13   10.59    0.23
  -3   5 -13    1.28    0.08
   3  -5  13    1.20    0.07
   4  -5  13   12.11    0.25
   6   4 -13    0.12    0.05
  -6  -4  13    0.04    0.05
   5   4 -13    5.23    0.16
   5   4 -13    5.53    0.21
   5   4 -13    5.28    0.20
  -5  -4  13    5.02    0.16
  -5  -4  13    5.62    0.21
   4   4 -13   10.80    0.30
   4   4 -13   10.89    0.23
   4   4 -13   11.06    0.30
  -4  -4  13   11.03    0.30
  -4  -4  13   11.05    0.26
   3   4 -13    0.65    0.08
   3   4 -13    0.53    0.08
  -3  -4  13    0.55    0.08
  -3  -4  13    0.62    0.06
   2   4 -13    4.90    0.17
   2   4 -13    5.00    0.17
  -2  -4  13    4.94    0.14
  -2  -4  13    5.09    0.17
   1   4 -13    0.18    0.05
   1   4 -13    0.10    0.04
  -1  -4  13    0.18    0.04
  -1  -4  13    0.12    0.05
   0   4 -13    4.16    0.14
   0   4 -13    3.86    0.14
   0  -4  13    3.82    0.13
  -1   4 -13    9.15    0.22
  -1   4 -13    8.93    0.22
   1  -4  13    8.77    0.22
  -2   4 -13    9.12    0.22
  -2   4 -13    8.94    0.22
   2  -4  13    8.89    0.21
  -3   4 -13    3.37    0.12
  -3   4 -13    3.20    0.12
   3  -4  13    3.34    0.11
  -4   4 -13    7.09    0.19
   4  -4  13    7.30    0.18
   5  -4  13    7.30    0.19
   6   3 -13    4.05    0.16
  -6  -3  13    4.15    0.15
   5   3 -13    5.09    0.17
  -5  -3  13    4.83    0.16
   4   3 -13    0.95    0.09
   4   3 -13    0.83    0.07
   4   3 -13    0.98    0.10
  -4  -3  13    0.98    0.09
  -4  -3  13    0.84    0.07
   3   3 -13    5.54    0.15
   3   3 -13    5.85    0.19
   3   3 -13    5.69    0.19
  -3  -3  13    5.83    0.19
  -3  -3  13    5.61    0.16
   2   3 -13    0.05    0.05
   2   3 -13    0.10    0.02
   2   3 -13    0.05    0.05
  -2  -3  13    0.10    0.05
  -2  -3  13    0.21    0.04
   1   3 -13    5.45    0.17
   1   3 -13    5.38    0.17
  -1  -3  13    5.37    0.17
  -1  -3  13    5.33    0.14
   0   3 -13    0.48    0.06
   0   3 -13    0.39    0.06
   0  -3  13    0.44    0.06
   0  -3  13    0.45    0.04
  -1   3 -13   17.06    0.36
  -1   3 -13   17.10    0.35
   1  -3  13   17.57    0.35
  -2   3 -13    3.69    0.13
  -2   3 -13    3.76    0.13
   2  -3  13    3.65    0.12
  -3   3 -13    4.42    0.14
  -3   3 -13    4.46    0.14
   3  -3  13    4.23    0.14
  -4   3 -13    5.73    0.17
  -4   3 -13    5.89    0.17
   4  -3  13    5.67    0.16
  -5   3 -13    2.10    0.11
   5  -3  13    1.94    0.09
   7   2 -13    2.15    0.13
   6   2 -13    1.20    0.10
  -6  -2  13    1.31    0.08
   5   2 -13    3.32    0.14
  -5  -2  13    3.43    0.13
   4   2 -13    5.65    0.20
   4   2 -13    6.16    0.20
   4   2 -13    6.07    0.18
  -4  -2  13    5.70    0.16
  -4  -2  13    6.12    0.20
   3   2 -13   28.55    0.56
   3   2 -13   28.12    0.54
   3   2 -13   27.87    0.57
  -3  -2  13   28.97    0.56
  -3  -2  13   27.92    0.50
   2   2 -13    0.18    0.04
   2   2 -13    0.16    0.06
   2   2 -13    0.22    0.06
  -2  -2  13    0.29    0.05
  -2  -2  13    0.21    0.05
   1   2 -13   52.20    0.90
   1   2 -13   51.24    0.87
   1   2 -13   50.50    0.91
  -1  -2  13   51.35    0.90
  -1  -2  13   51.75    0.83
   0   2 -13    0.67    0.07
   0   2 -13    0.66    0.07
   0  -2  13    0.78    0.07
   0  -2  13    0.77    0.06
  -1   2 -13   27.30    0.51
  -1   2 -13   26.78    0.52
   1  -2  13   26.53    0.51
   1  -2  13   27.79    0.45
  -2   2 -13    0.87    0.07
  -2   2 -13    0.92    0.07
   2  -2  13    0.83    0.07
  -3   2 -13    8.49    0.21
  -3   2 -13    8.61    0.22
   3  -2  13    8.56    0.21
  -4   2 -13    0.13    0.05
  -4   2 -13    0.11    0.04
  -4   2 -13    0.06    0.04
   4  -2  13    0.14    0.04
  -5   2 -13    0.09    0.05
  -5   2 -13    0.12    0.05
   5  -2  13    0.13    0.05
  -6   2 -13    0.82    0.08
   6  -2  13    0.73    0.08
   7   1 -13    5.09    0.20
  -7  -1  13    5.24    0.21
   6   1 -13    0.01    0.05
  -6  -1  13    0.02    0.05
   5   1 -13    0.20    0.06
  -5  -1  13    0.20    0.05
   4   1 -13   32.00    0.64
   4   1 -13   30.84    0.62
  -4  -1  13   32.17    0.62
  -4  -1  13   31.61    0.56
   3   1 -13   11.58    0.29
   3   1 -13   11.27    0.29
   3   1 -13   11.07    0.27
  -3  -1  13   11.04    0.24
  -3  -1  13   11.53    0.29
   2   1 -13   11.65    0.29
   2   1 -13   11.81    0.29
   2   1 -13   11.94    0.27
  -2  -1  13   12.17    0.29
  -2  -1  13   12.28    0.25
   1   1 -13    2.16    0.09
   1   1 -13    2.28    0.11
   1   1 -13    1.94    0.10
  -1  -1  13    1.94    0.08
  -1  -1  13    2.09    0.10
   0   1 -13   24.23    0.47
   0   1 -13   23.98    0.48
   0   1 -13   24.39    0.44
   0  -1  13   24.14    0.47
   0  -1  13   24.14    0.42
  -1   1 -13    5.81    0.17
  -1   1 -13    5.82    0.17
   1  -1  13    5.88    0.14
   1  -1  13    5.94    0.17
  -2   1 -13    0.10    0.05
  -2   1 -13    0.03    0.04
   2  -1  13   -0.09    0.03
   2  -1  13    0.00    0.03
  -3   1 -13    3.54    0.13
  -3   1 -13    3.61    0.13
   3  -1  13    3.60    0.10
   3  -1  13    3.47    0.12
  -4   1 -13    5.20    0.16
  -4   1 -13    5.15    0.17
  -4   1 -13    5.02    0.16
   4  -1  13    5.28    0.13
   4  -1  13    4.97    0.16
  -5   1 -13    2.58    0.12
  -5   1 -13    2.51    0.12
   5  -1  13    2.62    0.11
   5  -1  13    2.77    0.09
  -6   1 -13    0.30    0.07
  -6   1 -13    0.22    0.06
   6  -1  13    0.31    0.06
   6  -1  13    0.34    0.05
   7  -1  13    0.17    0.05
   7  -1  13    0.19    0.06
   7   0 -13    1.57    0.12
  -7   0  13    1.60    0.12
   6   0 -13   -0.02    0.05
  -6   0  13    0.02    0.05
   5   0 -13    0.43    0.07
  -5   0  13    0.46    0.06
  -5   0  13    0.44    0.08
   4   0 -13   20.96    0.46
  -4   0  13   21.34    0.39
  -4   0  13   21.17    0.47
   3   0 -13    0.81    0.08
   3   0 -13    0.70    0.08
   3   0 -13    0.60    0.07
  -3   0  13    0.67    0.08
  -3   0  13    0.87    0.06
   2   0 -13   26.96    0.53
   2   0 -13   26.77    0.52
   2   0 -13   26.37    0.52
  -2   0  13   26.07    0.52
  -2   0  13   25.90    0.46
   1   0 -13    0.59    0.07
   1   0 -13    0.62    0.06
   1   0 -13    0.60    0.07
  -1   0  13    0.56    0.05
  -1   0  13    0.56    0.06
   0   0 -13   27.17    0.51
   0   0 -13   26.79    0.52
   0   0 -13   26.79    0.52
   0   0  13   27.29    0.52
   0   0  13   27.02    0.46
  -1   0 -13    0.89    0.06
  -1   0 -13    0.98    0.08
  -1   0 -13    0.92    0.08
   1   0  13    0.86    0.06
   1   0  13    0.98    0.07
  -2   0 -13   43.40    0.77
  -2   0 -13   43.82    0.75
  -2   0 -13   42.66    0.78
   2   0  13   44.34    0.77
   2   0  13   42.45    0.70
  -3   0 -13   20.15    0.41
  -3   0 -13   20.38    0.42
   3   0  13   20.67    0.36
   3   0  13   20.47    0.41
  -4   0 -13    0.73    0.08
  -4   0 -13    0.69    0.07
  -4   0 -13    0.73    0.08
   4   0  13    0.75    0.07
   4   0  13    0.68    0.06
  -5   0 -13    0.00    0.04
  -5   0 -13    0.01    0.04
  -5   0 -13   -0.06    0.04
   5   0  13    0.06    0.04
   5   0  13    0.03    0.04
  -6   0 -13   -0.09    0.05
  -6   0 -13   -0.03    0.05
   6   0  13   -0.03    0.04
   6   0  13    0.00    0.05
  -7   0 -13    5.11    0.19
   7   0  13    4.86    0.15
   7   0  13    5.24    0.18
  -7   1  13    0.12    0.05
  -6   1  13    8.37    0.26
   5  -1 -13    1.75    0.11
   5  -1 -13    1.92    0.09
  -5   1  13    1.86    0.12
   4  -1 -13  110.49    1.95
   4  -1 -13  112.08    1.73
  -4   1  13  112.84    1.74
  -4   1  13  110.89    1.95
   3  -1 -13   20.17    0.44
  -3   1  13   20.46    0.44
  -3   1  13   21.11    0.38
   2  -1 -13    3.06    0.13
   2  -1 -13    3.51    0.14
   2  -1 -13    3.30    0.14
  -2   1  13    3.29    0.11
  -2   1  13    3.33    0.14
  -2   1  13    3.61    0.14
   1  -1 -13    6.93    0.20
   1  -1 -13    6.94    0.19
   1  -1 -13    7.09    0.20
  -1   1  13    6.94    0.17
  -1   1  13    7.18    0.20
  -1   1  13    7.05    0.20
   0  -1 -13    0.11    0.05
   0  -1 -13    0.04    0.04
   0  -1 -13    0.03    0.04
   0   1  13    0.07    0.03
   0   1  13    0.00    0.04
  -1  -1 -13    0.04    0.05
  -1  -1 -13    0.03    0.04
  -1  -1 -13    0.01    0.03
   1   1  13   -0.01    0.03
   1   1  13   -0.04    0.04
  -2  -1 -13   86.70    1.45
  -2  -1 -13   82.07    1.41
  -2  -1 -13   83.25    1.44
   2   1  13   85.54    1.41
   2   1  13   85.06    1.32
  -3  -1 -13    1.11    0.08
  -3  -1 -13    1.06    0.06
  -3  -1 -13    1.21    0.09
   3   1  13    1.06    0.08
   3   1  13    1.09    0.07
  -4  -1 -13   19.31    0.36
  -4  -1 -13   19.44    0.42
  -4  -1 -13   19.11    0.40
  -4  -1 -13   18.99    0.41
   4   1  13   19.26    0.40
   4   1  13   18.79    0.35
  -5  -1 -13   -0.04    0.05
  -5  -1 -13    0.01    0.04
  -5  -1 -13   -0.01    0.05
  -5  -1 -13    0.06    0.02
   5   1  13   -0.03    0.03
   5   1  13   -0.03    0.04
  -6  -1 -13    6.32    0.21
  -6  -1 -13    6.40    0.22
  -6  -1 -13    6.57    0.21
   6   1  13    6.13    0.17
   6   1  13    6.32    0.20
  -7  -1 -13    1.44    0.12
  -7  -1 -13    1.62    0.12
   7   1  13    1.50    0.09
   7   1  13    1.53    0.11
   7  -2 -13    2.72    0.12
  -7   2  13    2.41    0.13
   6  -2 -13    0.78    0.07
  -6   2  13    0.84    0.09
   5  -2 -13    3.99    0.13
  -5   2  13    3.85    0.16
   4  -2 -13    1.29    0.07
   4  -2 -13    1.29    0.10
  -4   2  13    1.24    0.10
   3  -2 -13    2.96    0.10
   3  -2 -13    2.88    0.13
  -3   2  13    2.77    0.13
  -3   2  13    2.85    0.10
   2  -2 -13    3.23    0.10
  -2   2  13    3.02    0.13
  -2   2  13    2.82    0.10
   1  -2 -13   16.63    0.29
   1  -2 -13   15.88    0.35
   1  -2 -13   16.07    0.36
   1  -2 -13   15.74    0.35
  -1   2  13   16.40    0.36
  -1   2  13   16.52    0.31
  -1   2  13   15.78    0.35
   0  -2 -13    0.24    0.05
   0  -2 -13    0.20    0.05
   0  -2 -13    0.29    0.05
   0   2  13    0.32    0.06
   0   2  13    0.22    0.05
   0   2  13    0.29    0.05
  -1  -2 -13   13.41    0.30
  -1  -2 -13   13.01    0.30
  -1  -2 -13   13.24    0.31
   1   2  13   13.33    0.26
   1   2  13   13.64    0.31
   1   2  13   13.17    0.30
  -2  -2 -13    0.19    0.06
  -2  -2 -13    0.24    0.06
   2   2  13    0.07    0.04
  -3  -2 -13    1.74    0.10
  -3  -2 -13    1.96    0.11
  -3  -2 -13    1.72    0.09
  -3  -2 -13    1.74    0.11
   3   2  13    1.83    0.08
   3   2  13    1.89    0.10
  -4  -2 -13    0.39    0.05
  -4  -2 -13    0.65    0.08
  -4  -2 -13    0.43    0.07
  -4  -2 -13    0.43    0.07
   4   2  13    0.51    0.07
   4   2  13    0.44    0.05
  -5  -2 -13    9.81    0.23
  -5  -2 -13    9.95    0.27
  -5  -2 -13    9.73    0.26
  -5  -2 -13   10.26    0.28
   5   2  13    9.76    0.26
   5   2  13    9.98    0.22
  -6  -2 -13    1.41    0.11
  -6  -2 -13    1.39    0.07
  -6  -2 -13    1.48    0.11
  -6  -2 -13    1.37    0.10
   6   2  13    1.51    0.08
   6   2  13    1.54    0.10
  -7  -2 -13    0.51    0.04
  -7  -2 -13    0.39    0.08
  -7  -2 -13    0.47    0.08
   7   2  13    0.55    0.08
   7   2  13    0.54    0.07
   7  -3 -13    0.38    0.06
  -7   3  13    0.24    0.06
   6  -3 -13    3.31    0.13
  -6   3  13    3.20    0.14
   5  -3 -13   13.40    0.29
  -5   3  13   13.49    0.33
   4  -3 -13   16.00    0.32
  -4   3  13   15.73    0.37
   3  -3 -13    8.40    0.24
   3  -3 -13    8.53    0.20
  -3   3  13    8.26    0.23
   2  -3 -13    0.17    0.04
   2  -3 -13    0.14    0.05
  -2   3  13    0.15    0.03
  -2   3  13    0.10    0.05
   1  -3 -13    3.35    0.10
  -1   3  13    3.16    0.13
  -1   3  13    3.16    0.10
   0  -3 -13    0.63    0.07
   0  -3 -13    0.79    0.08
   0  -3 -13    0.68    0.05
   0  -3 -13    0.62    0.07
   0   3  13    0.69    0.07
   0   3  13    0.60    0.07
   0   3  13    0.63    0.05
  -1  -3 -13    5.64    0.18
  -1  -3 -13    5.62    0.17
  -1  -3 -13    5.75    0.13
  -1  -3 -13    5.99    0.18
   1   3  13    5.81    0.15
   1   3  13    5.48    0.17
   1   3  13    5.69    0.18
  -2  -3 -13   48.12    0.88
  -2  -3 -13   47.91    0.87
  -2  -3 -13   47.78    0.85
   2   3  13   47.86    0.79
   2   3  13   48.64    0.89
   2   3  13   47.48    0.85
  -3  -3 -13    4.62    0.17
  -3  -3 -13    4.55    0.16
  -3  -3 -13    4.49    0.15
  -3  -3 -13    4.71    0.17
   3   3  13    4.61    0.13
   3   3  13    4.76    0.16
  -4  -3 -13    5.03    0.16
  -4  -3 -13    5.23    0.18
  -4  -3 -13    5.15    0.18
  -4  -3 -13    5.16    0.18
   4   3  13    5.00    0.14
   4   3  13    5.41    0.18
  -5  -3 -13    6.97    0.20
  -5  -3 -13    7.27    0.22
  -5  -3 -13    7.61    0.22
  -5  -3 -13    7.14    0.23
   5   3  13    6.98    0.22
   5   3  13    7.06    0.18
  -6  -3 -13    0.35    0.07
  -6  -3 -13    0.42    0.06
  -6  -3 -13    0.28    0.07
  -6  -3 -13    0.50    0.08
   6   3  13    0.46    0.06
   6   3  13    0.50    0.07
  -7  -3 -13    3.09    0.12
  -7  -3 -13    3.42    0.16
  -7  -3 -13    3.04    0.15
   7   3  13    3.11    0.12
   7   3  13    3.24    0.15
   6  -4 -13    2.29    0.11
  -6   4  13    2.32    0.11
   5  -4 -13   11.87    0.31
   5  -4 -13   11.63    0.26
  -5   4  13   11.95    0.29
   4  -4 -13    0.16    0.06
   4  -4 -13    0.12    0.04
  -4   4  13    0.19    0.06
  -4   4  13    0.18    0.05
   3  -4 -13    5.28    0.18
   3  -4 -13    5.21    0.15
  -3   4  13    5.38    0.19
  -3   4  13    5.13    0.17
  -3   4  13    5.33    0.19
   2  -4 -13    4.17    0.16
   2  -4 -13    4.29    0.12
  -2   4  13    4.05    0.15
  -2   4  13    4.07    0.16
  -2   4  13    4.14    0.16
   1  -4 -13   40.05    0.67
   1  -4 -13   39.82    0.77
   1  -4 -13   40.88    0.74
  -1   4  13   39.20    0.76
  -1   4  13   40.59    0.75
   0  -4 -13    5.41    0.14
   0  -4 -13    5.54    0.18
   0  -4 -13    5.63    0.18
   0   4  13    5.60    0.13
   0   4  13    5.34    0.18
   0   4  13    5.35    0.18
  -1  -4 -13    5.24    0.14
  -1  -4 -13    5.19    0.17
   1   4  13    5.35    0.17
   1   4  13    5.25    0.14
  -2  -4 -13   32.94    0.54
  -2  -4 -13   32.01    0.63
   2   4  13   32.35    0.64
   2   4  13   32.69    0.55
  -3  -4 -13    0.03    0.05
   3   4  13    0.14    0.04
   3   4  13    0.03    0.04
   3   4  13    0.17    0.05
  -4  -4 -13    1.56    0.10
   4   4  13    1.44    0.08
   4   4  13    1.70    0.10
  -5  -4 -13   -0.02    0.04
   5   4  13   -0.02    0.03
  -6  -4 -13    1.30    0.10
   6   4  13    1.51    0.09
  -7  -4 -13    0.88    0.09
   7   4  13    0.75    0.07
   6  -5 -13    5.62    0.21
   6  -5 -13    5.46    0.17
  -6   5  13    5.81    0.23
  -6   5  13    5.17    0.15
   5  -5 -13    0.11    0.05
   5  -5 -13    0.15    0.05
  -5   5  13    0.31    0.07
  -5   5  13    0.25    0.08
  -5   5  13    0.08    0.04
   4  -5 -13    4.66    0.15
   4  -5 -13    4.91    0.18
  -4   5  13    5.04    0.19
  -4   5  13    4.74    0.16
  -4   5  13    4.62    0.19
   3  -5 -13    3.06    0.14
   3  -5 -13    2.94    0.11
  -3   5  13    3.10    0.15
  -3   5  13    3.34    0.15
  -3   5  13    2.94    0.12
   2  -5 -13    0.80    0.06
   2  -5 -13    0.85    0.08
  -2   5  13    0.79    0.08
  -2   5  13    0.83    0.09
   1  -5 -13    0.21    0.05
   1  -5 -13    0.22    0.05
  -1   5  13    0.11    0.05
  -1   5  13    0.26    0.06
   0  -5 -13   20.14    0.43
   0  -5 -13   19.74    0.42
   0  -5 -13   20.03    0.37
   0   5  13   20.03    0.43
   0   5  13   18.97    0.42
  -1  -5 -13    4.34    0.16
  -1  -5 -13    4.15    0.12
   1   5  13    4.39    0.16
  -2  -5 -13    0.29    0.06
  -2  -5 -13    0.18    0.04
   2   5  13    0.37    0.06
   2   5  13    0.25    0.04
  -3  -5 -13    3.00    0.10
  -3  -5 -13    2.86    0.13
   3   5  13    2.84    0.13
   3   5  13    3.21    0.10
  -4  -5 -13    0.17    0.06
   4   5  13    0.23    0.04
   4   5  13    0.25    0.06
  -5  -5 -13    0.01    0.05
   5   5  13    0.07    0.04
  -6  -5 -13    3.41    0.15
   6   5  13    3.46    0.13
  -7  -5 -13    2.64    0.14
   7   5  13    2.90    0.12
   5  -6 -13    0.68    0.09
   5  -6 -13    0.57    0.07
  -5   6  13    0.45    0.09
  -5   6  13    0.55    0.04
   4  -6 -13    3.56    0.13
   4  -6 -13    3.70    0.16
  -4   6  13    3.45    0.16
  -4   6  13    3.43    0.12
  -4   6  13    3.79    0.18
   3  -6 -13    0.36    0.05
   3  -6 -13    0.43    0.07
  -3   6  13    0.40    0.07
  -3   6  13    0.57    0.06
  -3   6  13    0.47    0.08
   2  -6 -13   25.34    0.51
   2  -6 -13   24.09    0.45
  -2   6  13   24.07    0.49
  -2   6  13   24.97    0.53
   1  -6 -13    0.61    0.06
   1  -6 -13    0.77    0.08
  -1   6  13    0.69    0.08
  -1   6  13    0.67    0.07
   0  -6 -13   12.50    0.26
   0  -6 -13   13.17    0.31
   0   6  13   12.49    0.31
   0   6  13   12.48    0.30
  -1  -6 -13    3.08    0.11
  -1  -6 -13    3.06    0.14
   1   6  13    3.00    0.13
   1   6  13    3.14    0.14
  -2  -6 -13   19.65    0.37
  -2  -6 -13   20.43    0.45
   2   6  13   19.43    0.43
  -3  -6 -13    0.32    0.07
  -3  -6 -13    0.53    0.06
   3   6  13    0.46    0.07
  -4  -6 -13    2.16    0.13
   4   6  13    2.11    0.12
  -5  -6 -13    0.48    0.08
   5   6  13    0.34    0.06
  -6  -6 -13    6.74    0.23
   6   6  13    7.03    0.23
  -7  -6 -13    0.39    0.08
   4  -7 -13    0.76    0.09
   4  -7 -13    0.75    0.07
  -4   7  13    0.80    0.10
   3  -7 -13    5.21    0.19
   3  -7 -13    4.85    0.15
  -3   7  13    5.25    0.20
  -3   7  13    4.85    0.12
   2  -7 -13    1.13    0.09
   2  -7 -13    0.93    0.07
  -2   7  13    1.37    0.10
  -2   7  13    0.91    0.06
   1  -7 -13   11.01    0.25
   1  -7 -13   11.79    0.29
  -1   7  13   10.67    0.29
  -1   7  13   10.26    0.25
   0  -7 -13    1.35    0.08
   0  -7 -13    1.33    0.10
   0   7  13    1.43    0.09
   0   7  13    1.57    0.11
  -1  -7 -13    2.63    0.13
  -1  -7 -13    2.32    0.10
   1   7  13    2.44    0.11
   1   7  13    2.57    0.14
  -2  -7 -13    4.92    0.15
   2   7  13    4.92    0.16
  -3  -7 -13    4.37    0.14
   3   7  13    4.48    0.16
  -4  -7 -13    0.56    0.06
   4   7  13    0.41    0.07
  -5  -7 -13    1.09    0.11
   5   7  13    1.13    0.10
  -6  -7 -13    0.65    0.09
   6   7  13    0.71    0.09
   3  -8 -13    0.47    0.07
   3  -8 -13    0.31    0.06
   2  -8 -13    2.16    0.10
   2  -8 -13    2.39    0.13
  -2   8  13    2.30    0.14
   1  -8 -13    6.47    0.18
   1  -8 -13    6.89    0.22
  -1   8  13    6.73    0.23
  -1   8  13    6.63    0.16
   0  -8 -13    3.41    0.12
   0  -8 -13    3.53    0.15
   0   8  13    3.32    0.11
   0   8  13    3.53    0.16
  -1  -8 -13    6.66    0.19
  -1  -8 -13    7.69    0.23
   1   8  13    7.30    0.19
   1   8  13    7.22    0.23
  -2  -8 -13    0.20    0.06
  -2  -8 -13    0.18    0.05
   2   8  13    0.14    0.05
  -3  -8 -13   10.71    0.25
   3   8  13   10.60    0.28
  -4  -8 -13    0.57    0.07
   4   8  13    0.51    0.07
   5   8  13    0.05    0.05
   6   8  13    0.24    0.07
   2  -9 -13    2.66    0.12
   2  -9 -13    2.74    0.15
   1  -9 -13    1.29    0.11
   1  -9 -13    1.52    0.09
   0  -9 -13    0.53    0.08
   0  -9 -13    0.43    0.06
   0   9  13    0.33    0.08
  -1  -9 -13    1.35    0.09
  -1  -9 -13    1.34    0.10
   1   9  13    1.32    0.07
   1   9  13    1.27    0.12
  -2  -9 -13    0.89    0.10
  -2  -9 -13    0.78    0.08
   2   9  13    1.03    0.11
   2   9  13    0.79    0.10
   2   9  13    1.07    0.07
  -3  -9 -13    0.44    0.07
   3   9  13    0.52    0.06
  -4  -9 -13    0.16    0.05
   4   9  13    0.13    0.05
  -2  -6  14    3.05    0.11
  -2  -6  14    2.98    0.14
  -1  -6  14    3.59    0.14
   0  -6  14    0.31    0.06
   1  -6  14   10.97    0.25
   4   5 -14    1.37    0.12
  -4  -5  14    1.40    0.11
  -4  -5  14    1.23    0.09
   3   5 -14    0.82    0.10
  -3  -5  14    0.82    0.09
  -3  -5  14    0.95    0.08
   2   5 -14    8.13    0.23
   2   5 -14    8.03    0.24
  -2  -5  14    8.07    0.20
  -2  -5  14    8.15    0.23
   1   5 -14    0.20    0.06
   1   5 -14    0.33    0.06
  -1  -5  14    0.28    0.05
   0   5 -14    0.73    0.07
   0   5 -14    0.80    0.08
   0  -5  14    0.77    0.07
  -1   5 -14    0.96    0.08
   1  -5  14    0.88    0.07
  -2   5 -14    5.05    0.16
   2  -5  14    5.36    0.15
   3  -5  14    2.24    0.10
   5   4 -14    6.94    0.25
   5   4 -14    6.62    0.18
  -5  -4  14    6.67    0.20
  -5  -4  14    6.88    0.24
   4   4 -14    4.98    0.19
   4   4 -14    5.06    0.20
   4   4 -14    5.32    0.13
  -4  -4  14    5.46    0.20
  -4  -4  14    5.24    0.16
   3   4 -14    6.24    0.21
   3   4 -14    6.26    0.21
  -3  -4  14    6.09    0.17
  -3  -4  14    6.15    0.20
   2   4 -14    0.96    0.09
   2   4 -14    0.96    0.09
  -2  -4  14    1.00    0.07
  -2  -4  14    1.05    0.08
   1   4 -14    0.08    0.04
   1   4 -14    0.03    0.05
  -1  -4  14    0.06    0.04
  -1  -4  14    0.08    0.04
   0   4 -14   10.24    0.25
   0   4 -14    9.61    0.24
   0  -4  14    9.66    0.24
  -1   4 -14    0.33    0.05
  -1   4 -14    0.50    0.06
   1  -4  14    0.49    0.06
  -2   4 -14   14.41    0.31
  -2   4 -14   15.03    0.32
   2  -4  14   14.75    0.31
  -3   4 -14    0.03    0.04
   3  -4  14   -0.08    0.03
   4  -4  14   13.05    0.28
   6   3 -14    0.21    0.06
  -6  -3  14    0.14    0.05
   5   3 -14    0.26    0.06
  -5  -3  14    0.16    0.05
   4   3 -14    7.05    0.19
   4   3 -14    7.12    0.23
   4   3 -14    7.31    0.24
  -4  -3  14    7.26    0.23
  -4  -3  14    6.93    0.19
   3   3 -14    0.36    0.04
   3   3 -14    0.29    0.06
   3   3 -14    0.34    0.07
  -3  -3  14    0.35    0.06
  -3  -3  14    0.32    0.06
   2   3 -14    8.52    0.24
   2   3 -14    8.28    0.23
  -2  -3  14    8.31    0.23
  -2  -3  14    8.10    0.20
   1   3 -14    2.64    0.12
   1   3 -14    2.90    0.13
  -1  -3  14    2.70    0.12
  -1  -3  14    2.82    0.10
   0   3 -14    6.34    0.19
   0   3 -14    6.34    0.19
   0  -3  14    6.17    0.18
   0  -3  14    6.53    0.15
  -1   3 -14    6.79    0.19
  -1   3 -14    6.95    0.19
   1  -3  14    7.11    0.19
  -2   3 -14    0.16    0.05
  -2   3 -14    0.19    0.05
   2  -3  14    0.17    0.05
  -3   3 -14    0.04    0.04
  -3   3 -14   -0.01    0.04
   3  -3  14    0.03    0.04
  -4   3 -14    6.67    0.19
  -4   3 -14    7.02    0.19
   4  -3  14    6.98    0.19
   5  -3  14    1.00    0.08
   6   2 -14    2.29    0.13
  -6  -2  14    2.27    0.11
   5   2 -14    2.40    0.12
  -5  -2  14    2.37    0.11
   4   2 -14    7.12    0.23
   4   2 -14    7.32    0.23
   4   2 -14    7.25    0.21
  -4  -2  14    7.36    0.23
  -4  -2  14    7.01    0.19
   3   2 -14    0.41    0.07
   3   2 -14    0.39    0.05
   3   2 -14    0.35    0.07
  -3  -2  14    0.41    0.07
  -3  -2  14    0.35    0.06
   2   2 -14   10.49    0.27
   2   2 -14   10.01    0.23
   2   2 -14   10.35    0.27
  -2  -2  14   10.35    0.23
  -2  -2  14   10.50    0.27
   1   2 -14    0.54    0.03
   1   2 -14    0.51    0.07
   1   2 -14    0.44    0.07
  -1  -2  14    0.56    0.05
  -1  -2  14    0.50    0.07
   0   2 -14    0.49    0.06
   0   2 -14    0.48    0.06
   0  -2  14    0.40    0.06
   0  -2  14    0.50    0.05
  -1   2 -14    2.16    0.10
  -1   2 -14    2.36    0.11
   1  -2  14    2.11    0.10
   1  -2  14    2.21    0.08
  -2   2 -14    0.68    0.07
  -2   2 -14    0.66    0.07
   2  -2  14    0.53    0.06
  -3   2 -14    2.83    0.12
  -3   2 -14    2.64    0.11
   3  -2  14    2.94    0.12
  -4   2 -14    0.29    0.06
  -4   2 -14    0.20    0.05
   4  -2  14    0.27    0.05
  -5   2 -14    8.42    0.23
   5  -2  14    8.39    0.22
   6  -2  14    0.03    0.05
   7   1 -14    3.28    0.16
  -7  -1  14    3.53    0.18
   6   1 -14    4.43    0.18
   5   1 -14    0.03    0.05
  -5  -1  14    0.03    0.04
   4   1 -14    1.45    0.10
  -4  -1  14    1.42    0.09
   3   1 -14    2.47    0.13
   3   1 -14    2.47    0.13
   3   1 -14    2.72    0.12
  -3  -1  14    2.44    0.10
  -3  -1  14    2.48    0.13
   2   1 -14    0.14    0.04
   2   1 -14    0.13    0.05
   2   1 -14    0.14    0.06
  -2  -1  14    0.14    0.05
  -2  -1  14    0.16    0.05
   1   1 -14   37.30    0.70
   1   1 -14   37.10    0.69
   1   1 -14   37.24    0.67
  -1  -1  14   36.92    0.69
  -1  -1  14   37.75    0.63
   0   1 -14   25.22    0.45
   0   1 -14   24.66    0.49
   0   1 -14   24.66    0.50
   0  -1  14   24.78    0.44
   0  -1  14   25.11    0.49
  -1   1 -14    6.70    0.19
  -1   1 -14    6.33    0.19
   1  -1  14    6.24    0.18
   1  -1  14    6.41    0.15
  -2   1 -14    0.06    0.04
  -2   1 -14    0.02    0.04
   2  -1  14    0.04    0.04
   2  -1  14    0.02    0.03
  -3   1 -14    1.76    0.10
  -3   1 -14    1.78    0.10
   3  -1  14    1.72    0.09
   3  -1  14    1.71    0.07
  -4   1 -14   -0.03    0.04
  -4   1 -14    0.03    0.04
  -4   1 -14    0.06    0.04
   4  -1  14    0.05    0.04
   4  -1  14    0.02    0.03
  -5   1 -14    6.23    0.19
  -5   1 -14    6.28    0.19
   5  -1  14    5.85    0.19
   5  -1  14    6.41    0.16
  -6   1 -14   19.55    0.43
   6  -1  14   19.71    0.37
   6  -1  14   19.49    0.42
   7   0 -14    0.19    0.06
  -7   0  14    0.11    0.06
   6   0 -14    4.96    0.19
  -6   0  14    4.86    0.20
   5   0 -14    1.14    0.10
  -5   0  14    1.37    0.11
   4   0 -14    7.76    0.23
  -4   0  14    7.95    0.19
   3   0 -14    4.52    0.17
   3   0 -14    4.33    0.16
   3   0 -14    4.60    0.17
  -3   0  14    4.26    0.16
  -3   0  14    4.43    0.13
   2   0 -14    5.60    0.17
   2   0 -14    5.57    0.18
   2   0 -14    5.59    0.19
  -2   0  14    5.36    0.18
  -2   0  14    5.59    0.15
   1   0 -14    7.28    0.21
   1   0 -14    7.13    0.19
   1   0 -14    7.25    0.21
  -1   0  14    6.93    0.20
  -1   0  14    7.16    0.17
   0   0 -14    7.84    0.19
   0   0 -14    8.34    0.22
   0   0 -14    7.58    0.21
   0   0  14    7.84    0.18
   0   0  14    7.79    0.21
  -1   0 -14   31.73    0.61
  -1   0 -14   31.47    0.60
  -1   0 -14   32.97    0.58
   1   0  14   32.04    0.60
   1   0  14   32.59    0.55
  -2   0 -14    0.44    0.04
  -2   0 -14    0.47    0.06
  -2   0 -14    0.49    0.06
   2   0  14    0.50    0.05
   2   0  14    0.50    0.06
  -3   0 -14   18.66    0.39
  -3   0 -14   17.71    0.39
   3   0  14   18.29    0.38
   3   0  14   18.48    0.34
  -4   0 -14   13.65    0.33
  -4   0 -14   13.44    0.32
  -4   0 -14   13.44    0.31
   4   0  14   13.20    0.27
   4   0  14   13.67    0.31
  -5   0 -14    0.02    0.05
  -5   0 -14    0.06    0.05
   5   0  14    0.04    0.04
   5   0  14    0.07    0.04
  -6   0 -14    5.95    0.20
  -6   0 -14    5.44    0.19
   6   0  14    5.59    0.19
   6   0  14    5.59    0.16
   7   0  14    0.22    0.05
   7   0  14    0.15    0.06
  -7   1  14    3.55    0.17
   6  -1 -14    0.14    0.05
  -6   1  14   -0.06    0.05
   5  -1 -14    8.14    0.25
  -5   1  14    8.64    0.26
   4  -1 -14    3.15    0.14
  -4   1  14    3.30    0.11
  -4   1  14    3.12    0.15
   3  -1 -14   10.11    0.27
  -3   1  14   11.13    0.23
  -3   1  14   10.92    0.28
   2  -1 -14   13.50    0.32
   2  -1 -14   14.00    0.33
   2  -1 -14   14.68    0.34
  -2   1  14   14.42    0.28
  -2   1  14   14.05    0.33
  -2   1  14   13.69    0.32
   1  -1 -14    0.32    0.05
   1  -1 -14    0.28    0.06
   1  -1 -14    0.26    0.06
  -1   1  14    0.21    0.04
  -1   1  14    0.25    0.06
   0  -1 -14   21.71    0.44
   0  -1 -14   21.95    0.45
   0  -1 -14   22.26    0.44
   0   1  14   21.40    0.44
   0   1  14   22.00    0.40
  -1  -1 -14    0.27    0.06
  -1  -1 -14    0.28    0.06
  -1  -1 -14    0.33    0.05
   1   1  14    0.41    0.06
   1   1  14    0.33    0.05
  -2  -1 -14    0.28    0.06
  -2  -1 -14    0.27    0.06
  -2  -1 -14    0.26    0.04
   2   1  14    0.14    0.04
   2   1  14    0.19    0.05
  -3  -1 -14    0.16    0.05
  -3  -1 -14    0.04    0.05
  -3  -1 -14    0.14    0.04
   3   1  14    0.08    0.04
   3   1  14    0.14    0.05
  -4  -1 -14   -0.09    0.04
  -4  -1 -14    0.01    0.03
  -4  -1 -14   -0.01    0.05
  -4  -1 -14   -0.03    0.05
   4   1  14    0.05    0.04
   4   1  14   -0.04    0.04
  -5  -1 -14    5.46    0.19
  -5  -1 -14    5.82    0.20
  -5  -1 -14    5.51    0.19
   5   1  14    5.65    0.16
   5   1  14    5.67    0.19
  -6  -1 -14   16.99    0.40
  -6  -1 -14   17.42    0.40
   6   1  14   16.78    0.34
   6   1  14   16.99    0.39
  -7  -1 -14    1.53    0.12
   7   1  14    1.61    0.09
   7   1  14    1.54    0.11
  -7   2  14    0.04    0.05
   6  -2 -14    7.72    0.20
  -6   2  14    7.64    0.24
   5  -2 -14    6.57    0.17
  -5   2  14    6.38    0.21
   4  -2 -14    0.30    0.05
   4  -2 -14    0.55    0.08
  -4   2  14    0.20    0.06
   3  -2 -14   19.98    0.44
   3  -2 -14   20.12    0.37
  -3   2  14   19.46    0.44
  -3   2  14   20.34    0.37
   2  -2 -14    8.81    0.19
   2  -2 -14    8.38    0.23
  -2   2  14    8.53    0.24
  -2   2  14    8.12    0.19
   1  -2 -14   13.14    0.31
   1  -2 -14   12.65    0.30
   1  -2 -14   13.14    0.31
  -1   2  14   12.94    0.31
  -1   2  14   12.68    0.26
  -1   2  14   12.37    0.30
   0  -2 -14   19.02    0.41
   0  -2 -14   19.22    0.41
   0  -2 -14   19.89    0.41
   0   2  14   19.03    0.42
   0   2  14   19.51    0.36
   0   2  14   19.06    0.40
  -1  -2 -14    0.03    0.05
  -1  -2 -14    0.14    0.05
  -1  -2 -14    0.06    0.04
   1   2  14    0.08    0.04
   1   2  14    0.14    0.05
  -2  -2 -14  141.21    2.35
  -2  -2 -14  139.23    2.32
  -2  -2 -14  144.10    2.41
   2   2  14  142.29    2.19
   2   2  14  141.79    2.30
  -3  -2 -14   27.91    0.58
  -3  -2 -14   28.20    0.56
  -3  -2 -14   28.72    0.55
  -3  -2 -14   28.37    0.55
   3   2  14   28.39    0.55
   3   2  14   28.50    0.50
  -4  -2 -14   18.44    0.41
  -4  -2 -14   18.69    0.38
  -4  -2 -14   18.77    0.41
  -4  -2 -14   18.58    0.43
   4   2  14   18.09    0.40
   4   2  14   18.58    0.36
  -5  -2 -14    5.09    0.18
  -5  -2 -14    4.90    0.19
  -5  -2 -14    5.10    0.15
  -5  -2 -14    4.96    0.18
   5   2  14    5.34    0.18
   5   2  14    5.08    0.15
  -6  -2 -14    5.83    0.21
  -6  -2 -14    5.82    0.22
  -6  -2 -14    5.94    0.21
  -6  -2 -14    5.79    0.15
   6   2  14    6.17    0.20
   6   2  14    5.77    0.17
  -7  -2 -14    4.71    0.20
  -7  -2 -14    4.36    0.18
   7   2  14    4.46    0.15
   7   2  14    4.49    0.18
   6  -3 -14    0.19    0.05
  -6   3  14    0.23    0.06
   5  -3 -14   35.38    0.62
  -5   3  14   35.33    0.71
   4  -3 -14    3.32    0.12
  -4   3  14    3.15    0.14
   3  -3 -14   11.66    0.30
   3  -3 -14   11.31    0.24
  -3   3  14   10.50    0.28
   2  -3 -14    1.05    0.06
   2  -3 -14    0.92    0.08
  -2   3  14    1.22    0.09
   1  -3 -14   20.41    0.36
   1  -3 -14   19.79    0.43
  -1   3  14   19.23    0.43
  -1   3  14   20.14    0.36
   0  -3 -14    1.33    0.09
   0  -3 -14    1.37    0.07
   0   3  14    1.37    0.10
   0   3  14    1.48    0.07
  -1  -3 -14   38.34    0.71
  -1  -3 -14   37.85    0.73
  -1  -3 -14   37.94    0.72
   1   3  14   38.95    0.74
   1   3  14   37.85    0.71
   1   3  14   38.77    0.64
  -2  -3 -14   17.19    0.39
  -2  -3 -14   17.91    0.38
  -2  -3 -14   17.94    0.38
   2   3  14   17.34    0.33
   2   3  14   17.36    0.38
  -3  -3 -14    6.94    0.20
  -3  -3 -14    6.72    0.21
  -3  -3 -14    6.99    0.21
  -3  -3 -14    7.30    0.22
   3   3  14    7.05    0.21
   3   3  14    6.94    0.17
  -4  -3 -14    1.75    0.10
  -4  -3 -14    1.58    0.11
  -4  -3 -14    1.58    0.11
  -4  -3 -14    1.49    0.11
   4   3  14    1.43    0.10
   4   3  14    1.45    0.08
  -5  -3 -14    0.45    0.07
  -5  -3 -14    0.42    0.06
  -5  -3 -14    0.39    0.07
  -5  -3 -14    0.53    0.08
   5   3  14    0.40    0.07
   5   3  14    0.32    0.05
  -6  -3 -14    3.95    0.17
  -6  -3 -14    4.13    0.14
  -6  -3 -14    4.12    0.18
  -6  -3 -14    3.87    0.18
   6   3  14    3.92    0.16
   6   3  14    4.14    0.14
  -7  -3 -14    5.88    0.17
  -7  -3 -14    6.15    0.23
   7   3  14    6.06    0.18
   7   3  14    5.93    0.21
   6  -4 -14    2.59    0.12
  -6   4  14    2.35    0.12
   5  -4 -14    0.04    0.04
  -5   4  14    0.13    0.05
   4  -4 -14    0.05    0.04
  -4   4  14    0.08    0.05
   3  -4 -14    1.92    0.09
  -3   4  14    1.94    0.11
   2  -4 -14    1.89    0.09
  -2   4  14    1.90    0.11
   1  -4 -14    2.77    0.10
   1  -4 -14    2.77    0.13
  -1   4  14    2.74    0.13
   0  -4 -14    2.59    0.12
   0  -4 -14    2.90    0.10
   0   4  14    2.78    0.09
   0   4  14    2.70    0.13
  -1  -4 -14   64.47    1.17
  -1  -4 -14   64.07    1.03
   1   4  14   64.14    1.18
   1   4  14   66.87    1.04
  -2  -4 -14   24.12    0.50
   2   4  14   24.33    0.43
   2   4  14   23.82    0.51
  -3  -4 -14   20.53    0.45
   3   4  14   20.83    0.46
   3   4  14   21.04    0.39
  -4  -4 -14    6.28    0.20
   4   4  14    6.46    0.17
  -5  -4 -14   17.97    0.41
   5   4  14   18.81    0.36
  -6  -4 -14    5.02    0.18
   6   4  14    5.43    0.16
  -7  -4 -14    0.05    0.05
   7   4  14    0.02    0.04
   5  -5 -14    0.02    0.04
   5  -5 -14   -0.02    0.05
  -5   5  14    0.07    0.04
   4  -5 -14    1.28    0.10
   4  -5 -14    1.26    0.08
  -4   5  14    1.35    0.09
  -4   5  14    1.37    0.11
   3  -5 -14    9.25    0.22
   3  -5 -14    9.61    0.27
  -3   5  14    9.80    0.28
  -3   5  14    9.82    0.25
   2  -5 -14    2.62    0.13
   2  -5 -14    2.21    0.10
  -2   5  14    2.38    0.13
  -2   5  14    2.59    0.12
   1  -5 -14   15.41    0.35
   1  -5 -14   14.86    0.30
  -1   5  14   14.93    0.35
  -1   5  14   15.94    0.37
   0  -5 -14   24.92    0.51
   0  -5 -14   24.12    0.43
   0   5  14   22.81    0.50
  -1  -5 -14    5.47    0.15
  -1  -5 -14    5.64    0.19
   1   5  14    5.52    0.19
  -2  -5 -14    4.05    0.16
  -2  -5 -14    4.08    0.12
   2   5  14    4.05    0.16
   2   5  14    4.14    0.12
  -3  -5 -14    1.05    0.09
   3   5  14    0.94    0.06
   3   5  14    1.01    0.09
  -4  -5 -14    2.69    0.13
   4   5  14    2.85    0.11
   4   5  14    2.79    0.14
  -5  -5 -14   10.76    0.30
   5   5  14   11.12    0.25
  -6  -5 -14    3.65    0.16
   6   5  14    3.66    0.13
  -7  -5 -14    0.44    0.07
   7   5  14    0.41    0.06
   5  -6 -14    3.87    0.14
   5  -6 -14    4.14    0.18
  -5   6  14    3.87    0.12
   4  -6 -14    1.04    0.10
   4  -6 -14    1.07    0.08
  -4   6  14    1.07    0.11
  -4   6  14    0.98    0.07
   3  -6 -14    0.19    0.06
   3  -6 -14    0.15    0.05
  -3   6  14    0.24    0.07
  -3   6  14    0.21    0.05
   2  -6 -14    5.64    0.20
   2  -6 -14    5.35    0.16
  -2   6  14    5.20    0.17
  -2   6  14    5.74    0.20
   1  -6 -14    0.51    0.08
   1  -6 -14    0.34    0.05
  -1   6  14    0.28    0.07
  -1   6  14    0.38    0.06
   0  -6 -14   18.62    0.41
   0  -6 -14   18.42    0.36
   0   6  14   18.66    0.42
   0   6  14   18.39    0.41
  -1  -6 -14    0.22    0.05
   1   6  14    0.22    0.06
  -2  -6 -14   19.15    0.36
  -2  -6 -14   18.75    0.43
   2   6  14   17.88    0.42
  -3  -6 -14    0.18    0.06
  -3  -6 -14    0.19    0.05
   3   6  14    0.17    0.05
  -4  -6 -14   14.73    0.37
   4   6  14   14.25    0.35
  -5  -6 -14    0.16    0.06
   5   6  14    0.09    0.05
  -6  -6 -14    3.91    0.17
   4  -7 -14    5.70    0.17
   4  -7 -14    5.85    0.22
   3  -7 -14    1.04    0.10
   3  -7 -14    1.12    0.08
  -3   7  14    1.13    0.11
  -3   7  14    1.12    0.07
   2  -7 -14    7.87    0.24
   2  -7 -14    7.52    0.20
  -2   7  14    7.54    0.20
  -2   7  14    8.14    0.25
   1  -7 -14    1.08    0.08
   1  -7 -14    1.21    0.10
  -1   7  14    1.19    0.10
  -1   7  14    1.12    0.08
   0  -7 -14    5.38    0.19
   0  -7 -14    4.89    0.15
   0   7  14    4.97    0.19
   0   7  14    4.93    0.17
  -1  -7 -14    0.27    0.05
   1   7  14    0.32    0.06
  -2  -7 -14    1.75    0.09
   2   7  14    1.76    0.10
  -3  -7 -14    0.05    0.04
   3   7  14    0.03    0.04
  -4  -7 -14    5.63    0.21
   4   7  14    6.04    0.20
  -5  -7 -14    0.17    0.06
   5   7  14    0.18    0.06
  -6  -7 -14    4.57    0.19
   6   7  14    4.42    0.19
   3  -8 -14   23.19    0.46
   3  -8 -14   24.69    0.53
   2  -8 -14    0.53    0.07
   2  -8 -14    0.67    0.09
  -2   8  14    0.60    0.04
  -2   8  14    0.62    0.10
   1  -8 -14    0.41    0.06
   1  -8 -14    0.46    0.07
  -1   8  14    0.36    0.04
  -1   8  14    0.39    0.08
   0  -8 -14    0.02    0.05
   0  -8 -14    0.02    0.04
   0   8  14    0.06    0.05
   0   8  14   -0.02    0.03
  -1  -8 -14    1.89    0.09
  -1  -8 -14    1.60    0.11
   1   8  14    1.68    0.09
   1   8  14    1.72    0.12
  -2  -8 -14    3.29    0.13
   2   8  14    3.48    0.14
  -3  -8 -14   18.61    0.37
   3   8  14   17.39    0.40
  -4  -8 -14    0.34    0.06
   4   8  14    0.20    0.06
   5   8  14   15.72    0.39
   1  -9 -14    6.89    0.20
   1  -9 -14    7.36    0.24
   0  -9 -14    1.87    0.10
   0  -9 -14    2.20    0.13
   0   9  14    1.85    0.07
   0   9  14    1.93    0.14
  -1  -9 -14    0.28    0.06
  -1  -9 -14    0.26    0.07
   1   9  14    0.26    0.07
   1   9  14    0.40    0.05
  -2  -9 -14    0.34    0.06
   2   9  14    0.41    0.06
  -3  -9 -14    2.28    0.11
   3   9  14    2.26    0.11
  -4  -9 -14    0.17    0.06
   4   9  14    0.29    0.06
  -3  -5  15    0.26    0.06
  -3  -5  15    0.34    0.07
   2   5 -15    0.22    0.07
  -2  -5  15    0.20    0.05
  -2  -5  15    0.21    0.05
   1   5 -15   -0.02    0.05
  -1  -5  15    0.05    0.04
   0   5 -15    0.21    0.06
   0  -5  15    0.13    0.05
   1  -5  15   10.31    0.25
   2  -5  15    2.73    0.12
   5   4 -15    2.62    0.10
  -5  -4  15    2.85    0.15
  -5  -4  15    2.89    0.13
   4   4 -15   14.37    0.38
   4   4 -15   14.22    0.37
  -4  -4  15   14.65    0.32
  -4  -4  15   14.98    0.37
   3   4 -15    0.09    0.06
   3   4 -15    0.08    0.06
  -3  -4  15    0.08    0.05
  -3  -4  15    0.12    0.06
   2   4 -15    9.48    0.27
   2   4 -15    9.74    0.26
  -2  -4  15    9.42    0.26
  -2  -4  15    9.48    0.22
   1   4 -15    1.91    0.11
   1   4 -15    1.77    0.11
  -1  -4  15    1.84    0.09
  -1  -4  15    1.72    0.10
   0   4 -15    1.69    0.10
   0   4 -15    1.60    0.10
   0  -4  15    1.52    0.09
  -1   4 -15    4.08    0.14
  -1   4 -15    3.88    0.14
   1  -4  15    4.07    0.14
  -2   4 -15    0.13    0.05
   2  -4  15    0.10    0.04
   3  -4  15    4.63    0.15
   5   3 -15    0.12    0.05
  -5  -3  15    0.01    0.05
   4   3 -15    4.22    0.18
   4   3 -15    4.06    0.14
   4   3 -15    4.53    0.18
  -4  -3  15    4.31    0.18
  -4  -3  15    3.88    0.14
   3   3 -15    7.69    0.23
   3   3 -15    7.20    0.23
   3   3 -15    7.35    0.17
  -3  -3  15    7.29    0.23
  -3  -3  15    7.63    0.20
   2   3 -15    5.23    0.18
   2   3 -15    5.09    0.18
  -2  -3  15    5.07    0.18
  -2  -3  15    5.27    0.15
   1   3 -15    4.97    0.17
   1   3 -15    4.68    0.17
  -1  -3  15    4.83    0.17
  -1  -3  15    4.56    0.14
   0   3 -15    9.22    0.24
   0   3 -15    9.59    0.25
   0  -3  15    9.30    0.24
   0  -3  15    9.95    0.21
  -1   3 -15    0.10    0.04
  -1   3 -15   -0.01    0.04
   1  -3  15    0.01    0.04
  -2   3 -15    5.23    0.17
  -2   3 -15    5.06    0.16
   2  -3  15    5.29    0.16
  -3   3 -15    1.50    0.09
  -3   3 -15    1.45    0.09
   3  -3  15    1.40    0.09
  -4   3 -15    2.65    0.12
   4  -3  15    2.59    0.11
   6   2 -15    9.06    0.27
  -6  -2  15    9.39    0.24
   5   2 -15    0.52    0.07
  -5  -2  15    0.58    0.07
   4   2 -15    8.24    0.23
   4   2 -15    8.70    0.27
  -4  -2  15    8.96    0.26
  -4  -2  15    8.70    0.22
   3   2 -15    0.96    0.09
   3   2 -15    0.94    0.10
   3   2 -15    1.01    0.07
  -3  -2  15    0.95    0.07
  -3  -2  15    0.92    0.09
   2   2 -15   -0.01    0.04
   2   2 -15    0.00    0.05
   2   2 -15    0.02    0.03
  -2  -2  15    0.04    0.04
  -2  -2  15    0.02    0.04
   1   2 -15   24.48    0.51
   1   2 -15   24.95    0.50
  -1  -2  15   25.16    0.45
  -1  -2  15   24.51    0.50
   0   2 -15    8.05    0.22
   0   2 -15    7.91    0.22
   0  -2  15    7.55    0.21
   0  -2  15    7.51    0.18
  -1   2 -15   12.02    0.29
  -1   2 -15   11.97    0.29
   1  -2  15   12.75    0.25
   1  -2  15   12.10    0.29
  -2   2 -15    3.80    0.14
  -2   2 -15    3.56    0.14
   2  -2  15    4.01    0.11
   2  -2  15    3.65    0.14
  -3   2 -15    0.43    0.06
  -3   2 -15    0.50    0.07
   3  -2  15    0.62    0.07
  -4   2 -15   18.64    0.40
  -4   2 -15   18.43    0.39
   4  -2  15   18.44    0.39
   5  -2  15    0.06    0.04
   6   1 -15    2.27    0.14
   5   1 -15    0.10    0.05
  -5  -1  15    0.11    0.05
   4   1 -15    0.03    0.04
  -4  -1  15    0.09    0.04
   3   1 -15    1.70    0.11
   3   1 -15    1.67    0.11
   3   1 -15    1.59    0.09
  -3  -1  15    1.52    0.11
  -3  -1  15    1.72    0.09
   2   1 -15    1.11    0.09
   2   1 -15    0.98    0.07
   2   1 -15    1.09    0.10
  -2  -1  15    1.00    0.07
  -2  -1  15    1.16    0.09
   1   1 -15    0.27    0.06
   1   1 -15    0.27    0.06
  -1  -1  15    0.21    0.05
  -1  -1  15    0.15    0.04
   0   1 -15    0.31    0.03
   0   1 -15    0.27    0.06
   0  -1  15    0.25    0.05
   0  -1  15    0.34    0.06
  -1   1 -15   12.38    0.30
  -1   1 -15   12.36    0.29
   1  -1  15   12.16    0.25
   1  -1  15   11.75    0.29
  -2   1 -15    0.17    0.05
  -2   1 -15    0.26    0.05
   2  -1  15    0.06    0.04
   2  -1  15    0.16    0.04
  -3   1 -15    3.82    0.15
  -3   1 -15    3.66    0.14
   3  -1  15    3.64    0.14
   3  -1  15    4.04    0.11
  -4   1 -15    0.45    0.07
  -4   1 -15    0.43    0.07
   4  -1  15    0.44    0.05
   4  -1  15    0.41    0.06
  -5   1 -15    0.35    0.07
  -5   1 -15    0.25    0.06
   5  -1  15    0.30    0.05
   5  -1  15    0.24    0.06
   6  -1  15   -0.06    0.05
   6  -1  15    0.01    0.04
   6   0 -15    0.07    0.05
  -6   0  15    0.08    0.06
   5   0 -15   10.52    0.29
   4   0 -15    0.08    0.05
  -4   0  15    0.15    0.05
   3   0 -15    0.42    0.07
  -3   0  15    0.35    0.05
   2   0 -15    1.48    0.09
   2   0 -15    1.50    0.11
   2   0 -15    1.76    0.11
  -2   0  15    1.53    0.08
  -2   0  15    1.46    0.10
   1   0 -15    0.23    0.05
   1   0 -15    0.20    0.06
   1   0 -15    0.27    0.06
  -1   0  15    0.29    0.06
  -1   0  15    0.20    0.05
   0   0 -15    4.78    0.17
   0   0 -15    4.75    0.17
   0   0 -15    4.58    0.14
   0   0  15    4.86    0.16
   0   0  15    4.50    0.13
  -1   0 -15    0.93    0.08
  -1   0 -15    0.83    0.08
  -1   0 -15    1.00    0.06
   1   0  15    1.11    0.08
   1   0  15    0.95    0.06
  -2   0 -15    7.77    0.22
  -2   0 -15    7.72    0.16
  -2   0 -15    7.96    0.22
   2   0  15    7.67    0.18
   2   0  15    7.99    0.22
  -3   0 -15    4.82    0.17
  -3   0 -15    4.69    0.16
   3   0  15    4.37    0.16
   3   0  15    4.39    0.13
  -4   0 -15    3.32    0.14
  -4   0 -15    3.20    0.14
  -4   0 -15    3.12    0.14
   4   0  15    3.13    0.11
   4   0  15    2.89    0.13
  -5   0 -15    6.75    0.21
  -5   0 -15    7.03    0.22
   5   0  15    6.79    0.18
   5   0  15    6.83    0.21
  -6   0 -15    9.54    0.27
   6   0  15    9.26    0.26
   6   0  15    9.35    0.22
   6  -1 -15    1.50    0.12
  -6   1  15    1.39    0.11
   5  -1 -15    0.83    0.09
  -5   1  15    0.90    0.10
   4  -1 -15    1.97    0.12
  -4   1  15    2.24    0.09
  -4   1  15    2.24    0.13
   3  -1 -15    0.68    0.08
  -3   1  15    0.73    0.06
  -3   1  15    0.87    0.09
   2  -1 -15    2.85    0.13
   2  -1 -15    3.20    0.14
  -2   1  15    3.12    0.11
  -2   1  15    3.12    0.14
   1  -1 -15    5.32    0.17
   1  -1 -15    4.98    0.18
   1  -1 -15    5.32    0.18
  -1   1  15    5.17    0.14
  -1   1  15    5.20    0.18
   0  -1 -15    5.99    0.19
   0  -1 -15    5.73    0.19
   0  -1 -15    5.69    0.17
   0   1  15    5.58    0.18
   0   1  15    5.09    0.15
  -1  -1 -15   19.73    0.43
  -1  -1 -15   19.62    0.42
  -1  -1 -15   20.20    0.40
   1   1  15   20.44    0.37
   1   1  15   19.95    0.42
  -2  -1 -15    0.15    0.04
  -2  -1 -15    0.07    0.05
  -2  -1 -15    0.10    0.05
   2   1  15    0.15    0.04
   2   1  15    0.13    0.05
  -3  -1 -15    0.08    0.05
  -3  -1 -15    0.08    0.05
  -3  -1 -15    0.02    0.03
   3   1  15    0.06    0.05
   3   1  15    0.07    0.04
  -4  -1 -15    4.00    0.16
  -4  -1 -15    4.07    0.16
  -4  -1 -15    4.10    0.16
  -4  -1 -15    3.75    0.10
   4   1  15    3.84    0.13
   4   1  15    3.81    0.15
  -5  -1 -15    2.81    0.14
  -5  -1 -15    2.66    0.14
  -5  -1 -15    2.56    0.13
   5   1  15    2.82    0.13
   5   1  15    2.66    0.11
  -6  -1 -15    0.10    0.07
  -6  -1 -15    0.06    0.06
   6   1  15   -0.05    0.04
   6   1  15   -0.08    0.05
  -6   2  15    2.78    0.15
   5  -2 -15    0.10    0.06
  -5   2  15    0.05    0.05
   4  -2 -15    7.26    0.23
  -4   2  15    6.96    0.23
   3  -2 -15    0.62    0.08
  -3   2  15    0.66    0.08
  -3   2  15    0.75    0.06
   2  -2 -15    2.73    0.13
  -2   2  15    2.85    0.10
  -2   2  15    3.18    0.14
   1  -2 -15    0.20    0.05
   1  -2 -15    0.09    0.04
  -1   2  15    0.13    0.05
  -1   2  15    0.04    0.04
  -1   2  15    0.08    0.04
   0  -2 -15    8.22    0.23
   0  -2 -15    8.32    0.23
   0  -2 -15    7.63    0.21
   0   2  15    7.94    0.19
   0   2  15    7.59    0.22
  -1  -2 -15    2.43    0.12
  -1  -2 -15    2.35    0.12
  -1  -2 -15    2.09    0.10
   1   2  15    2.19    0.11
   1   2  15    2.42    0.09
  -2  -2 -15    9.45    0.24
  -2  -2 -15    9.66    0.25
  -2  -2 -15    9.33    0.26
   2   2  15    9.28    0.25
   2   2  15    9.30    0.21
  -3  -2 -15    0.50    0.07
  -3  -2 -15    0.50    0.07
  -3  -2 -15    0.49    0.06
  -3  -2 -15    0.38    0.07
   3   2  15    0.49    0.07
   3   2  15    0.39    0.05
  -4  -2 -15    3.54    0.15
  -4  -2 -15    3.38    0.12
  -4  -2 -15    3.42    0.15
  -4  -2 -15    3.75    0.16
   4   2  15    3.33    0.14
   4   2  15    3.45    0.12
  -5  -2 -15    0.92    0.09
  -5  -2 -15    0.84    0.10
  -5  -2 -15    0.84    0.06
  -5  -2 -15    0.67    0.08
   5   2  15    0.88    0.07
   5   2  15    0.89    0.09
  -6  -2 -15   22.57    0.50
  -6  -2 -15   22.68    0.42
  -6  -2 -15   23.26    0.51
   6   2  15   22.34    0.49
   6   2  15   22.01    0.44
  -7  -2 -15    0.12    0.08
   7   2  15    0.12    0.05
   7   2  15    0.13    0.06
   6  -3 -15    1.19    0.08
  -6   3  15    1.01    0.10
   5  -3 -15    0.82    0.07
  -5   3  15    0.93    0.09
   4  -3 -15   15.95    0.32
  -4   3  15   15.61    0.38
   3  -3 -15    5.71    0.15
   3  -3 -15    5.64    0.20
  -3   3  15    5.65    0.19
   2  -3 -15    0.25    0.04
   2  -3 -15    0.13    0.05
  -2   3  15    0.21    0.06
   1  -3 -15    3.20    0.14
  -1   3  15    3.39    0.11
  -1   3  15    3.47    0.15
   0  -3 -15    6.82    0.20
   0   3  15    6.64    0.17
   0   3  15    6.92    0.21
  -1  -3 -15   13.57    0.32
  -1  -3 -15   13.51    0.33
  -1  -3 -15   14.14    0.34
   1   3  15   13.60    0.28
   1   3  15   14.27    0.33
   1   3  15   13.86    0.34
  -2  -3 -15    3.14    0.14
  -2  -3 -15    2.97    0.14
  -2  -3 -15    2.81    0.13
   2   3  15    3.19    0.13
   2   3  15    3.25    0.11
  -3  -3 -15    1.42    0.10
  -3  -3 -15    1.60    0.10
  -3  -3 -15    1.60    0.11
  -3  -3 -15    1.47    0.09
   3   3  15    1.53    0.10
   3   3  15    1.33    0.08
  -4  -3 -15   16.99    0.38
  -4  -3 -15   16.12    0.40
  -4  -3 -15   16.41    0.39
  -4  -3 -15   15.83    0.36
   4   3  15   16.40    0.38
   4   3  15   15.78    0.33
  -5  -3 -15    7.07    0.23
  -5  -3 -15    6.97    0.22
  -5  -3 -15    6.27    0.19
  -5  -3 -15    6.75    0.23
   5   3  15    6.95    0.22
   5   3  15    6.44    0.18
  -6  -3 -15    0.50    0.06
  -6  -3 -15    0.64    0.09
  -6  -3 -15    0.69    0.09
   6   3  15    0.46    0.08
   6   3  15    0.55    0.06
  -7  -3 -15    0.65    0.06
   7   3  15    0.81    0.09
   7   3  15    0.65    0.07
   6  -4 -15    0.20    0.05
  -6   4  15    0.24    0.06
   5  -4 -15    0.15    0.05
  -5   4  15    0.12    0.05
   4  -4 -15    1.26    0.08
  -4   4  15    1.13    0.10
   3  -4 -15    3.90    0.13
  -3   4  15    4.12    0.16
   2  -4 -15    0.79    0.06
   2  -4 -15    0.84    0.09
  -2   4  15    0.79    0.08
   1  -4 -15   17.96    0.41
   1  -4 -15   18.21    0.34
  -1   4  15   17.38    0.40
   0  -4 -15    1.15    0.07
   0  -4 -15    1.00    0.09
   0   4  15    0.98    0.06
   0   4  15    0.94    0.09
  -1  -4 -15   60.79    1.13
   1   4  15   62.30    1.14
   1   4  15   62.85    1.00
  -2  -4 -15    2.84    0.13
   2   4  15    2.80    0.11
   2   4  15    2.82    0.13
  -3  -4 -15    0.61    0.07
   3   4  15    0.68    0.06
  -4  -4 -15    3.30    0.14
   4   4  15    3.21    0.12
  -5  -4 -15    3.10    0.14
   5   4  15    3.22    0.12
  -6  -4 -15    1.80    0.11
   6   4  15    1.82    0.10
  -7  -4 -15   16.85    0.39
   7   4  15   17.26    0.37
   5  -5 -15    0.71    0.07
  -5   5  15    0.71    0.07
   4  -5 -15    0.06    0.04
  -4   5  15    0.08    0.05
   3  -5 -15    1.50    0.08
  -3   5  15    1.61    0.10
   2  -5 -15    0.10    0.04
  -2   5  15    0.10    0.05
   1  -5 -15    6.37    0.17
  -1   5  15    6.43    0.21
   0  -5 -15    0.39    0.05
   0  -5 -15    0.39    0.07
   0   5  15    0.31    0.06
  -1  -5 -15   26.21    0.54
  -1  -5 -15   25.57    0.46
   1   5  15   25.14    0.54
  -2  -5 -15    6.43    0.21
   2   5  15    6.41    0.16
   2   5  15    6.51    0.21
  -3  -5 -15    1.53    0.11
   3   5  15    1.57    0.11
   3   5  15    1.67    0.08
  -4  -5 -15    1.49    0.11
   4   5  15    1.45    0.08
  -5  -5 -15    1.74    0.12
   5   5  15    1.89    0.09
  -6  -5 -15    0.72    0.09
   6   5  15    0.76    0.07
   4  -6 -15    1.28    0.11
   4  -6 -15    1.53    0.09
  -4   6  15    1.50    0.09
   3  -6 -15    0.13    0.06
   3  -6 -15    0.19    0.05
  -3   6  15    0.19    0.05
   2  -6 -15    0.44    0.06
   2  -6 -15    0.58    0.08
  -2   6  15    0.52    0.07
   1  -6 -15    0.21    0.05
  -1   6  15    0.11    0.05
   0  -6 -15   28.42    0.51
   0   6  15   28.69    0.59
  -1  -6 -15   13.12    0.28
   1   6  15   13.09    0.33
  -2  -6 -15    3.20    0.12
  -2  -6 -15    3.19    0.15
   2   6  15    3.08    0.14
  -3  -6 -15    1.30    0.11
   3   6  15    1.41    0.10
  -4  -6 -15    0.20    0.06
   4   6  15    0.03    0.05
  -5  -6 -15    1.81    0.12
   5   6  15    1.66    0.11
  -6  -6 -15   11.64    0.33
   3  -7 -15    0.01    0.04
   3  -7 -15    0.01    0.05
  -3   7  15   -0.03    0.06
  -3   7  15    0.04    0.03
   2  -7 -15    1.43    0.11
   2  -7 -15    1.23    0.08
  -2   7  15    1.33    0.08
  -2   7  15    1.33    0.11
   1  -7 -15    0.09    0.05
   1  -7 -15    0.03    0.04
  -1   7  15    0.08    0.04
   0  -7 -15    1.57    0.09
   0   7  15    1.70    0.10
  -1  -7 -15    1.52    0.09
   1   7  15    1.49    0.10
  -2  -7 -15    1.79    0.09
   2   7  15    1.98    0.11
  -3  -7 -15    1.90    0.10
   3   7  15    1.90    0.11
  -4  -7 -15   17.77    0.43
   4   7  15   17.23    0.41
  -5  -7 -15    0.12    0.06
   5   7  15   -0.01    0.05
   2  -8 -15    0.93    0.10
   2  -8 -15    0.66    0.07
  -2   8  15    1.06    0.12
  -2   8  15    0.90    0.06
   1  -8 -15    6.47    0.19
   1  -8 -15    6.72    0.23
  -1   8  15    6.50    0.23
  -1   8  15    6.33    0.17
   0  -8 -15    0.30    0.07
   0  -8 -15    0.27    0.06
   0   8  15    0.26    0.05
  -1  -8 -15    1.27    0.09
   1   8  15    1.42    0.09
  -2  -8 -15    0.61    0.07
   2   8  15    0.59    0.07
  -3  -8 -15    0.07    0.05
   3   8  15    0.12    0.05
   4   8  15    5.94    0.21
   5   8  15    0.05    0.05
   0  -9 -15    0.89    0.08
   0  -9 -15    0.92    0.10
   0   9  15    1.03    0.07
  -1  -9 -15    0.10    0.05
   1   9  15    0.14    0.04
  -2  -9 -15    0.71    0.08
   2   9  15    0.54    0.07
  -3  -9 -15    9.73    0.25
   3   9  15    9.64    0.26
  -2  -5  16    1.76    0.10
  -1  -5  16    0.65    0.08
  -1  -5  16    0.84    0.07
   0  -5  16   -0.03    0.05
   4   4 -16    0.09    0.07
  -4  -4  16    0.06    0.06
  -4  -4  16    0.00    0.05
   3   4 -16    3.52    0.17
  -3  -4  16    3.52    0.16
  -3  -4  16    3.54    0.14
   2   4 -16    2.87    0.14
  -2  -4  16    2.78    0.12
  -2  -4  16    2.87    0.14
   1   4 -16    1.41    0.11
  -1  -4  16    1.34    0.10
  -1  -4  16    1.39    0.08
   0   4 -16    0.11    0.06
   0  -4  16    0.06    0.04
  -1   4 -16    0.10    0.06
   1  -4  16    0.08    0.04
   2  -4  16    0.73    0.07
   5   3 -16    0.70    0.07
  -5  -3  16    0.86    0.08
   4   3 -16    0.05    0.04
   4   3 -16    0.10    0.06
   4   3 -16    0.03    0.06
  -4  -3  16    0.03    0.05
  -4  -3  16    0.01    0.05
   3   3 -16    2.38    0.14
   3   3 -16    2.34    0.07
   3   3 -16    2.54    0.14
  -3  -3  16    2.20    0.13
  -3  -3  16    2.22    0.11
   2   3 -16    0.06    0.05
   2   3 -16    0.15    0.06
  -2  -3  16    0.08    0.05
  -2  -3  16    0.07    0.05
   1   3 -16    0.98    0.09
   1   3 -16    0.89    0.09
  -1  -3  16    0.84    0.09
  -1  -3  16    0.96    0.07
   0   3 -16   -0.01    0.05
   0   3 -16    0.10    0.05
   0  -3  16    0.06    0.04
   0  -3  16    0.06    0.04
  -1   3 -16    3.79    0.15
  -1   3 -16    3.92    0.15
   1  -3  16    3.55    0.14
  -2   3 -16    3.49    0.14
  -2   3 -16    3.31    0.14
   2  -3  16    3.54    0.14
  -3   3 -16   16.77    0.37
   3  -3  16   17.07    0.37
   4  -3  16    1.28    0.09
   5   2 -16    0.03    0.04
  -5  -2  16    0.00    0.04
   4   2 -16    9.75    0.25
  -4  -2  16    9.97    0.24
   3   2 -16    3.20    0.15
   3   2 -16    3.17    0.12
   3   2 -16    3.29    0.16
  -3  -2  16    2.96    0.12
  -3  -2  16    3.30    0.15
   2   2 -16   23.94    0.51
   2   2 -16   24.02    0.45
   2   2 -16   23.87    0.50
  -2  -2  16   23.99    0.45
  -2  -2  16   23.86    0.50
   1   2 -16    0.79    0.09
   1   2 -16    0.76    0.09
  -1  -2  16    0.69    0.08
  -1  -2  16    0.72    0.07
   0   2 -16   13.47    0.32
   0   2 -16   14.39    0.33
   0  -2  16   13.56    0.28
   0  -2  16   13.55    0.32
  -1   2 -16    2.07    0.11
  -1   2 -16    2.29    0.12
   1  -2  16    2.31    0.11
   1  -2  16    2.23    0.09
  -2   2 -16    3.02    0.13
  -2   2 -16    2.97    0.13
   2  -2  16    2.81    0.12
   2  -2  16    3.02    0.10
  -3   2 -16    1.94    0.11
  -3   2 -16    1.92    0.11
   3  -2  16    1.79    0.10
  -4   2 -16    7.38    0.22
   4  -2  16    7.09    0.21
   5  -2  16    0.80    0.08
   6   1 -16    0.09    0.06
   5   1 -16    1.82    0.12
  -5  -1  16    1.60    0.09
   4   1 -16    6.08    0.20
  -4  -1  16    6.23    0.18
   3   1 -16    0.62    0.08
   3   1 -16    0.74    0.07
   3   1 -16    0.86    0.09
  -3  -1  16    0.73    0.07
  -3  -1  16    0.79    0.09
   2   1 -16   13.96    0.34
   2   1 -16   13.96    0.34
   2   1 -16   13.38    0.30
  -2  -1  16   13.30    0.29
  -2  -1  16   13.65    0.34
   1   1 -16    9.85    0.26
   1   1 -16    9.81    0.27
   1   1 -16    9.53    0.22
  -1  -1  16    9.65    0.22
  -1  -1  16    9.61    0.26
   0   1 -16   26.75    0.54
   0   1 -16   26.25    0.47
   0   1 -16   26.79    0.54
   0  -1  16   26.87    0.54
   0  -1  16   27.06    0.48
  -1   1 -16    0.66    0.08
  -1   1 -16    0.65    0.08
   1  -1  16    0.66    0.08
   1  -1  16    0.67    0.06
  -2   1 -16    3.29    0.14
  -2   1 -16    3.43    0.14
   2  -1  16    3.55    0.11
   2  -1  16    3.38    0.14
  -3   1 -16    2.10    0.11
  -3   1 -16    1.70    0.11
   3  -1  16    1.91    0.11
   3  -1  16    2.09    0.09
  -4   1 -16    0.18    0.06
  -4   1 -16    0.22    0.06
   4  -1  16    0.13    0.04
   4  -1  16    0.13    0.05
  -5   1 -16    5.78    0.20
   5  -1  16    5.80    0.19
   5  -1  16    5.93    0.16
   6   0 -16    1.50    0.12
  -6   0  16    1.78    0.13
   5   0 -16    3.31    0.16
   4   0 -16    2.49    0.13
  -4   0  16    2.59    0.11
   3   0 -16    7.73    0.22
  -3   0  16    7.77    0.20
   2   0 -16    1.30    0.09
   2   0 -16    1.33    0.10
   2   0 -16    1.26    0.10
  -2   0  16    1.30    0.08
  -2   0  16    1.10    0.09
   1   0 -16   38.28    0.72
   1   0 -16   37.31    0.70
   1   0 -16   37.80    0.73
  -1   0  16   38.28    0.72
  -1   0  16   37.03    0.65
   0   0 -16    0.25    0.04
   0   0 -16    0.30    0.06
   0   0 -16    0.29    0.07
   0   0  16    0.28    0.06
   0   0  16    0.24    0.05
  -1   0 -16   38.02    0.72
  -1   0 -16   37.23    0.67
  -1   0 -16   36.89    0.70
   1   0  16   38.00    0.70
   1   0  16   37.72    0.64
  -2   0 -16    0.24    0.06
  -2   0 -16    0.27    0.02
  -2   0 -16    0.31    0.06
   2   0  16    0.16    0.05
   2   0  16    0.28    0.05
  -3   0 -16   24.87    0.50
  -3   0 -16   24.28    0.51
   3   0  16   24.01    0.49
   3   0  16   24.08    0.44
  -4   0 -16    0.07    0.05
  -4   0 -16   -0.04    0.04
   4   0  16    0.01    0.04
   4   0  16    0.01    0.04
  -5   0 -16   -0.05    0.05
  -5   0 -16    0.01    0.06
   5   0  16   -0.01    0.04
   5   0  16    0.10    0.04
   6   0  16    0.01    0.04
   6   0  16   -0.01    0.05
   6  -1 -16    1.44    0.12
  -6   1  16    1.40    0.12
   5  -1 -16    3.83    0.17
  -5   1  16    3.99    0.18
   4  -1 -16    7.39    0.23
  -4   1  16    7.11    0.24
   3  -1 -16    0.11    0.05
  -3   1  16    0.17    0.04
   2  -1 -16    1.19    0.09
  -2   1  16    1.15    0.07
   1  -1 -16    1.16    0.10
   1  -1 -16    1.17    0.10
   1  -1 -16    1.15    0.08
  -1   1  16    1.20    0.10
  -1   1  16    1.18    0.07
   0  -1 -16    0.42    0.07
   0  -1 -16    0.39    0.06
   0  -1 -16    0.32    0.06
   0   1  16    0.29    0.06
   0   1  16    0.29    0.05
  -1  -1 -16   15.94    0.37
  -1  -1 -16   15.44    0.36
  -1  -1 -16   15.84    0.33
   1   1  16   15.36    0.31
   1   1  16   15.63    0.36
  -2  -1 -16    1.02    0.09
  -2  -1 -16    0.98    0.07
  -2  -1 -16    1.00    0.09
   2   1  16    0.87    0.07
   2   1  16    1.02    0.09
  -3  -1 -16   11.03    0.29
  -3  -1 -16   10.90    0.28
  -3  -1 -16   10.40    0.23
   3   1  16   10.69    0.28
   3   1  16   10.73    0.24
  -4  -1 -16    1.70    0.11
  -4  -1 -16    1.68    0.12
  -4  -1 -16    1.64    0.11
   4   1  16    1.60    0.09
   4   1  16    1.70    0.11
  -5  -1 -16    0.66    0.08
  -5  -1 -16    0.66    0.09
   5   1  16    0.60    0.08
   5   1  16    0.57    0.06
  -6  -1 -16    0.25    0.08
   6   1  16    0.23    0.05
   6   1  16    0.21    0.06
  -6   2  16    0.67    0.09
   5  -2 -16   26.24    0.57
  -5   2  16   25.07    0.56
   4  -2 -16    2.48    0.14
  -4   2  16    2.43    0.14
   3  -2 -16    0.03    0.05
  -3   2  16    0.04    0.05
   2  -2 -16    8.56    0.24
  -2   2  16    8.55    0.25
  -2   2  16    8.84    0.21
   1  -2 -16    1.11    0.09
  -1   2  16    1.20    0.07
   0  -2 -16    6.25    0.20
   0  -2 -16    6.17    0.19
   0  -2 -16    6.21    0.20
   0   2  16    6.15    0.16
   0   2  16    6.18    0.20
  -1  -2 -16    0.67    0.08
  -1  -2 -16    0.71    0.08
  -1  -2 -16    0.60    0.07
   1   2  16    0.69    0.06
   1   2  16    0.71    0.08
  -2  -2 -16   13.81    0.34
  -2  -2 -16   13.94    0.32
  -2  -2 -16   13.93    0.34
   2   2  16   13.91    0.29
   2   2  16   14.67    0.34
  -3  -2 -16    4.81    0.18
  -3  -2 -16    4.68    0.15
  -3  -2 -16    4.83    0.18
  -3  -2 -16    4.59    0.17
   3   2  16    4.83    0.17
   3   2  16    4.74    0.14
  -4  -2 -16   15.10    0.37
  -4  -2 -16   15.02    0.36
  -4  -2 -16   14.70    0.37
  -4  -2 -16   14.28    0.31
   4   2  16   14.72    0.31
   4   2  16   15.27    0.36
  -5  -2 -16    1.22    0.11
  -5  -2 -16    1.11    0.10
  -5  -2 -16    1.21    0.11
  -5  -2 -16    1.13    0.07
   5   2  16    1.12    0.10
   5   2  16    1.04    0.08
  -6  -2 -16    0.17    0.07
  -6  -2 -16    0.06    0.06
   6   2  16    0.07    0.05
   6   2  16    0.08    0.06
  -5   3  16   10.41    0.30
  -4   3  16    9.84    0.28
   3  -3 -16    0.27    0.07
  -3   3  16    0.14    0.06
   2  -3 -16    0.32    0.06
  -2   3  16    0.26    0.06
   1  -3 -16    8.57    0.24
  -1   3  16    8.54    0.25
  -1   3  16    8.80    0.20
   0  -3 -16    1.40    0.10
   0   3  16    1.30    0.10
   0   3  16    1.19    0.07
  -1  -3 -16   10.52    0.27
   1   3  16   10.48    0.23
  -2  -3 -16    7.33    0.23
  -2  -3 -16    6.80    0.21
  -2  -3 -16    7.62    0.23
   2   3  16    7.05    0.22
   2   3  16    7.04    0.18
  -3  -3 -16    6.09    0.19
  -3  -3 -16    6.37    0.21
  -3  -3 -16    6.23    0.22
  -3  -3 -16    6.55    0.21
   3   3  16    6.02    0.17
   3   3  16    6.05    0.20
  -4  -3 -16    6.23    0.21
  -4  -3 -16    5.78    0.18
  -4  -3 -16    5.98    0.21
  -4  -3 -16    6.07    0.21
   4   3  16    5.79    0.20
   4   3  16    5.96    0.17
  -5  -3 -16    2.82    0.15
  -5  -3 -16    2.88    0.15
  -5  -3 -16    2.47    0.11
   5   3  16    2.62    0.14
   5   3  16    2.52    0.11
  -6  -3 -16    5.97    0.17
  -6  -3 -16    6.23    0.23
   6   3  16    5.82    0.18
   6   3  16    5.95    0.21
   5  -4 -16    0.10    0.05
  -5   4  16    0.02    0.05
   4  -4 -16    9.68    0.23
  -4   4  16    9.40    0.27
   3  -4 -16    0.00    0.04
  -3   4  16    0.09    0.05
   2  -4 -16    8.49    0.25
   2  -4 -16    8.61    0.20
  -2   4  16    8.46    0.25
   1  -4 -16    0.37    0.07
   1  -4 -16    0.37    0.05
  -1   4  16    0.42    0.07
   0  -4 -16    2.23    0.12
   0   4  16    2.08    0.12
   0   4  16    2.28    0.09
  -1  -4 -16    1.03    0.09
   1   4  16    0.93    0.07
   1   4  16    1.07    0.10
  -2  -4 -16    4.84    0.18
   2   4  16    5.30    0.15
  -3  -4 -16    6.16    0.20
   3   4  16    6.11    0.17
  -4  -4 -16    2.64    0.13
   4   4  16    2.47    0.11
  -5  -4 -16    9.45    0.26
   5   4  16    9.34    0.23
  -6  -4 -16    7.28    0.22
   6   4  16    7.01    0.20
   5  -5 -16   27.03    0.51
  -5   5  16   25.27    0.54
   4  -5 -16    2.40    0.11
  -4   5  16    2.57    0.13
   3  -5 -16    0.35    0.05
  -3   5  16    0.25    0.06
   2  -5 -16    1.25    0.08
  -2   5  16    1.16    0.10
   1  -5 -16    4.41    0.13
  -1   5  16    3.96    0.16
   0  -5 -16    0.15    0.05
   0  -5 -16    0.22    0.06
   0   5  16    0.22    0.06
  -1  -5 -16   28.26    0.60
   1   5  16   28.64    0.60
  -2  -5 -16    2.15    0.12
   2   5  16    2.22    0.13
  -3  -5 -16    1.64    0.11
   3   5  16    1.29    0.10
   3   5  16    1.45    0.08
  -4  -5 -16    0.79    0.09
   4   5  16    0.60    0.06
  -5  -5 -16    9.99    0.28
   5   5  16   10.26    0.24
  -6  -5 -16    0.10    0.06
   6   5  16    0.08    0.04
   4  -6 -16    0.96    0.08
  -4   6  16    0.92    0.08
   3  -6 -16    5.05    0.16
  -3   6  16    4.94    0.17
   2  -6 -16    0.11    0.05
  -2   6  16    0.12    0.05
   1  -6 -16   15.73    0.33
  -1   6  16   16.35    0.38
   0  -6 -16    6.18    0.17
   0   6  16    6.13    0.20
  -1  -6 -16    3.36    0.12
   1   6  16    3.37    0.15
  -2  -6 -16    6.01    0.21
   2   6  16    5.76    0.20
  -3  -6 -16    1.22    0.11
   3   6  16    1.22    0.10
  -4  -6 -16    6.95    0.23
   4   6  16    7.14    0.24
  -5  -6 -16    2.72    0.15
  -6  -6 -16    1.64    0.12
   3  -7 -16    1.10    0.08
  -3   7  16    1.05    0.08
   2  -7 -16    2.84    0.12
  -2   7  16    2.96    0.13
   1  -7 -16    0.29    0.05
  -1   7  16    0.24    0.05
   0  -7 -16    0.14    0.05
   0   7  16    0.10    0.05
  -1  -7 -16    6.55    0.18
   1   7  16    6.67    0.21
  -2  -7 -16    0.16    0.05
   2   7  16    0.11    0.05
   3   7  16    0.00    0.05
  -4  -7 -16    1.40    0.12
   4   7  16    1.37    0.11
  -5  -7 -16    0.91    0.10
   5   7  16    0.84    0.10
   2  -8 -16    7.60    0.21
  -2   8  16    7.63    0.19
   1  -8 -16    3.53    0.14
  -1   8  16    3.69    0.13
   0  -8 -16    0.10    0.05
   0   8  16    0.17    0.05
  -1  -8 -16    5.15    0.16
   1   8  16    5.01    0.17
  -2  -8 -16    3.42    0.13
   2   8  16    3.49    0.15
  -3  -8 -16    0.48    0.07
   3   8  16    0.43    0.07
   4   8  16    0.23    0.06
  -2  -4  17    0.31    0.06
  -2  -4  17    0.32    0.07
  -1  -4  17    0.33    0.06
  -1  -4  17    0.10    0.05
   0  -4  17   -0.02    0.05
   0  -4  17   -0.04    0.04
   1  -4  17    4.72    0.17
   4   3 -17    0.15    0.04
  -4  -3  17    0.08    0.05
  -4  -3  17    0.00    0.05
   3   3 -17    3.17    0.16
   3   3 -17    3.11    0.16
  -3  -3  17    2.88    0.12
  -3  -3  17    2.98    0.15
   2   3 -17    5.69    0.21
   2   3 -17    5.93    0.21
  -2  -3  17    5.53    0.17
  -2  -3  17    5.68    0.20
   1   3 -17    2.31    0.13
   1   3 -17    2.07    0.13
  -1  -3  17    2.46    0.12
  -1  -3  17    2.25    0.10
   0   3 -17    0.17    0.06
   0  -3  17    0.10    0.05
   0  -3  17    0.14    0.04
  -1   3 -17    0.78    0.09
   1  -3  17    0.84    0.08
   1  -3  17    0.75    0.06
   2  -3  17    0.02    0.04
   3  -3  17    9.15    0.24
   4   2 -17    1.28    0.09
  -4  -2  17    1.23    0.09
   3   2 -17   17.08    0.36
   3   2 -17   18.22    0.42
   3   2 -17   17.49    0.42
  -3  -2  17   16.54    0.36
  -3  -2  17   16.79    0.41
   2   2 -17    0.27    0.07
   2   2 -17    0.31    0.07
   2   2 -17    0.29    0.04
  -2  -2  17    0.18    0.05
  -2  -2  17    0.18    0.06
   1   2 -17    1.74    0.11
   1   2 -17    1.55    0.11
  -1  -2  17    1.69    0.11
  -1  -2  17    1.76    0.09
   0   2 -17    3.52    0.15
   0   2 -17    3.27    0.15
   0  -2  17    3.41    0.15
   0  -2  17    3.51    0.12
  -1   2 -17    0.02    0.05
  -1   2 -17    0.13    0.05
   1  -2  17   -0.05    0.04
   1  -2  17    0.02    0.04
  -2   2 -17    0.26    0.06
  -2   2 -17    0.23    0.06
   2  -2  17    0.14    0.05
   2  -2  17    0.15    0.04
  -3   2 -17   -0.01    0.05
   3  -2  17    0.03    0.04
   3  -2  17   -0.02    0.04
   4  -2  17    0.12    0.05
   5   1 -17    1.80    0.12
  -5  -1  17    1.84    0.10
   4   1 -17    0.48    0.07
  -4  -1  17    0.44    0.06
   3   1 -17    1.67    0.10
  -3  -1  17    1.68    0.09
  -3  -1  17    1.85    0.12
   2   1 -17    3.85    0.16
   2   1 -17    3.87    0.13
   2   1 -17    3.84    0.17
  -2  -1  17    3.88    0.14
  -2  -1  17    3.81    0.16
   1   1 -17    3.22    0.15
   1   1 -17    3.55    0.16
   1   1 -17    3.45    0.11
  -1  -1  17    3.36    0.15
  -1  -1  17    3.32    0.12
   0   1 -17    4.44    0.17
   0   1 -17    4.88    0.18
   0   1 -17    4.11    0.09
   0  -1  17    4.42    0.14
   0  -1  17    4.60    0.17
  -1   1 -17    3.59    0.15
  -1   1 -17    3.41    0.15
   1  -1  17    3.36    0.12
   1  -1  17    3.24    0.14
  -2   1 -17    0.63    0.08
  -2   1 -17    0.52    0.07
   2  -1  17    0.64    0.06
   2  -1  17    0.59    0.07
  -3   1 -17    1.16    0.10
  -3   1 -17    1.29    0.10
   3  -1  17    1.17    0.07
   3  -1  17    0.78    0.08
  -4   1 -17    1.00    0.10
   4  -1  17    1.29    0.09
   4  -1  17    1.12    0.07
   5  -1  17    0.83    0.09
   5  -1  17    0.74    0.07
   5   0 -17    0.80    0.09
   4   0 -17   11.19    0.30
  -4   0  17   11.42    0.26
   3   0 -17    0.83    0.08
  -3   0  17    0.90    0.08
   2   0 -17    9.81    0.27
   2   0 -17    9.29    0.25
   2   0 -17    9.43    0.28
  -2   0  17    9.91    0.23
  -2   0  17    9.58    0.27
   1   0 -17    0.48    0.06
   0   0 -17    2.76    0.13
   0   0 -17    2.87    0.13
   0   0 -17    2.73    0.10
   0   0  17    2.67    0.11
   0   0  17    2.96    0.14
  -1   0 -17    0.12    0.05
  -2   0 -17    0.34    0.07
  -2   0 -17    0.31    0.07
   2   0  17    0.34    0.05
   2   0  17    0.33    0.06
  -3   0 -17    0.01    0.05
  -3   0 -17    0.00    0.05
   3   0  17    0.09    0.05
   3   0  17    0.07    0.04
  -4   0 -17    0.59    0.08
  -4   0 -17    0.69    0.09
   4   0  17    0.63    0.07
   4   0  17    0.73    0.08
  -5   0 -17    1.13    0.11
   5   0  17    0.99    0.08
   5   0  17    1.06    0.10
   5  -1 -17   10.26    0.30
  -5   1  17    9.80    0.30
   4  -1 -17    0.26    0.06
   3  -1 -17    4.54    0.17
  -3   1  17    4.69    0.14
   2  -1 -17    0.13    0.05
  -2   1  17    0.02    0.04
   1  -1 -17   27.98    0.57
   1  -1 -17   29.36    0.58
   1  -1 -17   28.57    0.59
  -1   1  17   28.01    0.58
  -1   1  17   28.03    0.51
   0  -1 -17    1.42    0.09
   0  -1 -17    1.40    0.10
   0  -1 -17    1.45    0.11
   0   1  17    1.41    0.10
   0   1  17    1.45    0.08
  -1  -1 -17    3.33    0.15
  -1  -1 -17    3.09    0.12
  -1  -1 -17    3.22    0.14
   1   1  17    3.12    0.11
   1   1  17    3.19    0.14
  -2  -1 -17    0.59    0.08
  -2  -1 -17    0.67    0.08
  -2  -1 -17    0.75    0.06
   2   1  17    0.73    0.08
   2   1  17    0.68    0.06
  -3  -1 -17    0.75    0.09
  -3  -1 -17    0.85    0.09
  -3  -1 -17    0.75    0.05
   3   1  17    0.80    0.09
   3   1  17    0.72    0.07
  -4  -1 -17    0.94    0.10
  -4  -1 -17    1.00    0.10
   4   1  17    1.09    0.08
   4   1  17    0.97    0.09
  -5  -1 -17   20.22    0.45
  -5  -1 -17   20.15    0.46
   5   1  17   19.49    0.40
   5   1  17   20.16    0.45
   5  -2 -17    0.16    0.06
  -5   2  17    0.13    0.06
   4  -2 -17    2.13    0.13
  -4   2  17    2.33    0.14
   3  -2 -17    4.00    0.16
  -3   2  17    4.00    0.17
   2  -2 -17    8.37    0.24
  -2   2  17    8.23    0.20
   1  -2 -17    1.02    0.09
  -1   2  17    1.00    0.07
   0  -2 -17    1.72    0.11
   0  -2 -17    1.59    0.10
   0   2  17    1.58    0.10
   0   2  17    1.44    0.08
  -1  -2 -17    7.47    0.23
  -1  -2 -17    7.58    0.21
  -1  -2 -17    7.61    0.23
   1   2  17    7.22    0.22
   1   2  17    7.27    0.19
  -2  -2 -17    2.17    0.12
  -2  -2 -17    1.94    0.12
  -2  -2 -17    1.92    0.10
   2   2  17    2.09    0.10
   2   2  17    2.19    0.12
  -3  -2 -17   13.54    0.35
  -3  -2 -17   13.29    0.30
  -3  -2 -17   13.02    0.33
  -3  -2 -17   13.92    0.35
   3   2  17   13.74    0.29
   3   2  17   13.79    0.34
  -4  -2 -17    3.78    0.17
  -4  -2 -17    4.07    0.17
  -4  -2 -17    3.60    0.12
  -4  -2 -17    3.72    0.16
   4   2  17    3.52    0.13
   4   2  17    3.61    0.16
  -5  -2 -17    0.65    0.09
  -5  -2 -17    0.71    0.09
  -5  -2 -17    0.61    0.05
   5   2  17    0.64    0.07
   5   2  17    0.57    0.08
  -6  -2 -17    3.63    0.18
   6   2  17    3.34    0.16
   6   2  17    3.16    0.13
  -5   3  17    0.08    0.06
   4  -3 -17    0.21    0.07
  -4   3  17    0.19    0.06
   3  -3 -17    0.02    0.05
  -3   3  17    0.04    0.05
   2  -3 -17    7.65    0.24
  -2   3  17    7.91    0.24
   1  -3 -17    1.66    0.11
  -1   3  17    2.02    0.12
  -1   3  17    1.87    0.09
   0  -3 -17    0.96    0.09
   0   3  17    0.85    0.07
  -1  -3 -17   10.23    0.27
   1   3  17   10.09    0.23
  -2  -3 -17    0.15    0.05
   2   3  17    0.11    0.04
  -3  -3 -17    0.32    0.07
  -3  -3 -17    0.26    0.06
   3   3  17    0.22    0.05
   3   3  17    0.47    0.07
  -4  -3 -17    2.81    0.12
  -4  -3 -17    2.83    0.14
  -4  -3 -17    2.96    0.15
   4   3  17    2.93    0.14
   4   3  17    2.91    0.12
  -5  -3 -17   15.23    0.34
  -5  -3 -17   15.56    0.39
   5   3  17   14.82    0.33
   5   3  17   15.73    0.38
  -6  -3 -17    1.52    0.08
   6   3  17    1.71    0.12
   6   3  17    1.61    0.10
   5  -4 -17    0.60    0.07
  -5   4  17    0.39    0.07
   4  -4 -17    0.16    0.05
  -4   4  17    0.20    0.06
   3  -4 -17    0.09    0.04
  -3   4  17    0.05    0.05
   2  -4 -17    1.86    0.12
  -2   4  17    1.68    0.12
   1  -4 -17    0.85    0.09
  -1   4  17    0.98    0.10
   0  -4 -17   10.31    0.29
   0   4  17   11.27    0.24
   0   4  17   11.06    0.30
  -1  -4 -17    0.06    0.05
   1   4  17    0.14    0.04
   1   4  17    0.10    0.05
  -2  -4 -17   29.75    0.61
   2   4  17   30.34    0.54
  -3  -4 -17    1.07    0.09
   3   4  17    1.05    0.07
  -4  -4 -17    8.50    0.24
   4   4  17    8.64    0.22
  -5  -4 -17    4.59    0.17
   5   4  17    4.46    0.15
  -6  -4 -17    3.77    0.15
   6   4  17    4.00    0.15
   4  -5 -17    0.86    0.08
  -4   5  17    0.72    0.09
   3  -5 -17    0.09    0.04
  -3   5  17    0.06    0.05
   2  -5 -17    1.10    0.08
  -2   5  17    1.03    0.10
   1  -5 -17    3.21    0.12
  -1   5  17    2.97    0.15
   0  -5 -17    2.95    0.15
   0   5  17    2.94    0.15
  -1  -5 -17   -0.04    0.05
   1   5  17    0.05    0.05
  -2  -5 -17    1.53    0.11
   2   5  17    1.41    0.11
  -3  -5 -17    0.25    0.06
   3   5  17    0.21    0.04
  -4  -5 -17    2.19    0.13
   4   5  17    2.67    0.11
  -5  -5 -17    1.16    0.10
   5   5  17    1.00    0.08
   3  -6 -17    0.82    0.08
  -3   6  17    0.67    0.08
   2  -6 -17    3.93    0.14
  -2   6  17    3.63    0.16
   1  -6 -17    0.31    0.05
  -1   6  17    0.24    0.06
   0  -6 -17    5.85    0.17
   0   6  17    5.91    0.21
  -1  -6 -17   34.06    0.70
   1   6  17   33.07    0.69
  -2  -6 -17    0.13    0.06
   2   6  17    0.07    0.05
  -3  -6 -17    6.56    0.23
   3   6  17    6.79    0.23
  -4  -6 -17    0.04    0.05
   4   6  17    0.11    0.06
  -5  -6 -17   14.39    0.38
   2  -7 -17   -0.06    0.04
  -2   7  17    0.01    0.04
   1  -7 -17    2.29    0.11
  -1   7  17    2.56    0.13
   0  -7 -17    7.26    0.20
   0   7  17    7.01    0.22
  -1  -7 -17    1.07    0.08
   1   7  17    1.16    0.10
   2   7  17    2.30    0.13
  -3  -7 -17    0.08    0.06
   3   7  17    0.09    0.06
  -4  -7 -17    2.13    0.14
   4   7  17    2.26    0.13
   1  -8 -17    9.29    0.24
  -1   8  17    9.08    0.24
   0  -8 -17    0.70    0.07
   0   8  17    0.45    0.07
  -1  -8 -17    3.06    0.13
   1   8  17    3.04    0.14
  -2  -8 -17    2.15    0.11
   2   8  17    2.12    0.12
   3   8  17    0.28    0.07
   2   3 -18    3.86    0.18
  -2  -3  18    3.76    0.17
  -2  -3  18    3.56    0.14
   1   3 -18   14.67    0.37
  -1  -3  18   14.86    0.36
  -1  -3  18   14.57    0.31
   0  -3  18   -0.05    0.04
   0  -3  18    0.08    0.05
   1  -3  18   21.31    0.41
   1  -3  18   21.46    0.46
  -4  -2  18    4.70    0.16
   3   2 -18    0.00    0.03
   3   2 -18    0.19    0.07
   3   2 -18    0.04    0.07
  -3  -2  18    0.02    0.05
  -3  -2  18    0.15    0.05
   2   2 -18    5.49    0.21
   2   2 -18    4.97    0.20
  -2  -2  18    5.19    0.20
  -2  -2  18    4.93    0.16
   1   2 -18    4.36    0.18
   1   2 -18    4.24    0.17
  -1  -2  18    4.23    0.17
  -1  -2  18    4.15    0.14
   0   2 -18    2.16    0.13
   0   2 -18    2.11    0.12
   0  -2  18    2.10    0.12
   0  -2  18    2.19    0.10
  -1   2 -18    1.49    0.11
   1  -2  18    1.58    0.11
   1  -2  18    1.61    0.09
  -2   2 -18    0.02    0.06
   2  -2  18    0.01    0.04
   2  -2  18    0.02    0.04
   3  -2  18    2.70    0.10
   3  -2  18    2.59    0.13
   4   1 -18    0.11    0.05
  -4  -1  18    0.07    0.05
   3   1 -18    0.02    0.04
  -3  -1  18    0.11    0.05
   2   1 -18   11.41    0.27
   2   1 -18   11.44    0.32
   2   1 -18   11.85    0.32
  -2  -1  18   11.56    0.27
  -2  -1  18   11.86    0.32
   1   1 -18   -0.01    0.05
   1   1 -18    0.07    0.05
   1   1 -18    0.07    0.03
  -1  -1  18   -0.01    0.04
  -1  -1  18    0.02    0.05
   0   1 -18   19.76    0.44
   0   1 -18   20.30    0.44
   0  -1  18   18.54    0.38
   0  -1  18   19.07    0.43
  -1   1 -18   -0.08    0.04
  -1   1 -18    0.02    0.05
   1  -1  18    0.04    0.05
   1  -1  18    0.01    0.04
  -2   1 -18   10.53    0.28
  -2   1 -18   10.24    0.28
   2  -1  18   10.11    0.23
   2  -1  18   10.36    0.28
  -3   1 -18    2.56    0.14
   3  -1  18    2.41    0.13
   3  -1  18    2.42    0.10
   4  -1  18    2.58    0.13
   4  -1  18    2.47    0.11
   4   0 -18    7.60    0.24
  -4   0  18    7.25    0.20
   3   0 -18    0.02    0.04
  -3   0  18    0.03    0.04
   2   0 -18    0.98    0.08
  -2   0  18    0.91    0.08
   1   0 -18    0.01    0.04
   1   0 -18    0.13    0.06
   1   0 -18    0.09    0.05
  -1   0  18    0.07    0.04
  -1   0  18    0.01    0.05
   0   0 -18    1.96    0.12
   0   0 -18    1.87    0.09
   0   0 -18    2.01    0.12
   0   0  18    1.90    0.10
   0   0  18    2.01    0.12
  -1   0 -18    0.92    0.09
  -1   0 -18    0.95    0.05
  -1   0 -18    0.98    0.10
   1   0  18    0.71    0.08
   1   0  18    0.94    0.07
  -2   0 -18    0.48    0.08
  -2   0 -18    0.50    0.08
   2   0  18    0.52    0.07
   2   0  18    0.54    0.06
  -3   0 -18   -0.04    0.05
  -3   0 -18    0.01    0.05
   3   0  18   -0.03    0.04
   3   0  18   -0.01    0.04
  -4   0 -18    2.38    0.14
   4   0  18    2.55    0.11
   4   0  18    2.50    0.13
   5  -1 -18    0.18    0.06
   4  -1 -18   -0.07    0.04
   3  -1 -18    0.49    0.07
  -3   1  18    0.52    0.06
   2  -1 -18    0.56    0.07
  -2   1  18    0.45    0.06
   1  -1 -18    1.82    0.10
  -1   1  18    1.78    0.09
  -1   1  18    1.82    0.12
   0  -1 -18    0.57    0.06
   0  -1 -18    0.44    0.07
   0  -1 -18    0.49    0.08
   0   1  18    0.42    0.06
   0   1  18    0.47    0.07
  -1  -1 -18    3.72    0.16
  -1  -1 -18    3.20    0.15
  -1  -1 -18    3.28    0.12
   1   1  18    3.28    0.12
   1   1  18    3.33    0.15
  -2  -1 -18    0.12    0.06
  -2  -1 -18    0.11    0.04
  -2  -1 -18    0.09    0.05
   2   1  18    0.03    0.05
   2   1  18    0.02    0.04
  -3  -1 -18    5.21    0.12
  -3  -1 -18    5.14    0.19
  -3  -1 -18    5.52    0.20
   3   1  18    5.54    0.19
   3   1  18    5.18    0.16
  -4  -1 -18    0.06    0.06
  -4  -1 -18    0.16    0.06
   4   1  18   -0.03    0.04
   4   1  18   -0.01    0.05
  -5  -1 -18    0.01    0.07
   5   1  18    0.06    0.05
   5   1  18    0.05    0.04
   4  -2 -18    1.30    0.11
  -4   2  18    1.40    0.12
   3  -2 -18    9.48    0.28
   2  -2 -18    0.32    0.06
  -2   2  18    0.41    0.06
   1  -2 -18    0.20    0.05
  -1   2  18    0.19    0.05
   0  -2 -18    0.58    0.07
   0   2  18    0.51    0.06
  -1  -2 -18    0.69    0.09
  -1  -2 -18    0.68    0.09
  -1  -2 -18    0.65    0.07
   1   2  18    0.59    0.08
   1   2  18    0.66    0.07
  -2  -2 -18    0.08    0.05
  -2  -2 -18    0.07    0.04
  -2  -2 -18   -0.05    0.05
   2   2  18   -0.06    0.04
   2   2  18    0.05    0.04
  -3  -2 -18    5.12    0.20
  -3  -2 -18    5.09    0.16
  -3  -2 -18    5.74    0.21
  -3  -2 -18    5.61    0.20
   3   2  18    5.06    0.16
   3   2  18    5.54    0.20
  -4  -2 -18    0.36    0.05
  -4  -2 -18    0.46    0.08
  -4  -2 -18    0.38    0.08
   4   2  18    0.35    0.06
   4   2  18    0.27    0.07
  -5  -2 -18    8.64    0.27
   5   2  18    8.69    0.26
   5   2  18    8.14    0.22
   4  -3 -18    0.50    0.08
  -4   3  18    0.70    0.09
   3  -3 -18    2.21    0.13
  -3   3  18    2.10    0.13
   2  -3 -18    8.34    0.25
   1  -3 -18    4.16    0.17
  -1   3  18    4.32    0.14
   0  -3 -18    0.68    0.08
   0   3  18    0.50    0.06
  -1  -3 -18    0.01    0.04
   1   3  18    0.04    0.04
  -2  -3 -18    1.01    0.09
   2   3  18    0.88    0.08
  -3  -3 -18    0.07    0.05
   3   3  18    0.07    0.04
  -4  -3 -18   16.11    0.36
   4   3  18   16.71    0.35
   4   3  18   16.51    0.40
  -5  -3 -18    0.14    0.05
   5   3  18    0.19    0.05
   5   3  18    0.17    0.06
  -4   4  18    6.17    0.22
  -3   4  18    2.68    0.14
   2  -4 -18    3.44    0.16
  -2   4  18    3.42    0.16
   1  -4 -18    0.31    0.07
  -1   4  18    0.25    0.06
   0  -4 -18    0.52    0.07
   0   4  18    0.79    0.09
  -1  -4 -18    0.62    0.08
   1   4  18    0.53    0.06
  -2  -4 -18    0.90    0.09
   2   4  18    0.91    0.07
  -3  -4 -18    0.10    0.05
   3   4  18    0.08    0.04
  -4  -4 -18    5.72    0.19
   4   4  18    5.99    0.18
  -5  -4 -18    2.90    0.13
   5   4  18    3.01    0.13
   3  -5 -18    2.11    0.10
  -3   5  18    2.02    0.12
  -2   5  18    1.41    0.11
   1  -5 -18    1.75    0.12
  -1   5  18    1.59    0.11
   0  -5 -18   17.95    0.43
   0   5  18   17.45    0.43
  -1  -5 -18    0.22    0.06
   1   5  18    0.31    0.07
  -2  -5 -18    0.76    0.09
   2   5  18    0.75    0.09
  -3  -5 -18    8.81    0.26
   3   5  18    8.74    0.22
  -4  -5 -18    4.39    0.18
   4   5  18    4.11    0.14
  -5  -5 -18   -0.01    0.05
   5   5  18    0.11    0.04
   3  -6 -18    1.21    0.09
  -3   6  18    1.15    0.10
   2  -6 -18    0.42    0.06
  -2   6  18    0.40    0.07
   1  -6 -18    4.12    0.14
  -1   6  18    4.03    0.17
   0   6  18    0.13    0.06
  -1  -6 -18   26.80    0.58
   1   6  18   24.95    0.57
  -2  -6 -18    0.75    0.09
   2   6  18    0.73    0.09
  -3  -6 -18    0.14    0.06
   3   6  18    0.10    0.05
  -4  -6 -18    0.01    0.05
   1  -7 -18    1.58    0.09
  -1   7  18    1.67    0.11
   0  -7 -18    4.79    0.16
   0   7  18    4.94    0.19
   1   7  18    1.34    0.11
   2   7  18    0.57    0.08
  -3  -7 -18    4.56    0.19
   3   7  18    4.42    0.19
   2   2 -19    0.87    0.11
  -2  -2  19    0.83    0.10
  -2  -2  19    0.88    0.08
   1   2 -19   12.96    0.34
  -1  -2  19   13.16    0.34
  -1  -2  19   12.68    0.29
   0   2 -19    0.88    0.10
   0  -2  19    0.66    0.07
   0  -2  19    0.80    0.09
   1  -2  19    0.12    0.06
   1  -2  19    0.08    0.05
   2  -2  19    2.55    0.11
   3   1 -19   15.92    0.36
  -3  -1  19   16.27    0.35
   2   1 -19    1.87    0.09
   2   1 -19    1.87    0.13
   2   1 -19    1.78    0.13
  -2  -1  19    1.80    0.12
  -2  -1  19    1.76    0.10
   1   1 -19    7.07    0.23
   1   1 -19    6.72    0.24
   1   1 -19    6.65    0.16
  -1  -1  19    6.74    0.19
  -1  -1  19    7.16    0.23
   0   1 -19    0.67    0.09
   0   1 -19    0.69    0.09
   0  -1  19    0.71    0.08
   0  -1  19    0.68    0.07
  -1   1 -19    5.41    0.20
   1  -1  19    5.68    0.20
   1  -1  19    5.43    0.16
  -2   1 -19    4.43    0.18
   2  -1  19    4.72    0.15
   2  -1  19    4.25    0.17
   3  -1  19    0.15    0.06
   3  -1  19    0.21    0.05
   4   0 -19    0.47    0.07
  -4   0  19    0.44    0.06
   3   0 -19   -0.03    0.04
  -3   0  19    0.01    0.05
   2   0 -19   12.04    0.30
  -2   0  19   12.55    0.29
   1   0 -19    0.18    0.07
   1   0 -19    0.25    0.05
   1   0 -19    0.27    0.07
  -1   0  19    0.23    0.05
  -1   0  19    0.13    0.06
   0   0 -19    7.20    0.18
   0   0 -19    7.51    0.24
   0   0 -19    8.03    0.24
   0   0  19    7.64    0.24
   0   0  19    7.39    0.20
  -1   0 -19    0.21    0.06
  -1   0 -19    0.09    0.06
   1   0  19    0.11    0.05
   1   0  19    0.03    0.05
  -2   0 -19    3.83    0.17
  -2   0 -19    3.69    0.16
   2   0  19    3.85    0.14
   2   0  19    3.70    0.16
  -3   0 -19    3.73    0.17
   3   0  19    3.64    0.16
   3   0  19    3.77    0.13
   4   0  19    0.71    0.07
   4  -1 -19    0.13    0.06
   3  -1 -19    0.22    0.06
  -3   1  19    0.25    0.05
   2  -1 -19    2.27    0.12
  -2   1  19    2.52    0.11
   1  -1 -19    0.55    0.07
  -1   1  19    0.56    0.06
   0  -1 -19   13.62    0.32
   0  -1 -19   14.26    0.36
   0  -1 -19   14.37    0.36
   0   1  19   14.00    0.35
   0   1  19   13.23    0.30
  -1  -1 -19    0.02    0.05
  -1  -1 -19    0.13    0.06
  -1  -1 -19    0.10    0.04
   1   1  19    0.06    0.04
   1   1  19    0.15    0.05
  -2  -1 -19   21.25    0.48
  -2  -1 -19   21.24    0.41
  -2  -1 -19   21.48    0.48
   2   1  19   20.69    0.42
   2   1  19   21.40    0.47
  -3  -1 -19    0.19    0.06
  -3  -1 -19    0.40    0.08
   3   1  19    0.28    0.06
   3   1  19    0.16    0.06
  -4  -1 -19    0.78    0.10
   4   1  19    0.72    0.09
   4   1  19    0.68    0.07
   4  -2 -19    3.55    0.17
  -4   2  19    3.73    0.18
   3  -2 -19    1.92    0.12
   2  -2 -19    3.32    0.15
  -2   2  19    3.44    0.13
   1  -2 -19    1.20    0.10
  -1   2  19    1.27    0.08
   0  -2 -19    0.20    0.05
   0   2  19    0.21    0.05
  -1  -2 -19    0.55    0.07
   1   2  19    0.45    0.06
  -2  -2 -19    0.37    0.06
  -2  -2 -19    0.35    0.07
  -2  -2 -19    0.42    0.08
   2   2  19    0.33    0.06
   2   2  19    0.46    0.08
  -3  -2 -19    8.27    0.26
  -3  -2 -19    8.06    0.25
  -3  -2 -19    7.81    0.20
   3   2  19    8.46    0.25
   3   2  19    7.72    0.21
  -4  -2 -19    0.48    0.08
  -4  -2 -19    0.39    0.04
  -4  -2 -19    0.36    0.09
   4   2  19    0.46    0.06
   4   2  19    0.43    0.07
   4  -3 -19   -0.07    0.05
  -4   3  19    0.01    0.05
   3  -3 -19    0.43    0.07
  -3   3  19    0.62    0.09
   2  -3 -19    0.24    0.06
  -2   3  19    0.31    0.07
   1  -3 -19    5.84    0.20
  -1   3  19    6.00    0.17
   0  -3 -19    1.17    0.10
   0   3  19    1.34    0.08
  -1  -3 -19    5.74    0.19
   1   3  19    5.80    0.17
  -2  -3 -19    0.27    0.06
   2   3  19    0.22    0.05
  -3  -3 -19    9.31    0.25
   3   3  19    9.54    0.24
  -4  -3 -19    1.61    0.10
   4   3  19    1.53    0.10
   3  -4 -19    7.23    0.25
  -3   4  19    7.07    0.24
   2  -4 -19    2.77    0.15
  -2   4  19    2.51    0.14
   1  -4 -19    2.08    0.13
  -1   4  19    2.08    0.13
   0  -4 -19    0.31    0.07
   0   4  19    0.36    0.07
  -1  -4 -19    0.17    0.06
   1   4  19    0.14    0.04
  -2  -4 -19    2.42    0.13
   2   4  19    2.36    0.11
  -3  -4 -19    0.40    0.07
   3   4  19    0.50    0.07
  -4  -4 -19    6.05    0.20
   4   4  19    6.04    0.18
  -3   5  19    8.71    0.27
  -2   5  19    1.96    0.13
   1  -5 -19    5.57    0.21
  -1   5  19    5.31    0.21
   0  -5 -19    7.53    0.25
   0   5  19    7.29    0.25
  -1  -5 -19    0.03    0.05
   1   5  19    0.05    0.05
  -2  -5 -19    8.00    0.25
  -3  -5 -19    0.26    0.07
  -4  -5 -19    5.74    0.21
   4   5  19    5.99    0.18
  -2   6  19    6.28    0.22
  -1   6  19   -0.06    0.05
   0   6  19    0.16    0.06
  -1  -6 -19    0.13    0.06
   1   6  19    0.17    0.06
  -2  -6 -19    0.12    0.06
   2   6  19    0.07    0.05
  -3  -6 -19   10.72    0.32
   3   6  19   11.40    0.33
   0   7  19   13.92    0.36
   1   7  19    1.37    0.11
   2   7  19    0.14    0.06
  -2  -1  20    0.02    0.05
   1   1 -20    6.89    0.24
  -1  -1  20    6.51    0.19
  -1  -1  20    6.66    0.23
   0   1 -20    4.24    0.19
   0  -1  20    4.22    0.18
   0  -1  20    3.88    0.14
   1  -1  20    3.35    0.13
   1  -1  20    3.43    0.16
   2   0 -20    0.37    0.06
  -2   0  20    0.34    0.06
   1   0 -20   12.90    0.29
  -1   0  20   12.91    0.35
  -1   0  20   12.48    0.29
   0   0 -20    3.16    0.17
   0   0 -20    3.02    0.10
   0   0 -20    3.22    0.16
   0   0  20    2.94    0.15
   0   0  20    2.97    0.12
  -1   0 -20    1.13    0.11
   1   0  20    1.16    0.08
   1   0  20    1.29    0.10
  -2   0 -20    0.05    0.07
   2   0  20    0.03    0.04
   2   0  20    0.01    0.05
   3  -1 -20   -0.02    0.05
  -3   1  20    0.01    0.04
   2  -1 -20    4.05    0.16
  -2   1  20    4.33    0.15
   1  -1 -20   -0.05    0.04
  -1   1  20    0.09    0.04
   0  -1 -20    0.88    0.08
   0   1  20    0.93    0.10
   0   1  20    1.21    0.08
  -1  -1 -20    0.22    0.07
  -1  -1 -20    0.20    0.04
  -1  -1 -20    0.20    0.06
   1   1  20    0.20    0.06
   1   1  20    0.18    0.05
  -2  -1 -20    4.43    0.12
  -2  -1 -20    4.71    0.20
  -2  -1 -20    4.52    0.19
   2   1  20    4.35    0.18
   2   1  20    4.47    0.15
  -3  -1 -20    2.72    0.15
   3   1  20    2.81    0.14
   3   1  20    2.59    0.12
   3  -2 -20    2.00    0.13
   2  -2 -20    5.00    0.19
  -2   2  20    5.29    0.16
   1  -2 -20    0.02    0.05
  -1   2  20   -0.04    0.04
   0  -2 -20    1.79    0.10
   0   2  20    1.60    0.09
  -1  -2 -20    2.36    0.11
   1   2  20    2.22    0.11
  -2  -2 -20    0.50    0.06
   2   2  20    0.43    0.08
   2   2  20    0.53    0.07
  -3  -2 -20    0.05    0.07
  -3  -2 -20    0.02    0.04
   3   2  20    0.02    0.05
   3   2  20    0.00    0.05
   3  -3 -20   10.44    0.31
   2  -3 -20    5.10    0.20
   1  -3 -20    3.20    0.15
   0  -3 -20    0.74    0.09
   0   3  20    0.87    0.08
  -1  -3 -20    0.78    0.08
   1   3  20    0.86    0.08
  -2  -3 -20    6.41    0.20
   2   3  20    6.53    0.19
  -3  -3 -20    2.04    0.11
   3   3  20    2.10    0.11
   2  -4 -20    0.08    0.06
  -2   4  20    0.16    0.07
   1  -4 -20    0.78    0.09
  -1   4  20    0.90    0.10
   0  -4 -20   -0.02    0.05
  -1  -4 -20    1.11    0.10
   1   4  20    1.03    0.08
  -2  -4 -20    0.17    0.06
   2   4  20    0.19    0.05
  -3  -4 -20    1.41    0.10
   3   4  20    1.43    0.09
   1  -5 -20    0.45    0.08
  -1   5  20    0.35    0.07
   0  -5 -20    0.76    0.09
   0   5  20    0.69    0.09
  -1  -5 -20    1.83    0.12
   1   5  20    1.85    0.13
  -2  -5 -20    0.10    0.06
  -3  -5 -20    1.37    0.11
   0  -6 -20    2.81    0.16
   0   6  20    2.77    0.15
  -1  -6 -20    0.32    0.07
   1   6  20    0.24    0.07
  -2  -6 -20    5.44    0.21
   2   6  20    5.76    0.22
   1  -1 -21    1.72    0.10
  -1   1  21    1.73    0.10
   0  -1 -21   13.83    0.32
   0   1  21   14.34    0.32
  -1  -1 -21    1.33    0.07
   1   1  21    1.49    0.10
   1   1  21    1.32    0.11
   1  -2 -21    1.00    0.10
  -1   2  21    1.09    0.08
   0  -2 -21    0.38    0.06
   0   2  21    0.39    0.06
  -1  -2 -21    1.22    0.09
   1   2  21    0.88    0.08
  -2  -2 -21    8.40    0.22
   2   2  21    8.18    0.22
   1  -3 -21    1.27    0.10
   0  -3 -21    0.69    0.08
   0   3  21    0.74    0.07
  -1  -3 -21    3.60    0.15
   1   3  21    3.85    0.14
  -2  -3 -21    3.26    0.14
   2   3  21    3.40    0.13
   1  -4 -21    0.03    0.05
   0  -4 -21    2.50    0.14
  -1  -4 -21    1.01    0.10
  -2  -4 -21    1.39    0.11
   2   4  21    1.49    0.09
   0   0   0    0.00    0.00
;
_shelx_hkl_checksum              22013
_olex2_submission_special_instructions 'No special instructions were received'
_publcif_funding_html
;
;
loop_
_space_group_symop_operation_xyz
'x, y, z'
'-x, -y, -z'
loop_
_atom_site_label
_atom_site_type_symbol
_atom_site_fract_x
_atom_site_fract_y
_atom_site_fract_z
_atom_site_U_iso_or_equiv
_atom_site_adp_type
_atom_site_occupancy
_atom_site_site_symmetry_order
_atom_site_calc_flag
_atom_site_refinement_flags_posn
_atom_site_refinement_flags_adp
_atom_site_refinement_flags_occupancy
_atom_site_disorder_assembly
_atom_site_disorder_group
S1 S 0.45429(4) 0.55598(4) 0.31284(2) 0.01671(8) Uani 1 1 d . . . . .
S2 S 0.04500(4) 0.24418(4) -0.15216(2) 0.01987(9) Uani 1 1 d . . . . .
F1 F 0.34950(12) 0.73037(11) 0.25969(6) 0.02877(19) Uani 1 1 d . . . . .
F2 F -0.09838(12) 0.40971(11) -0.15050(6) 0.02838(19) Uani 1 1 d . . . . .
O1 O 0.54466(13) 0.59674(13) 0.37998(6) 0.0225(2) Uani 1 1 d . . . . .
O2 O 0.56019(16) 0.47944(15) 0.25187(8) 0.0335(3) Uani 1 1 d . . . . .
O3 O -0.04002(14) 0.10502(13) -0.10576(6) 0.0241(2) Uani 1 1 d . . . . .
O4 O 0.09356(15) 0.25777(16) -0.23918(6) 0.0322(3) Uani 1 1 d . . . . .
N1 N -0.45673(16) -0.03294(15) 0.61782(7) 0.0221(2) Uani 1 1 d . . . . .
N2 N 1.00339(17) 0.22857(17) 0.22434(8) 0.0270(3) Uani 1 1 d . . . . .
C1 C 0.27142(16) 0.44685(15) 0.34930(8) 0.0165(2) Uani 1 1 d . . . . .
H1 H 0.197778 0.413804 0.310352 0.020 Uiso 1 1 calc R . . . .
C2 C 0.23442(16) 0.40933(15) 0.43273(8) 0.0149(2) Uani 1 1 d . . . . .
H2 H 0.309386 0.446371 0.469674 0.018 Uiso 1 1 calc R . . . .
C3 C 0.08490(16) 0.31428(15) 0.47085(7) 0.0139(2) Uani 1 1 d . . . . .
C4 C 0.09304(16) 0.23666(15) 0.55839(8) 0.0159(2) Uani 1 1 d . . . . .
H4 H 0.193509 0.247195 0.591823 0.019 Uiso 1 1 calc R . . . .
C5 C -0.04496(17) 0.14458(16) 0.59636(8) 0.0167(2) Uani 1 1 d . . . . .
H5 H -0.038825 0.090699 0.655581 0.020 Uiso 1 1 calc R . . . .
C6 C -0.19311(16) 0.13167(15) 0.54683(8) 0.0150(2) Uani 1 1 d . . . . .
C7 C -0.20378(17) 0.21015(16) 0.45960(8) 0.0171(2) Uani 1 1 d . . . . .
H7 H -0.305129 0.200749 0.426363 0.021 Uiso 1 1 calc R . . . .
C8 C -0.06516(17) 0.30168(16) 0.42215(8) 0.0165(2) Uani 1 1 d . . . . .
H8 H -0.072016 0.356252 0.363017 0.020 Uiso 1 1 calc R . . . .
C9 C -0.33929(17) 0.03881(16) 0.58644(8) 0.0174(2) Uani 1 1 d . . . . .
C10 C 0.22819(18) 0.27936(17) -0.09676(8) 0.0202(2) Uani 1 1 d . . . . .
H10 H 0.301480 0.364544 -0.122940 0.024 Uiso 1 1 calc R . . . .
C11 C 0.26705(17) 0.18755(16) -0.01752(8) 0.0182(2) Uani 1 1 d . . . . .
H11 H 0.186313 0.108481 0.007925 0.022 Uiso 1 1 calc R . . . .
C12 C 0.42516(17) 0.19948(16) 0.03333(8) 0.0174(2) Uani 1 1 d . . . . .
C13 C 0.57327(18) 0.28237(18) -0.00331(8) 0.0208(2) Uani 1 1 d . . . . .
H13 H 0.572750 0.333437 -0.062826 0.025 Uiso 1 1 calc R . . . .
C14 C 0.72029(18) 0.29013(17) 0.04689(8) 0.0207(2) Uani 1 1 d . . . . .
H14 H 0.820671 0.346478 0.021940 0.025 Uiso 1 1 calc R . . . .
C15 C 0.72088(18) 0.21501(17) 0.13428(8) 0.0188(2) Uani 1 1 d . . . . .
C16 C 0.57451(19) 0.13221(18) 0.17185(8) 0.0223(3) Uani 1 1 d . . . . .
H16 H 0.574995 0.082016 0.231463 0.027 Uiso 1 1 calc R . . . .
C17 C 0.42809(18) 0.12416(18) 0.12095(8) 0.0212(3) Uani 1 1 d . . . . .
H17 H 0.328478 0.066721 0.145931 0.025 Uiso 1 1 calc R . . . .
C18 C 0.87720(19) 0.22208(18) 0.18540(8) 0.0215(3) Uani 1 1 d . . . . .
loop_
_atom_site_aniso_label
_atom_site_aniso_U_11
_atom_site_aniso_U_22
_atom_site_aniso_U_33
_atom_site_aniso_U_23
_atom_site_aniso_U_13
_atom_site_aniso_U_12
S1 0.01563(14) 0.01737(15) 0.01728(15) -0.00264(11) 0.00375(11) -0.00598(11)
F1 0.0287(4) 0.0233(4) 0.0297(4) 0.0066(3) -0.0044(3) -0.0084(3)
O1 0.0186(4) 0.0268(5) 0.0231(5) -0.0033(4) -0.0002(4) -0.0104(4)
C3 0.0134(5) 0.0128(5) 0.0161(5) -0.0046(4) 0.0030(4) -0.0031(4)
C5 0.0180(5) 0.0172(5) 0.0147(5) -0.0028(4) 0.0015(4) -0.0044(4)
N1 0.0218(5) 0.0238(5) 0.0224(5) -0.0057(4) 0.0037(4) -0.0091(4)
C9 0.0182(5) 0.0165(5) 0.0186(6) -0.0056(4) 0.0014(4) -0.0036(4)
O2 0.0342(6) 0.0352(6) 0.0391(6) -0.0201(5) 0.0226(5) -0.0169(5)
C6 0.0141(5) 0.0131(5) 0.0187(5) -0.0048(4) 0.0037(4) -0.0036(4)
C2 0.0136(5) 0.0138(5) 0.0177(5) -0.0041(4) 0.0011(4) -0.0033(4)
C4 0.0147(5) 0.0180(5) 0.0159(5) -0.0046(4) 0.0002(4) -0.0044(4)
C7 0.0149(5) 0.0191(6) 0.0187(6) -0.0056(4) 0.0000(4) -0.0050(4)
C8 0.0175(5) 0.0181(5) 0.0141(5) -0.0030(4) 0.0009(4) -0.0048(4)
C1 0.0152(5) 0.0172(5) 0.0181(6) -0.0035(4) 0.0015(4) -0.0067(4)
S2 0.01979(15) 0.02484(17) 0.01587(15) -0.00321(11) -0.00080(11) -0.00825(12)
F2 0.0279(4) 0.0246(4) 0.0303(4) -0.0021(3) -0.0053(3) -0.0022(3)
O3 0.0227(5) 0.0245(5) 0.0256(5) -0.0029(4) -0.0015(4) -0.0096(4)
N2 0.0259(6) 0.0344(6) 0.0228(6) -0.0091(5) -0.0011(5) -0.0068(5)
C13 0.0205(6) 0.0274(6) 0.0144(5) -0.0031(5) 0.0018(4) -0.0069(5)
O4 0.0295(5) 0.0551(7) 0.0168(5) -0.0111(5) 0.0030(4) -0.0170(5)
C12 0.0171(5) 0.0189(6) 0.0165(5) -0.0049(4) 0.0009(4) -0.0027(4)
C15 0.0185(6) 0.0214(6) 0.0177(6) -0.0075(5) -0.0002(4) -0.0019(5)
C18 0.0225(6) 0.0245(6) 0.0186(6) -0.0071(5) 0.0023(5) -0.0038(5)
C10 0.0195(6) 0.0256(6) 0.0172(6) -0.0046(5) 0.0006(4) -0.0096(5)
C17 0.0201(6) 0.0258(6) 0.0173(6) -0.0025(5) 0.0035(5) -0.0068(5)
C14 0.0185(6) 0.0260(6) 0.0186(6) -0.0050(5) 0.0026(5) -0.0078(5)
C16 0.0239(6) 0.0282(7) 0.0144(5) -0.0032(5) 0.0009(5) -0.0053(5)
C11 0.0175(5) 0.0204(6) 0.0176(6) -0.0051(4) 0.0030(4) -0.0055(4)
loop_
_atom_type_symbol
_atom_type_description
_atom_type_scat_dispersion_real
_atom_type_scat_dispersion_imag
_atom_type_scat_source
C C 0.0033 0.0016 'International Tables Vol C Tables 4.2.6.8 and 6.1.1.4'
H H 0.0000 0.0000 'International Tables Vol C Tables 4.2.6.8 and 6.1.1.4'
F F 0.0171 0.0103 'International Tables Vol C Tables 4.2.6.8 and 6.1.1.4'
N N 0.0061 0.0033 'International Tables Vol C Tables 4.2.6.8 and 6.1.1.4'
O O 0.0106 0.0060 'International Tables Vol C Tables 4.2.6.8 and 6.1.1.4'
S S 0.1246 0.1234 'International Tables Vol C Tables 4.2.6.8 and 6.1.1.4'
loop_
_geom_angle_atom_site_label_1
_geom_angle_atom_site_label_2
_geom_angle_atom_site_label_3
_geom_angle
_geom_angle_site_symmetry_1
_geom_angle_site_symmetry_3
F1 S1 C1 101.33(5) . .
O1 S1 F1 105.98(6) . .
O1 S1 O2 120.23(7) . .
O1 S1 C1 112.01(6) . .
O2 S1 F1 104.93(7) . .
O2 S1 C1 110.24(6) . .
C4 C3 C2 118.67(11) . .
C8 C3 C2 121.55(11) . .
C8 C3 C4 119.78(11) . .
C6 C5 H5 120.3 . .
C4 C5 H5 120.3 . .
C4 C5 C6 119.41(11) . .
N1 C9 C6 179.14(13) . .
C5 C6 C9 119.64(11) . .
C5 C6 C7 120.90(11) . .
C7 C6 C9 119.46(11) . .
C3 C2 H2 118.0 . .
C1 C2 C3 123.90(11) . .
C1 C2 H2 118.0 . .
C3 C4 H4 119.9 . .
C5 C4 C3 120.21(11) . .
C5 C4 H4 119.9 . .
C6 C7 H7 120.3 . .
C8 C7 C6 119.31(11) . .
C8 C7 H7 120.3 . .
C3 C8 H8 119.8 . .
C7 C8 C3 120.38(11) . .
C7 C8 H8 119.8 . .
S1 C1 H1 120.3 . .
C2 C1 S1 119.32(9) . .
C2 C1 H1 120.3 . .
F2 S2 C10 100.53(6) . .
O3 S2 F2 105.41(6) . .
O3 S2 O4 120.95(7) . .
O3 S2 C10 112.10(6) . .
O4 S2 F2 105.46(6) . .
O4 S2 C10 109.99(6) . .
C12 C13 H13 119.9 . .
C14 C13 H13 119.9 . .
C14 C13 C12 120.17(12) . .
C13 C12 C11 121.99(11) . .
C17 C12 C13 119.33(12) . .
C17 C12 C11 118.68(11) . .
C14 C15 C18 119.00(12) . .
C16 C15 C18 120.23(12) . .
C16 C15 C14 120.76(12) . .
N2 C18 C15 178.50(14) . .
S2 C10 H10 119.9 . .
C11 C10 S2 120.24(10) . .
C11 C10 H10 119.9 . .
C12 C17 H17 119.6 . .
C16 C17 C12 120.87(12) . .
C16 C17 H17 119.6 . .
C13 C14 C15 119.84(12) . .
C13 C14 H14 120.1 . .
C15 C14 H14 120.1 . .
C15 C16 H16 120.5 . .
C17 C16 C15 119.02(12) . .
C17 C16 H16 120.5 . .
C12 C11 H11 117.6 . .
C10 C11 C12 124.81(12) . .
C10 C11 H11 117.6 . .
loop_
_geom_bond_atom_site_label_1
_geom_bond_atom_site_label_2
_geom_bond_distance
_geom_bond_site_symmetry_2
S1 F1 1.5623(9) .
S1 O1 1.4148(10) .
S1 O2 1.4224(10) .
S1 C1 1.7243(12) .
C3 C2 1.4665(15) .
C3 C4 1.4007(16) .
C3 C8 1.3981(16) .
C5 H5 0.9500 .
C5 C6 1.3958(17) .
C5 C4 1.3853(16) .
N1 C9 1.1458(17) .
C9 C6 1.4440(16) .
C6 C7 1.3980(17) .
C2 H2 0.9500 .
C2 C1 1.3332(17) .
C4 H4 0.9500 .
C7 H7 0.9500 .
C7 C8 1.3840(16) .
C8 H8 0.9500 .
C1 H1 0.9500 .
S2 F2 1.5668(9) .
S2 O3 1.4156(10) .
S2 O4 1.4162(10) .
S2 C10 1.7274(13) .
N2 C18 1.1457(19) .
C13 H13 0.9500 .
C13 C12 1.3999(17) .
C13 C14 1.3825(18) .
C12 C17 1.3983(17) .
C12 C11 1.4650(17) .
C15 C18 1.4447(18) .
C15 C14 1.3951(18) .
C15 C16 1.3933(18) .
C10 H10 0.9500 .
C10 C11 1.3314(18) .
C17 H17 0.9500 .
C17 C16 1.3869(18) .
C14 H14 0.9500 .
C16 H16 0.9500 .
C11 H11 0.9500 .
loop_
_geom_torsion_atom_site_label_1
_geom_torsion_atom_site_label_2
_geom_torsion_atom_site_label_3
_geom_torsion_atom_site_label_4
_geom_torsion
_geom_torsion_site_symmetry_1
_geom_torsion_site_symmetry_2
_geom_torsion_site_symmetry_3
_geom_torsion_site_symmetry_4
F1 S1 C1 C2 -113.71(11) . . . .
O1 S1 C1 C2 -1.14(13) . . . .
C3 C2 C1 S1 -178.77(9) . . . .
C5 C6 C7 C8 0.02(18) . . . .
C9 C6 C7 C8 178.84(11) . . . .
O2 S1 C1 C2 135.56(11) . . . .
C6 C5 C4 C3 -0.77(18) . . . .
C6 C7 C8 C3 0.57(18) . . . .
C2 C3 C4 C5 -179.42(11) . . . .
C2 C3 C8 C7 179.54(11) . . . .
C4 C3 C2 C1 160.57(12) . . . .
C4 C3 C8 C7 -1.26(18) . . . .
C4 C5 C6 C9 -178.74(11) . . . .
C4 C5 C6 C7 0.07(18) . . . .
C8 C3 C2 C1 -20.23(19) . . . .
C8 C3 C4 C5 1.36(18) . . . .
S2 C10 C11 C12 176.23(10) . . . .
F2 S2 C10 C11 107.39(12) . . . .
O3 S2 C10 C11 -4.15(14) . . . .
C13 C12 C17 C16 0.7(2) . . . .
C13 C12 C11 C10 -14.0(2) . . . .
O4 S2 C10 C11 -141.75(12) . . . .
C12 C13 C14 C15 0.0(2) . . . .
C12 C17 C16 C15 -0.8(2) . . . .
C18 C15 C14 C13 179.01(12) . . . .
C18 C15 C16 C17 -178.64(12) . . . .
C17 C12 C11 C10 166.56(13) . . . .
C14 C13 C12 C17 -0.3(2) . . . .
C14 C13 C12 C11 -179.71(12) . . . .
C14 C15 C16 C17 0.5(2) . . . .
C16 C15 C14 C13 -0.1(2) . . . .
C11 C12 C17 C16 -179.89(12) . . . .
