#------------------------------------------------------------------------------
#$Date: 2022-05-04 11:36:19 +0300 (Wed, 04 May 2022) $
#$Revision: 274880 $
#$URL: file:///home/coder/svn-repositories/cod/cif/8/10/51/8105137.cif $
#------------------------------------------------------------------------------
#
# This file is available in the Crystallography Open Database (COD),
# http://www.crystallography.net/
#
# All data on this site have been placed in the public domain by the
# contributors.
#
data_8105137
loop_
_publ_author_name
'Zhang, Ji-Run'
'Deng, Hao'
'Liu, Tong'
_publ_section_title
;
 The crystal structure of
 3-bromo-6-methoxy-2-methyl-5-(4,4,5,5-tetramethyl-1,3,2-dioxaborolan-2-yl)pyridine,
 C13H19BBrNO3
;
_journal_issue                   2
_journal_name_full
'Zeitschrift f\"ur Kristallographie - New Crystal Structures'
_journal_page_first              451
_journal_page_last               452
_journal_paper_doi               10.1515/ncrs-2019-0756
_journal_volume                  235
_journal_year                    2020
_chemical_formula_moiety         'C13 H19 B Br N O3'
_chemical_formula_sum            'C13 H19 B Br N O3'
_chemical_formula_weight         328.01
_space_group_crystal_system      triclinic
_space_group_IT_number           2
_space_group_name_Hall           '-P 1'
_space_group_name_H-M_alt        'P -1'
_atom_sites_solution_hydrogens   geom
_atom_sites_solution_primary     dual
_cell_angle_alpha                106.938(2)
_cell_angle_beta                 105.657(2)
_cell_angle_gamma                106.628(2)
_cell_formula_units_Z            2
_cell_length_a                   6.5459(3)
_cell_length_b                   11.2565(5)
_cell_length_c                   11.8529(5)
_cell_measurement_reflns_used    5055
_cell_measurement_temperature    173
_cell_measurement_theta_max      27.424
_cell_measurement_theta_min      3.300
_cell_volume                     738.71(6)
_computing_cell_refinement       'SAINT V8.38A (?, 2016)'
_computing_data_reduction        'SAINT V8.38A (?, 2016)'
_computing_molecular_graphics    'Olex2 (Dolomanov et al., 2009)'
_computing_publication_material  'Olex2 (Dolomanov et al., 2009)'
_computing_structure_refinement  'ShelXL (Sheldrick, 2015)'
_computing_structure_solution    'ShelXT (Sheldrick, 2015)'
_diffrn_ambient_temperature      173.0
_diffrn_measured_fraction_theta_full 0.988
_diffrn_measured_fraction_theta_max 0.984
_diffrn_measurement_device_type  'Bruker APEX-II CCD'
_diffrn_measurement_method       '\f and \w scans'
_diffrn_radiation_type           MoK\a
_diffrn_radiation_wavelength     0.71073
_diffrn_reflns_av_R_equivalents  0.0305
_diffrn_reflns_av_unetI/netI     0.0375
_diffrn_reflns_Laue_measured_fraction_full 0.988
_diffrn_reflns_Laue_measured_fraction_max 0.984
_diffrn_reflns_limit_h_max       8
_diffrn_reflns_limit_h_min       -8
_diffrn_reflns_limit_k_max       14
_diffrn_reflns_limit_k_min       -14
_diffrn_reflns_limit_l_max       15
_diffrn_reflns_limit_l_min       -15
_diffrn_reflns_number            9092
_diffrn_reflns_point_group_measured_fraction_full 0.988
_diffrn_reflns_point_group_measured_fraction_max 0.984
_diffrn_reflns_theta_full        25.242
_diffrn_reflns_theta_max         27.531
_diffrn_reflns_theta_min         3.300
_diffrn_standards_number         0
_exptl_absorpt_coefficient_mu    2.785
_exptl_absorpt_correction_T_max  0.7456
_exptl_absorpt_correction_T_min  0.4870
_exptl_absorpt_correction_type   multi-scan
_exptl_absorpt_process_details
'SADABS-2016/2 (Bruker,2016/2) was used for absorption correction. wR2(int) was 0.1029 before and 0.0426 after correction. The Ratio of minimum to maximum transmission is 0.6532. The \l/2 correction factor is Not present.'
_exptl_crystal_colour            colourless
_exptl_crystal_colour_primary    colourless
_exptl_crystal_density_diffrn    1.475
_exptl_crystal_description       block
_exptl_crystal_F_000             336
_exptl_crystal_size_max          0.16
_exptl_crystal_size_mid          0.11
_exptl_crystal_size_min          0.08
_refine_diff_density_max         0.298
_refine_diff_density_min         -0.328
_refine_diff_density_rms         0.056
_refine_ls_extinction_coef       .
_refine_ls_extinction_method     none
_refine_ls_goodness_of_fit_ref   1.031
_refine_ls_hydrogen_treatment    constr
_refine_ls_matrix_type           full
_refine_ls_number_parameters     178
_refine_ls_number_reflns         3356
_refine_ls_number_restraints     0
_refine_ls_restrained_S_all      1.031
_refine_ls_R_factor_all          0.0369
_refine_ls_R_factor_gt           0.0286
_refine_ls_shift/su_max          0.001
_refine_ls_shift/su_mean         0.000
_refine_ls_structure_factor_coef Fsqd
_refine_ls_weighting_details
'w=1/[\s^2^(Fo^2^)+(0.0245P)^2^+0.2508P] where P=(Fo^2^+2Fc^2^)/3'
_refine_ls_weighting_scheme      calc
_refine_ls_wR_factor_gt          0.0607
_refine_ls_wR_factor_ref         0.0641
_reflns_Friedel_coverage         0.000
_reflns_Friedel_fraction_full    .
_reflns_Friedel_fraction_max     .
_reflns_number_gt                2931
_reflns_number_total             3356
_reflns_threshold_expression     'I > 2\s(I)'
_iucr_refine_instructions_details
;
TITL 0902jt60_0m_a.res in P-1
    0902jt60_0m.res
    created by SHELXL-2018/3 at 19:31:57 on 02-Sep-2019
REM Old TITL 0902JT60_0m in P1
REM SHELXT solution in P-1
REM R1 0.112, Rweak 0.013, Alpha 0.047, Orientation as input
REM Formula found by SHELXT: C14 N O3 Br
CELL 0.71073 6.5459 11.2565 11.8529 106.938 105.657 106.628
ZERR 2 0.0003 0.0005 0.0005 0.002 0.002 0.002
LATT 1
SFAC C H B Br N O
UNIT 26 38 2 2 2 6

L.S. 20
PLAN  20
SIZE 0.16 0.11 0.08
TEMP -100.15
BOND $H
list 4
fmap 2
ACTA
REM <olex2.extras>
REM <HklSrc "%.\\0902JT60_0m.hkl">
REM </olex2.extras>

WGHT    0.024500    0.250800
FVAR       1.24528
BR1   4    0.481036    0.293299    0.012501    11.00000    0.04471    0.04105 =
         0.02451    0.01680    0.01059    0.01845
O1    6    0.804232    0.240999    0.570726    11.00000    0.02905    0.03331 =
         0.02008    0.01098    0.01348    0.01466
O2    6    0.545000    0.322681    0.487295    11.00000    0.03077    0.03298 =
         0.01923    0.00921    0.01096    0.01504
O3    6    0.916884    0.082449    0.373577    11.00000    0.03309    0.03136 =
         0.02337    0.01247    0.01270    0.01618
N1    5    0.848669    0.105107    0.182095    11.00000    0.02794    0.02636 =
         0.02196    0.00772    0.01184    0.00767
C3    1    0.620171    0.224795    0.127493    11.00000    0.02803    0.02588 =
         0.02027    0.01012    0.00737    0.00612
C4    1    0.593519    0.253117    0.243552    11.00000    0.02804    0.02484 =
         0.02437    0.00925    0.01080    0.00871
AFIX  43
H4    2    0.503053    0.302869    0.262392    11.00000   -1.20000
AFIX   0
C6    1    0.822080    0.132266    0.292627    11.00000    0.02367    0.02086 =
         0.02039    0.00693    0.00755    0.00321
C2    1    0.751387    0.152112    0.098840    11.00000    0.02708    0.02655 =
         0.01998    0.00816    0.01007    0.00511
C5    1    0.698447    0.209080    0.332236    11.00000    0.02496    0.02285 =
         0.02085    0.00775    0.01045    0.00572
C9    1    0.719100    0.289048    0.670331    11.00000    0.02452    0.02998 =
         0.01870    0.00772    0.01138    0.00951
C10   1    0.609580    0.382218    0.626075    11.00000    0.02582    0.02750 =
         0.01839    0.00554    0.00910    0.00817
C12   1    0.392837    0.379181    0.650805    11.00000    0.03262    0.04103 =
         0.03087    0.00940    0.01627    0.01725
AFIX 137
H12A  2    0.335480    0.439467    0.619151    11.00000   -1.50000
H12B  2    0.428760    0.409383    0.742832    11.00000   -1.50000
H12C  2    0.274290    0.286730    0.606405    11.00000   -1.50000
AFIX   0
C14   1    0.543863    0.164494    0.666747    11.00000    0.03635    0.03377 =
         0.02733    0.01375    0.01688    0.00941
AFIX 137
H14A  2    0.414104    0.119498    0.583598    11.00000   -1.50000
H14B  2    0.487182    0.191329    0.734652    11.00000   -1.50000
H14C  2    0.617113    0.102204    0.679675    11.00000   -1.50000
AFIX   0
C7    1    1.033271   -0.001422    0.330809    11.00000    0.03304    0.03482 =
         0.02864    0.01074    0.01123    0.01768
AFIX 137
H7A   2    0.929361   -0.074235    0.247196    11.00000   -1.50000
H7B   2    1.078136   -0.040533    0.392499    11.00000   -1.50000
H7C   2    1.171592    0.053372    0.323600    11.00000   -1.50000
AFIX   0
C1    1    0.796188    0.121691   -0.021881    11.00000    0.04269    0.04443 =
         0.02497    0.01540    0.01861    0.01652
AFIX 137
H1A   2    0.888080    0.206264   -0.023754    11.00000   -1.50000
H1B   2    0.648763    0.076348   -0.095781    11.00000   -1.50000
H1C   2    0.880997    0.062582   -0.024993    11.00000   -1.50000
AFIX   0
C13   1    0.922350    0.360955    0.797877    11.00000    0.03234    0.04383 =
         0.02361    0.01092    0.00846    0.01364
AFIX 137
H13A  2    0.985013    0.296413    0.816562    11.00000   -1.50000
H13B  2    0.871152    0.399121    0.865187    11.00000   -1.50000
H13C  2    1.042345    0.433840    0.794377    11.00000   -1.50000
AFIX   0
C11   1    0.780190    0.526930    0.673384    11.00000    0.03696    0.02700 =
         0.03737    0.00999    0.01443    0.00899
AFIX 137
H11A  2    0.918540    0.526928    0.656276    11.00000   -1.50000
H11B  2    0.823345    0.572655    0.765534    11.00000   -1.50000
H11C  2    0.708844    0.574643    0.628886    11.00000   -1.50000
AFIX   0
B1    3    0.683177    0.255184    0.466225    11.00000    0.02392    0.02351 =
         0.02187    0.00945    0.01017    0.00620
HKLF 4




REM  0902jt60_0m_a.res in P-1
REM wR2 = 0.0641, GooF = S = 1.031, Restrained GooF = 1.031 for all data
REM R1 = 0.0286 for 2931 Fo > 4sig(Fo) and 0.0369 for all 3356 data
REM 178 parameters refined using 0 restraints

END  
     
WGHT      0.0237      0.2558 

REM Highest difference peak  0.298,  deepest hole -0.328,  1-sigma level  0.056
Q1    1   0.7716  0.1364  0.0426  11.00000  0.05    0.30
Q2    1   0.7057  0.2408  0.4033  11.00000  0.05    0.30
Q3    1   0.4309  0.3414  0.0714  11.00000  0.05    0.29
Q4    1   0.6624  0.3329  0.6471  11.00000  0.05    0.27
Q5    1   0.7674  0.1812  0.3068  11.00000  0.05    0.27
Q6    1   0.5321  0.2243 -0.0662  11.00000  0.05    0.26
Q7    1   0.5830  0.3594  0.5566  11.00000  0.05    0.26
Q8    1   0.6251  0.2241  0.6599  11.00000  0.05    0.25
Q9    1   0.5611  0.2064  0.1711  11.00000  0.05    0.25
Q10   1   0.3092  0.2788 -0.0960  11.00000  0.05    0.25
Q11   1   0.7496  0.1882 -0.0557  11.00000  0.05    0.24
Q12   1   0.4683  0.2840 -0.0872  11.00000  0.05    0.23
Q13   1   0.6672  0.2369  0.2960  11.00000  0.05    0.23
Q14   1   0.5992  0.1664  0.0904  11.00000  0.05    0.23
Q15   1   0.6811  0.4489  0.6343  11.00000  0.05    0.23
Q16   1   0.8013  0.1068  0.2219  11.00000  0.05    0.22
Q17   1   1.0072  0.1725  0.0085  11.00000  0.05    0.21
Q18   1   0.7512  0.2751  0.6355  11.00000  0.05    0.21
Q19   1   0.5283  0.3020  0.1178  11.00000  0.05    0.20
Q20   1   0.4608  0.3767  0.1623  11.00000  0.05    0.19

  REM The information below was added by Olex2.
  REM
  REM R1 = 0.0286 for 2931 Fo > 4sig(Fo) and 0.0369 for all 9092 data
  REM n/a parameters refined using n/a restraints
  REM Highest difference peak 0.30, deepest hole -0.33
  REM Mean Shift 0, Max Shift 0.001.

  REM +++ Tabular Listing of Refinement Information +++
  REM R1_all = 0.0369
  REM R1_gt = 0.0286
  REM wR_ref = 0.0641
  REM GOOF = 1.031
  REM Shift_max = 0.001
  REM Shift_mean = 0
  REM Reflections_all = 9092
  REM Reflections_gt = 2931
  REM Parameters = n/a
  REM Hole = -0.33
  REM Peak = 0.30
  REM Flack = n/a

  
;
_cod_data_source_file            suppl_ncrs-2019-0756_suppl.cif
_cod_data_source_block           0902jt60_0m
_cod_database_code               8105137
_shelx_space_group_comment
;
The symmetry employed for this shelxl refinement is uniquely defined
by the following loop, which should always be used as a source of
symmetry information in preference to the above space-group names.
They are only intended as comments.
;
_shelx_estimated_absorpt_t_max   0.808
_shelx_estimated_absorpt_t_min   0.664
_olex2_refinement_description
;
1. Fixed Uiso
 At 1.2 times of:
  All C(H) groups
 At 1.5 times of:
  All C(H,H,H) groups
2.a Aromatic/amide H refined with riding coordinates:
 C4(H4)
2.b Idealised Me refined as rotating group:
 C12(H12A,H12B,H12C), C14(H14A,H14B,H14C), C7(H7A,H7B,H7C), C1(H1A,H1B,H1C),
 C13(H13A,H13B,H13C), C11(H11A,H11B,H11C)
;
_shelx_res_file
;

TITL 0902jt60_0m_a.res in P-1
REM Old TITL 0902JT60_0m in P1
REM SHELXT solution in P-1
REM R1 0.112, Rweak 0.013, Alpha 0.047, Orientation as input
REM Formula found by SHELXT: C14 N O3 Br
CELL 0.71073 6.5459 11.2565 11.8529 106.938 105.657 106.628
ZERR 2 0.0003 0.0005 0.0005 0.002 0.002 0.002
LATT 1
SFAC C H B Br N O
UNIT 26 38 2 2 2 6

L.S. 20
PLAN  20
SIZE 0.16 0.11 0.08
TEMP -100.15
BOND $H
list 4
fmap 2
ACTA 
WGHT 0.0245 0.2508
FVAR 1.24615
REM <olex2.extras>
REM <HklSrc "%.\\0902JT60_0m.hkl"
REM </olex2.extras>

Br1   4     0.48104  0.29330  0.01250  11.00000  0.04475  0.04105  0.02452 =
 0.01679  0.01061  0.01845 
O1    6     0.80422  0.24099  0.57072  11.00000  0.02911  0.03330  0.01993 =
 0.01086  0.01341  0.01457 
O2    6     0.54495  0.32263  0.48727  11.00000  0.03076  0.03298  0.01941 =
 0.00929  0.01096  0.01495 
O3    6     0.91684  0.08244  0.37357  11.00000  0.03319  0.03151  0.02339 =
 0.01249  0.01272  0.01616 
N1    5     0.84859  0.10509  0.18207  11.00000  0.02801  0.02653  0.02210 =
 0.00774  0.01193  0.00769 
C3    1     0.62012  0.22484  0.12747  11.00000  0.02820  0.02626  0.02038 =
 0.01027  0.00769  0.00636 
C4    1     0.59349  0.25320  0.24359  11.00000  0.02826  0.02509  0.02419 =
 0.00927  0.01081  0.00884 
AFIX 43
H4    2     0.50309  0.30298  0.26247  11.00000 -1.20000 
AFIX 0
C6    1     0.82216  0.13226  0.29267  11.00000  0.02395  0.02108  0.02040 =
 0.00698  0.00766  0.00346 
C2    1     0.75143  0.15214  0.09889  11.00000  0.02737  0.02691  0.02008 =
 0.00831  0.01022  0.00547 
C5    1     0.69843  0.20909  0.33223  11.00000  0.02526  0.02321  0.02066 =
 0.00777  0.01061  0.00600 
C9    1     0.71912  0.28903  0.67034  11.00000  0.02452  0.02994  0.01873 =
 0.00769  0.01125  0.00936 
C10   1     0.60963  0.38223  0.62608  11.00000  0.02593  0.02748  0.01848 =
 0.00555  0.00919  0.00812 
C12   1     0.39283  0.37918  0.65080  11.00000  0.03250  0.04112  0.03096 =
 0.00943  0.01620  0.01726 
AFIX 137
H12a  2     0.33573  0.43967  0.61936  11.00000 -1.50000 
H12b  2     0.42864  0.40913  0.74280  11.00000 -1.50000 
H12c  2     0.27414  0.28678  0.60618  11.00000 -1.50000 
AFIX 0
C14   1     0.54384  0.16448  0.66676  11.00000  0.03638  0.03404  0.02760 =
 0.01392  0.01699  0.00941 
AFIX 137
H14a  2     0.41420  0.11941  0.58356  11.00000 -1.50000 
H14b  2     0.48699  0.19135  0.73458  11.00000 -1.50000 
H14c  2     0.61713  0.10225  0.67983  11.00000 -1.50000 
AFIX 0
C7    1     1.03333 -0.00141  0.33082  11.00000  0.03315  0.03477  0.02856 =
 0.01068  0.01128  0.01763 
AFIX 137
H7a   2     0.92950 -0.07419  0.24718  11.00000 -1.50000 
H7b   2     1.07812 -0.04056  0.39248  11.00000 -1.50000 
H7c   2     1.17170  0.05343  0.32368  11.00000 -1.50000 
AFIX 0
C1    1     0.79620  0.12167 -0.02190  11.00000  0.04280  0.04449  0.02492 =
 0.01539  0.01868  0.01650 
AFIX 137
H1a   2     0.88826  0.20622 -0.02374  11.00000 -1.50000 
H1b   2     0.64877  0.07643 -0.09579  11.00000 -1.50000 
H1c   2     0.88082  0.06246 -0.02507  11.00000 -1.50000 
AFIX 0
C13   1     0.92239  0.36096  0.79789  11.00000  0.03238  0.04387  0.02347 =
 0.01087  0.00831  0.01350 
AFIX 137
H13a  2     0.98537  0.29649  0.81645  11.00000 -1.50000 
H13b  2     0.87108  0.39887  0.86524  11.00000 -1.50000 
H13c  2     1.04216  0.43403  0.79447  11.00000 -1.50000 
AFIX 0
C11   1     0.78020  0.52695  0.67337  11.00000  0.03709  0.02677  0.03750 =
 0.00990  0.01448  0.00887 
AFIX 137
H11a  2     0.91858  0.52696  0.65629  11.00000 -1.50000 
H11b  2     0.82332  0.57270  0.76551  11.00000 -1.50000 
H11c  2     0.70885  0.57464  0.62884  11.00000 -1.50000 
AFIX 0
B1    3     0.68315  0.25520  0.46626  11.00000  0.02405  0.02373  0.02158 =
 0.00938  0.01017  0.00628 
HKLF 4

END
;
loop_
_space_group_symop_operation_xyz
'x, y, z'
'-x, -y, -z'
loop_
_atom_site_label
_atom_site_type_symbol
_atom_site_fract_x
_atom_site_fract_y
_atom_site_fract_z
_atom_site_U_iso_or_equiv
_atom_site_adp_type
_atom_site_occupancy
_atom_site_site_symmetry_order
_atom_site_calc_flag
_atom_site_refinement_flags_posn
_atom_site_refinement_flags_adp
_atom_site_refinement_flags_occupancy
_atom_site_disorder_assembly
_atom_site_disorder_group
B1 B 0.6832(4) 0.2552(2) 0.46623(19) 0.0235(4) Uani 1 1 d . . . . .
Br1 Br 0.48104(4) 0.29330(2) 0.01250(2) 0.03610(8) Uani 1 1 d . . . . .
C1 C 0.7962(4) 0.1217(2) -0.02188(18) 0.0359(5) Uani 1 1 d . . . . .
H1A H 0.888080 0.206264 -0.023754 0.054 Uiso 1 1 calc GR . . . .
H1B H 0.648763 0.076348 -0.095781 0.054 Uiso 1 1 calc GR . . . .
H1C H 0.880997 0.062582 -0.024993 0.054 Uiso 1 1 calc GR . . . .
C2 C 0.7514(3) 0.15211(19) 0.09884(17) 0.0259(4) Uani 1 1 d . . . . .
C3 C 0.6202(3) 0.22479(19) 0.12749(17) 0.0261(4) Uani 1 1 d . . . . .
C4 C 0.5935(3) 0.25312(19) 0.24355(17) 0.0262(4) Uani 1 1 d . . . . .
H4 H 0.503053 0.302869 0.262392 0.031 Uiso 1 1 calc R . . . .
C5 C 0.6984(3) 0.20908(18) 0.33224(16) 0.0237(4) Uani 1 1 d . . . . .
C6 C 0.8221(3) 0.13227(18) 0.29263(16) 0.0236(4) Uani 1 1 d . . . . .
C7 C 1.0333(4) -0.0014(2) 0.33081(19) 0.0318(4) Uani 1 1 d . . . . .
H7A H 0.929361 -0.074235 0.247196 0.048 Uiso 1 1 calc GR . . . .
H7B H 1.078136 -0.040533 0.392499 0.048 Uiso 1 1 calc GR . . . .
H7C H 1.171592 0.053372 0.323600 0.048 Uiso 1 1 calc GR . . . .
C9 C 0.7191(3) 0.28905(19) 0.67033(16) 0.0245(4) Uani 1 1 d . . . . .
C10 C 0.6096(3) 0.38222(19) 0.62608(16) 0.0253(4) Uani 1 1 d . . . . .
C11 C 0.7802(4) 0.5269(2) 0.6734(2) 0.0354(5) Uani 1 1 d . . . . .
H11A H 0.918540 0.526928 0.656276 0.053 Uiso 1 1 calc GR . . . .
H11B H 0.823345 0.572655 0.765534 0.053 Uiso 1 1 calc GR . . . .
H11C H 0.708844 0.574643 0.628886 0.053 Uiso 1 1 calc GR . . . .
C12 C 0.3928(4) 0.3792(2) 0.65081(19) 0.0345(5) Uani 1 1 d . . . . .
H12A H 0.335480 0.439467 0.619151 0.052 Uiso 1 1 calc GR . . . .
H12B H 0.428760 0.409383 0.742832 0.052 Uiso 1 1 calc GR . . . .
H12C H 0.274290 0.286730 0.606405 0.052 Uiso 1 1 calc GR . . . .
C13 C 0.9224(4) 0.3610(2) 0.79788(18) 0.0348(5) Uani 1 1 d . . . . .
H13A H 0.985013 0.296413 0.816562 0.052 Uiso 1 1 calc GR . . . .
H13B H 0.871152 0.399121 0.865187 0.052 Uiso 1 1 calc GR . . . .
H13C H 1.042345 0.433840 0.794377 0.052 Uiso 1 1 calc GR . . . .
C14 C 0.5439(4) 0.1645(2) 0.66675(18) 0.0321(4) Uani 1 1 d . . . . .
H14A H 0.414104 0.119498 0.583598 0.048 Uiso 1 1 calc GR . . . .
H14B H 0.487182 0.191329 0.734652 0.048 Uiso 1 1 calc GR . . . .
H14C H 0.617113 0.102204 0.679675 0.048 Uiso 1 1 calc GR . . . .
N1 N 0.8487(3) 0.10511(16) 0.18210(14) 0.0262(3) Uani 1 1 d . . . . .
O1 O 0.8042(2) 0.24100(13) 0.57073(11) 0.0259(3) Uani 1 1 d . . . . .
O2 O 0.5450(2) 0.32268(13) 0.48730(11) 0.0271(3) Uani 1 1 d . . . . .
O3 O 0.9169(2) 0.08245(13) 0.37358(12) 0.0276(3) Uani 1 1 d . . . . .
loop_
_atom_site_aniso_label
_atom_site_aniso_U_11
_atom_site_aniso_U_22
_atom_site_aniso_U_33
_atom_site_aniso_U_23
_atom_site_aniso_U_13
_atom_site_aniso_U_12
Br1 0.04471(14) 0.04105(14) 0.02451(11) 0.01680(9) 0.01059(9) 0.01845(10)
O1 0.0290(7) 0.0333(7) 0.0201(6) 0.0110(6) 0.0135(5) 0.0147(6)
O2 0.0308(7) 0.0330(7) 0.0192(6) 0.0092(6) 0.0110(5) 0.0150(6)
O3 0.0331(7) 0.0314(7) 0.0234(7) 0.0125(6) 0.0127(5) 0.0162(6)
N1 0.0279(8) 0.0264(8) 0.0220(8) 0.0077(7) 0.0118(6) 0.0077(7)
C3 0.0280(10) 0.0259(10) 0.0203(9) 0.0101(8) 0.0074(7) 0.0061(8)
C4 0.0280(10) 0.0248(10) 0.0244(9) 0.0092(8) 0.0108(8) 0.0087(8)
C6 0.0237(9) 0.0209(9) 0.0204(9) 0.0069(7) 0.0075(7) 0.0032(8)
C2 0.0271(10) 0.0265(10) 0.0200(9) 0.0082(8) 0.0101(7) 0.0051(8)
C5 0.0250(9) 0.0228(9) 0.0208(9) 0.0078(8) 0.0105(7) 0.0057(8)
C9 0.0245(9) 0.0300(10) 0.0187(9) 0.0077(8) 0.0114(7) 0.0095(8)
C10 0.0258(10) 0.0275(10) 0.0184(9) 0.0055(8) 0.0091(7) 0.0082(8)
C12 0.0326(11) 0.0410(12) 0.0309(11) 0.0094(9) 0.0163(9) 0.0173(10)
C14 0.0364(11) 0.0338(11) 0.0273(10) 0.0138(9) 0.0169(8) 0.0094(9)
C7 0.0330(11) 0.0348(11) 0.0286(10) 0.0107(9) 0.0112(8) 0.0177(9)
C1 0.0427(12) 0.0444(13) 0.0250(10) 0.0154(9) 0.0186(9) 0.0165(10)
C13 0.0323(11) 0.0438(13) 0.0236(10) 0.0109(9) 0.0085(8) 0.0136(10)
C11 0.0370(12) 0.0270(11) 0.0374(11) 0.0100(9) 0.0144(9) 0.0090(9)
B1 0.0239(10) 0.0235(11) 0.0219(10) 0.0094(9) 0.0102(8) 0.0062(9)
loop_
_atom_type_symbol
_atom_type_description
_atom_type_scat_dispersion_real
_atom_type_scat_dispersion_imag
_atom_type_scat_source
C C 0.0033 0.0016 'International Tables Vol C Tables 4.2.6.8 and 6.1.1.4'
H H 0.0000 0.0000 'International Tables Vol C Tables 4.2.6.8 and 6.1.1.4'
B B 0.0013 0.0007 'International Tables Vol C Tables 4.2.6.8 and 6.1.1.4'
Br Br -0.2901 2.4595 'International Tables Vol C Tables 4.2.6.8 and 6.1.1.4'
N N 0.0061 0.0033 'International Tables Vol C Tables 4.2.6.8 and 6.1.1.4'
O O 0.0106 0.0060 'International Tables Vol C Tables 4.2.6.8 and 6.1.1.4'
loop_
_geom_angle_atom_site_label_1
_geom_angle_atom_site_label_2
_geom_angle_atom_site_label_3
_geom_angle
_geom_angle_site_symmetry_1
_geom_angle_site_symmetry_3
B1 O1 C9 106.91(14) . .
B1 O2 C10 106.81(13) . .
C6 O3 C7 116.85(14) . .
C6 N1 C2 119.23(16) . .
C4 C3 Br1 118.37(14) . .
C2 C3 Br1 121.26(13) . .
C2 C3 C4 120.34(16) . .
C3 C4 H4 119.8 . .
C5 C4 C3 120.37(17) . .
C5 C4 H4 119.8 . .
O3 C6 C5 116.72(15) . .
N1 C6 O3 118.41(16) . .
N1 C6 C5 124.87(16) . .
N1 C2 C3 120.08(16) . .
N1 C2 C1 116.17(16) . .
C3 C2 C1 123.75(17) . .
C4 C5 C6 115.04(16) . .
C4 C5 B1 118.40(16) . .
C6 C5 B1 126.44(16) . .
O1 C9 C10 102.54(13) . .
O1 C9 C14 106.51(14) . .
O1 C9 C13 108.12(15) . .
C14 C9 C10 113.41(15) . .
C13 C9 C10 114.70(16) . .
C13 C9 C14 110.76(16) . .
O2 C10 C9 101.95(13) . .
O2 C10 C12 108.08(15) . .
O2 C10 C11 106.30(15) . .
C12 C10 C9 115.17(16) . .
C12 C10 C11 110.61(16) . .
C11 C10 C9 113.82(16) . .
C10 C12 H12A 109.5 . .
C10 C12 H12B 109.5 . .
C10 C12 H12C 109.5 . .
H12A C12 H12B 109.5 . .
H12A C12 H12C 109.5 . .
H12B C12 H12C 109.5 . .
C9 C14 H14A 109.5 . .
C9 C14 H14B 109.5 . .
C9 C14 H14C 109.5 . .
H14A C14 H14B 109.5 . .
H14A C14 H14C 109.5 . .
H14B C14 H14C 109.5 . .
O3 C7 H7A 109.5 . .
O3 C7 H7B 109.5 . .
O3 C7 H7C 109.5 . .
H7A C7 H7B 109.5 . .
H7A C7 H7C 109.5 . .
H7B C7 H7C 109.5 . .
C2 C1 H1A 109.5 . .
C2 C1 H1B 109.5 . .
C2 C1 H1C 109.5 . .
H1A C1 H1B 109.5 . .
H1A C1 H1C 109.5 . .
H1B C1 H1C 109.5 . .
C9 C13 H13A 109.5 . .
C9 C13 H13B 109.5 . .
C9 C13 H13C 109.5 . .
H13A C13 H13B 109.5 . .
H13A C13 H13C 109.5 . .
H13B C13 H13C 109.5 . .
C10 C11 H11A 109.5 . .
C10 C11 H11B 109.5 . .
C10 C11 H11C 109.5 . .
H11A C11 H11B 109.5 . .
H11A C11 H11C 109.5 . .
H11B C11 H11C 109.5 . .
O1 B1 O2 114.06(16) . .
O1 B1 C5 126.56(17) . .
O2 B1 C5 119.30(16) . .
loop_
_geom_bond_atom_site_label_1
_geom_bond_atom_site_label_2
_geom_bond_distance
_geom_bond_site_symmetry_2
Br1 C3 1.9042(17) .
O1 C9 1.467(2) .
O1 B1 1.359(2) .
O2 C10 1.468(2) .
O2 B1 1.365(2) .
O3 C6 1.346(2) .
O3 C7 1.439(2) .
N1 C6 1.327(2) .
N1 C2 1.348(2) .
C3 C4 1.389(2) .
C3 C2 1.386(3) .
C4 H4 0.9500 .
C4 C5 1.390(2) .
C6 C5 1.411(2) .
C2 C1 1.500(2) .
C5 B1 1.561(3) .
C9 C10 1.561(3) .
C9 C14 1.517(3) .
C9 C13 1.515(3) .
C10 C12 1.517(3) .
C10 C11 1.518(3) .
C12 H12A 0.9800 .
C12 H12B 0.9800 .
C12 H12C 0.9800 .
C14 H14A 0.9800 .
C14 H14B 0.9800 .
C14 H14C 0.9800 .
C7 H7A 0.9800 .
C7 H7B 0.9800 .
C7 H7C 0.9800 .
C1 H1A 0.9800 .
C1 H1B 0.9800 .
C1 H1C 0.9800 .
C13 H13A 0.9800 .
C13 H13B 0.9800 .
C13 H13C 0.9800 .
C11 H11A 0.9800 .
C11 H11B 0.9800 .
C11 H11C 0.9800 .
loop_
_refln_index_h
_refln_index_k
_refln_index_l
_refln_F_squared_meas
_refln_F_squared_sigma
_refln_scale_group_code
-2 0 0 2270.48 70.8836 3
-2 0 0 2240.31 65.6137 2
2 0 0 2277.49 71.2052 3
-3 0 0 3194.87 93.6449 2
3 0 0 3265.79 102.552 3
-4 0 0 758.93 25.5424 2
-4 0 0 885.015 36.7865 3
4 0 0 816.494 37.1084 3
-5 0 0 168.076 17.4199 3
5 0 0 152.74 19.0234 3
6 0 0 91.5204 19.6353 3
7 0 0 39.1345 18.101 3
7 -1 0 71.264 17.7338 3
6 -1 0 84.4956 17.542 3
-6 1 0 76.434 14.6716 3
5 -1 0 185.294 19.0761 3
-5 1 0 206.242 18.7194 3
4 -1 0 231.805 16.8567 3
-4 1 0 236.555 17.1448 3
3 -1 0 97.8004 9.78305 3
-3 1 0 92.3804 9.25516 3
-3 1 0 108.382 4.57484 2
2 -1 0 889.666 26.4376 2
2 -1 0 901.167 30.2055 3
-2 1 0 906.976 26.6754 2
-2 1 0 881.576 30.2507 3
1 -1 0 1630.7 49.1493 3
1 -1 0 1687.44 49.0544 2
1 -1 0 1732.25 51.0796 1
-1 1 0 1730.19 49.3308 3
-2 -1 0 72.627 5.35647 2
-2 -1 0 85.4325 8.54296 3
-3 -1 0 18.5662 6.63232 3
-3 -1 0 9.45468 3.43777 2
3 1 0 14.482 7.29346 3
-4 -1 0 -5.7564 5.49052 3
-4 -1 0 7.52523 3.94885 2
4 1 0 4.04479 8.84819 3
-5 -1 0 10.3027 9.42061 3
-5 -1 0 27.4134 4.69748 2
5 1 0 12.9241 13.6528 3
6 1 0 95.4886 19.9302 3
7 -2 0 -1.0001 12.0505 3
7 -2 0 -10.16 12.4185 1
-7 2 0 31.0881 13.9024 3
6 -2 0 99.652 18.5037 1
6 -2 0 123.753 17.4404 3
-6 2 0 113.085 16.5702 3
5 -2 0 318.043 21.1683 3
-5 2 0 285.867 19.9797 3
4 -2 0 195.569 13.9256 3
-4 2 0 213.587 14.7833 3
3 -2 0 1689.34 53.509 3
3 -2 0 1660.58 49.0211 2
-3 2 0 1648.76 53.9028 3
2 -2 0 2743.26 85.4688 1
2 -2 0 2759.18 81.313 2
2 -2 0 2744.62 81.6803 3
-2 2 0 2945.01 82.2116 3
-2 -2 0 304.969 16.8705 3
2 2 0 261.238 16.4718 1
2 2 0 269.526 17.9311 3
-3 -2 0 947.281 33.9278 2
-3 -2 0 1000.27 40.8349 3
3 2 0 1008.35 43.0132 3
-4 -2 0 1494.22 58.5382 3
-4 -2 0 1397.52 48.5757 2
4 2 0 1556.85 62.697 3
-5 -2 0 349.511 16.6416 2
5 2 0 304.01 29.2757 3
-6 -2 0 117.808 6.74376 2
-6 -2 0 133.694 6.81515 2
6 2 0 137.48 25.5017 3
8 -3 0 112.67 22.6701 3
8 -3 0 97.5975 24.9245 1
7 -3 0 87.5153 20.8495 1
7 -3 0 121.158 18.7123 3
6 -3 0 276.546 25.9262 1
6 -3 0 280.958 21.9945 3
-6 3 0 251.269 21.4564 3
5 -3 0 1175.58 44.1701 3
5 -3 0 1094.53 49.4262 1
-5 3 0 1121.16 44.3884 3
4 -3 0 971.663 40.3516 1
4 -3 0 929.325 29.5713 2
4 -3 0 943.347 34.4871 3
-4 3 0 959.636 35.28 3
3 -3 0 1910.87 62.8486 1
3 -3 0 1778.57 55.7084 3
3 -3 0 1828.7 55.141 2
-3 3 0 1805.38 56.2846 3
2 -3 0 2512.22 79.55 1
2 -3 0 2640.74 74.4105 3
-2 3 0 2569.24 79.3866 1
1 -3 0 1335.07 43.0565 1
1 -3 0 1371.53 41.6696 3
-1 3 0 1363.71 43.3486 1
0 -3 0 1602.96 53.1184 3
0 -3 0 1699.32 51.5226 1
0 3 0 1666.47 54.0997 3
0 3 0 1711.26 52.3246 1
-1 -3 0 3381.1 99.8664 1
-1 -3 0 3372.84 102.919 3
1 3 0 3203.35 104.337 3
1 3 0 3289.02 100.596 1
-2 -3 0 7797.87 231.592 3
2 3 0 7740.35 228.524 1
2 3 0 7769.73 234.834 3
-3 -3 0 40.5759 10.3147 3
-3 -3 0 41.8796 7.5631 2
3 3 0 29.0925 11.143 3
3 3 0 30.7674 8.23106 1
-4 -3 0 38.3055 7.7355 2
-4 -3 0 31.995 10.9523 3
4 3 0 43.908 10.2584 1
4 3 0 35.4241 14.2873 3
-5 -3 0 74.3422 10.0101 2
5 3 0 46.36 17.4342 3
-6 -3 0 3.79385 5.80488 2
-6 -3 0 7.71451 5.07206 2
6 3 0 1.27865 14.8411 3
8 -4 0 25.5012 18.2328 1
7 -4 0 39.4841 11.7123 3
7 -4 0 35.3843 16.6826 1
-7 4 0 29.074 12.7253 3
6 -4 0 -6.0874 9.54246 1
-6 4 0 5.69237 7.86818 3
5 -4 0 3.97409 5.5583 3
5 -4 0 1.09628 8.22841 1
5 -4 0 5.40754 2.91031 2
-5 4 0 7.0131 5.33022 3
4 -4 0 108.018 8.24225 3
4 -4 0 107.24 13.5092 1
4 -4 0 120.77 7.644 2
-4 4 0 115.593 8.47025 3
3 -4 0 5.58859 2.06346 3
3 -4 0 3.21087 4.88461 1
3 -4 0 3.30123 3.07877 2
2 -4 0 214.481 8.6839 3
2 -4 0 213.136 12.2311 1
-2 4 0 206.868 12.1343 1
1 -4 0 1303.06 42.4429 1
1 -4 0 1302.94 41.9253 3
-1 4 0 1277.6 42.9572 1
0 -4 0 219.417 11.3283 1
0 -4 0 217.31 12.7836 3
0 4 0 224.45 12.248 1
0 4 0 203.213 13.4814 3
-1 -4 0 690.405 29.4258 3
-1 -4 0 661.912 26.064 1
-2 -4 0 890.464 37.3434 3
2 4 0 836.515 34.4882 1
2 4 0 809.619 39.378 3
-3 -4 0 13.9106 6.4874 2
-3 -4 0 12.1132 7.43972 3
3 4 0 6.18855 6.77315 1
3 4 0 11.9608 11.5897 3
-4 -4 0 738.127 31.5153 2
-5 -4 0 154.295 14.8814 2
5 4 0 151.046 26.1053 3
8 -5 0 47.1579 19.6662 1
7 -5 0 174.554 25.3004 1
7 -5 0 162.739 18.4258 3
-7 5 0 157.078 16.4532 3
6 -5 0 469.721 23.0312 3
6 -5 0 483.116 33.2535 1
6 -5 0 499.007 16.7758 2
-6 5 0 521.935 24.4444 3
5 -5 0 2131.6 62.5326 2
5 -5 0 1918.16 63.0499 3
5 -5 0 2082.85 75.9088 1
-5 5 0 1954.27 63.636 3
4 -5 0 2644.95 81.422 3
4 -5 0 2803.77 93.2543 1
4 -5 0 2929.05 85.3054 2
3 -5 0 4696.29 130.976 3
3 -5 0 4683.68 140.7 1
3 -5 0 4462.15 136.214 2
3 -5 0 4377.63 130.897 3
-3 5 0 4697.01 140.249 1
2 -5 0 789.95 30.6811 1
2 -5 0 807.377 27.2158 3
-2 5 0 804.343 31.6175 1
1 -5 0 1794.27 57.774 3
1 -5 0 1778.07 57.4614 1
-1 5 0 1780.81 58.5956 1
0 -5 0 3675.46 106.699 1
0 -5 0 3459.39 109.585 3
0 5 0 3466.19 111.73 3
0 5 0 3500.82 112.538 1
-1 -5 0 815.521 31.1561 1
-1 -5 0 854.579 35.0476 3
1 5 0 789.217 37.9625 3
1 5 0 778.536 33.1936 1
-2 -5 0 1256.72 50.1239 3
2 5 0 1288.7 55.6327 3
2 5 0 1136.65 47.0194 1
-3 -5 0 1568.32 63.9012 3
-3 -5 0 1640.22 57.3982 2
3 5 0 1727.83 70.9036 3
3 5 0 1511.4 60.3608 1
-4 -5 0 142.397 14.4578 2
4 5 0 139.081 24.3703 3
-5 -5 0 25.7222 9.56075 2
5 5 0 48.61 17.0889 3
8 -6 0 117.445 25.167 1
7 -6 0 37.9894 15.5019 1
6 -6 0 88.4053 17.8353 1
6 -6 0 101.851 8.38119 2
5 -6 0 415.118 27.0891 1
5 -6 0 417.195 18.8732 2
4 -6 0 791.301 30.5952 2
4 -6 0 806.233 36.1257 1
3 -6 0 830.504 27.1341 3
3 -6 0 864.745 32.4768 2
3 -6 0 839.566 34.514 1
3 -6 0 832.229 26.969 3
-3 6 0 789.859 34.0314 1
2 -6 0 1299.42 49.8141 1
2 -6 0 1299.54 43.5563 3
-2 6 0 1339.09 47.4086 1
1 -6 0 155.303 11.5091 1
1 -6 0 168.867 12.3287 3
-1 6 0 146.658 11.5042 1
0 -6 0 90.4156 9.50402 1
0 -6 0 105.116 11.3078 3
0 6 0 70.8282 11.9496 3
0 6 0 76.9598 10.4985 1
-1 -6 0 44.9196 9.99464 3
-1 -6 0 32.891 7.60114 1
1 6 0 74.9472 11.2138 1
1 6 0 50.8393 11.693 3
-2 -6 0 0.74025 5.7955 3
2 6 0 0.98753 7.68779 1
2 6 0 2.04686 11.4067 3
-3 -6 0 41.1129 10.6988 2
3 6 0 36.2824 11.5847 1
3 6 0 43.4406 18.1542 3
-4 -6 0 123.12 15.6491 2
4 6 0 110.332 24.6451 3
-5 -6 0 9.84253 10.2116 2
-5 -6 0 22.0077 9.83419 2
5 6 0 21.2807 19.6784 3
8 -7 0 18.681 16.1512 1
7 -7 0 -10.681 3.53105 2
7 -7 0 23.693 13.2834 1
7 -7 0 -2.5694 3.98567 2
6 -7 0 713.057 27.4454 2
6 -7 0 637.808 38.8934 1
5 -7 0 604.28 33.6685 1
5 -7 0 626.359 26.3994 2
4 -7 0 1352.25 52.8705 1
4 -7 0 1322.05 48.1899 2
-4 7 0 1369.14 52.4859 1
3 -7 0 1334.68 43.2061 3
3 -7 0 1309.51 49.8225 1
-3 7 0 1385.32 51.0658 1
2 -7 0 1781.54 58.8119 3
2 -7 0 1762.13 60.5145 1
-2 7 0 1784.2 62.1524 1
1 -7 0 185.75 13.7261 3
1 -7 0 165.559 12.2292 1
-1 7 0 151.309 13.148 1
0 -7 0 1053.93 41.2852 3
0 -7 0 945.189 36.0859 1
0 7 0 931.307 39.3336 1
0 7 0 884.014 42.5948 3
-1 -7 0 2283.87 74.7371 1
-1 -7 0 2334.63 81.9655 3
1 7 0 2278.32 86.8361 3
1 7 0 2086.36 78.7487 1
2 7 0 156.861 19.42 1
2 7 0 193.059 26.3418 3
-3 -7 0 479.335 27.2167 2
3 7 0 447.076 39.7267 3
-4 -7 0 508.428 34.3603 2
4 7 0 560.541 44.1196 3
8 -8 0 91.1923 22.4844 1
7 -8 0 153.463 11.9687 2
7 -8 0 127.408 22.5094 1
6 -8 0 255.749 16.1179 2
6 -8 0 247.399 24.5635 1
5 -8 0 1356.64 55.65 1
5 -8 0 1250.88 47.5392 2
4 -8 0 974.138 42.6514 1
4 -8 0 977.846 39.3485 2
-4 8 0 967.326 42.2072 1
3 -8 0 1660.47 60.9684 1
3 -8 0 1697.09 55.3105 3
-3 8 0 1744.54 62.6752 1
2 -8 0 1000.12 38.6492 3
2 -8 0 991.735 39.6019 1
-2 8 0 1017.35 41.4883 1
1 -8 0 861.718 35.5584 1
1 -8 0 950.359 38.6281 3
-1 8 0 898.186 38.7533 1
0 -8 0 14.6776 6.57415 1
0 -8 0 22.8705 9.02428 3
0 8 0 11.2138 11.4271 3
0 8 0 17.054 7.94405 1
-1 -8 0 184.715 15.9003 1
-1 -8 0 180.223 18.8712 3
1 8 0 212.838 25.501 3
1 8 0 207.91 20.4007 1
2 8 0 226.98 26.2937 3
-3 -8 0 11.8532 10.1039 2
3 8 0 19.6447 17.727 3
-4 -8 0 60.5602 14.6951 2
4 8 0 66.879 25.0285 3
7 -9 0 16.5995 12.7144 1
7 -9 0 26.5127 8.21115 2
6 -9 0 4.46457 10.8345 1
6 -9 0 -0.1518 7.20926 2
5 -9 0 96.4348 15.1637 2
5 -9 0 87.6635 15.5597 1
4 -9 0 1.93454 2.94114 3
4 -9 0 4.9075 7.46847 2
4 -9 0 2.72762 3.26304 3
4 -9 0 2.4676 7.68777 1
-4 9 0 -7.7614 5.88559 1
3 -9 0 52.8803 8.4146 3
3 -9 0 44.7503 10.256 1
2 -9 0 147.901 14.0282 3
2 -9 0 127.616 14.1718 1
-2 9 0 140.56 15.234 1
1 -9 0 285.873 18.6102 1
1 -9 0 303.483 20.8882 3
-1 9 0 316.186 21.8311 1
0 -9 0 120.931 15.1986 3
0 -9 0 97.259 13.2418 1
0 9 0 96.6751 15.7934 1
0 9 0 105.629 18.7829 3
-1 -9 0 574.804 30.4299 1
1 9 0 612.75 42.0534 3
1 9 0 570.079 35.8926 1
2 9 0 152.491 27.7573 3
-3 -9 0 57.0213 13.7464 2
7 -10 0 119.5 13.3503 2
7 -10 0 114.298 25.2295 1
6 -10 0 145.014 16.1153 2
6 -10 0 125.807 20.4775 1
5 -10 0 437.62 29.4512 1
4 -10 0 1157.49 38.9976 3
4 -10 0 1218.55 50.1193 1
4 -10 0 1121.96 39.4881 3
3 -10 0 202.436 17.8688 1
3 -10 0 211.498 15.9478 3
-3 10 0 233.86 20.3813 1
2 -10 0 777.837 34.7762 1
2 -10 0 749.688 37.7166 3
-2 10 0 750.421 37.9039 1
1 -10 0 607.771 29.665 1
1 -10 0 686.365 34.2562 3
-1 10 0 564.404 34.2641 1
0 -10 0 282.214 19.8744 1
-1 -10 0 18.7791 10.032 1
1 10 0 16.6318 15.4642 3
-2 -10 0 156.868 21.5266 2
2 10 0 194.513 32.8377 3
7 -11 0 9.31717 12.7299 1
6 -11 0 59.219 16.3202 1
5 -11 0 61.0949 14.9819 1
4 -11 0 123.618 11.1447 3
4 -11 0 142.183 17.8686 1
3 -11 0 186.356 16.7235 3
2 -11 0 0.29895 8.42725 1
2 -11 0 -9.9529 9.49735 3
0 -11 0 3.60967 8.54388 1
6 -12 0 72.5192 16.7171 1
5 -12 0 119.222 17.7701 1
4 -12 0 185.895 14.4048 3
4 -12 0 206.011 20.1846 1
3 -12 0 133.374 16.9455 1
3 -12 0 177.591 17.6261 3
2 -12 0 98.3635 16.489 3
2 -12 0 126.464 16.3228 1
1 -12 0 234.989 20.0907 1
0 -12 0 155.17 17.6063 1
5 -13 0 8.15586 11.3629 1
4 -13 0 202.049 21.5881 1
4 -13 0 150.468 15.4238 3
3 -13 0 151.381 17.7858 3
3 -13 0 198.521 19.9341 1
2 -13 0 148.37 18.5616 1
1 -13 0 43.4211 13.4839 1
2 -14 1 109.251 17.568 1
3 -14 1 93.3855 16.6894 1
4 -14 1 19.9942 12.4723 1
0 -13 1 20.7351 11.3694 1
1 -13 1 39.4828 13.2893 1
2 -13 1 7.23727 9.61576 1
3 -13 1 -7.6288 8.99311 1
3 -13 1 14.352 8.65453 3
4 -13 1 80.2736 16.0639 1
5 -13 1 55.5435 15.3207 1
-1 -12 1 59.3162 14.3882 1
0 -12 1 331.9 24.2743 1
1 -12 1 198.298 18.784 1
2 -12 1 405.071 27.5443 3
2 -12 1 441.249 27.0066 1
3 -12 1 283.896 20.1887 3
3 -12 1 262.205 22.4953 1
4 -12 1 130.423 18.6021 1
4 -12 1 154.578 10.6186 3
5 -12 1 290.956 25.8213 1
6 -12 1 56.427 18.0961 1
2 11 -1 19.3402 20.8875 3
1 11 -1 11.4103 18.7373 3
-1 -11 1 15.9233 10.6326 1
0 11 -1 10.0575 13.0712 3
0 -11 1 -8.1434 7.94087 1
1 -11 1 67.803 13.4321 3
1 -11 1 40.1959 11.1344 1
2 -11 1 27.1618 9.81807 3
3 -11 1 143.591 17.4894 1
3 -11 1 145.164 13.7719 3
4 -11 1 12.7275 3.75815 3
4 -11 1 4.78377 9.50663 1
4 -11 1 10.8637 3.49455 3
5 -11 1 24.3592 12.0396 1
6 -11 1 -5.4377 10.3273 1
7 -11 1 -8.8355 11.8951 1
3 10 -1 34.484 23.4143 3
-3 -10 1 31.2471 13.1447 2
2 10 -1 -8.2461 17.0528 3
1 10 -1 366.197 34.5562 3
-1 -10 1 329.983 23.7096 1
0 10 -1 565.503 38.5994 3
0 -10 1 683.485 31.8261 1
-1 10 -1 902.144 44.1099 1
1 -10 1 987.269 43.428 3
1 -10 1 917.729 39.4946 1
-2 10 -1 753.956 39.0799 1
2 -10 1 862.261 36.6151 3
2 -10 1 804.921 36.5954 1
-3 10 -1 834.573 40.4487 1
3 -10 1 862.303 39.4523 1
3 -10 1 820.857 32.5887 3
5 -10 1 236.861 19.3752 2
5 -10 1 318.511 25.3887 1
6 -10 1 305.33 20.9968 2
6 -10 1 278.087 26.9381 1
7 -10 1 2.26865 14.0007 1
7 -10 1 17.3825 9.05561 2
3 9 -1 108.659 25.8042 3
-3 -9 1 111.725 16.8114 2
2 9 -1 355.303 35.2271 3
1 9 -1 21.0184 11.3232 1
-1 -9 1 54.9975 11.4247 1
0 9 -1 212.207 21.0237 1
0 9 -1 242.186 23.7293 3
0 -9 1 254.247 17.8357 1
0 -9 1 257.697 20.9512 3
-1 9 -1 219.564 19.1053 3
-1 9 -1 233.378 19.6889 1
1 -9 1 261.06 18.935 3
1 -9 1 230.134 17.0089 1
-2 9 -1 768.997 37.4253 1
2 -9 1 798.737 33.2523 3
2 -9 1 718.955 35.8388 2
2 -9 1 794.411 34.6109 1
-3 9 -1 112.259 15.1813 1
3 -9 1 90.4271 13.8627 1
3 -9 1 94.5242 13.7537 2
3 -9 1 88.668 8.75724 3
-4 9 -1 242.239 20.4747 1
4 -9 1 256.611 20.8415 1
4 -9 1 215.869 18.5178 2
5 -9 1 -8.0093 8.12994 1
6 -9 1 29.0047 8.20051 2
6 -9 1 25.0805 13.0172 1
7 -9 1 42.8643 16.1127 1
7 -9 1 21.3243 8.00317 2
4 8 -1 59.4298 26.0572 3
-4 -8 1 65.6877 14.9642 2
3 8 -1 -11.474 15.007 3
2 8 -1 21.6243 15.3757 3
1 8 -1 99.0938 19.0117 3
1 8 -1 105.44 15.9701 1
-1 -8 1 117.768 16.5883 3
-1 -8 1 96.6086 12.6515 1
0 8 -1 945.278 45.5694 3
0 8 -1 994.718 43.4503 1
0 -8 1 1093.87 44.4677 3
0 -8 1 987.824 39.1185 1
-1 8 -1 562.626 29.5499 3
-1 8 -1 663.487 31.4934 1
1 -8 1 648.494 28.5847 1
1 -8 1 671.111 30.3493 3
-2 8 -1 829.943 37.0136 1
2 -8 1 902.923 36.0093 1
2 -8 1 846.282 32.8811 3
2 -8 1 793.877 36.2641 2
-3 8 -1 326.018 21.4448 1
3 -8 1 308.366 20.6568 1
3 -8 1 332.233 20.1881 2
3 -8 1 334.63 13.8491 3
-4 8 -1 1010.86 43.4218 1
4 -8 1 949.214 38.9381 2
4 -8 1 977.535 43.353 1
5 -8 1 80.1627 10.9133 2
6 -8 1 447.643 32.5532 1
6 -8 1 430.488 21.8052 2
7 -8 1 70.145 8.67889 2
7 -8 1 77.5735 19.0564 1
5 7 -1 30.683 19.2471 3
-5 -7 1 23.0705 12.1183 2
4 7 -1 795.061 51.8451 3
-4 -7 1 720.636 35.5161 2
-4 -7 1 716.387 34.5037 2
3 7 -1 499.282 39.1834 3
2 7 -1 195.366 18.9001 1
2 7 -1 227.118 25.6344 3
-2 -7 1 193.401 19.8259 3
1 7 -1 585.333 33.96 3
1 7 -1 544.27 30.2865 1
-1 -7 1 635.585 32.0719 3
-1 -7 1 598.724 27.0339 1
0 7 -1 1578.87 58.0958 1
0 7 -1 1480.65 59.7833 3
0 -7 1 1605.33 54.4536 1
0 -7 1 1640.27 58.6449 3
-1 7 -1 2083.06 72.2259 1
-1 7 -1 2096.25 71.2831 3
1 -7 1 2127.32 70.0795 1
1 -7 1 2171.61 70.8629 3
-2 7 -1 665.375 29.6613 1
2 -7 1 630.856 28.0776 1
2 -7 1 616.077 24.5554 3
2 -7 1 609.488 28.254 2
-3 7 -1 874.531 37.7176 1
3 -7 1 907.03 26.7665 3
3 -7 1 874.44 26.4616 3
3 -7 1 864.31 35.5457 2
3 -7 1 923.086 37.9576 1
4 -7 1 213.264 17.9533 1
4 -7 1 140.724 12.3656 2
5 -7 1 121.754 11.5236 2
5 -7 1 157.494 19.4324 1
6 -7 1 6.27014 11.2139 1
6 -7 1 15.3064 6.30215 2
7 -7 1 167.549 10.0681 2
7 -7 1 183.598 25.9639 1
5 6 -1 2.67701 17.8377 3
-5 -6 1 -1.2599 8.84718 2
4 6 -1 5.12972 11.0825 3
-4 -6 1 -8.7078 6.98256 2
-4 -6 1 -12.696 6.76103 2
3 6 -1 1537.96 61.5185 1
2 6 -1 719.074 39.552 3
2 6 -1 655.541 33.7093 1
-2 -6 1 710.001 36.6719 3
1 6 -1 70.6465 11.3456 1
1 6 -1 97.8593 14.9672 3
-1 -6 1 84.5453 12.591 3
-1 -6 1 96.4454 10.3073 1
0 6 -1 160.045 13.1142 1
0 -6 1 184.922 13.9923 3
0 -6 1 159.335 11.5312 1
-1 6 -1 2.24699 4.75597 3
-1 6 -1 0.78088 3.8935 1
1 -6 1 -0.4274 3.81796 3
-2 6 -1 33.0764 7.37168 1
2 -6 1 43.7911 5.53667 3
2 -6 1 45.745 7.85534 1
2 -6 1 25.5557 6.35715 2
-3 6 -1 692.732 31.2461 1
3 -6 1 734.882 31.9449 1
3 -6 1 730.085 28.8203 2
4 -6 1 190.213 12.6441 2
4 -6 1 177.427 16.7481 1
5 -6 1 1051 48.0151 1
5 -6 1 1056.73 37.2794 2
6 -6 1 234.913 12.5652 2
6 -6 1 263.975 25.9464 1
-7 6 -1 96.7273 11.0626 3
7 -6 1 85.6169 20.2225 1
8 -6 1 26.0946 18.072 1
6 5 -1 170.6 29.9722 3
-6 -5 1 127.533 14.5915 2
5 5 -1 23.6371 17.4556 3
-5 -5 1 24.2585 8.76282 2
-5 -5 1 30.612 8.59573 2
4 5 -1 840.322 48.659 3
-4 -5 1 832.564 35.0673 2
3 5 -1 2358.93 89.6198 3
3 5 -1 2244.56 81.6561 1
-3 -5 1 2434.88 86.2832 3
2 5 -1 79.6962 13.4158 3
2 5 -1 63.7736 10.8401 1
-2 -5 1 79.3222 12.7843 3
1 5 -1 223.396 17.5778 3
1 5 -1 203.493 14.5325 1
-1 -5 1 209.547 15.814 3
-1 -5 1 185.72 12.6256 1
0 5 -1 898.414 34.4886 1
0 5 -1 810.879 34.5678 3
0 -5 1 875.241 32.1657 1
0 -5 1 971.936 35.0937 3
-1 5 -1 3100.07 95.2038 1
-1 5 -1 2965.88 91.94 3
1 -5 1 2935.8 91.8209 3
1 -5 1 3134.7 93.5658 1
-2 5 -1 1564.34 54.6089 1
2 -5 1 1609.96 54.6907 1
2 -5 1 1645.88 47.7879 3
-3 5 -1 407.538 21.4617 1
3 -5 1 441.685 22.3617 1
3 -5 1 448.351 18.9389 2
4 -5 1 1327.61 51.5348 1
4 -5 1 1307.7 43.5832 2
-5 5 -1 366.559 16.4254 3
5 -5 1 352.234 15.699 2
5 -5 1 351.955 25.808 1
-6 5 -1 833.485 34.9173 3
6 -5 1 918.477 28.601 2
6 -5 1 841.897 45.279 1
-7 5 -1 45.4581 11.1083 3
7 -5 1 28.37 15.6498 1
8 -5 1 34.8921 19.6823 1
6 4 -1 100.47 24.4182 3
-6 -4 1 113.939 11.5053 2
5 4 -1 339.4 32.4064 3
-5 -4 1 334.53 18.0378 2
-5 -4 1 331.9 21.5604 2
4 4 -1 8.479 8.6354 1
4 4 -1 10.6802 11.7801 3
-4 -4 1 8.66295 6.49361 2
3 4 -1 2273.72 84.2877 3
3 4 -1 2207.66 77.6583 1
-3 -4 1 2353.31 82.4044 3
2 4 -1 9531.05 288.413 1
2 4 -1 9962.76 293.826 3
-2 -4 1 9999.99 292.08 3
1 4 -1 2738.68 85.9185 3
1 4 -1 2433.17 85.5865 1
-1 -4 1 2700.72 80.5398 1
-1 -4 1 2478.03 83.6958 3
0 4 -1 36.1845 5.44524 1
0 4 -1 43.0016 6.58957 3
0 -4 1 47.0885 6.64341 3
0 -4 1 38.8454 5.32202 1
-1 4 -1 4104.23 119.593 1
-1 4 -1 3833.12 116.18 3
1 -4 1 3847.95 116.254 3
1 -4 1 4120.23 119.112 1
1 -4 1 4003.46 118.934 2
-2 4 -1 1585.62 53.987 1
2 -4 1 1639.53 51.9288 2
2 -4 1 1651.36 54.3727 1
-3 4 -1 56.4246 3.19027 3
3 -4 1 53.0658 8.30758 1
3 -4 1 57.8694 6.07051 2
-4 4 -1 143.418 9.43478 3
4 -4 1 133.14 14.2288 1
4 -4 1 135.167 9.18191 3
4 -4 1 136.084 8.63788 2
-5 4 -1 112.366 11.3691 3
5 -4 1 111.174 16.9903 1
5 -4 1 100.53 11.2996 3
5 -4 1 111.081 7.36591 2
-6 4 -1 137.16 15.1862 3
6 -4 1 136.059 20.8285 1
6 -4 1 134.458 15.0241 3
-7 4 -1 12.3973 10.4051 3
7 -4 1 -2.1981 12.5049 1
6 3 -1 28.2051 18.1103 3
-6 -3 1 19.613 4.83735 2
-6 -3 1 28.8916 4.7165 2
5 3 -1 98.2077 19.3663 3
-5 -3 1 112.82 9.96273 2
-5 -3 1 121.862 11.0445 2
4 3 -1 278.071 20.0583 1
4 3 -1 289.886 25.2763 3
-4 -3 1 263.437 22.3801 3
-4 -3 1 303.513 15.6321 2
3 3 -1 2533.95 84.6796 1
3 3 -1 2650.78 90.4379 3
-3 -3 1 2575.21 88.946 3
2 3 -1 235.29 14.7567 1
2 3 -1 274.189 18.1874 3
-2 -3 1 258.304 16.4475 3
1 3 -1 4165.91 126.034 1
1 3 -1 4121.31 128.251 3
-1 -3 1 4208.74 128.171 3
-1 -3 1 4362.99 125.084 1
0 3 -1 185.887 10.2104 3
0 3 -1 191.05 9.95405 1
0 -3 1 202.284 10.4 3
0 -3 1 191.858 9.57306 1
-1 3 -1 3091.23 91.5672 1
-1 3 -1 2928.7 87.6194 3
1 -3 1 3148.2 87.7348 3
1 -3 1 3076.8 91.4277 1
1 -3 1 2968.63 90.5315 2
-2 3 -1 80.0194 7.31056 1
2 -3 1 86.9991 5.84402 2
2 -3 1 84.4122 7.3488 1
-3 3 -1 2574.19 75.8186 3
-3 3 -1 2581.78 75.8686 2
3 -3 1 2542.45 74.9353 2
3 -3 1 2354.66 75.4003 3
3 -3 1 2493.03 81.9104 1
-4 3 -1 1630.61 53.4105 3
4 -3 1 1528.86 58.7885 1
4 -3 1 1547.54 53.1539 3
4 -3 1 1558.1 48.0139 2
-5 3 -1 1221.44 46.5449 3
5 -3 1 1236.17 53.2584 1
5 -3 1 1141.04 46.5219 3
5 -3 1 1202.5 36.5074 2
-6 3 -1 835.382 39.2962 3
6 -3 1 807.517 39.0773 3
6 -3 1 759.92 44.4328 1
-7 3 -1 392.956 30.5242 3
7 -3 1 421.752 36.8539 1
7 2 -1 64.1222 22.1977 3
6 2 -1 37.042 16.3866 3
5 2 -1 437.624 31.3617 3
-5 -2 1 429.955 16.681 2
-5 -2 1 451.218 30.1473 3
-5 -2 1 412.82 17.1455 2
4 2 -1 2500.03 87.5073 3
4 2 -1 2377.5 82.5036 1
-4 -2 1 2461.53 73.919 2
-4 -2 1 2387.59 86.4548 3
-4 -2 1 2444.19 74.3513 2
3 2 -1 1135.37 45.3522 3
3 2 -1 1081.06 41.3387 1
-3 -2 1 1126.28 45.0997 3
0 2 -1 236.728 10.1159 1
0 2 -1 250.987 10.1964 3
0 -2 1 245.218 9.9814 1
0 -2 1 248.993 10.2542 3
0 -2 1 234.702 10.0163 2
-1 2 -1 1143.88 36.3782 1
-1 2 -1 1137.48 35.3734 2
1 -2 1 1117.1 36.3636 1
1 -2 1 1125.62 35.1237 2
-2 2 -1 2173.33 64.6502 2
-2 2 -1 2131.43 64.3754 3
2 -2 1 2234.37 68.6692 1
2 -2 1 2064.32 64.4422 3
2 -2 1 2207.93 64.1635 2
-3 2 -1 996.884 32.2129 2
-3 2 -1 1027.41 35.3078 3
3 -2 1 920.671 35.3037 3
3 -2 1 1019.04 31.5136 2
3 -2 1 1040.93 39.2244 1
-4 2 -1 348.039 13.6885 2
4 -2 1 337.446 22.3738 1
4 -2 1 333.773 20.0971 3
4 -2 1 345.775 12.9568 2
-5 2 -1 85.8987 13.1971 3
5 -2 1 77.3263 13.4737 3
5 -2 1 59.1058 14.2646 1
-6 2 -1 79.801 14.2507 3
6 -2 1 91.7014 17.3437 3
6 -2 1 57.5059 15.9745 1
7 -2 1 26.6046 14.1938 3
7 -2 1 46.3811 18.0346 1
7 1 -1 97.3404 20.8067 3
6 1 -1 277.474 26.8642 3
5 1 -1 31.9251 12.3152 3
-5 -1 1 11.7516 9.7677 3
4 1 -1 50.7205 10.8243 3
-4 -1 1 47.9856 4.78467 2
-4 -1 1 46.5911 4.57791 2
-4 -1 1 48.2028 11.2153 3
3 1 -1 203.979 15.8599 3
-3 -1 1 233.601 16.4308 3
-3 -1 1 268.062 10.1036 2
2 1 -1 2497.81 78.6512 3
-2 -1 1 2495.83 79.5037 3
-1 1 -1 2450.68 72.806 2
-1 1 -1 2424.88 72.6642 3
1 -1 1 2560.4 72.7262 2
1 -1 1 2554.7 74.3931 1
-2 1 -1 1538.55 48.3554 3
-2 1 -1 1534.24 46.1503 2
2 -1 1 1562.26 45.68 2
2 -1 1 1443.15 48.9002 3
-3 1 -1 366.304 14.31 2
-3 1 -1 369.171 18.2828 3
3 -1 1 367.345 13.5216 2
3 -1 1 362.123 19.7199 3
-4 1 -1 849.773 29.5634 2
-4 1 -1 954.33 37.8726 3
4 -1 1 926.155 39.5706 3
-5 1 -1 763.904 24.853 2
-5 1 -1 838.752 38.0381 3
5 -1 1 763.581 39.8159 3
-6 1 -1 355.9 25.8871 3
6 -1 1 403.708 30.4192 3
7 -1 1 255.888 33.5559 1
7 -1 1 338.547 32.2364 3
7 0 -1 46.3723 16.1056 3
6 0 -1 189.779 23.3702 3
-6 0 1 162.251 21.7341 3
5 0 -1 52.2792 12.0121 3
-5 0 1 59.8126 12.8802 3
4 0 -1 1112.86 43.8675 3
-4 0 1 1098.07 45.1654 3
3 0 -1 3760.25 114.344 3
-3 0 1 3659.57 115.777 3
2 0 -1 3897.74 113.768 3
-2 0 1 3726.69 114.529 3
-1 0 -1 1155.17 35.202 2
-1 0 -1 1193.74 36.8471 3
1 0 1 1128.3 34.9171 2
1 0 1 1119.6 37.1766 3
-2 0 -1 1433.76 44.6853 2
-2 0 -1 1481.25 48.0668 3
2 0 1 1390.94 49.3562 3
2 0 1 1475.13 44.2161 2
-3 0 -1 1355.89 42.5184 2
-3 0 -1 1346.95 47.8079 3
3 0 1 1264.21 49.7193 3
-4 0 -1 744.213 33.14 3
-4 0 -1 686.423 25.8615 2
4 0 1 749.674 36.6952 3
-5 0 -1 800.429 28.2064 2
5 0 1 871.392 44.1392 3
7 0 1 106.966 21.3572 3
7 -1 -1 517.448 35.2064 3
6 -1 -1 793.624 40.8625 3
5 -1 -1 1405.02 52.5807 3
-5 1 1 1248.68 53.3623 3
4 -1 -1 564.357 25.5841 3
-4 1 1 519.638 26.4325 3
3 -1 -1 1421.22 46.2985 3
-3 1 1 1312.09 47.1609 3
1 -1 -1 460.177 16.0813 3
1 -1 -1 470.513 15.2559 2
0 -1 -1 170.913 6.14207 1
0 -1 -1 179.492 7.72623 2
0 1 1 164.287 6.17233 1
-1 -1 -1 189.615 10.282 3
-1 -1 -1 184.317 8.85382 2
1 1 1 149.125 10.3455 3
-2 -1 -1 301.764 13.3934 2
-2 -1 -1 302.53 16.0453 3
2 1 1 289.485 17.781 3
-3 -1 -1 89.0762 7.84605 2
-3 -1 -1 84.0386 10.5738 3
3 1 1 73.2675 12.7646 3
-4 -1 -1 114.842 9.68123 2
-4 -1 -1 110.472 13.7195 3
4 1 1 122.768 18.6807 3
-5 -1 -1 27.8213 6.5558 2
-5 -1 -1 29.8484 11.5576 3
5 1 1 26.9617 14.3405 3
-6 -1 -1 66.3413 5.37345 2
-6 -1 -1 53.6839 5.35207 2
6 1 1 61.4861 18.3092 3
7 1 1 157.933 27.6846 3
8 -2 -1 16.4551 17.6494 1
8 -2 -1 12.9964 13.5937 3
7 -2 -1 21.1627 12.482 3
7 -2 -1 10.8413 15.6965 1
-7 2 1 1.51103 12.0425 3
6 -2 -1 145.831 16.488 3
-6 2 1 128.371 18.2288 3
5 -2 -1 34.3232 9.19059 3
-5 2 1 26.3705 8.29345 3
4 -2 -1 367.633 18.254 3
-4 2 1 333.308 19.0794 3
3 -2 -1 778.164 27.1408 3
3 -2 -1 758.181 23.1644 2
-3 2 1 725.57 27.9905 3
2 -2 -1 3525.76 101.564 1
2 -2 -1 3345.77 99.2448 3
-2 2 1 3280.55 99.6234 3
1 -2 -1 136.893 6.77151 1
-1 2 1 150.025 6.91413 1
-1 -2 -1 418.951 18.4641 3
-1 -2 -1 386.132 16.5119 2
1 2 1 386.395 16.0531 1
1 2 1 371.175 19.4866 3
-2 -2 -1 1856.52 62.0174 3
-2 -2 -1 1818.64 58.0483 2
2 2 1 1758.97 66.1023 3
-3 -2 -1 520.587 26.3428 3
-3 -2 -1 476.888 21.4279 2
3 2 1 483.182 29.8752 3
-4 -2 -1 473.012 22.3911 2
-4 -2 -1 481.06 28.1269 3
4 2 1 501.633 33.8418 3
-5 -2 -1 265.665 16.4329 2
5 2 1 229.48 27.4877 3
-6 -2 -1 107.704 9.91314 2
-6 -2 -1 127.76 9.52607 2
6 2 1 142.273 24.03 3
8 -3 -1 176.767 27.5729 3
8 -3 -1 138.247 27.6012 1
7 -3 -1 419.836 35.6042 1
7 -3 -1 494.556 30.2137 3
-7 3 1 400.744 30.8513 3
6 -3 -1 398.458 31.1095 1
6 -3 -1 495.835 26.7524 3
-6 3 1 495.957 28.8691 3
5 -3 -1 890.864 41.4718 1
5 -3 -1 958.617 35.544 3
-5 3 1 776.733 36.1362 3
4 -3 -1 2474.54 76.6985 3
4 -3 -1 2515.26 83.4183 1
4 -3 -1 2485.31 71.9955 2
-4 3 1 2384.98 78.4321 3
3 -3 -1 51.3645 7.56254 1
3 -3 -1 43.0459 5.11323 3
-3 3 1 37.4784 5.27285 3
-2 3 1 6942.97 201.752 1
0 -3 -1 471.6 17.2018 1
0 -3 -1 473.426 20.0584 3
0 3 1 464.905 20.7561 3
0 3 1 481.954 18.0921 1
-1 -3 -1 2746.32 84.7554 3
1 3 1 2606.09 81.5798 1
1 3 1 2564.18 87.0688 3
-2 -3 -1 1040.09 38.6463 2
-2 -3 -1 1092.51 42.3522 3
2 3 1 1041.54 45.6703 3
2 3 1 1101.41 39.7119 1
-3 -3 -1 242.002 18.84 3
3 3 1 246.895 17.1614 1
3 3 1 240.786 23.5212 3
-4 -3 -1 82.4453 11.0941 2
4 3 1 88.2624 19.6897 3
4 3 1 72.1951 12.1422 1
-5 -3 -1 1.36943 7.48537 2
5 3 1 3.94208 14.8211 3
-6 -3 -1 14.766 6.71328 2
6 3 1 15.6438 18.6605 3
8 -4 -1 13.1807 16.1218 1
8 -4 -1 -8.885 10.102 3
-8 4 1 33.6176 16.3434 3
7 -4 -1 101.153 20.085 1
7 -4 -1 113.03 15.5529 3
-7 4 1 96.8422 16.513 3
6 -4 -1 164.391 21.761 1
-6 4 1 137.984 14.7766 3
5 -4 -1 226.204 9.49255 2
5 -4 -1 217.435 19.3022 1
5 -4 -1 196.654 13.5314 3
5 -4 -1 223.315 9.7739 2
-5 4 1 228.08 15.2396 3
4 -4 -1 311.217 13.1766 2
4 -4 -1 312.2 19.651 1
4 -4 -1 288.693 13.7038 3
-4 4 1 281.089 14.6164 3
3 -4 -1 302.389 12.8831 3
3 -4 -1 287.862 16.5142 1
2 -4 -1 2390.3 75.0255 1
-2 4 1 2438.36 75.3535 1
1 -4 -1 167.266 10.2167 3
1 -4 -1 179.76 9.69958 1
-1 4 1 170.635 9.74077 1
0 -4 -1 66.8395 6.45928 1
0 -4 -1 70.7716 10.4869 3
0 4 1 73.0579 7.21901 1
0 4 1 70.2417 9.75697 3
-1 -4 -1 3792.33 115.947 3
1 4 1 3563.38 119.462 3
-2 -4 -1 102.458 10.7917 2
-2 -4 -1 105.099 11.7313 3
2 4 1 99.3391 15.7224 3
2 4 1 110.614 11.9525 1
-3 -4 -1 11.389 7.22627 2
-3 -4 -1 16.6183 8.75034 3
3 4 1 13.2172 12.6646 3
3 4 1 24.7024 8.72639 1
-4 -4 -1 256.606 18.0709 2
4 4 1 258.73 26.8095 3
-5 -4 -1 214.975 17.7028 2
5 4 1 157.84 28.2053 3
-6 -4 -1 4.53029 9.32387 2
6 4 1 7.00795 18.794 3
8 -5 -1 37.8837 16.9951 1
8 -5 -1 68.5119 13.1195 3
-8 5 1 23.1373 15.0848 3
7 -5 -1 281.526 19.7261 3
7 -5 -1 264.759 28.4677 1
-7 5 1 257.349 20.8254 3
6 -5 -1 54.2238 9.00912 3
6 -5 -1 69.181 15.0196 1
6 -5 -1 66.1596 4.84371 2
6 -5 -1 68.5248 5.18754 2
-6 5 1 71.6147 10.779 3
5 -5 -1 272.531 21.3855 1
5 -5 -1 279.123 13.9409 3
5 -5 -1 252.04 12.6219 2
4 -5 -1 401.686 17.7779 2
4 -5 -1 429.542 23.2778 1
4 -5 -1 401.106 16.1028 3
3 -5 -1 1512.48 53.3559 1
3 -5 -1 1521.08 48.1622 3
-3 5 1 1497.28 52.4363 1
2 -5 -1 275.875 14.6346 1
2 -5 -1 269.45 13.6618 3
-2 5 1 311.383 15.4367 1
1 -5 -1 6418.14 181.515 3
1 -5 -1 5926.29 178.658 1
-1 5 1 5994.25 180.038 1
0 -5 -1 4065.83 122.098 3
0 -5 -1 4120.59 117.379 1
0 5 1 3622.72 123.4 3
0 5 1 3847.82 119.234 1
-1 -5 -1 1282.85 46.8232 3
1 5 1 1039.63 48.8919 3
1 5 1 1146.67 43.5851 1
-2 -5 -1 3415.08 112.869 3
-2 -5 -1 3579.72 109.17 2
2 5 1 3330.46 119.996 3
2 5 1 3308.43 110 1
-3 -5 -1 176.507 16.8046 2
3 5 1 203.707 45.578 3
3 5 1 220.498 18.4248 1
-4 -5 -1 95.7113 13.4888 2
4 5 1 90.5783 22.8446 3
-5 -5 -1 16.3763 10.2281 2
5 5 1 37.4883 20.7716 3
8 -6 -1 74.0199 20.6046 1
7 -6 -1 394.055 20.6591 3
7 -6 -1 473.071 35.2891 1
6 -6 -1 304.12 26.0334 1
6 -6 -1 312.267 15.7385 3
6 -6 -1 318.189 14.5759 2
6 -6 -1 323.206 15.4407 2
5 -6 -1 41.6982 6.98815 2
5 -6 -1 73.7118 13.2145 1
5 -6 -1 40.8276 5.422 3
4 -6 -1 170.084 9.22477 3
4 -6 -1 153.912 15.2423 1
3 -6 -1 307.266 17.6074 1
3 -6 -1 288.504 13.8469 3
-3 6 1 291.625 17.4479 1
2 -6 -1 118.465 10.4662 1
2 -6 -1 128.987 10.1634 3
-2 6 1 114.406 10.7549 1
1 -6 -1 657.362 26.4155 1
1 -6 -1 698.82 29.138 3
-1 6 1 688.19 28.1896 1
0 -6 -1 550.937 26.9543 3
0 6 1 538.428 29.4084 3
0 6 1 570.294 25.6744 1
-1 -6 -1 4.92508 6.90709 3
-1 -6 -1 -0.9698 5.46413 1
1 6 1 -5.7328 6.42106 1
1 6 1 3.27873 8.91087 3
-2 -6 -1 269.109 19.2082 2
-2 -6 -1 220.732 20.4275 3
2 6 1 254.493 19.6869 1
2 6 1 235.412 23.8092 3
-3 -6 -1 63.4171 12.9639 2
3 6 1 28.2686 17.3534 3
-4 -6 -1 63.5488 13.8443 2
4 6 1 74.3131 22.8865 3
-5 -6 -1 48.2169 15.3951 2
5 6 1 37.3645 22.6844 3
8 -7 -1 -6.5744 13.8785 1
7 -7 -1 9.55071 4.35852 2
7 -7 -1 11.7964 13.2976 1
7 -7 -1 -0.853 3.96064 2
6 -7 -1 -0.5529 4.87487 2
6 -7 -1 11.3827 11.1568 1
5 -7 -1 94.0697 10.8386 2
5 -7 -1 90.2771 5.66297 3
5 -7 -1 107.55 15.6013 1
4 -7 -1 382.126 16.2663 3
4 -7 -1 365.338 22.7088 1
4 -7 -1 380.057 16.1456 3
-4 7 1 428.983 23.6168 1
3 -7 -1 358.533 20.0806 1
3 -7 -1 337.559 16.8195 3
-3 7 1 379.125 21.2512 1
2 -7 -1 328.125 18.0922 1
2 -7 -1 355.917 18.7351 3
-2 7 1 337.841 19.5415 1
1 -7 -1 972.728 39.0323 3
1 -7 -1 997.983 36.2062 1
-1 7 1 889.581 37.3848 1
0 -7 -1 1715 60.7377 3
0 -7 -1 1574.35 54.46 1
0 7 1 1544.99 57.9973 1
-1 -7 -1 526.63 29.647 3
-1 -7 -1 533.38 25.3552 1
1 7 1 486.35 28.1952 1
1 7 1 514.111 35.127 3
-2 -7 -1 991.974 41.7384 2
2 7 1 855.841 51.8988 3
2 7 1 869.133 43.1676 1
-3 -7 -1 738.208 42.0567 2
3 7 1 714.592 51.116 3
-4 -7 -1 67.3677 14.1141 2
4 7 1 48.3755 20.7507 3
8 -8 -1 86.1359 21.8864 1
7 -8 -1 329.572 30.265 1
7 -8 -1 337.247 17.1099 2
7 -8 -1 307.066 17.4322 2
6 -8 -1 335.727 28.1232 1
6 -8 -1 329.828 19.029 2
5 -8 -1 199.175 15.8618 2
5 -8 -1 238.927 20.6397 1
4 -8 -1 221.098 12.4934 3
4 -8 -1 235.403 18.4571 1
4 -8 -1 204.313 12.186 3
-4 8 1 247.364 18.5443 1
3 -8 -1 601.518 25.9052 3
3 -8 -1 581.872 27.7023 1
-3 8 1 543.159 27.9889 1
2 -8 -1 395.634 20.9406 1
2 -8 -1 395.243 21.4763 3
-2 8 1 353.852 21.8378 1
1 -8 -1 216.631 14.5072 1
1 -8 -1 202.094 17.5268 3
-1 8 1 194.552 16.4602 1
0 -8 -1 21.63 9.31389 3
0 -8 -1 21.5424 7.25807 1
0 8 1 20.5698 7.99538 1
1 8 1 104.724 17.9661 1
-2 -8 -1 81.4114 14.5788 2
2 8 1 42.5846 19.1685 3
-3 -8 -1 -10.556 8.04947 2
3 8 1 -6.5291 17.5931 3
7 -9 -1 21.1808 7.64501 2
7 -9 -1 15.6485 12.0102 1
7 -9 -1 15.8433 7.84834 2
6 -9 -1 34.8053 13.5445 1
5 -9 -1 39.2155 9.84173 2
5 -9 -1 50.0814 12.748 1
4 -9 -1 226.443 18.364 1
4 -9 -1 197.187 13.1478 3
4 -9 -1 218.897 13.4888 3
-4 9 1 206.317 18.1038 1
3 -9 -1 44.3839 9.85732 1
3 -9 -1 52.4028 9.3925 3
-3 9 1 28.6582 9.2749 1
2 -9 -1 25.8778 8.70356 3
2 -9 -1 13.4839 8.07883 1
-2 9 1 15.3028 8.13984 1
1 -9 -1 33.709 8.30859 1
-1 9 1 33.8016 9.73169 1
0 -9 -1 148.3 15.1776 1
0 9 1 148.986 20.648 1
1 9 1 376.24 27.6123 1
-2 -9 -1 85.712 16.2885 2
-3 -9 -1 113.877 18.9653 2
7 -10 -1 129.323 21.7927 1
7 -10 -1 150.226 15.9094 2
6 -10 -1 441.818 31.4745 1
5 -10 -1 125.041 6.88302 3
5 -10 -1 133.941 6.98072 3
5 -10 -1 124.64 17.901 1
4 -10 -1 358.413 23.8628 1
-4 10 1 326.811 24.4109 1
3 -10 -1 1100.07 43.0239 3
3 -10 -1 1047.41 44.1375 1
-3 10 1 1016.65 46.0573 1
2 -10 -1 190.716 18.3984 3
2 -10 -1 223.234 17.3134 1
-2 10 1 222.159 18.6825 1
1 -10 -1 290.411 22.3512 3
1 -10 -1 306.053 19.605 1
-1 10 1 238.945 22.5032 1
0 -10 -1 111.975 13.9557 1
0 10 1 80.0711 16.0318 1
-1 -10 -1 85.3813 17.2854 2
-2 -10 -1 104.324 18.2733 2
7 -11 -1 51.6667 18.3289 1
6 -11 -1 133.163 20.1185 1
5 -11 -1 162.863 20.3198 1
5 -11 -1 172.011 9.56006 3
5 -11 -1 147.686 9.03909 3
4 -11 -1 11.7506 9.06129 1
4 -11 -1 18.7889 7.93437 3
3 -11 -1 29.9741 10.4357 1
3 -11 -1 19.1252 9.44888 3
2 -11 -1 6.33851 7.89753 1
2 -11 -1 0.55814 9.70813 3
1 -11 -1 11.7155 9.33231 1
0 -11 -1 20.6201 10.379 1
-1 -11 -1 41.0595 16.1501 2
6 -12 -1 84.4136 19.1513 1
5 -12 -1 36.5726 6.23113 3
5 -12 -1 49.6659 13.3178 1
5 -12 -1 55.9804 7.04504 3
4 -12 -1 54.8306 10.5025 3
4 -12 -1 48.5892 12.6708 1
3 -12 -1 141.603 18.1273 3
3 -12 -1 170.121 19.1255 1
2 -12 -1 390.698 25.1552 1
1 -12 -1 101.94 14.8181 1
0 -12 -1 107.357 17.1982 1
0 -12 -1 153.216 23.5016 2
5 -13 -1 86.0402 9.96671 3
5 -13 -1 81.4017 16.8518 1
4 -13 -1 25.75 11.0031 3
4 -13 -1 47.9796 13.0225 1
3 -13 -1 28.6317 11.3027 1
2 -13 -1 13.8891 9.84617 1
1 -13 -1 24.4921 10.7135 1
1 -14 2 209.977 38.915 1
2 -14 2 -8.1812 10.8051 1
3 -14 2 126.575 18.5393 1
4 -14 2 47.6774 17.7209 1
0 -13 2 3.40447 10.2592 1
1 -13 2 32.2743 11.4944 1
2 -13 2 -6.7052 10.2781 3
2 -13 2 10.3807 9.44903 1
3 -13 2 161.761 16.5467 3
3 -13 2 186.419 20.3766 1
4 -13 2 48.1917 14.3828 1
5 -13 2 61.3498 18.3959 1
1 12 -2 122.082 26.8633 3
-1 -12 2 126.705 17.867 1
0 12 -2 137.528 25.5284 3
0 -12 2 170.661 18.7767 1
1 -12 2 577.632 31.8053 1
2 -12 2 495.269 29.2387 1
2 -12 2 415.341 27.5129 3
3 -12 2 166.42 19.8054 1
3 -12 2 138.184 14.0997 3
4 -12 2 463.978 31.0353 1
5 -12 2 122.05 20.0532 1
6 -12 2 2.34224 13.2556 1
2 11 -2 27.0321 21.4143 3
1 11 -2 75.4502 21.4141 3
-1 -11 2 39.2089 11.857 1
0 11 -2 0.3403 13.5719 3
0 -11 2 6.24657 8.60915 1
-1 11 -2 -7.3147 8.89904 3
1 -11 2 0.60314 9.34153 3
1 -11 2 2.69685 8.24966 1
2 -11 2 22.9091 11.1575 1
2 -11 2 22.2641 8.79805 3
3 -11 2 11.1738 6.2641 3
3 -11 2 6.99465 8.32773 1
4 -11 2 141.927 19.2126 1
5 -11 2 -15.994 10.861 1
6 -11 2 165.264 23.64 1
7 -11 2 218.387 28.8638 1
3 10 -2 107.601 23.3876 3
2 10 -2 174.513 28.5264 3
1 10 -2 86.1718 21.2993 3
-1 -10 2 66.9466 12.4839 1
0 10 -2 221.196 26.3147 3
0 -10 2 295.869 24.6978 3
0 -10 2 250.26 19.2724 1
-1 10 -2 338.823 25.5617 3
-1 10 -2 342.939 25.7041 1
1 -10 2 416.75 25.9639 3
1 -10 2 379.735 23.2178 1
-2 10 -2 1165.16 50.7488 1
2 -10 2 1188.12 47.5202 1
2 -10 2 1101.88 44.6414 3
3 -10 2 871.981 40.2596 1
3 -10 2 881.763 31.829 3
4 -10 2 593.008 33.1705 1
4 -10 2 537.688 34.3439 2
5 -10 2 733.061 35.4878 2
5 -10 2 765.685 41.2808 1
6 -10 2 185.885 24.6208 1
6 -10 2 151.705 15.9186 2
7 -10 2 271.059 20.2665 2
7 -10 2 244.662 31.6079 1
4 9 -2 33.4359 21.5342 3
-4 -9 2 36.0034 12.6876 2
3 9 -2 2.09465 16.3901 3
2 9 -2 271.29 30.7098 3
1 9 -2 326.858 29.65 3
-1 -9 2 268.402 28.7578 3
-1 -9 2 302.05 20.7107 1
0 9 -2 126.596 18.9624 3
0 9 -2 156.772 17.4143 1
0 -9 2 161.406 16.9341 3
0 -9 2 150.556 16.3184 2
0 -9 2 142.625 15.129 1
-1 9 -2 3.34853 9.22691 1
-1 9 -2 28.197 9.04466 3
1 -9 2 25.9848 8.84705 3
1 -9 2 26.3894 10.0243 2
1 -9 2 38.828 9.5966 1
-2 9 -2 51.7612 11.4509 1
2 -9 2 60.4136 11.031 1
2 -9 2 67.6854 11.9274 2
-3 9 -2 906.926 41.6374 1
3 -9 2 924.387 40.0814 2
3 -9 2 938.259 41.1029 1
3 -9 2 898.086 30.2651 3
4 -9 2 151.097 18.2107 1
4 -9 2 154.169 14.6485 2
5 -9 2 35.5597 10.8619 2
5 -9 2 26.0208 11.5831 1
6 -9 2 12.3232 7.89086 2
6 -9 2 1.73417 10.9674 1
7 -9 2 20.7665 7.91299 2
7 -9 2 9.82773 13.2355 1
4 8 -2 192.904 30.0557 3
-4 -8 2 165.005 21.2179 2
3 8 -2 21.9992 15.7327 3
-2 -8 2 262.852 20.5319 1
-2 -8 2 279.022 20.8027 2
1 8 -2 24.2355 10.1763 1
1 8 -2 33.2731 12.9596 3
-1 -8 2 31.3563 8.84785 1
-1 -8 2 19.7679 9.2124 2
-1 -8 2 24.5987 10.562 3
0 8 -2 31.3071 9.59945 1
0 8 -2 46.2173 12.9373 3
0 -8 2 39.8348 10.156 2
0 -8 2 41.4031 8.57818 1
0 -8 2 43.6809 10.6292 3
-1 8 -2 972.51 41.3566 1
1 -8 2 948.601 38.6913 3
1 -8 2 930.402 37.7126 1
1 -8 2 944.776 40.7407 2
-2 8 -2 1332.17 51.5605 1
2 -8 2 1335.29 49.7474 1
2 -8 2 1244.5 49.8505 2
2 -8 2 1306.15 44.7599 3
-3 8 -2 1118.74 46.9904 1
3 -8 2 1171.88 46.4212 1
3 -8 2 1050.1 43.3615 2
-4 8 -2 311.46 22.0951 1
4 -8 2 304.383 19.154 2
4 -8 2 294.277 22.3573 1
5 -8 2 222.142 16.091 2
5 -8 2 239.723 22.7365 1
6 -8 2 317.844 28.0954 1
6 -8 2 298.688 17.9408 2
7 -8 2 130.522 25.9345 1
7 -8 2 125.355 11.442 2
5 7 -2 546.342 45.5107 3
-5 -7 2 554.799 29.8895 2
-5 -7 2 539.059 29.3548 2
4 7 -2 9.18026 15.7654 3
-4 -7 2 29.8148 10.1165 2
3 7 -2 97.5215 20.4937 3
2 7 -2 801.697 43.0191 3
2 7 -2 710.198 37.8472 1
-2 -7 2 737.525 34.4497 1
-2 -7 2 830.729 41.1908 3
-2 -7 2 821.692 36.1247 2
1 7 -2 1242.28 52.705 1
1 7 -2 1375.02 56.5058 3
-1 -7 2 1399.65 51.9465 2
-1 -7 2 1352.84 54.2696 3
-1 -7 2 1340.24 48.8654 1
0 7 -2 711.98 32.6845 1
0 7 -2 689.725 33.3728 3
0 -7 2 756.544 30.1292 1
0 -7 2 742.605 32.7554 2
0 -7 2 684.81 32.6762 3
-1 7 -2 908.323 37.6411 1
-1 7 -2 893.69 35.3956 3
1 -7 2 886.942 34.9422 3
1 -7 2 877.458 37.1581 2
1 -7 2 923.296 35.8269 1
-2 7 -2 2328.98 77.3295 1
-2 7 -2 2230.62 69.0623 3
2 -7 2 2281.67 75.8926 1
2 -7 2 2174.37 75.2098 2
2 -7 2 2282.09 69.4093 3
-3 7 -2 1229.94 48.4759 1
3 -7 2 1228.2 48.4471 1
3 -7 2 1241.22 45.525 2
-4 7 -2 2922.62 99.961 1
4 -7 2 2998.71 94.4703 2
4 -7 2 3019.26 101.67 1
5 -7 2 676.589 28.4313 2
6 -7 2 42.081 14.7182 1
6 -7 2 31.2633 7.38923 2
7 -7 2 49.9552 17.2622 1
5 6 -2 122.861 22.9569 3
-5 -6 2 75.0023 11.7797 2
-5 -6 2 88.8419 12.4969 2
4 6 -2 780.445 47.225 3
-4 -6 2 791.567 34.5132 2
3 6 -2 47.3215 12.5675 1
3 6 -2 34.1515 14.2833 3
-3 -6 2 49.6207 10.5151 2
2 6 -2 2.44868 9.11904 3
2 6 -2 4.36962 7.21485 1
-2 -6 2 16.1319 7.08893 2
-2 -6 2 19.288 7.95824 1
-2 -6 2 3.66221 7.7105 3
1 6 -2 129.957 12.2352 1
1 6 -2 118.424 14.4817 3
-1 -6 2 127.616 13.8969 3
-1 -6 2 176.431 13.606 2
-1 -6 2 105.377 11.0892 1
0 6 -2 7.50295 5.7801 3
0 6 -2 -3.2999 3.97404 1
0 -6 2 -3.2089 3.39441 2
0 -6 2 1.8987 4.53947 1
0 -6 2 -0.7738 4.55073 3
-1 6 -2 447.028 20.9205 3
-1 6 -2 491.468 23.3679 1
1 -6 2 542.479 24.1512 2
1 -6 2 519.165 21.4706 3
1 -6 2 484.416 22.461 1
-2 6 -2 719.239 30.6117 1
2 -6 2 710.846 30.2226 1
2 -6 2 688.824 23.2002 3
2 -6 2 710.487 29.1556 2
-3 6 -2 130.885 12.7307 1
3 -6 2 117.124 12.9047 1
3 -6 2 133.506 11.1931 2
4 -6 2 269.541 20.5955 1
4 -6 2 274.68 15.0614 2
5 -6 2 459.623 20.7767 2
5 -6 2 467.951 30.1194 1
-6 6 -2 22.6553 4.77826 3
6 -6 2 28.5129 13.2067 1
-7 6 -2 113.273 11.7768 3
7 -6 2 111.141 6.37789 2
7 -6 2 116.164 23.4604 1
6 5 -2 28.1436 18.2801 3
-6 -5 2 20.073 11.9578 2
5 5 -2 55.8733 17.4002 3
-5 -5 2 59.1125 9.96055 2
-5 -5 2 42.9126 8.89606 2
4 5 -2 289.85 25.9519 3
-4 -5 2 292.843 17.9329 2
3 5 -2 6.18073 10.3806 3
3 5 -2 8.16459 7.64762 1
-3 -5 2 11.9854 6.55849 2
-3 -5 2 0.64339 6.28764 3
2 5 -2 959.747 41.9815 3
2 5 -2 938.849 39.5643 1
-2 -5 2 893.788 41.0252 3
-2 -5 2 1007.4 37.4776 2
-2 -5 2 946.127 37.4725 1
1 5 -2 5498.01 160.561 3
1 5 -2 5088.76 157.989 1
-1 -5 2 5157.01 154.804 1
-1 -5 2 5127.75 156.261 2
-1 -5 2 5074.01 159.717 3
0 5 -2 4941.95 149.816 3
0 5 -2 5113.65 150.204 1
0 -5 2 5155.14 148.422 1
0 -5 2 4930.44 149.648 2
0 -5 2 4725.71 149.506 3
-1 5 -2 3578.95 112.442 3
-1 5 -2 3861.72 116.611 1
1 -5 2 3926.07 112.806 3
1 -5 2 3852.31 115.633 1
1 -5 2 3759.89 115.756 2
-2 5 -2 8119.15 227.299 1
2 -5 2 7679.03 228.008 2
2 -5 2 7219.6 231.761 1
-3 5 -2 3666.62 115.3 1
3 -5 2 3663.47 116.298 1
-4 5 -2 2217.89 63.0343 3
4 -5 2 2047.61 75.6405 1
-5 5 -2 1785.65 58.1589 3
5 -5 2 1782.1 70.8223 1
5 -5 2 1825.31 57.4515 2
-6 5 -2 47.295 9.23831 3
6 -5 2 42.6676 5.84271 2
6 -5 2 53.9311 14.9503 1
-7 5 -2 45.2012 12.3596 3
7 -5 2 74.2791 19.2438 1
6 4 -2 75.6402 20.9738 3
-6 -4 2 79.5028 9.05401 2
-6 -4 2 109.511 9.31746 2
5 4 -2 447.561 34.2559 3
-5 -4 2 477.452 22.4726 2
-5 -4 2 456.962 21.5548 2
4 4 -2 399.982 29.1814 3
4 4 -2 389.315 24.5456 1
-4 -4 2 380.22 28.1518 3
-4 -4 2 408.004 19.5495 2
3 4 -2 1142.06 46.7062 1
3 4 -2 1195.39 50.194 3
-3 -4 2 1221.94 42.9297 2
-3 -4 2 1262.6 51.674 3
2 4 -2 61.218 9.2529 1
2 4 -2 62.6271 11.1405 3
-2 -4 2 58.7447 10.8019 3
-2 -4 2 64.691 8.10092 2
1 4 -2 1966.26 65.2344 3
1 4 -2 1908.41 64.0459 1
-1 -4 2 1935.13 61.8569 1
-1 -4 2 1931.29 62.6738 2
0 4 -2 901.311 32.2532 1
0 4 -2 843.224 31.4662 3
0 -4 2 878.498 31.1819 1
0 -4 2 864.453 31.8173 2
0 -4 2 910.195 32.1945 3
-1 4 -2 79.9114 5.63987 3
-1 4 -2 84.9299 7.02234 2
-1 4 -2 68.8125 6.7308 1
1 -4 2 87.2902 5.55882 3
1 -4 2 92.7527 7.2917 2
1 -4 2 88.6554 7.62992 1
-2 4 -2 660.027 27.3335 1
-2 4 -2 702.718 26.2677 2
2 -4 2 675.309 25.3009 2
2 -4 2 700.482 28.0879 1
-3 4 -2 344.255 12.8076 3
-3 4 -2 333.895 16.3833 2
3 -4 2 356.924 15.5335 2
3 -4 2 335.151 19.6135 1
-4 4 -2 38.1549 6.32885 3
-4 4 -2 42.3992 6.95928 2
4 -4 2 27.7896 9.44025 1
4 -4 2 35.7039 5.61491 2
-5 4 -2 31.2057 7.60933 3
5 -4 2 35.6801 5.44693 2
5 -4 2 33.2138 11.5859 1
-6 4 -2 527.711 28.7175 3
6 -4 2 555.643 19.2266 2
6 -4 2 539.957 35.7677 1
-7 4 -2 9.06497 11.0217 3
7 -4 2 6.58385 14.3395 1
7 3 -2 -3.2786 14.5651 3
6 3 -2 47.6656 17.5475 3
5 3 -2 75.3279 18.6015 3
-5 -3 2 50.6371 6.87386 2
-5 -3 2 46.9564 6.68069 2
4 3 -2 51.3891 13.0038 3
4 3 -2 29.314 7.92868 1
-4 -3 2 26.4945 9.60966 3
-4 -3 2 36.6394 6.52854 2
3 3 -2 190.86 14.4767 1
3 3 -2 156.365 16.042 3
-3 -3 2 180.864 15.7514 3
-3 -3 2 178.288 11.3844 2
2 3 -2 294.775 16.3237 1
2 3 -2 325.632 21.3953 3
-2 -3 2 283.993 17.8787 3
-2 -3 2 294.685 14.2375 2
1 3 -2 5010.33 144.89 1
1 3 -2 4777.57 145.198 3
-1 -3 2 4891.99 143.263 2
-1 -3 2 4763.97 146.295 3
0 3 -2 1021.83 35.4904 1
0 3 -2 1059.43 35.1341 3
0 3 -2 1064.53 35.2962 2
0 -3 2 1115.63 35.8247 2
0 -3 2 1108.58 35.3787 1
0 -3 2 1017.34 35.2012 3
-2 3 -2 5508.26 162.327 2
-2 3 -2 5516.7 164.393 1
-2 3 -2 5423.64 158.84 3
2 -3 2 5706.31 161.732 2
2 -3 2 5605.54 165.213 1
-3 3 -2 2666.16 80.0015 3
-3 3 -2 2579.14 80.6645 2
3 -3 2 2646.13 79.6249 2
3 -3 2 2661.93 86.5944 1
-4 3 -2 1602.35 54.4708 3
-4 3 -2 1650.48 52.0912 2
4 -3 2 1540.21 60.5792 1
4 -3 2 1632 50.6436 2
-5 3 -2 1305.25 42.5853 2
-5 3 -2 1312.28 49.5903 3
5 -3 2 1306.47 41.6945 2
5 -3 2 1314.84 57.1633 1
-6 3 -2 600.305 32.0945 3
6 -3 2 567.563 38.7783 1
-7 3 -2 4.23385 11.4411 3
7 -3 2 19.2403 16.2751 1
7 2 -2 31.9339 15.5605 3
6 2 -2 133.715 21.8937 3
5 2 -2 545.476 32.2553 3
-5 -2 2 425.73 15.9518 2
-5 -2 2 490.896 32.0851 3
-5 -2 2 455.544 16.1288 2
4 2 -2 596.203 31.0091 3
4 2 -2 600.17 28.6209 1
-4 -2 2 560.862 21.0578 2
-4 -2 2 595.745 32.8819 3
-4 -2 2 576.738 20.8935 2
3 2 -2 1163.16 44.6319 3
3 2 -2 1121.58 42.3046 1
-3 -2 2 1121.26 37.1476 2
-3 -2 2 1180.34 46.5279 3
2 2 -2 2087.85 67.2217 3
2 2 -2 2038.25 65.5061 1
-2 -2 2 2040.12 62.4281 2
-2 -2 2 2017.71 68.726 3
1 2 -2 3587.68 102.182 2
1 2 -2 3489.84 104.744 3
1 2 -2 3407.35 103.702 1
-1 -2 2 3570.1 103.404 1
-1 -2 2 3418.66 102.604 2
-1 -2 2 3451.92 105.671 3
-1 2 -2 2635.58 78.9569 2
-1 2 -2 2627.53 79.5845 1
1 -2 2 2673.54 79.8958 1
1 -2 2 2637.42 78.7178 2
-2 2 -2 2563.46 76.8898 3
-2 2 -2 2480.99 77.3754 2
2 -2 2 2582.25 76.7706 2
2 -2 2 2636.76 80.7814 1
-3 2 -2 1432.47 46.9511 3
-3 2 -2 1330.35 45.1193 2
3 -2 2 1413.81 51.2746 1
3 -2 2 1423.45 44.2834 2
-4 2 -2 661.901 27.6866 3
-4 2 -2 585.639 23.191 2
4 -2 2 549.643 28.4198 3
4 -2 2 606.033 21.9737 2
4 -2 2 627.674 32.143 1
-5 2 -2 89.4075 12.8885 3
-5 2 -2 78.4085 7.70821 2
5 -2 2 64.4631 13.5612 3
5 -2 2 55.1821 13.9667 1
-6 2 -2 283.581 22.9661 3
6 -2 2 235.8 26.8877 1
7 1 -2 93.3269 20.1739 3
5 1 -2 18.227 10.0201 3
4 1 -2 88.8849 12.6137 3
-4 -1 2 89.9049 4.13539 2
-4 -1 2 106.387 14.9988 3
-4 -1 2 79.1457 4.10741 2
3 1 -2 632.772 27.5902 3
-3 -1 2 662.743 30.0067 3
-3 -1 2 618.182 20.6447 2
2 1 -2 168.162 10.8345 3
-2 -1 2 171.154 7.70094 2
-2 -1 2 177.062 11.936 3
1 1 -2 530.384 17.1285 2
1 1 -2 511.779 19.2746 3
1 1 -2 495.568 17.8894 1
-1 -1 2 477.997 17.8541 1
-1 -1 2 512.111 19.7257 3
-1 -1 2 516.942 17.3812 2
0 1 -2 1121.8 33.9886 2
0 1 -2 1003.24 34.2083 3
0 1 -2 1068.94 33.0188 1
0 -1 2 1082.83 32.9837 1
0 -1 2 1133.22 34.0916 2
-1 1 -2 355.394 14.0813 2
1 -1 2 358.004 14.4249 1
1 -1 2 364.489 13.808 2
-2 1 -2 2125.43 65.2517 3
-2 1 -2 2020.09 63.8818 2
2 -1 2 2217.41 67.4751 1
2 -1 2 1979.53 62.9001 2
-3 1 -2 968.56 33.1066 2
3 -1 2 1009.84 31.9443 2
3 -1 2 858.744 37.3809 3
-4 1 -2 284.334 14.43 2
-4 1 -2 294.404 18.7576 3
4 -1 2 280.006 13.1584 2
4 -1 2 259.155 20.3414 3
-5 1 -2 772.648 35.9762 3
-5 1 -2 717.398 26.6951 2
5 -1 2 670.402 38.9878 3
-6 1 -2 454.226 15.5675 2
6 -1 2 439.7 35.8222 1
7 -1 2 -11.011 14.2053 1
7 0 -2 74.759 17.2312 3
6 0 -2 90.2876 16.207 3
-6 0 2 71.263 17.1414 3
5 0 -2 654.462 32.0961 3
-5 0 2 600.505 35.0459 3
4 0 -2 3562.99 110.285 3
-4 0 2 3376.5 113.504 3
3 0 -2 1434.63 48.1289 3
-3 0 2 1341.02 49.9302 3
2 0 -2 3219.67 92.8631 3
2 0 -2 3018.17 87.7169 2
-2 0 2 3009.83 87.9962 2
-2 0 2 2968.9 93.533 3
0 0 -2 1617.33 49.5981 2
0 0 -2 1674.93 47.2816 1
0 0 2 1597.31 49.4911 2
0 0 2 1636.87 47.3249 1
-1 0 -2 3280.84 98.6335 3
-1 0 -2 3304.92 97.4866 2
1 0 2 3287.35 96.9516 2
-2 0 -2 1738.41 54.3869 2
-2 0 -2 1742.13 56.6477 3
2 0 2 1605.51 58.125 3
2 0 2 1772.27 53.4816 2
-3 0 -2 3208.9 96.1912 2
-3 0 -2 3163.13 99.7498 3
3 0 2 3038.84 103.535 3
3 0 2 3167.87 94.4641 2
-4 0 -2 529.367 27.3978 3
-4 0 -2 547.159 22.8195 2
4 0 2 470.153 29.9497 3
-5 0 -2 315.52 23.3987 3
-5 0 -2 339.347 17.2609 2
5 0 2 314.084 28.4273 3
-6 0 -2 356.655 15.2572 2
7 0 2 89.6483 23.0399 1
8 -1 -2 93.201 19.2015 3
6 -1 -2 487.387 29.5515 3
-6 1 2 448.381 36.6823 3
5 -1 -2 81.7512 11.9824 3
-5 1 2 69.2142 12.5375 3
4 -1 -2 207.334 14.7667 3
-4 1 2 236.225 16.8271 3
3 -1 -2 2531.16 79.6241 3
3 -1 -2 2565.4 72.9744 2
-3 1 2 2569.11 81.7638 3
2 -1 -2 1673.34 50.409 2
2 -1 -2 1740.03 53.9532 3
-2 1 2 1694.86 50.6964 2
-2 1 2 1685.34 54.4578 3
-1 -1 -2 2397.22 75.6942 3
-1 -1 -2 2443.44 74.103 2
1 1 2 2409.79 73.3676 2
-2 -1 -2 207.03 12.3984 2
-2 -1 -2 230.761 14.299 3
2 1 2 218.529 15.503 3
-3 -1 -2 48.5015 7.55484 2
-3 -1 -2 45.2897 9.0688 3
3 1 2 33.5317 10.6866 3
-4 -1 -2 -3.655 5.16246 2
-4 -1 -2 -1.7812 6.41555 3
4 1 2 13.0569 10.8875 3
-5 -1 -2 137.602 12.8641 2
5 1 2 96.4108 20.5534 3
-6 -1 -2 12.0427 5.83892 2
8 -2 -2 16.8535 16.8921 1
8 -2 -2 6.18809 11.501 3
7 -2 -2 6.27709 10.6144 3
-7 2 2 -4.2876 12.3204 3
6 -2 -2 225.204 18.1486 3
-6 2 2 234.643 21.6242 3
5 -2 -2 16.1807 6.80714 3
-5 2 2 13.4513 7.96284 3
4 -2 -2 3615.38 105.781 3
-4 2 2 3219.16 107.711 3
3 -2 -2 4933.83 142.813 3
3 -2 -2 4828.48 138.638 2
-3 2 2 4683.7 143.953 3
2 -2 -2 2807.62 83.0969 1
2 -2 -2 2642.22 83.636 3
2 -2 -2 2818.21 82.0714 2
1 -2 -2 1772.55 55.8595 2
1 -2 -2 1788.43 53.006 1
-1 2 2 1820.68 53.1575 1
0 -2 -2 3836.8 112.166 1
0 -2 -2 3834.17 116.644 3
0 -2 -2 3808.11 115.903 2
0 2 2 4071.99 112.594 1
-1 -2 -2 514.928 21.5357 2
-1 -2 -2 520.987 23.3567 3
1 2 2 522.834 20.2272 1
-2 -2 -2 846.196 32.5161 2
-2 -2 -2 869.317 34.9743 3
2 2 2 818.742 38.3052 3
-3 -2 -2 1380.04 49.7769 2
-3 -2 -2 1437.65 53.6169 3
3 2 2 1361.98 59.0225 3
-4 -2 -2 468.87 27.8129 3
-4 -2 -2 484.095 24.2651 2
4 2 2 477.741 34.9984 3
-5 -2 -2 399.801 22.564 2
5 2 2 429.501 36.2608 3
8 -3 -2 13.7246 12.4873 3
8 -3 -2 1.18386 14.708 1
7 -3 -2 239.847 20.8294 3
7 -3 -2 184.449 25.3395 1
-7 3 2 247.668 23.7147 3
6 -3 -2 445.944 24.1769 3
-6 3 2 336.669 24.7838 3
5 -3 -2 1201.4 50.8858 1
5 -3 -2 1291.29 44.8798 3
-5 3 2 1169.52 47.4473 3
4 -3 -2 1091.46 41.9554 1
4 -3 -2 1043.65 32.9984 2
4 -3 -2 1036.91 36.923 3
-4 3 2 993.984 38.6804 3
3 -3 -2 5463.65 160.636 1
3 -3 -2 5337.63 156.521 2
3 -3 -2 5330.11 158.282 3
2 -3 -2 5440.89 158.237 1
-2 3 2 5390.78 158.141 1
1 -3 -2 1896.41 57.1763 1
-1 3 2 1913.17 57.6386 1
0 -3 -2 5122.05 147.133 1
0 -3 -2 4915.3 152.089 3
0 -3 -2 5110.27 151.629 2
0 3 2 5194.91 148.086 1
-1 -3 -2 2157.06 70.7167 3
-1 -3 -2 2098.68 68.8176 2
1 3 2 2079.5 66.6655 1
-2 -3 -2 296.958 18.4006 3
-2 -3 -2 270.025 16.5291 2
2 3 2 289.462 16.8228 1
2 3 2 270.963 22.4335 3
-3 -3 -2 1046.8 40.9794 2
-3 -3 -2 952.361 43.74 3
3 3 2 1061.94 52.083 3
3 3 2 1139.59 42.4641 1
-4 -3 -2 347.37 21.7256 2
4 3 2 345.937 23.1935 1
4 3 2 329.437 31.696 3
-5 -3 -2 7.88843 8.3609 2
5 3 2 10.6027 16.4678 3
-6 -3 -2 4.03898 8.92213 2
8 -4 -2 19.8337 11.6743 3
8 -4 -2 7.31574 12.9329 1
-8 4 2 12.5356 14.2687 3
7 -4 -2 33.5972 10.2246 3
7 -4 -2 16.7403 13.9468 1
-7 4 2 9.15784 10.4272 3
6 -4 -2 180.553 15.3243 3
-6 4 2 167.481 16.0745 3
5 -4 -2 6.06114 5.45163 3
5 -4 -2 2.47475 3.24488 2
5 -4 -2 4.68856 3.07082 2
5 -4 -2 20.1316 9.23873 1
-5 4 2 -1.8479 5.18176 3
4 -4 -2 233.427 12.4615 2
4 -4 -2 250.675 17.1119 1
4 -4 -2 251.47 13.5285 3
3 -4 -2 971.167 34.915 3
3 -4 -2 1013.73 36.8001 1
2 -4 -2 287.269 13.9028 1
-2 4 2 307.095 14.2484 1
1 -4 -2 193.581 9.63137 1
1 -4 -2 181.689 11.7793 3
-1 4 2 182.966 9.92235 1
0 -4 -2 955.719 37.2551 2
0 -4 -2 1020.29 32.5183 1
0 -4 -2 958.385 37.2102 3
0 4 2 912.455 33.3593 1
-1 -4 -2 33.7155 8.26882 3
-1 -4 -2 32.2491 7.69391 2
-2 -4 -2 682.095 30.7549 2
-2 -4 -2 707.564 33.5513 3
2 4 2 730.142 30.8099 1
2 4 2 666.826 37.811 3
-3 -4 -2 220.623 16.954 2
3 4 2 204.452 25.8166 3
3 4 2 251.282 19.3243 1
-4 -4 -2 5.11297 7.89868 2
4 4 2 16.2777 15.9509 3
-5 -4 -2 57.2423 12.6713 2
8 -5 -2 8.60112 9.44576 3
8 -5 -2 10.269 15.4695 1
-8 5 2 20.5717 14.0472 3
7 -5 -2 41.2131 15.7249 1
7 -5 -2 51.1508 10.7586 3
-7 5 2 70.6122 12.3585 3
6 -5 -2 977.791 31.9243 2
6 -5 -2 1041.73 38.3533 3
6 -5 -2 1022.06 32.372 2
5 -5 -2 470.562 19.5022 2
5 -5 -2 457.129 19.8131 2
5 -5 -2 502.135 20.9322 3
5 -5 -2 493.734 28.0746 1
4 -5 -2 1766.56 58.0092 3
4 -5 -2 1845.56 64.0021 1
3 -5 -2 871.893 33.5373 1
3 -5 -2 834.352 32.304 3
-3 5 2 907.716 33.9703 1
2 -5 -2 6161.35 182.315 1
-2 5 2 6269.61 183.126 1
1 -5 -2 2289.22 69.4483 1
1 -5 -2 2228.9 73.5039 3
-1 5 2 2216.23 70.5772 1
0 -5 -2 1665.01 59.397 3
0 -5 -2 1675.64 53.6845 1
0 5 2 1687.12 55.9001 1
-1 -5 -2 1853.07 64.7389 2
-1 -5 -2 1878.32 66.4192 3
1 5 2 1804.27 63.2071 1
-2 -5 -2 680.662 31.0769 2
-2 -5 -2 605.105 32.5538 3
2 5 2 646.372 40.093 3
2 5 2 623.056 30.7424 1
-3 -5 -2 707.163 33.5074 2
3 5 2 660.127 34.5667 1
3 5 2 684.251 45.4059 3
-4 -5 -2 169.539 18.1703 2
-5 -5 -2 32.0507 12.4845 2
8 -6 -2 56.4156 18.8277 1
8 -6 -2 56.3073 11.2933 3
7 -6 -2 -6.1387 10.6664 1
7 -6 -2 9.05334 6.77601 3
6 -6 -2 223.672 12.7558 2
6 -6 -2 256.454 14.614 3
6 -6 -2 253.849 13.858 2
5 -6 -2 1740.96 57.28 2
5 -6 -2 1746.08 56.0286 3
5 -6 -2 1723.96 65.5227 1
4 -6 -2 312.447 15.8679 3
4 -6 -2 289.303 18.9121 1
3 -6 -2 823.951 32.7074 1
-3 6 2 805.809 32.7474 1
2 -6 -2 222.238 14.7149 3
2 -6 -2 252.019 14.0252 1
-2 6 2 238.848 14.7057 1
1 -6 -2 300.096 18.433 3
1 -6 -2 323.319 15.6203 1
0 -6 -2 22.0419 6.07317 1
0 -6 -2 13.0222 7.38679 3
0 6 2 24.8097 7.02634 1
-1 -6 -2 24.7693 8.27488 3
-1 -6 -2 10.5422 8.16435 2
1 6 2 22.8715 8.69757 1
-2 -6 -2 18.578 10.3365 2
2 6 2 6.05774 8.7411 1
-3 -6 -2 15.8091 10.6539 2
-4 -6 -2 11.3603 10.2314 2
8 -7 -2 12.0288 15.5281 1
8 -7 -2 -5.0593 5.27375 3
7 -7 -2 17.4973 4.605 2
7 -7 -2 17.6411 6.0116 3
7 -7 -2 3.67584 12.3441 1
7 -7 -2 19.5757 5.67885 2
6 -7 -2 196.633 11.4633 3
6 -7 -2 200.475 14.2323 2
6 -7 -2 178.709 22.2334 1
6 -7 -2 189.844 13.5909 2
5 -7 -2 315.311 15.421 3
5 -7 -2 326.76 22.628 1
4 -7 -2 -4.9305 5.10402 1
4 -7 -2 9.33301 4.91995 3
3 -7 -2 1356.86 48.8593 3
3 -7 -2 1391.33 49.784 1
-3 7 2 1379.12 50.6891 1
2 -7 -2 279.912 17.7232 3
2 -7 -2 256.574 15.0202 1
-2 7 2 248.727 16.157 1
1 -7 -2 1581.87 57.4349 3
1 -7 -2 1545.11 52.1816 1
-1 7 2 1532.49 54.8757 1
0 -7 -2 1234.39 44.1254 1
0 7 2 1251.28 47.6268 1
-1 -7 -2 434.75 26.3979 2
1 7 2 402.103 24.5833 1
-2 -7 -2 302.398 26.8602 2
2 7 2 230.525 21.9314 1
-3 -7 -2 105.169 16.9303 2
-4 -7 -2 80.4046 16.319 2
8 -8 -2 140.883 24.2011 1
7 -8 -2 151.947 12.288 2
7 -8 -2 156.262 22.5816 1
7 -8 -2 153.928 13.4077 2
6 -8 -2 92.1715 16.6891 1
6 -8 -2 87.267 10.9927 2
6 -8 -2 76.0224 7.02192 3
6 -8 -2 108.522 12.9717 2
6 -8 -2 79.427 6.85264 3
5 -8 -2 940.1 33.3302 3
5 -8 -2 991.495 43.8105 1
5 -8 -2 880.943 33.0814 3
4 -8 -2 1271.95 46.3399 3
4 -8 -2 1248.41 49.5871 1
4 -8 -2 1301.14 45.6697 3
-4 8 2 1251.32 49.856 1
3 -8 -2 487.145 24.0754 3
3 -8 -2 515.895 24.9432 1
-3 8 2 468.275 25.0588 1
2 -8 -2 1678.1 58.0712 1
2 -8 -2 1750.71 61.5503 3
-2 8 2 1647.38 60.2892 1
1 -8 -2 382.788 23.647 3
1 -8 -2 399.192 19.6537 1
-1 8 2 359.861 21.4172 1
0 -8 -2 1023.5 46.4122 3
0 -8 -2 1133.51 41.2469 1
0 8 2 1060.94 44.7741 1
-1 -8 -2 266.733 22.7216 2
-2 -8 -2 98.448 16.9128 2
-3 -8 -2 68.5935 15.5097 2
7 -9 -2 20.1646 7.89862 2
7 -9 -2 14.5404 8.25061 2
7 -9 -2 30.053 12.5131 1
6 -9 -2 20.2834 11.0815 1
6 -9 -2 11.0617 8.33188 2
6 -9 -2 24.196 8.55361 2
5 -9 -2 51.5518 12.0544 1
5 -9 -2 64.1347 8.32283 3
5 -9 -2 69.7242 8.75639 3
4 -9 -2 -1.1796 5.85671 3
4 -9 -2 1.87566 6.79754 1
-4 9 2 -12.941 5.91324 1
3 -9 -2 17.4233 7.23043 1
3 -9 -2 15.4298 7.45167 3
-3 9 2 33.7294 8.61507 1
2 -9 -2 165.881 14.3715 1
2 -9 -2 160.104 15.6013 3
-2 9 2 146.654 14.9364 1
1 -9 -2 14.8231 7.32889 1
1 -9 -2 8.17303 8.24331 3
-1 9 2 2.11403 8.182 1
0 -9 -2 184.43 21.9349 2
0 -9 -2 160.155 15.8662 1
0 9 2 169.429 23.3111 1
-1 -9 -2 87.0961 16.5849 2
1 9 2 68.712 15.7566 1
-2 -9 -2 46.7986 16.0333 2
7 -10 -2 84.7897 13.5725 2
7 -10 -2 53.4449 16.0894 1
7 -10 -2 89.0389 13.1095 2
6 -10 -2 138.604 19.0784 1
5 -10 -2 216.608 14.3915 3
5 -10 -2 228.35 14.4769 3
5 -10 -2 189.226 19.5188 1
4 -10 -2 309.698 19.6284 3
4 -10 -2 328.968 22.0965 1
-4 10 2 274.123 21.6586 1
3 -10 -2 755.308 34.7948 1
3 -10 -2 764.585 35.2562 3
-3 10 2 762.514 36.9399 1
2 -10 -2 746.014 36.4411 3
2 -10 -2 713.454 32.172 1
1 -10 -2 694.465 31.1192 1
-1 10 2 629.669 34.2138 1
0 -10 -2 185.618 17.4283 1
0 -10 -2 161.791 22.179 2
0 10 2 201.581 21.449 1
-1 -10 -2 427.723 32.3268 2
7 -11 -2 4.64126 9.53464 2
7 -11 -2 60.5315 16.3998 1
6 -11 -2 15.4338 12.6367 1
5 -11 -2 20.913 7.3177 3
5 -11 -2 23.6471 7.79147 3
5 -11 -2 46.1361 13.7475 1
4 -11 -2 8.64021 8.38391 3
3 -11 -2 11.1188 8.42583 3
3 -11 -2 20.0167 9.84621 1
-3 11 2 -2.9833 8.91357 1
2 -11 -2 141.084 15.3674 1
-2 11 2 132.063 17.6305 1
1 -11 -2 32.7006 9.60948 1
1 -11 -2 61.865 17.5649 2
0 -11 -2 48.0497 15.7184 2
-1 -11 -2 -0.9378 15.2651 2
6 -12 -2 74.1759 15.6506 2
6 -12 -2 54.923 14.9585 1
5 -12 -2 61.4094 14.5094 1
5 -12 -2 73.5167 12.0993 3
5 -12 -2 70.8941 10.8906 3
4 -12 -2 72.638 12.7266 3
4 -12 -2 71.1004 14.3724 1
3 -12 -2 264.466 21.0795 1
2 -12 -2 263.463 21.0553 1
1 -12 -2 99.3117 21.076 2
1 -12 -2 86.0169 14.0712 1
5 -13 -2 122.297 15.2019 3
5 -13 -2 172.892 20.7284 1
4 -13 -2 70.0586 14.2941 1
3 -13 -2 28.75 11.4239 1
2 -13 -2 85.7304 21.7485 2
2 -13 -2 64.125 13.84 1
1 -14 3 5.93427 12.4522 1
2 -14 3 113.114 18.2683 1
3 -14 3 56.4401 21.6989 1
4 -14 3 23.2907 13.3753 1
-1 -13 3 79.5624 17.1088 1
0 13 -3 54.8106 20.3981 3
0 -13 3 49.6368 13.4325 1
1 -13 3 57.1709 14.6595 1
2 -13 3 91.9988 16.2686 1
3 -13 3 99.3117 12.9354 3
3 -13 3 89.2331 16.7526 1
4 -13 3 54.7128 14.4097 1
5 -13 3 79.2203 17.9885 1
2 12 -3 49.0326 23.1483 3
1 12 -3 307.84 34.7619 3
-1 -12 3 264.227 25.3041 1
0 12 -3 535.629 41.3831 3
0 -12 3 512.353 30.4381 1
-1 12 -3 631.69 38.6791 3
1 -12 3 637.116 34.2217 1
1 -12 3 662.461 36.7524 3
2 -12 3 13.3389 9.84312 1
2 -12 3 14.95 8.70479 3
3 -12 3 334.852 25.4864 1
4 -12 3 132.002 18.9871 1
5 -12 3 81.2362 18.1484 1
6 -12 3 143.102 23.4787 1
3 11 -3 34.6118 22.0939 3
2 11 -3 -0.1541 17.0478 3
-2 -11 3 22.3937 12.0884 1
1 11 -3 101.097 23.8775 3
-1 -11 3 92.7291 15.3517 1
0 11 -3 94.9671 19.9731 3
0 -11 3 81.9858 13.8497 1
-1 11 -3 181.843 20.9483 3
1 -11 3 165.593 17.8017 1
1 -11 3 156.079 19.1224 3
2 -11 3 619.917 30.7334 3
2 -11 3 645.711 33.7597 1
3 -11 3 40.2289 11.7839 1
3 -11 3 39.9719 6.68828 3
4 -11 3 3.52655 9.99641 1
5 -11 3 51.5132 15.2359 1
6 -11 3 -4.9712 12.6518 1
3 10 -3 -3.7935 15.7796 3
2 10 -3 271.738 31.1205 3
-2 -10 3 180.128 20.3349 1
1 10 -3 418.064 34.8967 3
-1 -10 3 339.535 23.5448 1
0 10 -3 597.99 36.0985 3
0 -10 3 546.643 33.1524 3
0 -10 3 553.799 29.8264 1
-1 10 -3 934.853 44.2084 3
1 -10 3 1054.39 44.7561 3
1 -10 3 1010.19 42.8183 1
-2 10 -3 488.126 24.1949 3
2 -10 3 472.27 27.3413 1
2 -10 3 466.842 23.9641 3
3 -10 3 37.7883 12.523 1
3 -10 3 41.7877 5.50386 3
4 -10 3 385.587 26.2071 1
5 -10 3 286.181 26.0505 1
6 -10 3 54.1609 16.3557 1
6 -10 3 78.2716 15.1224 2
7 -10 3 86.625 21.5532 1
4 9 -3 131.08 27.6324 3
3 9 -3 346.176 35.1655 3
2 9 -3 309.444 30.4213 3
-2 -9 3 287.609 22.5166 1
1 9 -3 781.872 43.3465 3
-1 -9 3 813.923 42.199 3
-1 -9 3 720.363 34.6397 1
-1 -9 3 823.709 44.0224 2
0 9 -3 1741.61 70.0426 1
0 9 -3 1895.84 71.1588 3
0 -9 3 1850.08 64.5677 1
0 -9 3 1764.85 69.323 3
0 -9 3 1850.86 69.026 2
-1 9 -3 1481.57 57.7059 3
-1 9 -3 1582.43 61.81 1
1 -9 3 1567.19 57.7453 3
1 -9 3 1522.23 60.5247 2
1 -9 3 1633.01 58.19 1
-2 9 -3 1273.12 45.1594 3
-2 9 -3 1224.25 52.292 1
2 -9 3 1325.38 50.9225 1
2 -9 3 1253.72 45.072 3
2 -9 3 1321.22 51.7742 2
-3 9 -3 1408.06 55.961 1
3 -9 3 1345.01 52.945 2
3 -9 3 1329.52 54.377 1
4 -9 3 126.795 13.7612 2
5 -9 3 -9.0173 8.93326 1
5 -9 3 -2.2689 6.89055 2
6 -9 3 20.7278 13.4393 1
6 -9 3 4.37965 7.6201 2
7 -9 3 43.4262 9.36274 2
7 -9 3 20.6111 15.005 1
5 8 -3 38.675 20.8597 3
-5 -8 3 20.1716 12.4506 2
4 8 -3 39.9467 18.991 3
3 8 -3 17.6142 14.3523 3
-3 -8 3 -9.3907 7.33443 2
2 8 -3 10.7786 12.4696 3
-2 -8 3 10.4079 8.59808 1
-2 -8 3 21.0796 10.708 2
1 8 -3 339.726 24.4162 1
1 8 -3 398.17 27.9217 3
-1 -8 3 440.79 29.7786 2
-1 -8 3 436.456 28.4956 3
-1 -8 3 379.021 22.2527 1
0 8 -3 173.515 16.4445 1
0 8 -3 185.207 18.4452 3
0 -8 3 148.195 13.0369 1
0 -8 3 159.66 15.9837 2
0 -8 3 180.008 17.1848 3
-1 8 -3 21.3973 7.79725 3
-1 8 -3 46.6458 10.2372 1
1 -8 3 33.3201 8.35337 1
1 -8 3 20.0367 6.5374 3
1 -8 3 45.4587 10.2973 2
-2 8 -3 752.332 35.4881 1
-2 8 -3 738.367 28.5127 3
2 -8 3 798.8 28.8946 3
2 -8 3 803.785 34.8688 1
2 -8 3 768.472 34.0926 2
-3 8 -3 144.168 15.6587 1
3 -8 3 145.331 15.4495 1
3 -8 3 150.277 13.9269 2
-4 8 -3 105.964 15.2049 1
4 -8 3 139.121 12.9673 2
4 -8 3 132.926 17.2691 1
5 -8 3 1033.3 40.7494 2
5 -8 3 1039.88 50.0344 1
6 -8 3 308.125 28.884 1
6 -8 3 295.895 18.364 2
7 -8 3 114.197 22.8081 1
7 -8 3 127.322 11.7107 2
-5 -7 3 31.2947 10.967 2
-5 -7 3 56.7923 11.897 2
4 7 -3 431.237 35.893 3
-4 -7 3 418.251 25.1869 2
3 7 -3 526.158 35.7345 3
-3 -7 3 523.952 27.8206 2
2 7 -3 852.761 42.2299 3
2 7 -3 820.712 40.9701 1
-2 -7 3 850.645 43.5498 3
-2 -7 3 905.633 38.5341 2
-2 -7 3 874.34 37.2889 1
1 7 -3 1541.38 58.3074 3
1 7 -3 1362.38 56.0415 1
-1 -7 3 1450.61 54.7968 2
-1 -7 3 1412.73 51.7145 1
-1 -7 3 1469.48 58.2709 3
0 7 -3 3884.97 126.595 3
0 7 -3 4073.8 128.122 1
0 -7 3 4036.2 127.386 3
0 -7 3 4020.4 127.26 2
0 -7 3 4050.24 124.329 1
-1 7 -3 2330.04 78.841 1
-1 7 -3 2228.45 74.4811 3
1 -7 3 2344.48 74.6932 3
1 -7 3 2308.38 76.5455 1
1 -7 3 2329.36 78.147 2
-2 7 -3 1270.16 41.0762 3
-2 7 -3 1288.71 49.3752 1
2 -7 3 1359.15 48.2444 2
2 -7 3 1265.46 48.1808 1
2 -7 3 1234.82 41.1366 3
-3 7 -3 3565.95 115.836 1
3 -7 3 3516.47 111.653 2
3 -7 3 3609.26 116.113 1
-4 7 -3 521.7 28.8306 1
4 -7 3 511.129 24.2935 2
4 -7 3 572.799 31.0935 1
5 -7 3 15.2319 10.0168 1
5 -7 3 18.1866 7.06428 2
6 -7 3 244.856 15.576 2
6 -7 3 206.86 26.5842 1
7 -7 3 7.91443 14.2589 1
7 -7 3 29.7742 6.75719 2
6 6 -3 16.8365 17.088 3
-6 -6 3 4.87185 7.89882 2
5 6 -3 80.9727 20.4185 3
-5 -6 3 77.2417 11.8347 2
-5 -6 3 85.697 11.738 2
4 6 -3 18.3223 14.0354 3
-4 -6 3 24.6097 8.3506 2
3 6 -3 174.217 20.6314 3
3 6 -3 152.833 18.3689 1
-3 -6 3 140.562 20.1285 3
-3 -6 3 155.254 15.1409 2
2 6 -3 363.524 23.6502 3
2 6 -3 342.081 22.8648 1
-2 -6 3 338.911 20.4984 1
-2 -6 3 333.403 20.2304 2
-2 -6 3 342.71 24.9169 3
1 6 -3 54.9444 10.6653 3
1 6 -3 74.0746 11.4341 1
-1 -6 3 64.4051 9.21128 1
-1 -6 3 77.7168 12.3352 3
-1 -6 3 72.6311 10.5795 2
0 6 -3 12.6966 5.93201 1
0 6 -3 6.76126 5.43369 3
0 -6 3 29.6987 6.85234 3
0 -6 3 7.6557 5.06667 1
0 -6 3 -2.7384 4.49526 2
-1 6 -3 568.323 26.5727 1
-1 6 -3 561.218 23.3944 3
1 -6 3 585.901 23.5663 3
1 -6 3 601.603 26.564 2
1 -6 3 616.096 26.1747 1
-2 6 -3 7.74197 2.82477 3
-2 6 -3 11.9015 5.88301 1
2 -6 3 10.867 5.20693 2
2 -6 3 5.30096 5.42951 1
-3 6 -3 165.167 14.7877 1
3 -6 3 224.798 16.8456 1
3 -6 3 191.754 13.0182 2
4 -6 3 20.4139 6.22182 2
4 -6 3 14.7757 8.5945 1
5 -6 3 8.0345 5.48826 2
5 -6 3 8.93492 11.6299 1
-6 6 -3 692.131 26.1928 3
6 -6 3 672.48 26.8063 2
6 -6 3 640.057 41.2866 1
-7 6 -3 85.7051 11.3268 3
7 -6 3 108.744 8.76883 2
6 5 -3 -4.385 13.8395 3
-6 -5 3 6.67268 9.40936 2
-6 -5 3 12.0357 7.27919 2
5 5 -3 104.515 20.6867 3
-5 -5 3 159.236 13.3014 2
-5 -5 3 136.896 13.1532 2
-4 -5 3 144.707 13.3223 2
3 5 -3 1198.65 59.2242 1
3 5 -3 1562.81 59.2589 3
-3 -5 3 1503.77 52.0612 2
-3 -5 3 1474.3 62.2938 3
2 5 -3 110 13.6694 3
2 5 -3 99.8116 13.1273 1
-2 -5 3 109.192 13.2372 3
-2 -5 3 102.838 10.7452 2
-2 -5 3 93.0025 11.3444 1
1 5 -3 368.098 20.0502 1
-1 -5 3 355.947 21.3625 3
-1 -5 3 393.401 18.7204 1
-1 -5 3 393.999 19.7474 2
0 5 -3 2424.84 78.9976 3
0 5 -3 2483.32 80.4529 1
0 -5 3 2572.73 79.2186 1
0 -5 3 2494.13 79.9368 3
0 -5 3 2529.96 80.2821 2
-1 5 -3 2173.18 67.1914 3
-1 5 -3 2179.34 70.3212 2
-1 5 -3 2230.29 71.7466 1
1 -5 3 2142.32 70.291 2
1 -5 3 2155.5 70.5319 1
1 -5 3 2205.02 67.4704 3
-2 5 -3 939.706 29.6813 3
-2 5 -3 963.264 35.9531 2
-2 5 -3 962.168 37.226 1
2 -5 3 968.055 37.2552 1
2 -5 3 962.352 35.2428 2
-3 5 -3 1691.62 57.0669 2
-3 5 -3 1653.3 59.1661 1
-3 5 -3 1688.78 48.8312 3
-3 5 -3 1570.85 48.7961 3
3 -5 3 1702.23 55.4582 2
3 -5 3 1751.61 61.0694 1
-4 5 -3 3009.16 96.6647 2
-4 5 -3 3054.33 91.6704 3
4 -5 3 3216.65 105.019 1
4 -5 3 3059.47 94.9436 2
-5 5 -3 220.828 13.9214 3
5 -5 3 220.776 13.2925 2
5 -5 3 266.562 23.7217 1
-6 5 -3 22.434 8.15384 3
6 -5 3 27.5139 14.0961 1
-7 5 -3 385.838 26.5564 3
6 4 -3 346.89 32.714 3
-6 -4 3 345.542 14.9672 2
-6 -4 3 316.323 14.7455 2
5 4 -3 443.703 32.2747 3
-5 -4 3 393.618 21.6023 2
-5 -4 3 465.468 20.2465 2
4 4 -3 1305.16 53.8494 1
4 4 -3 1462.63 58.7656 3
-4 -4 3 1438.06 51.1693 2
-4 -4 3 1286.6 59.7562 3
3 4 -3 1620.15 60.6135 3
3 4 -3 1600.34 58.6998 1
-3 -4 3 1580.13 63.8193 3
2 4 -3 3018.98 98.7077 1
2 4 -3 3181.4 100.217 3
-2 -4 3 3070.98 102.817 3
-2 -4 3 3049.09 95.9174 2
-2 -4 3 3130.14 97.1302 1
1 4 -3 27.2245 5.95017 3
1 4 -3 28.1301 6.09147 1
-1 -4 3 20.9097 5.21365 2
-1 -4 3 23.4565 7.57094 3
-1 -4 3 17.9884 5.05243 1
0 4 -3 1781.18 54.959 2
0 4 -3 1686.8 55.4773 1
0 4 -3 1585.34 53.9995 3
0 -4 3 1664 54.4786 1
0 -4 3 1750.13 55.5966 2
0 -4 3 1646.16 54.8732 3
-1 4 -3 33.6941 5.59115 2
-1 4 -3 43.4408 6.25131 1
-1 4 -3 35.7527 4.54224 3
1 -4 3 34.4227 5.7585 1
1 -4 3 37.8191 6.02033 2
1 -4 3 35.9388 4.45358 3
-2 4 -3 258.413 10.9948 3
-2 4 -3 248.002 14.8136 1
-2 4 -3 263.574 14.3077 2
2 -4 3 279.058 13.868 2
2 -4 3 256.596 15.4808 1
-3 4 -3 167.876 12.2168 2
-3 4 -3 183.991 9.52829 3
3 -4 3 171.681 13.8535 1
3 -4 3 178.154 11.0732 2
-4 4 -3 83.7153 10.0729 2
-4 4 -3 108.786 9.2875 3
4 -4 3 110.888 15.0779 1
-5 4 -3 465.972 21.227 2
-5 4 -3 450.24 22.9174 3
5 -4 3 415.668 29.8491 1
-6 4 -3 83.8017 13.3217 3
6 -4 3 65.5205 17.8948 1
6 -4 3 69.6812 8.10766 2
-7 4 -3 124.104 29.538 3
7 3 -3 -10.321 12.7743 3
6 3 -3 -9.9876 11.3244 3
5 3 -3 12.6695 11.7726 3
-5 -3 3 27.7477 5.52307 2
-5 -3 3 20.5221 5.18783 2
4 3 -3 -1.1237 6.57612 1
4 3 -3 8.84369 9.06558 3
-4 -3 3 1.78802 4.12257 2
3 3 -3 78.7263 10.775 1
3 3 -3 86.1789 12.5244 3
-3 -3 3 81.9636 8.04726 2
-3 -3 3 73.3191 13.0686 3
2 3 -3 25.9869 5.54294 1
2 3 -3 26.016 7.07082 3
-2 -3 3 23.9923 6.70191 3
-2 -3 3 19.7072 5.06852 2
-2 -3 3 27.5067 6.31458 1
1 3 -3 15.4784 4.18154 3
1 3 -3 11.0226 4.28163 1
1 3 -3 14.4533 3.68519 2
-1 -3 3 12.7474 4.66755 3
-1 -3 3 21.5752 4.45424 2
-1 -3 3 16.2804 4.30322 1
0 3 -3 579 22.8042 1
0 3 -3 628.963 22.8396 3
0 3 -3 616.546 22.9081 2
0 -3 3 633.582 23.2867 2
0 -3 3 584.392 22.9461 3
0 -3 3 599.87 22.4922 1
-1 3 -3 140.153 9.23369 2
-1 3 -3 142.454 9.33147 1
-1 3 -3 142.645 8.24689 3
1 -3 3 164.083 9.58294 2
1 -3 3 164.371 9.98884 1
-2 3 -3 3129.39 94.4393 3
-2 3 -3 3203.47 98.4978 1
-2 3 -3 3223.86 97.3616 2
2 -3 3 3218.23 99.5078 1
2 -3 3 3175.36 96.2702 2
-3 3 -3 992.607 36.6722 2
-3 3 -3 1059.65 35.6918 3
3 -3 3 1014.69 35.3274 2
3 -3 3 1040.66 41.2817 1
-4 3 -3 840.579 32.0819 2
-4 3 -3 897.598 36.4277 3
4 -3 3 784.13 29.8821 2
4 -3 3 840.388 39.4743 1
-5 3 -3 507.298 25.5785 3
-5 3 -3 468.653 21.3911 2
5 -3 3 484.57 20.067 2
5 -3 3 429.639 30.9344 1
-6 3 -3 45.4559 6.55314 2
6 -3 3 31.2336 15.9645 1
7 -3 3 20.7536 19.0965 1
7 2 -3 32.7741 16.9879 3
6 2 -3 681.297 39.913 3
5 2 -3 1664.45 62.8648 3
-5 -2 3 1568.78 45.3825 2
-5 -2 3 1505.39 45.4572 2
-5 -2 3 1446.89 65.5319 3
4 2 -3 878.404 38.642 3
4 2 -3 871.46 36.7092 1
-4 -2 3 852.383 41.9905 3
-4 -2 3 852.068 29.101 2
3 2 -3 4836.88 143.954 3
3 2 -3 4719.03 142.138 1
-3 -2 3 4542.68 136.582 2
-3 -2 3 4561.79 147.386 3
2 2 -3 2789.99 85.3324 1
2 2 -3 2709.85 81.5366 2
2 2 -3 2846.73 86.9803 3
-2 -2 3 2724.77 82.6381 2
-2 -2 3 2638.45 89.4224 3
0 2 -3 977.964 32.6241 3
0 2 -3 948.88 31.3211 1
0 2 -3 947.683 31.9082 2
0 -2 3 906.409 32.3247 3
0 -2 3 964.427 32.0506 2
0 -2 3 947.527 31.0675 1
-1 2 -3 2203.82 68.549 2
-1 2 -3 2223.76 68.2151 1
1 -2 3 2232.74 68.5846 1
1 -2 3 2205.37 68.0788 2
-2 2 -3 647.432 24.4615 2
-2 2 -3 627.554 23.766 3
2 -2 3 624.679 25.9221 1
2 -2 3 599.864 23.1481 2
-3 2 -3 1142.55 39.591 2
-3 2 -3 1077.78 39.3809 3
3 -2 3 1094.92 37.5382 2
3 -2 3 1138.32 43.8839 1
-4 2 -3 972.276 38.0247 3
-4 2 -3 963.201 35.7501 2
4 -2 3 901.485 42.6426 1
4 -2 3 984.629 33.8641 2
-5 2 -3 181.969 13.2015 2
-5 2 -3 219.244 17.4225 3
5 -2 3 194.37 11.8645 2
5 -2 3 200.266 22.3511 1
-6 2 -3 124.011 17.6842 3
-6 2 -3 135.415 9.9757 2
6 -2 3 146.245 23.3624 1
7 -2 3 27.0899 17.235 1
7 1 -3 27.3941 14.8214 3
6 1 -3 43.514 13.4943 3
5 1 -3 1263.47 50.8507 3
-5 -1 3 1167.98 62.1531 3
4 1 -3 892.301 36.7072 3
-4 -1 3 831.407 25.942 2
-4 -1 3 809.66 39.5756 3
3 1 -3 454.226 22.4085 3
-3 -1 3 438.958 16.3485 2
-3 -1 3 457.59 24.2259 3
2 1 -3 3966.13 120.444 3
2 1 -3 4016.43 115.589 2
2 1 -3 3990.43 118.698 1
-2 -1 3 3882.99 122.032 3
-2 -1 3 4035.94 116.421 2
1 1 -3 664.784 22.6431 1
1 1 -3 658.12 25.1938 3
1 1 -3 683.941 23.044 2
-1 -1 3 670.449 25.6807 3
-1 -1 3 667.521 22.5166 1
-1 -1 3 667.442 23.3419 2
0 1 -3 9.57782 2.16146 1
0 1 -3 9.96906 3.04297 2
0 -1 3 10.962 2.17499 1
0 -1 3 12.9802 3.27956 2
-1 1 -3 806.702 29.2533 2
1 -1 3 841.967 28.8478 2
1 -1 3 846.544 28.814 1
-2 1 -3 25.0958 5.65487 3
-2 1 -3 25.464 5.32444 2
2 -1 3 31.0762 6.75511 1
2 -1 3 33.5665 5.1765 2
-3 1 -3 2001.92 64.9443 3
-3 1 -3 1946.4 63.2448 2
3 -1 3 1929.65 67.875 1
3 -1 3 1856.31 60.9311 2
-4 1 -3 73.0504 11.1381 3
-4 1 -3 51.9732 8.64873 2
4 -1 3 75.202 13.6258 1
-5 1 -3 -0.3644 5.54996 2
-5 1 -3 -4.6259 7.50039 3
5 -1 3 -3.3889 11.1486 1
-6 1 -3 93.293 9.63421 2
6 -1 3 86.8349 20.2534 1
8 0 -3 47.7206 17.5091 3
7 0 -3 3.68265 10.8997 3
6 0 -3 180.775 20.2623 3
-6 0 3 140.192 22.2755 3
5 0 -3 559.819 28.5502 3
-5 0 3 509.15 31.7035 3
4 0 -3 215.691 15.4452 3
-4 0 3 215.653 17.8269 3
3 0 -3 1158.82 41.783 3
3 0 -3 1161.12 35.0933 2
-3 0 3 1158.98 35.657 2
2 0 -3 2192.24 69.472 3
2 0 -3 2191.2 65.1792 2
-2 0 3 2200.21 65.6038 2
-2 0 3 2159.36 70.3602 3
1 0 -3 2891.61 85.2601 2
1 0 -3 2878.92 83.0755 1
1 0 -3 2802.24 87.8334 3
-1 0 3 2887.52 85.4319 2
-1 0 -3 4061.3 123.394 2
1 0 3 4140.41 122.719 2
1 0 3 4230.51 122.241 1
-2 0 -3 1220.79 43.749 3
-2 0 -3 1243.12 42.2918 2
2 0 3 1192.26 40.7249 2
-3 0 -3 927.263 37.2535 3
-3 0 -3 915.256 35.2556 2
3 0 3 921.418 35.9239 2
-4 0 -3 2364.87 79.0146 2
-4 0 -3 2499.27 83.745 3
-5 0 -3 101.146 17.7482 3
-6 0 -3 38.7587 7.91751 2
6 0 3 46.3146 17.1771 1
8 -1 -3 309.832 30.2748 3
7 -1 -3 222.261 25.9808 3
6 -1 -3 165.034 17.2335 3
-6 1 3 147.823 25.5044 3
5 -1 -3 902.336 37.0509 3
-5 1 3 829.72 41.0345 3
-4 1 3 2071.58 72.638 3
3 -1 -3 1014.85 37.2675 3
3 -1 -3 1026.34 32.0309 2
-3 1 3 1027.5 39.0141 3
2 -1 -3 563.93 19.5793 2
2 -1 -3 531.885 22.3533 3
-2 1 3 528.21 22.5765 3
-2 1 3 534.117 19.5888 2
1 -1 -3 3368.43 99.853 2
-1 1 3 3334.58 99.8364 2
0 -1 -3 33.7619 5.35515 2
0 1 3 34.3527 5.04445 2
-1 -1 -3 1107.34 45.3832 3
-1 -1 -3 1212.81 41.0619 2
1 1 3 1202.35 40.043 2
-2 -1 -3 23.217 6.7631 3
-2 -1 -3 25.7008 6.83435 2
2 1 3 19.697 5.17682 2
-3 -1 -3 155.248 14.7111 3
-4 -1 -3 60.136 12.0047 3
-4 -1 -3 68.7815 11.135 2
-5 -1 -3 70.0061 11.338 2
-6 -1 -3 7.16021 7.71429 2
8 -2 -3 -5.5278 15.3691 1
8 -2 -3 1.29969 12.0863 3
7 -2 -3 143.799 18.5817 3
-7 2 3 82.6873 19.0156 3
6 -2 -3 5.20796 8.04115 3
-6 2 3 -15.691 7.83192 3
5 -2 -3 25.492 7.50762 3
-5 2 3 27.456 8.43793 3
4 -2 -3 24.1019 3.4207 2
4 -2 -3 31.3825 6.45753 3
-4 2 3 14.8014 6.14158 3
3 -2 -3 122.925 7.36514 2
3 -2 -3 113.352 9.44116 3
-3 2 3 100.845 9.75279 3
2 -2 -3 1081.01 38.5407 3
2 -2 -3 1072.07 34.8423 1
2 -2 -3 1061.67 35.9223 2
1 -2 -3 830.631 24.7819 1
1 -2 -3 858.256 29.9132 2
-1 2 3 774.808 29.3353 2
0 -2 -3 472.175 20.4285 2
0 2 3 456.457 15.842 1
0 2 3 461.035 19.8306 2
-1 -2 -3 4830.31 146.692 2
-1 -2 -3 4839.17 148.316 3
1 2 3 4941.58 143.302 1
-2 -2 -3 362.053 19.7022 2
-2 -2 -3 382.343 21.6224 3
-3 -2 -3 1036.02 41.2022 2
-4 -2 -3 960.741 40.0312 2
-5 -2 -3 704.617 33.7614 2
-6 -2 -3 13.8972 9.67313 2
8 -3 -3 564.286 42.8634 1
8 -3 -3 509.313 34.069 3
7 -3 -3 228.791 27.8025 1
7 -3 -3 246.029 20.5905 3
-7 3 3 219.665 27.9616 3
6 -3 -3 534.887 32.6694 1
6 -3 -3 489.27 25.561 3
-6 3 3 425.013 27.4287 3
5 -3 -3 589.14 31.9675 1
5 -3 -3 674.884 29.0255 3
5 -3 -3 647.675 20.5095 2
5 -3 -3 638.772 20.3466 2
-5 3 3 605.644 30.4668 3
4 -3 -3 1037.94 34.1817 2
4 -3 -3 1027.48 38.1392 3
4 -3 -3 1079.27 41.0975 1
-4 3 3 1001.62 39.7565 3
3 -3 -3 1204.04 44.0841 3
3 -3 -3 1309.05 42.1105 2
3 -3 -3 1274.66 43.6443 1
2 -3 -3 1266.86 40.8217 1
2 -3 -3 1287.51 43.5638 2
1 -3 -3 2872.65 84.2259 1
1 -3 -3 2875.75 90.1833 2
-1 3 3 2931.67 84.7586 1
0 -3 -3 539.128 24.7682 3
0 -3 -3 553.084 27.8277 2
0 3 3 589.72 20.4803 1
-1 -3 -3 1495.53 53.8174 3
-1 -3 -3 1452.96 52.0032 2
1 3 3 1445.03 48.5236 1
-2 -3 -3 836.649 34.9649 2
-2 -3 -3 792.193 35.9687 3
2 3 3 848.862 33.2055 1
-3 -3 -3 22.2476 9.39948 3
-3 -3 -3 41.9307 10.3897 2
3 3 3 35.49 9.62371 1
-4 -3 -3 -2.0751 7.36218 2
-5 -3 -3 18.1805 10.8484 2
8 -4 -3 24.6717 12.2556 3
-8 4 3 49.5977 16.2332 3
7 -4 -3 456.23 26.1997 3
7 -4 -3 444.479 33.9043 1
-7 4 3 391.084 27.8682 3
6 -4 -3 234.129 22.0558 1
6 -4 -3 269.747 17.3648 3
-6 4 3 208.947 18.6348 3
5 -4 -3 130.491 12.277 3
5 -4 -3 141.726 9.14525 2
5 -4 -3 137.103 15.301 1
4 -4 -3 38.979 8.50798 1
4 -4 -3 38.4144 6.44562 2
4 -4 -3 36.3915 7.17316 3
3 -4 -3 352.543 18.6959 3
3 -4 -3 377.857 17.6934 1
3 -4 -3 364.143 17.8446 2
2 -4 -3 29.6788 6.63922 2
2 -4 -3 22.9244 4.299 1
-2 4 3 22.0898 4.41531 1
1 -4 -3 80.3825 9.07684 2
1 -4 -3 79.7075 5.85754 1
-1 4 3 74.6879 6.27527 1
0 -4 -3 8.15667 5.00442 3
0 -4 -3 9.39857 5.97582 2
0 4 3 17.3306 4.28563 1
-1 -4 -3 59.9741 10.5253 2
-1 -4 -3 48.3777 9.98356 3
-2 -4 -3 104.278 13.7655 2
-2 -4 -3 144.634 15.4946 3
2 4 3 159.097 14.3526 1
-3 -4 -3 300.223 20.7849 2
-4 -4 -3 543.603 30.4794 2
-5 -4 -3 284.758 23.8601 2
8 -5 -3 75.6934 13.7474 3
7 -5 -3 379.443 22.0603 3
7 -5 -3 349.75 30.1847 1
6 -5 -3 109.916 8.29488 2
6 -5 -3 100.879 7.51602 2
6 -5 -3 107.273 17.7841 1
6 -5 -3 97.9911 13.369 3
5 -5 -3 880.682 33.708 3
5 -5 -3 858.465 31.8865 2
5 -5 -3 838.528 38.914 1
4 -5 -3 1261.45 45.9929 1
4 -5 -3 1135.68 46.1409 2
4 -5 -3 1214.27 43.7854 3
3 -5 -3 772.864 29.8704 1
3 -5 -3 745.886 31.1686 2
2 -5 -3 1320.3 42.7207 1
2 -5 -3 1208.58 47.1476 2
-2 5 3 1321.88 43.5173 1
1 -5 -3 1581.82 57.3632 2
1 -5 -3 1643.57 50.6134 1
1 -5 -3 1598.42 56.8926 3
-1 5 3 1591.43 51.8613 1
0 -5 -3 656.229 31.1099 2
0 -5 -3 657.216 25.1277 1
0 -5 -3 663.208 31.306 3
0 5 3 688.66 26.8449 1
-1 -5 -3 393.598 23.3823 2
-1 -5 -3 390.246 24.2452 3
1 5 3 366.689 20.4331 1
-2 -5 -3 353.04 22.708 2
2 5 3 283.097 20.409 1
-3 -5 -3 393.528 26.8244 2
3 5 3 441.411 26.8743 1
-4 -5 -3 42.5313 15.3848 2
8 -6 -3 127.049 15.4594 3
7 -6 -3 144.403 7.63898 2
7 -6 -3 168.1 14.4875 3
7 -6 -3 159.064 23.3633 1
7 -6 -3 146.738 8.09661 2
6 -6 -3 619.217 24.8091 2
6 -6 -3 666.117 36.0616 1
6 -6 -3 630.074 25.9623 2
6 -6 -3 605.56 26.6683 3
5 -6 -3 299.424 17.0651 3
5 -6 -3 273.399 17.1376 2
5 -6 -3 309.626 21.2452 1
4 -6 -3 1513.76 54.0116 1
4 -6 -3 1470.97 52.4351 3
4 -6 -3 1449.68 52.7932 2
3 -6 -3 160.434 12.0449 1
3 -6 -3 167.845 14.9891 2
-3 6 3 159.258 12.4284 1
2 -6 -3 209.95 16.8647 2
2 -6 -3 190.718 14.3936 3
2 -6 -3 210.31 12.2289 1
-2 6 3 225.378 13.2477 1
1 -6 -3 528.844 28.2386 2
1 -6 -3 576.121 22.0077 1
1 -6 -3 562.037 27.7933 3
-1 6 3 531.638 23.4625 1
0 -6 -3 193.135 17.1012 3
0 -6 -3 194.275 12.9943 1
0 -6 -3 183.662 17.1437 2
0 6 3 164.753 13.2776 1
-1 -6 -3 -0.5508 7.95651 3
-1 -6 -3 -3.6177 7.81752 2
1 6 3 2.67578 6.61401 1
-2 -6 -3 21.2245 11.1385 2
2 6 3 -4.417 8.32888 1
-3 -6 -3 13.2451 10.7674 2
-4 -6 -3 21.141 12.9268 2
8 -7 -3 32.2742 9.33345 3
7 -7 -3 17.7915 12.9375 1
7 -7 -3 13.7854 6.12229 2
7 -7 -3 10.3141 6.57234 3
7 -7 -3 5.05602 5.08748 2
6 -7 -3 147.696 12.0535 3
6 -7 -3 164.687 14.1149 2
6 -7 -3 153.905 13.0958 2
5 -7 -3 120.691 15.934 1
5 -7 -3 145.375 14.202 2
5 -7 -3 111.231 11.3283 3
4 -7 -3 298.892 18.832 3
4 -7 -3 350.518 20.7585 1
4 -7 -3 313.729 21.431 2
3 -7 -3 42.1974 8.71169 3
3 -7 -3 32.7232 7.32532 1
-3 7 3 31.159 7.49113 1
2 -7 -3 1212.78 41.7613 1
2 -7 -3 1126.06 45.5341 3
2 -7 -3 1178.26 48.6375 2
-2 7 3 1176.09 43.3156 1
1 -7 -3 370.986 20.4966 1
1 -7 -3 339.108 23.7449 2
1 -7 -3 365.987 22.8395 3
-1 7 3 330.331 18.8633 1
0 -7 -3 331.092 18.0654 1
0 -7 -3 362.451 24.7212 2
0 -7 -3 317.998 22.7811 3
0 7 3 295.382 19.0473 1
1 7 3 221.376 18.7604 1
-2 -7 -3 241.886 22.4221 2
2 7 3 208.526 21.0883 1
-3 -7 -3 175.91 21.6965 2
8 -8 -3 63.687 18.5465 1
7 -8 -3 85.939 10.4334 2
7 -8 -3 89.06 11.4295 2
7 -8 -3 96.5409 9.08485 3
7 -8 -3 105.983 19.015 1
6 -8 -3 201.649 17.1873 2
6 -8 -3 204.033 15.8906 2
6 -8 -3 210.78 22.3932 1
6 -8 -3 253.877 14.5233 3
5 -8 -3 790.444 37.6011 2
5 -8 -3 879.17 34.6391 3
5 -8 -3 849.343 39.7747 1
4 -8 -3 843.395 35.6092 3
4 -8 -3 904.863 38.2927 3
4 -8 -3 885.663 37.866 1
4 -8 -3 890.34 40.5118 2
-4 8 3 904.965 38.7217 1
3 -8 -3 638.343 28.7783 1
3 -8 -3 658.551 30.8978 3
-3 8 3 665.611 30.2335 1
2 -8 -3 51.2404 11.3973 3
2 -8 -3 60.1805 13.4112 2
2 -8 -3 76.0104 9.56593 1
-2 8 3 78.4728 10.5762 1
1 -8 -3 349.196 18.2175 1
1 -8 -3 359.934 29.6779 2
1 -8 -3 334.639 23.1644 3
-1 8 3 302.108 19.4524 1
0 -8 -3 207.654 20.9816 2
0 8 3 195.008 17.4094 1
-1 -8 -3 105.593 17.5837 2
-2 -8 -3 -13.987 8.97587 2
-3 -8 -3 22.5673 14.2191 2
7 -9 -3 80.47 13.1251 2
7 -9 -3 83.7342 7.25106 3
7 -9 -3 76.0108 6.60229 3
7 -9 -3 101.574 19.2505 1
7 -9 -3 62.7426 11.8368 2
6 -9 -3 44.2447 9.75923 2
6 -9 -3 39.2435 7.12538 3
6 -9 -3 59.2256 14.5674 1
6 -9 -3 39.96 7.56033 3
6 -9 -3 37.8843 10.9426 2
5 -9 -3 36.7584 11.7922 1
5 -9 -3 20.7564 7.61696 3
5 -9 -3 31.5243 11.2716 2
4 -9 -3 120.412 14.8099 1
4 -9 -3 99.8023 13.0122 3
4 -9 -3 117.103 17.0813 2
-4 9 3 136.651 14.6776 1
3 -9 -3 43.1347 10.2972 3
3 -9 -3 40.2744 9.09643 1
-3 9 3 46.502 10.7058 1
2 -9 -3 7.00649 6.73956 1
2 -9 -3 7.71291 9.20472 2
2 -9 -3 8.97094 8.31983 3
-2 9 3 15.2683 7.95515 1
1 -9 -3 675.951 29.3007 1
1 -9 -3 706.567 39.0827 2
-1 9 3 678.224 33.1625 1
0 -9 -3 72.4661 16.9746 2
0 9 3 71.3543 14.2947 1
-1 -9 -3 49.8998 15.4738 2
1 9 3 32.4082 13.2498 1
-2 -9 -3 104.862 20.0492 2
7 -10 -3 124.414 16.569 2
7 -10 -3 147.205 22.456 1
6 -10 -3 3.06831 10.7126 1
6 -10 -3 3.03731 5.02212 3
6 -10 -3 8.72281 5.75571 3
6 -10 -3 8.93351 9.31142 2
5 -10 -3 282.738 25.2789 2
5 -10 -3 265.571 22.5727 1
5 -10 -3 251.087 17.7408 3
5 -10 -3 258.019 18.4953 3
4 -10 -3 725.188 39.9027 2
4 -10 -3 699.724 33.4252 3
4 -10 -3 711.552 33.5824 1
-4 10 3 706.041 35.3937 1
3 -10 -3 68.3472 16.2308 2
3 -10 -3 63.4843 12.4758 3
3 -10 -3 74.3809 11.6692 1
-3 10 3 70.1412 13.5475 1
2 -10 -3 68.7238 10.6496 1
2 -10 -3 60.4951 15.5017 2
-2 10 3 62.5717 12.9491 1
1 -10 -3 133.643 14.7384 1
1 -10 -3 102.403 18.59 2
0 -10 -3 550.585 36.6865 2
0 10 3 401.176 30.3472 1
-1 -10 -3 2.09661 15.1255 2
6 -11 -3 132.068 18.9761 1
6 -11 -3 163.852 20.9627 2
6 -11 -3 131.258 11.5437 3
5 -11 -3 45.3639 10.2939 3
5 -11 -3 23.3579 13.2655 2
5 -11 -3 42.2532 11.8159 1
5 -11 -3 39.4291 10.0002 3
4 -11 -3 154.924 22.1674 2
4 -11 -3 149.664 16.7399 1
3 -11 -3 251.98 26.7822 2
3 -11 -3 241.253 19.0882 1
-3 11 3 255.299 21.1445 1
2 -11 -3 3.39944 7.53296 1
2 -11 -3 23.5924 12.1879 2
-2 11 3 3.54463 9.7376 1
1 -11 -3 31.4725 10.1644 1
1 -11 -3 9.20899 12.3409 2
-1 11 3 20.8488 12.4111 1
0 -11 -3 36.2985 15.6814 2
6 -12 -3 79.0831 16.5344 2
6 -12 -3 54.1622 14.8662 1
5 -12 -3 4.95998 8.28472 3
5 -12 -3 1.29858 8.89821 1
5 -12 -3 -0.1226 12.2556 2
5 -12 -3 -7.0185 9.4462 3
4 -12 -3 54.48 13.093 3
4 -12 -3 88.7325 19.4573 2
4 -12 -3 57.3833 12.7368 1
3 -12 -3 192.936 21.0672 1
2 -12 -3 10.1534 10.2345 1
2 -12 -3 -0.4298 13.3685 2
1 -12 -3 79.9962 13.9844 1
1 -12 -3 79.5075 20.0077 2
1 -14 4 -3.9747 9.71617 1
2 -14 4 89.2512 16.6594 3
3 -14 4 95.2331 17.3109 1
4 -14 4 1.80816 11.9262 1
1 13 -4 5.82357 16.4691 3
-1 -13 4 7.79185 12.0783 1
0 13 -4 130.027 23.7151 3
0 -13 4 161.835 19.9676 1
-1 13 -4 -13.629 11.1948 3
1 -13 4 -7.1121 9.31373 1
2 -13 4 141.868 17.1147 3
2 -13 4 102.278 17.2274 1
3 -13 4 90.9109 17.1147 1
4 -13 4 123.29 19.5484 1
5 -13 4 121.555 20.5021 1
-2 -12 4 71.059 16.5181 1
1 12 -4 35.5061 18.3226 3
-1 -12 4 24.4243 12.239 1
0 12 -4 369.165 34.4023 3
0 -12 4 417.138 27.2611 1
-1 12 -4 6.96481 11.7257 3
1 -12 4 0.66657 9.75444 3
1 -12 4 1.09511 8.81303 1
-2 12 -4 40.4827 11.1422 3
2 -12 4 25.1393 9.8524 3
2 -12 4 27.9522 11.7477 1
3 -12 4 426.5 19.906 3
3 -12 4 454.478 30.0977 1
4 -12 4 632.157 37.86 1
5 -12 4 217.305 24.5762 1
6 -12 4 216.744 28.7767 1
3 11 -4 62.8436 22.7063 3
2 11 -4 218.506 31.2884 3
-2 -11 4 220.521 24.1553 1
1 11 -4 80.9736 19.751 3
-1 -11 4 79.8153 14.2951 1
0 11 -4 23.6221 13.1259 3
0 -11 4 12.4414 9.33136 1
0 -11 4 8.13872 9.80204 3
-1 11 -4 416.17 28.6907 3
1 -11 4 419.201 26.5724 1
1 -11 4 419.849 27.1334 3
-2 11 -4 76.7209 11.4861 3
2 -11 4 81.0483 14.1491 1
2 -11 4 52.7114 10.3399 3
3 -11 4 189.41 20.2223 1
3 -11 4 151.101 9.81143 3
4 -11 4 9.51037 11.1072 1
5 -11 4 14.5196 12.6889 1
6 -11 4 35.3466 16.5654 1
4 10 -4 0.87445 18.3535 3
3 10 -4 40.8339 20.0823 3
2 10 -4 357.985 33.6588 3
-2 -10 4 368.531 26.4584 1
1 10 -4 110.728 20.4247 3
-1 -10 4 102.684 14.9135 1
0 10 -4 227.021 22.5064 3
-1 10 -4 1299.57 51.787 3
1 -10 4 1210.2 50.2354 3
1 -10 4 1229.61 50.2453 1
-2 10 -4 18.3005 7.06953 3
2 -10 4 25.3498 10.0925 1
3 -10 4 957.35 44.2919 1
4 -10 4 1184.37 53.66 1
5 -10 4 679.178 40.4838 1
6 -10 4 311.567 29.9317 1
3 9 -4 93.0358 22.034 3
2 9 -4 381.19 29.2002 3
-2 -9 4 353.443 24.5586 1
1 9 -4 1090.43 49.8391 3
-1 -9 4 933.764 47.9617 3
-1 -9 4 1008.29 45.9316 2
-1 -9 4 982.76 41.8534 1
0 9 -4 62.8986 13.0361 1
0 9 -4 83.8081 14.5787 3
0 -9 4 98.0302 13.4034 1
0 -9 4 64.2251 12.5413 3
0 -9 4 79.9617 14.2338 2
-1 9 -4 383.862 23.5956 3
-1 9 -4 483.025 28.0116 1
1 -9 4 435.465 25.853 2
1 -9 4 419.439 24.3554 1
1 -9 4 401.449 23.3151 3
-2 9 -4 1284 52.3161 1
-2 9 -4 1268.6 44.1043 3
2 -9 4 1215.8 49.7092 1
2 -9 4 1256.92 51.0063 2
2 -9 4 1239.85 44.0692 3
3 -9 4 119.61 16.1444 1
3 -9 4 123.197 14.988 2
4 -9 4 128.818 18.3021 1
4 -9 4 125.785 14.3867 2
5 -9 4 236.983 18.5649 2
5 -9 4 218.878 23.2013 1
6 -9 4 170.836 24.1074 1
6 -9 4 124.453 14.783 2
7 -9 4 27.68 15.731 1
5 8 -4 65.4789 21.4429 3
4 8 -4 32.16 17.1319 3
-4 -8 4 45.0982 12.4118 2
3 8 -4 13.0115 13.5904 3
-3 -8 4 4.6781 7.91004 2
2 8 -4 92.0249 17.2391 3
-2 -8 4 53.5257 12.056 2
-2 -8 4 73.3376 16.3103 3
-2 -8 4 44.8531 11.2564 1
1 8 -4 196.853 19.3445 1
1 8 -4 218.098 19.817 3
-1 -8 4 194.702 19.707 3
-1 -8 4 163.983 14.2626 1
-1 -8 4 179.561 20.7047 2
0 8 -4 369.128 22.6926 3
0 8 -4 334.31 23.4662 1
0 -8 4 334.674 21.9697 3
0 -8 4 317.493 20.38 1
0 -8 4 377.63 23.6465 2
-1 8 -4 833.305 38.992 1
-1 8 -4 941.238 36.2543 3
1 -8 4 844.163 35.1765 3
1 -8 4 850.606 36.8643 1
1 -8 4 908.102 38.6915 2
-2 8 -4 509.115 21.1421 3
-2 8 -4 481.139 27.8604 1
2 -8 4 537.383 21.478 3
2 -8 4 497.75 26.0517 2
2 -8 4 514.038 27.1594 1
-3 8 -4 166.375 16.5849 1
3 -8 4 150.78 16.2965 1
3 -8 4 158.334 14.4036 2
4 -8 4 1594.92 58.096 2
4 -8 4 1630.87 64.8349 1
5 -8 4 528.012 25.9068 2
5 -8 4 511.699 33.8238 1
6 -8 4 184.978 24.9134 1
6 -8 4 173.042 14.6835 2
7 -8 4 91.0355 20.7676 1
5 7 -4 27.4338 17.7231 3
-5 -7 4 19.9801 15.1808 2
4 7 -4 82.0062 19.1819 3
-4 -7 4 142.164 19.0168 2
-3 -7 4 108.552 14.704 2
2 7 -4 550.108 31.7301 3
2 7 -4 458.483 28.6368 1
-2 -7 4 526.282 32.6201 3
-2 -7 4 497.597 27.2878 2
-2 -7 4 536.672 26.8844 1
1 7 -4 939.249 42.0181 1
1 7 -4 1000.31 41.9491 3
-1 -7 4 867.969 42.2571 3
-1 -7 4 1020.6 38.5097 1
-1 -7 4 907.187 40.034 2
0 7 -4 3522.97 114.737 1
0 7 -4 3438.85 112.166 3
0 -7 4 3578.55 113.707 3
0 -7 4 3568.28 111.4 1
0 -7 4 3559.96 113.941 2
-1 7 -4 2299.87 79.5151 1
-1 7 -4 2334.7 74.85 3
1 -7 4 2358.35 75.1929 3
1 -7 4 2376.97 77.8484 1
1 -7 4 2224.98 77.9383 2
-2 7 -4 1245.1 48.2442 1
-2 7 -4 1197.87 39.6647 3
2 -7 4 1207.24 46.0748 2
2 -7 4 1207.72 47.3269 1
3 -7 4 1714.91 58.6156 2
3 -7 4 1580.36 61.6676 1
-4 7 -4 52.6212 11.4347 1
4 -7 4 41.3197 8.72327 2
4 -7 4 37.5614 10.5493 1
5 -7 4 576.413 35.3098 1
5 -7 4 562.884 26.6275 2
6 -7 4 210.103 15.0125 2
6 -7 4 213.432 26.8799 1
7 -7 4 75.2794 21.8042 1
6 6 -4 35.3813 18.3088 3
-6 -6 4 62.0094 9.91587 2
5 6 -4 68.5861 19.0199 3
-5 -6 4 60.6454 10.662 2
4 6 -4 364.437 29.7013 3
-4 -6 4 321.073 20.5636 2
3 6 -4 220.543 20.7672 3
3 6 -4 159.279 17.9602 1
-3 -6 4 165.716 14.7957 2
-3 -6 4 166.966 22.6528 3
2 6 -4 76.3353 13.1379 3
2 6 -4 43.2209 10.8278 1
-2 -6 4 68.7314 12.9419 3
-2 -6 4 86.8344 12.1413 2
-2 -6 4 70.2719 10.701 1
1 6 -4 61.2896 10.7117 3
1 6 -4 69.2196 10.9305 1
-1 -6 4 66.1908 9.46185 1
-1 -6 4 61.5122 11.3179 3
-1 -6 4 72.731 10.4542 2
0 6 -4 55.4881 9.40831 1
0 6 -4 45.6568 8.08291 3
0 -6 4 58.7466 9.00398 3
0 -6 4 42.2305 7.64456 1
0 -6 4 32.9157 7.94942 2
-1 6 -4 709.396 29.6348 2
-1 6 -4 723.429 27.2827 3
-1 6 -4 681.998 30.5178 1
1 -6 4 737.639 30.3997 2
1 -6 4 670.473 27.1121 3
1 -6 4 682.771 29.7332 1
-2 6 -4 17.4561 3.99439 3
-2 6 -4 23.2868 7.42348 1
-2 6 -4 12.0889 6.26031 2
2 -6 4 20.8743 5.98425 2
2 -6 4 19.8924 6.71807 1
-3 6 -4 35.4974 8.64962 2
-3 6 -4 36.6812 3.21671 3
-3 6 -4 35.7604 3.39259 3
-3 6 -4 28.2686 8.43385 1
3 -6 4 29.0196 9.27103 1
3 -6 4 32.1154 7.207 2
-4 6 -4 12.6306 7.72242 2
-4 6 -4 15.9401 2.98742 3
-4 6 -4 15.2922 2.70586 3
4 -6 4 15.6822 5.97996 2
4 -6 4 16.7997 8.89479 1
-5 6 -4 738.608 27.3715 3
-5 6 -4 804.611 33.9147 2
5 -6 4 790.209 31.4285 2
5 -6 4 775.194 42.1401 1
-6 6 -4 46.7591 8.09184 3
6 -6 4 22.8493 14.3474 1
6 -6 4 46.1609 8.16643 2
7 -6 4 44.5184 19.055 1
6 5 -4 -1.7241 13.3761 3
-6 -5 4 -1.0573 5.86261 2
5 5 -4 74.9903 17.9027 3
-5 -5 4 38.7274 8.53531 2
4 5 -4 37.2553 13.0729 3
-4 -5 4 59.5751 9.15158 2
3 5 -4 106.258 13.4944 3
-3 -5 4 105.791 12.3919 2
2 5 -4 1652 60.409 1
2 5 -4 1675.74 60.2091 3
-2 -5 4 1719.13 57.5742 1
-2 -5 4 1593.19 63.5497 3
-2 -5 4 1595.77 57.263 2
1 5 -4 806.805 38.0409 3
1 5 -4 884.237 35.2052 1
-1 -5 4 813.274 33.5443 2
-1 -5 4 863.451 32.4857 1
-1 -5 4 824.268 35.8613 3
0 5 -4 3522.7 110.558 1
0 5 -4 3485.07 113.236 2
0 5 -4 3647.48 109.091 3
0 -5 4 3431.94 109.756 3
0 -5 4 3644.72 110.671 2
-1 5 -4 9607.72 279.104 1
1 -5 4 9628.53 278.169 2
1 -5 4 9346.9 275.365 3
-2 5 -4 1608.83 57.4197 1
-2 5 -4 1693.88 56.9434 2
-2 5 -4 1617.22 51.5684 3
2 -5 4 1709.9 58.4713 1
2 -5 4 1621.4 55.6213 2
-3 5 -4 1027.7 38.6126 2
-3 5 -4 1005.08 32.3344 3
-3 5 -4 920.505 33.1065 3
-3 5 -4 1022.09 40.2452 1
3 -5 4 998.816 36.8195 2
3 -5 4 948.434 40.8978 1
-4 5 -4 931.264 38.541 2
-4 5 -4 1051.33 34.5626 3
4 -5 4 971.625 36.7452 2
4 -5 4 966.831 44.4365 1
-5 5 -4 483.451 22.0975 3
-5 5 -4 467.066 23.6046 2
5 -5 4 438.45 30.9611 1
5 -5 4 397.537 20.3938 2
-6 5 -4 390.479 22.9282 3
6 -5 4 395.98 32.784 1
6 -5 4 369.609 18.7784 2
7 -5 4 84.0475 22.3669 1
7 4 -4 61.6335 20.0826 3
6 4 -4 71.709 18.0092 3
-6 -4 4 56.0877 6.5243 2
-6 -4 4 63.4486 6.93579 2
5 4 -4 147.885 18.2267 3
-5 -4 4 142.066 11.6631 2
4 4 -4 299.335 21.8364 3
4 4 -4 293.03 21.2762 1
-4 -4 4 281.736 18.2981 2
-4 -4 4 274.619 25.4622 3
3 4 -4 615.081 30.6481 3
3 4 -4 609.451 29.5302 1
-3 -4 4 567.207 25.8209 2
-3 -4 4 627.09 33.7635 3
2 4 -4 2058.53 68.584 3
2 4 -4 1849.29 67.0461 1
-2 -4 4 2010.14 71.8258 3
-2 -4 4 2071.38 66.0628 1
-2 -4 4 1918.19 68.8574 2
1 4 -4 2869.42 87.7475 2
1 4 -4 2819.18 89.9186 3
1 4 -4 2770.11 89.6623 1
-1 -4 4 2892.5 87.9848 1
-1 -4 4 2841.36 92.0205 3
0 4 -4 635.383 25.8322 2
0 4 -4 683.3 25.9762 3
0 4 -4 656.927 26.3656 1
0 -4 4 652.116 25.5791 1
0 -4 4 661.531 29.2521 2
0 -4 4 637.915 26.2554 3
-1 4 -4 3899.87 124.383 1
-1 4 -4 4143.53 123.965 2
-1 4 -4 4155.76 121.805 3
1 -4 4 4041.94 123.516 2
1 -4 4 4168.84 124.165 1
-2 4 -4 5912.34 176.502 3
-2 4 -4 6091.74 179.582 2
-2 4 -4 6019.58 180.251 1
2 -4 4 6151.28 181.343 1
2 -4 4 5979.16 178.344 2
-3 4 -4 265.603 13.2742 3
-3 4 -4 250.812 18.6146 2
3 -4 4 253.413 18.0216 1
3 -4 4 259.934 14.353 2
-4 4 -4 5.35246 6.04902 2
-4 4 -4 14.3301 5.87353 3
4 -4 4 7.34074 5.17595 2
4 -4 4 12.0466 8.56153 1
-5 4 -4 113.634 12.626 2
-5 4 -4 131.544 12.963 3
5 -4 4 128.038 19.3153 1
5 -4 4 131.697 11.0432 2
-6 4 -4 35.8401 10.6115 3
6 -4 4 22.2891 14.7367 1
6 -4 4 37.0423 7.26483 2
7 -4 4 -24.567 13.447 1
7 3 -4 3.70844 13.9503 3
6 3 -4 56.5098 16.1487 3
5 3 -4 151.906 17.195 3
-5 -3 4 125.371 9.73064 2
4 3 -4 129.759 13.1971 1
4 3 -4 135.52 14.2233 3
-4 -3 4 134.447 22.5184 3
-4 -3 4 117.995 10.0276 2
3 3 -4 844.698 35.9227 3
3 3 -4 782.587 33.9554 1
-3 -3 4 793.203 30.4984 2
-3 -3 4 874.247 40.2196 3
2 3 -4 311.924 17.0378 1
2 3 -4 281.618 19.8976 3
2 3 -4 310.517 14.5005 2
-2 -3 4 292.741 16.6003 1
-2 -3 4 341.743 20.2524 3
-2 -3 4 311.992 15.4419 2
1 3 -4 1435.19 46.2612 2
1 3 -4 1425.03 47.3595 1
1 3 -4 1420.03 48.5039 3
-1 -3 4 1315.45 49.1542 3
-1 -3 4 1425.3 46.1116 1
-1 -3 4 1408.97 47.1633 2
0 3 -4 1218.63 41.533 2
0 3 -4 1227.58 41.9805 3
0 3 -4 1236.14 41.2687 1
0 -3 4 1190.52 41.6653 2
0 -3 4 1188.47 42.1454 3
0 -3 4 1283.29 40.9662 1
-1 3 -4 3702.55 115.518 2
-1 3 -4 3814.05 115.159 3
-1 3 -4 3792.68 115.123 1
1 -3 4 3899.92 115.45 2
1 -3 4 3891.63 115.679 1
-2 3 -4 2818.4 89.8023 1
-2 3 -4 2833.33 89.8192 2
2 -3 4 2871.35 91.2478 1
2 -3 4 2948.11 92.2257 2
-3 3 -4 36.4587 6.72981 3
-3 3 -4 19.8328 6.84206 2
3 -3 4 19.1332 7.57211 1
3 -3 4 25.7417 5.37074 2
-4 3 -4 1272.61 45.7858 3
4 -3 4 1244.2 43.5973 2
4 -3 4 1245.91 52.9674 1
-5 3 -4 855.306 37.0046 3
-5 3 -4 845.053 34.4438 2
5 -3 4 846.867 45.2647 1
5 -3 4 852.391 32.2062 2
-6 3 -4 109.06 15.8527 3
6 -3 4 97.9504 21.6645 1
7 -3 4 148.883 27.0176 1
7 2 -4 146.472 23.6127 3
6 2 -4 19.6305 11.8358 3
5 2 -4 269.186 21.972 3
-5 -2 4 290.409 11.3057 2
-5 -2 4 256.631 25.209 3
4 2 -4 1498.83 54.8664 1
4 2 -4 1554.06 56.8629 3
-4 -2 4 1410.9 60.9119 3
-4 -2 4 1485.8 47.7071 2
3 2 -4 1168.21 43.4389 1
3 2 -4 1189.44 38.572 2
3 2 -4 1269.64 46.1006 3
-3 -2 4 1197.62 49.0386 3
-3 -2 4 1182.35 40.1654 2
2 2 -4 3628.09 106.604 2
2 2 -4 3576.33 109.241 1
2 2 -4 3692.74 111.682 3
-2 -2 4 3573.19 113.709 3
-2 -2 4 3493.7 107.718 2
1 2 -4 3435.43 101.711 2
1 2 -4 3427.99 104.477 3
1 2 -4 3329.65 101.406 1
-1 -2 4 3460.45 100.874 1
-1 -2 4 3371.49 102.287 2
-1 -2 4 3326.87 105.044 3
-1 2 -4 1272.04 43.0605 2
-1 2 -4 1226.43 41.3772 1
1 -2 4 1236.07 41.8936 1
1 -2 4 1268.35 42.3346 2
-2 2 -4 8580.19 251.675 3
-2 2 -4 8488.39 252.435 2
2 -2 4 8864.75 253.86 1
-3 2 -4 3514 108.469 2
-3 2 -4 3434.65 107.907 3
3 -2 4 3449.96 112.12 1
3 -2 4 3498.03 106.037 2
-4 2 -4 139.957 12.7182 3
-4 2 -4 124.458 12.3994 2
4 -2 4 116.181 10.3793 2
4 -2 4 148.63 16.801 1
-5 2 -4 548.607 29.1422 3
-5 2 -4 571.485 26.5521 2
5 -2 4 553.949 23.7403 2
5 -2 4 473.289 34.3896 1
6 -2 4 227.697 29.2972 1
7 1 -4 88.2941 17.7459 3
6 1 -4 218.482 21.4424 3
5 1 -4 15.5543 8.58405 1
5 1 -4 6.43153 8.27018 3
4 1 -4 72.1128 10.566 1
4 1 -4 84.5088 11.8596 3
-4 -1 4 66.9979 6.11515 2
-4 -1 4 90.6119 14.3242 3
3 1 -4 6.86827 5.57237 3
3 1 -4 15.3382 5.34247 1
3 1 -4 8.4124 3.12287 2
-3 -1 4 12.2583 3.653 2
-3 -1 4 11.9861 6.21554 3
2 1 -4 241.091 12.3868 1
2 1 -4 257.705 11.8075 2
2 1 -4 256.251 14.8791 3
-2 -1 4 230.016 12.0702 2
-2 -1 4 266.803 15.8754 3
1 1 -4 2.51069 2.88136 3
1 1 -4 17.6623 3.93913 2
1 1 -4 3.49505 1.95909 1
-1 -1 4 4.31153 2.77579 3
-1 -1 4 8.40832 2.66218 1
-1 -1 4 1.7165 2.73069 2
0 1 -4 26.2777 4.93402 2
0 1 -4 21.8767 3.21956 1
0 -1 4 23.6094 3.34401 1
0 -1 4 28.622 4.88088 2
-1 1 -4 544.445 23.4683 2
1 -1 4 594.687 23.0374 2
1 -1 4 583.294 22.1037 1
-2 1 -4 1192.43 43.1638 3
-2 1 -4 1200.28 42.841 2
2 -1 4 1156.17 40.9374 2
2 -1 4 1223.54 43.5103 1
-3 1 -4 74.1832 10.7657 3
3 -1 4 77.29 11.6574 1
3 -1 4 84.6002 8.98791 2
-4 1 -4 69.664 11.201 3
-4 1 -4 45.5194 9.67901 2
4 -1 4 52.9271 13.8006 1
4 -1 4 62.1507 8.73991 2
-5 1 -4 418.327 22.8994 2
-5 1 -4 405.403 26.0907 3
5 -1 4 391.647 30.8228 1
-6 1 -4 53.4207 9.56586 2
6 -1 4 45.5362 17.5862 1
8 0 -4 6.6375 14.2931 3
7 0 -4 -5.3394 10.2784 3
6 0 -4 107.397 16.1473 3
-6 0 4 135.462 21.7063 3
5 0 -4 184.215 16.3837 3
-5 0 4 151.211 17.9097 3
4 0 -4 1204.95 36.8626 2
4 0 -4 1309.19 46.9175 3
-4 0 4 1208.37 37.6589 2
-4 0 4 1126.64 49.151 3
3 0 -4 3083.98 90.7393 2
3 0 -4 3150.08 97.5293 3
-3 0 4 3070.61 91.6123 2
-3 0 4 2973.29 99.4929 3
2 0 -4 2858.43 86.0816 1
2 0 -4 2901.43 86.423 2
2 0 -4 2832.69 90.6825 3
-2 0 4 2887.32 91.622 3
-2 0 4 2881.26 86.9237 2
1 0 -4 3785.31 116.52 3
1 0 -4 3824.18 113.099 2
1 0 -4 3773.65 109.01 1
-1 0 4 3764 113.225 2
0 0 -4 1094.05 37.9236 2
0 0 4 1073.79 37.4753 2
0 0 4 1100.74 33.3997 1
-1 0 -4 4278.45 130.987 2
1 0 4 4405.41 128.471 1
-2 0 -4 3534.14 111.925 3
-2 0 -4 3507.11 111.321 2
2 0 4 3555.73 108.834 2
2 0 4 3652.53 111.067 1
-3 0 -4 2776.31 88.0067 2
-3 0 -4 2634.13 89.0375 3
3 0 4 2637.73 84.5955 2
-4 0 -4 955.03 40.9125 3
-4 0 -4 866.715 37.5996 2
4 0 4 863.56 43.6156 1
-5 0 -4 433.329 24.7531 2
5 0 4 421.817 32.3066 1
-6 0 -4 356.95 21.7275 2
6 0 4 428.615 39.6224 1
8 -1 -4 -1.1144 12.6825 3
6 -1 -4 234.505 20.2754 3
-6 1 4 231.023 22.7815 3
5 -1 -4 931.731 37.7779 3
-5 1 4 790.889 40.6372 3
4 -1 -4 962.319 30.2356 2
4 -1 -4 968.317 37.9746 3
-4 1 4 907.264 40.3129 3
3 -1 -4 3813.11 111.139 2
3 -1 -4 3947.65 117.322 3
-3 1 4 3634.68 111.501 2
-3 1 4 3661.7 118.269 3
2 -1 -4 1482.25 51.7144 3
2 -1 -4 1588.19 48.136 2
-2 1 4 1368.45 47.6938 2
1 -1 -4 123.814 8.62607 2
-1 1 4 113.795 8.66538 2
0 -1 -4 1913.12 61.9324 2
0 1 4 1873.93 55.4944 1
-1 -1 -4 37.1299 7.43095 3
-1 -1 -4 41.179 7.76395 2
1 1 4 50.4959 7.33122 2
-2 -1 -4 490.079 25.0167 3
-2 -1 -4 480.515 23.683 2
2 1 4 480.602 21.8754 2
-3 -1 -4 8.17257 7.61191 3
-3 -1 -4 15.1006 8.26315 2
-4 -1 -4 208.292 18.4082 2
-5 -1 -4 16.6157 9.80232 2
-6 -1 -4 15.5794 9.01504 2
6 1 4 -29.34 15.1392 1
8 -2 -4 -6.8125 11.63 3
7 -2 -4 9.85938 8.77253 3
-7 2 4 24.9687 12.8048 3
6 -2 -4 41.7711 10.8983 3
-6 2 4 55.6225 13.2967 3
5 -2 -4 208.276 16.4804 3
5 -2 -4 204.261 7.96394 2
-5 2 4 179.33 17.145 3
4 -2 -4 123.76 8.13444 2
4 -2 -4 134.807 14.7542 3
-4 2 4 118.114 12.4885 3
3 -2 -4 432.597 21.3364 3
3 -2 -4 411.139 17.4867 2
2 -2 -4 177.636 8.51013 1
2 -2 -4 155.392 12.4309 3
2 -2 -4 178.705 10.9484 2
-2 2 4 152.881 10.3523 2
1 -2 -4 4931.27 150.017 2
-1 2 4 5109.94 149.962 2
0 2 4 2096.7 62.2561 1
0 2 4 2130.72 68.4695 2
-1 -2 -4 595.559 27.031 2
-1 -2 -4 587.351 28.0094 3
1 2 4 587.169 22.698 1
1 2 4 615.297 25.934 2
-2 -2 -4 2047.37 69.1442 2
-2 -2 -4 1905.99 69.8129 3
-3 -2 -4 338.243 23.4259 3
-3 -2 -4 366.776 23.0648 2
-4 -2 -4 438.708 26.0903 2
4 2 4 451.503 27.1678 1
-5 -2 -4 46.7237 12.3818 2
8 -3 -4 122.968 21.7561 3
7 -3 -4 116.374 20.0414 1
7 -3 -4 131.397 15.5113 3
-7 3 4 128.117 20.3803 3
6 -3 -4 372.571 21.7753 3
6 -3 -4 297.413 25.021 1
-6 3 4 257.344 22.5322 3
5 -3 -4 473.165 27.227 1
5 -3 -4 508.872 18.6145 2
5 -3 -4 526.41 24.9399 3
-5 3 4 431.445 26.2793 3
4 -3 -4 3020.65 95.7927 1
4 -3 -4 2925.2 90.4874 2
4 -3 -4 2999.99 96.567 3
3 -3 -4 3411.41 104.441 2
3 -3 -4 3389.54 108.223 3
3 -3 -4 3469.42 104.181 1
2 -3 -4 2341.44 69.9295 1
2 -3 -4 2336.48 75.1034 2
1 -3 -4 3071.1 88.5389 1
1 -3 -4 3084.19 97.409 2
-1 3 4 3094.73 88.9686 1
0 -3 -4 3322.57 103 2
0 -3 -4 3132.75 102.876 3
0 3 4 3208.85 94.9786 1
-1 -3 -4 2085.06 70.6063 2
-1 -3 -4 1957.7 71.2372 3
1 3 4 2076.84 65.1636 1
-2 -3 -4 730.465 34.1721 2
-2 -3 -4 717.657 34.8714 3
2 3 4 826.962 32.0835 1
-3 -3 -4 698.748 35.1446 2
3 3 4 796.699 34.437 1
-4 -3 -4 43.9143 12.17 2
-5 -3 -4 25.9363 13.3109 2
8 -4 -4 4.00313 10.319 3
8 -4 -4 18.4474 16.6269 1
-8 4 4 8.32458 14.8891 3
7 -4 -4 71.2559 17.0185 1
7 -4 -4 78.7918 12.8725 3
-7 4 4 59.4901 14.8773 3
6 -4 -4 104.764 6.97636 2
6 -4 -4 107.505 16.6581 1
6 -4 -4 128.874 13.5866 3
6 -4 -4 107.122 6.80408 2
5 -4 -4 180.239 11.9306 2
5 -4 -4 188.904 16.8326 1
5 -4 -4 218.882 15.7758 3
4 -4 -4 142.079 12.9511 1
4 -4 -4 144.667 11.3197 2
4 -4 -4 137.465 13.1635 3
3 -4 -4 411.293 19.8602 2
3 -4 -4 368.37 17.5581 1
3 -4 -4 391.004 21.4991 3
2 -4 -4 5.40138 5.82797 2
2 -4 -4 4.16942 2.90677 1
1 -4 -4 213.962 9.08947 1
1 -4 -4 193.119 15.161 2
-1 4 4 198.492 9.56155 1
0 -4 -4 584.858 28.3112 2
0 -4 -4 597.205 29.3404 3
0 4 4 624.948 23.0434 1
-1 -4 -4 343.978 22.1652 2
-2 -4 -4 9.37446 9.70118 2
2 4 4 5.00377 6.52632 1
-3 -4 -4 49.7946 12.5935 2
3 4 4 47.433 11.6807 1
-4 -4 -4 8.13803 10.7138 2
8 -5 -4 46.9703 17.1121 1
8 -5 -4 50.4844 11.8276 3
7 -5 -4 206.08 17.2048 3
7 -5 -4 173.066 22.9535 1
6 -5 -4 152.106 14.2228 3
6 -5 -4 179.88 11.4095 2
6 -5 -4 139.839 18.3072 1
5 -5 -4 24.6541 8.90772 1
5 -5 -4 18.145 7.2254 3
4 -5 -4 774.488 31.561 2
4 -5 -4 744.897 37.5772 3
4 -5 -4 766.891 32.1723 1
3 -5 -4 3567.21 106.27 1
3 -5 -4 3391.19 109.943 2
2 -5 -4 1034.64 41.3099 2
2 -5 -4 1004.46 33.9707 1
-2 5 4 1008.93 34.7551 1
1 -5 -4 1647.95 61.972 3
1 -5 -4 1847.86 53.8684 1
1 -5 -4 1780.16 63.2205 2
-1 5 4 1684.63 54.8622 1
0 -5 -4 2598.03 88.5794 2
0 -5 -4 2621.67 89.0227 3
0 5 4 2567.38 81.0586 1
-1 -5 -4 3222.74 105.205 2
-1 -5 -4 3138.1 105.887 3
1 5 4 2999.35 98.9334 1
-2 -5 -4 1000.69 44.9558 2
2 5 4 942.914 40.6071 1
-3 -5 -4 255.455 26.3542 2
3 5 4 202.08 20.6611 1
-4 -5 -4 96.5154 16.998 2
8 -6 -4 79.8073 12.8125 3
8 -6 -4 66.5737 19.941 1
7 -6 -4 174.307 15.4119 3
7 -6 -4 178.001 10.4411 2
7 -6 -4 186.459 11.1988 2
7 -6 -4 210.696 25.5138 1
6 -6 -4 525.736 24.2272 2
6 -6 -4 540.242 33.2602 1
6 -6 -4 561.633 26.5785 3
5 -6 -4 113.796 12.473 3
5 -6 -4 119.824 12.4984 2
5 -6 -4 102.75 14.1565 1
4 -6 -4 12.5908 6.30255 1
4 -6 -4 14.7575 7.11993 2
4 -6 -4 12.7842 6.39223 3
3 -6 -4 683.652 32.286 2
3 -6 -4 673.236 27.3007 1
2 -6 -4 741.835 27.3862 1
2 -6 -4 755.941 33.563 3
2 -6 -4 737.798 35.1264 2
-2 6 4 757.562 28.6813 1
1 -6 -4 92.8674 13.2769 3
1 -6 -4 58.791 12.7022 2
1 -6 -4 73.5882 7.72308 1
-1 6 4 76.2587 8.22205 1
0 -6 -4 60.5847 12.4741 3
0 -6 -4 72.3914 13.6676 2
0 6 4 64.79 9.20208 1
-1 -6 -4 117.835 16.9931 2
1 6 4 141.783 13.9592 1
-2 -6 -4 148.9 19.3224 2
2 6 4 91.1891 14.6343 1
-3 -6 -4 41.1021 13.9646 2
8 -7 -4 -20.279 10.5154 1
8 -7 -4 -5.6636 7.2894 3
7 -7 -4 5.18128 6.53608 2
7 -7 -4 18.4435 6.38462 2
7 -7 -4 7.69424 6.42594 3
7 -7 -4 6.23828 11.1295 1
6 -7 -4 16.3864 9.93162 1
6 -7 -4 -3.4709 5.76376 3
6 -7 -4 18.4079 7.96832 2
5 -7 -4 8.38113 7.01877 3
5 -7 -4 4.58865 6.81361 1
5 -7 -4 5.62194 7.7018 2
4 -7 -4 225.905 16.5007 1
4 -7 -4 217.55 18.5465 2
4 -7 -4 240.976 18.472 3
3 -7 -4 518.086 29.3123 2
3 -7 -4 495.718 26.0557 3
-3 7 4 544.719 24.6429 1
2 -7 -4 354.147 24.9583 2
2 -7 -4 357.532 23.3877 3
2 -7 -4 379.816 17.7009 1
-2 7 4 392.674 21.3075 1
1 -7 -4 282.299 23.1835 2
1 -7 -4 302.469 15.4546 1
1 -7 -4 297.856 21.7901 3
-1 7 4 293.689 16.8148 1
0 -7 -4 488.348 34.9727 2
0 7 4 515.054 25.6947 1
-1 -7 -4 684.583 36.3101 2
1 7 4 544.725 30.4111 1
-2 -7 -4 373.063 29.4627 2
2 7 4 349.612 26.4438 1
-3 -7 -4 135.69 20.8353 2
7 -8 -4 178.138 15.6163 2
7 -8 -4 155.866 14.1091 2
7 -8 -4 157.888 22.7619 1
6 -8 -4 456.13 26.5094 2
6 -8 -4 511.141 24.9687 3
5 -8 -4 298.717 20.7213 3
5 -8 -4 295.9 23.173 2
5 -8 -4 343.824 22.9208 1
4 -8 -4 260.01 18.3791 3
4 -8 -4 287.3 18.6872 1
4 -8 -4 236.838 21.5025 2
3 -8 -4 484.14 27.5982 3
3 -8 -4 509.718 30.9515 2
3 -8 -4 532.531 24.348 1
-3 8 4 514.044 25.0074 1
2 -8 -4 1147.31 48.9184 3
2 -8 -4 1219.3 41.5124 1
2 -8 -4 1118.7 57.4365 2
-2 8 4 1126.14 43.4335 1
1 -8 -4 395.322 28.8268 2
1 -8 -4 424.582 20.1026 1
-1 8 4 398.02 22.2759 1
0 -8 -4 116.722 18.5559 2
0 8 4 96.7126 13.4988 1
-1 -8 -4 213.881 23.2751 2
1 8 4 205.975 21.3936 1
-2 -8 -4 114.83 18.7304 2
7 -9 -4 10.7267 9.6816 2
7 -9 -4 0.61297 10.9454 1
7 -9 -4 22.801 6.7277 3
7 -9 -4 -8.2772 7.78491 2
6 -9 -4 34.3253 11.3468 2
6 -9 -4 23.0959 8.28397 3
6 -9 -4 33.9265 8.34504 3
6 -9 -4 18.962 10.3238 1
5 -9 -4 37.9447 10.8357 1
5 -9 -4 25.748 8.84345 3
5 -9 -4 16.003 8.36834 3
4 -9 -4 23.8931 9.01877 3
4 -9 -4 26.8236 12.3939 2
4 -9 -4 25.9844 8.49788 1
3 -9 -4 34.2373 8.04689 1
3 -9 -4 39.3854 10.4095 3
3 -9 -4 39.1248 13.5683 2
-3 9 4 24.1949 9.0331 1
2 -9 -4 4.82541 6.07554 1
2 -9 -4 6.66535 12.0603 2
-2 9 4 -8.915 6.31675 1
1 -9 -4 124.176 20.11 2
1 -9 -4 104.313 11.7348 1
-1 9 4 119.156 14.401 1
0 -9 -4 73.6641 17.1131 2
0 9 4 65.848 13.6775 1
-1 -9 -4 26.0484 15.6814 2
1 9 4 2.09261 12.9563 1
7 -10 -4 208.377 24.5861 1
7 -10 -4 161.389 12.3559 3
7 -10 -4 162.828 18.5861 2
6 -10 -4 228.86 21.2323 2
6 -10 -4 232.908 17.5613 3
6 -10 -4 267.936 18.3829 3
6 -10 -4 267.485 22.3616 1
5 -10 -4 241.089 23.7673 2
5 -10 -4 293.637 21.8735 1
5 -10 -4 228.855 18.3957 3
5 -10 -4 265.589 20.4409 3
4 -10 -4 472.684 25.452 1
4 -10 -4 392.577 32.2023 2
4 -10 -4 451.871 27.2365 3
-4 10 4 408.635 28.4568 1
3 -10 -4 667.988 39.9661 2
3 -10 -4 700.51 30.5028 1
-3 10 4 646.575 32.5173 1
2 -10 -4 434.284 33.6989 2
2 -10 -4 439.046 22.3902 1
-2 10 4 450.823 26.0082 1
1 -10 -4 81.2404 11.5778 1
1 -10 -4 50.0815 16.4137 2
-1 10 4 43.9648 12.964 1
0 -10 -4 25.3827 16.6583 2
0 10 4 28.6093 13.9928 1
6 -11 -4 72.8399 17.3083 2
6 -11 -4 73.9611 11.7482 3
6 -11 -4 87.4662 15.5713 1
5 -11 -4 72.8166 17.5393 2
5 -11 -4 73.881 13.797 3
5 -11 -4 89.9659 14.8142 1
4 -11 -4 120.351 15.2684 1
4 -11 -4 115.752 20.7938 2
4 -11 -4 108.629 19.6874 3
-4 11 4 102.503 16.102 1
3 -11 -4 47.409 16.3338 2
3 -11 -4 62.0946 10.8245 1
-3 11 4 48.4503 12.5573 1
2 -11 -4 169.832 27.3386 2
2 -11 -4 208.05 16.8303 1
-2 11 4 153.214 19.0026 1
1 -11 -4 119.475 21.2426 2
-1 11 4 100.867 16.9465 1
5 -12 -4 108.743 15.9165 1
5 -12 -4 96.5242 16.5409 3
4 -12 -4 60.4481 18.9397 2
4 -12 -4 51.6483 13.9037 1
3 -12 -4 109.738 22.5001 2
3 -12 -4 143.788 16.2923 1
2 -12 -4 162.652 15.6558 1
2 -12 -4 182.417 27.2138 2
-1 14 -5 249.951 28.5444 3
1 -14 5 286.873 26.1511 1
2 -14 5 280.816 34.659 3
3 -14 5 267.1 26.2266 1
4 -14 5 98.7752 19.2572 1
1 13 -5 3.487 16.3327 3
-1 -13 5 10.3556 12.0679 1
0 13 -5 -9.1415 13.6625 3
0 -13 5 -9.9372 9.43863 1
-1 13 -5 180.065 23.7039 3
1 -13 5 115.725 23.5065 3
1 -13 5 160.04 20.329 1
-2 13 -5 10.713 10.0871 3
2 -13 5 36.3517 11.2149 3
2 -13 5 42.8148 12.9441 1
3 -13 5 0.39289 10.2123 1
3 -13 5 5.05256 5.67387 3
5 -13 5 34.4426 15.8165 1
2 12 -5 118.143 25.4048 3
1 12 -5 333.582 32.8447 3
-1 -12 5 322.118 25.1763 1
0 12 -5 228.813 27.1048 3
0 -12 5 189.017 20.4365 1
-1 12 -5 402.956 29.3904 3
1 -12 5 402.995 28.4616 3
1 -12 5 418.237 27.9868 1
-2 12 -5 1269.99 50.6102 3
2 -12 5 1243.71 50.5126 3
2 -12 5 1328.28 55.2329 1
3 -12 5 438.14 30.5282 1
4 -12 5 276.153 24.4747 1
5 -12 5 165.797 29.0769 1
3 11 -5 77.8391 23.3387 3
2 11 -5 244.696 29.9686 3
-2 -11 5 169.544 21.0884 1
1 11 -5 75.3994 18.7307 3
-1 -11 5 64.6202 13.9134 1
0 11 -5 194.889 22.6505 3
0 -11 5 233.757 20.3259 1
0 -11 5 166.33 21.6344 3
-1 11 -5 13.5927 9.61793 3
1 -11 5 33.786 10.3486 1
1 -11 5 34.069 10.5835 3
2 -11 5 74.9401 10.8907 3
2 -11 5 72.2632 13.3871 1
3 -11 5 68.9177 13.636 1
4 -11 5 1.81062 10.6016 1
5 -11 5 5.63731 12.375 1
6 -11 5 13.2886 13.8911 1
4 10 -5 15.802 17.3467 3
3 10 -5 250.526 30.8667 3
2 10 -5 56.0171 17.3706 3
-2 -10 5 19.9587 11.1596 1
1 10 -5 55.5909 15.5697 3
-1 -10 5 41.172 11.6635 1
0 10 -5 152.666 19.5369 3
0 -10 5 115.016 15.3011 1
0 -10 5 150.091 20.7744 3
-1 10 -5 164.885 17.1521 3
1 -10 5 142.625 15.2509 3
-2 10 -5 663.902 28.8033 3
2 -10 5 664.38 39.3633 1
3 -10 5 612.748 34.3394 1
4 -10 5 513.361 33.1708 1
5 -10 5 348.768 29.9827 1
6 -10 5 350.302 32.8465 1
4 9 -5 236.486 29.6051 3
3 9 -5 268.126 29.3441 3
2 9 -5 834.637 45.1946 3
-2 -9 5 861.027 39.555 1
1 9 -5 1541.08 60.2383 3
-1 -9 5 1398.5 58.839 2
-1 -9 5 1314.94 60.3772 3
-1 -9 5 1350.82 53.6008 1
0 9 -5 445.385 26.7069 3
0 9 -5 429.207 28.0527 1
0 -9 5 396.327 25.8642 2
0 -9 5 460.427 25.3464 1
0 -9 5 391.111 25.9113 3
-1 9 -5 252.431 21.3452 1
-1 9 -5 267.446 18.8844 3
1 -9 5 284.49 20.4952 1
1 -9 5 268.094 20.3118 2
1 -9 5 278.665 18.7663 3
-2 9 -5 478.046 21.8191 3
-2 9 -5 450.65 27.7356 1
2 -9 5 490.137 27.8246 1
2 -9 5 463.89 27.2795 2
2 -9 5 467.074 21.6482 3
3 -9 5 571.487 30.1032 2
3 -9 5 606.266 33.0806 1
4 -9 5 200.585 18.2296 2
4 -9 5 211.475 20.2576 1
5 -9 5 14.3269 8.9198 2
5 -9 5 -1.7556 10.6317 1
6 -9 5 46.7174 12.0072 2
6 -9 5 27.6025 14.4072 1
5 8 -5 40.1623 16.4697 3
4 8 -5 49.1945 17.1883 3
-4 -8 5 16.7066 10.2392 2
3 8 -5 53.4791 15.8319 3
-3 -8 5 23.2263 11.2666 2
2 8 -5 155.31 19.1151 3
-2 -8 5 121.151 19.8348 3
-2 -8 5 121.13 16.3384 2
-2 -8 5 119.256 15.1619 1
1 8 -5 229.756 20.9537 1
1 8 -5 278.69 21.6021 3
-1 -8 5 294.524 21.4979 2
-1 -8 5 281.741 23.0627 3
-1 -8 5 240.977 18.3018 1
0 8 -5 651.56 38.5482 1
0 8 -5 679.539 32.1678 3
0 -8 5 631.832 32.0062 3
0 -8 5 635.65 30.3349 1
-1 8 -5 267.083 16.9 3
-1 8 -5 271.671 23.3373 1
1 -8 5 263.068 17.0361 3
1 -8 5 232.892 18.0198 1
1 -8 5 281.254 22.858 2
-2 8 -5 80.4149 13.128 1
-2 8 -5 81.8749 8.76548 3
2 -8 5 66.2458 11.74 1
2 -8 5 76.414 13.6271 2
-3 8 -5 125.068 15.9264 1
3 -8 5 112.719 15.6716 1
4 -8 5 101.109 16.8596 1
4 -8 5 77.7305 11.7525 2
5 -8 5 351.075 29.1338 1
5 -8 5 398.845 22.9841 2
6 -8 5 288.017 18.8195 2
6 -8 5 271.139 28.4959 1
5 7 -5 194.329 27.1129 3
4 7 -5 309.111 28.7341 3
-4 -7 5 275.12 24.2347 2
3 7 -5 1341.46 81.491 3
-3 -7 5 1380.58 54.0339 2
2 7 -5 1004.36 46.9135 1
2 7 -5 1169.26 47.7504 3
-2 -7 5 1022.21 41.8976 1
-2 -7 5 1081.48 44.6082 2
-2 -7 5 947.324 48.9356 3
1 7 -5 3959.35 125.511 3
1 7 -5 3929.7 127.652 1
-1 -7 5 3862.02 125.386 2
-1 -7 5 3918.43 122.29 1
-1 -7 5 3846.49 128.764 3
0 7 -5 742.679 35.6014 1
0 7 -5 819.205 34.2565 3
0 -7 5 853.683 36.1027 3
0 -7 5 783.397 35.6684 2
0 -7 5 820.897 34.1953 1
-1 7 -5 433.623 21.1549 3
-1 7 -5 416.923 24.3444 1
-1 7 -5 481.53 24.5447 2
1 -7 5 459.084 23.916 1
1 -7 5 464.876 24.562 2
1 -7 5 449.129 21.869 3
-2 7 -5 1669.48 59.8564 2
-2 7 -5 1550.45 60.1716 1
-2 7 -5 1644.37 52.8721 3
2 -7 5 1694.54 59.3702 2
2 -7 5 1616.3 60.1895 1
-3 7 -5 966.812 41.6818 1
-3 7 -5 997.296 41.3764 2
-3 7 -5 950.332 30.0087 3
-3 7 -5 922.558 30.3725 3
3 -7 5 943.381 38.8808 2
3 -7 5 973.334 42.8389 1
-4 7 -5 738.438 35.7527 2
4 -7 5 798.155 34.2241 2
4 -7 5 834.877 40.2191 1
-5 7 -5 205.871 17.5391 2
5 -7 5 162.451 14.1864 2
5 -7 5 154.331 22.1879 1
6 -7 5 215.594 28.2486 1
6 -7 5 260.779 16.8413 2
7 -7 5 47.4848 18.7223 1
6 6 -5 113.006 23.5984 3
-6 -6 5 60.2847 15.1364 2
-6 -6 5 93.4721 11.2294 2
5 6 -5 215.924 26.4968 3
-5 -6 5 198.109 16.9721 2
4 6 -5 377.491 28.7791 3
-4 -6 5 339.891 21.3902 2
3 6 -5 537.198 31.3224 1
3 6 -5 527.958 31.615 3
-3 -6 5 555.315 36.1293 3
-3 -6 5 557.647 28.194 2
2 6 -5 809.071 38.8968 1
2 6 -5 929.987 39.591 3
-2 -6 5 875.057 43.2014 3
-2 -6 5 914.217 37.9465 2
-2 -6 5 895.751 36.59 1
1 6 -5 198.49 15.3275 1
1 6 -5 218.413 16.1857 3
-1 -6 5 193.174 15.3149 2
-1 -6 5 204.954 16.9107 3
-1 -6 5 193.08 14.2298 1
0 6 -5 2650.13 85.6195 2
0 6 -5 2771.8 85.8454 3
0 6 -5 2615.08 87.5653 1
0 -6 5 2620.41 85.3299 1
0 -6 5 2695.88 87.2896 2
0 -6 5 2520.46 86.4878 3
-1 6 -5 254.721 17.0638 1
-1 6 -5 282.257 15.2724 3
-1 6 -5 290.161 17.72 2
1 -6 5 245.299 14.6755 3
1 -6 5 259.503 16.2932 2
1 -6 5 240.857 16.4332 1
-2 6 -5 132.104 12.4398 2
-2 6 -5 168.195 14.1333 1
-2 6 -5 158.25 10.199 3
2 -6 5 160.97 13.1601 2
2 -6 5 166.055 14.3575 1
-3 6 -5 43.9534 9.64094 2
-3 6 -5 46.1866 5.72624 3
-3 6 -5 50.1773 6.43433 3
-3 6 -5 32.6465 9.07572 1
3 -6 5 35.1674 9.87946 1
3 -6 5 58.8621 9.67506 2
-4 6 -5 87.7146 7.84759 3
-4 6 -5 75.0389 12.3136 2
-4 6 -5 72.0115 8.07889 3
4 -6 5 97.6745 11.7699 2
4 -6 5 72.1633 14.1729 1
-5 6 -5 2.06553 5.31409 3
-5 6 -5 23.9217 9.07976 2
5 -6 5 8.04191 10.58 1
5 -6 5 9.16463 6.18754 2
-6 6 -5 89.7094 12.4747 2
6 -6 5 75.0243 10.404 2
6 -6 5 83.635 19.9081 1
7 -6 5 41.0551 19.1682 1
6 5 -5 42.9787 16.6121 3
-6 -5 5 17.5994 6.4632 2
5 5 -5 51.4259 15.4363 3
-5 -5 5 75.1412 10.5356 2
4 5 -5 398.531 28.01 3
-4 -5 5 386.826 21.3146 2
3 5 -5 121.183 14.1408 3
-3 -5 5 144.086 23.9705 3
-3 -5 5 155.167 13.216 2
2 5 -5 1433.25 55.4594 1
2 5 -5 1459.9 55.0045 3
-2 -5 5 1466.48 59.3639 3
-2 -5 5 1548.69 53.8658 2
-2 -5 5 1512.24 52.7338 1
1 5 -5 1751.22 61.2113 3
1 5 -5 1849.15 59.6497 2
1 5 -5 1763.18 61.7973 1
-1 -5 5 1728.91 63.4507 3
-1 -5 5 1774.8 61.1241 2
-1 -5 5 1728.42 58.9574 1
0 5 -5 4449.8 134.92 2
0 5 -5 4453.23 136.019 1
0 5 -5 4659.16 135.068 3
0 -5 5 4463.91 134.449 1
0 -5 5 4194.49 136.314 3
0 -5 5 4331.81 135.773 2
-1 5 -5 230.755 14.8989 1
-1 5 -5 225.148 15.0573 2
-1 5 -5 238.014 13.5938 3
1 -5 5 219.771 14.6529 2
1 -5 5 230.4 14.8883 1
-2 5 -5 1465.37 52.747 2
-2 5 -5 1430.02 48.9719 3
-2 5 -5 1424.55 52.5488 1
2 -5 5 1441.04 51.5531 2
2 -5 5 1572.18 54.4341 1
-3 5 -5 3125.01 96.087 3
-3 5 -5 3254.8 102.459 2
-3 5 -5 3120.87 103.013 1
3 -5 5 3165.59 99.9577 2
3 -5 5 3192.29 105.254 1
-4 5 -5 235.353 13.854 3
-4 5 -5 262.332 18.0764 2
4 -5 5 213.572 14.7598 2
4 -5 5 265.834 21.8841 1
-5 5 -5 286.178 17.563 3
-5 5 -5 289.658 19.5074 2
5 -5 5 268.754 25.8693 1
5 -5 5 244.526 16.758 2
-6 5 -5 200.873 17.4367 3
-6 5 -5 173.783 16.4604 2
6 -5 5 164.989 13.736 2
6 -5 5 161.106 24.9028 1
7 4 -5 26.8094 16.0752 3
6 4 -5 263.717 27.6511 3
-6 -4 5 236.306 12.9093 2
-6 -4 5 263.173 12.5801 2
5 4 -5 403.922 29.3192 3
4 4 -5 1638.53 60.971 1
4 4 -5 1645.05 62.429 3
-4 -4 5 1478.76 67.3389 3
-4 -4 5 1526.75 54.0512 2
3 4 -5 1507.23 56.8888 1
3 4 -5 1567.68 58.0528 3
-3 -4 5 1524.7 53.3071 2
-3 -4 5 1492.39 62.7323 3
2 4 -5 1168.63 44.2048 3
2 4 -5 1165.82 40.1083 2
2 4 -5 1167.48 43.857 1
-2 -4 5 1186.04 41.8753 1
-2 -4 5 1032.95 41.4458 2
-2 -4 5 1098.23 46.9614 3
1 4 -5 4197.02 129.698 1
1 4 -5 4364.88 130.924 3
1 4 -5 4249.84 128.175 2
-1 -4 5 4343.79 127.942 1
-1 -4 5 4294.97 129.956 2
-1 -4 5 4008.26 132.031 3
0 4 -5 1187.1 42.119 1
0 4 -5 1125.53 41.9859 3
0 -4 5 1211.7 42.8806 2
0 -4 5 1167.42 43.0051 3
0 -4 5 1203.95 41.4294 1
-1 4 -5 3551.51 112.75 3
-1 4 -5 3693.5 114.121 2
-1 4 -5 3640.1 113.435 1
1 -4 5 3716.36 113.87 2
1 -4 5 3849.53 114.057 1
-2 4 -5 43.224 7.79688 1
-2 4 -5 53.7521 8.95608 2
2 -4 5 44.829 7.42056 2
2 -4 5 69.9604 10.0262 1
-3 4 -5 567.378 26.959 2
-3 4 -5 547.325 23.4816 3
3 -4 5 539.331 28.1924 1
3 -4 5 522.668 23.9348 2
-4 4 -5 490.135 23.011 3
-4 4 -5 474.48 25.1493 2
4 -4 5 436.571 28.7363 1
4 -4 5 459.374 22.3104 2
-5 4 -5 -0.2197 7.13471 3
-5 4 -5 13.787 8.73196 2
5 -4 5 4.90982 12.3087 1
5 -4 5 0.71103 5.54475 2
-6 4 -5 23.6842 10.4958 3
-6 4 -5 16.7442 8.38334 2
6 -4 5 28.0596 14.8016 1
6 -4 5 14.3178 7.22413 2
7 3 -5 32.6241 16.3375 3
6 3 -5 75.889 16.6332 3
5 3 -5 198.075 20.1588 3
-5 -3 5 179.466 12.1076 2
4 3 -5 21.5009 10.2181 1
4 3 -5 7.79699 8.15227 3
-4 -3 5 19.8941 6.10593 2
3 3 -5 151.762 10.3828 2
3 3 -5 177.085 14.2611 1
3 3 -5 182.673 15.5919 3
-3 -3 5 143.208 16.6235 3
-3 -3 5 166.79 12.0767 2
2 3 -5 27.8604 6.45082 1
2 3 -5 13.5009 5.1642 3
2 3 -5 21.4999 5.39482 2
-2 -3 5 27.9117 7.62732 3
-2 -3 5 28.2449 6.04256 2
1 3 -5 328.045 15.8302 2
1 3 -5 311.703 15.8309 1
1 3 -5 296.471 17.216 3
-1 -3 5 322.893 19.0415 2
-1 -3 5 308.668 18.1281 3
-1 -3 5 318.002 14.9418 1
0 3 -5 653.904 26.0051 2
0 3 -5 595.273 24.2276 1
0 3 -5 558.649 25.7563 3
0 -3 5 638.6 26.0043 2
0 -3 5 685.99 24.6657 1
-1 3 -5 1558.2 52.7089 1
-1 3 -5 1592.28 54.7976 3
-1 3 -5 1589 55.0784 2
1 -3 5 1581.3 53.6579 2
1 -3 5 1643.42 53.6206 1
-2 3 -5 184.392 14.2978 2
-2 3 -5 236.355 14.5296 1
2 -3 5 233.829 13.8687 2
2 -3 5 230.594 15.6084 1
-3 3 -5 1131.09 44.0699 2
-3 3 -5 1139.05 42.3884 3
3 -3 5 1166.44 41.8274 2
3 -3 5 1188.36 46.8874 1
-4 3 -5 348.028 21.1168 2
-4 3 -5 322.248 19.5841 3
4 -3 5 321.799 24.4861 1
4 -3 5 328.017 18.0762 2
-5 3 -5 160.04 15.8046 3
-5 3 -5 114.456 14.4202 2
5 -3 5 131.485 12.729 2
5 -3 5 123.728 20.082 1
-6 3 -5 226.411 20.9109 3
-6 3 -5 199.194 16.6702 2
6 -3 5 182.328 28.2697 1
7 2 -5 200.529 24.2812 3
6 2 -5 616.214 36.0943 3
5 2 -5 135.853 15.3061 1
5 2 -5 131.238 16.8301 3
-5 -2 5 149.254 9.23128 2
-5 -2 5 138.181 21.6028 3
4 2 -5 573.272 28.1043 1
4 2 -5 631.038 30.7096 3
-4 -2 5 605.195 34.9606 3
-4 -2 5 586.319 23.8052 2
3 2 -5 3496.47 108.982 3
3 2 -5 3405.11 106.167 1
3 2 -5 3410.89 101.485 2
-3 -2 5 3351.5 103.32 2
-3 -2 5 3279.77 112.498 3
2 2 -5 2231.29 67.2488 2
2 2 -5 2150.04 68.3888 1
-2 -2 5 2185.81 68.3006 1
-2 -2 5 2067.51 68.1221 2
-2 -2 5 2055.93 73.1986 3
1 2 -5 1014.24 39.5843 3
1 2 -5 1058.4 37.2491 2
1 2 -5 1014.41 35.5682 1
-1 -2 5 1066.61 37.8497 2
-1 -2 5 1132.22 35.507 1
-1 -2 5 1053.21 44.5615 3
0 2 -5 6889.47 198.996 1
0 2 -5 6879.19 202.074 2
0 2 -5 6773.31 204.113 3
0 -2 5 6990.48 201.981 2
0 -2 5 6772.93 198.681 1
-1 2 -5 2407.1 72.6257 1
-1 2 -5 2371.05 75.5263 2
1 -2 5 2268.89 73.9434 2
1 -2 5 2248.53 72.9461 1
-2 2 -5 1578.23 55.2026 2
-2 2 -5 1519.54 53.864 3
2 -2 5 1554.74 53.0568 2
2 -2 5 1615.34 59.3021 1
-3 2 -5 667.352 29.5014 3
-3 2 -5 617.178 29.8251 2
3 -2 5 668.157 31.9358 1
3 -2 5 647.585 27.4249 2
-4 2 -5 268.469 19.804 2
-4 2 -5 328.129 20.8411 3
4 -2 5 335.372 18.0745 2
4 -2 5 296.923 24.1092 1
-5 2 -5 57.6615 12.3548 3
-5 2 -5 46.9616 10.7411 2
5 -2 5 42.9946 16.5813 1
5 -2 5 43.0627 8.78507 2
-6 2 -5 9.46258 8.51319 2
6 -2 5 -6.8364 15.242 1
7 1 -5 89.6546 17.5192 3
6 1 -5 327.283 29.3894 3
5 1 -5 727.686 34.5864 1
5 1 -5 730.824 35.7746 3
-5 -1 5 786.503 24.7971 2
-5 -1 5 737.835 42.1251 3
4 1 -5 337.328 13.7068 2
4 1 -5 316.162 19.0089 1
4 1 -5 315.092 20.579 3
-4 -1 5 307.77 23.0476 3
-4 -1 5 307.137 14.812 2
3 1 -5 419.894 17.0763 2
3 1 -5 399.664 19.326 1
3 1 -5 402.456 22.0358 3
-3 -1 5 409.237 18.0847 2
-3 -1 5 406.375 23.9162 3
2 1 -5 5412.1 158.222 2
2 1 -5 5478.71 157.849 1
2 1 -5 5303.12 163.052 3
-2 -1 5 5052.39 163.755 3
-2 -1 5 5605.17 159.28 2
1 1 -5 981.077 39.2587 3
1 1 -5 990.509 36.3179 2
1 1 -5 1041.33 33.4084 1
-1 -1 5 1058.89 36.9348 2
-1 -1 5 1074.09 33.1837 1
0 1 -5 174.14 11.7057 2
0 1 -5 162.426 8.37131 1
0 -1 5 153.944 8.30719 1
0 -1 5 167.444 11.2184 2
1 -1 5 834.418 32.2034 2
1 -1 5 853.504 30.5704 1
-2 1 -5 453.866 23.3731 3
-2 1 -5 495.483 23.9679 2
2 -1 5 474.267 22.8338 1
2 -1 5 481.136 22.1664 2
-3 1 -5 3.84329 6.27499 3
-3 1 -5 11.8139 7.80978 2
3 -1 5 12.9415 7.71941 1
3 -1 5 12.8351 5.59022 2
-4 1 -5 93.6413 13.5524 2
-4 1 -5 88.1967 13.9201 3
4 -1 5 95.8651 11.4116 2
4 -1 5 111.95 17.649 1
-5 1 -5 92.4685 13.6357 2
5 -1 5 95.5275 18.32 1
-6 1 -5 130.001 15.1412 2
6 -1 5 125.91 24.4846 1
8 0 -5 2.84546 11.9497 3
7 0 -5 169.941 20.3457 3
6 0 -5 146.739 19.1639 3
-6 0 5 145.1 23.1375 3
5 0 -5 665.751 32.0335 3
-5 0 5 577.93 35.3042 3
4 0 -5 30.4221 8.85249 3
4 0 -5 42.8546 5.29613 2
-4 0 5 44.7452 10.9503 3
-4 0 5 35.9022 5.67507 2
3 0 -5 2172.36 71.657 3
3 0 -5 2073.72 65.0381 2
-3 0 5 2119.53 66.1658 2
-3 0 5 1990.47 72.743 3
2 0 -5 5267.22 161.689 3
2 0 -5 5297.04 154.225 1
2 0 -5 5284.53 156.719 2
-2 0 5 5369.67 157.447 2
1 0 -5 104.882 5.36265 1
1 0 -5 96.5793 9.0002 2
-1 0 5 103.01 5.43171 1
0 0 -5 2093.9 68.8642 2
0 0 5 2110.85 68.3348 2
0 0 5 2134.64 62.7377 1
-1 0 -5 722.046 30.4685 2
1 0 5 718.63 29.1343 2
1 0 5 737.401 27.0042 1
-2 0 -5 1053.17 40.9309 2
-2 0 -5 986.693 40.5792 3
2 0 5 1010.47 37.8542 2
2 0 5 951.259 38.3674 1
-3 0 -5 1173.87 47.5102 3
-3 0 -5 1172.54 46.5131 2
3 0 5 1148.67 48.0755 1
3 0 5 1135.71 43.1671 2
-4 0 -5 183.672 17.637 2
-4 0 -5 160.897 17.177 3
4 0 5 168.505 22.0814 1
-5 0 -5 85.1928 14.7122 2
5 0 5 89.597 19.0071 1
-6 0 -5 33.2246 11.4188 2
6 0 5 6.08695 15.936 1
8 -1 -5 135.627 21.1715 3
7 -1 -5 72.1153 14.743 3
6 -1 -5 745.365 35.9673 3
-6 1 5 721.866 42.5298 3
5 -1 -5 1010.22 42.0837 3
5 -1 -5 1008.53 31.3864 2
-5 1 5 966.175 46.5098 3
4 -1 -5 1232.51 47.2873 3
4 -1 -5 1238.15 40.1068 2
-4 1 5 1265.47 41.2407 2
-4 1 5 1146.03 49.3703 3
3 -1 -5 45.067 6.63944 2
3 -1 -5 50.6756 8.96057 3
-3 1 5 50.3028 8.99228 3
-3 1 5 37.5058 6.1868 2
2 -1 -5 5987.63 180.264 3
2 -1 -5 6104.18 175.076 2
2 -1 -5 5679.82 170.174 1
-1 1 5 7573.75 222.434 2
0 -1 -5 1178.73 44.8381 2
0 1 5 1228.58 44.3323 2
0 1 5 1314.39 37.7473 1
-1 -1 -5 852.508 35.2251 2
-1 -1 -5 814.643 35.2942 3
1 1 5 882.977 30.9335 1
1 1 5 839.192 33.3558 2
-2 -1 -5 224.858 16.9612 2
-2 -1 -5 187.681 15.456 3
2 1 5 202.787 15.2261 2
-3 -1 -5 11.0136 8.42307 3
-3 -1 -5 3.16697 8.44523 2
-4 -1 -5 22.1107 9.96358 2
4 1 5 11.1769 10.7486 1
-5 -1 -5 16.3097 10.7723 2
5 1 5 25.8423 14.8277 1
8 -2 -5 61.1986 14.6833 3
7 -2 -5 37.7117 11.5381 3
-7 2 5 9.94111 21.4929 3
6 -2 -5 56.4694 12.2427 3
-6 2 5 56.0742 14.6211 3
5 -2 -5 35.8732 5.24614 2
5 -2 -5 38.5051 9.31246 3
-5 2 5 41.7207 10.6783 3
4 -2 -5 180.958 15.2611 3
4 -2 -5 216.582 12.0015 2
3 -2 -5 680.389 31.408 3
3 -2 -5 747.699 27.6939 2
-3 2 5 668.308 27.8997 2
2 -2 -5 1724.32 51.0554 1
2 -2 -5 1664.61 57.4461 2
-2 2 5 1703.35 57.298 2
1 -2 -5 50.9068 8.51209 2
-1 2 5 38.3138 7.40636 2
0 -2 -5 152.669 13.3666 2
0 2 5 136.631 6.84829 1
0 2 5 163.844 11.7877 2
0 2 5 137.101 6.61899 1
-1 -2 -5 334.53 20.4163 2
-1 -2 -5 291.678 19.1656 3
1 2 5 298.434 18.0817 2
1 2 5 320.579 15.0114 1
-2 -2 -5 224.266 19.1594 3
-2 -2 -5 212.585 17.9654 2
2 2 5 252.265 15.4598 1
-3 -2 -5 543.873 31.2765 2
3 2 5 609.899 28.6665 1
-4 -2 -5 578.262 32.8587 2
-5 -2 -5 40.9612 13.9163 2
5 2 5 41.5378 15.8299 1
8 -3 -5 27.6966 13.882 1
8 -3 -5 4.45647 11.0328 3
7 -3 -5 265.649 21.4127 3
7 -3 -5 222.413 24.3953 1
-7 3 5 221.609 24.2268 3
6 -3 -5 225.96 19.1465 3
6 -3 -5 239.914 10.0632 2
6 -3 -5 223.693 21.5651 1
-6 3 5 234.934 21.1346 3
5 -3 -5 1438.11 56.8232 1
5 -3 -5 1504.64 49.1865 2
5 -3 -5 1584.53 56.7294 3
4 -3 -5 437.524 23.6697 3
4 -3 -5 389.243 21.1152 1
4 -3 -5 435.445 19.8689 2
3 -3 -5 2376.56 78.6357 2
3 -3 -5 2593.09 76.4416 1
3 -3 -5 2401.88 83.4901 3
2 -3 -5 1623.9 55.7748 2
2 -3 -5 1566.3 47.6899 1
1 -3 -5 2891.23 93.7578 2
0 -3 -5 2436.04 86.9583 3
0 -3 -5 2670 87.477 2
0 3 5 2722.27 77.6262 1
-1 -3 -5 92.1998 13.353 2
1 3 5 88.1307 8.93325 1
-2 -3 -5 269.876 24.0589 3
-2 -3 -5 299.057 21.863 2
2 3 5 304.595 17.7681 1
-3 -3 -5 141.862 18.8488 2
3 3 5 138.662 15.6389 1
-4 -3 -5 291.943 28.8806 2
8 -4 -5 109.801 21.8847 1
8 -4 -5 139.122 18.2215 3
7 -4 -5 170.044 17.3168 3
7 -4 -5 119.924 19.4779 1
6 -4 -5 224.657 12.3198 2
6 -4 -5 197.554 20.1945 1
6 -4 -5 216.405 18.4583 3
5 -4 -5 325.919 17.4816 2
5 -4 -5 361.334 22.0775 3
5 -4 -5 353.656 22.3084 1
4 -4 -5 811.762 32.4441 2
4 -4 -5 850.049 37.3936 1
4 -4 -5 791.333 36.2327 3
3 -4 -5 203.777 11.6762 1
3 -4 -5 229.99 17.7154 3
3 -4 -5 201.838 15.0005 2
2 -4 -5 169.77 8.107 1
2 -4 -5 186.564 15.3262 2
1 -4 -5 44.0818 10.4047 2
-1 4 5 61.7561 4.41884 1
0 -4 -5 125.47 14.8117 3
0 -4 -5 128.199 15.5759 2
0 4 5 133.527 8.73419 1
-1 -4 -5 30.8246 10.1925 2
-1 -4 -5 16.7285 7.55818 3
-2 -4 -5 279.672 22.4388 2
2 4 5 261.984 18.3133 1
-3 -4 -5 224.525 26.9596 2
3 4 5 180.09 18.5498 1
-4 -4 -5 146.411 20.7566 2
8 -5 -5 8.27697 14.4318 1
8 -5 -5 6.0657 9.84682 3
7 -5 -5 24.5093 13.3008 1
7 -5 -5 1.46833 3.3549 2
7 -5 -5 5.90954 8.00868 3
7 -5 -5 2.00718 3.52938 2
6 -5 -5 335.441 21.5326 3
6 -5 -5 278.433 23.4596 1
5 -5 -5 339.358 21.3119 1
5 -5 -5 318.786 18.7739 2
5 -5 -5 346.433 21.276 3
4 -5 -5 69.3866 9.53511 1
4 -5 -5 68.2021 10.4221 2
4 -5 -5 67.3226 11.7443 3
3 -5 -5 213.199 12.3318 1
3 -5 -5 240.743 17.6147 2
2 -5 -5 2437.85 85.4304 2
2 -5 -5 2597.05 75.3541 1
1 -5 -5 597.54 30.2751 2
1 -5 -5 573.68 29.8984 3
-1 5 5 593.183 21.3921 1
0 -5 -5 510.995 28.4881 3
0 -5 -5 515.379 29.9418 2
0 5 5 504.309 21.2017 1
-1 -5 -5 381.385 26.4147 2
1 5 5 384.858 20.8872 1
-2 -5 -5 111.33 18.784 2
2 5 5 90.7721 13.8066 1
-3 -5 -5 118.467 19.1647 2
3 5 5 154.951 18.9351 1
-4 -5 -5 179.198 23.6969 2
8 -6 -5 105.503 22.7531 1
8 -6 -5 109.578 14.6928 3
7 -6 -5 166.152 12.0009 2
7 -6 -5 192.893 14.294 2
7 -6 -5 192.707 16.4064 3
7 -6 -5 199.122 22.4989 1
6 -6 -5 348.105 25.3232 1
6 -6 -5 349.025 20.4875 2
6 -6 -5 449.369 24.2964 3
5 -6 -5 1975.24 71.5162 3
5 -6 -5 2041.55 70.9869 1
5 -6 -5 1971.28 69.2606 2
4 -6 -5 720.351 34.3083 2
4 -6 -5 766.134 36.3353 3
4 -6 -5 722.728 30.4834 1
3 -6 -5 217.08 12.5136 1
3 -6 -5 189.403 17.7557 2
2 -6 -5 40.9615 5.58752 1
2 -6 -5 33.8324 10.0081 3
2 -6 -5 41.4705 11.1158 2
-2 6 5 35.3876 5.80352 1
1 -6 -5 735.801 35.2153 3
1 -6 -5 700.416 36.4742 2
-1 6 5 718.38 26.9684 1
0 -6 -5 8.72508 9.6093 2
0 6 5 6.41652 5.74839 1
-1 -6 -5 17.0798 10.5153 2
1 6 5 24.0128 8.32402 1
-2 -6 -5 23.7874 12.3211 2
2 6 5 51.1329 12.4604 1
-3 -6 -5 88.3568 16.874 2
8 -7 -5 -7.7914 11.7219 1
8 -7 -5 0.28755 6.29452 2
7 -7 -5 3.7329 7.22907 2
7 -7 -5 14.2787 12.4101 1
7 -7 -5 6.48716 6.16466 2
7 -7 -5 -9.1434 7.09647 3
6 -7 -5 13.5388 8.18498 2
6 -7 -5 3.87618 6.8581 3
6 -7 -5 -0.9619 7.48311 1
5 -7 -5 7.03591 7.20885 1
5 -7 -5 -1.4649 7.10183 2
5 -7 -5 7.99988 7.52451 3
4 -7 -5 139.457 17.2013 2
4 -7 -5 120.888 12.4997 1
4 -7 -5 150.919 17.2111 3
3 -7 -5 2.5228 4.77195 1
3 -7 -5 11.2999 9.54995 2
3 -7 -5 3.79588 6.88451 3
2 -7 -5 262.735 22.9377 2
2 -7 -5 287.834 14.1093 1
2 -7 -5 270.253 20.8016 3
-2 7 5 303.024 15.8234 1
1 -7 -5 1028.64 47.0618 2
-1 7 5 928.893 35.6931 1
0 -7 -5 53.2297 13.9467 2
0 7 5 64.6104 9.80619 1
-1 -7 -5 374.684 29.3268 2
1 7 5 423.675 25.106 1
-2 -7 -5 61.0978 16.0432 2
2 7 5 23.4227 12.613 1
7 -8 -5 121.796 14.2127 2
7 -8 -5 98.6406 13.4207 3
7 -8 -5 113.246 18.8005 1
6 -8 -5 196.734 17.6239 3
6 -8 -5 192.734 18.978 1
6 -8 -5 216.342 19.9739 2
5 -8 -5 525.939 30.6308 2
5 -8 -5 543.728 30.76 3
5 -8 -5 579.452 29.1302 1
4 -8 -5 882.396 35.3384 1
4 -8 -5 834.052 38.7618 3
3 -8 -5 99.4139 10.8124 1
3 -8 -5 77.4147 13.9188 3
3 -8 -5 81.2354 16.0054 2
-3 8 5 85.1598 10.8102 1
2 -8 -5 18.5829 5.74402 1
2 -8 -5 12.6227 9.4523 2
-2 8 5 10.3365 6.58078 1
1 -8 -5 464.591 32.5828 2
-1 8 5 458.443 23.0993 1
0 -8 -5 628.959 37.5217 2
0 8 5 512.618 27.3981 1
-1 -8 -5 35.9107 14.6033 2
1 8 5 14.6956 11.3857 1
7 -9 -5 51.0758 10.2701 3
7 -9 -5 36.3339 13.5624 1
7 -9 -5 65.1749 13.0842 2
6 -9 -5 21.4258 11.1438 2
6 -9 -5 18.353 8.98009 3
5 -9 -5 63.8144 11.5509 1
5 -9 -5 52.9769 14.1375 3
5 -9 -5 91.1953 16.9877 2
5 -9 -5 62.2628 13.3731 3
4 -9 -5 143.62 13.3454 1
4 -9 -5 160.063 16.3425 3
4 -9 -5 141.021 19.9805 2
3 -9 -5 184.313 23.2662 2
3 -9 -5 204.981 13.9514 1
-3 9 5 159.295 15.1347 1
2 -9 -5 97.5067 10.7374 1
2 -9 -5 168.351 23.1298 2
-2 9 5 84.6089 11.6459 1
1 -9 -5 237.564 25.6244 2
-1 9 5 214.906 16.9723 1
0 -9 -5 43.871 16.1068 2
0 9 5 31.8652 12.0814 1
-1 -9 -5 14.3601 13.3043 2
7 -10 -5 30.2591 8.96749 3
7 -10 -5 3.3922 11.2025 1
7 -10 -5 38.2433 12.8544 2
6 -10 -5 26.0811 10.3269 3
6 -10 -5 30.4264 10.7216 3
6 -10 -5 49.8063 12.8816 1
6 -10 -5 40.6408 12.8501 2
5 -10 -5 20.1977 10.4405 3
5 -10 -5 56.2167 13.3239 3
5 -10 -5 33.5452 10.6802 1
5 -10 -5 57.6977 15.9838 2
4 -10 -5 72.5895 17.0633 2
4 -10 -5 71.9299 11.3549 1
3 -10 -5 45.3658 8.60895 1
3 -10 -5 33.8119 15.6399 2
-3 10 5 27.5777 9.30665 1
2 -10 -5 34.2954 15.4594 2
2 -10 -5 24.2579 7.476 1
-2 10 5 41.8066 11.1414 1
-1 10 5 146.126 16.5125 1
0 -10 -5 297.243 30.5325 2
6 -11 -5 133.234 16.4807 3
6 -11 -5 85.7027 17.934 2
6 -11 -5 71.5721 14.2497 1
5 -11 -5 20.5433 11.8531 3
5 -11 -5 18.6786 13.582 2
5 -11 -5 13.4384 9.66949 1
4 -11 -5 36.884 10.2516 1
4 -11 -5 25.9203 14.3916 2
3 -11 -5 18.2297 15.5264 2
3 -11 -5 29.1994 8.76198 1
-3 11 5 8.75082 11.2201 1
2 -11 -5 4.88829 6.77648 1
2 -11 -5 16.9052 15.0042 2
-2 11 5 -4.7921 13.4616 1
0 14 -6 161.486 36.2417 3
0 -14 6 161.924 21.7585 1
-1 14 -6 23.1964 15.4229 3
1 -14 6 18.5543 12.6224 1
-2 14 -6 37.8219 12.8731 3
2 -14 6 43.6554 15.0092 1
2 -14 6 57.2158 15.5092 3
3 -14 6 107.993 18.9547 1
1 13 -6 9.81535 14.8843 3
-1 -13 6 -8.2451 10.821 1
0 13 -6 19.3381 16.9069 3
0 -13 6 34.064 15.2577 1
-1 13 -6 23.2162 13.733 3
1 -13 6 36.9276 12.4231 3
1 -13 6 16.6211 11.6201 1
-2 13 -6 153.851 17.8178 3
2 -13 6 158.949 20.9412 1
2 -13 6 149.941 17.4386 3
3 -13 6 97.1307 17.6914 1
4 -13 6 24.5402 14.1919 1
5 -13 6 19.9223 16.715 1
2 12 -6 -4.0647 15.622 3
-2 -12 6 -6.3734 11.0363 1
1 12 -6 155.658 25.2473 3
-1 -12 6 215.382 21.8984 1
0 -12 6 316.893 24.7846 1
-1 12 -6 187.834 21.4315 3
1 -12 6 184.702 20.3098 1
-2 12 -6 70.3804 12.767 3
2 -12 6 91.7793 13.2518 3
2 -12 6 94.7431 16.5052 1
3 -12 6 709.624 39.9433 1
4 -12 6 333.045 29.2845 1
5 -12 6 284.57 29.0562 1
3 11 -6 182.436 34.7326 3
2 11 -6 63.8242 20.3158 3
-2 -11 6 62.1205 14.5019 1
1 11 -6 41.2024 14.447 3
-1 -11 6 13.031 10.5586 1
0 11 -6 197.809 21.3968 3
0 -11 6 186.104 19.3202 1
0 -11 6 195.081 20.4337 3
-1 11 -6 62.3269 13.1834 3
1 -11 6 53.3287 11.6451 3
1 -11 6 62.7848 13.284 1
2 -11 6 25.0326 7.58339 3
2 -11 6 29.6143 11.1999 1
3 -11 6 21.3915 12.158 1
4 -11 6 1.75653 11.4832 1
5 -11 6 28.0566 14.7184 1
6 -11 6 24.6767 14.8911 1
4 10 -6 -18.534 13.5788 3
3 10 -6 5.87873 11.4829 3
2 10 -6 27.489 14.3098 3
-2 -10 6 23.1573 11.1513 1
1 10 -6 169.822 21.3858 3
-1 -10 6 173.004 17.971 1
0 10 -6 732.636 37.6224 3
0 -10 6 659.243 38.4289 3
0 -10 6 716.619 35.1457 1
-1 10 -6 344.192 22.7481 3
1 -10 6 346.757 24.2504 1
1 -10 6 355.044 23.0144 3
-2 10 -6 468.443 23.5861 3
2 -10 6 503.77 29.6104 1
-3 10 -6 347.999 13.0365 3
3 -10 6 385.161 27.2484 1
4 -10 6 935.196 47.5604 1
5 -10 6 204.448 25.3746 1
6 -10 6 41.2316 17.325 1
4 9 -6 58.3394 19.4029 3
3 9 -6 435.878 33.7799 3
-3 -9 6 356.478 26.6396 1
2 9 -6 375.998 28.984 3
-2 -9 6 382.367 24.9381 1
1 9 -6 160.649 18.4599 3
-1 -9 6 113.21 18.6844 3
0 9 -6 1218.17 62.8427 1
0 9 -6 1398.24 54.654 3
0 -9 6 1380.65 55.9574 3
0 -9 6 1364.4 53.2362 1
0 -9 6 1396.04 57.8329 2
-1 9 -6 1542.3 55.7738 3
-1 9 -6 1583.88 62.042 1
1 -9 6 1478.11 60.0502 2
1 -9 6 1484.95 58.0311 1
1 -9 6 1482.37 56.3019 3
-2 9 -6 449.976 21.5115 3
2 -9 6 427.487 25.8846 1
2 -9 6 427.331 26.783 2
-3 9 -6 291.107 11.8882 3
3 -9 6 269.408 22.5476 1
4 -9 6 212.243 21.9937 1
5 -9 6 243.487 26.2189 1
6 -9 6 16.0937 13.1104 1
5 8 -6 5.30298 14.8389 3
4 8 -6 20.6421 12.3428 3
-4 -8 6 37.9261 11.6178 2
3 8 -6 -15.799 9.75886 3
-3 -8 6 -7.5691 8.53494 1
-3 -8 6 3.21138 8.18861 2
2 8 -6 79.5726 15.041 3
-2 -8 6 75.9545 13.7609 2
-2 -8 6 57.4277 11.8731 1
-2 -8 6 61.4187 15.517 3
1 8 -6 125.871 16.7118 1
1 8 -6 81.9312 13.6167 3
-1 -8 6 98.7855 13.2127 1
-1 -8 6 119.594 16.006 2
-1 -8 6 101.127 15.7721 3
0 8 -6 213.394 17.7933 3
0 8 -6 239.097 18.8624 1
0 -8 6 197.172 17.3318 3
0 -8 6 195.706 17.7369 2
0 -8 6 231.184 17.6814 1
-1 8 -6 32.4215 9.73448 2
-1 8 -6 38.7025 8.65004 3
-1 8 -6 58.2882 11.7651 1
1 -8 6 37.608 8.1553 3
1 -8 6 55.0741 11.5388 2
1 -8 6 33.4051 8.37902 1
-2 8 -6 174.533 17.0208 2
-2 8 -6 118.206 15.4728 1
-2 8 -6 151.521 11.5487 3
2 -8 6 144.778 15.1639 2
2 -8 6 144.738 15.6947 1
-3 8 -6 606.497 31.5807 2
-3 8 -6 544.425 20.8297 3
3 -8 6 538.224 31.4449 1
3 -8 6 558.943 29.6246 2
-4 8 -6 406.383 26.5021 2
4 -8 6 445.337 24.7134 2
4 -8 6 398.594 28.8593 1
-5 8 -6 256.523 22.0545 2
5 -8 6 271.159 26.1162 1
5 -8 6 213.977 18.6539 2
6 -8 6 156.484 19.1234 2
6 -8 6 154.772 28.5405 1
5 7 -6 2.74571 13.7532 3
4 7 -6 44.0433 14.9943 3
-3 -7 6 146.312 17.5211 2
-3 -7 6 166.118 18.1034 1
2 7 -6 787.779 40.0107 1
2 7 -6 817.104 39.0837 3
-2 -7 6 765.22 42.5151 3
-2 -7 6 860.975 38.8538 2
-2 -7 6 826.799 35.8672 1
1 7 -6 1042.12 42.7944 3
1 7 -6 981.17 44.1387 1
-1 -7 6 976.246 45.1732 3
-1 -7 6 1012.56 43.3257 2
-1 -7 6 1031.54 40.5408 1
0 7 -6 1664.84 57.0536 3
0 7 -6 1534.69 56.5773 2
0 7 -6 1509.3 59.0456 1
0 -7 6 1529.51 58.5983 2
0 -7 6 1504.67 57.9854 3
0 -7 6 1643.87 57.0906 1
-1 7 -6 2510.92 86.7832 2
-1 7 -6 2594.28 83.5085 3
-1 7 -6 2630.95 88.5655 1
1 -7 6 2540.77 86.2951 1
1 -7 6 2676.08 88.1679 2
-2 7 -6 1919.19 61.192 3
-2 7 -6 1879.44 68.7907 1
-2 7 -6 1794.92 66.8812 2
2 -7 6 1835.99 67.448 1
2 -7 6 1873.73 66.4101 2
-3 7 -6 870.391 31.5904 3
-3 7 -6 906.911 39.9199 2
-3 7 -6 876.922 40.0862 1
3 -7 6 885.089 41.3116 1
3 -7 6 852.737 41.7113 2
-4 7 -6 1235.87 51.1289 2
-4 7 -6 1216.36 41.0354 3
-4 7 -6 1301.61 40.1349 3
4 -7 6 1184.38 47.7999 2
4 -7 6 1206.79 54.5643 1
-5 7 -6 372.976 16.9371 3
-5 7 -6 386.876 16.5746 3
-5 7 -6 393.918 25.6095 2
5 -7 6 428.331 32.4065 1
5 -7 6 325.239 21.2879 2
-6 7 -6 301.625 22.5677 2
-6 7 -6 283.638 14.9946 3
-6 7 -6 289.409 15.3643 3
6 -7 6 287.952 30.5879 1
6 -7 6 297.665 19.32 2
6 6 -6 3.54836 14.1696 3
-6 -6 6 28.2007 9.73101 2
5 6 -6 492.866 35.3326 3
-5 -6 6 498.565 26.5468 2
4 6 -6 16.8678 11.9945 3
-4 -6 6 12.0644 8.06941 2
3 6 -6 68.078 13.9018 3
3 6 -6 59.0203 13.61 1
-3 -6 6 51.7043 14.8644 3
-3 -6 6 64.2548 11.9672 2
-3 -6 6 74.4561 12.6101 1
2 6 -6 37.7701 10.7286 1
2 6 -6 35.4974 10.0017 3
-2 -6 6 34.4978 10.6586 3
-2 -6 6 29.6059 9.14498 2
-2 -6 6 46.2956 8.84531 1
1 6 -6 502.47 25.7757 3
1 6 -6 496.801 24.2013 2
1 6 -6 426.287 25.1965 1
-1 -6 6 477.751 25.6663 2
-1 -6 6 480.448 27.3098 3
-1 -6 6 521.769 24.165 1
0 6 -6 16.8129 7.24397 2
0 6 -6 19.5742 6.90131 1
0 6 -6 17.4553 6.48359 3
0 -6 6 24.0199 7.9105 2
0 -6 6 17.8292 6.78656 3
0 -6 6 4.72378 5.50081 1
-1 6 -6 74.8242 9.82569 3
-1 6 -6 65.4055 10.4777 2
-1 6 -6 73.3461 10.8446 1
1 -6 6 67.525 10.8444 2
1 -6 6 70.3093 10.5264 1
-2 6 -6 301.39 16.3595 3
-2 6 -6 287.997 19.5701 2
-2 6 -6 259.697 18.4833 1
2 -6 6 274.824 18.3311 2
2 -6 6 289.843 19.5883 1
-3 6 -6 192.421 17.1517 2
-3 6 -6 191.702 12.1324 3
-3 6 -6 211.234 16.9687 1
-3 6 -6 225.05 13.8814 3
3 -6 6 223.082 16.9672 2
3 -6 6 181.561 17.9241 1
-4 6 -6 116.584 10.5068 3
-4 6 -6 138.939 12.0991 3
-4 6 -6 120.057 15.1946 2
4 -6 6 120.633 12.7567 2
4 -6 6 112.002 17.0917 1
-5 6 -6 14.695 7.55885 3
-5 6 -6 14.4128 9.22728 2
5 -6 6 15.4185 13.5087 1
-6 6 -6 75.5771 13.4734 2
-6 6 -6 69.7422 11.4741 3
6 -6 6 66.4267 20.2433 1
6 -6 6 62.4244 10.2316 2
6 5 -6 66.3617 18.2082 3
-6 -5 6 54.9072 9.11896 2
5 5 -6 22.7399 12.4261 3
-5 -5 6 10.058 7.10104 2
4 5 -6 68.0126 14.9152 3
-4 -5 6 80.0943 11.7278 2
3 5 -6 471.339 31.5145 1
3 5 -6 486.314 28.034 3
-3 -5 6 465.061 31.9871 3
-3 -5 6 460.685 24.4702 2
2 5 -6 309.795 19.8838 1
2 5 -6 285.373 16.6186 2
2 5 -6 290.324 19.9093 3
-2 -5 6 275.438 18.3017 2
-2 -5 6 261.48 16.9602 1
-2 -5 6 274.058 21.4298 3
1 5 -6 1340.92 48.9188 3
1 5 -6 1266.53 46.119 2
1 5 -6 1256.9 47.9789 1
-1 -5 6 1254.61 50.383 3
-1 -5 6 1276.17 48.3552 2
-1 -5 6 1315.45 45.9809 1
0 5 -6 727.147 31.111 1
0 5 -6 731.727 31.0631 3
0 5 -6 790.493 31.7656 2
0 -5 6 764.824 30.377 1
0 -5 6 680.158 31.3038 3
0 -5 6 729.803 31.7803 2
-1 5 -6 2421.42 81.4155 2
-1 5 -6 2471.26 81.1188 1
-1 5 -6 2494.13 80.2627 3
1 -5 6 2459.45 80.7154 1
1 -5 6 2463.6 81.3799 2
-2 5 -6 739.078 32.5143 1
-2 5 -6 730.729 30.9417 3
-2 5 -6 758.07 33.2682 2
2 -5 6 788.926 32.4839 2
2 -5 6 742.2 33.496 1
-3 5 -6 1246.12 48.9508 3
-3 5 -6 1271.91 50.132 2
-3 5 -6 1342.66 50.7465 1
3 -5 6 1295.84 48.2019 2
3 -5 6 1363.11 53.4089 1
-4 5 -6 2332.41 80.3023 2
-4 5 -6 2347.73 74.4028 3
4 -5 6 2202.12 84.4044 1
4 -5 6 2229.24 75.9534 2
-5 5 -6 697.412 34.3462 2
-5 5 -6 732.801 31.8062 3
5 -5 6 720.961 31.6272 2
5 -5 6 716.228 42.1241 1
-6 5 -6 318.545 22.9034 2
-6 5 -6 369.894 23.6005 3
6 -5 6 367.388 34.7753 1
7 4 -6 114.219 22.4974 3
6 4 -6 16.4959 13.7024 3
-6 -4 6 41.9128 7.26777 2
5 4 -6 794.948 41.3248 3
-5 -4 6 777.946 31.8421 2
4 4 -6 1658.44 63.4438 3
4 4 -6 1669.19 62.3265 1
-4 -4 6 1593.38 56.5405 2
-4 -4 6 1503.3 69.2187 3
3 4 -6 141.247 14.2995 1
3 4 -6 180.337 11.8898 2
3 4 -6 160.9 16.1094 3
-3 -4 6 162.83 13.0614 2
-3 -4 6 145.293 18.2745 3
2 4 -6 931.178 38.1732 1
2 4 -6 1001.77 40.2654 3
2 4 -6 962.696 35.7161 2
-2 -4 6 956.088 37.7061 2
-2 -4 6 948.924 42.5909 3
-2 -4 6 921.311 36.0846 1
1 4 -6 763.922 32.8019 3
1 4 -6 815.719 31.1742 2
1 4 -6 765.043 31.1372 1
-1 -4 6 753.185 31.821 2
-1 -4 6 724.106 33.7017 3
0 4 -6 1669.47 57.0672 1
0 4 -6 1709.86 58.152 2
0 4 -6 1661.8 58.9592 3
0 -4 6 1720.46 58.7245 2
0 -4 6 1681.31 56.2227 1
-1 4 -6 640.075 28.132 3
-1 4 -6 643.538 28.4709 2
-1 4 -6 606.286 26.5983 1
1 -4 6 619.967 27.5953 2
1 -4 6 629.905 30.1454 1
-2 4 -6 662.372 30.5653 2
-2 4 -6 710.291 29.7932 1
2 -4 6 637.704 28.72 2
2 -4 6 663.16 30.1703 1
-3 4 -6 47.9116 8.68854 3
-3 4 -6 38.107 9.57843 2
3 -4 6 35.8226 8.20357 2
3 -4 6 44.4446 10.5982 1
-4 4 -6 175.007 14.853 3
-4 4 -6 166.62 16.8231 2
4 -4 6 215.222 20.5407 1
4 -4 6 173.384 13.9126 2
-5 4 -6 129.015 16.1366 2
-5 4 -6 142.051 15.0585 3
5 -4 6 154.417 23.0077 1
5 -4 6 179.769 14.3381 2
-6 4 -6 20.2353 10.2357 2
-6 4 -6 38.1199 12.5976 3
6 -4 6 16.5034 8.31988 2
6 -4 6 17.7519 15.4455 1
7 3 -6 51.7617 17.3039 3
6 3 -6 22.9982 13.2075 3
-6 -3 6 38.6365 5.28265 2
5 3 -6 42.4299 14.7777 3
-5 -3 6 63.824 8.71201 2
4 3 -6 255.472 20.4968 3
4 3 -6 244.655 13.4371 2
-4 -3 6 248.661 23.3037 3
-4 -3 6 253.811 16.0598 2
3 3 -6 1021.78 41.0063 1
3 3 -6 1100.02 43.7716 3
3 3 -6 1068.23 37.0957 2
-3 -3 6 981.216 46.3868 3
-3 -3 6 1001.87 39.0306 2
2 3 -6 1203.37 44.3055 1
2 3 -6 1200.74 47.059 3
2 3 -6 1216.26 46.0445 2
-2 -3 6 1173.61 49.1262 3
-2 -3 6 1330.24 45.36 2
1 3 -6 101.852 10.0646 2
1 3 -6 118.917 11.7892 3
1 3 -6 113.706 9.66535 1
-1 -3 6 111.805 10.5125 2
-1 -3 6 104.494 11.1833 3
-1 -3 6 131.387 9.25469 1
0 3 -6 776.389 29.1137 1
0 3 -6 751.247 31.1367 2
0 3 -6 770.859 32.6445 3
0 -3 6 767.213 28.514 1
0 -3 6 735.374 30.8532 2
-1 3 -6 393.544 18.8736 1
-1 3 -6 413.118 21.5293 2
1 -3 6 380.156 19.9386 2
1 -3 6 404.518 19.6726 1
-2 3 -6 576.623 28.5767 2
2 -3 6 648.181 28.6463 1
2 -3 6 633.673 27.3721 2
-3 3 -6 670.529 32.0052 2
-3 3 -6 652.259 29.6754 3
3 -3 6 649.783 28.9309 2
3 -3 6 615.743 32.2123 1
-4 3 -6 726.897 33.4552 3
-4 3 -6 692.623 34.6476 2
4 -3 6 724.456 39.2131 1
4 -3 6 765.662 31.8119 2
-5 3 -6 475.135 27.4019 2
-5 3 -6 499.322 27.8662 3
5 -3 6 417.954 33.1897 1
5 -3 6 461.384 24.1882 2
-6 3 -6 45.1634 11.6443 2
6 -3 6 59.1916 20.1134 1
7 2 -6 13.55 13.0087 3
6 2 -6 340.708 26.7571 3
5 2 -6 650.937 32.4144 1
5 2 -6 651.171 34.597 3
-5 -2 6 672.019 25.7687 2
-5 -2 6 621.394 40.2919 3
4 2 -6 3052.55 100.026 3
4 2 -6 3037.39 96.9759 1
4 2 -6 2925.77 89.7177 2
-4 -2 6 2774.3 104.964 3
-4 -2 6 2984.24 92.3144 2
3 2 -6 1224.49 44.2873 1
3 2 -6 1212.59 41.2531 2
3 2 -6 1239.56 47.5999 3
-3 -2 6 1130.06 50.1065 3
-3 -2 6 1203.15 46.7641 2
2 2 -6 583.075 23.6742 2
2 2 -6 567.444 23.6032 1
2 2 -6 538.546 26.477 3
-2 -2 6 554.882 23.2024 1
-2 -2 6 502.424 27.5046 3
-2 -2 6 565.486 24.5103 2
1 2 -6 4882.37 141.962 1
-1 -2 6 4752.88 145.325 2
-1 -2 6 4775.14 141.047 1
0 2 -6 872.05 36.8506 3
0 2 -6 873.962 30.7781 1
0 2 -6 889.393 34.73 2
0 -2 6 888.158 34.1999 2
0 -2 6 855.903 30.5042 1
-1 2 -6 4517.66 133.727 1
-1 2 -6 4337.97 137.894 2
1 -2 6 4464.52 136.691 2
1 -2 6 4584.68 134.853 1
-2 2 -6 1109.97 43.9194 2
2 -2 6 1077.75 41.4242 2
2 -2 6 1131.16 42.6426 1
-3 2 -6 1034.05 41.973 2
-3 2 -6 937.257 39.4738 3
3 -2 6 926.018 41.2951 1
3 -2 6 904.209 36.9568 2
-4 2 -6 415.209 26.5909 2
-4 2 -6 463.624 26.807 3
4 -2 6 480.944 24.0482 2
4 -2 6 433.291 29.897 1
-5 2 -6 625.631 33.2592 2
5 -2 6 592.911 40.0348 1
-6 2 -6 178.097 18.4152 2
6 -2 6 214.316 30.0997 1
7 1 -6 15.1219 12.4488 3
6 1 -6 80.9515 15.2603 3
5 1 -6 418.019 24.6744 1
5 1 -6 433.604 16.8268 2
5 1 -6 414.999 26.6932 3
-5 -1 6 394.313 30.7951 3
-5 -1 6 459.05 18.7157 2
4 1 -6 468.501 26.1287 3
4 1 -6 443.779 23.1098 1
4 1 -6 465.661 19.124 2
-4 -1 6 452.741 29.2245 3
-4 -1 6 453.668 20.7432 2
3 1 -6 2127.38 74.3731 3
3 1 -6 2199.06 69.5661 1
3 1 -6 2153.74 67.9869 2
-3 -1 6 2084.4 76.9336 3
2 1 -6 364.562 17.8821 2
2 1 -6 365.899 21.3397 3
2 1 -6 355.69 16.0238 1
-2 -1 6 345.62 21.2507 3
-2 -1 6 375.828 18.5012 2
1 1 -6 247.603 16.8641 3
1 1 -6 241.799 17.2147 2
1 1 -6 241.842 11.1848 1
-1 -1 6 251.677 14.8792 2
-1 -1 6 249.621 11.0278 1
0 1 -6 162.971 8.8575 1
0 1 -6 169.414 13.2932 2
0 -1 6 175.444 9.17499 1
0 -1 6 179.762 12.9127 2
-1 1 -6 124.549 12.6335 2
1 -1 6 116.801 9.34083 1
1 -1 6 117.031 11.0459 2
-2 1 -6 133.4 13.9252 2
-2 1 -6 86.8544 12.3991 3
2 -1 6 134.826 12.7756 1
2 -1 6 124.309 11.8204 2
-3 1 -6 80.5803 12.9311 2
-3 1 -6 76.3004 12.7717 3
3 -1 6 77.1637 11.321 2
3 -1 6 92.0668 13.5245 1
-4 1 -6 32.3957 11.0158 2
-4 1 -6 31.6061 10.2538 3
4 -1 6 44.4049 13.6036 1
4 -1 6 28.273 10.3572 2
-5 1 -6 21.775 11.4951 2
5 -1 6 30.2327 13.6014 1
8 0 -6 -3.4976 13.6781 3
7 0 -6 11.3782 11.367 3
6 0 -6 177.118 19.0624 3
5 0 -6 446.846 26.8987 3
5 0 -6 448.331 17.7013 2
-5 0 6 471.85 19.3231 2
4 0 -6 483.923 26.331 3
4 0 -6 481.289 19.8416 2
4 0 -6 437.267 22.2373 1
-4 0 6 456.633 27.7886 3
-4 0 6 474.171 21.1799 2
3 0 -6 870.178 31.699 2
3 0 -6 825.186 31.2998 1
3 0 -6 883.924 37.2633 3
-3 0 6 780.129 37.2996 3
-3 0 6 830.405 32.4421 2
2 0 -6 888.158 29.4069 1
2 0 -6 827.941 33.4519 2
2 0 -6 895.518 38.0183 3
-2 0 6 886.27 33.863 2
1 0 -6 1275.56 38.5438 1
1 0 -6 1280.95 45.9853 2
-1 0 6 1272.66 45.7631 2
0 0 -6 5963.62 181.708 2
0 0 6 6095 173.455 1
0 0 6 6045.8 180.826 2
-1 0 -6 3108.28 99.4363 2
1 0 6 3033.32 97.2238 2
1 0 6 3006.06 93.1199 1
-2 0 -6 2451.28 84.3396 2
-2 0 -6 2444 84.4183 3
2 0 6 2475.13 81.1319 2
2 0 6 2454.89 86.5485 1
-3 0 -6 739.909 36.3986 2
-3 0 -6 713.697 35.8838 3
3 0 6 727.757 35.4556 1
3 0 6 704.929 31.6619 2
-4 0 -6 634.494 33.6611 2
4 0 6 559.241 35.9637 1
-5 0 -6 289.479 25.5461 2
5 0 6 340.427 31.8489 1
8 -1 -6 69.1907 17.1309 3
7 -1 -6 62.0282 13.9469 3
6 -1 -6 27.2305 11.3157 3
-6 1 6 37.2006 14.5408 3
5 -1 -6 573.528 21.6163 2
5 -1 -6 574.839 30.2699 3
-5 1 6 530.837 32.6319 3
4 -1 -6 3248.89 97.3935 2
4 -1 -6 3229.99 105.323 3
-4 1 6 3056.92 107.534 3
3 -1 -6 516.91 22.6849 2
3 -1 -6 556.626 27.9778 3
3 -1 -6 521.468 21.0701 1
-3 1 6 492.696 23.432 2
2 -1 -6 1205.37 43.3858 2
2 -1 -6 1257.46 49.0862 3
2 -1 -6 1179 36.9174 1
-2 1 6 1170.89 43.5956 2
1 -1 -6 829.964 33.6184 2
-1 1 6 803.993 32.9499 2
0 -1 -6 156.079 12.8938 2
0 1 6 155.303 12.9977 2
0 1 6 157.417 7.02356 1
-1 -1 -6 623.145 31.1989 3
-1 -1 -6 748.188 33.1583 2
1 1 6 735.095 30.7898 2
1 1 6 671.485 26.3927 1
-2 -1 -6 217.352 18.6596 3
-2 -1 -6 198.318 18.8243 2
2 1 6 204.221 15.5373 1
2 1 6 191.003 15.395 2
-3 -1 -6 531.624 30.5917 2
3 1 6 545.655 31.0863 1
-4 -1 -6 6.54818 10.9681 2
4 1 6 -4.4218 10.4397 1
5 1 6 35.0086 16.2121 1
8 -2 -6 6.69984 10.2194 3
7 -2 -6 95.2306 18.8416 3
6 -2 -6 58.0552 5.60885 2
6 -2 -6 59.5729 12.6058 3
-6 2 6 65.6135 15.6914 3
5 -2 -6 985.122 42.2887 3
5 -2 -6 955.592 34.2482 2
-5 2 6 969.058 45.4049 3
4 -2 -6 27.1043 8.95539 3
4 -2 -6 34.9654 7.13554 2
-4 2 6 29.753 7.14598 2
3 -2 -6 544.938 28.7248 3
3 -2 -6 501.93 23.7225 2
-3 2 6 564.445 25.0847 2
2 -2 -6 1238.08 37.9089 1
2 -2 -6 1334.98 47.5047 2
2 -2 -6 1345.3 37.9179 1
-2 2 6 1241.93 46.9452 2
1 -2 -6 408.027 22.039 2
-1 2 6 357.65 20.513 2
0 -2 -6 811.321 35.3451 2
0 2 6 806.964 25.1739 1
0 2 6 827.928 34.6143 2
0 2 6 797.309 24.8978 1
-1 -2 -6 1755.61 64.6297 2
-1 -2 -6 1539.54 64.4583 3
1 2 6 1888.92 56.0728 1
1 2 6 1777.3 57.1583 1
1 2 6 1724.16 61.8555 2
-2 -2 -6 1135.02 49.5165 2
2 2 6 1136.47 45.9224 1
2 2 6 1279.44 43.888 1
-3 -2 -6 296.44 23.5338 2
3 2 6 318.958 20.2855 1
3 2 6 315.347 23.6168 1
-4 -2 -6 77.669 16.2092 2
4 2 6 89.9607 18.0607 1
8 -3 -6 76.4544 14.1994 3
8 -3 -6 41.1428 15.7449 1
7 -3 -6 173.597 22.5595 1
7 -3 -6 202.65 20.3324 3
-7 3 6 146.842 22.0502 3
6 -3 -6 17.0997 9.11147 3
6 -3 -6 19.8556 5.21031 2
6 -3 -6 38.7284 11.9032 1
5 -3 -6 23.0003 6.58667 2
5 -3 -6 32.2895 10.1756 3
5 -3 -6 28.8733 9.26134 1
4 -3 -6 3761.6 112.767 1
4 -3 -6 3563.31 112.387 2
4 -3 -6 3559.51 118.699 3
3 -3 -6 1314.07 43.5828 1
3 -3 -6 1389.62 54.8641 3
3 -3 -6 1346.63 49.2576 2
2 -3 -6 934.43 37.461 2
-2 3 6 841.479 36.3068 2
1 -3 -6 2415.23 83.853 2
-1 3 6 2569.28 83.7673 2
0 -3 -6 1671.19 62.1019 2
0 3 6 1644.51 49.4834 1
0 3 6 1639.15 49.8295 1
-1 -3 -6 723.747 36.0715 3
-1 -3 -6 685.808 35.3963 2
1 3 6 719.696 27.5467 1
-2 -3 -6 946.708 45.4113 2
2 3 6 1043.12 39.4418 1
-3 -3 -6 321.325 25.4246 2
-4 -3 -6 29.9013 13.6381 2
4 3 6 10.9743 14.4963 1
8 -4 -6 26.8981 16.4129 1
8 -4 -6 46.0049 13.0654 3
7 -4 -6 202.584 19.5215 3
7 -4 -6 174.601 8.7214 2
7 -4 -6 184.75 8.74265 2
7 -4 -6 187.173 23.4278 1
6 -4 -6 288.189 21.2473 3
6 -4 -6 298.566 16.5294 2
6 -4 -6 281.321 22.4518 1
5 -4 -6 57.1008 10.9428 1
5 -4 -6 58.0214 9.5469 2
5 -4 -6 68.6257 12.4755 3
4 -4 -6 414.645 25.7772 3
4 -4 -6 414.528 20.6294 1
4 -4 -6 440.621 23.2158 2
3 -4 -6 1099.28 44.3288 2
3 -4 -6 1103.33 37.1819 1
3 -4 -6 1211.62 50.4402 3
2 -4 -6 389.902 23.4906 2
1 -4 -6 91.7301 13.881 2
0 -4 -6 122.632 16.0674 2
0 -4 -6 143.285 15.2135 3
0 4 6 149.771 8.43666 1
-1 -4 -6 59.3885 14.0267 2
1 4 6 62.8118 9.01352 1
-2 -4 -6 77.8955 16.1829 2
2 4 6 126.861 14.2305 1
-3 -4 -6 4.309 11.9855 2
3 4 6 2.49794 10.5009 1
-4 -4 -6 3.55948 12.7704 2
8 -5 -6 23.0561 11.1983 3
8 -5 -6 14.1973 13.1586 1
7 -5 -6 86.4395 13.9701 3
7 -5 -6 61.5332 15.3207 1
7 -5 -6 65.4014 8.23225 2
6 -5 -6 12.2285 8.89111 1
6 -5 -6 -3.9119 5.60093 2
6 -5 -6 8.97862 7.97254 3
5 -5 -6 175.022 15.2332 1
5 -5 -6 181.595 15.7949 2
5 -5 -6 171.711 17.0666 3
4 -5 -6 997.927 41.5296 2
4 -5 -6 1030.73 46.019 3
4 -5 -6 1014.33 37.7885 1
3 -5 -6 4056.52 118.307 1
3 -5 -6 3945.14 128.438 2
2 -5 -6 314.029 22.6059 2
2 -5 -6 321.41 11.1513 1
1 -5 -6 999.002 44.2515 3
1 -5 -6 1015.58 45.3317 2
-1 5 6 995.589 30.5609 1
0 -5 -6 1798.42 67.8809 2
0 5 6 1628.14 53.9227 1
-1 -5 -6 143.997 19.3635 2
1 5 6 132.492 12.4148 1
-2 -5 -6 205.314 22.7005 2
2 5 6 204.302 18.5625 1
-3 -5 -6 229.797 25.4713 2
3 5 6 284.585 29.0823 1
8 -6 -6 66.5781 18.3112 1
8 -6 -6 95.5456 14.6824 3
7 -6 -6 193.416 21.8391 1
7 -6 -6 201.613 19.4018 3
7 -6 -6 192.908 15.1081 2
6 -6 -6 83.9795 14.1232 3
6 -6 -6 86.5164 14.6791 1
6 -6 -6 78.3481 11.9478 2
5 -6 -6 80.099 13.2022 2
5 -6 -6 79.2601 11.5005 1
5 -6 -6 93.56 14.2746 3
4 -6 -6 43.8106 12.5131 3
4 -6 -6 56.2212 12.162 2
4 -6 -6 50.811 8.29559 1
3 -6 -6 76.1301 14.4227 2
3 -6 -6 105.261 8.3921 1
2 -6 -6 2007.19 60.4843 1
2 -6 -6 2111.83 76.9982 2
2 -6 -6 1988.04 74.3345 3
1 -6 -6 303.398 25.0312 2
-1 6 6 318.957 13.6744 1
0 -6 -6 547.205 33.5735 2
0 6 6 529.535 22.7908 1
-1 -6 -6 330.461 27.3748 2
1 6 6 307.589 19.8034 1
-2 -6 -6 42.3386 15.0111 2
2 6 6 15.6358 11.8808 1
8 -7 -6 34.7516 10.5727 3
8 -7 -6 35.69 16.5093 1
7 -7 -6 -9.0177 7.19728 2
7 -7 -6 -2.5184 10.5155 1
7 -7 -6 7.95338 8.5029 3
6 -7 -6 16.5612 9.09318 3
6 -7 -6 10.0615 9.22703 2
6 -7 -6 0.00829 8.46721 1
5 -7 -6 91.0373 12.4031 1
5 -7 -6 67.2103 14.2102 3
5 -7 -6 102.979 15.1188 2
4 -7 -6 295.627 25.433 3
4 -7 -6 332.133 19.8346 1
4 -7 -6 279.972 23.1764 2
3 -7 -6 924.585 32.1277 1
3 -7 -6 890.514 44.6389 2
2 -7 -6 1111.41 51.4005 2
2 -7 -6 1122.42 36.024 1
-2 7 6 1093.51 37.4264 1
1 -7 -6 16.0238 12.6669 2
-1 7 6 8.92623 4.76718 1
0 -7 -6 93.6126 18.1039 2
-1 -7 -6 81.5913 18.2155 2
1 7 6 56.6798 11.6552 1
-2 -7 -6 18.7836 14.5619 2
7 -8 -6 56.9681 11.9522 3
7 -8 -6 54.5171 15.0979 1
7 -8 -6 37.7938 11.1657 2
6 -8 -6 123.446 18.9009 2
6 -8 -6 117.043 16.4199 3
6 -8 -6 116.381 16.1908 1
5 -8 -6 183.553 20.0548 2
5 -8 -6 162.476 14.8343 1
5 -8 -6 149.945 19.1881 3
4 -8 -6 246.427 20.48 3
4 -8 -6 259.942 15.7354 1
4 -8 -6 257.513 24.2747 2
3 -8 -6 572.209 35.8807 2
3 -8 -6 602.03 23.5177 1
2 -8 -6 348.613 28.6315 2
-2 8 6 360.434 17.7128 1
1 -8 -6 981.88 50.3146 2
-1 8 6 969.56 38.2506 1
0 -8 -6 159.493 23.6774 2
0 8 6 164.825 15.4781 1
-1 -8 -6 120.428 24.7516 2
1 8 6 126.047 23.2767 1
7 -9 -6 36.5931 11.2094 3
7 -9 -6 40.8109 12.4572 2
7 -9 -6 42.3955 13.215 1
6 -9 -6 52.2519 12.1228 1
6 -9 -6 55.3536 13.7101 3
6 -9 -6 41.6795 12.5885 2
5 -9 -6 42.8403 9.44891 1
5 -9 -6 0.67443 12.4238 2
5 -9 -6 6.20781 10.7052 3
5 -9 -6 16.7442 9.23061 3
4 -9 -6 18.9863 12.9262 2
4 -9 -6 22.1881 7.39334 1
3 -9 -6 2.72341 11.8805 2
2 -9 -6 20.9935 14.7185 2
1 -9 -6 228.036 26.5774 2
-1 9 6 244.89 17.0873 1
0 -9 -6 47.3457 17.1141 2
6 -10 -6 75.2824 17.0017 3
6 -10 -6 60.1042 15.5499 2
6 -10 -6 59.2194 14.14 3
5 -10 -6 72.8737 11.9408 1
5 -10 -6 66.678 17.5165 3
5 -10 -6 78.2398 18.9254 2
4 -10 -6 138.241 13.7528 1
4 -10 -6 161.87 23.6285 2
3 -10 -6 224.004 27.8023 2
3 -10 -6 226.842 14.2591 1
2 -10 -6 72.6393 18.5932 2
-2 10 6 60.9378 11.1614 1
1 -10 -6 219.249 25.3463 2
5 -11 -6 211.851 26.8583 2
5 -11 -6 230.29 19.0962 1
5 -11 -6 230.483 25.3054 3
4 -11 -6 54.1272 9.2868 1
4 -11 -6 36.0747 17.1931 2
3 -11 -6 39.8891 8.72473 1
3 -11 -6 67.5196 19.2553 2
-1 14 -7 340.168 30.462 3
1 -14 7 289.248 26.8249 1
-2 14 -7 270.554 24.2404 3
2 -14 7 262.406 26.7206 1
3 -14 7 228.224 27.4313 1
1 13 -7 72.0467 22.4557 3
-1 -13 7 66.9074 15.7796 1
0 13 -7 10.521 14.8391 3
0 -13 7 20.1507 14.007 1
-1 13 -7 11.5093 12.4987 3
1 -13 7 5.2227 10.8234 1
1 -13 7 -13.353 10.1816 3
-2 13 -7 82.8958 14.0205 3
2 -13 7 43.7728 11.5344 3
2 -13 7 88.6601 16.4371 1
3 -13 7 12.7234 14.0597 1
4 -13 7 -8.2107 11.5185 1
2 12 -7 283.428 32.3248 3
-2 -12 7 273.966 25.2091 1
1 12 -7 102.025 20.4895 3
-1 -12 7 80.3132 16.1339 1
0 -12 7 325.549 26.2163 1
-1 12 -7 390.578 28.1932 3
1 -12 7 429.29 29.3242 1
-2 12 -7 470.438 26.3447 3
2 -12 7 448.338 30.9422 1
2 -12 7 398.801 24.2427 3
3 -12 7 272.567 25.1189 1
5 -12 7 54.7677 17.7393 1
2 11 -7 260.307 28.6744 3
-2 -11 7 252.258 23.7184 1
1 11 -7 357.051 30.8577 3
-1 -11 7 377.731 26.5184 1
0 11 -7 156.509 19.3702 3
0 -11 7 169.99 19.8288 1
0 -11 7 118.323 19.7595 3
-1 11 -7 356.305 24.6778 3
1 -11 7 357.919 24.4702 3
1 -11 7 353.327 24.5836 1
-2 11 -7 132.288 14.4801 3
2 -11 7 125.711 17.994 1
-3 11 -7 292.266 13.1465 3
3 -11 7 277.947 25.2513 1
4 -11 7 17.8138 12.1209 1
5 -11 7 71.2656 18.0203 1
4 10 -7 70.085 20.8346 3
3 10 -7 23.3197 15.9087 3
-3 -10 7 28.348 12.7942 1
2 10 -7 333.785 30.6554 3
-2 -10 7 331.311 24.9376 1
1 10 -7 98.0661 18.303 3
-1 -10 7 75.8473 14.1423 1
0 10 -7 166.34 19.6971 3
0 -10 7 208.109 19.1393 1
-1 10 -7 573.652 29.6252 3
1 -10 7 571.565 31.8824 1
1 -10 7 536.044 29.5467 3
-2 10 -7 452.177 23.6313 3
2 -10 7 461.557 29.1077 1
-3 10 -7 367.559 16.1597 3
3 -10 7 422.617 28.5256 1
4 -10 7 216.252 23.4389 1
5 -10 7 470.258 35.9319 1
4 9 -7 294.272 30.4691 3
3 9 -7 387.474 31.4056 3
-3 -9 7 371.168 27.4882 1
2 9 -7 648.519 37.2601 3
-2 -9 7 615.821 32.9782 1
1 9 -7 932.756 43.5221 3
-1 -9 7 908.361 46.9659 3
-1 -9 7 967.301 41.5638 1
0 9 -7 444.317 26.9246 3
0 -9 7 401.753 26.7408 3
0 -9 7 486.398 26.9795 1
-1 9 -7 640.049 33.9419 2
-1 9 -7 691.242 31.2726 3
1 -9 7 603.147 31.072 3
1 -9 7 651.353 33.4249 1
-2 9 -7 1234.4 45.9563 3
-2 9 -7 1329.25 55.0495 2
-3 9 -7 441.107 18.7409 3
3 -9 7 401.216 28.3366 1
-4 9 -7 247.431 22.6641 2
4 -9 7 294.696 24.3476 1
5 -9 7 294.228 28.8997 1
6 -9 7 159.496 25.0476 1
5 8 -7 -16.945 12.0498 3
4 8 -7 7.12135 12.9498 3
3 8 -7 46.4913 14.5109 3
-3 -8 7 55.1313 12.6164 2
-3 -8 7 43.8153 12.4667 1
2 8 -7 123.037 17.7269 3
-2 -8 7 161.543 27.3929 3
-2 -8 7 110.353 16.5536 2
1 8 -7 -2.6177 7.2862 3
1 8 -7 16.5669 9.21768 1
-1 -8 7 10.3584 8.45849 3
-1 -8 7 5.98853 5.9245 1
-1 -8 7 14.3542 9.60721 2
0 8 -7 13.7452 8.60686 1
0 8 -7 7.23156 7.23422 3
0 8 -7 24.6908 9.8512 2
0 -8 7 6.13149 8.23885 3
0 -8 7 10.1565 8.44243 2
0 -8 7 15.4557 8.22527 1
-1 8 -7 203.323 15.9995 3
-1 8 -7 191.063 16.9806 2
-1 8 -7 195.848 18.0215 1
1 -8 7 224.16 19.2331 2
1 -8 7 211.743 16.4761 3
1 -8 7 209.186 17.9373 1
-2 8 -7 160.124 15.8473 1
-2 8 -7 152.435 12.7967 3
-2 8 -7 168.657 17.8031 2
2 -8 7 208.177 18.1493 1
2 -8 7 146.769 15.8356 2
-3 8 -7 14.8692 9.90388 2
-3 8 -7 -4.1059 4.64614 3
3 -8 7 -0.5304 7.33336 2
-4 8 -7 312.383 13.5225 3
-4 8 -7 328.979 26.1168 2
-4 8 -7 295.134 14.0409 3
4 -8 7 270.339 25.1102 1
-5 8 -7 68.0022 17.2564 2
5 -8 7 28.3257 14.0225 1
6 -8 7 41.2923 18.5954 1
5 7 -7 7.67567 10.5696 3
-5 -7 7 2.20946 9.94885 2
4 7 -7 372.466 29.3383 3
-4 -7 7 345.022 24.5167 2
3 7 -7 687.363 39.2538 3
-3 -7 7 721.691 37.0248 2
-3 -7 7 787.2 36.6518 1
2 7 -7 644.244 35.085 1
2 7 -7 667.077 34.2322 3
-2 -7 7 633.46 30.4379 1
-2 -7 7 587.264 36.9178 3
1 7 -7 871.814 46.9077 1
1 7 -7 1033.8 42.2453 3
1 7 -7 952.267 39.7152 2
-1 -7 7 963.565 39.25 1
-1 -7 7 932.308 44.3689 3
0 7 -7 2093.34 71.9 3
0 7 -7 2146 75.0228 1
0 7 -7 1996.77 72.2219 2
0 -7 7 2006.64 73.7771 3
0 -7 7 2115.24 71.8595 1
-1 7 -7 1070.62 44.3817 2
-1 7 -7 1016.56 42.3043 3
-1 7 -7 1142.15 45.9449 1
1 -7 7 1087.44 45.6116 2
1 -7 7 1117.89 44.3956 1
-2 7 -7 2253.56 72.5984 3
-2 7 -7 2130.24 77.4605 1
-2 7 -7 2208.27 77.9155 2
2 -7 7 2141.36 76.5668 2
2 -7 7 2163.77 77.5683 1
-3 7 -7 853.222 41.6705 1
-3 7 -7 973.443 42.7288 2
-3 7 -7 912.192 35.7331 3
3 -7 7 946.543 43.6804 1
3 -7 7 949.148 40.3824 2
-4 7 -7 170.248 20.3263 2
-4 7 -7 183.732 12.4932 3
-4 7 -7 172.499 13.5641 3
4 -7 7 206.358 17.648 2
4 -7 7 145.517 20.4648 1
-5 7 -7 337.43 19.6742 3
-5 7 -7 389.817 26.6479 2
-5 7 -7 394.891 19.2869 3
5 -7 7 360.727 30.9268 1
-6 7 -7 73.6803 10.8592 3
6 -7 7 99.5849 22.0546 1
6 6 -7 248.784 28.5459 3
-6 -6 7 193.511 17.6249 2
5 6 -7 75.9986 18.4271 3
-5 -6 7 98.6542 13.768 2
4 6 -7 232.911 23.3198 3
-4 -6 7 268.933 20.2136 2
3 6 -7 716.078 37.1326 3
3 6 -7 735.177 37.8333 1
-3 -6 7 755.685 35.163 1
-3 -6 7 773.554 35.2832 2
-3 -6 7 646.724 41.4174 3
2 6 -7 1185.72 53.5886 1
2 6 -7 1139.68 43.0497 2
2 6 -7 1093.79 46.6297 3
-2 -6 7 1043.69 51.2833 3
-2 -6 7 1117.38 46.1883 2
-2 -6 7 1103.31 43.3048 1
1 6 -7 899.275 37.854 3
1 6 -7 860.955 35.699 2
1 6 -7 793.273 36.7664 1
-1 -6 7 840.964 39.7593 3
-1 -6 7 825.063 34.4987 1
-1 -6 7 825.383 37.5664 2
0 6 -7 837.078 35.9725 2
0 6 -7 851.624 35.8828 3
0 6 -7 813.165 36.1543 1
0 -6 7 860.603 37.1971 2
0 -6 7 806.673 36.6838 3
0 -6 7 842.586 34.789 1
-1 6 -7 152.822 13.9036 1
-1 6 -7 160.344 15.5973 2
1 -6 7 165.24 14.5506 1
1 -6 7 165.801 15.2058 2
-2 6 -7 95.5839 13.778 1
-2 6 -7 133.671 15.2869 2
-2 6 -7 111.75 11.8341 3
2 -6 7 91.6261 13.3454 1
2 -6 7 99.9219 13.3596 2
-3 6 -7 406.152 24.5635 1
-3 6 -7 388.645 22.0492 3
-3 6 -7 442.835 26.484 2
3 -6 7 411.191 26.5095 1
3 -6 7 426.603 24.0254 2
-4 6 -7 2.26519 8.47602 2
-4 6 -7 11.8925 6.25384 3
4 -6 7 -9.4279 7.33366 1
-5 6 -7 67.7873 14.737 2
-5 6 -7 82.2298 11.207 3
5 -6 7 76.3737 12.3655 2
5 -6 7 67.4496 18.02 1
-6 6 -7 17.4376 12.3092 2
6 5 -7 10.9632 13.199 3
-6 -5 7 2.66524 7.79164 2
5 5 -7 -0.6813 8.29563 3
-5 -5 7 21.7619 8.58966 2
4 5 -7 53.4167 14.9131 3
-4 -5 7 55.1971 10.7085 2
3 5 -7 406.789 25.5426 1
3 5 -7 420.902 20.8969 2
3 5 -7 408.027 26.1946 3
-3 -5 7 381.238 23.378 2
-3 -5 7 356.874 28.9818 3
-3 -5 7 433.479 24.2485 1
2 5 -7 659.811 31.8311 1
2 5 -7 728.964 33.5109 3
2 5 -7 652.546 29.2358 2
-2 -5 7 594.215 34.423 3
-2 -5 7 712.379 29.7242 1
-2 -5 7 623.46 30.6575 2
1 5 -7 951.123 37.6208 1
1 5 -7 892.744 38.3338 3
1 5 -7 898.439 36.0424 2
-1 -5 7 929.366 38.5818 2
-1 -5 7 912.47 35.2026 1
-1 -5 7 801.412 38.9889 3
0 5 -7 743.964 32.7331 2
0 5 -7 720.636 32.91 3
0 5 -7 689.654 31.5103 1
0 -5 7 796.31 33.9073 2
0 -5 7 811.354 31.9438 1
-1 5 -7 1753.91 61.0921 2
-1 5 -7 1497.1 63.9942 3
-1 5 -7 1664.49 58.8902 1
1 -5 7 1700.21 60.1312 2
1 -5 7 1698.25 58.8878 1
-2 5 -7 1810.81 66.4133 2
-2 5 -7 1790.04 64.5401 1
2 -5 7 1877.79 65.0528 2
2 -5 7 1866.8 66.234 1
-3 5 -7 399.557 25.2207 2
-3 5 -7 389.551 20.8503 3
3 -5 7 414.569 25.8176 1
-4 5 -7 115.548 12.7422 3
-4 5 -7 165.01 18.0734 2
4 -5 7 124.531 13.9188 2
-5 5 -7 119.207 17.1537 2
-5 5 -7 96.3882 13.5084 3
5 -5 7 98.5097 18.7019 1
5 -5 7 126.519 14.1575 2
-6 5 -7 255.359 22.9812 2
7 4 -7 190.395 26.4522 3
6 4 -7 215.72 24.9858 3
5 4 -7 341.114 27.0872 3
-5 -4 7 339.657 20.5602 2
4 4 -7 97.0262 14.8074 1
4 4 -7 132.035 17.7534 3
4 4 -7 115.156 10.8731 2
-4 -4 7 128.1 13.2944 2
-4 -4 7 117.812 19.9349 3
3 4 -7 1696.57 63.615 3
3 4 -7 1748.48 57.2773 2
3 4 -7 1658.04 61.7281 1
-3 -4 7 1589.9 59.395 2
2 4 -7 2055.86 70.4297 1
2 4 -7 2092.29 72.9871 3
2 4 -7 2153.76 68.7865 2
-2 -4 7 2000.64 67.7001 1
-2 -4 7 2010.16 75.7825 3
-2 -4 7 2024.61 70.7873 2
1 4 -7 3869.2 120.855 3
1 4 -7 3737.45 117.334 2
1 4 -7 3784.79 116.971 1
-1 -4 7 3656.31 121.919 3
-1 -4 7 3836.1 115.174 1
-1 -4 7 3689.45 118.73 2
0 4 -7 3334.33 102.882 1
0 4 -7 3242.66 106.482 3
0 4 -7 3203.69 104.47 2
0 -4 7 3328.28 105.248 2
-1 4 -7 1990.2 68.5523 2
-1 4 -7 1860.79 68.3866 3
-1 4 -7 1979.5 65.5794 1
1 -4 7 1977.9 67.5472 2
1 -4 7 1922.7 65.5818 1
-2 4 -7 1971.33 68.1501 1
-2 4 -7 2146.02 72.2553 2
2 -4 7 1950.68 69.7038 1
2 -4 7 1963.01 68.7367 2
-3 4 -7 720.075 35.1629 2
-3 4 -7 671.639 30.8565 3
3 -4 7 658.452 34.0834 1
3 -4 7 655.265 30.5554 2
-4 4 -7 194.092 16.3655 3
-4 4 -7 151.34 17.318 2
4 -4 7 190.264 20.8432 1
4 -4 7 168.001 14.7929 2
-5 4 -7 -4.5852 8.43344 3
-5 4 -7 4.11949 10.5365 2
5 -4 7 4.69627 7.49677 2
5 -4 7 16.7289 13.2392 1
-6 4 -7 16.7688 11.7355 2
7 3 -7 211.074 25.595 3
6 3 -7 205.838 22.8789 3
-6 -3 7 182.797 12.2366 2
5 3 -7 28.1623 11.6974 3
-5 -3 7 31.4728 7.84467 2
4 3 -7 33.2022 10.5945 3
4 3 -7 13.8239 5.98267 2
-4 -3 7 25.8025 7.98765 2
-4 -3 7 13.9146 10.7754 3
3 3 -7 51.6203 9.46168 1
3 3 -7 50.7244 11.136 3
3 3 -7 48.4091 7.91202 2
-3 -3 7 49.8324 11.8418 3
-3 -3 7 60.4701 10.431 2
2 3 -7 6.34677 5.88671 2
2 3 -7 18.2133 5.86738 1
2 3 -7 -1.9428 5.84685 3
-2 -3 7 -2.6017 4.90978 2
-2 -3 7 14.9667 5.75575 1
-2 -3 7 12.2478 7.38285 3
1 3 -7 471.788 26.1161 3
1 3 -7 467.43 23.6186 2
-1 -3 7 544.612 21.6786 1
-1 -3 7 506.748 24.678 2
0 3 -7 23.0649 5.40923 1
0 3 -7 14.9813 7.20127 2
0 3 -7 23.31 7.72294 3
0 -3 7 9.45156 4.72995 1
0 -3 7 15.7507 6.52666 2
-1 3 -7 128.529 13.3463 2
-1 3 -7 140.034 10.983 1
1 -3 7 122.356 11.1844 1
1 -3 7 153.866 13.0601 2
-2 3 -7 168.42 16.4034 2
2 -3 7 174.05 14.665 2
2 -3 7 194.592 15.7232 1
-3 3 -7 225.605 17.4515 3
-3 3 -7 238.201 19.5832 2
3 -3 7 200.335 16.7502 2
3 -3 7 251.761 20.5209 1
-4 3 -7 47.9754 11.181 3
-4 3 -7 38.8886 12.1113 2
4 -3 7 49.2171 10.4765 2
4 -3 7 60.4916 13.7514 1
-5 3 -7 53.3211 13.617 2
5 -3 7 38.6959 9.98638 2
5 -3 7 66.1327 17.7728 1
7 2 -7 715.262 42.3158 3
6 2 -7 24.9004 12.5999 3
-6 -2 7 31.8313 5.68967 2
5 2 -7 47.9956 7.03617 2
5 2 -7 67.9189 12.5896 1
5 2 -7 72.7224 14.3531 3
4 2 -7 869.335 35.6724 2
4 2 -7 959.828 38.9174 1
4 2 -7 959.357 42.1799 3
-4 -2 7 838.865 45.2045 3
-4 -2 7 903.28 35.8065 2
3 2 -7 1488.79 56.6821 3
3 2 -7 1456.86 51.6922 1
3 2 -7 1439.05 50.0358 2
-3 -2 7 1462.51 52.1105 2
-3 -2 7 1429.74 59.1213 3
2 2 -7 1128.41 46.6327 3
2 2 -7 1126.37 43.7635 1
2 2 -7 1187.88 42.4515 2
-2 -2 7 1179.32 43.5299 2
-2 -2 7 1195.79 40.5584 1
-2 -2 7 1065.85 47.0536 3
1 2 -7 2912.1 97.1809 3
1 2 -7 2844.16 92.6615 2
1 2 -7 2963.83 88.5976 1
-1 -2 7 2914.48 87.5679 1
-1 -2 7 2807.32 92.6972 2
0 2 -7 4749.3 143.375 2
0 2 -7 4556.74 136.917 1
0 2 -7 4568.29 146.734 3
0 -2 7 4720.21 142.551 2
0 -2 7 4529.59 136.741 1
-1 2 -7 1480.81 55.3254 2
1 -2 7 1461.66 50.5814 1
1 -2 7 1492.48 53.5463 2
-2 2 -7 1949.4 68.9534 2
2 -2 7 1843.98 65.0222 1
2 -2 7 1831.72 65.2369 2
-3 2 -7 1039.08 46.9265 2
-3 2 -7 1049.34 50.4064 3
3 -2 7 1156.94 48.424 2
3 -2 7 1071.29 46.539 1
-4 2 -7 447.659 28.3473 2
-4 2 -7 407.888 27.703 3
4 -2 7 428.501 30.8717 1
4 -2 7 447.323 25.0258 2
-5 2 -7 33.6657 12.714 2
5 -2 7 30.1437 15.5506 1
7 1 -7 100.352 18.1079 3
6 1 -7 1750.5 71.7294 3
-6 -1 7 1960.83 57.5586 2
5 1 -7 451.377 25.4629 1
5 1 -7 413.888 18.2245 2
5 1 -7 441.078 27.7408 3
-5 -1 7 403.337 20.0348 2
-5 -1 7 407.633 31.2205 3
4 1 -7 42.1858 8.75115 1
4 1 -7 65.8584 8.41696 2
4 1 -7 66.3291 12.5588 3
-4 -1 7 63.0574 13.4489 3
-4 -1 7 52.6166 8.93451 2
3 1 -7 928.21 34.4337 2
3 1 -7 883.238 39.6941 3
3 1 -7 873.527 33.6028 1
-3 -1 7 926.678 35.6788 2
-3 -1 7 818.061 40.6329 3
2 1 -7 473.058 26.5364 3
2 1 -7 469.949 19.2728 1
2 1 -7 479.806 22.6365 2
-2 -1 7 447.886 22.8061 2
1 1 -7 532.486 28.8155 3
1 1 -7 517.463 19.6177 1
1 1 -7 536.703 24.9961 2
-1 -1 7 501.132 24.4763 2
-1 -1 7 555 19.4938 1
0 1 -7 267.656 11.8282 1
0 1 -7 253.523 16.7823 2
0 -1 7 252.945 11.8754 1
0 -1 7 196.958 15.3862 2
-1 1 -7 323.839 21.3023 2
1 -1 7 341.787 16.8886 1
1 -1 7 339.04 19.8508 2
-2 1 -7 28.8342 9.69056 2
-2 1 -7 15.9785 8.14946 3
2 -1 7 17.5088 7.47088 2
2 -1 7 19.8784 7.69808 1
-3 1 -7 5.07665 8.75635 3
-3 1 -7 -0.5473 8.25344 2
3 -1 7 -0.9188 6.78968 2
3 -1 7 -5.934 7.14749 1
-4 1 -7 16.1278 10.9478 2
4 -1 7 -13.577 10.4726 1
4 -1 7 10.9357 7.71006 2
5 -1 7 57.2969 17.9643 1
8 0 -7 14.7284 14.8683 3
7 0 -7 198.809 21.9533 3
6 0 -7 658.676 22.6912 2
5 0 -7 409.695 26.6813 3
5 0 -7 422.656 18.1218 2
5 0 -7 364.641 22.7471 1
-5 0 7 357.422 28.3549 3
4 0 -7 415.64 25.6217 3
4 0 -7 403.293 20.3169 1
-4 0 7 363.131 26.2133 3
-4 0 7 400.767 20.8546 2
3 0 -7 1414.42 48.9501 1
3 0 -7 1482.54 51.6396 2
3 0 -7 1497.69 57.8082 3
-3 0 7 1562.24 53.2945 2
2 0 -7 276.335 17.0102 2
2 0 -7 274.103 12.2423 1
2 0 -7 288.445 20.8281 3
-2 0 7 281.465 17.2685 2
1 0 -7 300.73 18.8164 2
1 0 -7 302.118 10.9217 1
-1 0 7 291.353 18.0059 2
0 0 -7 379.883 22.628 2
0 0 7 387.231 21.3104 2
0 0 7 384.821 14.5192 1
-1 0 -7 1528.45 56.909 2
1 0 7 1418.91 53.8101 2
1 0 7 1463.68 49.1081 1
-2 0 -7 235.211 19.6828 3
-2 0 -7 219.889 20.7124 2
2 0 7 221.087 16.548 1
2 0 7 266.455 18.2989 2
-3 0 -7 1136.52 49.0075 2
3 0 7 974.266 45.4986 1
3 0 7 1037.61 43.1684 2
-4 0 -7 285.303 27.8513 2
4 0 7 276.259 27.0441 1
-5 0 -7 244.684 26.1197 2
5 0 7 226.241 28.1333 1
8 -1 -7 34.3924 14.9381 3
7 -1 -7 84.8957 16.6119 3
6 -1 -7 1522.13 48.8414 2
6 -1 -7 1608.78 63.0447 3
5 -1 -7 3533.37 105.306 2
5 -1 -7 3553.09 116.08 3
5 -1 -7 3367.58 110.159 1
-5 1 7 3635.61 107.514 2
-5 1 7 3145.23 119.178 3
4 -1 -7 438.161 21.3327 1
4 -1 -7 494.876 28.0632 3
4 -1 -7 463.216 21.818 2
-4 1 7 437.655 22.7138 2
3 -1 -7 2981.55 98.3058 2
3 -1 -7 3006.74 93.6578 1
3 -1 -7 3240.45 106.268 3
-3 1 7 3262.38 100.314 2
2 -1 -7 2805.83 96.5778 3
2 -1 -7 2708.25 89.1908 2
2 -1 -7 2810.33 79.9362 1
-2 1 7 2670.6 89.5239 2
1 -1 -7 611.132 28.7096 2
-1 1 7 627.36 28.7745 2
0 -1 -7 245.649 17.3285 2
0 1 7 232.231 16.6612 2
0 1 7 224.452 8.65967 1
0 1 7 235.647 8.67733 1
-1 -1 -7 372.096 24.0452 2
-1 -1 -7 342.337 22.2242 3
1 1 7 358.856 22.0383 2
1 1 7 373.417 17.3906 1
-2 -1 -7 71.4404 13.9401 2
2 1 7 62.7876 10.8974 1
2 1 7 59.1563 11.4423 2
-3 -1 -7 4.19156 9.51253 2
3 1 7 -4.3558 8.92556 1
-4 -1 -7 160.936 21.4988 2
4 1 7 121.699 23.8668 1
8 -2 -7 14.9524 12.3215 3
7 -2 -7 -11.548 9.64293 3
6 -2 -7 40.2537 6.6451 2
6 -2 -7 39.489 12.1597 3
-6 2 7 44.1386 13.4531 3
5 -2 -7 28.5811 10.5225 3
5 -2 -7 20.7632 6.72666 2
4 -2 -7 671.649 29.0262 2
4 -2 -7 703.254 35.3279 3
-4 2 7 677.114 30.1038 2
3 -2 -7 2.55545 5.79815 2
3 -2 -7 12.8781 8.67222 3
3 -2 -7 15.9359 3.96534 1
3 -2 -7 14.3377 4.16927 1
-3 2 7 18.4638 7.31038 2
2 -2 -7 15.5369 7.39697 2
-2 2 7 24.2589 7.78343 2
1 -2 -7 55.4773 10.9445 2
-1 2 7 41.7411 9.36008 2
0 -2 -7 256.266 20.1628 2
0 2 7 275.232 19.5539 2
-1 -2 -7 38.4321 11.274 3
-1 -2 -7 72.0078 13.9481 2
1 2 7 66.7769 7.59668 1
1 2 7 54.6277 11.076 2
1 2 7 59.9061 7.72226 1
-2 -2 -7 199.469 21.1079 2
2 2 7 260.406 18.7891 1
2 2 7 253.048 16.4376 1
-3 -2 -7 333.113 26.6747 2
3 2 7 347.346 21.7471 1
3 2 7 335.264 25.0614 1
-4 -2 -7 209.551 25.0193 2
4 2 7 234.272 25.746 1
8 -3 -7 22.8873 11.9836 3
8 -3 -7 25.639 15.1286 1
7 -3 -7 112.595 18.8844 1
7 -3 -7 149.197 7.94823 2
7 -3 -7 137.856 22.6434 3
6 -3 -7 457.429 28.3955 3
6 -3 -7 442.883 28.5122 1
5 -3 -7 2111.37 71.106 2
5 -3 -7 2197.02 79.3671 3
5 -3 -7 2141.64 74.2736 1
4 -3 -7 3307.39 99.8488 1
4 -3 -7 3123.22 102.213 2
4 -3 -7 3183.89 109.871 3
3 -3 -7 505.49 18.9086 1
3 -3 -7 509.068 18.5441 1
3 -3 -7 557.584 32.1381 3
3 -3 -7 530.349 26.6369 2
-3 3 7 516.523 26.8968 2
2 -3 -7 2040.73 72.5079 2
-2 3 7 2056.56 72.172 2
1 -3 -7 892.504 40.7659 2
-1 3 7 936.678 39.8767 2
0 -3 -7 239.946 21.0855 2
0 -3 -7 231.763 19.7999 3
-1 -3 -7 430.462 28.8427 2
1 3 7 432.275 19.4182 1
1 3 7 441.861 20.4793 1
-2 -3 -7 93.9598 17.5271 2
2 3 7 81.7249 11.3422 1
2 3 7 82.6583 12.9473 1
-3 -3 -7 183.905 21.457 2
3 3 7 222.236 19.3383 1
3 3 7 177.602 21.1971 1
8 -4 -7 13.2331 13.5555 1
8 -4 -7 -4.1038 9.92385 3
7 -4 -7 -5.9229 9.30727 3
7 -4 -7 -4.5381 4.61271 2
7 -4 -7 12.3165 10.8781 1
6 -4 -7 239.548 21.1201 1
6 -4 -7 223.467 16.0982 2
6 -4 -7 287.301 23.0121 3
5 -4 -7 156.297 14.8104 2
5 -4 -7 142.904 14.709 1
5 -4 -7 151.776 19.4744 3
4 -4 -7 998.661 41.0518 2
4 -4 -7 901.062 44.7296 3
4 -4 -7 962.934 35.2989 1
3 -4 -7 1396.16 53.7967 2
3 -4 -7 1358.26 42.1441 1
2 -4 -7 121.767 16.0395 2
1 -4 -7 265.398 21.5873 2
0 -4 -7 57.2332 15.9787 2
0 4 7 53.5424 4.11534 1
0 4 7 54.5373 3.93628 1
-1 -4 -7 27.5958 12.6645 2
1 4 7 40.4631 8.1204 1
1 4 7 30.6004 7.15186 1
-2 -4 -7 12.2415 11.1615 2
2 4 7 8.53964 9.56441 1
2 4 7 -4.4154 7.243 1
-3 -4 -7 40.006 15.5824 2
3 4 7 65.6459 15.2984 1
3 4 7 40.2105 12.7751 1
8 -5 -7 3.09445 9.8294 3
8 -5 -7 1.14531 11.351 1
7 -5 -7 125.517 19.2162 1
7 -5 -7 145.541 13.2483 2
7 -5 -7 143.835 18.3955 3
6 -5 -7 172.004 15.2302 2
6 -5 -7 186.535 18.2776 1
6 -5 -7 191.565 19.4485 3
5 -5 -7 25.1321 10.1705 2
5 -5 -7 36.4945 8.60803 1
5 -5 -7 21.0004 10.7919 3
4 -5 -7 624.287 37.1748 3
4 -5 -7 699.435 27.0869 1
4 -5 -7 726.993 34.1641 2
3 -5 -7 568.852 31.1086 2
3 -5 -7 559.241 18.8083 1
2 -5 -7 96.4856 15.8448 2
1 -5 -7 250.775 22.5107 2
0 -5 -7 688.536 37.9079 2
0 5 7 636.752 22.3351 1
0 5 7 615.875 21.6915 1
-1 -5 -7 585.032 36.5695 2
-2 -5 -7 164.478 22.2533 2
2 5 7 181.798 18.2343 1
8 -6 -7 105.158 14.035 2
8 -6 -7 119.142 20.9695 1
8 -6 -7 137.384 17.5076 3
7 -6 -7 18.2696 10.3196 3
7 -6 -7 39.001 9.54204 2
7 -6 -7 42.7946 12.8602 1
6 -6 -7 267.174 22.9384 3
6 -6 -7 298.094 20.7048 2
6 -6 -7 217.782 19.2351 1
5 -6 -7 480.669 27.2561 2
5 -6 -7 442.085 29.6817 3
5 -6 -7 421.323 23.022 1
4 -6 -7 165.616 18.2965 2
4 -6 -7 171.403 11.5514 1
4 -6 -7 169.348 20.3132 3
3 -6 -7 863.648 27.3022 1
2 -6 -7 924.708 45.5651 2
1 -6 -7 29.3396 13.1243 2
0 -6 -7 47.2355 14.5202 2
0 6 7 29.2307 5.35876 1
-1 -6 -7 64.8315 17.3718 2
1 6 7 60.9361 10.1839 1
-2 -6 -7 15.2348 14.5089 2
7 -7 -7 112.981 17.1415 3
7 -7 -7 98.2035 14.3459 2
7 -7 -7 105.521 17.9581 1
6 -7 -7 5.00838 9.27605 2
6 -7 -7 17.1349 9.0153 1
6 -7 -7 3.33809 9.93631 3
5 -7 -7 6.18221 9.9729 3
5 -7 -7 4.65505 6.44187 1
5 -7 -7 5.05194 9.12306 2
4 -7 -7 119.924 20.5404 3
4 -7 -7 75.9407 15.7493 2
4 -7 -7 96.2918 9.30638 1
3 -7 -7 219.031 9.90932 1
3 -7 -7 218.94 23.2946 2
2 -7 -7 8.88475 11.6881 2
1 -7 -7 24.0334 14.0594 2
0 -7 -7 110.952 19.8939 2
0 7 7 177.877 11.8051 1
1 7 7 109.968 16.0544 1
7 -8 -7 173.038 18.9949 3
7 -8 -7 133.497 17.7499 2
7 -8 -7 134.618 19.2053 1
6 -8 -7 5.82654 8.57861 1
6 -8 -7 -11.421 9.08105 2
6 -8 -7 -1.7044 9.20535 3
5 -8 -7 310.572 31.919 3
5 -8 -7 335.081 28.5053 2
5 -8 -7 345.899 19.7601 1
4 -8 -7 122.443 19.6098 2
4 -8 -7 123.817 10.5244 1
3 -8 -7 18.2213 4.17264 1
3 -8 -7 8.06967 11.7012 2
2 -8 -7 868.971 47.9588 2
1 -8 -7 227.83 27.4636 2
-1 8 7 200.552 10.3999 1
0 -8 -7 36.6603 15.923 2
0 8 7 14.5202 7.41456 1
6 -9 -7 101.533 17.0804 2
6 -9 -7 98.3469 14.1338 1
6 -9 -7 126.032 18.8383 3
5 -9 -7 12.2611 11.7598 3
5 -9 -7 2.79717 6.26924 1
5 -9 -7 15.2709 12.8924 2
4 -9 -7 8.25619 9.32659 1
4 -9 -7 37.8115 15.2921 2
3 -9 -7 -10.325 12.0738 2
1 -9 -7 152.225 25.0322 2
5 -10 -7 -2.6029 11.9185 3
5 -10 -7 22.197 14.0835 2
5 -10 -7 12.7953 7.19242 1
4 -10 -7 203.204 27.6433 2
3 -10 -7 125.236 23.2305 2
2 -10 -7 59.0369 20.6919 2
-1 14 -8 95.6482 19.8049 3
1 -14 8 81.4644 17.4991 1
-2 14 -8 105.652 17.2384 3
2 -14 8 160.975 22.7472 1
1 13 -8 27.0506 17.1541 3
-1 -13 8 44.2971 14.6682 1
0 13 -8 -0.9107 14.4766 3
0 -13 8 26.7626 12.6103 1
-1 13 -8 0.45738 12.3957 3
1 -13 8 13.289 10.707 3
-2 13 -8 29.6203 11.1148 3
2 -13 8 38.153 16.2776 1
3 -13 8 1.15173 11.2614 1
4 -13 8 -10.398 11.5933 1
2 12 -8 94.734 23.4915 3
-2 -12 8 69.7867 16.4456 1
1 12 -8 210.027 27.3097 3
-1 -12 8 212.338 22.5597 1
0 12 -8 77.3373 20.1439 3
0 -12 8 71.7954 15.5964 1
-1 12 -8 469.157 29.7167 3
1 -12 8 402.888 29.8765 1
1 -12 8 419.964 29.275 3
-2 12 -8 443.543 26.3315 3
2 -12 8 451.24 31.6833 1
-3 12 -8 438.375 18.6001 3
3 -12 8 462.171 32.5275 1
4 -12 8 117.39 21.1954 1
3 11 -8 98.5458 37.3032 3
-3 -11 8 49.9113 15.1238 1
2 11 -8 53.0733 16.0668 3
-2 -11 8 58.3249 14.66 1
1 11 -8 246.663 26.1951 3
-1 -11 8 210.184 21.3237 1
0 11 -8 227.161 23.3629 3
0 -11 8 234.709 19.7656 1
0 -11 8 211.779 21.5217 3
-1 11 -8 87.3429 14.211 3
1 -11 8 67.7978 13.0397 3
1 -11 8 47.4709 12.7031 1
-2 11 -8 74.928 12.1088 3
2 -11 8 95.1545 14.9804 1
-3 11 -8 15.6849 5.67183 3
3 -11 8 24.1412 11.9218 1
4 -11 8 52.9005 15.4443 1
5 -11 8 17.6889 14.0627 1
4 10 -8 9.71584 15.2641 3
3 10 -8 3.0923 10.1363 3
-3 -10 8 -16.699 9.62572 1
2 10 -8 10.0286 12.1461 3
-2 -10 8 12.3422 10.7282 1
1 10 -8 127.431 18.6955 3
-1 -10 8 92.0068 14.8863 1
0 10 -8 46.1604 11.3042 3
0 -10 8 61.0668 12.9575 1
0 -10 8 50.5965 12.2491 3
-1 10 -8 1.77107 8.44254 3
1 -10 8 -1.6734 7.80253 3
1 -10 8 6.51967 9.54439 1
-2 10 -8 479.895 25.4492 3
-2 10 -8 471.107 31.246 2
2 -10 8 505.536 31.0282 1
-3 10 -8 641.921 26.1431 3
-3 10 -8 658.867 37.802 2
3 -10 8 685.909 38.2531 1
-4 10 -8 271.952 26.2917 2
4 -10 8 325.863 28.7027 1
5 -10 8 183.725 25.8829 1
4 9 -8 195.097 26.6931 3
3 9 -8 159.168 22.7823 3
-3 -9 8 158.576 19.5753 1
2 9 -8 546.268 33.7749 3
-2 -9 8 526.625 30.3147 1
1 9 -8 475.869 29.239 3
-1 -9 8 449.859 26.8824 1
-1 -9 8 447.516 31.7549 3
0 9 -8 1157.77 48.467 3
0 9 -8 1204.86 49.3457 2
0 -9 8 1139.98 51.3641 3
-1 9 -8 412.575 26.2058 2
-1 9 -8 424.296 24.5488 3
-2 9 -8 52.5027 10.1835 3
-2 9 -8 50.7923 13.8957 2
2 -9 8 38.1879 11.7368 1
-3 9 -8 723.69 29.4922 3
-3 9 -8 705.143 38.942 2
3 -9 8 715.618 39.1169 1
-4 9 -8 165.119 9.71551 3
-4 9 -8 170.101 22.4125 2
-4 9 -8 181.516 9.54127 3
4 -9 8 189.122 24.3342 1
-5 9 -8 31.8507 14.6265 2
5 -9 8 67.5678 18.7639 1
5 8 -8 67.3167 16.4789 3
4 8 -8 41.7774 15.2238 3
3 8 -8 59.2545 15.6142 3
-3 -8 8 58.3081 13.7247 1
2 8 -8 21.7295 10.777 3
-2 -8 8 -0.4899 8.19668 1
1 8 -8 272.787 20.891 2
1 8 -8 301.686 27.5612 1
1 8 -8 317.663 23.0125 3
-1 -8 8 322.739 24.9675 3
-1 -8 8 267.381 26.551 2
-1 -8 8 285.655 20.4527 1
0 8 -8 7.25846 8.80428 2
0 8 -8 -4.1241 7.26135 1
0 8 -8 6.80365 8.1436 3
0 -8 8 16.4535 10.888 2
0 -8 8 -4.8504 6.8944 1
0 -8 8 3.78236 6.70011 3
-1 8 -8 153.084 17.1113 1
-1 8 -8 174.155 16.1454 3
-1 8 -8 195.1 18.9406 2
1 -8 8 201.305 18.2365 1
-2 8 -8 50.7461 9.64832 3
-2 8 -8 27.6938 11.2002 2
2 -8 8 17.9801 9.34741 1
-3 8 -8 415.643 28.8766 2
-3 8 -8 430.909 21.931 3
3 -8 8 400.44 28.1145 1
-4 8 -8 58.1554 14.1523 2
-4 8 -8 66.0762 9.4482 3
-4 8 -8 74.3494 9.35279 3
4 -8 8 89.5838 17.5106 1
-5 8 -8 288.145 14.9614 3
-5 8 -8 282.729 26.0265 2
-5 8 -8 248.277 14.9791 3
5 -8 8 216.839 28.2019 1
5 7 -8 114.765 21.4305 3
-5 -7 8 145.663 18.266 2
4 7 -8 143.693 20.867 3
-4 -7 8 141.148 17.6018 2
3 7 -8 842.094 42.3301 3
-3 -7 8 785.03 39.2064 2
-3 -7 8 835.414 38.8618 1
2 7 -8 874.672 43.7474 1
2 7 -8 950.467 40.1285 2
2 7 -8 988.539 44.3827 3
-2 -7 8 959.316 43.8002 2
-2 -7 8 1008.55 40.8049 1
-2 -7 8 908.798 48.0921 3
1 7 -8 946.408 42.7203 1
1 7 -8 934.989 41.6317 3
1 7 -8 885.11 39.6796 2
-1 -7 8 947.724 42.3836 2
-1 -7 8 895.006 44.2155 3
-1 -7 8 984.155 39.399 1
0 7 -8 755.645 34.0271 3
0 7 -8 686.237 33.8094 2
0 -7 8 706.677 35.2424 2
0 -7 8 725.599 32.9173 1
0 -7 8 663.758 34.8861 3
-1 7 -8 1377.24 55.4355 2
-1 7 -8 1446.81 53.9218 3
-1 7 -8 1425.51 56.7138 1
1 -7 8 1429.03 54.9975 1
1 -7 8 1439.3 56.6281 2
-2 7 -8 210.467 18.536 1
-2 7 -8 198.066 16.1986 3
-2 7 -8 242.961 20.7267 2
2 -7 8 261.641 20.2196 1
2 -7 8 224.674 18.6387 2
-3 7 -8 633.542 35.6544 2
-3 7 -8 666.552 42.4695 3
3 -7 8 634.893 35.8834 1
-4 7 -8 1005.66 39.0049 3
-4 7 -8 992.323 49.039 2
4 -7 8 1104.85 51.7271 1
-5 7 -8 346.022 20.0612 3
-5 7 -8 329.409 21.9089 3
-5 7 -8 339.939 26.1579 2
5 -7 8 311.07 29.5288 1
6 6 -8 63.5438 18.6198 3
-6 -6 8 75.4491 13.2471 2
5 6 -8 165.212 20.1793 3
-5 -6 8 164.005 17.3027 2
4 6 -8 274.726 24.6305 3
-4 -6 8 234.691 19.5168 2
3 6 -8 194.452 20.1266 3
3 6 -8 207.116 16.0246 2
3 6 -8 173.369 18.5798 1
-3 -6 8 189.248 17.765 1
-3 -6 8 188.087 19.0333 2
2 6 -8 1004.38 50.448 1
2 6 -8 1075.35 46.795 3
2 6 -8 1115.8 43.1089 2
-2 -6 8 990.044 50.0066 3
-2 -6 8 1132.79 43.0187 1
-2 -6 8 1081.04 46.7926 2
1 6 -8 293.073 21.1848 3
1 6 -8 304.886 20.2175 2
1 6 -8 287.443 20.0551 1
-1 -6 8 286.002 22.3429 3
-1 -6 8 278.427 18.7504 1
0 6 -8 668.873 32.3516 2
0 6 -8 715.48 32.8069 3
0 6 -8 654.307 31.7089 1
0 -6 8 617.364 32.6052 2
0 -6 8 657.541 30.5879 1
-1 6 -8 235.13 19.1418 2
-1 6 -8 228.299 17.5046 1
-1 6 -8 210.429 16.8474 3
1 -6 8 233.065 17.3655 1
1 -6 8 229.642 18.2683 2
-2 6 -8 120.743 17.0591 1
-2 6 -8 112.984 15.5865 2
-2 6 -8 121.977 14.0262 3
2 -6 8 137.379 15.079 1
2 -6 8 127.642 14.5273 2
-3 6 -8 14.1419 7.72375 3
-3 6 -8 2.58078 8.96385 2
-3 6 -8 17.5902 7.78154 1
3 -6 8 -8.577 7.41735 2
3 -6 8 5.46777 8.21526 1
-4 6 -8 24.0114 9.34222 3
-4 6 -8 21.0216 7.85317 3
-4 6 -8 30.0287 12.4254 2
4 -6 8 20.3786 12.9941 1
-5 6 -8 68.9775 15.4895 2
-5 6 -8 35.3418 10.3236 3
5 -6 8 34.6874 16.569 1
6 5 -8 9.18734 13.088 3
-6 -5 8 13.7094 8.73521 2
5 5 -8 25.0308 12.8423 3
-5 -5 8 25.1221 9.1258 2
4 5 -8 8.68604 7.9347 3
4 5 -8 15.1159 7.0964 2
-4 -5 8 -2.5446 7.04009 2
3 5 -8 282.942 21.4795 1
3 5 -8 321.3 23.6055 3
3 5 -8 279.395 17.8069 2
-3 -5 8 263.22 25.2582 3
-3 -5 8 291.231 21.0832 2
-3 -5 8 280.467 19.9202 1
2 5 -8 827.596 36.8818 1
2 5 -8 799.759 38.2808 3
2 5 -8 827.907 34.9046 2
-2 -5 8 854.479 34.3213 1
-2 -5 8 821.596 41.0457 3
-2 -5 8 801.597 37.1912 2
1 5 -8 670.294 33.1103 3
1 5 -8 678.449 30.9537 2
1 5 -8 693.146 31.0401 1
-1 -5 8 609.115 33.5646 3
-1 -5 8 697.408 29.1457 1
-1 -5 8 666.899 32.4093 2
0 5 -8 1696.64 61.4862 3
0 5 -8 1594.83 57.9336 1
0 5 -8 1545.1 59.3351 2
0 -5 8 1684.72 57.1584 1
0 -5 8 1595.92 60.2205 2
-1 5 -8 331.588 20.2903 1
-1 5 -8 346.08 22.0286 3
-1 5 -8 328.125 22.3359 2
1 -5 8 348.36 20.7502 1
-2 5 -8 1385.96 56.3619 3
-2 5 -8 1425.93 57.0126 2
-2 5 -8 1414.52 53.9496 1
2 -5 8 1525.59 56.582 1
2 -5 8 1512.11 55.7185 2
-3 5 -8 600.627 29.1524 3
-3 5 -8 570.14 33.3146 2
3 -5 8 589.992 29.5459 2
3 -5 8 649.565 33.752 1
-4 5 -8 690.687 32.2053 3
-4 5 -8 635.209 36.5081 2
4 -5 8 661.1 39.2115 1
-5 5 -8 542.763 33.5979 2
-5 5 -8 527.706 28.9269 3
5 -5 8 543.983 40.2355 1
7 4 -8 24.4454 16.186 3
6 4 -8 28.2523 14.0425 3
-6 -4 8 17.1682 8.04298 2
5 4 -8 644.505 36.8737 3
-5 -4 8 584.703 29.1926 2
4 4 -8 441.243 21.1025 2
4 4 -8 392.854 27.4551 3
4 4 -8 405.987 25.9264 1
-4 -4 8 392.592 23.7168 2
3 4 -8 372.389 24.8586 3
3 4 -8 354.527 22.9253 1
3 4 -8 316.401 18.9677 2
-3 -4 8 384.046 22.9167 2
-3 -4 8 330.572 26.4883 3
2 4 -8 1191.8 46.0605 1
2 4 -8 1257.82 45.8044 2
2 4 -8 1213.07 49.5378 3
-2 -4 8 1197.99 43.8086 1
-2 -4 8 1235.68 47.8532 2
-2 -4 8 1089.73 51.1821 3
1 4 -8 1455.09 56.0213 3
1 4 -8 1476.8 51.4677 1
1 4 -8 1424.45 52.5134 2
-1 -4 8 1376.65 48.8368 1
-1 -4 8 1358.41 53.4458 2
0 4 -8 1124.82 45.6233 2
0 4 -8 1086.64 47.031 3
0 4 -8 1167.8 42.8866 1
0 -4 8 1151.98 45.7484 2
0 -4 8 1187.42 42.2387 1
-1 4 -8 1118.03 46.6303 2
-1 4 -8 1141.89 48.0077 3
-1 4 -8 1122.13 42.7682 1
1 -4 8 1150.64 46.1487 2
1 -4 8 1138.56 43.0908 1
-2 4 -8 365.511 24.8993 2
2 -4 8 388.617 23.3547 1
2 -4 8 396.985 22.95 2
-3 4 -8 579.154 32.9867 2
-3 4 -8 567.704 29.5495 3
3 -4 8 653.966 30.555 2
3 -4 8 604.992 32.4463 1
-4 4 -8 92.8152 14.343 3
-4 4 -8 112.131 17.444 2
4 -4 8 115.3 18.5453 1
-5 4 -8 93.5814 17.6472 2
5 -4 8 121.033 21.7385 1
7 3 -8 155.512 27.5566 3
6 3 -8 -10.013 9.90845 3
-6 -3 8 -8.2414 8.89851 2
5 3 -8 183.741 13.4342 2
5 3 -8 209.286 21.3461 3
-5 -3 8 206.069 15.743 2
4 3 -8 553.832 24.3589 2
4 3 -8 542.783 31.5855 3
-4 -3 8 439.612 32.6177 3
-4 -3 8 548.312 26.931 2
3 3 -8 2.20856 7.93387 3
3 3 -8 -0.2997 6.14617 2
3 3 -8 8.43478 6.57493 1
-3 -3 8 6.49688 6.3646 2
-3 -3 8 1.88645 8.75896 3
2 3 -8 15.1438 6.65736 3
2 3 -8 21.8381 6.45742 1
2 3 -8 10.8279 6.62102 2
-2 -3 8 19.5215 5.91678 1
-2 -3 8 7.73536 7.09031 3
-2 -3 8 2.52242 6.81677 2
1 3 -8 242.853 16.5279 2
1 3 -8 244.568 19.4071 3
1 3 -8 262.912 15.0996 1
-1 -3 8 248.833 17.7593 2
-1 -3 8 270.283 14.5037 1
0 3 -8 779.701 29.9761 1
0 3 -8 728.275 36.44 3
0 3 -8 725.356 33.5925 2
0 -3 8 772.173 29.5659 1
0 -3 8 755.206 33.5854 2
-1 3 -8 780.082 31.1791 1
-1 3 -8 759.284 36.1401 2
1 -3 8 829.281 32.5808 1
1 -3 8 759.634 34.4613 2
-2 3 -8 191.866 18.8428 2
2 -3 8 167.853 15.7764 2
2 -3 8 215.911 16.9392 1
-3 3 -8 399.129 26.9968 2
-3 3 -8 396.937 24.2636 3
3 -3 8 361.526 26.0658 1
3 -3 8 422.427 23.8271 2
-4 3 -8 189.471 21.8816 2
4 -3 8 174.146 25.9533 1
-5 3 -8 89.2507 16.9512 2
5 -3 8 93.9991 20.425 1
7 2 -8 4.79876 12.1461 3
6 2 -8 7.61405 10.8303 3
-6 -2 8 4.72498 9.73373 2
5 2 -8 201.913 19.2876 1
5 2 -8 225.118 25.7292 3
5 2 -8 195.021 13.2991 2
-5 -2 8 195.451 15.8174 2
4 2 -8 100.401 11.0352 2
4 2 -8 68.9347 13.6544 3
4 2 -8 99.0797 12.636 1
-4 -2 8 111.152 18.6014 3
-4 -2 8 125.016 13.1933 2
3 2 -8 590.636 26.3079 2
3 2 -8 607.033 31.9969 3
3 2 -8 580.351 26.3261 1
-3 -2 8 530.534 27.1032 2
-3 -2 8 560.062 33.3786 3
2 2 -8 1216.53 51.0563 3
2 2 -8 1233.58 45.9632 2
-2 -2 8 1210.81 42.2795 1
-2 -2 8 1203.63 46.9341 2
1 2 -8 1348.02 55.6805 3
1 2 -8 1412.24 46.134 1
1 2 -8 1348.18 51.4066 2
-1 -2 8 1377.47 51.6841 2
-1 -2 8 1375.84 45.057 1
0 2 -8 2496.85 86.3864 2
0 2 -8 2587.67 79.2746 1
0 2 -8 2521.38 90.9391 3
0 -2 8 2543.05 79.0034 1
0 -2 8 2618.36 85.7794 2
-1 2 -8 3193.23 105.46 2
1 -2 8 3130.33 98.7222 1
-2 2 -8 1638.85 63.4427 2
2 -2 8 1613.34 58.9649 1
2 -2 8 1622.69 59.8706 2
-3 2 -8 302.038 22.5753 3
-3 2 -8 287.998 24.1001 2
3 -2 8 314.087 23.0921 1
3 -2 8 284.841 24.6029 2
-4 2 -8 600.856 35.6249 2
-5 2 -8 40.5253 14.4149 2
5 -2 8 22.4397 16.9778 1
7 1 -8 710.803 41.0163 3
6 1 -8 158.837 20.0599 3
6 1 -8 135.296 10.2267 2
-6 -1 8 173.112 13.8996 2
5 1 -8 342.846 17.6039 2
5 1 -8 337.428 21.4077 1
5 1 -8 326.229 25.1656 3
-5 -1 8 323.834 19.5807 2
4 1 -8 546.467 24.4273 2
4 1 -8 499.846 30.1504 3
4 1 -8 533.085 25.7459 1
-4 -1 8 531.627 26.1469 2
-4 -1 8 478.796 32.4026 3
3 1 -8 308.05 18.2076 2
3 1 -8 296.062 16.2076 1
3 1 -8 259.365 21.4628 3
-3 -1 8 331.334 19.6459 2
2 1 -8 441.554 27.4415 3
2 1 -8 432.313 23.047 2
2 1 -8 429.223 18.4803 1
-2 -1 8 469.173 24.2217 2
1 1 -8 90.5331 7.05882 1
1 1 -8 93.9732 12.6424 2
1 1 -8 96.2717 15.0755 3
-1 -1 8 112.938 13.5846 2
-1 -1 8 93.1516 6.97703 1
0 1 -8 14.2405 6.93903 2
0 -1 8 23.5087 8.05829 2
0 -1 8 17.948 4.36739 1
-1 1 -8 4.99644 8.625 2
1 -1 8 14.3765 7.77992 2
1 -1 8 5.77172 4.69988 1
-2 1 -8 271.667 22.6225 2
-2 1 -8 289.028 22.3655 3
2 -1 8 275.811 18.4582 1
2 -1 8 236.391 18.5724 2
-3 1 -8 12.645 11.2823 2
3 -1 8 24.8075 9.86365 1
-4 1 -8 -8.7566 11.3267 2
4 -1 8 -2.002 13.4643 1
8 0 -8 1.56727 12.2719 3
7 0 -8 46.1524 15.7064 3
6 0 -8 50.2373 13.184 3
6 0 -8 47.351 6.99364 2
5 0 -8 59.9769 10.2946 1
5 0 -8 55.8437 8.54521 2
5 0 -8 35.5108 11.9932 3
-5 0 8 53.2497 9.86187 2
-5 0 8 42.9346 12.8462 3
4 0 -8 2.83407 4.75188 1
4 0 -8 3.71775 6.0687 2
4 0 -8 8.35442 7.14174 3
-4 0 8 4.43016 7.45959 2
3 0 -8 279.259 17.7377 2
3 0 -8 254.313 20.6493 3
3 0 -8 262.002 13.8357 1
-3 0 8 296.978 19.2869 2
2 0 -8 1283.45 49.175 2
2 0 -8 1326.04 55.3267 3
2 0 -8 1308.43 40.9818 1
-2 0 8 1269.3 49.3896 2
1 0 -8 1886.88 66.1976 2
-1 0 8 1803.81 65.4081 2
0 0 -8 1130.94 46.2566 2
0 0 8 1081.03 34.2867 1
0 0 8 1048.98 49.6204 2
-1 0 -8 2466.24 87.8538 2
1 0 8 2541.53 77.9528 1
1 0 8 2407.53 84.3093 2
-2 0 -8 1951.75 74.5044 2
2 0 8 1918.17 67.3158 1
-3 0 -8 204.086 24.4149 2
3 0 8 197.425 20.2612 1
-4 0 -8 106.077 19.8791 2
4 0 8 92.8551 18.9222 1
8 -1 -8 184.965 24.7992 3
7 -1 -8 105.234 18.3926 3
6 -1 -8 779.597 40.1863 3
6 -1 -8 725.85 28.8114 2
5 -1 -8 283.424 18.8508 1
5 -1 -8 270.3 23.0776 3
5 -1 -8 285.228 17.322 2
-5 1 8 276.144 18.0278 2
4 -1 -8 242.641 16.0141 2
4 -1 -8 201.497 13.507 1
4 -1 -8 222.321 19.1958 3
-4 1 8 212.291 16.3456 2
3 -1 -8 129.899 16.725 3
3 -1 -8 153.494 14.6416 2
3 -1 -8 133.261 8.82943 1
-3 1 8 113.467 13.1909 2
2 -1 -8 779.115 40.1962 3
2 -1 -8 814.093 35.5197 2
-2 1 8 777.909 35.1522 2
1 -1 -8 2334.34 81.1973 2
0 -1 -8 706.244 34.7702 2
0 1 8 739.688 34.1731 2
-1 -1 -8 462.417 28.7938 2
1 1 8 402.955 18.5699 1
1 1 8 399.286 28.0163 2
-2 -1 -8 1196.97 52.7267 2
2 1 8 1080.21 44.0965 1
-3 -1 -8 693.736 40.5167 2
3 1 8 600.375 34.2623 1
-4 -1 -8 11.3412 12.954 2
4 1 8 56.9741 16.5988 1
8 -2 -8 14.2682 13.6561 3
7 -2 -8 77.8146 7.29134 2
7 -2 -8 78.8262 17.4567 3
6 -2 -8 18.4726 6.34517 2
6 -2 -8 21.1062 8.98473 1
5 -2 -8 289.758 18.6971 1
5 -2 -8 309.568 18.8609 2
5 -2 -8 317.465 24.448 3
4 -2 -8 83.3514 8.86117 1
4 -2 -8 89.9826 12.3844 2
4 -2 -8 93.678 16.0218 3
-4 2 8 74.4512 12.4128 2
3 -2 -8 129.394 18.6644 3
3 -2 -8 118.337 14.5509 2
3 -2 -8 114.761 7.1604 1
3 -2 -8 136.245 7.79297 1
-3 2 8 124.432 13.8069 2
2 -2 -8 672.412 32.7252 2
-2 2 8 644.924 36.7703 2
1 -2 -8 202.265 18.8908 2
-1 2 8 197.143 17.3273 2
0 -2 -8 72.0358 14.5773 2
0 2 8 57.7232 11.9868 2
-1 -2 -8 670.969 37.3516 2
1 2 8 636.37 24.1229 1
1 2 8 626.291 24.9595 1
-2 -2 -8 436.452 31.9134 2
2 2 8 382.861 23.166 1
2 2 8 422.555 21.3025 1
-3 -2 -8 243.54 24.5902 2
3 2 8 196.487 22.4915 1
8 -3 -8 94.6297 16.3333 3
8 -3 -8 95.2918 20.7856 1
7 -3 -8 66.3259 7.91912 2
7 -3 -8 61.0677 15.1226 3
7 -3 -8 62.2152 15.3301 1
6 -3 -8 98.9798 14.8045 1
6 -3 -8 122.694 12.7422 2
6 -3 -8 101.545 16.8396 3
5 -3 -8 740.373 32.8965 1
5 -3 -8 729.522 32.6727 2
5 -3 -8 715.597 38.7498 3
4 -3 -8 172.239 19.7233 3
4 -3 -8 158.406 16.4029 2
4 -3 -8 148.338 11.3463 1
4 -3 -8 156.538 10.7816 1
3 -3 -8 692.848 33.0805 2
3 -3 -8 654.588 38.3297 3
-3 3 8 638.44 32.8148 2
2 -3 -8 486.742 28.0439 2
-2 3 8 432.302 26.128 2
1 -3 -8 2019.5 75.4017 2
0 -3 -8 736.497 39.3608 2
-1 -3 -8 497.779 32.5638 2
1 3 8 447.595 19.1744 1
1 3 8 455.057 19.9981 1
-2 -3 -8 507.731 35.3048 2
2 3 8 491.584 24.8727 1
2 3 8 516.583 27.3771 1
3 3 8 769.659 34.8868 1
3 3 8 576.641 36.422 1
8 -4 -8 33.5157 11.8317 3
8 -4 -8 14.4777 13.0863 1
7 -4 -8 244.701 24.3922 1
7 -4 -8 283.355 16.9866 2
7 -4 -8 245.732 22.8346 3
6 -4 -8 147.329 16.6553 1
6 -4 -8 152.599 18.8064 3
6 -4 -8 142.191 15.1505 2
5 -4 -8 19.6885 9.29764 2
5 -4 -8 8.53169 11.3052 3
5 -4 -8 24.0782 7.92569 1
4 -4 -8 580.08 35.8032 3
4 -4 -8 556.996 29.6887 2
4 -4 -8 523.55 21.7996 1
3 -4 -8 6.63052 9.18014 2
3 -4 -8 17.8084 9.5542 3
2 -4 -8 25.2077 11.2296 2
1 -4 -8 14.3569 11.2627 2
0 -4 -8 92.0122 17.684 2
-1 -4 -8 22.3119 13.4157 2
1 4 8 21.7968 5.69812 1
1 4 8 10.085 5.62408 1
-2 -4 -8 68.3912 17.5515 2
2 4 8 111.573 14.9467 1
2 4 8 96.6372 12.8542 1
7 -5 -8 53.9749 10.304 2
7 -5 -8 58.3671 13.3292 3
7 -5 -8 55.2834 14.0916 1
6 -5 -8 30.5315 9.90737 2
6 -5 -8 35.9364 10.362 1
6 -5 -8 24.9621 12.9746 3
5 -5 -8 169.885 17.5077 2
5 -5 -8 193.378 21.1555 3
5 -5 -8 152.419 13.4074 1
4 -5 -8 789.094 39.5897 2
4 -5 -8 816.656 29.0887 1
4 -5 -8 885.656 46.3883 3
3 -5 -8 26.2979 13.1743 2
2 -5 -8 802.286 41.8728 2
1 -5 -8 468.474 32.4501 2
0 -5 -8 131.115 20.2587 2
-1 -5 -8 132.582 21.6752 2
1 5 8 113.914 10.3782 1
1 5 8 87.2799 9.42287 1
-2 -5 -8 183.666 25.9262 2
2 5 8 212.046 19.5642 1
7 -6 -8 30.5233 12.8524 1
7 -6 -8 25.9363 9.73783 2
7 -6 -8 27.1167 13.1058 3
6 -6 -8 578.069 31.7597 2
6 -6 -8 603.975 37.4671 3
6 -6 -8 633.886 31.33 1
5 -6 -8 268.303 16.8476 1
5 -6 -8 276.684 26.8205 2
4 -6 -8 536.913 32.6973 2
4 -6 -8 492.161 37.4517 3
4 -6 -8 538.338 19.818 1
3 -6 -8 980.694 47.8099 2
2 -6 -8 93.2168 18.3146 2
1 -6 -8 358.554 29.8125 2
0 -6 -8 41.3183 15.2653 2
1 6 8 3.18631 6.6699 1
1 6 8 12.4862 6.74433 1
7 -7 -8 61.1664 14.3356 1
7 -7 -8 64.7484 15.4442 3
6 -7 -8 16.0067 8.61053 1
6 -7 -8 -4.9613 9.96865 2
6 -7 -8 -11.19 9.40698 3
5 -7 -8 2.81534 10.0947 2
5 -7 -8 12.9936 6.64983 1
5 -7 -8 6.05229 10.6933 3
4 -7 -8 75.9379 6.54116 1
4 -7 -8 88.5453 18.9848 3
4 -7 -8 112.199 18.8445 2
3 -7 -8 24.1939 13.6623 2
2 -7 -8 -1.4058 11.3554 2
1 -7 -8 120.997 21.6983 2
0 -7 -8 27.4281 15.1227 2
6 -8 -8 177.975 22.3339 2
6 -8 -8 228.214 18.581 1
6 -8 -8 173.567 23.4301 3
5 -8 -8 347.771 28.1424 2
5 -8 -8 326.679 31.685 3
4 -8 -8 364.13 30.5297 2
4 -8 -8 392.271 14.3451 1
3 -8 -8 512.572 36.8938 2
2 -8 -8 362.266 33.1752 2
1 -8 -8 134.58 22.8576 2
6 -9 -8 -8.1966 7.79708 1
6 -9 -8 16.367 13.3604 3
6 -9 -8 -7.6895 10.4319 2
5 -9 -8 31.3757 14.9477 2
5 -9 -8 -2.6492 12.2519 3
4 -9 -8 102.155 6.1043 1
3 -9 -8 -6.693 12.537 2
2 -9 -8 8.51438 14.1865 2
1 13 -9 -22.675 12.0268 3
-1 -13 9 -2.8446 11.1543 1
0 13 -9 -1.541 12.9532 3
0 -13 9 14.4364 12.02 1
-1 13 -9 39.3613 15.2331 3
1 -13 9 31.2832 16.2952 3
1 -13 9 41.5208 14.2212 1
-2 13 -9 -17.86 9.00152 3
2 -13 9 2.68222 10.6499 1
3 -13 9 16.5572 11.9066 1
2 12 -9 35.5481 16.7381 3
-2 -12 9 59.4275 16.0638 1
1 12 -9 33.9335 13.9692 3
0 12 -9 246.466 25.9095 3
0 -12 9 214.544 22.6084 1
-1 12 -9 521.499 33.0586 3
1 -12 9 552.692 34.0722 1
1 -12 9 506.648 32.0883 3
-2 12 -9 218.21 19.485 3
2 -12 9 212.341 23.8699 1
-3 12 -9 316.938 16.9132 3
4 -12 9 236.926 27.0283 1
3 11 -9 113.064 23.283 3
-3 -11 9 104.993 18.4568 1
2 11 -9 169.715 24.2442 3
-2 -11 9 189.525 20.9859 1
1 11 -9 397.623 30.2647 3
-1 -11 9 435.453 28.5683 1
0 11 -9 44.8841 13.5876 3
0 -11 9 49.4001 12.8203 1
-1 11 -9 83.8844 14.9321 3
1 -11 9 93.8717 18.3302 3
1 -11 9 101.77 17.0128 1
-2 11 -9 498.494 27.1265 3
2 -11 9 498.794 33.0123 1
-3 11 -9 51.6361 8.71062 3
3 -11 9 45.449 15.2717 1
4 -11 9 118.434 21.2654 1
4 10 -9 6.69904 14.4303 3
3 10 -9 96.1804 20.0264 3
-3 -10 9 59.3329 15.4384 1
2 10 -9 31.3666 13.8923 3
-2 -10 9 -1.0846 9.90223 1
1 10 -9 24.7606 12.2041 3
-1 -10 9 47.3315 12.1726 1
0 10 -9 43.9884 13.3996 2
0 10 -9 41.4806 12.3939 3
0 -10 9 28.8976 12.9921 3
0 -10 9 38.0267 12.0118 1
-1 10 -9 761.567 40.3761 2
-1 10 -9 759.878 36.5837 3
1 -10 9 795.54 39.8892 1
-2 10 -9 321.838 21.2875 3
-2 10 -9 320.681 27.4 2
2 -10 9 330.313 26.3099 1
-3 10 -9 137.94 20.1818 2
-3 10 -9 137.116 13.1959 3
3 -10 9 109.565 18.7549 1
-4 10 -9 264.037 10.695 3
-4 10 -9 206.178 25.868 2
4 -10 9 174.301 24.3505 1
4 9 -9 264.311 29.4782 3
3 9 -9 846.986 45.9573 3
-3 -9 9 850.896 42.207 1
2 9 -9 192.406 22.0444 3
-2 -9 9 182.354 19.1793 1
1 9 -9 770.85 38.2588 2
1 9 -9 850.843 41.4823 3
-1 -9 9 872.06 39.5307 1
0 9 -9 1070.4 44.9409 3
0 9 -9 868.953 42.1414 2
0 -9 9 830.663 44.0581 3
0 -9 9 1016.53 43.3747 1
-1 9 -9 841.473 42.6952 2
-1 9 -9 899.679 39.5476 3
1 -9 9 868.548 41.4761 1
-2 9 -9 1136 50.3948 2
-2 9 -9 1052.66 43.8484 3
2 -9 9 1060.48 48.8876 1
-3 9 -9 716.796 40.6849 2
3 -9 9 724.262 40.0896 1
-4 9 -9 359.847 29.8445 2
-4 9 -9 383.238 19.9818 3
-4 9 -9 416.042 19.2124 3
4 -9 9 375.173 30.8196 1
-5 9 -9 181.809 24.1517 2
5 -9 9 155.712 25.5593 1
5 8 -9 -3.5452 9.36517 3
4 8 -9 38.43 15.3522 3
3 8 -9 117.82 19.155 3
-3 -8 9 114.994 15.8757 1
2 8 -9 304.709 25.9925 3
2 8 -9 363.13 28.0187 2
-2 -8 9 362.814 23.7263 1
1 8 -9 1.63891 8.62932 3
-1 -8 9 -1.7128 7.14726 1
-1 -8 9 8.35726 8.39775 3
0 8 -9 12.0438 8.53906 3
0 8 -9 23.811 12.4872 2
0 8 -9 4.09298 9.97089 1
0 -8 9 17.0945 8.93576 3
0 -8 9 26.1278 9.78985 1
-1 8 -9 3.79654 9.26927 2
-1 8 -9 2.16077 7.55878 3
1 -8 9 11.9805 8.83443 1
-2 8 -9 116.799 17.2296 2
-2 8 -9 106.997 13.7335 3
2 -8 9 85.4696 17.8148 1
-3 8 -9 55.6176 11.1713 3
-3 8 -9 71.7471 15.1891 2
3 -8 9 55.607 14.1488 1
-4 8 -9 -19.932 11.6171 2
-4 8 -9 6.24458 6.92488 3
-4 8 -9 -6.7093 7.62104 3
4 -8 9 5.63684 11.091 1
-5 8 -9 15.8088 13.5318 2
5 -8 9 15.8617 15.5256 1
5 7 -9 28.5464 15.5952 3
-5 -7 9 68.7975 16.437 2
4 7 -9 274.948 25.8445 3
-4 -7 9 221.951 23.541 2
3 7 -9 300.44 20.747 2
3 7 -9 262.04 24.3086 3
-3 -7 9 268.588 21.8953 1
-3 -7 9 290.861 23.8464 2
2 7 -9 1474.8 67.2154 1
2 7 -9 1365.59 54.4 2
2 7 -9 1474.17 59.228 3
-2 -7 9 1395.3 53.9122 1
-2 -7 9 1389.87 58.9791 2
1 7 -9 302.035 22.83 1
1 7 -9 339.892 22.8093 2
1 7 -9 324.332 23.8162 3
-1 -7 9 361.008 22.2786 1
-1 -7 9 325.513 25.4358 3
-1 -7 9 339.156 25.2631 2
0 7 -9 1237.12 50.5434 3
0 7 -9 1224.94 50.1429 2
0 7 -9 1178.07 50.3332 1
0 -7 9 1231.1 48.3465 1
-1 7 -9 1543.3 62.8338 2
-1 7 -9 1631.08 62.2689 1
-1 7 -9 1623.27 61.6642 3
1 -7 9 1651.25 61.0766 1
-2 7 -9 957.5 43.9153 1
-2 7 -9 989.98 47.3923 2
-2 7 -9 1039.4 43.7898 3
2 -7 9 1037.23 45.1304 1
-3 7 -9 1177.06 49.2836 3
-3 7 -9 1213.34 54.3913 2
3 -7 9 1229.78 53.9393 1
-4 7 -9 520.317 29.4545 3
-4 7 -9 491.637 33.1568 2
-4 7 -9 554.8 27.3301 3
4 -7 9 540.501 35.5262 1
-5 7 -9 224.824 21.1021 3
-5 7 -9 234.945 26.4318 2
5 -7 9 236.151 29.4147 1
6 6 -9 45.1372 17.138 3
-6 -6 9 28.4827 19.8886 2
5 6 -9 103.53 19.6781 3
-5 -6 9 102.497 15.4494 2
4 6 -9 207.605 16.6173 2
4 6 -9 177.48 21.6327 3
-4 -6 9 211.881 20.0113 2
3 6 -9 221.581 17.7409 2
3 6 -9 220.668 20.0307 3
-3 -6 9 233.86 20.7526 1
-3 -6 9 225.725 20.1807 2
2 6 -9 663.415 33.7868 1
2 6 -9 668.146 32.3041 2
2 6 -9 664.916 35.2801 3
-2 -6 9 630.417 30.1022 1
-2 -6 9 589.265 37.1415 3
-2 -6 9 661.823 34.5619 2
1 6 -9 3138.33 105.047 3
1 6 -9 3037.3 102.612 1
1 6 -9 3091.02 102.173 2
-1 -6 9 3011.71 98.8715 1
-1 -6 9 3069.39 104.858 2
0 6 -9 147.273 15.3073 1
0 6 -9 125.809 15.2302 3
0 6 -9 148.836 14.7919 2
0 -6 9 138.779 17.0088 2
0 -6 9 136.337 14.4079 1
-1 6 -9 641.829 32.5097 2
-1 6 -9 597.021 32.2569 3
-1 6 -9 598.341 30.5893 1
1 -6 9 598.828 32.3292 2
1 -6 9 611.727 30.2725 1
-2 6 -9 355.849 25.361 2
-2 6 -9 312.752 21.528 1
-2 6 -9 289.136 22.4102 3
2 -6 9 334.019 23.0208 1
-3 6 -9 19.4636 8.45382 3
-3 6 -9 17.8559 11.3387 2
-3 6 -9 22.9271 9.185 3
3 -6 9 12.1013 10.1511 1
-4 6 -9 4.7423 8.77429 3
-4 6 -9 -3.3707 7.98406 3
-4 6 -9 11.4724 11.3005 2
4 -6 9 6.91304 12.5326 1
-5 6 -9 7.6961 11.7396 3
-5 6 -9 25.2709 14.7687 2
-5 6 -9 4.56269 11.7312 3
5 -6 9 -3.4733 11.8186 1
6 5 -9 -11.487 11.7293 3
-6 -5 9 -10.026 8.45516 2
5 5 -9 54.7376 13.7301 3
-5 -5 9 31.5666 10.6398 2
4 5 -9 69.3266 15.204 3
4 5 -9 51.493 10.2537 2
-4 -5 9 65.3682 13.3594 2
3 5 -9 142.231 18.213 3
3 5 -9 137.011 15.6399 1
3 5 -9 116.978 13.4539 2
-3 -5 9 137.668 15.9189 1
2 5 -9 761.736 34.2446 2
2 5 -9 737.572 34.6526 1
2 5 -9 739.411 37.97 3
-2 -5 9 775.096 37.4374 2
-2 -5 9 791.445 32.5864 1
-2 -5 9 692.871 39.7211 3
1 5 -9 448.286 27.2995 3
1 5 -9 430.593 23.6482 1
1 5 -9 388.404 23.4816 2
-1 -5 9 463.24 26.7832 2
-1 -5 9 427.002 22.4987 1
0 5 -9 103.413 14.5721 2
0 5 -9 111.052 13.4067 1
0 5 -9 109.606 15.6493 3
0 -5 9 118.129 11.8811 1
0 -5 9 105.695 14.8146 2
-1 5 -9 649.78 29.8855 1
-1 5 -9 609.195 33.1299 3
-1 5 -9 633.708 33.2874 2
1 -5 9 635.704 32.2646 2
1 -5 9 617.526 29.5333 1
-2 5 -9 347.303 24.7618 2
-2 5 -9 332.199 24.685 1
-2 5 -9 304.457 23.34 3
2 -5 9 312.584 22.1683 1
-3 5 -9 396.22 27.0525 3
-3 5 -9 330.122 23.2955 3
-3 5 -9 380.809 27.5976 2
3 -5 9 405.302 27.9053 1
-4 5 -9 493.342 33.275 2
-4 5 -9 579.825 31.195 3
4 -5 9 603.842 36.3616 1
-5 5 -9 414.675 31.4394 2
5 -5 9 410.598 35.0331 1
7 4 -9 102.798 21.5964 3
6 4 -9 146.547 22.094 3
-6 -4 9 119.822 14.1303 2
5 4 -9 260.543 17.1252 2
5 4 -9 244.788 24.5458 3
-5 -4 9 270.778 19.7169 2
4 4 -9 1526.34 54.5695 2
4 4 -9 1499.05 59.8508 1
4 4 -9 1551.04 62.8104 3
-4 -4 9 1515.24 58.2052 2
3 4 -9 1039.22 41.3084 2
3 4 -9 1050.43 43.7899 1
3 4 -9 1013.21 47.3804 3
-3 -4 9 1062.28 44.5509 2
-3 -4 9 1038.72 51.7798 3
2 4 -9 1430.81 58.5745 3
2 4 -9 1447.33 54.2215 2
2 4 -9 1482.7 54.0284 1
-2 -4 9 1352.68 60.4835 3
-2 -4 9 1553.91 57.5272 2
-2 -4 9 1477.37 51.5412 1
1 4 -9 3750.52 124.487 3
1 4 -9 3718.99 120.007 2
1 4 -9 3848.59 117.278 1
-1 -4 9 3455.1 127.172 2
-1 -4 9 3809.3 114.814 1
0 4 -9 4289.62 136.836 2
0 4 -9 4361.03 140.407 3
0 4 -9 4299.73 131.735 1
0 -4 9 4102.34 135.774 2
0 -4 9 4256.91 130.545 1
-1 4 -9 86.9469 11.423 1
-1 4 -9 96.2863 15.8425 3
-1 4 -9 79.4249 14.1554 2
1 -4 9 87.1142 13.2678 2
1 -4 9 79.3594 11.2278 1
-2 4 -9 500.607 30.7741 2
2 -4 9 531.242 27.8191 1
-3 4 -9 339.9 26.2927 2
-3 4 -9 337.668 22.843 3
3 -4 9 326.763 24.5536 1
-4 4 -9 4.44981 11.7892 2
4 -4 9 22.2629 11.6447 1
-5 4 -9 77.8928 17.8451 2
5 -4 9 85.1616 18.4738 1
7 3 -9 5.50171 12.87 3
6 3 -9 78.697 17.7154 3
-6 -3 9 82.6437 11.1806 2
5 3 -9 25.1694 11.8604 3
5 3 -9 13.8021 6.93394 2
-5 -3 9 20.7165 9.44446 2
4 3 -9 48.0873 14.9205 3
4 3 -9 33.8289 8.9765 2
4 3 -9 44.0712 12.619 1
-4 -3 9 37.2068 10.2879 2
3 3 -9 209.304 16.7315 2
3 3 -9 219.465 16.6768 1
3 3 -9 198.215 20.1287 3
-3 -3 9 243.301 18.2115 2
-3 -3 9 179.095 20.6058 3
2 3 -9 15.2699 9.19996 3
2 3 -9 2.13157 6.64722 2
2 3 -9 6.89487 5.30887 1
-2 -3 9 1.57526 6.75959 2
-2 -3 9 13.3426 6.33162 1
1 3 -9 11.3526 8.47482 3
1 3 -9 17.455 8.58319 2
1 3 -9 15.1442 5.63875 1
-1 -3 9 21.0785 6.004 1
0 3 -9 701.666 28.95 1
0 3 -9 733.999 35.2839 2
0 3 -9 699.16 37.7128 3
0 -3 9 707.505 28.6228 1
0 -3 9 760.767 34.6498 2
-1 3 -9 1339.82 54.5984 2
-1 3 -9 1357.53 47.6608 1
1 -3 9 1291.02 47.9066 1
1 -3 9 1306.08 52.0541 2
-2 3 -9 531.839 31.9732 2
2 -3 9 498.025 26.9472 1
-3 3 -9 -1.8403 9.60838 2
3 -3 9 17.4118 9.40611 1
-4 3 -9 111.765 19.5237 2
4 -3 9 111.756 18.4764 1
7 2 -9 -1.4706 11.4784 3
6 2 -9 121.977 18.6909 3
6 2 -9 143.492 11.4909 2
-6 -2 9 165.614 15.0062 2
5 2 -9 623.078 27.8588 2
5 2 -9 650.797 33.2509 1
5 2 -9 672.633 36.626 3
-5 -2 9 661.693 31.4157 2
4 2 -9 1607.63 59.7661 1
4 2 -9 1638.46 66.4106 3
4 2 -9 1664.32 57.6404 2
-4 -2 9 1645.98 60.6372 2
3 2 -9 1791.46 64.9915 2
3 2 -9 1899.56 72.8375 3
3 2 -9 1845.21 63.6786 1
-3 -2 9 1956.42 68.1766 2
2 2 -9 1958.86 66.3855 1
2 2 -9 1891.54 73.5797 3
2 2 -9 1879.88 67.2387 2
-2 -2 9 1859.75 61.7084 1
-2 -2 9 1927.34 68.8232 2
1 2 -9 2561.15 85.2462 2
1 2 -9 2363.54 90.0874 3
1 2 -9 2549.54 77.4115 1
-1 -2 9 2322.03 90.4781 2
-1 -2 9 2532.82 76.3766 1
0 2 -9 3387.12 100.584 1
0 2 -9 3143.31 109.304 2
0 2 -9 3379.32 116.153 3
0 -2 9 3273.7 108.768 2
0 -2 9 3298.4 100.242 1
-1 2 -9 506.443 30.3497 2
1 -2 9 510.17 23.6568 1
1 -2 9 512.139 27.9196 2
-2 2 -9 8.85029 8.3892 3
-2 2 -9 23.4437 12.9188 2
2 -2 9 17.4747 7.51302 1
-3 2 -9 622.073 37.7893 2
3 -2 9 601.804 33.6197 1
-4 2 -9 152.541 22.2448 2
4 -2 9 148.36 21.3559 1
7 1 -9 71.6424 16.9647 3
6 1 -9 125.881 19.8546 3
6 1 -9 114.729 11.2269 2
-6 -1 9 123.95 13.4445 2
5 1 -9 281.543 19.8903 1
5 1 -9 330.47 26.2341 3
5 1 -9 284.45 17.5215 2
-5 -1 9 296.87 20.6021 2
4 1 -9 601.511 27.6661 1
4 1 -9 566.742 34.2614 3
4 1 -9 595.306 28.1895 2
-4 -1 9 593.681 29.5205 2
3 1 -9 899.347 34.4132 1
3 1 -9 953.07 38.7794 2
3 1 -9 919.058 44.67 3
-3 -1 9 892.999 39.4703 2
2 1 -9 1169.11 39.4585 1
2 1 -9 1211.91 53.5849 3
2 1 -9 1154.95 46.6356 2
-2 -1 9 1137.65 47.1143 2
1 1 -9 232.704 22.3182 3
1 1 -9 203.466 16.6496 2
1 1 -9 206.491 10.4751 1
-1 -1 9 207.492 10.4426 1
-1 -1 9 226.703 17.9635 2
0 1 -9 585.112 32.5041 2
0 -1 9 660.51 31.2704 2
0 -1 9 629.123 23.0962 1
-1 1 -9 1243.05 52.5642 2
1 -1 9 1160.99 42.2174 1
-2 1 -9 201.939 21.4826 2
2 -1 9 226.706 17.3289 1
-3 1 -9 146.127 21.4743 2
3 -1 9 184.253 19.356 1
-4 1 -9 -7.5398 13.158 2
4 -1 9 3.43815 13.3624 1
7 0 -9 1.74546 3.90943 2
7 0 -9 -5.8344 9.88879 3
6 0 -9 -5.8918 5.15272 2
6 0 -9 0.99853 10.374 3
-6 0 9 -1.6704 6.94496 2
5 0 -9 95.5975 12.3752 1
5 0 -9 101.33 11.8736 2
5 0 -9 119.914 18.5285 3
-5 0 9 89.7028 12.7021 2
4 0 -9 266.722 18.6069 2
4 0 -9 221.42 15.3194 1
4 0 -9 274.145 23.397 3
-4 0 9 257.171 19.9822 2
3 0 -9 467.402 19.6524 1
3 0 -9 455.633 29.6124 3
3 0 -9 458.221 25.2459 2
-3 0 9 458.132 25.906 2
2 0 -9 301.083 21.4362 2
2 0 -9 328.069 12.6774 1
2 0 -9 322.631 26.2005 3
-2 0 9 312.036 21.6013 2
1 0 -9 1087.67 46.8365 2
-1 0 9 1120.64 46.4851 2
0 0 -9 1716.29 66.3248 2
0 0 9 1647.42 64.4423 2
0 0 9 1733.83 51.0804 1
1 0 9 506.161 21.7501 1
-2 0 -9 101.374 18.1888 2
2 0 9 88.0852 12.1001 1
-3 0 -9 8.8549 14.0032 2
3 0 9 8.03107 9.61988 1
-4 0 -9 481.883 36.4772 2
4 0 9 418.122 34.346 1
7 -1 -9 262.515 13.8916 2
7 -1 -9 254.681 25.5319 3
6 -1 -9 162.777 17.3571 1
6 -1 -9 149.94 13.2516 2
6 -1 -9 157.534 20.4994 3
5 -1 -9 579.827 27.6747 1
5 -1 -9 624.594 28.6812 2
-5 1 9 595 29.6511 2
4 -1 -9 1296.13 49.0414 2
4 -1 -9 1324.06 57.4619 3
4 -1 -9 1250.66 44.1001 1
-4 1 9 1217.7 50.0706 2
3 -1 -9 1509.21 47.3497 1
3 -1 -9 1559.33 65.4915 3
3 -1 -9 1479.17 56.8908 2
-3 1 9 1493 58.6891 2
2 -1 -9 621.614 37.9855 3
2 -1 -9 600.38 31.862 2
-2 1 9 660.843 32.3414 2
1 -1 -9 582.473 32.2501 2
-1 1 9 583.336 30.9819 2
0 -1 -9 1127.22 56.3228 2
-1 -1 -9 452.574 31.446 2
1 1 9 453.234 19.5553 1
1 1 9 485.246 19.0447 1
-2 -1 -9 413.718 32.3895 2
2 1 9 538.802 23.5559 1
2 1 9 476.465 25.2871 1
-3 -1 -9 50.2945 16.2656 2
3 1 9 53.0318 13.2674 1
7 -2 -9 21.4274 14.0416 3
7 -2 -9 1.73522 6.18478 2
6 -2 -9 124.69 13.0878 2
6 -2 -9 153.305 21.9117 3
6 -2 -9 97.8473 13.839 1
5 -2 -9 130.587 12.537 1
5 -2 -9 158.41 14.8193 2
-5 2 9 141.853 17.0069 2
4 -2 -9 257.538 14.1474 1
4 -2 -9 315.37 15.8759 1
4 -2 -9 299.671 20.8861 2
4 -2 -9 284.705 25.3341 3
-4 2 9 293.98 21.1093 2
3 -2 -9 165.776 16.8728 2
3 -2 -9 183.336 21.7742 3
-3 2 9 173.826 16.8771 2
2 -2 -9 61.0015 12.7614 2
-2 2 9 77.4856 13.5111 2
1 -2 -9 397.799 31.3316 2
0 -2 -9 104.781 17.6299 2
-1 -2 -9 141.326 20.9589 2
1 2 9 184.498 10.4644 1
1 2 9 189.502 10.1614 1
-2 -2 -9 123.573 22.6864 2
2 2 9 142.266 14.761 1
2 2 9 142.661 13.6316 1
-3 -2 -9 -9.8553 12.4333 2
3 2 9 -9.3287 10.4468 1
7 -3 -9 53.9465 14.9464 1
7 -3 -9 71.3227 17.1916 3
7 -3 -9 72.5322 10.187 2
6 -3 -9 633.724 36.8602 3
6 -3 -9 558.691 28.9513 1
6 -3 -9 559.305 30.9167 1
6 -3 -9 572.348 28.4313 2
5 -3 -9 186.195 16.936 2
5 -3 -9 146.496 12.6719 1
5 -3 -9 144.294 20.8361 3
5 -3 -9 138.6 13.404 1
4 -3 -9 246.931 25.1319 3
4 -3 -9 281.873 13.2111 1
4 -3 -9 245.331 19.9354 2
4 -3 -9 235.067 12.0186 1
3 -3 -9 633.854 34.2854 2
3 -3 -9 709.654 42.0573 3
1 -3 -9 338.105 25.3335 2
0 -3 -9 1239.31 56.699 2
-1 -3 -9 639.443 38.2427 2
1 3 9 538.574 19.7724 1
1 3 9 561.625 19.5626 1
-2 -3 -9 254.078 26.9498 2
2 3 9 207.651 16.4038 1
7 -4 -9 190.312 22.3881 3
7 -4 -9 136.488 19.3338 1
7 -4 -9 176.745 15.5365 2
6 -4 -9 187.234 21.6626 3
6 -4 -9 194.823 17.7422 2
6 -4 -9 161.139 15.7478 1
6 -4 -9 183.502 17.5325 1
5 -4 -9 893.049 46.9915 3
5 -4 -9 886.995 39.6101 2
5 -4 -9 812.262 32.8581 1
4 -4 -9 118.512 20.0684 3
4 -4 -9 132.413 18.0278 2
4 -4 -9 119.606 7.05915 1
4 -4 -9 117.45 7.36685 1
3 -4 -9 728.37 38.3726 2
3 -4 -9 745.991 44.9787 3
2 -4 -9 323.322 26.3661 2
1 -4 -9 11.3769 9.38621 2
0 -4 -9 16.2345 12.3165 2
-1 -4 -9 136.481 23.2493 2
7 -5 -9 7.1264 12.4115 3
7 -5 -9 -8.7953 7.5506 2
7 -5 -9 -18.162 11.0797 1
6 -5 -9 70.0163 15.8327 3
6 -5 -9 60.8373 12.7378 2
6 -5 -9 73.6851 11.7532 1
5 -5 -9 129.658 11.2332 1
5 -5 -9 125.81 20.7981 3
5 -5 -9 109.672 16.7321 2
5 -5 -9 112.975 10.981 1
4 -5 -9 -2.0469 10.864 3
4 -5 -9 -4.0465 8.86737 2
3 -5 -9 188.27 22.7543 2
2 -5 -9 16.7297 12.8707 2
1 -5 -9 265.469 26.9531 2
0 -5 -9 404.712 33.0124 2
7 -6 -9 222.41 26.962 1
7 -6 -9 225.442 23.3066 3
6 -6 -9 177.173 21.8307 3
6 -6 -9 185.249 16.47 1
6 -6 -9 120.523 18.2391 2
5 -6 -9 326.94 29.9812 3
5 -6 -9 316.907 27.5276 2
5 -6 -9 366.788 17.4609 1
4 -6 -9 458.061 36.1644 3
4 -6 -9 474.389 32.3111 2
3 -6 -9 113.384 19.6762 2
2 -6 -9 268.178 27.4572 2
1 -6 -9 101.65 19.5025 2
0 -6 -9 53.7621 17.2773 2
6 -7 -9 -8.2697 9.47027 3
6 -7 -9 1.86496 6.68842 1
6 -7 -9 -1.8154 10.2639 2
5 -7 -9 -2.1556 13.0277 3
5 -7 -9 -4.0351 3.89422 1
5 -7 -9 -4.809 10.6585 2
4 -7 -9 -3.7807 11.6588 2
4 -7 -9 22.9932 15.0679 3
3 -7 -9 -2.668 11.9341 2
2 -7 -9 77.1286 20.207 2
1 -7 -9 -4.0299 13.5542 2
6 -8 -9 126.351 22.3061 3
6 -8 -9 155.541 21.4699 2
6 -8 -9 166.664 14.9266 1
5 -8 -9 84.261 6.74513 1
5 -8 -9 100.697 21.1804 3
5 -8 -9 81.273 18.8179 2
4 -8 -9 168.966 25.0555 2
4 -8 -9 156.831 26.1779 3
3 -8 -9 204.324 27.7857 2
2 -8 -9 34.9248 17.6718 2
0 13 -10 124.76 21.634 3
0 -13 10 115.032 19.1516 1
-1 13 -10 60.9214 16.2354 3
1 -13 10 37.3527 14.9424 1
-2 13 -10 82.6835 15.574 3
2 -13 10 65.3728 16.775 1
2 12 -10 65.7672 20.4484 3
-2 -12 10 43.4507 14.5209 1
1 12 -10 106.987 19.8306 3
-1 -12 10 129.841 19.7761 1
0 12 -10 378.589 30.9697 3
0 -12 10 376.799 29.1057 1
-1 12 -10 142.221 19.4779 3
1 -12 10 120.746 18.9741 1
-2 12 -10 221.002 20.1775 3
-3 12 -10 71.0455 10.3076 3
3 -12 10 30.5141 15.4533 1
3 11 -10 0.77663 12.9028 3
-3 -11 10 12.5435 12.7262 1
2 11 -10 163.215 23.7131 3
1 11 -10 139.699 21.3688 3
-1 -11 10 131.564 18.4279 1
-1 11 -10 364.706 29.7701 2
-1 11 -10 387.15 26.6147 3
1 -11 10 364.671 28.1705 1
-2 11 -10 241.567 20.4956 3
-2 11 -10 222.954 25.311 2
2 -11 10 171.356 22.468 1
-3 11 -10 172.691 24.7543 2
3 -11 10 202.565 25.2831 1
-4 11 -10 1.22098 15.7651 2
4 -11 10 18.7894 13.4811 1
4 10 -10 51.0896 18.8924 3
3 10 -10 65.1122 17.6936 3
-3 -10 10 75.0979 19.0424 1
2 10 -10 178.28 23.5052 3
-2 -10 10 166.797 20.3387 1
1 10 -10 110.002 17.7285 3
-1 -10 10 101.458 16.3987 1
0 10 -10 21.1464 12.0123 2
0 10 -10 34.8006 10.8871 3
0 -10 10 8.19575 9.57457 1
0 -10 10 36.9812 15.8145 3
-1 10 -10 204.306 24.1865 2
-1 10 -10 199.754 19.7883 3
1 -10 10 191.435 22.1639 1
-2 10 -10 175.365 17.5919 3
-2 10 -10 134.808 20.9551 2
2 -10 10 177.842 21.9153 1
-3 10 -10 162.423 23.0475 2
-3 10 -10 134.918 15.0015 3
3 -10 10 127.983 19.8323 1
-4 10 -10 86.5132 10.5785 3
-4 10 -10 97.5652 20.0915 2
4 9 -10 309.477 35.9985 3
3 9 -10 157.509 23.5458 3
-3 -9 10 113.537 18.1223 1
2 9 -10 19.3835 10.5869 2
2 9 -10 8.60507 11.1939 3
-2 -9 10 6.343 9.65987 1
1 9 -10 598.9 33.7751 2
-1 -9 10 580.999 32.0208 1
0 9 -10 436.363 27.6762 3
0 9 -10 390.757 28.4172 2
0 -9 10 428.608 27.2258 1
-1 9 -10 353.323 27.3182 2
-1 9 -10 338.498 24.0244 3
1 -9 10 317.523 25.4242 1
-2 9 -10 663.075 39.5505 2
-2 9 -10 694.863 34.8177 3
2 -9 10 767.105 39.1615 1
-3 9 -10 306.796 27.9151 2
-3 9 -10 291.395 20.749 3
3 -9 10 261.135 26.5005 1
-4 9 -10 264.942 28.8928 2
-4 9 -10 225.838 17.2295 3
-4 9 -10 254.106 18.9017 3
4 -9 10 256.656 27.1051 1
5 8 -10 132.649 24.111 3
4 8 -10 31.6167 15.5901 3
3 8 -10 1145.08 53.5416 3
3 8 -10 1069.7 46.4931 2
-3 -8 10 1079.49 48.3491 1
2 8 -10 354.939 27.117 3
2 8 -10 337.458 24.2751 2
-2 -8 10 344.626 23.4685 1
1 8 -10 227.454 19.0488 2
1 8 -10 205.294 22.2841 3
-1 -8 10 239.893 23.3979 1
0 8 -10 12.6996 10.3935 3
0 8 -10 -8.0147 8.98495 2
0 -8 10 0.50816 8.3356 1
-1 8 -10 41.867 11.8631 3
-1 8 -10 19.3357 12.0054 2
-2 8 -10 67.8421 15.981 2
-2 8 -10 53.0388 12.4694 3
2 -8 10 63.6739 13.5515 1
-3 8 -10 70.2713 13.7927 3
-3 8 -10 52.8504 15.9567 2
3 -8 10 66.4454 15.419 1
-4 8 -10 63.1748 12.3859 3
-4 8 -10 73.9343 12.5416 3
-4 8 -10 87.7751 19.8407 2
4 -8 10 60.9377 16.8266 1
4 7 -10 186.466 23.3462 3
3 7 -10 566.744 34.5591 3
3 7 -10 588.427 35.5407 2
-3 -7 10 622.322 33.6086 1
2 7 -10 153.358 20.9535 2
2 7 -10 210.147 25.63 3
-2 -7 10 200.003 17.5325 1
1 7 -10 39.8073 12.5853 3
1 7 -10 21.1206 9.51124 1
1 7 -10 46.6875 12.3536 2
-1 -7 10 33.8897 9.5851 1
-1 -7 10 32.2305 12.6905 3
0 7 -10 1443.2 58.2992 1
0 7 -10 1458.71 59.5828 2
0 7 -10 1522.74 60.1705 3
0 -7 10 1443.27 56.1064 1
-1 7 -10 693.61 35.1936 1
-1 7 -10 725.503 36.939 3
-1 7 -10 711.547 38.0067 2
1 -7 10 684.216 34.9144 1
-2 7 -10 492.132 32.0526 2
-2 7 -10 504.156 29.8447 3
2 -7 10 507.461 30.2403 1
-3 7 -10 735.023 41.0363 2
-3 7 -10 712.106 37.8608 3
-4 7 -10 404.988 28.6878 3
-4 7 -10 330.74 31.3199 2
-4 7 -10 353.58 26.7694 3
4 -7 10 403.92 31.1877 1
6 6 -10 99.1771 21.3053 3
5 6 -10 475.363 32.7963 3
-5 -6 10 453.018 30.4276 2
4 6 -10 471.527 26.5086 2
4 6 -10 424.471 31.6647 3
-4 -6 10 475.612 33.8069 2
3 6 -10 1277.08 55.6096 3
3 6 -10 1247.85 49.8919 2
-3 -6 10 1245.15 51.2075 1
2 6 -10 2131.87 77.9317 1
2 6 -10 2117.16 81.0455 3
2 6 -10 2158.81 76.5945 2
-2 -6 10 2167.17 74.028 1
1 6 -10 40.5554 11.4814 2
1 6 -10 47.4162 13.2732 3
-1 -6 10 51.559 10.8026 1
0 6 -10 24.3822 9.79689 3
0 6 -10 9.44935 7.10151 1
0 -6 10 15.737 7.68444 1
-1 6 -10 300.267 24.3698 3
-1 6 -10 269.974 20.6899 1
-1 6 -10 327.354 24.6398 2
1 -6 10 287.608 20.1054 1
-2 6 -10 78.8742 15.0097 2
-2 6 -10 44.922 12.6278 3
-2 6 -10 55.7175 11.1656 1
2 -6 10 70.073 13.3076 1
-3 6 -10 -2.6109 9.07051 3
-3 6 -10 1.69169 8.45819 3
-3 6 -10 -0.2304 10.7382 2
3 -6 10 5.74368 9.85455 1
-4 6 -10 34.4566 11.5099 3
-4 6 -10 56.3809 14.4983 3
-4 6 -10 67.4891 16.9473 2
4 -6 10 44.2038 15.0579 1
6 5 -10 5.06732 13.4362 3
5 5 -10 -6.7313 10.2233 3
5 5 -10 -1.1908 7.21702 2
-5 -5 10 -16.246 9.01572 2
4 5 -10 5.16734 10.8573 3
4 5 -10 8.42979 7.6945 2
-4 -5 10 9.14807 9.74245 2
3 5 -10 16.9548 9.19664 3
3 5 -10 16.7985 8.63901 1
3 5 -10 14.4029 8.43427 2
-3 -5 10 5.43023 8.69718 2
-3 -5 10 -5.0761 7.57012 1
2 5 -10 39.2367 12.1357 3
2 5 -10 13.833 7.48209 2
2 5 -10 33.5067 9.18809 1
-2 -5 10 34.6062 8.56216 1
-2 -5 10 17.7632 10.9176 3
-2 -5 10 30.5305 11.0308 2
1 5 -10 346.808 21.7356 1
1 5 -10 325.323 23.216 2
1 5 -10 359.806 26.0222 3
-1 -5 10 349.577 20.3543 1
-1 -5 10 328.5 24.0434 2
0 5 -10 665.484 33.3263 2
0 5 -10 591.132 34.6748 3
0 5 -10 628.311 29.7832 1
0 -5 10 626.391 29.1323 1
-1 5 -10 2168.09 79.7979 2
-1 5 -10 2138.06 73.1191 1
-1 5 -10 1970.7 78.8584 3
1 -5 10 2062.39 72.6026 1
-2 5 -10 446.103 30.8967 3
-2 5 -10 467.614 30.8895 2
2 -5 10 402.678 25.6209 1
-3 5 -10 457.518 27.4776 3
-3 5 -10 418.141 30.4317 3
-3 5 -10 470.299 31.9404 2
3 -5 10 477.857 33.7525 1
-4 5 -10 226.425 25.4829 2
4 -5 10 264.637 26.9075 1
6 4 -10 210.973 25.5102 3
-6 -4 10 197.206 19.2131 2
5 4 -10 121.821 13.9545 2
5 4 -10 112.384 19.3515 3
4 4 -10 637.769 37.3903 3
4 4 -10 609.699 32.9869 1
4 4 -10 653.902 30.0046 2
-4 -4 10 575.9 32.4586 2
3 4 -10 907.066 39.07 2
3 4 -10 937.455 40.5353 1
-3 -4 10 858.334 41.0569 2
2 4 -10 1340.07 57.6374 3
2 4 -10 1351.97 51.1477 1
2 4 -10 1313.63 52.7769 2
-2 -4 10 1343.51 48.8714 1
-2 -4 10 1415.12 55.7059 2
1 4 -10 1581.45 56.3061 1
1 4 -10 1503.1 64.2997 3
1 4 -10 1623.76 61.1335 2
-1 -4 10 1554.2 54.1668 1
-1 -4 10 1588.2 60.939 2
0 4 -10 15.3758 10.3948 3
0 4 -10 20.2893 10.331 2
0 4 -10 20.6776 6.75065 1
0 -4 10 21.4424 7.36357 1
-1 4 -10 1081.15 50.4853 2
-1 4 -10 1148.52 43.3372 1
-1 4 -10 1038.04 51.5081 3
1 -4 10 1159.71 43.9715 1
-2 4 -10 1131.73 51.6169 2
-2 4 -10 1061.96 53.0349 3
2 -4 10 1072.38 45.4925 1
-3 4 -10 348.152 28.4768 2
3 -4 10 413.248 26.9531 1
-4 4 -10 103.791 20.1566 2
4 -4 10 65.4091 16.1384 1
7 3 -10 24.506 14.911 3
6 3 -10 97.4401 11.5078 2
6 3 -10 98.1405 19.2178 3
-6 -3 10 88.9731 13.5472 2
5 3 -10 62.7232 10.934 2
5 3 -10 45.3074 14.7068 3
-5 -3 10 45.7621 11.5749 2
4 3 -10 22.9697 9.66316 1
4 3 -10 27.2482 9.5725 2
4 3 -10 37.0923 13.3143 3
-4 -3 10 41.5452 11.8273 2
3 3 -10 195.165 16.1787 1
3 3 -10 218.696 17.2793 2
3 3 -10 212.443 21.966 3
-3 -3 10 162.745 19.2045 2
2 3 -10 132.813 12.14 1
2 3 -10 133.46 15.1748 2
2 3 -10 125.314 18.4846 3
-2 -3 10 123.448 12.4542 1
-2 -3 10 133.916 14.3905 2
1 3 -10 26.9392 9.9013 2
1 3 -10 20.2942 10.5702 3
1 3 -10 17.0151 6.24248 1
-1 -3 10 24.1015 9.84317 2
-1 -3 10 17.2908 5.98621 1
0 3 -10 22.809 6.30585 1
0 3 -10 13.7584 10.0333 3
0 3 -10 19.514 8.97286 2
-1 3 -10 434.331 28.8494 2
-1 3 -10 424.996 30.9828 3
1 -3 10 424.713 21.9412 1
-2 3 -10 243.16 24.3266 2
2 -3 10 239.863 19.1994 1
-3 3 -10 92.3453 18.1541 2
3 -3 10 102.754 16.5401 1
-4 3 -10 51.0136 16.3018 2
4 -3 10 68.7606 16.7806 1
6 2 -10 8.4883 6.40204 2
6 2 -10 9.07424 11.5705 3
-6 -2 10 -15.451 8.31007 2
5 2 -10 8.10841 7.31552 2
5 2 -10 3.01664 10.6397 3
5 2 -10 5.49618 7.80877 1
-5 -2 10 3.72574 8.78346 2
4 2 -10 178.429 15.0764 1
4 2 -10 175.602 15.6468 2
4 2 -10 166.441 20.6748 3
3 2 -10 997.95 39.0232 1
3 2 -10 1056.34 49.784 3
3 2 -10 969.566 42.1118 2
-3 -2 10 1018.01 44.5783 2
2 2 -10 610.885 33.571 1
2 2 -10 684.673 33.0729 2
2 2 -10 682.576 38.4045 3
-2 -2 10 593.231 32.6319 2
1 2 -10 636.223 33.643 2
1 2 -10 689.668 39.4769 3
1 2 -10 633.527 25.3564 1
-1 -2 10 627.894 33.2871 2
-1 -2 10 679.935 25.1507 1
0 2 -10 1662.25 66.047 2
0 2 -10 1768.36 73.2244 3
0 -2 10 1712.01 55.6651 1
-1 2 -10 385.667 28.1876 2
-2 2 -10 1038.44 50.9491 2
2 -2 10 1045.9 43.2024 1
-3 2 -10 827.691 46.7691 2
3 -2 10 785.199 40.1096 1
-4 2 -10 164.595 24.9133 2
7 1 -10 83.6365 18.0749 3
6 1 -10 275.183 26.4403 3
6 1 -10 266.749 17.0446 2
-6 -1 10 263.636 20.1611 2
5 1 -10 117.671 14.5424 1
5 1 -10 116.474 13.4923 2
5 1 -10 129.477 20.0522 3
-5 -1 10 116.25 15.6289 2
4 1 -10 85.063 12.3902 2
4 1 -10 93.6697 11.3906 1
4 1 -10 105.921 18.0884 3
-4 -1 10 66.8647 12.6569 2
3 1 -10 2.52562 7.08387 2
3 1 -10 13.2477 9.08477 3
3 1 -10 7.23418 5.46227 1
-3 -1 10 11.5374 8.25757 2
2 1 -10 1077.86 53.4561 3
2 1 -10 1121.15 47.3447 2
2 1 -10 1137.35 37.715 1
-2 -1 10 1112.03 47.4813 2
1 1 -10 375.575 24.5585 2
1 1 -10 393.422 30.4941 3
-1 -1 10 372.743 14.9015 1
0 1 -10 45.148 13.008 2
0 -1 10 36.1141 5.52122 1
-1 1 -10 458.264 31.5918 2
1 -1 10 476.231 21.3954 1
-2 1 -10 51.6375 15.6185 2
2 -1 10 21.3073 8.43357 1
-3 1 -10 24.0141 14.0823 2
3 -1 10 -12.039 9.71621 1
7 0 -10 97.6286 10.438 2
7 0 -10 77.3774 19.5625 3
6 0 -10 10.0886 11.9421 3
6 0 -10 -10.457 6.0188 2
-6 0 10 2.81347 8.36075 2
5 0 -10 7.38232 10.9619 3
5 0 -10 10.891 7.97524 2
5 0 -10 5.24618 7.15677 1
4 0 -10 27.8305 12.3898 3
4 0 -10 36.2354 10.1602 2
4 0 -10 28.0352 6.87305 1
-4 0 10 21.873 9.67042 2
3 0 -10 603.97 31.5567 2
3 0 -10 626.633 38.2947 3
3 0 -10 609.972 23.321 1
-3 0 10 570.122 31.4855 2
2 0 -10 1170.9 57.2533 3
2 0 -10 1200.44 49.8559 2
-2 0 10 1160.6 55.2351 2
0 0 -10 497.727 31.9445 2
-1 0 -10 704.367 39.5901 2
1 0 10 666.584 25.8443 1
-2 0 -10 8.7661 13.6485 2
2 0 10 28.4808 8.78161 1
-3 0 -10 221.911 28.435 2
3 0 10 314.394 24.2948 1
7 -1 -10 203.863 24.1719 3
7 -1 -10 189.514 14.1125 2
6 -1 -10 80.5218 13.0653 1
6 -1 -10 88.2988 11.8718 2
6 -1 -10 109.175 19.09 3
-6 1 10 109.27 15.1399 2
5 -1 -10 362.732 29.8483 3
5 -1 -10 380.875 23.199 2
5 -1 -10 372.827 21.0709 1
-5 1 10 384.37 25.3569 2
4 -1 -10 365.051 29.2752 3
4 -1 -10 333.545 23.0976 2
-4 1 10 349.454 25.1942 2
3 -1 -10 446.225 27.131 2
3 -1 -10 432.885 37.8972 3
3 -1 -10 427.579 14.9257 1
3 -1 -10 460.792 15.2616 1
-3 1 10 392.821 30.438 2
2 -1 -10 1650.57 69.6016 2
2 -1 -10 1473.32 70.7328 3
1 -1 -10 1224.78 53.8724 2
0 -1 -10 92.9148 17.436 2
-1 -1 -10 385.466 30.6753 2
1 1 10 377.153 14.8884 1
1 1 10 349.173 14.9293 1
-2 -1 -10 434.535 35.8072 2
2 1 10 448.902 21.6853 1
2 1 10 409.196 31.6594 1
7 -2 -10 164.738 23.2035 3
7 -2 -10 157.405 14.2693 2
6 -2 -10 143.621 22.169 3
6 -2 -10 156.531 15.469 2
6 -2 -10 143.181 16.0505 1
5 -2 -10 28.1289 8.06504 1
5 -2 -10 23.6886 7.03377 1
5 -2 -10 17.3154 12.5624 3
5 -2 -10 16.1844 8.86616 2
-5 2 10 32.555 11.5558 2
4 -2 -10 7.68669 4.39689 1
4 -2 -10 18.0193 12.1946 3
4 -2 -10 2.69271 4.1667 1
4 -2 -10 12.1148 9.39576 2
3 -2 -10 73.9966 17.8235 3
2 -2 -10 49.8779 13.7016 2
1 -2 -10 14.4545 11.4836 2
0 -2 -10 23.8752 13.5291 2
-1 -2 -10 106.442 19.7419 2
-2 -2 -10 61.2007 20.127 2
2 2 10 47.6091 13.6256 1
7 -3 -10 32.1 8.8577 2
7 -3 -10 49.0433 13.4047 1
7 -3 -10 33.481 13.8082 3
6 -3 -10 14.4586 8.94173 2
6 -3 -10 6.96929 8.61418 1
6 -3 -10 19.2889 13.7406 3
6 -3 -10 21.6746 8.08793 1
5 -3 -10 331.756 24.8207 2
5 -3 -10 395.512 31.4239 3
5 -3 -10 349.464 18.1047 1
4 -3 -10 768.267 44.9897 3
4 -3 -10 680.689 21.1986 1
4 -3 -10 630.253 21.0057 1
4 -3 -10 685.982 36.0477 2
3 -3 -10 643.306 35.8961 2
3 -3 -10 672.699 43.7801 3
2 -3 -10 1079.61 50.6802 2
1 -3 -10 1008.1 49.8353 2
0 -3 -10 424.606 32.2845 2
-1 -3 -10 54.0414 16.5905 2
7 -4 -10 35.1259 10.4913 2
7 -4 -10 34.135 14.3544 3
6 -4 -10 56.9326 9.92469 1
6 -4 -10 80.3165 11.8495 1
6 -4 -10 64.7437 16.2897 3
5 -4 -10 84.5218 9.68551 1
5 -4 -10 125.108 18.1841 2
5 -4 -10 112.56 21.0507 3
4 -4 -10 142.284 19.9544 2
4 -4 -10 177.22 26.0639 3
3 -4 -10 76.8602 19.1785 3
3 -4 -10 83.5116 16.9335 2
2 -4 -10 104.005 18.7177 2
1 -4 -10 21.7172 14.0528 2
0 -4 -10 23.9383 15.9796 2
-1 -4 -10 -10.551 14.2741 2
7 -5 -10 4.86888 8.75666 2
7 -5 -10 -14.343 9.07714 1
7 -5 -10 10.9658 13.6182 3
6 -5 -10 -10.879 10.07 3
6 -5 -10 -2.2476 7.26351 1
6 -5 -10 9.70201 11.1133 2
6 -5 -10 -4.4288 6.8103 1
5 -5 -10 20.1383 11.0108 2
5 -5 -10 -4.8954 11.9773 3
5 -5 -10 14.2188 4.32135 1
5 -5 -10 14.8681 4.39 1
4 -5 -10 134.207 19.8125 2
4 -5 -10 154.989 25.3682 3
3 -5 -10 342.801 29.051 2
2 -5 -10 227.336 25.9697 2
1 -5 -10 320.65 29.9935 2
0 -5 -10 313.513 32.3495 2
6 -6 -10 44.2005 13.5991 2
6 -6 -10 35.4954 7.74781 1
6 -6 -10 48.0065 16.2445 3
5 -6 -10 49.6663 17.3384 3
5 -6 -10 64.0753 15.7719 2
4 -6 -10 102.977 18.8374 2
4 -6 -10 118.893 24.2137 3
3 -6 -10 329.672 30.8394 2
2 -6 -10 128.224 25.8917 2
1 -6 -10 94.5028 19.8745 2
6 -7 -10 60.7021 15.2069 2
6 -7 -10 55.0379 17.9438 3
5 -7 -10 5.00853 11.7102 2
5 -7 -10 6.24053 15.4902 3
4 -7 -10 0.38582 14.1254 3
4 -7 -10 16.8928 13.8298 2
3 -7 -10 -4.9421 13.0776 2
2 -7 -10 9.52797 15.8041 2
1 12 -11 81.8682 18.0159 3
0 12 -11 251.806 26.9186 3
0 -12 11 255.491 24.8109 1
-1 12 -11 411.544 31.0935 3
1 -12 11 466.024 32.629 1
-2 12 -11 345.746 26.3878 3
2 -12 11 387.743 31.3232 1
2 11 -11 366.919 31.1799 3
-2 -11 11 401.578 29.3342 1
1 11 -11 221.538 26.0934 3
-1 -11 11 240.671 23.2628 1
0 11 -11 168.522 22.08 2
0 11 -11 176.857 22.4625 3
0 -11 11 201.614 22.02 1
-1 11 -11 319.268 29.8827 2
-1 11 -11 343.972 26.3989 3
1 -11 11 321.198 26.8758 1
-2 11 -11 308.577 35.1846 2
-2 11 -11 330.656 24.3197 3
2 -11 11 315.396 28.0177 1
-3 11 -11 217.498 18.7543 3
-3 11 -11 227.492 27.9702 2
3 -11 11 176.555 23.5185 1
3 10 -11 190.919 30.9905 3
-3 -10 11 193.513 27.3888 1
2 10 -11 27.6197 14.4768 3
-2 -10 11 44.5833 13.4153 1
1 10 -11 1.97883 9.93176 3
1 10 -11 -0.8094 10.6015 2
-1 -10 11 -6.0471 9.06966 1
0 10 -11 45.7987 14.9992 2
0 10 -11 51.6966 14.1396 3
0 -10 11 29.2502 11.9937 1
-1 10 -11 96.8355 16.6355 3
-1 10 -11 84.2869 17.5867 2
1 -10 11 108.781 17.5489 1
-2 10 -11 173.466 24.4635 2
-2 10 -11 178.294 20.145 3
2 -10 11 201.742 22.3407 1
-3 10 -11 53.2775 20.9627 2
-3 10 -11 94.1699 14.6818 3
3 -10 11 98.6619 19.8324 1
4 9 -11 37.718 16.0113 3
3 9 -11 -4.5449 11.8947 3
-3 -9 11 -0.6433 11.3041 1
2 9 -11 861.523 45.5891 3
2 9 -11 855.395 42.4713 2
-2 -9 11 853.324 41.0775 1
1 9 -11 946.182 44.7691 2
1 9 -11 925.862 46.6863 3
-1 -9 11 970.268 44.2498 1
0 9 -11 885.825 45.9517 2
0 9 -11 1007.54 46.3482 3
0 -9 11 946.06 44.0665 1
-1 9 -11 532.498 32.2509 3
-1 9 -11 554.914 35.7479 2
1 -9 11 607.737 33.7975 1
-2 9 -11 826.773 45.3435 2
-2 9 -11 752.435 39.3229 3
2 -9 11 834.959 43.1318 1
-3 9 -11 617.269 34.0555 3
-3 9 -11 623.568 40.5986 2
3 -9 11 641.027 38.9233 1
5 8 -11 39.7514 17.1536 3
4 8 -11 127.789 21.9308 3
3 8 -11 21.7954 10.9867 2
3 8 -11 24.6786 13.489 3
-3 -8 11 -7.3264 9.79136 1
2 8 -11 74.8693 15.141 2
2 8 -11 91.2112 17.5848 3
-2 -8 11 89.4328 14.2705 1
1 8 -11 253.725 21.5721 2
1 8 -11 274.256 24.5682 3
-1 -8 11 244.368 21.3211 1
0 8 -11 225.166 20.8321 2
0 8 -11 214.886 21.2662 3
0 -8 11 237.058 20.0779 1
-1 8 -11 55.7566 15.0544 2
-1 8 -11 65.7237 13.8825 3
1 -8 11 73.5382 14.5052 1
-2 8 -11 11.4467 12.8581 2
-2 8 -11 -1.016 10.0406 3
2 -8 11 20.7887 10.7675 1
-3 8 -11 1.31974 12.8845 2
-3 8 -11 9.77206 10.4385 3
3 -8 11 -3.0037 9.97382 1
-4 8 -11 -5.9448 11.0039 3
-4 8 -11 -8.025 12.673 2
4 -8 11 -21.992 12.6511 1
5 7 -11 21.7806 15.3762 3
4 7 -11 65.4203 15.3791 3
4 7 -11 55.2278 11.9739 2
3 7 -11 345.348 28.7018 3
3 7 -11 313.64 23.51 2
-3 -7 11 318.221 24.1999 1
2 7 -11 410.398 27.0666 2
2 7 -11 424.612 28.83 3
1 7 -11 1496.19 68.6152 1
1 7 -11 1572.68 62.5527 2
-1 -7 11 1545 57.8153 1
0 7 -11 568.859 32.8815 2
0 7 -11 590.016 32.9336 1
0 7 -11 573.167 34.2501 3
0 -7 11 571.113 29.9318 1
-1 7 -11 739.149 40.6772 2
-1 7 -11 717.095 39.1604 3
1 -7 11 799.953 37.9543 1
-2 7 -11 567.868 36.5816 2
2 -7 11 624.397 34.7283 1
-3 7 -11 353.671 31.1323 2
-3 7 -11 387.669 28.8162 3
3 -7 11 357.88 27.6705 1
-4 7 -11 377.557 35.1525 2
-4 7 -11 444.118 32.633 3
4 -7 11 475.183 35.0595 1
5 6 -11 428.095 25.727 2
5 6 -11 423.735 34.6551 3
4 6 -11 87.2239 18.2846 3
4 6 -11 111.941 15.2691 2
3 6 -11 331.818 24.7361 2
3 6 -11 391.185 29.5344 3
2 6 -11 528.634 30.6364 1
2 6 -11 591.637 35.5294 3
2 6 -11 577.931 31.8173 2
-2 -6 11 532.799 28.5422 1
1 6 -11 337.072 24.5545 2
1 6 -11 242.053 24.0012 3
1 6 -11 275.174 20.7829 1
-1 -6 11 320.43 19.7927 1
0 6 -11 1166.91 53.4165 3
0 6 -11 1126.56 47.8476 1
0 6 -11 1155.87 50.9888 2
0 -6 11 1170.84 46.2518 1
-1 6 -11 382.663 25.2222 1
-1 6 -11 410.168 29.3085 3
-1 6 -11 388.634 28.7657 2
1 -6 11 378.47 24.5117 1
-2 6 -11 429.535 31.262 3
-2 6 -11 487.75 34.1515 2
2 -6 11 454.461 27.926 1
-3 6 -11 95.0797 18.7971 3
-3 6 -11 94.7153 19.302 2
3 -6 11 80.8388 16.2306 1
-4 6 -11 70.2588 18.3442 3
-4 6 -11 106.899 21.2423 2
4 -6 11 75.847 19.1831 1
6 5 -11 34.9901 14.5556 3
-6 -5 11 36.4777 14.3642 2
5 5 -11 3.51157 8.40999 2
5 5 -11 3.98228 11.6809 3
4 5 -11 25.6975 13.4539 3
4 5 -11 38.9281 10.6958 2
3 5 -11 128 19.7863 3
3 5 -11 131.219 17.2265 1
-3 -5 11 128.24 15.4698 1
2 5 -11 249.32 24.0465 3
2 5 -11 240.732 19.4368 1
2 5 -11 223.366 20.4507 2
-2 -5 11 229.211 17.016 1
1 5 -11 190.344 21.9104 3
1 5 -11 199.296 17.2961 1
1 5 -11 239.721 19.5609 2
-1 -5 11 238.739 16.8676 1
0 5 -11 347.992 21.4219 1
0 5 -11 306.588 27.635 3
0 5 -11 343.882 26.3116 2
0 -5 11 360.125 20.9293 1
-1 5 -11 207.078 16.6879 1
-1 5 -11 210.199 22.2628 3
-1 5 -11 209.593 22.4962 2
1 -5 11 191.36 16.8464 1
-2 5 -11 369.764 30.2397 3
-2 5 -11 353.487 29.5173 2
2 -5 11 366.312 24.7742 1
-3 5 -11 223.032 25.8838 3
-3 5 -11 230.491 25.4263 2
3 -5 11 202.888 21.0907 1
6 4 -11 21.0379 9.03925 2
6 4 -11 32.6602 17.0791 3
-6 -4 11 51.4976 13.1141 2
5 4 -11 853.863 37.2262 2
5 4 -11 885.652 46.2633 3
-5 -4 11 793.559 40.8181 2
4 4 -11 744.856 35.1926 2
4 4 -11 683.302 36.9785 1
4 4 -11 752.226 42.6042 3
3 4 -11 242.349 19.6359 1
3 4 -11 273.463 21.0053 2
3 4 -11 299.871 24.5469 3
2 4 -11 1251.2 49.0546 1
2 4 -11 1264.78 58.6079 3
-2 -4 11 1207.59 45.7748 1
1 4 -11 1757.08 68.2046 2
1 4 -11 1772.27 62.1763 1
1 4 -11 1737.41 72.8994 3
-1 -4 11 1763.21 59.774 1
0 4 -11 356.933 25.3193 2
0 4 -11 359.136 20.1883 1
0 4 -11 369.982 28.9169 3
0 -4 11 305.829 18.6675 1
-1 4 -11 509.253 33.5472 2
-1 4 -11 519.505 41.795 3
1 -4 11 563.846 27.3122 1
-2 4 -11 412.899 33.5143 3
-2 4 -11 519.69 34.7303 2
2 -4 11 479.135 27.8392 1
-3 4 -11 348.571 30.3357 2
6 3 -11 55.0374 17.2514 3
6 3 -11 44.1253 10.1314 2
-6 -3 11 47.7244 12.5751 2
5 3 -11 65.0433 12.0174 2
5 3 -11 49.2715 15.3845 3
-5 -3 11 72.7718 14.8334 2
4 3 -11 690.611 33.9182 1
4 3 -11 630.571 32.1079 2
4 3 -11 670.966 40.2758 3
-4 -3 11 705.587 36.2611 2
3 3 -11 571.819 30.5945 2
3 3 -11 576.407 28.3229 1
3 3 -11 543.921 36.1427 3
2 3 -11 22.6543 12.198 3
2 3 -11 0.67949 5.59952 1
-2 -3 11 15.9537 6.79905 1
1 3 -11 238.662 21.521 2
1 3 -11 216.514 14.9042 1
1 3 -11 273.234 30.6458 3
0 3 -11 79.9283 9.99928 1
0 3 -11 101.768 16.9211 2
0 -3 11 81.9673 11.2624 1
-1 3 -11 285.604 27.8255 3
-1 3 -11 250.504 25.2545 2
1 -3 11 296.484 18.2573 1
-2 3 -11 42.8343 14.8349 2
2 -3 11 21.8239 9.55875 1
-3 3 -11 84.4609 20.1668 2
3 -3 11 68.9587 15.0048 1
7 2 -11 40.1792 15.9349 3
7 2 -11 21.2282 7.32683 2
6 2 -11 320.901 29.5363 3
6 2 -11 249.886 18.0831 2
-6 -2 11 294.067 22.9577 2
5 2 -11 110.914 20.2712 3
5 2 -11 87.8188 12.7433 1
5 2 -11 88.9102 13.4089 2
-5 -2 11 93.0446 16.1979 2
4 2 -11 875.741 39.6491 2
4 2 -11 871.2 38.1323 1
4 2 -11 968.434 49.3052 3
-4 -2 11 914.107 42.786 2
3 2 -11 250.383 16.2831 1
3 2 -11 259.063 20.8805 2
3 2 -11 218.19 24.1154 3
2 2 -11 309.677 27.9583 3
1 2 -11 1640.47 52.4982 1
1 2 -11 1673.65 72.0104 3
1 2 -11 1547.1 63.8671 2
-1 -2 11 1552.39 51.4237 1
0 2 -11 319.831 28.8919 3
0 2 -11 286.555 24.9562 2
0 -2 11 314.681 15.6222 1
-1 2 -11 357.37 28.868 2
-2 2 -11 464.297 34.7786 2
2 -2 11 430.462 24.712 1
-3 2 -11 268.554 29.7885 2
3 -2 11 326.482 25.3703 1
7 1 -11 85.9135 10.8525 2
7 1 -11 107.998 20.9827 3
6 1 -11 244.703 26.8921 3
6 1 -11 231.119 17.5555 2
-6 -1 11 247.466 21.8521 2
5 1 -11 558.858 29.5223 1
5 1 -11 573.249 30.1259 2
5 1 -11 608.186 38.7288 3
-5 -1 11 531.609 31.8067 2
4 1 -11 718.642 34.2817 2
4 1 -11 681.826 41.4069 3
4 1 -11 628.368 29.4063 1
3 1 -11 2033.62 77.2994 2
3 1 -11 2184.45 86.6044 3
2 1 -11 522.564 19.4941 1
2 1 -11 493.957 34.5557 3
2 1 -11 479.058 28.9048 2
1 1 -11 507.889 37.0904 3
1 1 -11 484.034 31.4549 2
0 1 -11 840.674 42.6847 2
0 -1 11 819.689 27.53 1
-1 1 -11 65.0958 16.2147 2
1 -1 11 64.8249 8.23903 1
-2 1 -11 12.3803 13.069 2
2 -1 11 17.0095 7.58794 1
-3 1 -11 6.98039 17.7603 2
3 -1 11 29.8163 12.8147 1
7 0 -11 73.5933 10.5498 2
7 0 -11 79.1037 21.9363 3
6 0 -11 7.93109 13.2019 3
6 0 -11 10.0703 7.70583 2
-6 0 11 11.3166 11.3465 2
5 0 -11 89.9982 18.5421 3
5 0 -11 102.477 13.9887 2
5 0 -11 56.6203 10.5381 1
-5 0 11 67.8941 14.3906 2
4 0 -11 6.30253 5.77741 1
4 0 -11 14.5532 9.66737 2
4 0 -11 -3.4115 11.1235 3
3 0 -11 36.606 5.21652 1
3 0 -11 23.7801 13.9396 3
3 0 -11 38.6712 11.9103 2
2 0 -11 58.4512 14.2166 2
2 0 -11 38.5291 15.3267 3
1 0 -11 294.485 25.2086 2
1 0 -11 302.252 30.4491 3
0 0 -11 278.415 25.7073 2
-1 0 -11 24.2344 14.2205 2
1 0 11 34.8074 5.50018 1
1 0 11 36.0611 5.401 1
-2 0 -11 284.925 29.015 2
2 0 11 221.721 17.1384 1
2 0 11 271.499 17.117 1
7 -1 -11 159.83 14.9921 2
7 -1 -11 183.744 26.1574 3
6 -1 -11 553.866 37.9643 3
6 -1 -11 505.564 28.1291 2
6 -1 -11 487.246 28.3959 1
-6 1 11 563.511 31.9243 2
5 -1 -11 269.873 17.439 1
5 -1 -11 292.466 21.9805 2
5 -1 -11 280.286 27.7318 3
4 -1 -11 899.449 42.2847 2
4 -1 -11 882.089 32.1889 1
4 -1 -11 976.123 51.9642 3
3 -1 -11 291.374 24.251 2
3 -1 -11 413.084 33.5534 3
2 -1 -11 1519.37 71.8588 3
2 -1 -11 1461.46 62.2114 2
1 -1 -11 860.783 45.2063 2
0 -1 -11 689.066 41.2273 2
-1 -1 -11 577.12 39.296 2
-2 -1 -11 42.8374 19.9803 2
2 1 11 57.4311 9.02708 1
7 -2 -11 10.1508 10.7302 1
7 -2 -11 16.7114 13.4259 3
7 -2 -11 8.03584 8.02206 2
6 -2 -11 111.1 15.2391 2
6 -2 -11 81.0449 13.01 1
6 -2 -11 63.5587 18.1958 3
5 -2 -11 109.038 10.6711 1
5 -2 -11 106.921 21.1044 3
5 -2 -11 125.556 17.0761 2
4 -2 -11 3.19126 12.5552 3
4 -2 -11 0.49696 9.58245 2
3 -2 -11 62.9561 18.9412 3
3 -2 -11 54.4419 14.1742 2
2 -2 -11 65.3685 18.2315 3
2 -2 -11 28.9595 13.2123 2
1 -2 -11 61.4065 16.4395 2
0 -2 -11 -1.0379 11.7598 2
-1 -2 -11 1.18421 15.664 2
7 -3 -11 193.477 24.6611 1
7 -3 -11 215.973 26.7433 3
7 -3 -11 191.267 18.1169 2
6 -3 -11 265.509 22.3554 2
6 -3 -11 275.275 28.5145 3
6 -3 -11 274.436 19.5786 1
6 -3 -11 235.834 17.4507 1
5 -3 -11 93.661 8.62122 1
5 -3 -11 121.026 22.2864 3
5 -3 -11 95.066 17.1142 2
5 -3 -11 96.869 9.62743 1
4 -3 -11 149.006 19.7941 2
4 -3 -11 204.134 28.9631 3
3 -3 -11 382.311 28.8122 2
3 -3 -11 308.778 32.4156 3
2 -3 -11 235.085 25.0161 2
1 -3 -11 793.876 45.2605 2
0 -3 -11 367.964 33.385 2
-1 -3 -11 151.752 25.76 2
6 -4 -11 268.938 28.626 3
6 -4 -11 252.127 17.1636 1
6 -4 -11 247.173 16.645 1
6 -4 -11 254.162 23.4991 2
5 -4 -11 306.409 31.2173 3
5 -4 -11 281.818 10.7632 1
5 -4 -11 280.078 24.8567 2
4 -4 -11 253.241 24.2548 2
4 -4 -11 257.011 30.5229 3
3 -4 -11 57.3914 19.9852 3
3 -4 -11 24.8852 13.4999 2
2 -4 -11 115.649 20.818 2
0 -4 -11 306.789 31.0136 2
6 -5 -11 117.623 19.1465 2
6 -5 -11 120.153 23.0003 3
5 -5 -11 70.4115 14.7503 2
5 -5 -11 70.9914 20.8126 3
4 -5 -11 12.5332 15.3302 3
4 -5 -11 24.2715 13.3224 2
3 -5 -11 63.1467 17.7952 2
3 -5 -11 64.188 20.486 3
2 -5 -11 154.664 24.4018 2
1 -5 -11 41.9096 17.8948 2
5 -6 -11 570.247 43.9976 3
5 -6 -11 528.663 36.7841 2
4 -6 -11 303.535 34.9479 3
3 -6 -11 206.149 27.4484 2
2 -6 -11 156.64 25.8601 2
0 12 -12 20.2046 15.1163 3
0 -12 12 20.6252 13.7659 1
2 11 -12 219.872 27.0481 3
-2 -11 12 199.833 23.5981 1
1 11 -12 376.921 29.9216 3
1 11 -12 301.241 28.3159 2
0 11 -12 271.439 28.2336 2
0 11 -12 336.33 28.5827 3
0 -11 12 327.874 26.8657 1
-1 11 -12 188.142 21.3955 3
-1 11 -12 183.87 24.8334 2
1 -11 12 140.778 21.6095 1
-2 11 -12 122.913 17.7459 3
-2 11 -12 96.0507 21.2961 2
2 -11 12 134.485 20.75 1
3 10 -12 37.9024 15.4463 3
-3 -10 12 52.7121 16.1291 1
2 10 -12 9.39815 11.7947 2
2 10 -12 9.09265 12.7382 3
-2 -10 12 3.80893 10.7265 1
1 10 -12 1.64336 12.0839 2
1 10 -12 24.2987 14.1571 3
-1 -10 12 14.3739 10.5849 1
0 10 -12 3.85583 12.1228 2
0 10 -12 22.1929 12.9939 3
0 -10 12 13.2121 11.1028 1
-1 10 -12 -2.4589 13.5607 3
1 -10 12 8.33197 12.3988 1
-2 10 -12 -4.8064 14.0806 2
-2 10 -12 23.9138 12.183 3
2 -10 12 18.4449 12.9309 1
4 9 -12 113.667 22.5125 3
3 9 -12 324.339 26.0144 2
3 9 -12 314.868 30.0555 3
-3 -9 12 323.509 26.4005 1
2 9 -12 202.144 22.6435 2
2 9 -12 208.171 24.4214 3
-2 -9 12 188.174 21.4271 1
1 9 -12 463.893 31.9983 2
1 9 -12 488.244 33.3362 3
-1 -9 12 485.143 30.0784 1
0 9 -12 812.594 42.6886 3
0 9 -12 751.7 43.1235 2
0 -9 12 812.378 39.9534 1
-1 9 -12 585.805 38.2938 2
1 -9 12 592.051 35.302 1
-2 9 -12 261.709 24.5502 3
-2 9 -12 303.623 33.9596 2
2 -9 12 267.878 24.2326 1
-3 9 -12 282.308 25.4013 3
-3 9 -12 226.347 29.2482 2
3 -9 12 231.282 24.8217 1
4 8 -12 239.747 25.1854 3
4 8 -12 243.039 21.4506 2
3 8 -12 144.256 19.2897 2
3 8 -12 160.251 23.2152 3
-3 -8 12 134.348 19.4506 1
2 8 -12 146.511 19.7656 2
2 8 -12 146.121 22.201 3
-2 -8 12 181.097 20.2219 1
1 8 -12 -2.0605 10.1849 3
1 8 -12 -0.3874 10.201 2
-1 -8 12 9.77584 8.66806 1
0 8 -12 70.3285 16.5908 3
0 8 -12 55.4686 13.901 2
0 -8 12 77.3248 14.0338 1
-1 8 -12 53.8898 15.8033 2
1 -8 12 71.4929 14.4432 1
-2 8 -12 -10.057 10.6516 3
-2 8 -12 -5.2974 11.6909 2
2 -8 12 35.0917 12.5644 1
-3 8 -12 13.0201 16.6423 2
-3 8 -12 9.53738 12.1028 3
3 -8 12 15.707 11.1226 1
5 7 -12 2.38743 12.8809 3
4 7 -12 63.9713 13.7267 2
4 7 -12 56.0959 15.35 3
3 7 -12 -9.2797 11.0416 3
3 7 -12 1.827 9.62975 2
-3 -7 12 3.81432 11.1813 1
2 7 -12 136.998 21.6095 3
2 7 -12 143.775 19.3739 2
-2 -7 12 139.86 15.9984 1
1 7 -12 252.927 25.4524 3
1 7 -12 271.43 24.371 2
-1 -7 12 289.66 21.2511 1
0 7 -12 1017.5 50.4374 3
0 7 -12 1054.76 50.1508 2
0 -7 12 1022.47 44.0512 1
-1 7 -12 532.201 35.2591 3
-1 7 -12 476.971 33.765 2
1 -7 12 434.865 32.3713 1
-2 7 -12 761.363 44.6195 3
-2 7 -12 826.504 46.0272 2
2 -7 12 780.689 40.6033 1
-3 7 -12 285.394 27.566 3
3 -7 12 219.862 24.4746 1
5 6 -12 14.5995 14.9101 3
5 6 -12 40.0492 11.8384 2
4 6 -12 153.066 23.2216 3
4 6 -12 153.462 18.9911 2
3 6 -12 400.18 29.8701 3
3 6 -12 440.661 28.1224 2
-3 -6 12 427.766 26.5197 1
2 6 -12 99.1449 14.9318 1
2 6 -12 123.164 17.58 2
2 6 -12 98.3108 18.4874 3
-2 -6 12 119.43 14.599 1
1 6 -12 239.014 22.9282 2
1 6 -12 210.527 23.8134 3
1 6 -12 220.642 19.723 1
-1 -6 12 214.909 17.6253 1
0 6 -12 304.446 26.2318 3
0 6 -12 257.688 24.5592 2
0 6 -12 243.417 20.5627 1
0 -6 12 289.091 20.4984 1
-1 6 -12 444.099 31.9533 2
-1 6 -12 424.576 26.5594 1
-1 6 -12 387.933 32.1734 3
1 -6 12 462.33 26.9102 1
-2 6 -12 196.466 23.7139 3
-2 6 -12 236.271 25.8389 2
2 -6 12 183.232 20.3196 1
-3 6 -12 141.596 27.5973 2
-3 6 -12 164.377 24.9042 3
3 -6 12 193.248 23.4065 1
6 5 -12 49.8244 15.8657 3
6 5 -12 54.2266 10.9125 2
5 5 -12 186.321 18.6166 2
5 5 -12 154.926 27.3115 3
4 5 -12 3.30313 12.1041 3
4 5 -12 2.53595 8.58704 2
3 5 -12 11.5119 12.3412 3
3 5 -12 18.2031 10.5146 2
3 5 -12 0.75072 7.95351 1
2 5 -12 114.635 16.8898 2
2 5 -12 156.847 22.1278 3
-2 -5 12 125.304 14.2166 1
1 5 -12 302.971 23.1674 2
1 5 -12 236.648 25.1381 3
1 5 -12 273.712 19.4918 1
-1 -5 12 263.22 18.2018 1
0 5 -12 161.168 21.6872 2
0 5 -12 222.602 17.2587 1
0 5 -12 196.439 23.7306 3
0 -5 12 177.309 15.8007 1
-1 5 -12 265.837 27.0395 3
-1 5 -12 300.745 20.4247 1
-1 5 -12 279.448 26.384 2
1 -5 12 263.341 20.1044 1
-2 5 -12 110.501 20.9739 3
-2 5 -12 117.699 20.7471 2
2 -5 12 137.71 17.4496 1
-3 5 -12 181.007 25.7983 3
-3 5 -12 172.924 29.498 2
3 -5 12 161.515 21.9237 1
6 4 -12 100.908 21.0375 3
5 4 -12 217.992 26.5854 3
5 4 -12 223.256 18.6237 2
4 4 -12 103.222 15.1441 2
4 4 -12 99.8816 19.5101 3
4 4 -12 132.66 19.5658 1
3 4 -12 697.074 41.0311 3
3 4 -12 699.998 35.5077 2
3 4 -12 648.991 33.3062 1
2 4 -12 257.444 26.3968 3
2 4 -12 312.402 22.4713 2
2 4 -12 249.432 19.2628 1
-2 -4 12 286.317 18.2643 1
1 4 -12 194.981 23.8469 3
1 4 -12 141 13.9198 1
1 4 -12 123.563 18.6806 2
-1 -4 12 131.816 12.2713 1
0 4 -12 1343.96 64.763 3
0 4 -12 1340.57 60.0254 2
0 4 -12 1456.6 51.2674 1
0 -4 12 1347.49 49.6444 1
-1 4 -12 377.341 32.7038 3
-1 4 -12 414.566 31.7978 2
1 -4 12 378.537 22.7937 1
-2 4 -12 454.017 35.1355 2
-2 4 -12 407.63 35.0315 3
2 -4 12 477.741 27.6005 1
-3 4 -12 143.53 24.8111 3
3 -4 12 150.468 20.0657 1
6 3 -12 87.9519 13.1255 2
6 3 -12 77.9187 19.3407 3
5 3 -12 119.828 15.8307 2
5 3 -12 148.437 23.1242 3
4 3 -12 125.744 15.9512 1
4 3 -12 188.502 24.3926 3
4 3 -12 167.358 16.9722 2
3 3 -12 60.6823 16.4756 3
3 3 -12 66.3466 14.2678 2
3 3 -12 63.9621 10.75 1
2 3 -12 190.627 18.6903 2
2 3 -12 179.48 23.2315 3
2 3 -12 144.81 13.6814 1
1 3 -12 6.2829 11.1905 3
1 3 -12 3.5015 5.78796 1
1 3 -12 8.36943 10.5241 2
0 3 -12 6.45975 12.1512 3
0 3 -12 4.23233 11.1921 2
0 -3 12 -3.6132 5.88252 1
-1 3 -12 57.5784 16.7038 3
-1 3 -12 98.8538 18.7631 2
1 -3 12 50.537 10.0661 1
-2 3 -12 32.6477 16.2465 2
2 -3 12 8.58561 9.00155 1
6 2 -12 54.5901 11.7848 2
5 2 -12 198.591 26.5399 3
5 2 -12 158.851 18.0993 1
5 2 -12 218.265 19.4375 2
4 2 -12 181.106 25.2133 3
4 2 -12 198.509 16.7931 1
4 2 -12 228.384 20.1762 2
3 2 -12 436.357 22.1796 1
3 2 -12 445.859 35.0688 3
3 2 -12 442.272 28.7208 2
2 2 -12 466.043 36.4422 3
2 2 -12 510.321 21.8861 1
2 2 -12 497.94 31.2926 2
1 2 -12 451.152 35.741 3
1 2 -12 387.011 29.5405 2
-1 -2 12 432.745 18.0991 1
0 2 -12 429.528 36.5735 3
0 2 -12 446.571 32.3226 2
0 -2 12 447.761 19.0319 1
-1 2 -12 734.838 44.0601 2
-2 2 -12 130.74 23.5877 2
2 -2 12 161.443 15.7563 1
6 1 -12 75.2199 13.3949 2
6 1 -12 86.1809 19.5793 3
5 1 -12 259.862 28.1777 3
5 1 -12 257.967 21.9698 2
4 1 -12 202.71 20.0255 2
4 1 -12 221.165 28.6359 3
4 1 -12 239.055 16.34 1
3 1 -12 535.578 37.7856 3
3 1 -12 501.147 31.5935 2
3 1 -12 561.991 22.7476 1
2 1 -12 281.875 29.4996 3
2 1 -12 305.343 25.2337 2
1 1 -12 176.316 22.8283 2
1 1 -12 189.358 27.3699 3
0 1 -12 25.0935 15.2632 3
0 1 -12 50.6131 16.5291 2
-1 1 -12 90.3381 19.8805 2
1 -1 12 76.8384 8.05763 1
-2 1 -12 124.906 23.3426 2
2 -1 12 135.213 14.6125 1
6 0 -12 -19.104 8.16624 2
6 0 -12 -3.9013 11.7849 3
5 0 -12 7.22122 13.782 3
5 0 -12 -12.846 8.97807 2
5 0 -12 16.7534 7.55588 1
4 0 -12 141.74 23.5189 3
4 0 -12 154.438 19.2476 2
3 0 -12 76.6064 15.89 2
3 0 -12 63.2388 18.3455 3
2 0 -12 31.113 13.0008 2
2 0 -12 39.7275 15.8196 3
1 0 -12 248.016 25.6767 2
1 0 -12 247.776 29.9205 3
0 0 -12 313.863 29.3334 2
-1 0 -12 292.06 36.9135 2
6 -1 -12 5.40022 13.0947 3
6 -1 -12 0.15922 8.89302 1
6 -1 -12 15.7794 9.21299 2
5 -1 -12 234.566 28.0242 3
5 -1 -12 186.053 14.3105 1
5 -1 -12 225.686 22.3479 2
4 -1 -12 381.48 34.7318 3
4 -1 -12 366.963 13.6787 1
4 -1 -12 353.648 27.638 2
4 -1 -12 331.155 13.2563 1
3 -1 -12 745.774 40.7045 2
3 -1 -12 782.401 49.7788 3
2 -1 -12 284.854 26.7688 2
2 -1 -12 320.573 33.3527 3
1 -1 -12 246.569 25.9037 2
0 -1 -12 123.784 22.6535 2
-1 -1 -12 174.842 25.6515 2
6 -2 -12 140.263 14.8877 1
6 -2 -12 140.844 18.3386 2
6 -2 -12 100.688 21.0368 3
6 -2 -12 107.002 13.1958 1
5 -2 -12 17.9127 10.317 2
5 -2 -12 5.35809 5.8073 1
5 -2 -12 -4.2794 4.93558 1
5 -2 -12 -8.8891 11.9208 3
4 -2 -12 117.903 24.1478 3
4 -2 -12 144.513 19.8633 2
3 -2 -12 25.9313 13.2052 2
3 -2 -12 56.7046 18.0166 3
2 -2 -12 37.9796 15.4164 2
2 -2 -12 30.6577 17.0516 3
1 -2 -12 13.3119 13.8633 2
0 -2 -12 131.448 23.4768 2
6 -3 -12 18.7989 11.6303 2
6 -3 -12 41.8379 19.224 3
6 -3 -12 18.8889 7.8352 1
5 -3 -12 -18.475 12.3313 3
5 -3 -12 -3.1353 11.2737 2
4 -3 -12 176.259 27.3184 3
4 -3 -12 148.019 21.5798 2
3 -3 -12 71.3831 17.693 2
3 -3 -12 135.465 26.0042 3
2 -3 -12 457.107 39.1662 3
2 -3 -12 494.12 36.3217 2
1 -3 -12 28.5575 17.4396 2
0 -3 -12 92.1807 21.7075 2
6 -4 -12 310.167 32.4929 3
6 -4 -12 238.058 24.5787 2
5 -4 -12 172.986 28.2302 3
5 -4 -12 156.253 21.319 2
4 -4 -12 22.6714 14.5621 2
4 -4 -12 72.2171 22.3901 3
2 -4 -12 73.2682 18.7155 2
1 -4 -12 184.455 28.0684 2
5 -5 -12 -2.0841 13.6524 3
4 -5 -12 3.19112 14.2419 3
4 -5 -12 1.49821 11.8531 2
3 -5 -12 9.82977 16.8787 3
3 -5 -12 39.1411 16.6015 2
0 11 -13 256 27.5203 3
0 11 -13 235.413 31.3833 2
0 -11 13 275.745 27.4077 1
2 10 -13 28.3509 13.1789 2
2 10 -13 26.1991 15.2224 3
1 10 -13 -1.6667 13.0648 3
1 10 -13 -11.246 11.7974 2
-1 -10 13 24.2814 12.8353 1
0 10 -13 12.7204 13.1883 3
0 10 -13 -9.3667 9.03135 2
0 -10 13 15.9715 11.7924 1
-1 10 -13 4.2654 12.4193 3
-1 10 -13 17.9147 13.9288 2
1 -10 13 3.46339 10.372 1
3 9 -13 243.83 27.4395 2
3 9 -13 238.187 28.0631 3
-3 -9 13 206.153 22.992 1
2 9 -13 509.25 33.1741 2
2 9 -13 412.616 33.6798 3
-2 -9 13 414.919 29.7173 1
1 9 -13 466.12 34.0973 3
1 9 -13 409.296 36.0204 2
-1 -9 13 426.902 28.0652 1
0 9 -13 470.729 33.5548 3
0 -9 13 384.751 27.4138 1
-1 9 -13 389.358 31.2401 3
-1 9 -13 370.631 32.3865 2
1 -9 13 387.974 28.937 1
-2 9 -13 162.702 22.4788 3
-2 9 -13 125.916 23.479 2
2 -9 13 118.703 19.5394 1
4 8 -13 18.1418 14.1101 3
4 8 -13 15.1428 11.282 2
3 8 -13 59.2821 18.3354 3
3 8 -13 65.1633 15.7598 2
-3 -8 13 68.2394 15.9736 1
2 8 -13 236.044 25.8211 3
2 8 -13 231.045 24.2569 2
-2 -8 13 204.099 21.0453 1
1 8 -13 145.606 21.2968 2
1 8 -13 146.533 22.7362 3
-1 -8 13 171.61 19.4269 1
0 8 -13 2.46692 13.251 3
0 8 -13 29.1648 14.5671 2
0 -8 13 20.4097 9.35678 1
-1 8 -13 178.274 25.069 3
1 -8 13 207.119 21.1501 1
-2 8 -13 31.1165 15.5455 3
-2 8 -13 36.1762 16.2974 2
2 -8 13 54.9922 15.0862 1
4 7 -13 30.3446 16.2383 3
4 7 -13 33.2424 11.4344 2
3 7 -13 226.3 27.2734 3
3 7 -13 302.991 25.3411 2
-3 -7 13 282.193 23.8577 1
2 7 -13 298.485 25.7027 2
2 7 -13 271.412 27.848 3
-2 -7 13 310.09 22.7949 1
1 7 -13 177.378 22.9493 3
1 7 -13 142.265 20.8028 2
-1 -7 13 175.281 18.1134 1
0 7 -13 422.599 32.5919 3
0 7 -13 408.666 31.8594 2
0 -7 13 388.014 25.7043 1
-1 7 -13 428.96 32.8153 3
-1 7 -13 391.232 32.8684 2
1 -7 13 430.243 27.6372 1
-2 7 -13 15.271 15.418 2
-2 7 -13 34.103 15.9562 3
2 -7 13 31.2379 13.2694 1
5 6 -13 142.107 22.6703 3
5 6 -13 175.915 19.5668 2
4 6 -13 471.587 31.0374 2
3 6 -13 266.543 24.0411 2
3 6 -13 317.238 30.1626 3
2 6 -13 1083.42 55.6447 3
2 6 -13 1110.47 51.0566 2
-2 -6 13 1065.21 44.8251 1
1 6 -13 663.089 34.7272 1
1 6 -13 655.424 42.9022 3
1 6 -13 651.392 38.366 2
0 6 -13 334.77 29.0051 2
0 6 -13 360.45 30.5585 3
0 6 -13 355.388 24.5425 1
0 -6 13 332.411 22.4413 1
-1 6 -13 354.279 31.7057 3
-1 6 -13 310.171 30.2076 2
1 -6 13 331.644 24.0395 1
-2 6 -13 340.812 30.8528 3
-2 6 -13 311.887 30.9366 2
2 -6 13 323.375 25.8975 1
5 5 -13 32.5801 16.1449 3
5 5 -13 8.40757 9.81596 2
4 5 -13 27.3832 12.1735 2
4 5 -13 23.8186 14.8178 3
3 5 -13 -3.0947 11.3408 3
3 5 -13 -1.5413 9.472 2
3 5 -13 6.60186 10.1096 1
2 5 -13 86.7521 19.6651 3
2 5 -13 108.089 17.8293 2
2 5 -13 78.3762 13.4244 1
-2 -5 13 56.2856 11.1918 1
1 5 -13 -4.273 10.656 3
1 5 -13 14.7951 8.90816 1
1 5 -13 0.66996 11.8172 2
-1 -5 13 27.1944 9.12298 1
0 5 -13 120.771 21.147 3
0 5 -13 107.113 13.7511 1
0 5 -13 109.568 19.7357 2
0 -5 13 105.292 13.2087 1
-1 5 -13 178.733 25.6951 3
-1 5 -13 142.742 21.4328 2
1 -5 13 194.039 18.2052 1
-2 5 -13 109.76 23.3869 3
-2 5 -13 118.016 24.7617 2
2 -5 13 106.519 16.3323 1
5 4 -13 95.0665 18.8575 3
5 4 -13 120.701 16.8617 2
4 4 -13 381.689 33.5413 3
4 4 -13 413.857 27.6236 2
3 4 -13 529.614 38.287 3
3 4 -13 516.19 31.7945 2
2 4 -13 1106.22 57.7445 3
2 4 -13 1116.26 51.2828 2
2 4 -13 1082.25 43.7495 1
-2 -4 13 1006.35 41.2318 1
1 4 -13 939.214 48.4849 2
1 4 -13 1005.35 39.439 1
1 4 -13 909.926 52.903 3
-1 -4 13 963.846 37.6668 1
0 4 -13 480.535 34.9918 2
0 4 -13 496.897 40.1109 3
0 4 -13 537.17 25.5502 1
0 -4 13 501.963 24.5196 1
-1 4 -13 810.562 46.8257 2
-1 4 -13 756.49 50.1539 3
1 -4 13 768.756 34.5505 1
-2 4 -13 576.103 44.2974 3
-2 4 -13 704.581 44.4109 2
2 -4 13 543.99 31.5199 1
6 3 -13 23.3104 10.7412 2
6 3 -13 53.3771 17.6667 3
5 3 -13 117.429 17.2474 2
4 3 -13 27.3561 13.281 3
4 3 -13 39.5508 13.3899 2
4 3 -13 53.0771 11.5324 1
3 3 -13 35.8332 15.4001 3
3 3 -13 78.645 11.7407 1
3 3 -13 81.6312 16.2561 2
2 3 -13 186.107 27.0698 3
2 3 -13 146.806 20.3927 2
2 3 -13 138.8 13.0486 1
1 3 -13 35.2955 16.0117 3
1 3 -13 46.6556 8.01093 1
1 3 -13 53.2921 15.6967 2
-1 -3 13 48.6466 8.73255 1
0 3 -13 46.4027 16.6105 2
0 3 -13 74.308 19.8382 3
-1 3 -13 -5.7198 12.5403 3
1 -3 13 8.19308 7.19182 1
6 2 -13 23.2147 16.3194 3
6 2 -13 21.4231 10.8975 2
5 2 -13 126.241 15.9876 1
5 2 -13 126.067 17.5542 2
5 2 -13 108.212 26.3176 3
4 2 -13 11.5845 10.1684 2
4 2 -13 2.3279 13.5778 3
4 2 -13 23.4593 7.95286 1
3 2 -13 259.201 29.4013 3
3 2 -13 281.359 16.9004 1
3 2 -13 288.517 24.9935 2
2 2 -13 373.991 16.9414 1
2 2 -13 368.841 28.7727 2
2 2 -13 392.167 35.2565 3
1 2 -13 513.988 40.9344 3
1 2 -13 513.564 35.7984 2
0 2 -13 622.787 39.6168 2
0 2 -13 501.522 41.5588 3
0 -2 13 518.468 19.6643 1
-1 2 -13 233.64 33.6064 3
-1 2 -13 351.002 32.8885 2
1 -2 13 282.789 15.8585 1
6 1 -13 159.997 18.1251 2
6 1 -13 128.613 23.8108 3
5 1 -13 291.429 31.0069 3
5 1 -13 284.431 24.1772 2
5 1 -13 237.342 19.5581 1
4 1 -13 363.241 27.496 2
4 1 -13 393.497 20.6281 1
4 1 -13 428.81 36.8264 3
3 1 -13 42.1789 5.53345 1
3 1 -13 56.7444 18.7487 3
3 1 -13 31.9829 13.5241 2
2 1 -13 362.339 35.5068 3
2 1 -13 362.026 29.1842 2
1 1 -13 455.284 40.0784 3
1 1 -13 420.224 33.4732 2
0 1 -13 298.39 35.4014 3
-1 1 -13 83.6582 20.4326 2
6 0 -13 20.7472 16.6075 3
6 0 -13 -9.172 8.37592 2
5 0 -13 0.92566 14.6021 3
5 0 -13 12.8174 10.3182 2
5 0 -13 -0.1552 7.00269 1
4 0 -13 2.437 4.0474 1
4 0 -13 5.78604 13.5845 3
4 0 -13 4.75937 11.2204 2
3 0 -13 -6.5137 10.5449 2
3 0 -13 28.2504 15.0849 3
2 0 -13 159.247 25.2621 3
2 0 -13 145.05 22.0533 2
1 0 -13 72.27 21.4089 3
1 0 -13 93.1708 20.2083 2
0 0 -13 18.2165 15.4144 2
6 -1 -13 66.7274 11.9804 1
6 -1 -13 93.8227 21.5095 3
6 -1 -13 100.608 16.7062 2
5 -1 -13 297.075 26.6282 2
5 -1 -13 292.013 16.0184 1
4 -1 -13 475.34 32.9354 2
4 -1 -13 466.142 40.5404 3
3 -1 -13 568.968 46.0813 3
3 -1 -13 608.391 38.0768 2
2 -1 -13 154.5 27.6212 3
2 -1 -13 119.316 22.1761 2
1 -1 -13 555.591 47.0796 3
1 -1 -13 635.55 41.9586 2
0 -1 -13 411.512 35.6605 2
5 -2 -13 12.9766 13.0014 2
5 -2 -13 -12.923 11.9053 3
4 -2 -13 4.85023 12.2658 2
3 -2 -13 149.135 33.7698 3
3 -2 -13 103.351 20.239 2
2 -2 -13 30.5119 14.7198 2
2 -2 -13 24.9447 18.3359 3
1 -2 -13 -6.9662 12.8457 2
5 -3 -13 75.0492 18.383 2
5 -3 -13 56.5744 19.5711 3
4 -3 -13 528.886 45.8502 3
3 -3 -13 468.564 36.2784 2
2 -3 -13 105.337 26.1822 3
2 -3 -13 157.165 24.6423 2
2 9 -14 133.539 20.6266 2
2 9 -14 112.986 26.8797 3
-2 -9 14 97.9027 17.1801 1
1 9 -14 320.45 30.3323 3
1 9 -14 326.091 30.4321 2
-1 -9 14 333.574 26.8966 1
0 9 -14 197.819 25.8179 2
0 9 -14 191.573 25.9594 3
0 -9 14 170.715 19.4729 1
3 8 -14 134.62 21.6231 2
3 8 -14 166.985 25.5381 3
-3 -8 14 137.007 19.804 1
2 8 -14 32.8271 16.8726 3
2 8 -14 39.6635 15.426 2
-2 -8 14 43.7599 13.7895 1
1 8 -14 296.803 28.9879 3
1 8 -14 290.14 28.6522 2
-1 -8 14 273.237 23.4105 1
0 8 -14 241.991 27.8816 2
0 8 -14 248.251 28.9597 3
0 -8 14 216.262 21.3752 1
-1 8 -14 73.2361 19.1156 2
-1 8 -14 107.216 20.7213 3
1 -8 14 70.0909 15.5017 1
4 7 -14 25.6062 15.9109 3
4 7 -14 -3.9414 11.367 2
3 7 -14 -4.7194 13.5066 3
3 7 -14 23.8235 12.5556 2
-3 -7 14 20.0312 11.1306 1
2 7 -14 123.816 23.0532 2
2 7 -14 148.538 24.9443 3
-2 -7 14 115.69 16.8973 1
1 7 -14 314.579 30.4566 3
1 7 -14 332.474 34.6808 2
-1 -7 14 262.076 21.1245 1
0 7 -14 78.1493 19.8557 2
0 7 -14 76.574 18.751 3
0 -7 14 117.896 15.5275 1
-1 7 -14 128.955 22.8854 2
-1 7 -14 161.342 24.6514 3
1 -7 14 135.71 18.5852 1
4 6 -14 237.779 31.002 3
4 6 -14 270.566 25.7377 2
3 6 -14 259.357 25.0415 2
2 6 -14 145.382 21.2489 2
2 6 -14 177.281 25.8609 3
-2 -6 14 127.043 15.6729 1
1 6 -14 393.47 33.6852 3
1 6 -14 359.61 34.72 2
1 6 -14 347.462 27.5354 1
-1 -6 14 374.781 23.4284 1
0 6 -14 403.859 31.6126 2
0 6 -14 394.761 36.5397 3
0 -6 14 448.379 26.1213 1
-1 6 -14 268.124 29.3746 2
-1 6 -14 280.138 29.8051 3
4 5 -14 9.85482 10.7958 2
4 5 -14 19.4045 14.794 3
3 5 -14 44.5466 14.3593 2
3 5 -14 47.6141 17.4487 3
2 5 -14 16.356 11.8188 2
2 5 -14 5.53907 8.56517 1
-2 -5 14 14.5684 8.87985 1
1 5 -14 55.6977 16.4597 2
1 5 -14 85.1326 20.4508 3
-1 -5 14 55.842 10.5971 1
0 5 -14 44.7122 17.8981 3
0 5 -14 25.9412 13.786 2
0 -5 14 27.1414 9.38778 1
-1 5 -14 29.0468 14.383 2
-1 5 -14 -34.69 13.086 3
1 -5 14 -2.6674 9.29872 1
5 4 -14 25.0892 17.0218 3
5 4 -14 62.0863 14.1857 2
4 4 -14 284.54 25.0183 2
4 4 -14 301.631 31.7578 3
3 4 -14 263.385 26.0152 2
3 4 -14 360.388 33.9335 3
2 4 -14 225.474 24.913 2
2 4 -14 208.612 16.9607 1
2 4 -14 226.356 28.597 3
1 4 -14 291.636 18.3835 1
1 4 -14 256.179 32.481 3
1 4 -14 273.257 28.2522 2
-1 -4 14 244.884 17.0964 1
0 4 -14 317.538 33.2902 3
0 4 -14 376.255 32.4054 2
0 -4 14 309.746 18.9864 1
-1 4 -14 116.822 22.332 2
-1 4 -14 187.496 34.7059 3
1 -4 14 113.088 14.0868 1
5 3 -14 82.2533 15.6101 2
5 3 -14 122.132 23.7565 3
4 3 -14 183.662 22.206 2
4 3 -14 154.581 26.3548 3
3 3 -14 175.378 27.1947 3
3 3 -14 197.785 16.3539 1
3 3 -14 239.527 24.517 2
2 3 -14 304.682 17.5143 1
2 3 -14 335.18 33.8909 3
2 3 -14 269.265 26.8004 2
1 3 -14 63.6939 20.6145 3
0 3 -14 26.8794 17.495 3
0 3 -14 -1.5711 13.0394 2
0 -3 14 2.52356 5.57329 1
5 2 -14 -17.019 12.2626 3
5 2 -14 11.4226 10.3121 2
4 2 -14 154.656 14.1774 1
4 2 -14 106.092 17.9156 2
4 2 -14 77.4073 22.5393 3
3 2 -14 153.487 27.06 3
3 2 -14 222.378 24.6317 2
2 2 -14 112.878 24.5672 3
2 2 -14 158.186 21.8017 2
1 2 -14 48.3603 20.7761 3
1 2 -14 11.2179 13.4444 2
0 2 -14 147.208 23.947 2
0 2 -14 187.246 30.3796 3
5 1 -14 462.568 37.1187 3
5 1 -14 399.875 30.2852 2
4 1 -14 213.067 31.0792 3
4 1 -14 172.706 22.1763 2
3 1 -14 540.347 36.4683 2
2 1 -14 556.608 53.9331 3
1 1 -14 173.106 29.9684 3
1 1 -14 246.541 25.9383 2
5 0 -14 9.97049 16.2953 3
5 0 -14 13.0394 12.4467 2
4 0 -14 90.9808 19.7897 3
4 0 -14 90.6909 18.4543 2
3 0 -14 72.9464 22.0502 3
2 0 -14 -32.301 11.3386 3
2 0 -14 -0.5496 13.0304 2
1 0 -14 15.6003 17.4809 3
1 0 -14 36.3285 17.3666 2
4 -1 -14 74.8073 20.3681 2
4 -1 -14 122.242 26.3378 3
3 -1 -14 91.9802 24.6084 3
3 -1 -14 107.894 21.2809 2
2 -1 -14 496.049 46.3806 3
2 -1 -14 513.957 39.0186 2
2 7 -15 143.869 25.7138 3
2 7 -15 158.671 23.6012 2
-2 -7 15 168.953 19.8186 1
1 7 -15 109.635 27.4219 3
1 7 -15 101.522 20.5163 2
-1 -7 15 101.504 15.3091 1
3 6 -15 24.9803 14.2823 2
3 6 -15 44.7827 17.778 3
2 6 -15 161.507 26.2956 3
2 6 -15 155.804 22.9354 2
1 6 -15 509.745 36.3494 2
1 6 -15 379.355 43.2277 3
-1 -6 15 484.293 27.0724 1
3 5 -15 64.9494 16.9466 2
3 5 -15 45.1032 18.0812 3
2 5 -15 22.1124 13.0398 2
2 5 -15 12.6589 16.4874 3
1 5 -15 55.919 19.3816 3
1 5 -15 56.798 17.8677 2
-1 -5 15 42.3903 10.4342 1
4 4 -15 146.636 29.9299 3
3 4 -15 137.457 22.0648 2
3 4 -15 114.507 24.6099 3
2 4 -15 46.0872 18.8329 3
2 4 -15 37.2383 15.3414 2
1 4 -15 423.225 35.0346 2
1 4 -15 391.524 38.4054 3
-1 -4 15 410.931 21.4115 1
4 3 -15 182.822 23.3217 2
4 3 -15 150.193 26.3567 3
3 3 -15 81.8845 18.5581 2
3 3 -15 136.034 26.3638 3
2 3 -15 37.2095 15.231 2
2 3 -15 47.7697 20.2996 3
1 3 -15 11.4486 15.5565 2
1 3 -15 4.19369 15.197 3
3 2 -15 57.0542 16.6526 2
3 2 -15 104.805 23.4603 3
2 2 -15 302.89 35.7593 3
2 2 -15 247.165 28.132 2
3 1 -15 66.6713 18.8781 2
3 1 -15 46.2155 22.7475 3
