#------------------------------------------------------------------------------
#$Date: 2022-08-24 12:08:28 +0300 (Wed, 24 Aug 2022) $
#$Revision: 277381 $
#$URL: file:///home/coder/svn-repositories/cod/cif/8/10/56/8105697.cif $
#------------------------------------------------------------------------------
#
# This file is available in the Crystallography Open Database (COD),
# http://www.crystallography.net/
#
# All data on this site have been placed in the public domain by the
# contributors.
#
data_8105697
loop_
_publ_author_name
'Zhang, Qiu Yu'
'Yu, Yu'
_publ_section_title
;
 Crystal structure of 9-methoxy-2,3,4,4a,5,6-hexahydro-1H-pyrido
 [1&#x2032;,2&#x2032;:1,6]pyrazino[2,3-b]quinoxaline, C15H18N4O
;
_journal_issue                   3
_journal_name_full
'Zeitschrift f\"ur Kristallographie - New Crystal Structures'
_journal_page_first              361
_journal_page_last               363
_journal_paper_doi               10.1515/ncrs-2022-0012
_journal_volume                  237
_journal_year                    2022
_chemical_formula_moiety         'C15 H18 N4 O'
_chemical_formula_sum            'C15 H18 N4 O'
_chemical_formula_weight         270.33
_space_group_crystal_system      triclinic
_space_group_IT_number           2
_space_group_name_Hall           '-P 1'
_space_group_name_H-M_alt        'P -1'
_atom_sites_solution_hydrogens   geom
_atom_sites_solution_primary     dual
_cell_angle_alpha                97.206(5)
_cell_angle_beta                 102.335(6)
_cell_angle_gamma                108.614(7)
_cell_formula_units_Z            2
_cell_length_a                   6.7562(5)
_cell_length_b                   9.5520(6)
_cell_length_c                   11.4227(8)
_cell_measurement_reflns_used    2109
_cell_measurement_temperature    149.99(10)
_cell_measurement_theta_max      29.2640
_cell_measurement_theta_min      2.6240
_cell_volume                     667.39(9)
_computing_cell_refinement       'CrysAlisPro 1.171.38.43f (Rigaku OD, 2015)'
_computing_data_collection       'CrysAlisPro 1.171.38.43f (Rigaku OD, 2015)'
_computing_data_reduction        'CrysAlisPro 1.171.38.43f (Rigaku OD, 2015)'
_computing_molecular_graphics    'Olex2 1.3 (Dolomanov et al., 2009)'
_computing_publication_material  'Olex2 1.3 (Dolomanov et al., 2009)'
_computing_structure_refinement  'SHELXL 2018/3 (Sheldrick, 2015)'
_computing_structure_solution    'SHELXT 2018/2 (Sheldrick, 2018)'
_diffrn_ambient_environment      N~2~
_diffrn_ambient_temperature      149.99(10)
_diffrn_detector                 'CCD plate'
_diffrn_detector_area_resol_mean 5.2684
_diffrn_detector_type            AtlasS2
_diffrn_measured_fraction_theta_full 1.000
_diffrn_measured_fraction_theta_max 1.000
_diffrn_measurement_details
;
List of Runs (angles in degrees, time in seconds):

  # Type    Start    End  Width  t~exp~   \w     \q     \k     \f   Frames
--------------------------------------------------------------------------
  1  \w    -79.00  10.00   1.00    1.60    --  -11.51 -57.00-150.00   89
  2  \w    -40.00  59.00   1.00    1.60    --  -11.51  57.00   0.00   99
  3  \w    -13.00  76.00   1.00    1.60    --   12.05  77.00 120.00   89
;
_diffrn_measurement_device       'four-circle diffractometer'
_diffrn_measurement_device_type  'SuperNova, Dual, Cu at zero, AtlasS2'
_diffrn_measurement_method       '\w scans'
_diffrn_orient_matrix_type
'CrysAlisPro convention (1999,Acta A55,543-557)'
_diffrn_orient_matrix_UB_11      -0.0904011000
_diffrn_orient_matrix_UB_12      -0.0174543000
_diffrn_orient_matrix_UB_13      -0.0514325000
_diffrn_orient_matrix_UB_21      0.0686814000
_diffrn_orient_matrix_UB_22      0.0037840000
_diffrn_orient_matrix_UB_23      -0.0395052000
_diffrn_orient_matrix_UB_31      -0.0186011000
_diffrn_orient_matrix_UB_32      -0.0781116000
_diffrn_orient_matrix_UB_33      -0.0043662000
_diffrn_radiation_monochromator  mirror
_diffrn_radiation_probe          x-ray
_diffrn_radiation_type           'Mo K\a'
_diffrn_radiation_wavelength     0.71073
_diffrn_reflns_av_R_equivalents  0.0207
_diffrn_reflns_av_unetI/netI     0.0287
_diffrn_reflns_Laue_measured_fraction_full 1.000
_diffrn_reflns_Laue_measured_fraction_max 1.000
_diffrn_reflns_limit_h_max       7
_diffrn_reflns_limit_h_min       -8
_diffrn_reflns_limit_k_max       11
_diffrn_reflns_limit_k_min       -10
_diffrn_reflns_limit_l_max       13
_diffrn_reflns_limit_l_min       -13
_diffrn_reflns_number            4208
_diffrn_reflns_point_group_measured_fraction_full 1.000
_diffrn_reflns_point_group_measured_fraction_max 1.000
_diffrn_reflns_theta_full        24.999
_diffrn_reflns_theta_max         24.999
_diffrn_reflns_theta_min         2.301
_diffrn_source                   'micro-focus sealed X-ray tube'
_diffrn_source_type              'SuperNova (Mo) X-ray Source'
_exptl_absorpt_coefficient_mu    0.088
_exptl_absorpt_correction_T_max  1.00000
_exptl_absorpt_correction_T_min  0.70817
_exptl_absorpt_correction_type   multi-scan
_exptl_absorpt_process_details
;
CrysAlisPro 1.171.38.43f (Rigaku Oxford Diffraction, 2015)
Empirical absorption correction using spherical harmonics,
 implemented in SCALE3 ABSPACK scaling algorithm.
;
_exptl_crystal_colour            colourless
_exptl_crystal_colour_primary    colourless
_exptl_crystal_density_diffrn    1.345
_exptl_crystal_description       block
_exptl_crystal_F_000             288
_exptl_crystal_size_max          0.15
_exptl_crystal_size_mid          0.12
_exptl_crystal_size_min          0.1
_refine_diff_density_max         0.231
_refine_diff_density_min         -0.337
_refine_diff_density_rms         0.073
_refine_ls_extinction_coef       .
_refine_ls_extinction_method     none
_refine_ls_goodness_of_fit_ref   1.048
_refine_ls_hydrogen_treatment    constr
_refine_ls_matrix_type           full
_refine_ls_number_parameters     182
_refine_ls_number_reflns         2346
_refine_ls_number_restraints     0
_refine_ls_restrained_S_all      1.048
_refine_ls_R_factor_all          0.0586
_refine_ls_R_factor_gt           0.0480
_refine_ls_shift/su_max          0.000
_refine_ls_shift/su_mean         0.000
_refine_ls_structure_factor_coef Fsqd
_refine_ls_weighting_details
'w=1/[\s^2^(Fo^2^)+(0.0720P)^2^+0.1369P] where P=(Fo^2^+2Fc^2^)/3'
_refine_ls_weighting_scheme      calc
_refine_ls_wR_factor_gt          0.1255
_refine_ls_wR_factor_ref         0.1388
_reflns_Friedel_coverage         0.000
_reflns_Friedel_fraction_full    .
_reflns_Friedel_fraction_max     .
_reflns_number_gt                1896
_reflns_number_total             2346
_reflns_threshold_expression     'I > 2\s(I)'
_cod_data_source_file            suppl_j_ncrs-2022-0012_suppl.cif
_cod_data_source_block           stna-3
_cod_database_code               8105697
_shelx_space_group_comment
;
The symmetry employed for this shelxl refinement is uniquely defined
by the following loop, which should always be used as a source of
symmetry information in preference to the above space-group names.
They are only intended as comments.
;
_reflns_odcompleteness_completeness 99.96
_reflns_odcompleteness_iscentric 1
_reflns_odcompleteness_theta     26.32
_olex2_refinement_description
;
1. Fixed Uiso
 At 1.2 times of:
  All C(H) groups, All C(H,H) groups, All N(H) groups
 At 1.5 times of:
  All C(H,H,H) groups
2.a Ternary CH refined with riding coordinates:
 C5(H5)
2.b Secondary CH2 refined with riding coordinates:
 C1(H1A,H1B), C2(H2A,H2B), C3(H3A,H3B), C4(H4A,H4B), C6(H6A,H6B)
2.c Aromatic/amide H refined with riding coordinates:
 N2(H2), C10(H10), C11(H11), C13(H13)
2.d Idealised Me refined as rotating group:
 C15(H15A,H15B,H15C)
;
_shelx_res_file
;
TITL stna-3_a.res in P-1
    stna-3.res
    created by SHELXL-2018/3 at 22:38:33 on 24-Nov-2021
REM Old TITL stna-3 in P-1
REM SHELXT solution in P-1: R1 0.169, Rweak 0.003, Alpha 0.066
REM <I/s> 0.000 for 0 systematic absences, Orientation as input
REM Formula found by SHELXT: C15 N4 O
CELL 0.71073 6.7562 9.552 11.4227 97.206 102.335 108.614
ZERR 2 0.0005 0.0006 0.0008 0.005 0.006 0.007
LATT 1
SFAC C H N O
UNIT 30 36 8 2

L.S. 10
PLAN  5
CONF
BOND
list 4
fmap 2 53
acta
MORE -1
BOND $H
OMIT -3 50
REM <olex2.extras>
REM <HklSrc "%.\\stna-3.hkl">
REM </olex2.extras>

WGHT    0.072000    0.136900
FVAR       0.70696
O1    4    0.130610    0.424810    0.135356    11.00000    0.02356    0.03452 =
         0.02634    0.00938    0.00130    0.00949
N1    3    0.645790    0.176007    0.697215    11.00000    0.01717    0.02262 =
         0.02014    0.00715    0.00519    0.00145
N2    3    0.959860    0.360617    0.604442    11.00000    0.01485    0.02609 =
         0.02550    0.01168    0.00670    0.00270
AFIX  43
H2    2    1.057240    0.413802    0.574076    11.00000   -1.20000
AFIX   0
N3    3    0.376653    0.192106    0.539734    11.00000    0.01700    0.01950 =
         0.02246    0.00288    0.00616    0.00095
N4    3    0.699751    0.385719    0.452303    11.00000    0.01648    0.01889 =
         0.02213    0.00588    0.00621    0.00357
C1    1    0.474738    0.055077    0.724607    11.00000    0.02244    0.02623 =
         0.03116    0.01047    0.00885    0.00034
AFIX  23
H1A   2    0.439908   -0.038301    0.666618    11.00000   -1.20000
H1B   2    0.344944    0.080452    0.714896    11.00000   -1.20000
AFIX   0
C2    1    0.543108    0.031890    0.852710    11.00000    0.03161    0.03431 =
         0.03053    0.01449    0.01157    0.00144
AFIX  23
H2A   2    0.558185    0.120326    0.910888    11.00000   -1.20000
H2B   2    0.431362   -0.054031    0.864890    11.00000   -1.20000
AFIX   0
C3    1    0.753991    0.005027    0.876839    11.00000    0.03757    0.03360 =
         0.03423    0.01837    0.00993    0.00902
AFIX  23
H3A   2    0.735549   -0.089384    0.825127    11.00000   -1.20000
H3B   2    0.798266   -0.002535    0.961657    11.00000   -1.20000
AFIX   0
C4    1    0.927246    0.133706    0.850605    11.00000    0.02480    0.03113 =
         0.02837    0.01051    0.00441    0.00676
AFIX  23
H4A   2    1.058172    0.109911    0.858984    11.00000   -1.20000
H4B   2    0.960553    0.224401    0.911371    11.00000   -1.20000
AFIX   0
C5    1    0.862127    0.165545    0.723564    11.00000    0.02276    0.02542 =
         0.02983    0.00944    0.00793    0.00706
AFIX  13
H5    2    0.859812    0.082446    0.662865    11.00000   -1.20000
AFIX   0
C6    1    1.027632    0.309547    0.713848    11.00000    0.01815    0.02819 =
         0.02578    0.00963    0.00446    0.00471
AFIX  23
H6A   2    1.054731    0.387593    0.784598    11.00000   -1.20000
H6B   2    1.162729    0.293532    0.715075    11.00000   -1.20000
AFIX   0
C7    1    0.750286    0.328455    0.547830    11.00000    0.01673    0.01586 =
         0.01965    0.00151    0.00708    0.00320
C8    1    0.581988    0.227879    0.593129    11.00000    0.01783    0.01460 =
         0.02139    0.00076    0.00747    0.00159
C9    1    0.322273    0.253995    0.440256    11.00000    0.01961    0.01761 =
         0.02170    0.00131    0.00667    0.00400
C10   1    0.103363    0.221425    0.381128    11.00000    0.01681    0.02346 =
         0.02742    0.00198    0.00711    0.00139
AFIX  43
H10   2   -0.003985    0.158675    0.409732    11.00000   -1.20000
AFIX   0
C11   1    0.045873    0.280709    0.282070    11.00000    0.01669    0.02848 =
         0.02859   -0.00008    0.00238    0.00596
AFIX  43
H11   2   -0.099847    0.259365    0.244387    11.00000   -1.20000
AFIX   0
C12   1    0.206619    0.373863    0.237080    11.00000    0.02397    0.02086 =
         0.02248   -0.00022    0.00221    0.00889
C13   1    0.422731    0.407925    0.293144    11.00000    0.01988    0.01887 =
         0.02512    0.00447    0.00714    0.00293
AFIX  43
H13   2    0.528474    0.469533    0.262840    11.00000   -1.20000
AFIX   0
C14   1    0.483244    0.349359    0.396334    11.00000    0.01663    0.01509 =
         0.02094   -0.00073    0.00420    0.00292
C15   1    0.288271    0.506608    0.080461    11.00000    0.03276    0.03713 =
         0.02688    0.01121    0.00338    0.00962
AFIX 137
H15A  2    0.217304    0.532332    0.008607    11.00000   -1.50000
H15B  2    0.368249    0.445502    0.057984    11.00000   -1.50000
H15C  2    0.385878    0.597305    0.137671    11.00000   -1.50000
AFIX   0
HKLF 4




REM  stna-3_a.res in P-1
REM wR2 = 0.1388, GooF = S = 1.048, Restrained GooF = 1.048 for all data
REM R1 = 0.0480 for 1896 Fo > 4sig(Fo) and 0.0586 for all 2346 data
REM 182 parameters refined using 0 restraints

END

WGHT      0.0703      0.1372

REM Highest difference peak  0.231,  deepest hole -0.337,  1-sigma level  0.073
Q1    1   0.8812  0.2367  0.7949  11.00000  0.05    0.23
Q2    1   0.7711  0.0787  0.9450  11.00000  0.05    0.20
Q3    1  -0.2217  0.3009  0.3438  11.00000  0.05    0.18
Q4    1   1.0372  0.4656  0.6023  11.00000  0.05    0.16
Q5    1   0.5162 -0.0777  0.6615  11.00000  0.05    0.16
;
_shelx_res_checksum              16602
_shelx_hkl_file
;
   0   0   2  278.72    3.70
   0   0   3   37.45    1.36
   0   0  -3   38.10    1.39
   0   0   4  115.52    2.81
   0   0  -4  116.80    2.90
   0   0  -5  210.66    4.50
   0   0   5  219.58    4.43
   0   0   6  303.01    5.83
   0   0  -7  985.08   13.36
   0   0   7  976.30   13.03
   0   0   8    1.00    0.37
   0   0  -8    1.32    0.47
   0   0  -9   49.31    2.82
   0   0 -10    0.35    0.36
   0   0 -11    2.89    0.85
   0   0 -12   93.40    4.66
   0   0 -12   90.18    4.61
   0   0 -13   57.95    3.83
   0   0 -14    7.98    1.45
   0   1 -14    8.89    1.62
   0   1 -13   18.08    2.17
   0   1 -12    2.94    0.91
   0   1 -11    9.00    1.37
   0   1 -10    1.12    0.48
   0   1  -9    1.38    0.44
   0  -1   8    3.69    0.65
   0   1  -8    4.03    0.76
   0  -1   7    3.45    0.59
   0   1  -7    2.97    0.59
   0  -1   6  497.34    7.87
   0   1  -5   69.81    2.46
   0  -1   5   66.51    2.29
   0  -1   4   79.92    2.29
   0  -1   3    8.13    0.61
   0  -1   2  125.56    2.25
   0  -1   1    3.29    0.28
   0   1   0  122.66    1.90
   0  -1   0  128.66    1.97
   0  -1  -1  496.58    5.18
   0   1   1  494.69    5.17
   0   1   2  192.60    3.04
   0  -1  -2  199.63    3.02
   0   1   3   10.25    0.71
   0  -1  -3   10.39    0.71
   0   1   4    1.82    0.35
   0  -1  -4    2.04    0.37
   0  -1  -5   17.94    1.23
   0   1   5   17.88    1.21
   0   1   6    1.73    0.37
   0  -1  -7   71.30    2.98
   0   1   7   75.81    2.98
   0  -1  -8   28.86    2.04
   0  -1  -8   30.36    2.08
   0   1   8   32.73    2.07
   0  -1  -9   26.69    2.08
   0  -1 -10   16.12    1.73
   0  -1 -11    2.33    0.76
   0  -1 -12    1.52    0.47
   0  -1 -13    4.02    1.00
   0   2 -14    2.00    0.74
   0   2 -13    5.39    1.17
   0   2 -12   38.18    2.99
   0   2 -11   16.13    1.85
   0   2 -10   17.89    1.84
   0  -2  10   17.09    1.05
   0  -2   9    5.33    0.53
   0   2  -9    4.15    0.83
   0   2  -8    1.21    0.39
   0  -2   8    1.89    0.30
   0  -2   8    2.44    0.58
   0  -2   7   45.93    2.32
   0  -2   7   51.94    1.41
   0   2  -7   47.02    2.43
   0  -2   6  981.69    9.47
   0  -2   6  981.64   12.48
   0  -2   5  230.32    4.65
   0  -2   5  227.86    2.83
   0  -2   4  237.86    4.38
   0  -2   3   42.06    1.57
   0   2  -2   91.56    1.40
   0   2  -2   88.60    2.12
   0  -2   2   91.89    2.23
   0   2  -1  101.84    2.29
   0  -2   1  107.39    2.28
   0   2  -1  102.04    2.32
   0  -2   0  222.86    3.63
   0   2   0  218.88    3.48
   0   2   1 6060.50   51.21
   0  -2  -1 6048.22   51.65
   0   2   2    5.77    0.50
   0  -2  -2    6.08    0.53
   0  -2  -3  341.37    5.15
   0   2   3  349.79    5.21
   0   2   4   59.59    2.10
   0  -2  -4   55.17    1.98
   0   2   5   16.56    1.20
   0   2   6   88.95    3.11
   0  -2  -6   82.78    2.97
   0  -2  -7    4.40    0.73
   0   2   7    4.35    0.71
   0   2   8  100.32    3.80
   0  -2  -8   99.21    3.76
   0  -2  -9   31.66    2.26
   0  -2 -10    5.41    1.00
   0  -2 -11    6.55    1.19
   0  -2 -12    0.24    0.35
   0  -2 -13   14.99    1.95
   0   3 -14    2.86    0.92
   0   3 -13    1.64    0.75
   0   3 -12   32.89    2.81
   0   3 -11    0.39    0.35
   0  -3  11    0.35    0.12
   0   3 -10    5.32    0.99
   0  -3  10    5.88    0.41
   0  -3  10    5.73    0.45
   0  -3   9    0.74    0.14
   0   3  -9    0.59    0.30
   0  -3   9    0.88    0.15
   0   3  -8    3.09    0.65
   0   3  -7   77.90    3.18
   0  -3   7   85.16    3.28
   0  -3   6  164.49    4.44
   0  -3   5  162.04    4.14
   0   3  -4   13.27    1.01
   0  -3   4   15.81    1.16
   0  -3   3    4.74    0.60
   0   3  -3    4.46    0.54
   0   3  -3    5.25    0.35
   0   3  -2    3.52    0.50
   0   3  -2    3.77    0.49
   0  -3   1   51.51    1.86
   0   3  -1   52.92    1.95
   0   3  -1   48.95    1.93
   0   3   0  119.44    2.83
   0  -3   0  119.85    3.01
   0  -3  -1  112.13    2.89
   0   3   1  112.03    2.61
   0   3   2   17.86    1.00
   0  -3  -2   18.59    1.12
   0  -3  -3   24.01    1.34
   0   3   3   26.02    1.32
   0   3   4    1.87    0.39
   0  -3  -4    1.51    0.37
   0   3   5    6.11    0.76
   0  -3  -6    0.57    0.23
   0   3   6    1.36    0.38
   0   3   7    3.00    0.60
   0  -3  -7    1.82    0.49
   0  -3  -8   36.29    2.33
   0  -3  -9    1.12    0.51
   0  -3 -10   20.22    1.97
   0  -3 -11    7.93    1.32
   0  -3 -12   -0.68    0.42
   0  -3 -13    2.03    0.77
   0   4 -13    0.30    0.53
   0   4 -12    0.67    0.37
   0   4 -11    6.44    1.21
   0   4 -10    1.19    0.53
   0   4  -9   16.91    1.71
   0   4  -8   20.20    1.75
   0   4  -7   -0.09    0.27
   0  -4   7    0.37    0.25
   0  -4   6    7.39    0.98
   0   4  -6    7.08    0.90
   0  -4   5    1.48    0.42
   0   4  -5    1.23    0.15
   0   4  -5    1.46    0.39
   0   4  -4   13.58    1.08
   0  -4   4   13.01    1.20
   0   4  -4   12.88    0.64
   0   4  -3    1.03    0.30
   0   4  -3    1.36    0.36
   0   4  -3    1.15    0.22
   0   4  -2    0.01    0.22
   0   4  -2    0.03    0.11
   0   4  -1    8.47    0.87
   0  -4   1    6.11    0.73
   0   4   0   37.98    1.73
   0  -4   0   38.78    1.92
   0  -4  -1  199.29    4.65
   0   4   1  193.20    4.03
   0   4   2  142.17    3.31
   0  -4  -2  139.91    3.77
   0   4   3   12.56    0.97
   0  -4  -3   13.10    1.16
   0   4   4   17.89    1.29
   0   4   5   46.73    2.24
   0  -4  -5   44.06    2.24
   0   4   6   20.17    1.55
   0  -4  -6   19.23    1.55
   0  -4  -7    6.30    0.94
   0   4   7    8.39    1.07
   0  -4  -8    0.72    0.34
   0  -4  -9   14.38    1.59
   0  -4 -10    1.62    0.62
   0  -4 -11    2.65    0.78
   0  -4 -12    4.16    1.00
   0   5 -13    5.28    1.17
   0   5 -12   18.00    2.15
   0   5 -11    7.77    1.37
   0   5 -10    5.02    1.01
   0   5  -9   17.29    1.76
   0   5  -8   47.64    2.77
   0   5  -7  113.76    4.09
   0   5  -6   69.69    3.01
   0  -5   6   69.24    3.30
   0   5  -5    0.14    0.19
   0   5  -5    0.14    0.13
   0  -5   5    0.19    0.23
   0   5  -5    0.12    0.08
   0   5  -4   28.68    1.91
   0   5  -4   25.73    1.64
   0   5  -4   27.49    1.18
   0   5  -3    9.92    1.10
   0   5  -3   10.12    1.04
   0   5  -3    8.23    0.72
   0   5  -2    0.92    0.34
   0   5  -2    0.97    0.31
   0   5  -1    0.07    0.11
   0  -5   1    0.09    0.13
   0   5   0  342.52    6.33
   0  -5   0  347.91    6.99
   0   5   1  262.08    5.29
   0  -5  -1  262.77    6.13
   0   5   2   19.01    1.28
   0   5   3   36.32    1.83
   0   5   4   29.47    1.75
   0  -5  -4   27.38    1.89
   0   5   5    4.53    0.74
   0  -5  -5    7.40    1.01
   0  -5  -6   60.25    3.05
   0   5   6   60.56    2.84
   0  -5  -7    1.23    0.51
   0  -5  -8    1.27    0.51
   0  -5  -9    1.37    0.55
   0  -5 -10    1.67    0.61
   0  -5 -11   17.78    2.12
   0  -5 -12   24.50    2.60
   0   6 -13    8.55    1.62
   0   6 -12    0.52    0.42
   0   6 -11    0.50    0.47
   0   6 -10    5.30    1.07
   0   6  -9    0.04    0.22
   0   6  -8   21.44    1.94
   0   6  -7    0.11    0.29
   0   6  -6    2.65    0.35
   0   6  -6    3.44    0.71
   0   6  -5   10.79    0.77
   0   6  -5   10.11    1.27
   0   6  -5   10.30    1.13
   0   6  -4   -0.09    0.16
   0   6  -4    0.10    0.12
   0   6  -4   -0.16    0.24
   0   6  -3    0.84    0.25
   0   6  -3    0.13    0.20
   0   6  -3    0.52    0.27
   0   6  -2    3.02    0.63
   0   6  -2    2.25    0.55
   0   6  -1    1.38    0.41
   0   6  -1    0.93    0.39
   0   6   0   23.18    1.62
   0   6   1    0.95    0.38
   0  -6  -2    0.19    0.24
   0   6   2    1.15    0.39
   0   6   3    5.53    0.81
   0  -6  -3    8.21    1.17
   0   6   4    1.40    0.36
   0  -6  -4    0.46    0.35
   0  -6  -5   10.31    1.33
   0   6   5   10.33    1.16
   0  -6  -6   11.68    1.48
   0  -6  -7    2.27    0.65
   0  -6  -8    6.23    1.14
   0  -6  -9    5.82    1.14
   0  -6 -10    0.10    0.33
   0  -6 -11    2.88    1.04
   0   7 -12   54.70    3.93
   0   7 -11    9.16    1.48
   0   7 -10    0.60    0.52
   0   7  -9    0.13    0.21
   0   7  -8    0.36    0.19
   0   7  -7    7.65    1.13
   0   7  -7    7.32    0.53
   0   7  -6  677.57   11.64
   0   7  -6  684.50    8.60
   0   7  -5  520.55    7.74
   0   7  -5  529.91    9.80
   0   7  -4    1.54    0.59
   0   7  -4    1.45    0.37
   0   7  -4    1.33    0.53
   0   7  -3    4.11    0.78
   0   7  -3    3.94    0.66
   0   7  -3    4.17    0.91
   0   7  -2    4.27    0.86
   0   7  -2    5.27    0.93
   0   7  -1    5.65    0.89
   0  -7   1    4.87    0.87
   0   7  -1    6.68    1.06
   0   7   0   14.03    1.36
   0  -7   0   13.34    1.48
   0   7   1  527.62    9.21
   0  -7  -1  545.32   10.73
   0   7   2  151.32    4.39
   0  -7  -2  146.22    5.44
   0   7   3   18.31    1.49
   0  -7  -3   20.42    2.07
   0  -7  -4    1.11    0.50
   0  -7  -5    0.03    0.22
   0  -7  -6   27.00    2.40
   0  -7  -7  113.97    5.07
   0  -7  -8    1.49    0.66
   0  -7  -9    1.38    0.78
   0  -7 -10    9.37    1.69
   0   8 -11   20.73    2.36
   0   8 -10    0.12    0.29
   0   8  -9    1.51    0.64
   0   8  -8    0.68    0.42
   0   8  -7    2.65    0.40
   0   8  -7    3.55    0.83
   0   8  -6   70.66    3.57
   0   8  -6   68.74    2.50
   0   8  -5  199.05    4.77
   0   8  -5  211.13    6.21
   0   8  -4   87.42    3.95
   0   8  -4   83.77    3.20
   0   8  -3   -0.17    0.44
   0   8  -3    0.27    0.21
   0   8  -2    6.42    1.11
   0  -8   1    0.30    0.20
   0   8  -1    0.44    0.32
   0  -8   0    3.72    0.85
   0  -8  -1    1.01    0.50
   0  -8  -2   40.35    3.01
   0  -8  -3   26.29    2.45
   0  -8  -4   10.52    1.61
   0  -8  -5    4.34    1.04
   0  -8  -6    0.21    0.30
   0  -8  -7   22.72    2.42
   0  -8  -8    5.52    1.21
   0  -8  -9    9.85    1.77
   0   9 -11   27.15    2.83
   0   9 -10    0.03    0.36
   0   9  -9    0.31    0.31
   0   9  -8    1.79    0.73
   0   9  -7    1.85    0.65
   0   9  -6   -0.16    0.17
   0   9  -6   -0.39    0.55
   0   9  -5  306.01    8.07
   0   9  -5  295.26    6.57
   0   9  -4  146.39    5.49
   0   9  -4  135.12    4.53
   0   9  -3   21.95    1.83
   0   9  -3   21.54    2.10
   0   9  -2    0.00    0.17
   0   9  -2    0.34    0.38
   0  -9   1    3.20    0.77
   0   9  -1    2.85    0.77
   0   9   0    8.15    1.36
   0  -9   0    7.26    1.23
   0  -9  -1    0.47    0.38
   0  -9  -2  138.34    5.93
   0  -9  -3    4.80    1.15
   0  -9  -4   35.03    3.12
   0  -9  -5   -0.69    0.72
   0  -9  -6    2.80    0.93
   0  -9  -7   10.47    1.86
   0  10 -10    7.19    1.45
   0  10  -9    1.14    0.64
   0  10  -8    0.74    0.40
   0  10  -7    9.60    1.52
   0  10  -6   11.67    1.63
   0  10  -5   96.47    4.64
   0  10  -5   94.63    3.90
   0  10  -4   76.57    3.67
   0  10  -4   74.71    4.12
   0  10  -3    3.19    0.80
   0  10  -3    2.81    0.75
   0  10  -2    0.35    0.38
   0  10  -2   -0.30    0.54
   0  10  -1    3.03    0.84
   0  10  -1    1.42    0.56
   0 -10   0   -0.54    0.54
   0  10   0   -0.57    0.54
   0 -10  -1    4.43    1.06
   0  10   1    3.24    0.87
   0 -10  -2    1.57    0.66
   0 -10  -3    0.80    0.48
   0 -10  -4    7.73    1.56
   0  11  -8   -0.26    0.30
   0  11  -7    2.44    0.84
   0  11  -6    0.68    0.40
   0  11  -5   21.47    2.28
   0  11  -4   13.11    1.77
   0  11  -4   12.88    1.62
   0  11  -3   16.05    1.96
   0  11  -3   13.90    1.72
   0  11  -2    8.52    1.42
   0  11  -2    6.20    1.25
   0  11  -1   -0.35    0.55
   0  11  -1   -0.78    0.68
   0  11   0    2.24    0.69
   0  11   0    1.72    0.64
   0 -11  -1    3.81    0.92
   0  11   1    4.88    1.06
   0  11   1    5.72    1.21
   0  12  -6    0.61    0.48
   0  12  -5    9.37    1.56
   0  12  -4    0.84    0.70
   0  12  -3    0.26    0.70
   0  12  -3   -0.11    0.66
   0  12  -2    1.42    0.60
   0  12  -1    1.76    0.77
  -1  12   0   -0.05    0.54
  -1  12  -1    3.13    0.95
  -1  12  -2   56.00    3.77
  -1  12  -3  133.86    5.83
  -1  12  -4   10.25    1.47
  -1  12  -5    6.39    1.15
  -1  12  -6    0.32    0.38
  -1  12  -7    8.34    1.51
  -1  11   3    3.18    0.88
  -1  11   2    3.37    1.02
  -1  11   1    1.59    0.76
  -1  11   0    0.17    0.23
  -1  11   0    0.04    0.41
  -1  11  -1    0.19    0.34
  -1  11  -1   -0.03    0.34
  -1  11  -2   48.80    3.29
  -1  11  -2   52.45    3.11
  -1  11  -3   96.90    4.27
  -1  11  -3   95.65    4.54
  -1  11  -4   -0.09    0.39
  -1  11  -4    0.02    0.27
  -1  11  -5    1.26    0.51
  -1  11  -6    3.25    0.93
  -1  11  -7   -0.09    0.34
  -1  11  -8    0.25    0.49
  -1  11  -9   13.27    1.91
  -1  10   5    3.52    0.97
  -1  10   4   21.71    2.30
  -1  10   3    8.20    1.44
   1 -10  -3    9.62    1.43
  -1  10   2    2.14    0.65
   1 -10  -2    4.10    0.89
  -1  10   2    3.12    0.76
  -1  10   1    0.67    0.34
   1 -10  -1    0.72    0.29
  -1  10   1    1.02    0.52
  -1  10   0    0.71    0.48
  -1  10   0    1.12    0.45
  -1  10  -1   -0.72    0.51
  -1  10  -1   -0.06    0.31
  -1  10  -2   56.14    3.06
  -1  10  -2   50.45    3.12
  -1  10  -3  147.75    5.03
  -1  10  -3  144.35    5.20
  -1  10  -4  113.33    4.47
  -1  10  -4  119.93    4.62
  -1  10  -5    0.21    0.24
  -1  10  -5    1.25    0.51
  -1  10  -6    2.33    0.68
  -1  10  -6    2.96    0.67
  -1  10  -7    1.90    0.64
  -1  10  -8    2.18    0.82
  -1  10  -9    2.98    0.85
  -1  10 -10   24.03    2.60
   1  -9  -6    0.31    0.30
   1  -9  -5    3.47    0.85
   1  -9  -4   63.64    3.69
   1  -9  -3  158.79    5.71
  -1   9   2   17.01    1.74
  -1   9   2   18.21    1.52
   1  -9  -2   16.85    1.72
  -1   9   2   14.15    1.69
  -1   9   1   -0.12    0.20
  -1   9   1   -0.13    0.22
  -1   9   1    0.21    0.31
   1  -9  -1   -0.02    0.19
  -1   9   0    0.33    0.23
  -1   9   0    0.56    0.26
  -1   9   0    0.27    0.32
  -1   9  -1    0.06    0.19
  -1   9  -1    0.24    0.31
  -1   9  -2    4.89    0.86
  -1   9  -2    3.92    0.79
  -1   9  -2    2.31    0.59
  -1   9  -3  170.93    5.12
  -1   9  -3  163.76    5.14
  -1   9  -4  216.94    5.93
  -1   9  -4  210.54    5.70
  -1   9  -5    0.55    0.30
  -1   9  -5   -1.93    0.58
  -1   9  -6    3.68    0.69
  -1   9  -6    4.33    0.90
  -1   9  -7    0.78    0.44
  -1   9  -8    0.06    0.35
  -1   9  -9    9.24    1.48
  -1   9 -10   25.93    2.63
  -1   9 -11    0.02    0.51
   1  -8  -8    6.83    1.27
   1  -8  -7    2.82    0.85
   1  -8  -6    3.63    0.83
   1  -8  -5   10.07    1.43
   1  -8  -4    0.07    0.34
  -1   8   4   -0.09    0.32
  -1   8   3    0.26    0.17
   1  -8  -3    0.07    0.24
  -1   8   2    0.10    0.24
   1  -8  -2    0.40    0.34
  -1   8   1   -0.09    0.24
  -1   8   1    0.61    0.40
   1  -8  -1    0.73    0.39
  -1   8   1    0.13    0.19
  -1   8   0    1.69    0.51
   1  -8   0    2.38    0.55
  -1   8   0    2.22    0.56
  -1   8   0    3.30    0.66
  -1   8  -1    1.46    0.44
  -1   8  -1    1.68    0.48
  -1   8  -1    1.32    0.54
  -1   8  -2    0.00    0.18
  -1   8  -2   -0.06    0.25
  -1   8  -2    0.08    0.24
  -1   8  -3    4.76    0.80
  -1   8  -3    2.66    0.67
  -1   8  -3    3.39    0.66
  -1   8  -4    1.68    0.54
  -1   8  -4    0.96    0.30
  -1   8  -4    1.50    0.44
  -1   8  -5   10.92    1.25
  -1   8  -5    9.34    1.01
  -1   8  -6    4.80    0.67
  -1   8  -6    4.37    0.88
  -1   8  -7    5.39    0.98
  -1   8  -7    4.98    0.60
  -1   8  -8   10.04    1.38
  -1   8  -9   -0.10    0.44
  -1   8 -10    0.30    0.28
  -1   8 -11    0.13    0.38
   1  -7 -10    0.30    0.53
   1  -7  -9    1.81    0.66
   1  -7  -8   15.93    1.81
   1  -7  -7    0.87    0.51
   1  -7  -6    6.89    1.11
  -1   7   6    7.14    0.94
   1  -7  -5    8.04    1.17
  -1   7   5    7.64    0.91
   1  -7  -4    0.01    0.23
  -1   7   4    0.53    0.27
  -1   7   3   36.01    1.84
  -1   7   2   29.62    1.65
  -1   7   1    0.01    0.13
  -1   7   0    2.82    0.55
  -1   7   0    2.67    0.62
  -1   7   0    2.94    0.62
  -1   7  -1   -0.12    0.23
  -1   7  -1    0.04    0.25
  -1   7  -1   -0.24    0.21
  -1   7  -2    0.48    0.22
  -1   7  -2    0.79    0.49
  -1   7  -2    0.52    0.20
  -1   7  -3   11.01    1.06
  -1   7  -3    9.03    0.98
  -1   7  -3   10.22    1.24
  -1   7  -4    5.25    0.89
  -1   7  -4    4.78    0.69
  -1   7  -4    6.48    0.87
  -1   7  -5    2.90    0.65
  -1   7  -5    3.54    0.56
   1  -7   5    3.83    0.79
  -1   7  -5    4.27    0.88
  -1   7  -6   20.13    1.24
  -1   7  -6   20.47    1.73
  -1   7  -7   50.37    2.88
  -1   7  -7   48.23    1.68
  -1   7  -8    2.77    0.73
  -1   7  -9   27.70    2.41
  -1   7 -10   18.42    2.07
  -1   7 -11    3.28    0.96
  -1   7 -12    5.33    1.20
   1  -6 -12    1.45    0.67
   1  -6 -11    7.78    1.47
   1  -6 -10    1.78    0.62
   1  -6  -9   17.90    1.83
   1  -6  -8    3.02    0.74
  -1   6   7    2.27    0.52
   1  -6  -7    1.18    0.45
   1  -6  -6    7.74    1.05
  -1   6   6    8.18    0.96
   1  -6  -5   11.53    1.24
  -1   6   5   11.36    1.06
  -1   6   4  150.89    3.88
  -1   6   3   11.83    0.97
   1  -6  -3   12.02    1.19
   1  -6  -2   30.33    1.88
  -1   6   2   30.51    1.50
  -1   6   1    8.83    0.84
   1  -6  -1    9.15    0.99
  -1   6   0    0.30    0.23
  -1   6   0   -0.09    0.12
   1  -6   0    0.07    0.16
  -1   6   0    0.47    0.24
  -1   6  -1   -0.18    0.19
  -1   6  -1    0.27    0.15
  -1   6  -1    0.37    0.30
  -1   6  -2   16.46    1.19
  -1   6  -2   16.85    1.21
  -1   6  -2   15.30    1.33
  -1   6  -3    6.09    0.85
  -1   6  -3    6.16    0.71
  -1   6  -3    6.01    0.73
  -1   6  -4    5.51    0.75
  -1   6  -4    5.51    0.84
   1  -6   4    4.40    0.80
  -1   6  -4    5.12    0.62
  -1   6  -5    6.35    0.88
  -1   6  -5    5.88    0.64
   1  -6   5    6.49    0.98
  -1   6  -6   38.58    2.30
  -1   6  -6   38.48    1.52
  -1   6  -7    1.82    0.52
  -1   6  -8   24.39    2.07
  -1   6  -9    3.23    0.86
  -1   6 -10    1.12    0.49
  -1   6 -11   -0.54    0.51
  -1   6 -12    0.08    0.46
   1  -5 -13    1.60    0.67
   1  -5 -12    1.84    0.72
  -1   5  12    2.52    0.77
   1  -5 -11    7.52    1.24
   1  -5 -10   13.34    1.57
   1  -5  -9   -0.01    0.25
  -1   5   8    4.18    0.74
   1  -5  -8    5.33    0.92
  -1   5   7    0.40    0.29
   1  -5  -7    0.16    0.18
  -1   5   6    0.07    0.14
   1  -5  -6   -0.07    0.14
  -1   5   5    2.01    0.43
  -1   5   4   17.42    1.12
   1  -5  -4   15.46    1.20
   1  -5  -3  227.65    4.83
  -1   5   3  234.00    4.29
  -1   5   2  143.56    3.08
   1  -5  -2  152.18    3.89
  -1   5   1   54.26    1.88
   1  -5  -1   57.55    2.20
  -1   5   0    5.19    0.61
  -1   5   0    5.25    0.60
   1  -5   0    4.85    0.57
  -1   5   0    5.61    0.69
  -1   5  -1   24.89    1.44
  -1   5  -1   27.08    1.34
  -1   5  -1   25.32    1.42
  -1   5  -2    0.55    0.16
  -1   5  -2    0.69    0.23
  -1   5  -2    0.57    0.22
  -1   5  -3  172.50    3.64
  -1   5  -3  171.57    4.26
   1  -5   3  168.17    4.29
  -1   5  -3  171.07    3.85
   1  -5   4  425.88    7.54
  -1   5  -4  411.38    6.07
  -1   5  -4  416.06    6.98
  -1   5  -5   87.39    2.30
  -1   5  -5   77.20    2.95
   1  -5   5   80.57    3.14
  -1   5  -6   15.27    1.39
   1  -5   6   13.22    1.31
  -1   5  -6   12.67    0.74
  -1   5  -7    0.41    0.22
   1  -5   7    0.67    0.15
  -1   5  -8   28.14    2.18
   1  -5   8   24.57    0.87
  -1   5  -9    8.22    1.22
  -1   5 -10   94.77    4.51
  -1   5 -11    0.80    0.53
  -1   5 -12    5.91    1.25
  -1   5 -13    0.22    0.34
  -1   4  13    1.75    0.72
   1  -4 -13    1.01    0.55
   1  -4 -12    3.12    0.93
   1  -4 -11   17.71    1.89
   1  -4 -10   64.19    3.34
   1  -4  -9   38.21    2.41
   1  -4  -8   37.32    2.21
  -1   4   8   37.39    2.16
   1  -4  -7    2.34    0.52
  -1   4   7    3.22    0.58
  -1   4   6    1.95    0.43
   1  -4  -5   51.93    2.06
  -1   4   5   51.91    2.02
   1  -4  -4    5.05    0.61
  -1   4   4    5.46    0.59
   1  -4  -3 2440.48   23.25
  -1   4   3 2425.68   22.83
   1  -4  -2  463.13    6.43
  -1   4   2  455.38    5.75
  -1   4   1    0.49    0.15
   1  -4  -1    0.79    0.20
  -1   4   0  136.02    3.20
   1  -4   0  138.64    2.83
  -1   4   0  139.01    2.81
  -1   4   0  134.43    3.02
  -1   4  -1    1.90    0.34
  -1   4  -1    1.90    0.34
  -1   4  -1    1.28    0.24
  -1   4  -2   23.19    1.14
   1  -4   2   24.98    1.30
  -1   4  -2   23.77    1.16
   1  -4   3  163.86    3.73
   1  -4   3  152.26    2.98
  -1   4  -3  163.06    3.25
  -1   4  -3  161.54    3.54
  -1   4  -4  690.29    9.46
   1  -4   4  688.05    7.83
  -1   4  -4  703.62    8.26
   1  -4   4  703.20    9.62
  -1   4  -5   57.51    2.44
  -1   4  -5   60.18    1.67
   1  -4   5   62.75    2.52
   1  -4   5   58.16    1.61
   1  -4   6    0.85    0.20
  -1   4  -6    0.87    0.34
   1  -4   7    8.39    0.62
   1  -4   7    7.50    0.98
  -1   4  -7    9.19    1.15
  -1   4  -8   -0.17    0.39
   1  -4   8    0.10    0.09
   1  -4   9    1.35    0.26
  -1   4  -9    1.36    0.50
  -1   4 -10   38.27    2.83
  -1   4 -11    1.49    0.58
  -1   4 -12   -0.33    0.37
  -1   4 -13    6.46    1.38
   1  -3 -14    0.34    0.45
   1  -3 -13    1.99    0.70
  -1   3  13    1.54    0.60
   1  -3 -12    1.25    0.57
   1  -3 -11    1.29    0.58
   1  -3 -10   42.87    2.66
   1  -3  -9    4.98    0.85
  -1   3   8    2.60    0.54
   1  -3  -8    1.91    0.48
  -1   3   7   10.86    1.05
   1  -3  -7   12.20    1.14
  -1   3   6    0.23    0.17
   1  -3  -5    2.16    0.40
  -1   3   5    2.36    0.40
  -1   3   4   30.75    1.31
   1  -3  -4   31.79    1.34
  -1   3   3  408.50    5.16
   1  -3  -3  405.47    5.31
  -1   3   2 1002.55    9.80
   1  -3  -2  998.34   10.17
   1  -3  -1   73.15    1.71
  -1   3   1   74.94    1.50
  -1   3   1   76.61    2.19
  -1   3   0    7.57    0.63
  -1   3   0    7.30    0.51
  -1   3   0    7.15    0.44
  -1   3  -1    5.75    0.51
   1  -3   1    5.18    0.45
   1  -3   1    5.54    0.50
  -1   3  -1    5.19    0.42
   1  -3   2   15.04    0.78
   1  -3   2   15.78    0.88
  -1   3  -2   15.68    0.87
  -1   3  -2   15.57    0.86
  -1   3  -3    1.46    0.30
   1  -3   3    1.72    0.26
   1  -3   3    1.16    0.26
   1  -3   4  793.36    9.96
  -1   3  -4  775.00   10.17
  -1   3  -4  792.88    8.46
   1  -3   4  771.65    8.64
  -1   3  -5  111.99    3.44
   1  -3   5  110.15    2.47
   1  -3   5  117.18    3.36
  -1   3  -6   80.75    3.14
   1  -3   6   79.27    2.21
   1  -3   6   85.08    3.07
   1  -3   7    1.98    0.49
   1  -3   7    1.42    0.32
  -1   3  -7    1.20    0.44
  -1   3  -8    0.62    0.28
   1  -3   8    1.26    0.31
   1  -3   9   11.05    0.94
  -1   3  -9   13.31    1.58
   1  -3  10   30.50    1.63
  -1   3 -10   32.13    2.55
  -1   3 -11   51.36    3.43
  -1   3 -12    6.53    1.31
  -1   3 -13   11.37    1.83
   1  -2 -14   76.88    4.47
   1  -2 -13    0.96    0.58
  -1   2  13    1.69    0.61
  -1   2  12    0.67    0.34
   1  -2 -12    0.54    0.44
   1  -2 -11   16.53    1.75
   1  -2 -10   -0.12    0.42
   1  -2  -9  443.99    8.79
  -1   2   9  450.61    8.37
   1  -2  -9  440.93    8.58
   1  -2  -8  259.09    5.96
  -1   2   8  265.25    5.85
  -1   2   7   31.37    1.73
  -1   2   6    4.05    0.56
   1  -2  -6    4.38    0.63
   1  -2  -5    0.08    0.09
  -1   2   5    0.10    0.11
   1  -2  -4    7.19    0.60
  -1   2   4    6.98    0.58
  -1   2   3  490.05    5.64
  -1   2   2 9999.00   84.10
  -1   2   1 1799.92   17.01
   1  -2   0  728.03    6.76
  -1   2   0  731.77    6.73
   1  -2   0  719.61    7.82
  -1   2   0  742.38    7.95
   1  -2   1  125.67    2.38
  -1   2  -1  131.86    2.47
  -1   2  -1  125.76    2.22
   1  -2   1  130.21    2.17
  -1   2  -2  100.92    2.13
   1  -2   2   95.38    2.08
   1  -2   2   97.11    2.19
  -1   2  -2   93.43    2.22
   1  -2   3  228.63    4.11
   1  -2   3  232.19    3.71
  -1   2  -3  230.44    3.43
  -1   2  -3  226.17    4.18
  -1   2  -4  146.57    3.61
   1  -2   4  146.93    3.50
   1  -2   4  140.76    2.85
   1  -2   5 1166.86   12.30
   1  -2   5 1170.69   13.98
   1  -2   6    8.98    0.98
   1  -2   6    7.72    0.68
   1  -2   7   56.34    2.68
   1  -2   7   56.53    2.01
  -1   2  -7   49.71    2.67
   1  -2   8   -0.04    0.14
  -1   2  -8   -0.02    0.18
  -1   2  -9    5.00    0.91
   1  -2   9    5.07    0.67
  -1   2 -10   74.10    3.91
  -1   2 -11   67.58    3.94
  -1   2 -12    0.71    0.55
  -1   2 -13    3.28    0.94
   1  -1 -14    1.89    0.69
   1  -1 -13    1.12    0.68
  -1   1  13    0.91    0.39
  -1   1  12    6.36    0.95
   1  -1 -12    6.73    1.22
   1  -1 -11    5.32    1.02
   1  -1 -10    0.21    0.21
   1  -1  -9    0.30    0.25
  -1   1   9   -0.01    0.16
   1  -1  -8   38.59    2.19
  -1   1   8   40.96    2.12
  -1   1   7   36.08    1.86
   1  -1  -6   11.61    1.00
  -1   1   6   12.24    0.97
  -1   1   5    0.26    0.13
   1  -1  -5    0.31    0.17
  -1   1   4    0.47    0.15
   1  -1  -4    0.47    0.18
  -1   1   3    5.17    0.47
  -1   1   3    4.45    0.37
   1  -1  -3    4.55    0.40
   1  -1  -2    4.70    0.30
  -1   1   2    4.69    0.40
   1  -1  -2    5.41    0.44
  -1   1   2    4.15    0.28
  -1   1   1    2.46    0.28
  -1   1   0  230.85    2.52
   1  -1   0  229.07    2.51
  -1   1   0  232.89    3.32
  -1   1  -1    5.67    0.44
  -1   1  -1    4.99    0.40
   1  -1   1    5.33    0.43
   1  -1   1    5.41    0.40
  -1   1  -2   79.34    2.04
   1  -1   2   79.84    2.00
   1  -1   2   78.50    1.82
   1  -1   3    2.11    0.30
   1  -1   3    1.63    0.32
   1  -1   4   37.21    1.72
   1  -1   5  110.38    3.33
   1  -1   6    1.35    0.37
  -1   1  -7   92.89    3.61
   1  -1   7   98.61    3.60
  -1   1  -8   19.66    1.78
  -1   1  -9    7.13    1.16
  -1   1 -10    0.77    0.31
  -1   1 -11   -0.11    0.37
  -1   1 -11   -0.11    0.37
  -1   1 -12    0.83    0.35
  -1   1 -13    3.83    0.98
   1   0 -14   13.66    1.90
   1   0 -13   19.06    2.14
  -1   0  12   17.46    1.41
   1   0 -12   15.63    1.85
  -1   0  11   -0.14    0.25
   1   0 -11    0.27    0.27
   1   0 -10    5.09    0.94
  -1   0  10    5.74    0.73
  -1   0   9   27.22    1.51
   1   0  -9   26.11    1.95
  -1   0   8  312.13    6.31
   1   0  -8  294.60    6.54
  -1   0   7  116.54    3.41
  -1   0   6   29.98    1.26
   1   0  -6   32.41    1.70
  -1   0   6   32.28    1.60
  -1   0   5    0.22    0.11
   1   0  -5    0.15    0.09
  -1   0   5    0.43    0.20
  -1   0   4    0.20    0.07
   1   0  -4    0.26    0.14
  -1   0   4    0.22    0.11
  -1   0   3  196.43    3.28
   1   0  -3  196.97    3.15
   1   0  -3  198.88    2.82
  -1   0   3  199.61    2.86
   1   0  -2   20.50    0.73
   1   0  -2   20.10    0.83
  -1   0   2   19.99    0.87
  -1   0   2   22.07    0.78
   1   0  -1 3201.17   25.10
  -1   0   1 3101.88   25.01
   1   0  -1 2582.49   24.43
  -1   0   1 2602.45   24.33
   1   0   0   10.40    0.55
  -1   0   0    9.60    0.52
   1   0   1  883.31    8.95
   1   0   2  513.23    6.52
   1   0   3   81.54    2.41
   1   0   4  127.60    3.37
   1   0   5   46.18    2.16
  -1   0  -6   41.80    2.20
  -1   0  -6   42.22    2.28
   1   0   6   44.14    2.28
  -1   0  -7   45.23    2.48
   1   0   7   42.74    2.40
  -1   0  -8    3.55    0.74
  -1   0  -9    6.34    1.05
  -1   0 -10    8.02    1.25
  -1   0 -11    0.00    0.55
  -1   0 -12    2.60    0.78
  -1   0 -13    2.33    0.82
   1   1 -14    6.69    1.31
   1   1 -13    0.04    0.36
   1   1 -12    5.31    1.10
  -1  -1  12    4.78    0.65
  -1  -1  11   13.65    1.01
   1   1 -11   16.75    1.79
   1   1 -10   20.59    1.86
  -1  -1  10   20.68    1.20
   1   1  -9    6.15    0.95
  -1  -1   9    6.94    0.63
  -1  -1   8   78.89    2.06
  -1  -1   8   82.52    3.19
   1   1  -8   77.86    3.23
  -1  -1   7    3.57    0.61
   1   1  -7    3.43    0.61
  -1  -1   7    2.91    0.34
  -1  -1   6   16.20    0.73
  -1  -1   6   15.74    1.19
  -1  -1   5   23.38    1.36
   1   1  -5   22.28    1.27
  -1  -1   5   22.92    0.79
  -1  -1   4    0.44    0.10
  -1  -1   4    0.56    0.21
   1   1  -4    0.15    0.12
   1   1  -3   33.71    0.84
  -1  -1   3   36.69    0.90
   1   1  -3   32.73    1.35
  -1  -1   3   32.40    1.44
   1   1  -2   34.25    1.41
   1   1  -2   34.15    0.95
   1   1  -1   44.14    1.59
   1   1   0  209.79    3.55
   1   1   1    0.16    0.12
   1   1   2  138.59    2.97
   1   1   3   71.87    2.32
  -1  -1  -3   70.43    2.29
   1   1   3   72.07    2.33
   1   1   4    6.73    0.78
   1   1   5    4.28    0.67
  -1  -1  -6   16.60    1.38
   1   1   6   17.55    1.47
   1   1   7   21.43    1.73
  -1  -1  -7   28.13    1.94
  -1  -1  -8   29.32    2.13
  -1  -1  -9    6.64    1.10
  -1  -1 -10    1.55    0.65
  -1  -1 -11   -0.48    0.57
  -1  -1 -12   -0.41    0.51
  -1  -1 -13    1.24    0.64
   1   2 -14    1.45    0.60
   1   2 -13    0.90    0.55
   1   2 -12   -0.25    0.50
  -1  -2  11   18.74    0.91
   1   2 -11   18.34    1.91
  -1  -2  10    0.11    0.08
   1   2 -10   -0.03    0.47
  -1  -2   9    0.11    0.06
   1   2  -9    0.03    0.40
   1   2  -8    9.92    1.14
  -1  -2   8    9.88    0.50
  -1  -2   7   10.33    1.12
   1   2  -7   11.18    1.14
  -1  -2   6    2.40    0.47
  -1  -2   5   46.53    2.16
  -1  -2   4    0.03    0.16
   1   2  -3  138.41    3.52
   1   2  -3  146.82    2.16
   1   2  -2  105.22    3.02
   1   2  -1  550.39    7.87
  -1  -2   0   41.39    1.82
   1   2   0   40.11    1.65
   1   2   1    5.99    0.63
  -1  -2  -1    5.25    0.63
   1   2   2    1.24    0.30
  -1  -2  -2    1.15    0.34
   1   2   3  124.82    3.28
  -1  -2  -3  123.23    3.38
   1   2   4   95.07    3.09
  -1  -2  -5    0.19    0.18
   1   2   5    0.01    0.15
  -1  -2  -6    1.63    0.45
   1   2   6    2.21    0.54
  -1  -2  -7    9.80    1.20
  -1  -2  -8    0.79    0.31
  -1  -2  -9   29.11    2.35
  -1  -2 -10   24.45    2.25
  -1  -2 -11  194.05    6.85
  -1  -2 -12   46.46    3.46
   1   3 -14   15.79    2.12
   1   3 -13   -0.05    0.35
   1   3 -12   -0.24    0.55
   1   3 -11    8.26    1.29
   1   3 -10   69.52    3.57
   1   3  -9  211.02    5.96
   1   3  -8  284.92    6.65
   1   3  -7    2.96    0.61
  -1  -3   7    2.60    0.59
  -1  -3   6  115.75    4.02
  -1  -3   5    5.89    0.84
   1   3  -4    2.74    0.26
   1   3  -4    1.94    0.45
   1   3  -3   24.93    1.62
  -1  -3   2 1204.72   14.73
   1   3  -2 1232.50   14.93
   1   3  -1  959.06   12.31
  -1  -3   1  951.53   12.61
  -1  -3   0   20.48    1.48
   1   3   0   18.30    1.26
   1   3   1   53.37    2.11
  -1  -3  -1   52.88    2.36
   1   3   2   24.21    1.41
  -1  -3  -2   24.58    1.60
   1   3   3   32.94    1.73
  -1  -3  -4  221.14    5.42
   1   3   4  227.90    5.19
   1   3   5    9.17    1.06
  -1  -3  -5    8.77    1.06
   1   3   6    1.55    0.49
  -1  -3  -6    0.98    0.37
  -1  -3  -7    2.63    0.62
  -1  -3  -8    0.27    0.22
  -1  -3  -9   22.32    2.11
  -1  -3 -10   25.36    2.37
  -1  -3 -11   75.39    4.34
  -1  -3 -12   16.42    2.10
   1   4 -14   11.75    1.82
   1   4 -13    4.33    1.12
   1   4 -12    1.29    0.59
   1   4 -11    0.07    0.31
   1   4 -10   12.98    1.55
   1   4  -9   15.38    1.60
   1   4  -8    2.10    0.64
   1   4  -7   10.05    1.17
  -1  -4   6    4.82    0.86
   1   4  -6    4.12    0.69
   1   4  -6    3.98    0.78
   1   4  -5   18.45    1.58
   1   4  -5   16.86    0.67
   1   4  -4   17.61    1.47
   1   4  -4   15.53    1.47
   1   4  -3    3.25    0.69
   1   4  -3    3.08    0.65
   1   4  -2  249.46    5.93
   1   4  -1   62.51    2.68
   1   4   0   13.86    1.22
   1   4   1    0.04    0.19
   1   4   2    0.78    0.28
  -1  -4  -3    5.43    0.88
   1   4   3    5.72    0.76
   1   4   4    3.53    0.64
  -1  -4  -4    4.12    0.79
  -1  -4  -5   45.66    2.66
   1   4   5   40.79    2.33
  -1  -4  -6   30.53    2.25
  -1  -4  -7   15.98    1.67
  -1  -4  -8    0.50    0.25
  -1  -4  -9   12.15    1.66
  -1  -4 -10    1.74    0.74
  -1  -4 -11   31.42    2.94
   1   5 -13    5.71    1.24
   1   5 -12    1.63    0.64
   1   5 -11    3.76    0.95
   1   5 -10    3.61    0.86
   1   5  -9   24.59    2.11
   1   5  -8  892.10   14.11
   1   5  -7 1190.37   16.29
   1   5  -6   14.69    0.60
   1   5  -6   13.79    0.59
   1   5  -5    7.43    1.05
   1   5  -5    5.56    0.97
   1   5  -4    6.00    0.99
   1   5  -4    6.07    0.95
   1   5  -3    8.58    1.20
  -1  -5   3   11.18    1.26
   1   5  -3   12.83    1.41
  -1  -5   2    2.01    0.53
   1   5  -2    2.86    0.63
   1   5  -1 1151.08   15.28
  -1  -5   1 1107.21   16.02
   1   5   0  370.43    7.43
  -1  -5   0  372.20    8.31
  -1  -5  -1   77.41    3.69
   1   5   1   81.83    3.18
   1   5   2    7.22    0.93
  -1  -5  -2    5.96    1.08
   1   5   3    2.88    0.59
  -1  -5  -3    1.98    0.64
  -1  -5  -4   37.85    2.56
  -1  -5  -5  301.32    7.68
  -1  -5  -6   12.56    1.55
  -1  -5  -7    0.13    0.23
  -1  -5  -8   44.88    3.19
  -1  -5  -9    0.49    0.43
  -1  -5 -10    0.13    0.39
  -1  -5 -11   65.19    4.49
   1   6 -13   55.09    4.02
   1   6 -12    2.54    0.73
   1   6 -11    1.03    0.50
   1   6 -10   -0.12    0.35
   1   6  -9   -0.22    0.34
   1   6  -8    9.63    1.32
   1   6  -7  109.38    4.37
   1   6  -6  112.49    4.51
   1   6  -6  137.92    2.74
   1   6  -5   -0.18    0.45
   1   6  -4   25.65    2.16
   1   6  -4   25.57    2.14
   1   6  -3    0.80    0.37
  -1  -6   3    0.66    0.38
   1   6  -3    1.79    0.61
   1   6  -2   12.24    1.42
  -1  -6   2   10.49    1.34
   1   6  -1    9.93    1.25
  -1  -6   1   12.36    1.54
  -1  -6   0    2.12    0.74
   1   6   0    0.84    0.43
   1   6   1   99.20    3.76
  -1  -6  -1   99.82    4.49
  -1  -6  -2   13.57    1.69
  -1  -6  -3   13.62    1.68
  -1  -6  -4   -0.34    0.45
  -1  -6  -5    6.71    1.25
  -1  -6  -6    7.44    1.38
  -1  -6  -7   13.95    1.86
  -1  -6  -8   11.14    1.70
  -1  -6  -9    4.40    1.20
  -1  -6 -10    8.98    1.67
   1   7 -12    1.22    0.72
   1   7 -11    0.74    0.53
   1   7 -10    3.77    1.01
   1   7  -9   11.95    1.60
   1   7  -8    0.39    0.26
   1   7  -7  328.97    4.38
   1   7  -7  326.52    4.58
   1   7  -6  304.97    8.04
   1   7  -6  300.85    5.18
   1   7  -5   99.47    4.45
   1   7  -4    0.23    0.36
   1   7  -3   -0.18    0.41
   1   7  -2    1.17    0.57
  -1  -7   2    1.06    0.52
  -1  -7   1   15.78    1.79
  -1  -7   0  175.27    6.34
  -1  -7  -1    8.95    1.44
  -1  -7  -2   83.14    4.51
  -1  -7  -3    0.04    0.29
  -1  -7  -4    8.55    1.45
  -1  -7  -5    6.83    1.32
  -1  -7  -6   51.71    3.70
  -1  -7  -7    0.95    0.63
  -1  -7  -8    0.58    0.52
  -1  -7  -9   11.30    1.86
   1   8 -11    1.08    0.68
   1   8 -10    0.28    0.45
   1   8  -9   -0.17    0.30
   1   8  -8   10.08    1.50
   1   8  -7   43.26    3.07
   1   8  -7   37.86    1.61
   1   8  -6   21.78    2.24
   1   8  -6   22.29    1.46
   1   8  -5    1.67    0.65
   1   8  -5    2.03    0.43
   1   8  -4   -0.11    0.51
   1   8  -3    8.76    1.45
   1   8  -2    0.42    0.24
  -1  -8   2    1.34    0.63
  -1  -8   1    7.64    1.33
  -1  -8   0    1.85    0.65
  -1  -8  -1    9.42    1.59
  -1  -8  -2   32.43    2.96
  -1  -8  -3    1.18    0.60
  -1  -8  -4    3.50    1.05
  -1  -8  -5   -0.64    0.65
  -1  -8  -6   -0.14    0.38
  -1  -8  -7    4.10    1.35
  -1  -8  -8    1.80    0.93
   1   9 -10   -0.29    0.38
   1   9  -9   -0.08    0.57
   1   9  -8    0.09    0.28
   1   9  -7   22.81    2.38
   1   9  -6    1.52    0.47
   1   9  -6    1.57    0.62
   1   9  -5   29.86    2.73
   1   9  -5   24.39    1.83
   1   9  -4   22.97    2.39
   1   9  -3    0.42    0.38
  -1  -9   2   -0.36    0.35
   1   9  -2   -0.03    0.34
  -1  -9   1    1.06    0.61
   1   9  -1   -0.35    0.39
  -1  -9   0   12.78    1.87
  -1  -9  -1   11.52    1.84
  -1  -9  -2    1.40    0.79
  -1  -9  -3    3.72    0.97
  -1  -9  -4    0.12    0.60
  -1  -9  -5   11.45    2.01
  -1  -9  -6   15.21    2.37
   1  10  -9   -0.03    0.72
   1  10  -8    6.66    1.37
   1  10  -7   34.61    3.05
   1  10  -6    9.35    1.63
   1  10  -5    6.08    0.98
   1  10  -5    4.62    1.15
   1  10  -4    0.55    0.34
   1  10  -4    1.28    0.65
   1  10  -3    5.57    1.18
   1  10  -2    8.59    1.55
   1  10  -1    2.61    0.79
  -1 -10   1    3.27    0.94
   1  10   0    0.06    0.53
  -1 -10   0    0.05    0.45
  -1 -10  -1   -0.23    0.55
  -1 -10  -2    3.85    1.22
  -1 -10  -3   20.73    2.67
  -1 -10  -4    0.10    0.43
   1  11  -7    0.21    0.44
   1  11  -6    2.64    0.91
   1  11  -5    0.82    0.70
   1  11  -4    1.48    0.72
   1  11  -3    3.15    0.85
   1  11  -3    2.60    0.81
   1  11  -2    0.17    0.33
   1  11  -1    4.40    1.13
   1  11   0   -0.65    0.73
  -1 -11   0   -0.23    0.85
  -1 -11  -1    1.60    0.78
   1  11   1    0.54    0.35
  -1 -11  -2    2.88    1.04
  -2  13  -1   10.69    1.82
  -2  13  -2   -0.46    0.51
  -2  12   1   -0.15    0.28
  -2  12   0   23.51    2.57
  -2  12  -1   58.92    4.00
  -2  12  -2   80.95    4.63
  -2  12  -3    3.26    0.98
  -2  12  -4   10.38    1.60
  -2  12  -6    0.53    0.49
  -2  12  -7    0.04    0.34
  -2  12  -8    3.04    0.90
  -2  11   3    3.41    0.93
  -2  11   2    0.44    0.49
  -2  11   1    0.58    0.48
  -2  11   0   -0.47    0.34
  -2  11  -1   37.47    2.99
  -2  11  -2   38.91    2.33
  -2  11  -2   36.22    2.89
  -2  11  -3    1.07    0.44
  -2  11  -3    0.05    0.42
  -2  11  -4   15.38    1.83
  -2  11  -4   16.37    1.64
  -2  11  -5    1.14    0.40
  -2  11  -5    2.02    0.63
  -2  11  -6    9.23    1.35
  -2  11  -7    7.45    1.26
  -2  11  -8    6.66    1.28
  -2  11  -9    0.90    0.55
  -2  10   5    0.59    0.69
  -2  10   4   -0.08    0.33
  -2  10   3    5.67    1.21
  -2  10   2    2.32    0.70
  -2  10   1    9.79    1.45
  -2  10   1   12.26    1.13
  -2  10   0    2.85    0.75
  -2  10   0    3.01    0.57
  -2  10  -1    0.63    0.30
  -2  10  -1    1.12    0.61
  -2  10  -2    0.08    0.33
  -2  10  -2   -0.14    0.20
  -2  10  -3    3.86    0.72
  -2  10  -3    4.39    0.96
  -2  10  -4    2.62    0.63
  -2  10  -4    4.00    0.85
  -2  10  -5    9.77    1.29
  -2  10  -5   11.20    1.43
  -2  10  -6    0.87    0.41
  -2  10  -6    1.91    0.56
  -2  10  -7    0.95    0.45
  -2  10  -8    0.38    0.48
  -2  10  -9    1.07    0.46
  -2  10 -10    2.50    0.84
  -2   9   7    3.96    1.06
  -2   9   6    5.87    1.20
  -2   9   5    0.83    0.49
  -2   9   4    0.63    0.44
  -2   9   4    0.38    0.19
  -2   9   3    9.39    0.98
  -2   9   3    5.50    1.12
  -2   9   2   17.88    1.87
  -2   9   2   17.52    1.23
  -2   9   2   17.96    1.31
  -2   9   1    0.60    0.26
  -2   9   1    0.18    0.21
  -2   9   1    0.17    0.19
  -2   9   0    0.01    0.26
  -2   9   0    0.34    0.32
  -2   9   0    0.47    0.27
  -2   9  -1   29.21    2.25
  -2   9  -1   28.34    1.87
  -2   9  -1   31.87    1.75
  -2   9  -2    2.35    0.51
  -2   9  -2    2.02    0.61
  -2   9  -2    1.57    0.53
  -2   9  -3    2.51    0.65
  -2   9  -3    3.03    0.64
  -2   9  -3    2.42    0.68
  -2   9  -4   13.27    1.44
  -2   9  -4   17.24    1.52
  -2   9  -4   13.72    1.59
  -2   9  -5   57.57    2.97
  -2   9  -5   58.10    2.97
  -2   9  -6    7.42    1.12
  -2   9  -6    6.55    0.91
  -2   9  -7   62.61    2.67
  -2   9  -7   64.36    3.52
  -2   9  -8    8.39    1.36
  -2   9  -9    0.84    0.64
  -2   9 -10    3.78    1.03
  -2   9 -11    1.78    0.68
  -2   8   9    4.54    1.12
  -2   8   8    0.89    0.52
   2  -8  -7    0.26    0.29
  -2   8   7    0.04    0.38
   2  -8  -6   47.12    2.73
  -2   8   6   41.30    2.99
  -2   8   5    0.76    0.52
  -2   8   4   27.72    1.41
  -2   8   4   28.67    2.36
  -2   8   3    3.98    0.61
  -2   8   3    4.87    0.96
   2  -8  -3    4.30    0.72
  -2   8   3    3.86    0.54
  -2   8   2   13.86    1.05
  -2   8   2   12.35    1.45
  -2   8   2   13.82    0.99
   2  -8  -2   11.79    1.06
  -2   8   1    0.30    0.17
  -2   8   1    0.46    0.21
  -2   8   1    0.10    0.12
  -2   8   0   25.82    1.61
  -2   8   0   29.21    1.47
  -2   8   0   25.50    1.96
  -2   8  -1    0.16    0.16
  -2   8  -1    0.13    0.18
  -2   8  -1    0.05    0.11
  -2   8  -2   14.71    1.46
  -2   8  -2   13.08    1.32
  -2   8  -2   14.63    1.17
  -2   8  -3    5.88    0.91
  -2   8  -3    9.01    1.13
  -2   8  -3    6.93    0.86
  -2   8  -4    9.95    1.17
  -2   8  -4   11.01    1.32
  -2   8  -4   11.04    1.16
  -2   8  -5   31.50    2.10
  -2   8  -5   31.15    2.30
  -2   8  -5   28.96    1.92
  -2   8  -6   22.62    1.89
  -2   8  -6   18.44    1.48
  -2   8  -7    5.83    0.78
  -2   8  -7    6.70    1.11
  -2   8  -8    0.25    0.38
  -2   8  -8    0.24    0.11
  -2   8  -9    1.09    0.48
  -2   8 -10    1.50    0.61
  -2   8 -11   10.95    1.71
  -2   7  10    3.39    0.95
  -2   7   9    0.86    0.30
   2  -7  -9    0.72    0.41
  -2   7   8    0.94    0.44
   2  -7  -8    1.63    0.57
   2  -7  -7    1.11    0.44
  -2   7   7    1.13    0.42
  -2   7   6    7.74    0.82
  -2   7   6    6.15    1.10
  -2   7   5  254.07    4.63
  -2   7   5  253.13    6.98
  -2   7   4  146.40    3.16
   2  -7  -4  149.64    4.18
  -2   7   4  145.98    5.07
  -2   7   3   27.06    1.32
   2  -7  -3   28.02    1.62
  -2   7   3   25.87    2.03
  -2   7   2   13.42    0.92
  -2   7   2   12.78    0.84
   2  -7  -2   13.26    1.00
  -2   7   2   12.33    1.36
  -2   7   1   30.22    1.39
  -2   7   1   30.09    1.33
  -2   7   1   26.85    1.93
  -2   7   0    3.39    0.66
  -2   7   0    3.00    0.43
  -2   7   0    2.02    0.40
  -2   7  -1   60.16    2.48
  -2   7  -1   60.70    2.08
  -2   7  -1   60.31    2.78
  -2   7  -2  346.87    6.77
  -2   7  -2  356.97    6.02
  -2   7  -2  348.50    7.05
  -2   7  -3   72.62    2.98
  -2   7  -3   71.39    2.95
  -2   7  -3   73.65    2.72
   2  -7   3   68.93    3.04
  -2   7  -4    7.48    0.93
  -2   7  -4    7.39    1.01
   2  -7   4    7.67    1.03
  -2   7  -4    7.48    0.91
  -2   7  -5    0.18    0.23
   2  -7   5    0.44    0.32
  -2   7  -5    0.23    0.21
  -2   7  -6   53.74    2.84
  -2   7  -6   51.66    2.27
  -2   7  -7   12.47    1.02
  -2   7  -7   14.66    1.55
  -2   7  -8  219.79    6.67
  -2   7  -9    0.00    0.36
  -2   7 -10    1.27    0.54
  -2   7 -11    1.94    0.76
  -2   7 -12    1.65    0.67
  -2   6  12   18.81    2.26
  -2   6  11   31.19    2.77
   2  -6 -11   29.26    2.37
  -2   6  10    3.55    0.99
   2  -6 -10    4.07    0.89
  -2   6   9    0.00    0.31
   2  -6  -9   -0.05    0.24
  -2   6   8    4.90    0.70
  -2   6   8    5.09    1.03
   2  -6  -8    3.67    0.71
  -2   6   7    1.90    0.64
  -2   6   7    1.34    0.35
   2  -6  -7    1.79    0.47
  -2   6   6    1.00    0.27
  -2   6   6    1.82    0.52
  -2   6   5  529.60   10.05
   2  -6  -5  528.36    8.11
  -2   6   5  519.57    6.97
  -2   6   4  164.59    3.11
  -2   6   4  168.48    5.10
   2  -6  -4  167.54    3.98
  -2   6   3    4.36    0.41
   2  -6  -3    4.79    0.58
  -2   6   2   41.30    1.32
  -2   6   2   40.00    1.36
   2  -6  -2   42.61    1.59
  -2   6   2   38.65    2.21
  -2   6   1    0.14    0.09
  -2   6   1    0.35    0.12
  -2   6   1   -0.01    0.14
  -2   6   0    1.76    0.28
  -2   6   0    1.73    0.34
  -2   6   0    1.38    0.38
  -2   6  -1   75.67    2.15
  -2   6  -1   72.25    2.49
  -2   6  -1   74.00    2.84
  -2   6  -2  104.73    2.86
   2  -6   2  101.30    3.16
  -2   6  -2  105.52    3.10
  -2   6  -2  106.85    3.44
  -2   6  -3    2.88    0.57
   2  -6   3    2.16    0.49
  -2   6  -3    2.12    0.38
   2  -6   4    4.46    0.72
  -2   6  -4    5.09    0.71
   2  -6   4    4.19    0.60
  -2   6  -4    4.66    0.68
   2  -6   5    2.35    0.45
   2  -6   5    2.16    0.54
  -2   6  -5    2.15    0.51
  -2   6  -5    1.92    0.46
  -2   6  -6    7.69    0.81
  -2   6  -6    7.62    1.05
   2  -6   6    7.58    0.75
  -2   6  -7    1.11    0.45
   2  -6   7    1.09    0.30
   2  -6   8    1.12    0.29
  -2   6  -8    2.36    0.68
  -2   6  -9    2.51    0.80
  -2   6 -10    0.23    0.25
  -2   6 -11    6.16    1.34
  -2   6 -12   -0.20    0.49
  -2   5  13   -0.22    0.29
   2  -5 -12   13.93    1.71
  -2   5  12   10.83    1.64
  -2   5  11    8.24    1.36
   2  -5 -11    5.33    0.97
  -2   5  10    0.68    0.49
   2  -5 -10    0.10    0.18
  -2   5   9    3.23    0.64
  -2   5   9    4.02    0.91
   2  -5  -9    3.22    0.68
  -2   5   8   -0.09    0.15
   2  -5  -8   -0.01    0.19
  -2   5   7   -0.03    0.27
  -2   5   7    0.22    0.18
  -2   5   6   12.08    0.91
   2  -5  -6   11.73    0.99
  -2   5   6   11.71    1.33
  -2   5   5  183.95    5.17
   2  -5  -5  182.14    3.85
  -2   5   5  179.87    3.37
  -2   5   4  624.79   10.16
   2  -5  -4  641.36    8.02
  -2   5   4  635.99    7.09
  -2   5   3  113.97    1.95
   2  -5  -3  111.44    2.57
  -2   5   2   18.95    0.73
  -2   5   2   17.71    0.66
   2  -5  -2   19.05    0.87
  -2   5   2   18.12    1.37
  -2   5   1    1.40    0.18
  -2   5   1    1.50    0.39
  -2   5   1    1.23    0.20
  -2   5   0   17.14    0.92
  -2   5   0   18.12    1.31
  -2   5   0   18.69    0.82
  -2   5  -1    0.39    0.17
  -2   5  -1    0.56    0.24
   2  -5   1    0.22    0.14
   2  -5   1    0.51    0.16
  -2   5  -1    0.28    0.13
  -2   5  -2  100.87    3.16
   2  -5   2  104.26    2.79
  -2   5  -2  100.27    2.66
   2  -5   2  101.23    2.95
  -2   5  -3  284.50    5.35
  -2   5  -3  287.17    5.56
   2  -5   3  296.81    5.39
   2  -5   3  275.72    5.10
  -2   5  -4   35.82    1.90
   2  -5   4   36.17    1.85
   2  -5   4   36.30    1.66
  -2   5  -4   33.74    1.75
  -2   5  -5    4.75    0.63
   2  -5   5    5.78    0.78
   2  -5   5    3.92    0.53
  -2   5  -5    5.97    0.83
  -2   5  -6   14.75    1.41
   2  -5   6   15.60    1.38
  -2   5  -6   14.46    1.02
   2  -5   6   13.15    1.01
   2  -5   7    2.70    0.47
  -2   5  -7    2.89    0.70
  -2   5  -8   50.38    3.01
   2  -5   8   50.09    2.04
  -2   5  -9  106.34    4.65
   2  -5   9  106.17    3.08
  -2   5 -10    6.18    1.21
  -2   5 -11    2.38    0.86
  -2   5 -12    1.56    0.66
   2  -4 -14   -0.44    0.41
  -2   4  13    2.28    0.81
   2  -4 -13    2.90    0.82
  -2   4  12    1.05    0.52
   2  -4 -12    2.00    0.67
   2  -4 -11  133.65    4.86
  -2   4  11  133.31    5.20
  -2   4  10  105.99    4.43
   2  -4 -10  112.19    4.12
  -2   4   9    0.69    0.40
   2  -4  -9    0.90    0.40
  -2   4   9   -0.17    0.14
  -2   4   8    0.47    0.22
  -2   4   8    0.29    0.24
   2  -4  -8    0.33    0.22
  -2   4   7    0.44    0.20
  -2   4   7    0.06    0.22
   2  -4  -6    6.95    0.70
  -2   4   6    7.31    0.67
  -2   4   6    7.56    0.99
   2  -4  -5  125.54    2.81
  -2   4   5  125.93    2.61
  -2   4   5  129.64    3.97
  -2   4   4 1767.70   16.10
  -2   4   4 1747.46   19.71
   2  -4  -4 1784.53   16.70
  -2   4   3  409.54    4.19
   2  -4  -3  414.26    4.99
  -2   4   2   49.80    2.11
   2  -4  -2   47.51    1.03
  -2   4   1   43.08    1.92
   2  -4  -1   41.98    1.89
  -2   4   0   45.69    1.20
   2  -4   0   44.50    1.25
  -2   4   0   45.18    1.20
  -2   4   0   44.68    1.95
   2  -4   0   45.47    1.88
   2  -4   1   48.16    1.46
  -2   4  -1   47.63    1.52
  -2   4  -1   48.25    2.01
   2  -4   1   45.21    1.85
   2  -4   2   31.03    1.34
   2  -4   2   29.12    1.47
  -2   4  -2   31.27    1.62
  -2   4  -2   31.21    1.40
  -2   4  -3  271.96    5.15
   2  -4   3  264.67    4.90
  -2   4  -3  264.67    5.01
   2  -4   3  261.55    4.82
  -2   4  -4   46.60    2.13
   2  -4   4   46.67    2.03
  -2   4  -4   45.20    1.91
   2  -4   4   40.93    1.81
   2  -4   5    1.37    0.34
   2  -4   5    1.42    0.38
  -2   4  -5    0.72    0.28
  -2   4  -5    1.69    0.37
   2  -4   6   -0.09    0.13
   2  -4   6    0.03    0.16
  -2   4  -6   -0.15    0.23
   2  -4   7    0.12    0.14
  -2   4  -7    0.04    0.23
   2  -4   8   53.37    2.38
  -2   4  -8   56.44    3.16
   2  -4   9   20.06    1.48
  -2   4  -9   18.30    1.91
  -2   4 -10    2.81    0.82
  -2   4 -11    1.36    0.62
  -2   4 -12    9.06    1.57
   2  -3 -14    8.45    1.44
  -2   3  13    1.68    0.62
   2  -3 -13    2.89    0.87
  -2   3  12    0.73    0.42
   2  -3 -12   -0.08    0.38
  -2   3  11    0.13    0.22
   2  -3 -11    0.69    0.46
  -2   3  10    0.19    0.20
   2  -3 -10    0.11    0.25
  -2   3   9    2.82    0.64
   2  -3  -9    4.20    0.77
  -2   3   9    3.23    0.63
  -2   3   8    1.58    0.49
  -2   3   8    1.87    0.43
   2  -3  -7   -0.02    0.13
  -2   3   7    0.06    0.13
   2  -3  -6    1.42    0.33
  -2   3   6    1.48    0.42
  -2   3   6    1.70    0.33
  -2   3   5    0.21    0.15
   2  -3  -5    0.23    0.13
  -2   3   5    0.12    0.09
  -2   3   4    0.25    0.18
  -2   3   4    0.16    0.10
   2  -3  -3  103.64    1.72
  -2   3   3  107.63    3.02
  -2   3   2    0.03    0.10
  -2   3   1  207.56    4.24
   2  -3   0   59.02    1.31
  -2   3   0   57.90    1.31
  -2   3   0   58.85    1.13
   2  -3   0   55.29    1.99
  -2   3   0   55.74    2.08
  -2   3  -1    5.49    0.49
  -2   3  -1    4.83    0.59
   2  -3   1    4.95    0.46
   2  -3   1    5.34    0.61
  -2   3  -2    2.32    0.38
  -2   3  -2    2.66    0.44
   2  -3   2    2.49    0.37
   2  -3   2    2.46    0.44
   2  -3   3    3.74    0.54
   2  -3   3    3.44    0.50
  -2   3  -3    3.54    0.52
  -2   3  -3    3.45    0.51
   2  -3   4   36.71    1.75
  -2   3  -4   33.46    1.78
   2  -3   4   35.29    1.78
  -2   3  -4   34.45    1.55
  -2   3  -5   39.98    2.13
   2  -3   5   40.21    2.08
   2  -3   5   41.92    1.97
   2  -3   6    9.18    0.95
  -2   3  -6    9.50    1.11
   2  -3   6    8.52    1.00
  -2   3  -7   16.04    1.58
   2  -3   7   12.87    1.16
  -2   3  -8    0.75    0.40
  -2   3  -9    0.18    0.23
  -2   3 -10    0.75    0.49
  -2   3 -11    0.71    0.43
  -2   3 -12    5.54    1.28
  -2   3 -12    4.58    1.16
   2  -2 -14    7.77    1.41
   2  -2 -13    0.96    0.75
  -2   2  13    0.05    0.25
   2  -2 -12    0.89    0.23
  -2   2  12    1.25    0.52
   2  -2 -11    9.19    1.27
  -2   2  11    8.23    1.07
   2  -2 -10   57.36    2.99
  -2   2  10   53.30    2.67
   2  -2  -9   11.89    1.24
  -2   2   9   12.46    1.18
  -2   2   9   11.53    1.18
  -2   2   8    0.42    0.26
  -2   2   8    0.27    0.24
  -2   2   7    0.11    0.12
  -2   2   7   -0.01    0.09
   2  -2  -7    0.26    0.20
  -2   2   6    2.34    0.38
  -2   2   6    1.93    0.40
   2  -2  -6    2.56    0.44
  -2   2   5   -0.07    0.11
  -2   2   5    0.05    0.05
   2  -2  -5   -0.06    0.14
  -2   2   4    1.24    0.31
  -2   2   4    1.36    0.23
   2  -2  -4    1.44    0.24
   2  -2  -3  212.84    2.84
  -2   2   3  215.57    4.20
   2  -2  -3  213.77    4.08
  -2   2   2   11.47    0.88
   2  -2  -2    9.92    0.43
   2  -2  -2   10.18    0.51
   2  -2  -2   10.64    0.80
   2  -2  -1   87.04    1.35
  -2   2   1   85.47    1.53
   2  -2   0  547.45    6.05
  -2   2   0  549.84    5.82
  -2   2   0  551.52    7.50
   2  -2   1  152.18    2.88
  -2   2  -1  155.45    2.70
  -2   2  -1  153.04    3.43
   2  -2   1  152.59    3.43
  -2   2  -2   42.99    1.71
  -2   2  -2   46.09    1.61
   2  -2   2   43.94    1.66
   2  -2   3  109.39    3.00
   2  -2   3  107.75    3.00
  -2   2  -3  112.96    2.80
  -2   2  -3  108.67    3.01
   2  -2   4    3.87    0.59
  -2   2  -4    4.22    0.63
   2  -2   4    3.57    0.55
   2  -2   5  139.65    3.67
  -2   2  -5  137.40    4.10
   2  -2   5  142.01    4.09
   2  -2   6  102.37    3.24
  -2   2  -6  108.69    3.85
   2  -2   6  111.66    3.88
  -2   2  -7   15.05    1.53
   2  -2   8  129.38    4.03
  -2   2  -8  130.01    4.87
   2  -2   9    2.71    0.59
  -2   2  -9    3.73    0.87
  -2   2  -9    2.69    0.64
   2  -2  10    1.21    0.35
  -2   2 -10    0.99    0.48
  -2   2 -11   -0.38    0.54
  -2   2 -12    0.10    0.31
   2  -1 -15    0.88    0.52
   2  -1 -14    1.89    0.76
   2  -1 -13   14.72    1.86
   2  -1 -12   12.88    1.60
  -2   1  12   15.72    1.43
   2  -1 -11    7.10    1.12
  -2   1  11    8.21    0.98
  -2   1  10   36.15    1.97
   2  -1 -10   34.36    2.29
  -2   1   9    0.43    0.21
   2  -1  -9    0.46    0.19
  -2   1   8    1.46    0.44
  -2   1   8    1.59    0.38
   2  -1  -8    1.51    0.42
  -2   1   7    1.37    0.39
  -2   1   7    1.20    0.33
   2  -1  -6    0.91    0.26
  -2   1   6    0.90    0.25
  -2   1   6    1.12    0.32
  -2   1   5   27.27    1.35
   2  -1  -5   26.49    1.27
  -2   1   5   25.78    1.33
  -2   1   4    2.12    0.37
   2  -1  -4    2.75    0.40
   2  -1  -4    2.55    0.33
  -2   1   4    2.76    0.40
   2  -1  -3   14.46    0.77
  -2   1   3   14.63    0.97
   2  -1  -3   13.31    0.81
   2  -1  -3   13.56    0.86
  -2   1   2   39.85    1.58
   2  -1  -2   37.43    1.35
  -2   1   2   37.69    1.24
   2  -1  -2   37.71    1.49
   2  -1  -1  251.75    3.66
  -2   1   1  244.23    3.94
   2  -1  -1  241.92    4.31
  -2   1   1  255.56    4.44
   2  -1   0  186.76    3.06
  -2   1   0  186.67    3.24
   2  -1   1    0.26    0.11
   2  -1   1    0.08    0.05
  -2   1  -1    0.31    0.13
  -2   1  -1    0.04    0.06
   2  -1   2   10.60    0.84
  -2   1  -2   11.00    0.81
   2  -1   2   11.05    0.89
  -2   1  -3    3.02    0.49
   2  -1   3    3.05    0.52
   2  -1   3    3.13    0.50
   2  -1   4    4.99    0.70
  -2   1  -4    4.30    0.63
   2  -1   4    4.98    0.64
  -2   1  -5   75.64    2.92
   2  -1   5   81.70    3.14
   2  -1   6    0.85    0.31
  -2   1  -6    1.41    0.47
  -2   1  -7    1.72    0.52
   2  -1   7   -0.04    0.27
   2  -1   8   -0.36    0.49
  -2   1  -8    0.76    0.43
  -2   1  -9    7.93    1.17
   2  -1   9    7.84    1.07
  -2   1 -10   -0.41    0.56
  -2   1 -11    1.01    0.58
  -2   1 -12    0.13    0.38
   2   0 -15    2.61    0.99
   2   0 -14    0.91    0.55
   2   0 -13    8.66    1.38
  -2   0  12    0.17    0.17
   2   0 -12    0.75    0.43
   2   0 -11    9.59    1.31
  -2   0  11   10.43    1.01
  -2   0  10   30.62    1.67
   2   0 -10   32.77    2.26
  -2   0   9   19.41    1.63
  -2   0   9   18.76    1.22
   2   0  -9   19.42    1.60
  -2   0   8   23.67    1.31
  -2   0   8   21.76    1.61
   2   0  -8   24.13    1.66
  -2   0   7   41.35    1.70
  -2   0   7   39.92    2.08
  -2   0   6   18.83    1.33
   2   0  -6   17.99    1.20
  -2   0   6   17.01    1.03
  -2   0   5   14.76    0.93
  -2   0   5   14.36    1.10
   2   0  -5   13.14    0.81
   2   0  -5   12.39    0.90
   2   0  -4  502.03    6.91
   2   0  -4  496.68    7.22
  -2   0   4  512.25    6.71
   2   0  -4  495.54    6.35
   2   0  -3  467.57    6.72
   2   0  -3  464.20    6.85
  -2   0   3  458.77    6.35
   2   0  -3  465.62    6.23
   2   0  -2  382.79    5.58
   2   0  -2  384.78    5.94
  -2   0   2  375.81    5.83
  -2   0   2  376.60    5.51
   2   0  -1    6.64    0.61
  -2   0   1    6.34    0.66
   2   0  -1    7.34    0.66
  -2   0   1    6.68    0.59
   2   0   0  174.06    3.44
  -2   0   0  169.64    3.53
   2   0   1  248.26    4.33
  -2   0  -1  246.58    4.52
   2   0   2  572.48    7.85
  -2   0  -2  570.93    8.01
   2   0   3   98.89    3.05
   2   0   4    0.90    0.35
   2   0   5   26.84    1.82
  -2   0  -5   14.61    1.32
  -2   0  -6    8.81    1.09
   2   0   6   10.13    1.19
  -2   0  -7   87.13    3.67
  -2   0  -8   46.93    2.82
  -2   0  -9  673.81   12.43
  -2   0 -10  104.96    4.79
  -2   0 -11   10.88    1.63
  -2   0 -12    0.47    0.55
   2   1 -15    0.71    0.35
   2   1 -14    4.34    1.09
   2   1 -13    2.79    0.79
   2   1 -12   33.49    2.65
  -2  -1  11  127.09    3.20
   2   1 -11  116.05    4.73
  -2  -1  10  419.39    6.29
   2   1 -10  415.11    8.80
  -2  -1   9    1.43    0.30
   2   1  -9    1.22    0.37
  -2  -1   8   39.22    1.50
   2   1  -8   37.72    2.17
  -2  -1   8   37.02    2.27
  -2  -1   7   10.31    1.15
   2   1  -7    9.97    1.02
  -2  -1   7    9.82    0.72
  -2  -1   6    0.81    0.21
  -2  -1   6    0.76    0.33
  -2  -1   5    2.22    0.51
   2   1  -5    1.74    0.42
   2   1  -5    1.27    0.35
  -2  -1   5    2.55    0.34
   2   1  -5    2.23    0.30
   2   1  -4  887.91    9.79
   2   1  -4  891.69   11.39
   2   1  -4  890.42   11.70
  -2  -1   4  904.93    9.72
   2   1  -3  759.79    8.93
  -2  -1   3  764.42   10.13
   2   1  -3  768.81   10.51
  -2  -1   3  768.62    8.59
   2   1  -2    8.33    0.87
  -2  -1   2    7.44    0.82
   2   1  -2    7.27    0.64
   2   1  -1    9.04    0.84
  -2  -1   1    8.62    0.89
   2   1  -1    8.24    0.70
   2   1   0   12.04    0.96
  -2  -1   0   11.64    1.00
   2   1   1   35.10    1.63
   2   1   2  310.56    5.58
   2   1   3   78.21    2.76
   2   1   4    2.82    0.58
   2   1   5   25.18    1.83
  -2  -1  -5   24.65    1.76
  -2  -1  -6    0.66    0.30
  -2  -1  -7    6.24    1.01
  -2  -1  -8   15.35    1.67
  -2  -1  -9   52.17    3.24
  -2  -1 -10   11.73    1.67
  -2  -1 -11    7.49    1.38
  -2  -1 -12    1.86    0.75
   2   2 -14    2.95    0.90
   2   2 -13    0.45    0.40
   2   2 -12    3.53    0.88
   2   2 -11    9.97    1.37
  -2  -2  10   39.56    1.01
   2   2 -10   42.31    2.65
   2   2  -9   10.74    1.28
  -2  -2   9    9.87    0.49
   2   2  -8    0.29    0.15
  -2  -2   8    1.04    0.34
  -2  -2   8    0.83    0.15
  -2  -2   7   35.02    2.28
  -2  -2   7   34.90    1.01
   2   2  -7   35.72    2.05
  -2  -2   6   39.13    2.32
   2   2  -6   36.38    2.02
   2   2  -6   35.47    2.12
   2   2  -6   42.71    1.19
   2   2  -5    0.12    0.08
   2   2  -5    0.15    0.14
   2   2  -4   84.77    3.24
   2   2  -4   88.89    2.28
   2   2  -3  586.37    9.50
  -2  -2   3  583.23    9.20
   2   2  -3  584.04    7.41
   2   2  -2  102.53    3.46
   2   2  -2  101.05    2.66
   2   2  -1    1.22    0.33
   2   2   0   10.58    1.00
   2   2   1    7.02    0.82
   2   2   2   13.70    1.15
   2   2   3  263.20    5.57
  -2  -2  -3  236.04    5.78
   2   2   4  120.08    3.91
  -2  -2  -4  118.80    4.06
  -2  -2  -5   16.94    1.57
   2   2   5   17.73    1.56
  -2  -2  -6   11.97    1.40
  -2  -2  -7   35.03    2.46
  -2  -2  -8    2.52    0.75
  -2  -2  -9   54.45    3.46
  -2  -2 -10  291.14    8.64
  -2  -2 -11   16.04    2.05
   2   3 -14    7.15    1.38
   2   3 -13    8.60    1.47
   2   3 -12    2.57    0.76
   2   3 -11    0.34    0.22
   2   3 -10  498.81   10.20
   2   3  -9 1151.13   16.35
   2   3  -8    6.78    1.01
   2   3  -7    0.56    0.32
   2   3  -7    0.28    0.26
   2   3  -6    3.08    0.65
   2   3  -6    3.09    0.67
   2   3  -6    2.97    0.31
   2   3  -5    2.07    0.33
   2   3  -5    1.75    0.48
   2   3  -5    1.49    0.45
   2   3  -4   65.23    3.13
   2   3  -4   62.77    1.97
   2   3  -3 1246.89   16.53
   2   3  -2  571.55    9.78
   2   3  -1  172.23    4.70
   2   3   0   24.17    1.67
   2   3   1   11.75    1.13
  -2  -3  -1   10.37    1.19
   2   3   2   77.62    3.00
  -2  -3  -2   73.53    3.26
   2   3   3  422.16    7.81
  -2  -3  -3  425.28    8.61
  -2  -3  -4   82.02    3.65
  -2  -3  -5    0.24    0.23
  -2  -3  -6   45.27    2.89
  -2  -3  -7    1.07    0.49
  -2  -3  -8    2.29    0.77
  -2  -3  -9   51.23    3.52
  -2  -3 -10   72.04    4.38
  -2  -3 -11    0.83    0.66
   2   4 -14    1.17    0.68
   2   4 -13    8.07    1.48
   2   4 -12    1.14    0.49
   2   4 -11    0.94    0.58
   2   4 -10    2.89    0.84
   2   4  -9    6.86    1.16
   2   4  -8   40.74    2.56
   2   4  -7   10.10    1.26
   2   4  -6   48.85    2.83
   2   4  -6   50.86    1.59
   2   4  -5    0.34    0.15
   2   4  -5    0.16    0.31
   2   4  -5    0.44    0.21
   2   4  -4    8.28    1.14
   2   4  -4    9.03    1.25
   2   4  -3    2.29    0.57
  -2  -4   3    3.08    0.72
   2   4  -2   80.49    3.50
  -2  -4   2   76.35    3.62
   2   4  -1  164.90    4.93
  -2  -4   1  164.43    5.45
  -2  -4   0    0.29    0.28
   2   4   0    0.59    0.34
   2   4   1   37.52    2.20
  -2  -4  -1   37.04    2.55
   2   4   2    1.18    0.39
  -2  -4  -2    1.38    0.54
  -2  -4  -3    0.29    0.19
  -2  -4  -4    1.25    0.51
  -2  -4  -5   11.47    1.51
  -2  -4  -6    7.19    1.25
  -2  -4  -7    2.12    0.75
  -2  -4  -8   19.47    2.21
  -2  -4  -9    2.61    0.92
  -2  -4 -10   -0.05    0.67
   2   5 -13    5.39    1.18
   2   5 -12    7.34    1.37
   2   5 -11    7.11    1.29
   2   5 -10    0.86    0.52
   2   5  -9  126.61    4.99
   2   5  -8  299.44    7.64
   2   5  -7  104.79    4.43
   2   5  -7   95.86    1.89
   2   5  -6    4.46    0.90
   2   5  -6    5.39    0.56
   2   5  -5   12.96    0.98
   2   5  -5   12.55    1.55
   2   5  -4    4.05    0.93
   2   5  -3   65.91    3.47
  -2  -5   3   63.06    3.42
   2   5  -2   87.31    3.83
  -2  -5   2   86.72    4.14
  -2  -5   1    2.25    0.72
   2   5  -1    2.08    0.52
  -2  -5   0   69.38    3.81
  -2  -5  -1    2.69    0.84
  -2  -5  -2    1.25    0.50
  -2  -5  -3   -0.27    0.32
  -2  -5  -4   25.10    2.32
  -2  -5  -5    0.04    0.38
  -2  -5  -6    3.09    0.88
  -2  -5  -7    7.35    1.38
  -2  -5  -8   -0.53    0.61
  -2  -5  -9   -0.08    0.55
   2   6 -12    9.32    1.60
   2   6 -11    2.38    0.72
   2   6 -10    1.47    0.63
   2   6  -9   18.86    2.00
   2   6  -8    0.37    0.42
   2   6  -7    3.09    0.40
   2   6  -7    3.01    0.79
   2   6  -6    1.67    0.51
   2   6  -6    2.43    0.44
   2   6  -5    8.60    1.39
   2   6  -4   -0.09    0.31
  -2  -6   3    1.41    0.61
  -2  -6   2    0.41    0.26
  -2  -6   1   67.84    4.00
  -2  -6   0   25.32    2.48
  -2  -6  -1    4.03    0.99
  -2  -6  -2   11.94    1.72
  -2  -6  -3    0.04    0.25
  -2  -6  -4    4.26    1.03
  -2  -6  -5    0.76    0.59
  -2  -6  -6   -0.04    0.52
  -2  -6  -7    1.53    0.73
  -2  -6  -8    0.38    0.61
   2   7 -12   -0.04    0.37
   2   7 -11    3.49    1.12
   2   7 -10    2.83    0.85
   2   7  -9    8.24    1.42
   2   7  -8   16.45    1.94
   2   7  -7    6.96    1.30
   2   7  -6    7.40    0.79
   2   7  -6    6.38    1.22
   2   7  -5    1.25    0.64
   2   7  -4    1.77    0.73
   2   7  -3    9.80    1.53
  -2  -7   3    8.96    1.43
  -2  -7   2   17.83    2.10
  -2  -7   1    2.32    0.81
  -2  -7   0   -0.23    0.38
  -2  -7  -1   -0.25    0.46
  -2  -7  -2    2.51    0.86
  -2  -7  -3   91.97    5.26
  -2  -7  -4  116.06    5.95
  -2  -7  -5   12.76    1.97
  -2  -7  -6    0.91    0.67
  -2  -7  -7    1.71    0.76
   2   8 -10   17.80    2.25
   2   8  -9  101.26    5.22
   2   8  -8   15.99    2.06
   2   8  -7   13.27    1.87
   2   8  -6   11.34    1.74
   2   8  -5   18.00    2.20
   2   8  -4    7.67    1.46
   2   8  -3   13.06    1.86
  -2  -8   3   18.58    2.20
  -2  -8   2    0.27    0.46
  -2  -8   1    6.05    1.34
  -2  -8   0    8.08    1.55
  -2  -8  -1   12.87    2.00
  -2  -8  -2    3.16    0.97
  -2  -8  -3   86.34    5.33
  -2  -8  -4   71.89    4.99
  -2  -8  -5   25.60    3.08
  -2  -8  -6    1.66    0.57
   2   9  -9   12.42    1.92
   2   9  -8    7.19    1.47
   2   9  -7    0.49    0.39
   2   9  -6    0.25    0.41
   2   9  -5   -0.44    0.61
   2   9  -4    0.20    0.32
  -2  -9   3    2.35    0.90
   2   9  -3    1.28    0.69
   2   9  -2    9.38    1.62
  -2  -9   2   10.62    1.76
  -2  -9   1   12.10    1.97
  -2  -9   0    3.64    1.11
  -2  -9  -1    5.02    1.37
  -2  -9  -2    1.06    0.80
  -2  -9  -3   -0.24    0.72
  -2  -9  -4   51.30    4.41
   2  10  -7    1.42    0.79
   2  10  -6   13.85    2.08
   2  10  -5    0.57    0.53
   2  10  -4   -0.31    0.52
   2  10  -3   42.22    3.51
   2  10  -2   38.65    3.35
  -2 -10   2   48.30    3.98
   2  10  -1   -0.27    0.49
  -2 -10   1    0.26    0.44
  -2 -10   0   26.90    3.10
  -2 -10  -1    5.52    1.43
  -2 -10  -2   -0.62    0.38
  -3  13  -1    0.77    0.71
  -3  13  -2   11.66    1.98
  -3  12   1    3.32    0.97
  -3  12   0    0.29    0.51
  -3  12  -1    0.04    0.43
  -3  12  -2   11.50    1.79
  -3  12  -3    1.99    0.73
  -3  12  -4    1.84    0.87
  -3  11   4    5.40    1.26
  -3  11   3    4.77    1.17
  -3  11   2    0.13    0.40
  -3  11   1   21.73    2.37
  -3  11   0    8.62    1.52
  -3  11  -1    4.08    1.10
  -3  11  -2   10.61    1.65
  -3  11  -3   29.25    2.65
  -3  11  -4    8.68    1.45
  -3  11  -4   10.76    1.27
  -3  11  -5   75.59    3.65
  -3  11  -5   68.59    3.89
  -3  11  -6    0.19    0.43
  -3  11  -7    2.78    0.82
  -3  11  -8   -0.43    0.32
  -3  11  -9    5.58    1.22
  -3  10   6   20.35    2.35
  -3  10   5    0.50    0.40
  -3  10   4    9.62    1.59
  -3  10   3    0.38    0.30
  -3  10   2   32.25    2.77
  -3  10   1    3.20    0.83
  -3  10   0   41.21    3.00
  -3  10  -1    2.80    0.76
  -3  10  -1    2.65    0.49
  -3  10  -2    1.54    0.59
  -3  10  -2    1.28    0.35
  -3  10  -3   27.82    2.43
  -3  10  -3   32.87    2.02
  -3  10  -4    3.40    0.68
  -3  10  -4    1.82    0.64
  -3  10  -5   37.60    2.47
  -3  10  -5   31.35    2.47
  -3  10  -6    1.15    0.52
  -3  10  -6    1.29    0.55
  -3  10  -7    0.62    0.42
  -3  10  -8    0.65    0.51
  -3  10  -9    5.89    1.25
  -3  10 -10    8.66    1.55
  -3   9   8    5.05    1.25
  -3   9   7  145.89    6.24
  -3   9   6  161.44    6.39
  -3   9   5    7.19    1.33
  -3   9   4    4.69    1.04
  -3   9   3   15.39    1.83
  -3   9   2   10.08    0.55
  -3   9   2    9.41    1.40
  -3   9   1    7.26    0.58
  -3   9   1    5.99    0.53
  -3   9   1    7.05    1.18
  -3   9   0  154.95    3.43
  -3   9   0  159.05    3.39
  -3   9   0  147.38    5.47
  -3   9  -1   43.46    2.01
  -3   9  -1   42.55    2.87
  -3   9  -1   46.87    1.96
  -3   9  -2    2.37    0.54
  -3   9  -2    2.06    0.61
  -3   9  -2    1.77    0.43
  -3   9  -3    0.29    0.31
  -3   9  -3    0.53    0.32
  -3   9  -3    0.30    0.25
  -3   9  -4   22.28    1.88
  -3   9  -4   20.25    1.91
  -3   9  -4   20.51    1.65
  -3   9  -5    6.66    1.07
  -3   9  -5    8.59    1.15
  -3   9  -6  211.63    5.97
  -3   9  -6  215.24    6.29
  -3   9  -7   12.40    1.58
  -3   9  -7   13.27    1.32
  -3   9  -8    0.51    0.31
  -3   9  -9    4.38    1.07
  -3   9 -10    1.71    0.73
  -3   8   9    0.09    0.33
  -3   8   8    6.36    1.31
  -3   8   7   83.24    4.47
  -3   8   6   16.28    1.93
  -3   8   5   -0.37    0.34
   3  -8  -5    0.28    0.21
   3  -8  -4   21.42    1.01
  -3   8   4   18.87    1.90
  -3   8   3    0.05    0.21
  -3   8   2    0.48    0.39
  -3   8   1   23.26    0.89
  -3   8   1   23.32    2.02
  -3   8   1   23.65    0.95
  -3   8   0   13.71    0.87
  -3   8   0   13.22    0.85
  -3   8   0   12.79    1.49
  -3   8  -1   11.81    1.43
  -3   8  -1   13.58    1.08
  -3   8  -2   10.62    1.33
  -3   8  -2   10.09    1.03
  -3   8  -2   12.02    1.03
  -3   8  -3    2.90    0.67
   3  -8   3    1.51    0.46
  -3   8  -3    3.44    0.60
  -3   8  -3    3.62    0.63
  -3   8  -4    0.38    0.20
  -3   8  -4    0.71    0.33
  -3   8  -4    0.11    0.19
   3  -8   4    0.09    0.21
  -3   8  -5    0.24    0.18
  -3   8  -5   -0.14    0.17
  -3   8  -6    7.10    0.98
  -3   8  -6    8.88    1.21
  -3   8  -7    3.05    0.79
  -3   8  -7    3.16    0.62
  -3   8  -8    0.21    0.23
  -3   8  -9    1.03    0.53
  -3   8 -10    1.07    0.64
  -3   8 -11   -0.05    0.27
  -3   7  11    1.53    0.74
  -3   7  10    1.16    0.64
  -3   7   9    0.07    0.37
  -3   7   8    7.34    1.34
  -3   7   7   59.91    3.58
   3  -7  -7   56.90    2.41
   3  -7  -6  210.08    4.50
  -3   7   6  200.39    2.74
   3  -7  -5  114.61    2.85
  -3   7   5  120.65    4.73
   3  -7  -4   17.79    0.81
  -3   7   4   16.29    1.67
  -3   7   3    0.24    0.17
  -3   7   2    0.39    0.28
  -3   7   1    0.27    0.27
  -3   7   1    0.37    0.08
  -3   7   1    0.26    0.08
  -3   7   0   10.39    1.27
  -3   7   0    8.95    0.64
  -3   7  -1   90.01    2.67
  -3   7  -1   90.64    3.73
  -3   7  -1   99.11    2.63
  -3   7  -2    0.88    0.30
  -3   7  -2    0.95    0.28
   3  -7   2    0.98    0.32
  -3   7  -2    1.40    0.34
   3  -7   2    0.74    0.27
   3  -7   3    8.38    0.96
  -3   7  -3    9.60    1.18
   3  -7   3    9.52    1.08
  -3   7  -3    9.39    0.96
  -3   7  -4    5.12    0.84
   3  -7   4    5.35    0.78
   3  -7   4    5.02    0.77
  -3   7  -4    5.95    0.83
  -3   7  -5    4.31    0.75
   3  -7   5    3.83    0.69
  -3   7  -5    4.26    0.76
   3  -7   5    5.17    0.87
  -3   7  -6   43.51    2.63
  -3   7  -6   42.27    2.30
   3  -7   6   45.14    2.24
  -3   7  -7  100.50    4.26
   3  -7   7   90.91    3.20
  -3   7  -7   97.31    3.33
  -3   7  -8    8.50    1.30
  -3   7  -9    0.89    0.55
  -3   7 -10    3.88    0.96
  -3   7 -11    5.88    1.27
  -3   6  12   24.20    2.52
  -3   6  11    3.34    0.96
  -3   6  10   -0.18    0.41
   3  -6 -10    0.34    0.35
  -3   6   9    3.07    0.85
   3  -6  -9    2.56    0.55
  -3   6   8    0.68    0.41
   3  -6  -7   22.79    1.39
  -3   6   7   23.61    1.08
  -3   6   7   24.87    2.15
   3  -6  -6  222.86    4.30
  -3   6   6  226.52    3.19
   3  -6  -5   37.54    1.43
  -3   6   5   43.54    2.65
  -3   6   4    3.35    0.69
   3  -6  -4    3.02    0.28
  -3   6   3   46.36    2.60
  -3   6   2   29.00    1.99
  -3   6   1    3.13    0.65
  -3   6   0    2.02    0.29
  -3   6   0    1.81    0.28
   3  -6   0    1.62    0.43
  -3   6  -1   30.35    1.35
   3  -6   1   29.04    1.39
  -3   6  -1   31.03    1.31
  -3   6  -1   30.39    2.02
   3  -6   1   30.83    1.89
  -3   6  -2   55.86    2.12
   3  -6   2   55.98    2.11
  -3   6  -2   54.05    2.69
   3  -6   2   54.35    2.47
  -3   6  -3   19.37    1.37
  -3   6  -3   16.72    1.47
   3  -6   3   19.52    1.31
   3  -6   3   17.07    1.37
  -3   6  -4    4.18    0.71
   3  -6   4    4.47    0.71
   3  -6   4    4.18    0.67
  -3   6  -4    4.59    0.73
  -3   6  -5   26.35    1.86
   3  -6   5   25.24    1.67
   3  -6   5   30.47    1.90
  -3   6  -5   27.89    1.85
  -3   6  -6   33.21    2.25
  -3   6  -6   32.48    1.90
   3  -6   6   32.20    1.90
  -3   6  -7    3.07    0.78
   3  -6   7    4.15    0.71
   3  -6   8    2.51    0.58
  -3   6  -8    1.00    0.44
  -3   6  -9    5.13    1.08
  -3   6 -10    0.52    0.49
  -3   6 -11    2.36    0.81
  -3   5  13   -0.19    0.33
  -3   5  12    0.18    0.32
  -3   5  11    1.27    0.56
   3  -5 -11    0.91    0.42
  -3   5  10    2.61    0.76
   3  -5 -10    2.92    0.64
  -3   5   9    5.54    1.00
   3  -5  -9    5.65    0.81
  -3   5   8   -0.01    0.28
  -3   5   8    0.00    0.15
  -3   5   7    0.38    0.19
   3  -5  -7   -0.01    0.13
  -3   5   7    0.18    0.10
  -3   5   6    0.62    0.41
  -3   5   6    0.47    0.11
   3  -5  -6    0.65    0.24
   3  -5  -5   11.84    0.70
  -3   5   5   12.36    1.31
   3  -5  -4    9.80    0.48
  -3   5   4   20.56    1.63
  -3   5   3   47.70    2.46
  -3   5   2    0.40    0.19
   3  -5  -2   -0.14    0.29
  -3   5   1   20.67    1.59
   3  -5  -1   19.67    1.46
  -3   5   0    4.19    0.71
   3  -5   0    4.19    0.67
  -3   5   0    4.11    0.30
   3  -5   0    4.68    0.41
  -3   5   0    4.25    0.34
  -3   5  -1    5.52    0.81
   3  -5   1    5.37    0.52
  -3   5  -1    5.52    0.56
  -3   5  -2   11.75    0.94
   3  -5   2   11.26    0.88
  -3   5  -2   12.00    1.19
  -3   5  -3    0.13    0.13
   3  -5   3    0.09    0.12
  -3   5  -3    0.15    0.23
  -3   5  -4    5.44    0.79
   3  -5   4    5.12    0.77
  -3   5  -4    5.50    0.80
   3  -5   5    1.98    0.48
  -3   5  -5    2.00    0.52
  -3   5  -5    3.27    0.61
  -3   5  -6   12.65    1.40
   3  -5   7    2.34    0.58
  -3   5  -7    1.66    0.53
   3  -5   8    0.87    0.39
  -3   5  -8    0.06    0.23
  -3   5  -9    0.29    0.30
  -3   5 -10   15.03    1.92
  -3   5 -11    0.06    0.41
  -3   5 -12    7.57    1.49
  -3   4  13    0.40    0.45
   3  -4 -13    1.37    0.72
  -3   4  12    7.44    1.26
   3  -4 -12    8.33    1.23
  -3   4  11    1.25    0.51
   3  -4 -11    0.99    0.39
  -3   4  10    2.25    0.61
  -3   4  10    1.57    0.43
   3  -4 -10    2.86    0.66
  -3   4   9    6.37    1.02
   3  -4  -9    6.77    0.91
  -3   4   9    6.22    0.81
  -3   4   8    6.35    1.00
  -3   4   8    5.84    0.71
   3  -4  -7    7.11    0.74
  -3   4   7    7.24    0.70
  -3   4   7    7.42    1.02
   3  -4  -6   25.56    1.25
  -3   4   6   24.70    1.15
  -3   4   6   26.88    1.89
  -3   4   5   -0.06    0.21
   3  -4  -5    0.04    0.07
   3  -4  -4   28.69    0.81
   3  -4  -4   29.07    0.95
  -3   4   4   27.72    1.81
  -3   4   3    0.74    0.34
   3  -4  -3    0.02    0.11
  -3   4   2  298.92    6.28
   3  -4  -1  160.64    2.20
  -3   4   1  172.21    4.56
  -3   4   0    1.49    0.42
  -3   4   0    1.53    0.21
   3  -4   0    1.40    0.23
   3  -4   1  130.26    2.85
  -3   4  -1  130.27    3.91
  -3   4  -1  127.77    2.58
  -3   4  -2    9.75    0.77
   3  -4   2    8.64    0.78
  -3   4  -2    7.29    0.91
  -3   4  -3  150.13    3.86
   3  -4   3  150.86    3.80
  -3   4  -3  148.50    4.16
  -3   4  -4  146.89    4.14
  -3   4  -4  141.30    3.92
   3  -4   4  140.46    3.96
  -3   4  -5   82.05    2.92
   3  -4   5   80.92    3.15
  -3   4  -5   78.12    3.22
  -3   4  -6  471.64    9.10
   3  -4   6  453.95    8.56
   3  -4   7   28.49    2.02
  -3   4  -7   28.49    2.22
   3  -4   8    4.71    0.84
  -3   4  -8    4.42    0.97
   3  -4   9    1.01    0.34
  -3   4  -9    1.56    0.60
  -3   4  -9    0.92    0.26
  -3   4 -10    5.26    1.10
  -3   4 -11   12.52    1.79
  -3   4 -12   -0.52    0.63
   3  -3 -14    4.49    1.11
   3  -3 -13   12.36    1.60
  -3   3  13   12.62    1.57
  -3   3  12    8.43    1.23
   3  -3 -12    9.88    1.32
  -3   3  11   -0.15    0.32
   3  -3 -11    0.02    0.21
   3  -3 -10   11.24    1.24
  -3   3  10   11.31    1.22
  -3   3  10   10.82    1.30
  -3   3   9    4.71    0.84
   3  -3  -9    5.46    0.79
  -3   3   9    4.32    0.69
  -3   3   8    3.11    0.66
  -3   3   8    5.10    0.71
   3  -3  -7   15.30    1.09
  -3   3   7   12.39    1.00
  -3   3   7   14.11    1.33
   3  -3  -6    1.04    0.26
  -3   3   6    0.58    0.17
  -3   3   6    0.86    0.34
  -3   3   5    5.25    0.78
   3  -3  -5    5.67    0.50
  -3   3   4    1.89    0.47
   3  -3  -4    1.37    0.38
   3  -3  -4    1.49    0.27
   3  -3  -4    1.42    0.21
   3  -3  -3   80.98    1.43
  -3   3   3   89.79    3.14
   3  -3  -3   88.13    2.91
   3  -3  -2    4.91    0.30
  -3   3   2    5.24    0.73
   3  -3  -1   50.97    1.34
  -3   3   1   48.97    1.38
  -3   3   1   50.14    2.28
   3  -3   0   19.11    0.94
  -3   3   0   20.04    0.93
   3  -3   0   19.62    1.39
  -3   3   0   20.49    1.45
   3  -3   1    0.68    0.27
   3  -3   1    0.30    0.08
  -3   3  -1    0.47    0.19
  -3   3  -1    0.28    0.16
   3  -3   2    0.28    0.17
  -3   3  -2    0.50    0.19
  -3   3  -2    0.29    0.20
  -3   3  -3   25.56    1.45
   3  -3   3   26.76    1.57
  -3   3  -3   26.90    1.61
   3  -3   4   46.47    2.27
  -3   3  -4   45.92    2.15
  -3   3  -4   43.82    2.08
   3  -3   5   -0.04    0.27
  -3   3  -5   -0.12    0.19
   3  -3   5    0.16    0.27
  -3   3  -6   50.49    2.66
   3  -3   6   52.42    2.70
  -3   3  -7   69.67    3.34
   3  -3   7   65.87    3.17
   3  -3   8    1.17    0.34
  -3   3  -8    1.23    0.41
  -3   3  -9    4.36    0.92
  -3   3 -10   -0.30    0.38
  -3   3 -11   14.77    1.92
  -3   3 -12    0.51    0.47
   3  -2 -15   10.44    1.68
   3  -2 -14   -0.03    0.30
   3  -2 -13   16.72    1.81
  -3   2  13   19.84    1.84
   3  -2 -12   80.60    3.86
  -3   2  12   82.44    3.63
   3  -2 -11   27.52    2.09
  -3   2  11   26.82    1.99
  -3   2  10   26.03    1.93
  -3   2  10   26.18    1.88
   3  -2 -10   27.90    1.97
  -3   2   9   14.47    1.36
  -3   2   9   15.43    1.39
   3  -2  -9   14.56    1.31
  -3   2   8   28.21    1.76
  -3   2   8   22.52    1.64
  -3   2   7    0.66    0.22
  -3   2   7    0.47    0.18
   3  -2  -7    0.15    0.13
   3  -2  -6  295.56    4.99
  -3   2   6  305.91    6.19
   3  -2  -5  419.31    6.42
  -3   2   5  433.49    7.48
   3  -2  -5  433.41    7.04
  -3   2   4   86.91    3.02
   3  -2  -4   82.33    2.03
   3  -2  -4   80.27    2.41
   3  -2  -4   84.01    2.72
   3  -2  -3   15.03    0.89
   3  -2  -3   15.08    0.95
  -3   2   3   17.32    1.30
   3  -2  -3   15.20    1.13
   3  -2  -2  102.00    2.34
  -3   2   2  109.37    2.54
  -3   2   2  108.38    3.33
   3  -2  -2  104.14    3.17
   3  -2  -1  298.51    4.28
  -3   2   1  301.54    4.79
  -3   2   1  297.43    5.87
   3  -2   0 1227.51   12.44
  -3   2   0 1210.80   12.94
  -3   2   0 1222.63   14.58
   3  -2   1  568.85    8.95
   3  -2   1  574.68    7.74
   3  -2   1  564.42    7.49
  -3   2  -1  570.41    7.61
  -3   2  -1  578.01    8.66
  -3   2  -2   23.79    1.36
   3  -2   2   24.87    1.44
  -3   2  -2   24.83    1.51
   3  -2   3   53.52    2.32
  -3   2  -3   51.48    2.19
  -3   2  -4   24.63    1.62
   3  -2   4   25.64    1.73
  -3   2  -5   81.30    3.20
   3  -2   5   81.01    3.27
   3  -2   5   82.70    3.36
  -3   2  -6    9.48    1.17
   3  -2   6    8.49    1.08
  -3   2  -7 1329.76   18.00
   3  -2   7 1348.34   17.82
  -3   2  -8  211.58    6.36
  -3   2  -9    4.82    1.03
  -3   2 -10    1.78    0.70
  -3   2 -11    3.08    0.80
   3  -1 -15    0.24    0.50
   3  -1 -14    2.77    0.82
   3  -1 -13   45.38    3.10
   3  -1 -12  234.94    6.83
  -3   1  12  238.08    6.02
   3  -1 -11    7.68    1.11
  -3   1  11    6.65    0.93
  -3   1  10    7.67    0.97
   3  -1 -10    7.96    1.09
   3  -1  -9   10.40    1.13
  -3   1   9    8.37    1.09
  -3   1   9    9.72    1.04
  -3   1   8    0.30    0.25
  -3   1   8    0.01    0.18
   3  -1  -8   -0.12    0.19
  -3   1   7    3.02    0.57
  -3   1   7    2.34    0.52
   3  -1  -6  225.65    4.48
   3  -1  -6  230.90    5.08
  -3   1   6  234.67    5.13
   3  -1  -6  237.43    4.77
   3  -1  -5   84.25    2.55
   3  -1  -5   87.69    2.89
  -3   1   5   95.03    3.07
   3  -1  -5   95.59    2.81
   3  -1  -4   25.38    1.37
   3  -1  -4   25.70    1.52
  -3   1   4   27.19    1.61
   3  -1  -4   27.76    1.50
  -3   1   3    9.80    0.96
   3  -1  -3   11.31    0.96
   3  -1  -3   10.16    0.92
  -3   1   3   11.06    0.88
   3  -1  -2   11.88    0.90
  -3   1   2   11.06    0.94
   3  -1  -2   12.17    1.04
  -3   1   2   14.84    1.13
   3  -1  -1    3.51    0.58
   3  -1  -1    5.11    0.57
  -3   1   1    4.86    0.63
  -3   1   1    3.90    0.59
   3  -1   0    0.30    0.08
  -3   1   0    0.04    0.21
  -3   1   0    0.38    0.20
   3  -1   1  142.10    3.36
  -3   1  -1  147.30    3.71
  -3   1  -1  148.41    3.74
   3  -1   2    9.40    0.89
  -3   1  -2    9.28    0.91
  -3   1  -3    2.90    0.54
   3  -1   3    3.31    0.62
   3  -1   4    2.02    0.51
  -3   1  -4    1.82    0.49
   3  -1   4    1.84    0.48
  -3   1  -5   -0.34    0.33
   3  -1   5   -0.05    0.24
   3  -1   5    0.15    0.17
  -3   1  -6    8.15    1.07
   3  -1   6    9.70    1.18
  -3   1  -7    9.74    1.30
  -3   1  -8    0.52    0.51
  -3   1  -9   17.89    1.91
  -3   1 -10    0.68    0.51
  -3   1 -11    3.22    0.93
   3   0 -15    1.20    0.66
   3   0 -14    2.02    0.80
   3   0 -13    6.37    1.14
  -3   0  12   68.53    2.84
   3   0 -12   64.53    3.58
  -3   0  11   78.76    2.99
   3   0 -11   81.67    3.76
  -3   0  10    0.05    0.17
   3   0 -10   -0.17    0.23
  -3   0   9    4.03    0.64
  -3   0   9    3.81    0.81
   3   0  -9    3.54    0.68
  -3   0   8    4.11    0.61
   3   0  -8    4.51    0.70
  -3   0   8    4.54    0.82
  -3   0   7   11.26    1.02
   3   0  -7   12.60    1.25
   3   0  -7   12.27    0.97
  -3   0   6    0.42    0.20
   3   0  -6    0.52    0.21
   3   0  -6    0.41    0.25
   3   0  -5  402.98    6.36
   3   0  -5  400.96    6.91
   3   0  -5  393.70    7.41
  -3   0   5  409.35    6.76
   3   0  -4   33.99    1.86
   3   0  -4   32.47    1.89
   3   0  -4   33.68    1.68
  -3   0   4   34.55    1.72
   3   0  -3   49.48    2.30
  -3   0   3   46.55    2.16
  -3   0   3   45.97    1.99
   3   0  -3   44.59    2.00
   3   0  -2   15.92    1.20
  -3   0   2   15.32    1.25
  -3   0   2   15.59    1.11
   3   0  -2   15.21    1.18
  -3   0   1    4.50    0.68
   3   0  -1    4.28    0.61
   3   0  -1    3.98    0.61
  -3   0   1    3.51    0.53
   3   0   0   43.38    1.90
  -3   0   0   41.73    2.04
   3   0   1  727.11    9.84
  -3   0  -1  732.65   10.43
   3   0   2  353.31    6.46
  -3   0  -2  367.26    6.99
   3   0   3    7.09    0.88
  -3   0  -3    5.84    0.85
   3   0   3    5.40    0.83
  -3   0  -4   18.22    1.54
   3   0   4   16.79    1.51
   3   0   4   18.65    1.60
   3   0   5   42.95    2.53
  -3   0  -5   36.89    2.35
  -3   0  -6    2.79    0.71
  -3   0  -7   24.80    2.14
  -3   0  -8  502.81   10.75
  -3   0  -9   22.44    2.22
  -3   0 -10    4.46    1.14
  -3   0 -11    1.68    0.73
   3   1 -15    2.45    0.85
   3   1 -14    1.11    0.64
   3   1 -13    3.26    0.91
   3   1 -12  179.37    6.14
  -3  -1  11  522.51    7.68
   3   1 -11  514.02   10.34
  -3  -1  10    3.27    0.51
   3   1 -10    2.77    0.70
  -3  -1   9    1.84    0.40
   3   1  -9    2.59    0.60
  -3  -1   8    0.69    0.24
   3   1  -8    0.26    0.25
   3   1  -8    0.32    0.25
   3   1  -7    6.14    0.62
   3   1  -7    6.24    0.84
   3   1  -7    7.50    1.02
  -3  -1   7    6.82    0.73
   3   1  -6   19.49    1.50
   3   1  -6   19.34    1.65
  -3  -1   6   20.33    1.22
   3   1  -6   19.13    1.14
  -3  -1   5  331.77    5.52
   3   1  -5  322.59    7.18
   3   1  -5  323.76    5.64
   3   1  -4  114.68    3.26
   3   1  -4  115.35    3.97
  -3  -1   4  115.31    3.77
  -3  -1   4  121.63    3.09
   3   1  -3   72.77    3.04
  -3  -1   3   70.44    3.00
   3   1  -3   66.02    2.48
   3   1  -2   -0.04    0.09
   3   1  -2    0.21    0.20
  -3  -1   1    1.62    0.46
   3   1  -1    1.18    0.33
   3   1  -1    0.80    0.28
   3   1   0  115.28    3.55
  -3  -1   0  109.24    3.79
   3   1   0  118.09    3.66
   3   1   1  318.08    6.20
  -3  -1  -1  298.62    6.67
   3   1   2  100.45    3.34
  -3  -1  -2  107.05    3.78
   3   1   3    7.01    0.93
  -3  -1  -3    6.64    0.97
  -3  -1  -4   17.44    1.66
  -3  -1  -5    0.60    0.46
  -3  -1  -6    0.38    0.35
  -3  -1  -7   27.05    2.31
  -3  -1  -8   34.33    2.78
  -3  -1  -9    2.14    0.80
  -3  -1 -10    4.25    1.08
   3   2 -14    0.20    0.40
   3   2 -13    0.09    0.29
   3   2 -12    1.00    0.50
   3   2 -11    2.17    0.70
   3   2 -10    1.63    0.47
  -3  -2  10    1.82    0.27
   3   2  -9   14.13    1.47
  -3  -2   9   15.90    0.85
   3   2  -8    2.28    0.35
   3   2  -8    1.80    0.49
   3   2  -7    6.34    0.95
   3   2  -7    8.67    1.20
   3   2  -7    6.90    0.64
   3   2  -6   -0.01    0.08
   3   2  -6    0.05    0.23
   3   2  -5   11.06    1.29
   3   2  -5   11.27    1.34
   3   2  -5   10.04    0.92
   3   2  -4  133.07    4.60
  -3  -2   4  125.51    4.33
   3   2  -4  125.74    3.48
   3   2  -3   33.08    2.20
  -3  -2   3   32.73    2.22
   3   2  -3   32.87    1.78
   3   2  -2   30.96    1.77
   3   2  -2   34.28    2.11
  -3  -2   2   30.80    2.19
   3   2  -1   57.19    2.72
  -3  -2   1   53.89    2.91
   3   2  -1   62.71    2.69
  -3  -2   0    0.02    0.16
   3   2   0    0.26    0.17
   3   2   1    0.86    0.38
  -3  -2  -1    1.21    0.46
   3   2   2    7.23    0.96
  -3  -2  -2    6.99    1.05
  -3  -2  -3   10.29    1.32
  -3  -2  -4    0.60    0.41
  -3  -2  -5    0.33    0.27
  -3  -2  -6    5.68    1.11
  -3  -2  -7    2.44    0.71
  -3  -2  -8   12.23    1.71
  -3  -2  -9   20.85    2.39
  -3  -2 -10   -0.79    0.60
   3   3 -14    0.92    0.47
   3   3 -13    0.31    0.32
   3   3 -12    1.71    0.60
   3   3 -11   18.70    1.94
   3   3 -10   70.21    3.59
   3   3  -9   23.21    1.97
   3   3  -8    1.56    0.49
   3   3  -8    3.15    0.36
   3   3  -7    8.25    1.20
   3   3  -7    8.55    0.71
   3   3  -6   17.64    1.72
   3   3  -6   18.67    1.22
   3   3  -5   65.66    3.43
   3   3  -5   66.88    3.50
   3   3  -4    7.59    1.17
   3   3  -4    7.30    0.85
  -3  -3   4    7.06    1.09
  -3  -3   3    7.83    1.18
   3   3  -3    7.41    1.12
   3   3  -3    7.84    0.92
   3   3  -2   43.19    2.58
  -3  -3   2   41.69    2.75
   3   3  -1   84.21    3.54
  -3  -3   1   85.17    4.00
   3   3   0   32.02    2.15
  -3  -3   0   36.08    2.62
  -3  -3  -1   38.59    2.69
  -3  -3  -2    0.82    0.45
  -3  -3  -3   -0.34    0.41
  -3  -3  -4    0.33    0.22
  -3  -3  -5    0.23    0.33
  -3  -3  -6    0.53    0.28
  -3  -3  -7   14.47    1.93
  -3  -3  -8   29.45    2.83
  -3  -3  -9    0.68    0.72
   3   4 -13    0.45    0.38
   3   4 -12    1.19    0.62
   3   4 -11    4.94    1.04
   3   4 -10    0.09    0.37
   3   4  -9   21.93    2.04
   3   4  -8    0.64    0.17
   3   4  -8    0.84    0.43
   3   4  -7    1.29    0.29
   3   4  -7    0.89    0.35
   3   4  -6    1.29    0.35
   3   4  -6    1.75    0.67
   3   4  -5    0.28    0.24
   3   4  -5    0.74    0.27
  -3  -4   4   19.17    1.92
   3   4  -4   19.88    1.48
  -3  -4   3   56.68    3.43
   3   4  -3   65.96    2.91
  -3  -4   2    0.97    0.40
  -3  -4   1   20.41    2.10
  -3  -4   0    4.76    1.04
  -3  -4  -1    0.99    0.44
  -3  -4  -2    3.42    0.83
  -3  -4  -3    0.55    0.36
  -3  -4  -4   -0.44    0.71
  -3  -4  -5    0.01    0.33
  -3  -4  -6    0.51    0.47
  -3  -4  -7    6.00    1.32
  -3  -4  -8    4.51    1.22
   3   5 -13   -0.35    0.55
   3   5 -12   14.06    1.88
   3   5 -11   20.63    2.23
   3   5 -10   37.10    2.89
   3   5  -9    7.42    1.26
   3   5  -8    0.62    0.14
   3   5  -8    1.05    0.53
   3   5  -7   12.90    1.68
   3   5  -7   13.20    1.04
   3   5  -6    0.00    0.36
   3   5  -6    0.04    0.16
   3   5  -5   50.99    3.43
   3   5  -5   48.50    2.35
  -3  -5   4    6.61    1.19
   3   5  -4    6.21    0.90
  -3  -5   3    0.10    0.34
  -3  -5   2    0.82    0.59
  -3  -5   1    4.61    1.09
  -3  -5   0   32.12    2.87
  -3  -5  -1  376.12   10.33
  -3  -5  -2  401.85   10.80
  -3  -5  -3   52.54    3.74
  -3  -5  -4    2.40    0.76
  -3  -5  -5    1.62    0.81
  -3  -5  -6    2.98    0.94
  -3  -5  -7   -0.41    0.65
  -3  -5  -8   94.37    5.64
   3   6 -12   13.10    1.92
   3   6 -11  110.16    5.40
   3   6 -10   20.41    2.26
   3   6  -9    4.00    1.07
   3   6  -8   18.07    2.13
   3   6  -7    5.80    1.22
   3   6  -6    0.11    0.34
   3   6  -6   -0.07    0.17
   3   6  -5   40.45    3.24
   3   6  -5   36.02    2.17
   3   6  -4    0.38    0.40
  -3  -6   4   -0.06    0.33
  -3  -6   3   12.18    1.75
  -3  -6   2    0.16    0.32
  -3  -6   1    0.93    0.64
  -3  -6   0    7.19    1.42
  -3  -6  -1   69.10    4.54
  -3  -6  -2   78.71    4.93
  -3  -6  -3   50.75    3.99
  -3  -6  -4    2.12    0.75
  -3  -6  -5   -0.53    0.64
  -3  -6  -6    0.42    0.56
   3   7 -11   35.73    3.19
   3   7 -10    0.31    0.44
   3   7  -9    0.21    0.36
   3   7  -8    7.76    1.50
   3   7  -7    1.17    0.67
   3   7  -6    0.28    0.45
   3   7  -5    5.88    1.22
   3   7  -4   30.53    2.90
  -3  -7   4   31.69    2.96
  -3  -7   3   15.22    2.09
  -3  -7   2   11.91    1.91
  -3  -7   1    4.66    1.20
  -3  -7   0    1.94    0.83
  -3  -7  -1   -0.47    0.53
  -3  -7  -2  212.21    8.64
  -3  -7  -3  149.35    7.30
  -3  -7  -4    5.86    1.46
  -3  -7  -5   -1.65    0.83
   3   8  -9    6.23    1.33
   3   8  -8   35.11    3.24
   3   8  -7   -0.70    0.60
   3   8  -6    1.53    0.66
   3   8  -5   36.74    3.33
   3   8  -4   80.19    4.89
  -3  -8   4   95.45    5.44
   3   8  -3    0.49    0.51
  -3  -8   3    0.66    0.53
  -3  -8   2   15.59    2.26
  -3  -8   1   18.46    2.52
  -3  -8   0    3.84    1.36
  -3  -8  -1   12.07    2.17
  -3  -8  -2  124.87    6.94
  -3  -8  -3   56.82    4.70
   3   9  -7   25.41    2.89
   3   9  -6    0.75    0.51
   3   9  -5    1.40    0.57
   3   9  -4    1.22    0.62
   3   9  -3    0.41    0.28
  -3  -9   3    0.46    0.63
  -3  -9   2   14.95    2.30
  -3  -9   1    3.18    1.11
  -3  -9   0   18.02    2.63
  -3  -9  -1    0.45    0.44
  -4  13  -2    2.95    1.08
  -4  13  -3   26.98    2.98
  -4  12   1    2.13    0.89
  -4  12   0    1.95    0.77
  -4  12  -1   10.66    1.85
  -4  12  -2    0.40    0.50
  -4  12  -3   33.35    3.15
  -4  12  -4    9.62    1.70
  -4  11   4    5.96    1.36
  -4  11   3    2.32    0.95
  -4  11   2   40.70    3.44
  -4  11   1   19.83    2.37
  -4  11   0    1.74    0.84
  -4  11  -1    0.07    0.36
  -4  11  -2    5.11    1.14
  -4  11  -3    8.80    1.53
  -4  11  -4   94.89    4.96
  -4  11  -5   22.05    2.31
  -4  11  -8   -0.65    0.54
  -4  10   6   15.75    2.14
  -4  10   5   -0.11    0.39
  -4  10   4    0.55    0.33
  -4  10   3    1.89    0.81
  -4  10   2    0.66    0.45
  -4  10   1   18.81    2.17
  -4  10   0    5.90    1.16
  -4  10  -1    6.49    1.24
  -4  10  -2    1.60    0.63
  -4  10  -3   -0.35    0.40
  -4  10  -3    0.33    0.19
  -4  10  -4    5.66    1.19
  -4  10  -4    6.61    0.99
  -4  10  -5    0.23    0.21
  -4  10  -5   -0.01    0.24
  -4  10  -6   -0.47    0.50
  -4  10  -6   -0.48    0.35
  -4  10  -7   -0.55    0.60
  -4  10  -8    0.76    0.52
  -4  10  -9   -0.04    0.28
  -4   9   8   72.27    4.62
  -4   9   7   62.24    4.15
  -4   9   6    2.28    0.82
  -4   9   5    7.37    1.34
  -4   9   4    0.44    0.48
  -4   9   3    0.27    0.44
  -4   9   2    2.29    0.82
  -4   9   1   21.69    2.19
  -4   9   0   -0.13    0.28
  -4   9  -1    0.92    0.57
  -4   9  -1    0.71    0.19
  -4   9  -2    0.36    0.37
  -4   9  -2    1.61    0.39
  -4   9  -3    0.22    0.32
  -4   9  -3    0.63    0.33
  -4   9  -4   30.62    2.05
  -4   9  -4   27.71    2.42
  -4   9  -5   28.71    2.10
  -4   9  -5   29.42    2.41
  -4   9  -6    3.50    0.77
  -4   9  -6    2.81    0.74
  -4   9  -7   -0.37    0.40
  -4   9  -7    0.01    0.34
  -4   9  -8   -0.26    0.40
  -4   9  -9   -0.31    0.54
  -4   9 -10   -0.51    0.63
  -4   8   9    1.34    0.64
  -4   8   8   27.49    2.69
  -4   8   7    1.70    0.77
  -4   8   6    0.10    0.53
  -4   8   5   35.61    2.82
  -4   8   4   12.33    1.64
  -4   8   3    4.55    0.98
  -4   8   2   14.29    1.72
  -4   8   1    6.49    1.19
  -4   8   0   22.99    2.15
  -4   8  -1   11.72    0.88
  -4   8  -1   10.80    0.67
  -4   8  -1    9.73    0.76
  -4   8  -1   10.69    1.43
  -4   8  -2   15.93    1.20
   4  -8   2   16.28    1.31
  -4   8  -2   15.98    1.18
  -4   8  -2   14.30    1.64
  -4   8  -3   61.33    2.63
   4  -8   3   61.93    2.75
  -4   8  -4    3.68    0.84
   4  -8   4    4.28    0.75
  -4   8  -4    3.32    0.69
  -4   8  -5    8.92    1.16
  -4   8  -5    8.74    1.25
  -4   8  -6   -0.04    0.35
  -4   8  -6    0.27    0.28
  -4   8  -7    1.11    0.42
  -4   8  -7    0.84    0.38
  -4   8  -8    0.55    0.26
  -4   8  -9    2.37    0.82
  -4   8 -10    2.07    0.80
  -4   7  11    7.82    1.50
  -4   7  10    1.28    0.77
  -4   7   9    8.57    1.48
  -4   7   8    0.50    0.31
  -4   7   7   -0.11    0.42
  -4   7   6   10.40    1.44
  -4   7   5   -0.04    0.28
  -4   7   4    7.94    1.21
  -4   7   3    3.75    0.84
  -4   7   2    2.81    0.72
  -4   7   1   -0.17    0.32
  -4   7   0    4.02    0.85
  -4   7  -1   -0.07    0.24
  -4   7  -1    0.05    0.08
   4  -7   1   -0.04    0.14
  -4   7  -1    0.30    0.15
  -4   7  -2   12.86    1.48
  -4   7  -2   14.49    1.13
  -4   7  -2   14.13    0.97
   4  -7   2   15.17    1.14
   4  -7   3    0.87    0.33
  -4   7  -3    0.78    0.35
  -4   7  -4   69.14    3.00
   4  -7   4   71.97    2.94
  -4   7  -4   70.56    3.44
  -4   7  -5   10.64    1.27
  -4   7  -5   10.38    1.30
  -4   7  -6   16.28    1.66
  -4   7  -6   14.23    1.44
  -4   7  -7    0.39    0.31
  -4   7  -8    2.07    0.71
  -4   7  -9    3.67    0.98
  -4   7 -10   24.37    2.49
  -4   7 -10   28.70    2.63
  -4   7 -11   33.13    2.95
  -4   6  12   -0.12    0.33
  -4   6  11   12.04    1.73
  -4   6  10    3.58    0.95
  -4   6   9    2.51    0.77
   4  -6  -8   41.51    1.72
  -4   6   8   42.95    3.01
  -4   6   7    5.66    1.10
   4  -6  -7    4.18    0.47
  -4   6   6   18.99    1.90
  -4   6   5    0.54    0.41
  -4   6   4  139.11    5.07
  -4   6   3   58.07    3.17
  -4   6   2   74.29    3.57
  -4   6   1   53.01    2.98
  -4   6   0    3.84    0.79
  -4   6   0    2.91    0.31
   4  -6   0    4.69    0.46
  -4   6   0    4.25    0.33
  -4   6  -1   24.75    1.10
   4  -6   1   25.26    1.28
  -4   6  -1   22.69    1.92
   4  -6   1   26.46    1.90
  -4   6  -2   33.25    2.33
  -4   6  -2   33.72    1.51
   4  -6   2   36.16    1.71
   4  -6   2   34.97    2.21
  -4   6  -3   68.19    2.47
  -4   6  -3   61.19    3.12
   4  -6   3   66.04    2.59
   4  -6   3   64.91    3.07
  -4   6  -4  446.16    7.70
  -4   6  -4  429.50    8.84
   4  -6   4  449.36    8.00
   4  -6   4  446.56    8.82
  -4   6  -5   88.68    3.64
  -4   6  -5   91.25    3.47
   4  -6   5   90.97    3.78
  -4   6  -5   90.23    3.63
  -4   6  -6   -0.30    0.18
  -4   6  -6    0.15    0.30
  -4   6  -6   -0.12    0.25
  -4   6  -7    5.24    1.00
  -4   6  -7    5.96    0.95
  -4   6  -8    4.09    0.90
  -4   6  -9   10.19    1.47
  -4   6 -10   -0.39    0.49
  -4   6 -11   40.90    3.22
  -4   5  13    0.61    0.51
  -4   5  12    6.30    1.31
  -4   5  11    9.13    1.46
  -4   5  10    8.48    1.36
   4  -5 -10    7.38    0.91
  -4   5   9   12.35    1.59
   4  -5  -8   30.11    1.53
  -4   5   8   28.32    2.35
   4  -5  -7    8.79    0.72
  -4   5   7    9.57    1.32
   4  -5  -6    0.17    0.10
   4  -5  -6    0.04    0.06
  -4   5   5   26.67    2.13
  -4   5   4   10.30    1.27
  -4   5   3   35.64    2.38
  -4   5   2    7.44    1.07
   4  -5  -2    9.62    1.14
  -4   5   1    0.20    0.26
   4  -5  -1    0.35    0.12
   4  -5  -1    0.19    0.27
  -4   5   0    2.28    0.57
   4  -5   0    2.88    0.62
  -4   5   0    2.29    0.32
   4  -5   0    2.96    0.39
  -4   5  -1   16.82    0.98
  -4   5  -1   15.41    1.53
   4  -5   1   16.81    1.08
   4  -5   1   17.24    1.54
  -4   5  -2   11.59    0.92
  -4   5  -2   13.71    1.39
   4  -5   2   12.76    1.34
   4  -5   2   12.84    1.04
   4  -5   3    6.52    0.81
  -4   5  -3    6.05    0.75
   4  -5   3    7.79    1.07
  -4   5  -3    5.41    0.90
  -4   5  -4  117.48    3.66
  -4   5  -4  107.70    3.95
   4  -5   4  119.01    3.83
   4  -5   4  114.62    4.29
  -4   5  -5  250.06    5.94
  -4   5  -5  252.18    6.12
   4  -5   5  241.34    6.55
  -4   5  -6    3.99    0.77
  -4   5  -7    4.23    0.84
  -4   5  -8   -0.20    0.48
  -4   5  -9    2.68    0.80
  -4   5 -10    2.44    0.86
  -4   5 -11   81.50    4.63
  -4   4  13   33.27    2.81
  -4   4  12    7.36    1.30
   4  -4 -12    7.17    1.13
  -4   4  11    3.20    0.75
   4  -4 -10   37.34    2.04
  -4   4  10   30.33    2.42
  -4   4   9    0.43    0.42
   4  -4  -8   87.48    2.63
  -4   4   8   78.02    3.71
   4  -4  -7  224.64    4.00
   4  -4  -7  229.29    4.81
   4  -4  -6   34.87    1.61
  -4   4   6   33.40    2.32
   4  -4  -6   36.60    1.26
   4  -4  -5    2.28    0.34
  -4   4   5    2.24    0.59
   4  -4  -5    1.64    0.52
   4  -4  -5    2.19    0.25
   4  -4  -4   17.24    0.58
  -4   4   4   17.89    1.64
   4  -4  -4   19.66    1.59
   4  -4  -3   59.00    1.02
   4  -4  -3   61.80    1.29
  -4   4   3   61.80    3.04
   4  -4  -3   64.54    2.85
   4  -4  -2  485.54    5.65
  -4   4   2  508.74    9.37
   4  -4  -2  495.55    8.74
   4  -4  -1  675.10    7.76
  -4   4   1  655.96    7.90
   4  -4  -1  682.43   10.82
  -4   4   1  682.27   11.21
   4  -4   0   16.92    1.50
  -4   4   0   15.46    0.96
  -4   4   0   17.28    1.56
   4  -4   0   16.51    1.03
  -4   4  -1   15.16    1.43
  -4   4  -1   14.93    1.02
   4  -4   1   15.95    1.48
   4  -4   1   15.22    1.08
   4  -4   2    1.81    0.48
   4  -4   2    0.95    0.30
  -4   4  -2    0.99    0.30
  -4   4  -2    0.85    0.37
  -4   4  -3   12.47    1.10
  -4   4  -3   13.22    1.33
   4  -4   3   11.92    1.14
   4  -4   3   14.34    1.45
  -4   4  -4    0.00    0.21
   4  -4   4   -0.21    0.20
  -4   4  -4    0.06    0.16
  -4   4  -5 1277.31   16.27
   4  -4   5 1225.06   17.59
  -4   4  -6  316.15    7.21
  -4   4  -7    1.69    0.56
  -4   4  -8    5.23    1.03
  -4   4  -9    3.91    0.91
  -4   4 -10   13.51    1.82
  -4   4 -11    0.63    0.74
  -4   3  13    4.84    1.05
  -4   3  12    4.75    0.99
   4  -3 -12    4.62    0.88
   4  -3 -11    4.26    0.80
  -4   3  11    4.44    0.92
  -4   3  10   -0.60    0.34
  -4   3  10   -0.16    0.34
   4  -3 -10    0.04    0.18
  -4   3   9    3.12    0.73
   4  -3  -8   63.26    2.75
  -4   3   8   57.34    3.05
   4  -3  -7    0.54    0.24
   4  -3  -7    0.03    0.16
  -4   3   6    0.74    0.34
   4  -3  -6    0.89    0.29
   4  -3  -6    1.53    0.47
   4  -3  -6    0.57    0.19
  -4   3   5   25.41    1.93
   4  -3  -5   25.35    1.42
   4  -3  -5   25.26    1.09
   4  -3  -5   24.07    1.70
  -4   3   4    0.07    0.29
   4  -3  -4   -0.01    0.14
   4  -3  -4    0.28    0.13
   4  -3  -4   -0.02    0.07
  -4   3   3    4.87    0.81
   4  -3  -3    4.35    0.47
   4  -3  -3    5.49    0.81
   4  -3  -2    8.64    0.63
  -4   3   2    9.68    0.80
  -4   3   2    7.54    1.03
   4  -3  -2    7.98    0.99
  -4   3   1    4.83    0.81
  -4   3   1    4.74    0.59
   4  -3   0   64.54    2.19
   4  -3   0   63.15    2.02
  -4   3   0   62.82    2.21
  -4   3   0   64.32    2.92
   4  -3   0   55.31    2.75
   4  -3   1    1.47    0.37
   4  -3   1    1.23    0.41
  -4   3  -1    1.12    0.30
  -4   3  -1    1.31    0.43
   4  -3   2    0.76    0.35
   4  -3   2    0.61    0.30
  -4   3  -2    0.52    0.22
  -4   3  -2    0.34    0.21
   4  -3   3    1.80    0.50
   4  -3   3    1.99    0.50
  -4   3  -3    2.26    0.56
  -4   3  -3    1.85    0.46
   4  -3   4    4.80    0.90
  -4   3  -4    5.24    0.82
   4  -3   4    5.50    0.86
  -4   3  -5    3.63    0.67
  -4   3  -6   30.86    2.23
  -4   3  -7   20.96    1.91
  -4   3  -8    3.56    0.86
  -4   3  -9   -0.27    0.38
  -4   3 -10   -0.33    0.37
  -4   3 -11    6.82    1.40
   4  -2 -13  114.40    4.75
  -4   2  12    3.87    0.82
   4  -2 -12    4.86    0.95
  -4   2  11    3.65    0.81
   4  -2 -11    3.71    0.77
  -4   2  10    0.20    0.21
   4  -2 -10    0.35    0.26
  -4   2   9    4.53    0.84
   4  -2  -9    4.77    0.82
   4  -2  -9    3.93    0.68
  -4   2   8    0.34    0.24
   4  -2  -8    0.69    0.35
   4  -2  -7  106.89    3.68
  -4   2   7  104.33    3.91
   4  -2  -7  112.56    3.71
   4  -2  -6   55.74    2.06
   4  -2  -6   60.49    2.64
  -4   2   6   63.19    2.95
   4  -2  -6   59.71    2.62
   4  -2  -5   17.75    1.15
   4  -2  -5   18.88    1.39
  -4   2   5   17.81    1.56
   4  -2  -5   19.72    1.49
   4  -2  -4    0.78    0.31
  -4   2   4    0.40    0.27
   4  -2  -4    0.45    0.24
   4  -2  -4    0.59    0.24
   4  -2  -3    5.47    0.66
  -4   2   3    6.98    0.73
   4  -2  -3    6.26    0.87
  -4   2   3    5.62    0.86
   4  -2  -2   46.88    1.90
  -4   2   2   50.58    2.19
   4  -2  -2   46.16    2.42
  -4   2   1  558.74    8.31
   4  -2  -1  556.88    6.19
  -4   2   1  572.86    7.34
   4  -2   0  397.11    6.28
  -4   2   0  405.57    6.90
   4  -2   1    6.18    0.73
  -4   2  -1    4.82    0.71
   4  -2   1    6.15    0.93
  -4   2  -1    4.97    0.77
   4  -2   2    2.04    0.57
   4  -2   2    2.25    0.54
  -4   2  -2    2.90    0.59
  -4   2  -2    3.19    0.64
   4  -2   3    4.93    0.83
   4  -2   3    6.26    0.90
  -4   2  -3    4.41    0.76
  -4   2  -4   12.28    1.30
  -4   2  -5    4.34    0.78
  -4   2  -6  347.49    8.08
  -4   2  -7   27.41    2.27
  -4   2  -8   16.34    1.89
  -4   2  -9   10.22    1.59
  -4   2 -10    1.62    0.78
   4  -1 -14   54.28    3.53
   4  -1 -13  132.30    5.25
  -4   1  12    2.94    0.60
   4  -1 -12    4.68    0.97
  -4   1  11   -0.06    0.21
   4  -1 -11   -0.16    0.28
  -4   1  10   -0.20    0.21
   4  -1 -10    0.03    0.20
  -4   1   9    8.46    1.10
   4  -1  -9    7.69    1.13
   4  -1  -9    7.76    0.99
   4  -1  -8   11.39    1.29
   4  -1  -8    8.48    0.95
  -4   1   8    9.00    1.11
   4  -1  -7   47.77    2.62
  -4   1   7   50.86    2.60
   4  -1  -7   49.78    2.33
  -4   1   6    1.11    0.40
   4  -1  -6    0.65    0.33
   4  -1  -6    0.50    0.27
   4  -1  -5   20.12    1.57
  -4   1   5   18.04    1.50
   4  -1  -5   17.08    1.36
   4  -1  -4   64.46    2.73
  -4   1   4   56.48    2.64
   4  -1  -4   61.02    2.68
   4  -1  -3   40.91    2.24
   4  -1  -3   39.78    1.98
  -4   1   3   43.66    2.20
  -4   1   3   39.58    2.20
  -4   1   2   13.05    1.24
   4  -1  -2   10.55    1.01
  -4   1   2   11.75    1.16
   4  -1  -2   13.27    1.27
   4  -1  -1  146.07    3.80
  -4   1   1  153.39    4.41
  -4   1   1  147.54    4.23
   4  -1  -1  147.06    4.50
  -4   1   0   20.21    1.51
   4  -1   0   18.56    1.31
  -4   1   0   18.24    1.46
   4  -1   1   41.15    2.04
  -4   1  -1   37.47    2.19
   4  -1   1   42.37    2.43
   4  -1   2    2.85    0.64
   4  -1   2    2.44    0.53
  -4   1  -2    3.30    0.71
   4  -1   3    0.22    0.18
  -4   1  -3    0.49    0.25
   4  -1   3    0.52    0.35
  -4   1  -4    5.08    0.90
  -4   1  -5    5.51    1.00
  -4   1  -6   16.68    1.75
  -4   1  -7   15.64    1.75
  -4   1  -8    4.94    1.09
  -4   1  -9    9.18    1.50
  -4   1 -10    1.87    0.85
   4   0 -15    1.48    0.76
   4   0 -14   -0.39    0.56
   4   0 -13    2.15    0.72
   4   0 -12   11.83    1.52
  -4   0  11    0.31    0.26
   4   0 -11    1.27    0.52
   4   0 -10    9.05    1.16
  -4   0  10    9.07    1.07
  -4   0   9    4.19    0.69
   4   0  -9    3.34    0.67
  -4   0   8    2.62    0.54
   4   0  -8    1.95    0.43
   4   0  -8    2.57    0.65
   4   0  -8    1.91    0.52
   4   0  -7    4.59    0.90
   4   0  -7    5.90    0.86
  -4   0   7    5.60    0.80
   4   0  -7    5.87    0.76
   4   0  -6   26.31    1.82
   4   0  -6   30.54    2.18
  -4   0   6   26.69    1.77
   4   0  -6   29.27    1.75
   4   0  -5    1.51    0.46
   4   0  -5    0.76    0.34
  -4   0   5    0.89    0.36
   4   0  -4   33.07    2.11
  -4   0   4   32.83    2.04
  -4   0   4   28.76    1.79
   4   0  -4   29.83    1.88
   4   0  -3    6.47    0.89
  -4   0   3    6.24    0.94
  -4   0   3    6.57    0.84
   4   0  -3    6.29    0.88
   4   0  -2    0.68    0.26
   4   0  -2    0.70    0.28
  -4   0   2    0.65    0.33
   4   0  -1    0.45    0.31
  -4   0   1    0.13    0.22
   4   0  -1    0.63    0.36
   4   0   0    0.10    0.24
   4   0   0    0.01    0.14
  -4   0   0   -0.01    0.17
   4   0   1    1.65    0.43
  -4   0  -1    2.09    0.56
   4   0   1    1.17    0.45
   4   0   2    4.16    0.73
  -4   0  -2    3.92    0.81
   4   0   2    4.21    0.81
  -4   0  -3    5.61    0.98
  -4   0  -4    4.52    0.90
  -4   0  -5   14.87    1.69
  -4   0  -6   36.93    2.72
  -4   0  -7    0.34    0.25
  -4   0  -8    0.51    0.50
  -4   0  -9    0.33    0.46
  -4   0 -10    8.07    1.54
   4   1 -15    0.11    0.55
   4   1 -14    1.49    0.68
   4   1 -13    0.38    0.37
   4   1 -12    2.67    0.80
   4   1 -11    8.45    1.22
  -4  -1  11    9.09    0.89
   4   1 -10    4.31    0.78
  -4  -1  10    4.58    0.64
   4   1  -9    2.12    0.47
   4   1  -9    1.26    0.49
  -4  -1   9    1.84    0.42
   4   1  -8   35.69    2.29
  -4  -1   8   37.19    1.92
   4   1  -8   38.62    1.88
   4   1  -7   46.73    2.63
  -4  -1   7   44.12    2.07
   4   1  -7   43.36    2.06
   4   1  -6    0.93    0.33
   4   1  -6    0.46    0.22
  -4  -1   6    0.95    0.32
   4   1  -5    8.78    1.19
   4   1  -5   10.83    1.36
  -4  -1   5    9.04    0.95
   4   1  -5    8.50    1.00
   4   1  -4   35.43    2.35
  -4  -1   4   34.28    2.30
   4   1  -4   34.82    2.09
   4   1  -3  299.77    6.85
  -4  -1   3  287.98    7.19
   4   1  -3  274.57    6.37
   4   1  -2  121.70    4.16
   4   1  -2  127.31    4.25
  -4  -1   2  123.05    4.62
   4   1  -1  327.48    7.11
  -4  -1   1  321.07    7.82
   4   1  -1  319.43    7.31
  -4  -1   0    3.98    0.78
   4   1   0    2.20    0.53
   4   1   0    4.65    0.88
   4   1   1   21.98    1.73
  -4  -1  -1   20.24    1.85
  -4  -1  -2    4.06    0.91
  -4  -1  -3    0.93    0.40
  -4  -1  -4   11.81    1.59
  -4  -1  -5   52.07    3.41
  -4  -1  -6   91.13    4.65
  -4  -1  -7    3.49    0.96
  -4  -1  -8   10.22    1.69
  -4  -1  -9    3.75    1.10
   4   2 -14    0.01    0.45
   4   2 -13    1.45    0.63
   4   2 -12    0.05    0.35
   4   2 -11   15.58    1.74
   4   2 -10    3.24    0.77
   4   2  -9   18.29    1.77
   4   2  -9   19.81    1.23
   4   2  -8   -0.02    0.16
   4   2  -8    0.27    0.24
   4   2  -7    5.01    0.71
   4   2  -7    4.40    0.92
   4   2  -6    4.11    0.69
   4   2  -6    3.80    0.83
   4   2  -5    7.80    1.20
  -4  -2   5    8.76    1.24
   4   2  -5    8.75    1.05
   4   2  -4   21.94    1.97
  -4  -2   4   20.72    1.92
   4   2  -4   20.55    1.63
   4   2  -3    0.96    0.37
  -4  -2   3    0.35    0.25
   4   2  -3    0.40    0.41
  -4  -2   2    6.02    1.15
   4   2  -2    6.24    1.03
   4   2  -2    7.45    1.04
  -4  -2   1   59.02    3.46
   4   2  -1   62.76    3.23
  -4  -2   0    0.22    0.28
  -4  -2  -1    1.49    0.54
  -4  -2  -2    3.06    0.75
  -4  -2  -3   -0.67    0.56
  -4  -2  -4    6.90    1.22
  -4  -2  -5   32.46    2.83
  -4  -2  -6   33.42    2.99
  -4  -2  -7   -0.42    0.50
  -4  -2  -8   -0.59    0.76
   4   3 -14    6.36    1.32
   4   3 -13   52.86    3.68
   4   3 -12   38.07    2.93
   4   3 -11   15.80    1.81
   4   3 -10    0.21    0.35
   4   3  -9   44.98    2.98
   4   3  -8    4.47    0.99
   4   3  -8    5.23    0.68
   4   3  -7  162.44    5.86
   4   3  -7  151.61    4.18
   4   3  -6    1.05    0.42
   4   3  -6    0.36    0.27
   4   3  -5    1.24    0.41
   4   3  -5    1.16    0.49
  -4  -3   5    1.54    0.63
   4   3  -4    0.03    0.19
  -4  -3   4   -0.24    0.34
  -4  -3   3    0.25    0.39
   4   3  -3    0.19    0.18
  -4  -3   2  122.29    5.36
   4   3  -2  134.63    4.91
  -4  -3   1  613.12   12.82
  -4  -3   0 1091.86   18.41
  -4  -3  -1   68.42    4.07
  -4  -3  -2    9.91    1.54
  -4  -3  -3    3.70    0.95
  -4  -3  -4    6.42    1.28
  -4  -3  -5    6.08    1.32
  -4  -3  -6  133.32    6.25
  -4  -3  -7  147.56    6.82
  -4  -3  -8    0.40    0.44
   4   4 -13   39.26    3.28
   4   4 -12   19.07    2.19
   4   4 -11    2.56    0.76
   4   4 -10    2.19    0.72
   4   4  -9    0.95    0.56
   4   4  -8    5.71    1.13
   4   4  -7   13.94    1.79
   4   4  -7   12.07    1.20
   4   4  -6   17.75    2.04
   4   4  -6   17.02    1.50
   4   4  -5    2.19    0.55
   4   4  -5    3.55    0.91
  -4  -4   5    4.48    1.10
  -4  -4   4    1.15    0.57
   4   4  -4    1.08    0.36
  -4  -4   3    1.00    0.48
  -4  -4   2    0.98    0.67
  -4  -4   1   32.81    2.96
  -4  -4   0   18.39    2.23
  -4  -4  -1   45.73    3.57
  -4  -4  -2    6.92    1.42
  -4  -4  -3    0.62    0.51
  -4  -4  -4    3.42    0.98
  -4  -4  -5    7.36    1.57
  -4  -4  -6    6.49    1.49
  -4  -4  -7    1.72    0.84
   4   5 -12   19.59    2.33
   4   5 -11    2.19    0.76
   4   5 -10    1.62    0.71
   4   5  -9    0.99    0.71
   4   5  -8    3.93    1.08
   4   5  -7   31.49    2.84
   4   5  -6   94.43    5.01
   4   5  -6   93.88    3.72
   4   5  -5   12.70    1.84
  -4  -5   5   14.68    1.93
   4   5  -5   15.03    1.55
  -4  -5   4    7.47    1.38
  -4  -5   3    0.08    0.52
  -4  -5   2   11.45    1.82
  -4  -5   1    4.49    1.16
  -4  -5   0  311.11   10.04
  -4  -5  -1  375.60   11.31
  -4  -5  -2   -1.14    0.78
  -4  -5  -3   -0.61    0.72
  -4  -5  -4    4.59    1.36
  -4  -5  -5    0.52    0.45
   4   6 -11    5.78    1.32
   4   6 -10   13.47    1.91
   4   6  -9    2.44    0.86
   4   6  -8    4.83    1.14
   4   6  -7   30.32    2.95
   4   6  -6   58.33    4.14
   4   6  -5   10.27    1.77
  -4  -6   5   10.35    1.72
  -4  -6   4    3.06    0.90
  -4  -6   3    8.87    1.59
  -4  -6   2    0.36    0.40
  -4  -6   1    8.66    1.66
  -4  -6   0   76.24    5.12
  -4  -6  -1   19.24    2.61
  -4  -6  -2    2.57    1.04
  -4  -6  -3    3.51    1.17
  -4  -6  -4    0.88    0.59
   4   7  -9    2.84    0.85
   4   7  -8    1.20    0.61
   4   7  -7    0.67    0.65
   4   7  -6    0.08    0.42
   4   7  -5    1.25    0.59
   4   7  -4    6.71    1.43
  -4  -7   4    7.68    1.57
  -4  -7   3    0.60    0.51
  -4  -7   2    2.23    0.90
  -4  -7   1    3.42    1.24
  -4  -7   0   17.32    2.57
  -4  -7  -1    2.94    0.91
  -4  -7  -2   17.60    2.65
   4   8  -6   -1.83    0.81
   4   8  -5    1.71    0.81
   4   8  -4    1.18    0.64
  -4  -8   4    0.45    0.53
  -4  -8   3    1.40    0.90
  -4  -8   2    0.99    0.38
  -4  -8   1    0.35    0.51
  -5  12   0    5.19    1.41
  -5  12  -1    2.00    0.87
  -5  12  -2    1.02    0.50
  -5  12  -3   -0.63    0.61
  -5  12  -4    1.69    0.86
  -5  11   3   11.12    1.93
  -5  11   2    0.31    0.30
  -5  11   1    0.10    0.39
  -5  11   0    3.05    0.98
  -5  11  -1    1.37    0.68
  -5  11  -2    5.51    1.31
  -5  11  -3    5.62    1.30
  -5  11  -4    1.29    0.75
  -5  11  -5    1.03    0.68
  -5  10   5    9.38    1.66
  -5  10   4   12.32    1.93
  -5  10   3   -0.08    0.50
  -5  10   2    1.31    0.69
  -5  10   1    2.07    0.83
  -5  10   0    4.98    1.14
  -5  10  -1   34.33    3.07
  -5  10  -2    0.67    0.59
  -5  10  -3   18.19    2.25
  -5  10  -4    1.26    0.68
  -5  10  -5   -0.37    0.56
  -5  10  -6   -0.20    0.30
  -5   9   7   -0.13    0.40
  -5   9   6    3.12    0.92
  -5   9   5   -0.20    0.30
  -5   9   4   -0.04    0.33
  -5   9   3    0.55    0.33
  -5   9   2    3.84    0.98
  -5   9   1    0.68    0.61
  -5   9   0    7.70    1.38
  -5   9  -1    0.87    0.29
  -5   9  -2  128.93    5.68
  -5   9  -3   38.66    3.05
  -5   9  -4   18.84    1.42
  -5   9  -4   15.17    1.86
  -5   9  -5    8.93    1.05
  -5   9  -5    8.90    1.41
  -5   9  -6    0.63    0.27
  -5   9  -6    0.51    0.43
  -5   9  -7    0.92    0.39
  -5   9  -7    0.62    0.40
  -5   9  -8   14.62    1.73
  -5   9  -9   49.19    3.32
  -5   8   9    8.76    1.63
  -5   8   8    4.56    1.16
  -5   8   7    0.50    0.61
  -5   8   6   35.17    3.04
  -5   8   5   11.43    1.74
  -5   8   4   73.69    4.24
  -5   8   3    9.28    1.49
  -5   8   2   -0.12    0.30
  -5   8   1    0.62    0.36
  -5   8   0    3.26    0.84
  -5   8  -1   13.56    0.76
  -5   8  -1   17.77    2.01
  -5   8  -2  196.10    3.86
  -5   8  -2  188.86    6.69
  -5   8  -3   76.33    2.64
  -5   8  -3   76.42    4.11
  -5   8  -4    0.10    0.41
  -5   8  -4    0.54    0.26
  -5   8  -5    4.26    0.77
  -5   8  -5    4.43    0.96
  -5   8  -6   -0.27    0.19
  -5   8  -6    0.39    0.32
  -5   8  -7    5.62    1.01
  -5   8  -7    6.12    1.05
  -5   8  -8    3.65    0.82
  -5   8  -9   16.58    1.93
  -5   8 -10    6.20    1.25
  -5   7  11    7.26    1.49
  -5   7  10   25.24    2.68
  -5   7   9   17.08    2.16
  -5   7   8    0.88    0.58
  -5   7   7    3.50    1.02
  -5   7   6   14.22    1.87
  -5   7   5   20.86    2.19
  -5   7   4   34.56    2.80
  -5   7   3    2.01    0.56
  -5   7   2    1.64    0.60
  -5   7   1    5.11    1.03
  -5   7   0    3.98    0.92
   5  -7   0    5.52    0.54
  -5   7  -1    1.97    0.70
   5  -7   1    2.11    0.39
  -5   7  -1    1.04    0.24
  -5   7  -2   60.03    2.15
   5  -7   2   66.14    2.51
  -5   7  -2   57.23    3.44
  -5   7  -3  347.69    8.76
  -5   7  -3  359.36    6.47
   5  -7   3  371.57    7.05
  -5   7  -4   33.74    1.96
  -5   7  -4   32.31    2.48
  -5   7  -5   -0.21    0.30
  -5   7  -5    0.12    0.22
  -5   7  -6    2.02    0.59
  -5   7  -6    1.77    0.54
  -5   7  -7    0.82    0.39
  -5   7  -8    2.98    0.85
  -5   7  -9   43.56    3.10
  -5   7 -10   37.57    3.05
  -5   6  12    8.80    1.59
  -5   6  11    0.28    0.41
  -5   6  10   19.27    2.27
  -5   6   9   84.01    4.64
  -5   6   8   17.67    2.06
  -5   6   7    0.32    0.25
  -5   6   6    6.79    1.21
  -5   6   5    4.00    0.97
  -5   6   4  145.14    5.59
  -5   6   3  306.68    8.25
  -5   6   2    0.63    0.37
   5  -6  -1    0.47    0.14
  -5   6   1    0.95    0.42
  -5   6   0    0.46    0.32
   5  -6   0    0.58    0.21
  -5   6   0    0.44    0.18
   5  -6   1    0.18    0.21
  -5   6  -1    0.17    0.17
  -5   6  -2    1.54    0.61
   5  -6   2    3.24    0.58
  -5   6  -2    1.78    0.43
  -5   6  -3  566.81    8.92
  -5   6  -3  565.39   11.15
   5  -6   3  561.48    9.31
  -5   6  -4  218.31    5.41
  -5   6  -4  214.53    6.32
  -5   6  -5    1.45    0.48
  -5   6  -5    1.83    0.62
  -5   6  -6    7.94    1.16
  -5   6  -7    1.32    0.52
  -5   6  -8   10.92    1.56
  -5   6  -9   -0.18    0.31
  -5   6 -10   32.00    2.83
  -5   5  13    3.06    0.93
  -5   5  12    0.86    0.56
  -5   5  11    0.97    0.59
  -5   5  10   12.33    1.71
  -5   5   9    5.32    1.14
  -5   5   8    4.37    1.03
   5  -5  -8    3.96    0.55
  -5   5   7   29.36    2.50
  -5   5   6   -0.20    0.42
   5  -5  -6    0.24    0.09
   5  -5  -6    0.13    0.08
  -5   5   5   -0.01    0.30
  -5   5   4    2.57    0.72
  -5   5   3    3.55    0.82
   5  -5  -3    4.10    0.33
   5  -5  -3    4.70    0.35
  -5   5   2    4.95    1.00
   5  -5  -2    6.22    0.52
  -5   5   1    0.68    0.42
   5  -5  -1    0.17    0.08
  -5   5   1    0.52    0.18
  -5   5   0    0.52    0.34
   5  -5   0    0.42    0.19
  -5   5   0    0.28    0.21
  -5   5  -1    1.04    0.44
  -5   5  -1    1.43    0.35
   5  -5   1    1.86    0.38
  -5   5  -2    0.48    0.28
   5  -5   2    0.02    0.22
  -5   5  -2    0.69    0.34
  -5   5  -3    4.16    0.74
   5  -5   3    2.81    0.52
  -5   5  -3    4.02    0.80
  -5   5  -4   46.37    2.51
  -5   5  -4   44.34    2.72
  -5   5  -5    4.96    0.91
  -5   5  -6   11.67    1.40
  -5   5  -7    1.58    0.54
  -5   5  -8    0.75    0.51
  -5   5  -9    5.30    1.10
  -5   5 -10    5.40    1.18
  -5   4  13    6.48    1.32
  -5   4  12    0.53    0.41
  -5   4  11   -0.11    0.27
  -5   4  10   -0.32    0.32
  -5   4   9   24.16    2.27
   5  -4  -9   29.66    1.62
  -5   4   8   25.45    2.28
   5  -4  -8   26.46    1.39
  -5   4   7    4.93    0.95
   5  -4  -7    5.85    0.74
   5  -4  -7    5.64    0.58
  -5   4   6   -0.03    0.31
   5  -4  -6    0.36    0.15
   5  -4  -6    0.01    0.15
  -5   4   5    0.26    0.26
   5  -4  -5    0.18    0.11
   5  -4  -5    0.23    0.13
   5  -4  -4   31.50    1.20
   5  -4  -4   32.56    1.34
  -5   4   4   30.66    2.39
   5  -4  -3  142.33    2.67
  -5   4   3  146.38    5.27
   5  -4  -2  104.18    2.40
  -5   4   2  115.08    3.01
  -5   4   2  111.20    4.49
  -5   4   1    0.02    0.17
  -5   4   1    0.01    0.15
   5  -4  -1    0.14    0.17
  -5   4   0   -0.09    0.36
   5  -4   0    0.25    0.24
  -5   4   0    0.08    0.18
  -5   4  -1    0.10    0.14
   5  -4   1    0.01    0.14
  -5   4  -1    0.18    0.19
   5  -4   2    2.38    0.53
  -5   4  -2    2.91    0.64
  -5   4  -2    2.91    0.71
   5  -4   3    1.11    0.41
  -5   4  -3    1.54    0.48
  -5   4  -3    1.73    0.52
  -5   4  -4   99.54    3.84
  -5   4  -5    4.41    0.89
  -5   4  -6   15.42    1.68
  -5   4  -7   28.19    2.37
  -5   4  -8    1.50    0.59
  -5   4  -9    0.20    0.28
  -5   4 -10    0.12    0.35
  -5   3  12    0.30    0.40
  -5   3  11   12.71    1.64
   5  -3 -11   15.97    1.47
  -5   3  10    5.72    1.05
   5  -3 -10    9.34    1.07
  -5   3   9    1.11    0.41
  -5   3   8    0.20    0.22
   5  -3  -8    0.52    0.42
   5  -3  -7   11.22    1.16
   5  -3  -7   12.59    0.98
  -5   3   7   11.50    1.48
   5  -3  -6   59.93    2.57
   5  -3  -6   61.33    2.13
  -5   3   6   59.42    3.31
   5  -3  -5   13.37    1.03
   5  -3  -5   14.04    1.13
  -5   3   5   12.61    1.51
   5  -3  -4   10.29    0.99
   5  -3  -4   12.77    1.01
  -5   3   4    9.94    1.29
   5  -3  -3   44.07    1.81
  -5   3   3   46.65    2.05
  -5   3   2    3.03    0.68
  -5   3   2    4.51    0.71
   5  -3  -2    4.75    0.59
  -5   3   1    5.08    0.77
   5  -3  -1    5.52    0.65
  -5   3   1    5.43    0.93
   5  -3   0   -0.16    0.24
  -5   3   0    0.08    0.16
  -5   3   0    0.53    0.39
   5  -3   1    0.70    0.33
  -5   3  -1    0.40    0.24
  -5   3  -1    0.83    0.39
   5  -3   2   12.85    1.29
  -5   3  -2   12.28    1.31
  -5   3  -2   13.19    1.41
  -5   3  -3    0.32    0.25
  -5   3  -4   16.58    1.61
  -5   3  -5    6.51    1.08
  -5   3  -6    0.50    0.43
  -5   3  -7    7.76    1.36
  -5   3  -8    2.59    0.78
  -5   3  -9    1.30    0.69
  -5   2  12    9.79    1.38
   5  -2 -12   10.84    1.36
  -5   2  11    0.09    0.23
   5  -2 -11   -0.10    0.23
  -5   2  10    6.60    1.14
   5  -2 -10    6.60    0.92
  -5   2   9    0.44    0.39
   5  -2  -9    1.08    0.50
   5  -2  -9    1.77    0.49
   5  -2  -8    6.90    1.06
   5  -2  -8    7.56    0.89
  -5   2   8    7.88    1.18
  -5   2   7    0.42    0.32
   5  -2  -7    0.20    0.24
  -5   2   6    4.38    0.84
   5  -2  -6    5.82    0.91
  -5   2   5    5.63    1.00
   5  -2  -5    7.86    0.95
   5  -2  -4   22.13    1.51
  -5   2   4   24.41    1.97
   5  -2  -4   21.06    1.78
   5  -2  -3    9.07    0.95
  -5   2   3   10.08    1.12
  -5   2   3    8.89    1.20
   5  -2  -2   15.68    1.22
  -5   2   2   15.65    1.49
  -5   2   2   16.50    1.60
   5  -2  -1   28.96    1.69
  -5   2   1   28.32    1.99
  -5   2   1   25.88    1.97
   5  -2   0    0.48    0.25
  -5   2   0    0.74    0.38
  -5   2   0    0.42    0.30
   5  -2   1    1.32    0.38
  -5   2  -1    1.55    0.48
  -5   2  -1    1.87    0.57
   5  -2   2    6.37    0.94
  -5   2  -2    6.41    0.99
  -5   2  -3   64.82    3.39
  -5   2  -4   44.23    2.85
  -5   2  -5    9.18    1.35
  -5   2  -6    2.01    0.78
  -5   2  -7    1.56    0.68
  -5   2  -8   20.87    2.37
  -5   2  -9   10.74    1.84
   5  -1 -13    6.21    1.15
   5  -1 -12   12.52    1.48
  -5   1  11    3.79    0.79
   5  -1 -11    3.70    0.77
   5  -1 -10   66.25    3.10
  -5   1  10   60.27    3.20
  -5   1   9    6.42    1.05
   5  -1  -9    5.96    0.90
   5  -1  -8    8.54    1.26
   5  -1  -8    6.58    0.95
   5  -1  -8    7.73    0.99
  -5   1   8    9.73    1.26
  -5   1   7   -0.01    0.28
   5  -1  -7   -0.26    0.26
   5  -1  -7    0.48    0.18
   5  -1  -7   -0.19    0.22
   5  -1  -6   14.55    1.38
   5  -1  -6   15.61    1.57
  -5   1   6   12.77    1.42
   5  -1  -6   16.02    1.49
   5  -1  -5  163.91    5.02
   5  -1  -5  162.39    4.97
  -5   1   5  162.34    5.11
   5  -1  -5  175.44    5.24
   5  -1  -4   64.50    2.90
  -5   1   4   68.54    3.14
  -5   1   4   68.85    3.22
   5  -1  -4   67.80    3.28
   5  -1  -3  517.24    9.01
  -5   1   3  535.49    9.97
  -5   1   3  519.18    9.55
   5  -1  -3  525.98   10.01
  -5   1   2    8.89    1.14
   5  -1  -2    8.21    0.97
  -5   1   2   11.19    1.27
   5  -1  -1   21.20    1.59
  -5   1   1   20.05    1.82
  -5   1   1   21.60    1.76
  -5   1   0    0.06    0.22
   5  -1   0    0.08    0.27
   5  -1   1   -0.28    0.21
  -5   1  -1    0.29    0.25
  -5   1  -2   25.36    2.13
  -5   1  -3   48.04    3.09
  -5   1  -4  127.41    5.16
  -5   1  -5    4.76    1.01
  -5   1  -6    2.56    0.78
  -5   1  -7    0.50    0.49
  -5   1  -8    3.67    1.04
   5   0 -14    0.27    0.41
   5   0 -13    1.06    0.56
   5   0 -12   11.55    1.48
   5   0 -11    8.48    1.22
  -5   0  11    7.54    1.04
   5   0 -10    9.27    1.21
  -5   0  10    9.78    1.16
   5   0  -9    8.37    1.10
  -5   0   9    7.69    1.04
   5   0  -9    8.47    1.02
   5   0  -8    1.93    0.61
   5   0  -8    2.18    0.58
  -5   0   8    2.17    0.55
   5   0  -7    8.84    1.19
  -5   0   7    8.01    1.04
   5   0  -7    8.09    1.04
   5   0  -6    2.65    0.71
   5   0  -6    3.84    0.73
   5   0  -6    3.36    0.75
  -5   0   6    4.51    0.81
   5   0  -5    1.01    0.37
  -5   0   5    1.72    0.48
   5   0  -5    1.43    0.53
   5   0  -4    2.70    0.65
  -5   0   4    3.24    0.73
   5   0  -4    2.46    0.59
  -5   0   4    2.70    0.64
   5   0  -3  219.11    5.83
  -5   0   3  213.44    6.40
  -5   0   3  205.44    5.51
   5   0  -2   21.16    1.76
  -5   0   2   21.33    2.02
  -5   0   1    2.15    0.64
   5   0  -1    1.42    0.26
  -5   0   0   24.15    2.14
  -5   0  -1    5.89    1.07
  -5   0  -2    9.37    1.38
  -5   0  -3   24.32    2.28
  -5   0  -4  130.16    5.54
  -5   0  -5    0.82    0.54
  -5   0  -6    1.29    0.63
  -5   0  -7    0.02    0.33
  -5   0  -8    0.09    0.36
   5   1 -14   40.01    3.19
   5   1 -13    7.24    1.30
   5   1 -12   -0.44    0.24
   5   1 -11   25.59    2.21
   5   1 -10    2.02    0.61
  -5  -1  10    2.77    0.56
   5   1  -9  221.12    6.46
  -5  -1   9  217.02    5.32
   5   1  -9  235.47    5.52
   5   1  -8    8.07    1.21
  -5  -1   8    8.34    1.00
   5   1  -8    7.51    0.96
   5   1  -7    7.14    1.15
  -5  -1   7    7.77    0.96
   5   1  -7    6.91    1.02
   5   1  -6    8.03    1.22
   5   1  -6    9.08    1.16
   5   1  -5    0.27    0.35
  -5  -1   5    0.30    0.40
  -5  -1   4   86.82    4.17
  -5  -1   3  414.89    9.84
  -5  -1   2 1563.33   22.17
  -5  -1   1   61.12    3.69
  -5  -1   0    2.13    0.73
  -5  -1  -1    0.91    0.54
  -5  -1  -2    0.56    0.41
  -5  -1  -3   25.20    2.47
  -5  -1  -4  105.64    5.27
  -5  -1  -5  162.10    6.72
  -5  -1  -6    0.97    0.76
  -5  -1  -7   10.56    1.84
   5   2 -14    2.00    0.71
   5   2 -13    9.09    1.53
   5   2 -12    0.26    0.36
   5   2 -11    1.28    0.56
   5   2 -10    0.28    0.29
   5   2  -9    0.88    0.53
   5   2  -8   34.21    2.65
   5   2  -8   35.90    2.15
   5   2  -7    5.39    0.90
   5   2  -7    3.97    0.93
   5   2  -6    4.00    0.82
   5   2  -6    2.74    0.79
  -5  -2   5    0.02    0.39
  -5  -2   4    0.96    0.45
  -5  -2   3    8.89    1.43
  -5  -2   2   11.90    1.71
  -5  -2   1   13.65    1.85
  -5  -2   0   25.28    2.55
  -5  -2  -1    5.97    1.22
  -5  -2  -2    6.95    1.36
  -5  -2  -3    6.56    1.40
  -5  -2  -4    1.85    0.90
  -5  -2  -5   41.78    3.57
  -5  -2  -6   25.28    2.85
   5   3 -13    0.73    0.55
   5   3 -12    2.20    0.78
   5   3 -11    0.73    0.51
   5   3 -10    0.57    0.43
   5   3  -9   29.31    2.61
   5   3  -8  136.83    5.71
   5   3  -7   15.92    1.94
   5   3  -7   18.08    1.66
   5   3  -6    0.15    0.24
  -5  -3   5    5.94    1.20
  -5  -3   4   11.59    1.71
  -5  -3   3   -2.13    0.78
  -5  -3   2  181.68    7.20
  -5  -3   1  419.11   11.31
  -5  -3   0    4.22    1.16
  -5  -3  -1    2.02    0.80
  -5  -3  -2   -0.01    0.43
  -5  -3  -3    1.10    0.65
  -5  -3  -4    9.14    1.76
  -5  -3  -5   17.51    2.43
   5   4 -12    0.01    0.47
   5   4 -11    1.52    0.65
   5   4 -10   -0.02    0.36
   5   4  -9   24.70    2.52
   5   4  -8   17.30    2.16
   5   4  -7   12.36    1.82
   5   4  -6    0.76    0.58
  -5  -4   5    1.23    0.71
  -5  -4   4    0.68    0.44
  -5  -4   3   -0.38    0.47
  -5  -4   2   39.82    3.50
  -5  -4   1    0.05    0.41
  -5  -4   0   -0.18    0.61
  -5  -4  -1   14.72    2.25
  -5  -4  -2    0.86    0.78
  -5  -4  -3    1.04    0.57
  -5  -4  -4    2.65    1.02
   5   5 -10    1.43    0.73
   5   5  -9    0.13    0.38
   5   5  -8    0.43    0.44
   5   5  -7    0.35    0.44
   5   5  -6    3.85    1.04
   5   5  -5    1.01    0.48
  -5  -5   5    1.32    0.63
  -5  -5   4    0.13    0.46
  -5  -5   3    1.19    0.82
  -5  -5   2   12.01    2.03
  -5  -5   1    4.08    1.20
  -5  -5   0   11.17    2.01
  -5  -5  -1    6.47    1.56
  -5  -5  -2    1.64    0.84
  -5  -5  -3    0.97    0.49
   5   6  -9   42.35    3.64
   5   6  -8    6.83    1.54
   5   6  -7    0.56    0.59
   5   6  -6    0.23    0.44
   5   6  -5   -0.82    0.58
  -5  -6   5    0.84    0.75
  -5  -6   4    6.46    1.54
  -5  -6   3    1.02    0.65
  -5  -6   2   73.97    5.34
  -5  -6   1   19.80    2.78
  -5  -6   0    5.56    1.52
  -5  -6  -1    7.72    1.72
  -6  11   1    0.51    0.56
  -6  11   0   90.49    5.55
  -6  11  -1   72.95    4.90
  -6  11  -2    9.81    1.77
  -6  11  -3    7.76    1.60
  -6  11  -4    0.42    0.66
  -6  11  -5    0.17    0.53
  -6  10   4    1.28    0.68
  -6  10   3   -0.33    0.36
  -6  10   2    2.01    0.78
  -6  10   1    0.11    0.45
  -6  10   0   55.46    4.13
  -6  10  -1   16.24    2.27
  -6  10  -2    0.18    0.45
  -6  10  -3    4.30    1.13
  -6  10  -4    0.11    0.54
  -6  10  -5    3.16    0.89
  -6  10  -6    1.77    0.76
  -6   9   6   22.77    2.74
  -6   9   5   12.36    1.96
  -6   9   4    3.41    1.09
  -6   9   3    0.47    0.38
  -6   9   2    1.49    0.65
  -6   9   1   -0.13    0.45
  -6   9   0   33.95    3.16
  -6   9  -1  201.06    7.63
  -6   9  -2   66.57    4.32
  -6   9  -3    0.73    0.43
  -6   9  -4    0.18    0.45
  -6   9  -5    0.34    0.36
  -6   9  -6    1.19    0.69
  -6   8   8    0.36    0.40
  -6   8   7   -0.26    0.56
  -6   8   6   51.42    3.90
  -6   8   5   66.49    4.39
  -6   8   4    4.72    1.17
  -6   8   3   -0.10    0.40
  -6   8   2    0.09    0.52
  -6   8   1    0.39    0.30
  -6   8   0    5.08    1.27
  -6   8  -1  162.68    6.59
  -6   8  -2   58.25    3.83
  -6   8  -3    0.45    0.37
  -6   8  -4   14.37    1.85
  -6   8  -5    1.19    0.55
  -6   8  -5    0.66    0.42
  -6   8  -6    2.70    0.74
  -6   8  -6    2.57    0.78
  -6   8  -7   -0.50    0.47
  -6   8  -8   12.31    1.68
  -6   7  10    3.70    1.07
  -6   7   9   12.86    1.94
  -6   7   8    0.19    0.48
  -6   7   7    1.94    0.82
  -6   7   6    0.12    0.38
  -6   7   5    1.17    0.64
  -6   7   4   -0.31    0.47
  -6   7   3    0.76    0.50
  -6   7   2    0.73    0.53
  -6   7   1    1.95    0.60
  -6   7   0   -0.04    0.48
  -6   7  -1    1.73    0.63
  -6   7  -1    1.21    0.33
  -6   7  -2   13.50    1.18
  -6   7  -2   15.28    1.89
  -6   7  -3    2.25    0.55
  -6   7  -3    1.15    0.36
  -6   7  -4    6.37    0.98
  -6   7  -4    5.33    1.06
  -6   7  -5   -0.39    0.42
  -6   7  -5   -0.54    0.30
  -6   7  -6    0.95    0.59
  -6   7  -7    0.55    0.43
  -6   7  -8    0.23    0.42
  -6   7  -9    0.38    0.49
  -6   6  11    9.96    1.76
  -6   6  10    6.19    1.40
  -6   6   9    3.93    1.10
  -6   6   8   -0.36    0.67
  -6   6   7    0.10    0.43
  -6   6   6    4.65    1.09
  -6   6   5   29.74    2.73
  -6   6   4    3.73    1.02
  -6   6   3    0.51    0.41
  -6   6   2   -0.18    0.36
  -6   6   1    0.18    0.25
  -6   6   1    0.06    0.09
   6  -6  -1    0.28    0.18
  -6   6   0    0.93    0.44
  -6   6   0    0.65    0.29
   6  -6   0    0.71    0.29
   6  -6   1    1.35    0.42
  -6   6  -1    0.68    0.23
  -6   6  -1    1.44    0.60
  -6   6  -2   12.79    1.24
  -6   6  -2   14.74    1.82
  -6   6  -3    3.67    0.72
  -6   6  -3    4.00    0.91
  -6   6  -4    4.38    0.82
  -6   6  -4    7.04    1.22
  -6   6  -5   58.67    3.21
  -6   6  -6    2.09    0.66
  -6   6  -7    1.86    0.64
  -6   6  -8    1.45    0.63
  -6   6  -9    1.66    0.77
  -6   5  12   -0.26    0.52
  -6   5  11    1.99    0.87
  -6   5  10    0.27    0.34
  -6   5   9    0.16    0.31
  -6   5   8   20.80    2.29
  -6   5   7    3.98    0.94
  -6   5   6   28.79    2.61
   6  -5  -5   12.74    0.65
  -6   5   5   11.34    1.63
  -6   5   4    4.72    1.07
   6  -5  -4    5.14    0.50
   6  -5  -4    4.67    0.49
  -6   5   3    0.07    0.37
   6  -5  -3    0.01    0.08
  -6   5   2    4.77    1.04
   6  -5  -2    5.33    0.63
  -6   5   2    5.83    0.65
  -6   5   1    2.13    0.74
  -6   5   1    1.64    0.42
   6  -5  -1    1.17    0.34
  -6   5   0   10.14    1.11
  -6   5   0   11.86    1.58
   6  -5   0    9.81    1.03
   6  -5   1    0.40    0.27
  -6   5  -1    0.11    0.26
  -6   5  -1    0.18    0.31
  -6   5  -2    8.93    1.12
  -6   5  -2    8.66    1.30
  -6   5  -3    1.02    0.45
  -6   5  -3    0.72    0.34
  -6   5  -4   10.74    1.37
  -6   5  -5    0.43    0.37
  -6   5  -6    0.54    0.25
  -6   5  -7    0.53    0.42
  -6   5  -8    0.63    0.52
  -6   4  12    3.41    1.03
  -6   4  11    1.08    0.69
  -6   4  10    5.34    1.19
  -6   4   9    0.46    0.42
  -6   4   8    0.95    0.37
  -6   4   7    3.54    0.83
   6  -4  -7    8.54    0.76
   6  -4  -6   38.55    1.61
  -6   4   6   35.57    2.84
   6  -4  -5   76.49    2.37
   6  -4  -5   77.26    2.53
  -6   4   5   74.79    4.12
   6  -4  -4   25.54    1.31
   6  -4  -4   21.70    1.49
  -6   4   4   24.62    2.31
   6  -4  -3   60.23    2.07
  -6   4   3   62.69    2.43
  -6   4   3   59.10    3.53
  -6   4   2    0.57    0.39
  -6   4   2    1.05    0.33
   6  -4  -2    0.59    0.21
  -6   4   1    3.70    0.74
   6  -4  -1    4.04    0.69
  -6   4   1    4.85    1.01
  -6   4   0   -0.07    0.19
   6  -4   0    0.54    0.32
  -6   4   0    0.21    0.19
   6  -4   1   68.53    3.11
  -6   4  -1   74.62    3.35
  -6   4  -1   72.28    3.74
  -6   4  -2   75.90    3.56
  -6   4  -2   72.54    3.73
  -6   4  -3   16.59    1.80
  -6   4  -4   10.36    1.43
  -6   4  -5    5.87    1.11
  -6   4  -6   29.73    2.58
  -6   4  -7   30.39    2.71
  -6   4  -8   25.35    2.61
  -6   3  12   38.67    3.11
  -6   3  11    0.88    0.42
  -6   3  10    9.97    1.56
  -6   3   9    0.99    0.39
   6  -3  -9    1.53    0.48
   6  -3  -8    0.37    0.17
  -6   3   8    1.51    0.59
  -6   3   7   45.47    3.14
   6  -3  -6   22.40    1.59
  -6   3   6   25.37    2.32
   6  -3  -5  356.79    6.76
  -6   3   5  364.82    9.05
   6  -3  -4   21.56    1.46
  -6   3   4   23.13    2.17
  -6   3   3    5.32    0.84
   6  -3  -3    5.58    0.73
  -6   3   3    5.36    1.03
  -6   3   2    3.79    0.77
   6  -3  -2    4.78    0.72
  -6   3   2    3.09    0.76
  -6   3   1    2.41    0.56
   6  -3  -1    2.82    0.55
  -6   3   1    2.79    0.72
  -6   3   0    4.57    0.89
   6  -3   0    4.43    0.73
  -6   3   0    5.62    1.04
  -6   3  -1   27.68    2.17
  -6   3  -1   30.84    2.38
  -6   3  -2   54.22    3.22
  -6   3  -3    5.29    1.04
  -6   3  -4   -0.49    0.36
  -6   3  -5    3.06    0.82
  -6   3  -6   -0.19    0.30
  -6   3  -7   10.56    1.71
  -6   3  -8    4.83    1.21
  -6   2  11    0.38    0.48
   6  -2 -11    0.20    0.26
  -6   2  10    1.01    0.61
   6  -2 -10    1.06    0.47
  -6   2   9    5.27    1.07
   6  -2  -9    4.97    0.80
  -6   2   8    3.62    0.85
   6  -2  -8    2.64    0.60
  -6   2   7    0.51    0.43
   6  -2  -7    0.47    0.33
   6  -2  -7    0.47    0.38
   6  -2  -6   -0.01    0.27
   6  -2  -6    0.14    0.20
  -6   2   6   -0.03    0.34
   6  -2  -5  201.95    5.77
   6  -2  -5  199.74    5.33
  -6   2   5  193.16    6.28
   6  -2  -4  163.91    4.69
  -6   2   4  163.39    5.09
  -6   2   4  159.14    5.56
  -6   2   3    0.85    0.23
   6  -2  -3    1.29    0.34
  -6   2   3    1.66    0.57
   6  -2  -2   22.12    1.64
  -6   2   2   20.62    1.91
  -6   2   2   20.19    1.90
  -6   2   1    4.60    0.95
   6  -2  -1    5.21    0.83
  -6   2   1    4.09    0.85
  -6   2   0    0.28    0.33
  -6   2  -1    1.55    0.62
  -6   2  -2  160.80    5.88
  -6   2  -3    5.67    1.15
  -6   2  -4    7.99    1.38
  -6   2  -5    0.32    0.33
  -6   2  -6    0.54    0.37
  -6   2  -7    1.69    0.76
   6  -1 -12    2.02    0.65
   6  -1 -11  143.51    5.04
  -6   1  11  136.75    5.16
   6  -1 -10   38.46    2.48
  -6   1  10   39.58    2.73
   6  -1  -9    5.56    0.92
  -6   1   9    5.66    0.99
   6  -1  -8    4.64    0.88
  -6   1   8    3.83    0.84
   6  -1  -7    0.14    0.21
  -6   1   7    0.14    0.26
   6  -1  -6    8.54    1.22
  -6   1   6    7.68    1.18
  -6   1   5  175.11    5.64
   6  -1  -4  958.02   14.22
  -6   1   4  975.98   15.29
  -6   1   3   61.28    3.49
  -6   1   3   63.76    3.33
  -6   1   2   -1.75    0.64
  -6   1   1   -0.20    0.35
  -6   1   0    1.04    0.58
  -6   1  -1   19.67    2.15
  -6   1  -2   47.88    3.32
  -6   1  -3   74.34    4.35
  -6   1  -4   -0.16    0.53
  -6   1  -5    6.64    1.40
  -6   1  -6    0.24    0.37
  -6   1  -7    3.33    1.01
   6   0 -13   -0.02    0.38
   6   0 -12    0.91    0.58
   6   0 -11    3.45    0.90
   6   0 -10    5.82    1.01
  -6   0  10    5.96    0.97
   6   0  -9    3.89    0.83
  -6   0   9    4.29    0.84
   6   0  -8    5.31    0.99
  -6   0   8    5.87    0.98
   6   0  -7    0.17    0.23
  -6   0   7    0.15    0.29
   6   0  -6    0.54    0.28
  -6   0   6    0.87    0.49
  -6   0   5    3.22    0.80
  -6   0   5    2.95    0.75
  -6   0   4   31.13    2.58
  -6   0   3    4.53    1.05
  -6   0   2   32.68    2.75
  -6   0   1    4.15    0.96
  -6   0   0    2.03    0.62
  -6   0  -1    0.09    0.36
  -6   0  -2    1.56    0.66
  -6   0  -3   44.58    3.49
  -6   0  -4    9.03    1.69
  -6   0  -5   10.07    1.87
  -6   0  -6    6.00    1.42
   6   1 -13    1.14    0.55
   6   1 -12    0.98    0.50
   6   1 -11   25.46    2.29
   6   1 -10   56.19    3.38
   6   1  -9   20.69    2.07
   6   1  -8    1.50    0.62
   6   1  -7    1.75    0.64
   6   1  -6   -0.12    0.52
  -6  -1   5    3.86    0.86
  -6  -1   4   56.38    3.70
  -6  -1   3  220.39    7.66
  -6  -1   2    6.03    1.27
  -6  -1   1    1.56    0.67
  -6  -1   0    4.14    1.05
  -6  -1  -1    0.01    0.52
  -6  -1  -2    7.94    1.53
  -6  -1  -3    5.19    1.31
  -6  -1  -4   -0.01    0.43
  -6  -1  -5    2.92    1.02
   6   2 -13    1.29    0.65
   6   2 -12   10.05    1.55
   6   2 -11    7.37    1.27
   6   2 -10    7.20    1.32
   6   2  -9    0.56    0.38
   6   2  -8    0.61    0.35
   6   2  -7    3.28    0.88
   6   2  -6    0.05    0.49
  -6  -2   5    6.07    1.25
  -6  -2   4   16.33    2.10
  -6  -2   3   -0.16    0.57
  -6  -2   2   15.79    2.13
  -6  -2   1    8.17    1.56
  -6  -2   0    0.20    0.51
  -6  -2  -1    1.22    0.84
  -6  -2  -2   -0.21    0.58
  -6  -2  -3    6.77    1.53
  -6  -2  -4   15.36    2.35
   6   3 -11    1.41    0.70
   6   3 -10   -0.10    0.50
   6   3  -9   11.40    1.69
   6   3  -8    0.47    0.44
   6   3  -7   -0.28    0.46
   6   3  -6    0.08    0.41
  -6  -3   5   18.77    2.31
  -6  -3   4   15.96    2.16
  -6  -3   3   22.93    2.71
  -6  -3   2    3.51    1.06
  -6  -3   1    2.41    0.76
  -6  -3   0    7.10    1.52
  -6  -3  -1    1.25    0.64
  -6  -3  -2    9.64    1.90
  -6  -3  -3   -0.70    0.63
   6   4 -10   35.42    3.20
   6   4  -9    1.95    0.78
   6   4  -8    8.66    1.65
   6   4  -7    0.02    0.32
   6   4  -6    8.02    1.58
  -6  -4   5    1.15    0.70
  -6  -4   4  111.58    6.13
  -6  -4   3   41.61    3.85
  -6  -4   2    3.00    0.92
  -6  -4   1   11.19    2.12
  -6  -4   0    8.32    1.82
  -6  -4  -1    2.00    0.97
   6   5  -7   -0.60    0.89
   6   5  -6    0.67    0.63
  -6  -5   5   -0.62    0.66
  -6  -5   4   67.67    5.00
  -6  -5   3    9.88    1.89
  -6  -5   2   -0.06    0.52
  -7  10   0    5.10    1.28
  -7  10  -1    0.28    0.69
  -7  10  -2   26.55    2.96
  -7  10  -3   -0.20    0.40
  -7  10  -4    0.34    0.45
  -7   9   4    2.09    0.84
  -7   9   3    3.76    1.02
  -7   9   2    0.23    0.54
  -7   9   1    2.25    0.82
  -7   9   0   -0.06    0.53
  -7   9  -1    2.22    0.81
  -7   9  -2   -0.29    0.38
  -7   9  -3    0.35    0.57
  -7   9  -4   -0.05    0.55
  -7   9  -5    0.15    0.44
  -7   8   6    1.51    0.91
  -7   8   5    1.60    0.88
  -7   8   4    5.24    1.32
  -7   8   3   -0.10    0.54
  -7   8   2   -0.14    0.38
  -7   8   1    4.60    1.25
  -7   8   0   -0.33    0.34
  -7   8  -1    7.16    1.46
  -7   8  -2    3.11    0.92
  -7   8  -3   47.37    3.60
  -7   8  -4    0.32    0.43
  -7   8  -5   17.03    2.09
  -7   7   8   11.15    1.91
  -7   7   7    5.58    1.34
  -7   7   6    5.51    1.27
  -7   7   5   -0.16    0.33
  -7   7   4   10.23    1.76
  -7   7   3    0.90    0.62
  -7   7   2   15.29    2.09
  -7   7   1    5.58    1.24
  -7   7   0   12.21    1.86
  -7   7  -1    4.61    1.17
  -7   7  -2    5.88    1.29
  -7   7  -3   12.08    1.78
  -7   7  -4    0.53    0.35
  -7   6  10    0.77    0.55
  -7   6   9    1.40    0.69
  -7   6   8   18.06    2.36
  -7   6   7  116.92    6.04
  -7   6   6   34.10    3.20
  -7   6   5   32.24    3.03
  -7   6   4    1.21    0.64
  -7   6   3    7.39    1.48
  -7   6   2    0.21    0.36
  -7   6   1   48.22    3.56
  -7   6   0   86.21    4.71
  -7   6  -1   19.43    1.72
  -7   6  -1   17.77    2.11
  -7   6  -2    7.36    1.07
  -7   6  -2    6.72    1.30
  -7   6  -3    1.05    0.43
  -7   6  -3    1.48    0.61
  -7   6  -4   27.25    2.38
  -7   6  -5   29.65    2.58
  -7   6  -6   65.39    4.01
  -7   6  -7    0.02    0.33
  -7   5  11   -0.08    0.48
  -7   5  10   -0.43    0.57
  -7   5   9    3.17    1.00
  -7   5   8    9.03    1.60
  -7   5   7  107.39    5.57
  -7   5   6    8.03    1.50
  -7   5   5    1.86    0.73
  -7   5   4    3.38    0.99
  -7   5   3    3.86    1.00
  -7   5   2    1.23    0.34
  -7   5   2    1.20    0.60
  -7   5   1   29.93    2.10
  -7   5   1   23.94    2.44
  -7   5   0    3.31    0.76
  -7   5   0    3.65    1.04
  -7   5  -1    1.17    0.71
  -7   5  -1    1.73    0.61
  -7   5  -2    0.50    0.28
  -7   5  -2    1.43    0.58
  -7   5  -3    0.64    0.34
  -7   5  -4    3.18    0.91
  -7   5  -5    0.43    0.42
  -7   5  -6    1.33    0.69
  -7   5  -7    0.68    0.46
  -7   4  11    0.21    0.54
  -7   4  10    1.28    0.62
  -7   4   9   -0.12    0.48
  -7   4   8    1.84    0.85
  -7   4   7  108.72    5.42
  -7   4   6  219.83    7.72
  -7   4   5   11.09    1.66
  -7   4   4    1.97    0.77
  -7   4   3    0.80    0.42
  -7   4   3    0.72    0.57
  -7   4   2    0.39    0.29
  -7   4   2    0.47    0.30
  -7   4   1    0.15    0.20
  -7   4   1    0.46    0.46
  -7   4   0   86.17    4.11
  -7   4   0   77.38    4.21
  -7   4  -1   21.52    2.07
  -7   4  -1   23.12    2.26
  -7   4  -2    4.47    0.96
  -7   4  -3   -0.07    0.51
  -7   4  -4   -0.39    0.62
  -7   4  -5    3.69    0.94
  -7   4  -6   38.44    3.40
  -7   4  -7   31.91    3.16
  -7   3  11    0.32    0.63
  -7   3  10    0.17    0.45
  -7   3   9   -0.14    0.30
  -7   3   8    0.30    0.46
   7  -3  -7   71.93    3.08
  -7   3   7   59.64    3.86
   7  -3  -6  314.33    7.15
  -7   3   6  288.64    8.69
   7  -3  -5   21.65    1.88
  -7   3   5   24.00    2.33
  -7   3   4    1.42    0.48
  -7   3   4    1.01    0.46
  -7   3   3    1.21    0.50
  -7   3   3    1.66    0.69
  -7   3   2    0.24    0.35
  -7   3   2    0.78    0.53
  -7   3   1   11.20    1.54
  -7   3   1    9.23    1.42
  -7   3   0   25.55    2.40
  -7   3  -1    9.48    1.52
  -7   3  -2    1.01    0.66
  -7   3  -3    1.22    0.69
  -7   3  -4   -0.02    0.35
  -7   3  -5    1.71    0.70
  -7   3  -6   12.98    2.01
  -7   2  11   -0.79    0.57
  -7   2  10    0.64    0.31
   7  -2  -9   -0.82    0.37
  -7   2   9    0.16    0.26
   7  -2  -8    0.41    0.37
  -7   2   8    0.69    0.55
   7  -2  -7    0.23    0.28
  -7   2   7    0.16    0.24
   7  -2  -6   12.47    1.54
  -7   2   6   13.75    1.73
  -7   2   5   25.70    2.36
  -7   2   4    6.37    1.11
  -7   2   4    5.97    1.12
  -7   2   3    1.82    0.72
  -7   2   3    1.48    0.66
  -7   2   2    0.32    0.24
  -7   2   2    0.37    0.43
  -7   2   1   -0.27    0.43
  -7   2   0    2.71    0.79
  -7   2  -1   16.69    2.05
  -7   2  -2    1.64    0.72
  -7   2  -3    3.64    1.00
  -7   2  -4    8.22    1.59
  -7   2  -5    0.12    0.56
   7  -1 -10    0.60    0.46
  -7   1  10    0.66    0.52
   7  -1  -9    0.17    0.37
  -7   1   9    0.26    0.30
   7  -1  -8   -0.07    0.42
  -7   1   8    0.17    0.30
   7  -1  -7    0.28    0.41
  -7   1   7    0.08    0.28
   7  -1  -6    8.54    1.34
  -7   1   6    7.66    1.23
  -7   1   5   20.41    2.09
  -7   1   5   20.89    2.07
  -7   1   4   12.51    1.70
  -7   1   3    2.58    0.80
  -7   1   2   11.78    1.74
  -7   1   1    9.31    1.60
  -7   1   0    4.47    1.16
  -7   1  -1    2.38    0.89
  -7   1  -2    8.76    1.66
  -7   1  -3    5.02    1.29
  -7   1  -4   31.94    3.23
  -7   1  -5    0.85    0.60
   7   0 -11    0.10    0.30
   7   0 -10    0.52    0.42
   7   0  -9    1.57    0.71
  -7   0   9    2.23    0.65
   7   0  -8    1.39    0.60
   7   0  -7    4.74    1.09
   7   0  -6    2.46    0.77
  -7   0   5    3.59    0.98
  -7   0   4   11.31    1.74
  -7   0   3    1.28    0.64
  -7   0   2    1.85    0.76
  -7   0   1   -0.02    0.29
  -7   0   0   -0.33    0.61
  -7   0  -1    4.84    1.23
  -7   0  -2    5.35    1.38
  -7   0  -3    3.99    1.30
  -7   0  -4    1.63    0.79
   7   1 -12    1.58    0.65
   7   1 -11   20.47    2.20
   7   1 -10    4.01    1.05
   7   1  -9    3.04    0.93
   7   1  -8    2.36    1.12
   7   1  -7   15.08    1.98
   7   1  -6   44.72    3.49
  -7  -1   5   36.05    3.15
  -7  -1   4   28.29    2.86
  -7  -1   3    2.92    0.91
  -7  -1   2   32.94    3.24
  -7  -1   1    0.65    0.46
  -7  -1   0   47.81    4.12
  -7  -1  -1    3.10    1.01
  -7  -1  -2    1.60    1.05
  -7  -1  -3    0.96    0.50
   7   2 -11    1.53    0.69
   7   2 -10    5.26    1.21
   7   2  -9    3.59    1.10
   7   2  -8    2.17    0.81
   7   2  -7    0.99    0.67
   7   2  -6   56.99    4.11
  -7  -2   5   51.75    4.02
  -7  -2   4    1.56    0.78
  -7  -2   3    3.81    1.13
  -7  -2   2    1.54    0.76
  -7  -2   1    0.53    0.75
  -7  -2   0   16.73    2.59
  -7  -2  -1    0.22    0.65
   7   3  -9    2.77    0.86
   7   3  -8    4.13    1.15
   7   3  -7    1.68    0.78
   7   3  -6   50.48    4.10
  -7  -3   5   52.98    4.23
  -7  -3   4    1.23    0.69
  -7  -3   3    0.71    0.50
  -7  -3   2   -2.24    0.98
  -7  -3   1    4.76    1.55
  -8   7   4    1.22    0.73
  -8   7   3   10.06    1.78
  -8   7   2    1.89    0.75
  -8   7   1    3.67    1.06
  -8   7   0    5.92    1.37
  -8   6   6    0.40    0.30
  -8   6   5    0.04    0.44
  -8   6   4   -0.59    0.37
  -8   6   3   -0.30    0.50
  -8   6   2   25.84    2.80
  -8   6   1   15.06    2.10
  -8   6   0    1.31    0.59
  -8   6  -1   -0.15    0.34
  -8   5   8   58.81    4.32
  -8   5   7    1.41    0.75
  -8   5   6    3.81    1.05
  -8   5   5    5.82    1.35
  -8   5   4    4.53    1.14
  -8   5   3    2.52    0.85
  -8   5   2    6.05    1.30
  -8   5   1    1.00    0.49
  -8   5   0    5.09    1.18
  -8   5  -1   15.29    2.00
  -8   4  10    1.21    0.80
  -8   4   9    0.13    0.34
  -8   4   8    2.32    0.84
  -8   4   7    7.16    1.45
  -8   4   6    0.13    0.35
  -8   4   5    1.71    0.64
  -8   4   4    1.40    0.70
  -8   4   3    0.47    0.43
  -8   4   2    4.24    1.04
  -8   4   1    4.57    1.09
  -8   4   0    0.54    0.45
  -8   4  -1   -0.45    0.63
  -8   4  -2   11.92    1.80
  -8   4  -3    3.67    1.13
  -8   4  -4    0.40    0.54
  -8   3  10    0.50    0.37
  -8   3   9    1.23    0.69
  -8   3   8   -0.33    0.52
  -8   3   7   -0.23    0.42
  -8   3   6   11.99    1.80
  -8   3   5    7.26    1.39
  -8   3   4   25.05    2.23
  -8   3   4   21.15    2.32
  -8   3   3   28.80    2.54
  -8   3   3   18.83    2.21
  -8   3   2   -0.08    0.42
  -8   3   2    0.30    0.46
  -8   3   1   -0.35    0.59
  -8   3   0    2.26    0.72
  -8   3  -1   13.35    2.01
  -8   3  -2   53.01    4.06
  -8   3  -3    0.80    0.70
  -8   3  -4   59.78    4.47
  -8   2  10    6.56    1.34
  -8   2   9    0.18    0.47
  -8   2   8    3.77    1.00
  -8   2   7    2.40    0.78
   8  -2  -6    0.42    0.32
  -8   2   6    0.59    0.38
  -8   2   5   11.52    1.69
  -8   2   4   -0.16    0.49
  -8   2   3    6.25    1.30
  -8   2   2    0.58    0.58
  -8   2   1    2.70    0.87
  -8   2   0    1.54    0.67
  -8   2  -1    1.09    0.52
  -8   2  -2   10.35    1.94
  -8   2  -3    7.59    1.73
  -8   1   9    7.16    1.30
   8  -1  -8   66.17    3.90
  -8   1   8   59.83    3.72
   8  -1  -7   47.70    3.39
   8  -1  -6   22.22    2.36
  -8   1   5    1.45    0.48
  -8   1   4   30.25    2.88
  -8   1   3    5.06    1.25
  -8   1   2  104.33    5.76
  -8   1   1   21.37    2.64
  -8   1   0    0.19    0.77
  -8   1  -1    0.06    0.44
  -8   1  -2    0.11    0.46
   8   0  -9    4.57    1.10
   8   0  -8   19.15    2.24
   8   0  -7    7.59    1.45
   8   0  -6    0.19    0.52
  -8   0   5    1.11    0.89
  -8   0   4    4.54    1.26
  -8   0   3    0.84    0.78
  -8   0   2    0.80    0.74
  -8   0   1    4.28    1.40
  -8   0   0    0.59    0.58
  -8   0  -1   -0.06    0.83
   8   1  -9    0.94    0.60
   8   1  -8   17.72    2.29
   8   1  -7   58.82    4.21
   8   1  -6    0.18    0.37
  -8  -1   5    1.12    0.66
  -8  -1   4    0.06    0.36
  -8  -1   3    1.87    0.93
  -8  -1   2   14.29    2.37
  -8  -1   1   77.81    5.64
   0   0   0    0.00    0.00


TITL stna-3 in P-1
REM P-1 (#2 in standard setting)
CELL 0.71073   6.756209   9.551996  11.422721  97.2064 102.3346 108.6137
ZERR    3.00   0.000534   0.000566   0.000812   0.0054   0.0064   0.0065
LATT  1
SFAC C H N O
UNIT 33.00 30.00 3.00 3.00
TREF
HKLF 4
END
_computing_structure_solution     'SHELXT 2018/2 (Sheldrick, 2018)'
;
_shelx_hkl_checksum              3188
_olex2_date_sample_data_collection 2021-11-24
_olex2_submission_special_instructions 'No special instructions were received'
_oxdiff_exptl_absorpt_empirical_details
;
Empirical correction (ABSPACK) includes:
- Absorption correction using spherical harmonics
- Frame scaling
;
_oxdiff_exptl_absorpt_empirical_full_max 1.364
_oxdiff_exptl_absorpt_empirical_full_min 0.795
loop_
_space_group_symop_operation_xyz
'x, y, z'
'-x, -y, -z'
loop_
_atom_site_label
_atom_site_type_symbol
_atom_site_fract_x
_atom_site_fract_y
_atom_site_fract_z
_atom_site_U_iso_or_equiv
_atom_site_adp_type
_atom_site_occupancy
_atom_site_site_symmetry_order
_atom_site_calc_flag
_atom_site_refinement_flags_posn
_atom_site_refinement_flags_adp
_atom_site_refinement_flags_occupancy
_atom_site_disorder_assembly
_atom_site_disorder_group
O1 O 0.13061(17) 0.42481(12) 0.13536(10) 0.0290(3) Uani 1 1 d . . . . .
N1 N 0.6458(2) 0.17601(14) 0.69722(11) 0.0211(3) Uani 1 1 d . . . . .
N2 N 0.95986(19) 0.36062(14) 0.60444(11) 0.0225(3) Uani 1 1 d . . . . .
H2 H 1.057240 0.413802 0.574076 0.027 Uiso 1 1 calc R U . . .
N3 N 0.3767(2) 0.19211(14) 0.53973(11) 0.0211(3) Uani 1 1 d . . . . .
N4 N 0.69975(19) 0.38572(13) 0.45230(11) 0.0195(3) Uani 1 1 d . . . . .
C1 C 0.4747(3) 0.05508(18) 0.72461(14) 0.0280(4) Uani 1 1 d . . . . .
H1A H 0.439908 -0.038301 0.666618 0.034 Uiso 1 1 calc R U . . .
H1B H 0.344944 0.080452 0.714896 0.034 Uiso 1 1 calc R U . . .
C2 C 0.5431(3) 0.0319(2) 0.85271(15) 0.0335(4) Uani 1 1 d . . . . .
H2A H 0.558185 0.120326 0.910888 0.040 Uiso 1 1 calc R U . . .
H2B H 0.431362 -0.054031 0.864890 0.040 Uiso 1 1 calc R U . . .
C3 C 0.7540(3) 0.0050(2) 0.87684(16) 0.0350(4) Uani 1 1 d . . . . .
H3A H 0.735549 -0.089384 0.825127 0.042 Uiso 1 1 calc R U . . .
H3B H 0.798266 -0.002535 0.961657 0.042 Uiso 1 1 calc R U . . .
C4 C 0.9272(3) 0.13371(19) 0.85060(14) 0.0290(4) Uani 1 1 d . . . . .
H4A H 1.058172 0.109911 0.858984 0.035 Uiso 1 1 calc R U . . .
H4B H 0.960553 0.224401 0.911371 0.035 Uiso 1 1 calc R U . . .
C5 C 0.8621(2) 0.16554(17) 0.72356(14) 0.0259(4) Uani 1 1 d . . . . .
H5 H 0.859812 0.082446 0.662865 0.031 Uiso 1 1 calc R U . . .
C6 C 1.0276(2) 0.30955(18) 0.71385(14) 0.0248(4) Uani 1 1 d . . . . .
H6A H 1.054731 0.387593 0.784598 0.030 Uiso 1 1 calc R U . . .
H6B H 1.162729 0.293532 0.715075 0.030 Uiso 1 1 calc R U . . .
C7 C 0.7503(2) 0.32845(16) 0.54783(13) 0.0179(3) Uani 1 1 d . . . . .
C8 C 0.5820(2) 0.22788(16) 0.59313(13) 0.0189(3) Uani 1 1 d . . . . .
C9 C 0.3223(2) 0.25400(16) 0.44026(13) 0.0204(4) Uani 1 1 d . . . . .
C10 C 0.1034(2) 0.22143(17) 0.38113(14) 0.0241(4) Uani 1 1 d . . . . .
H10 H -0.003985 0.158675 0.409732 0.029 Uiso 1 1 calc R U . . .
C11 C 0.0459(3) 0.28071(18) 0.28207(14) 0.0263(4) Uani 1 1 d . . . . .
H11 H -0.099847 0.259365 0.244387 0.032 Uiso 1 1 calc R U . . .
C12 C 0.2066(2) 0.37386(17) 0.23708(13) 0.0233(4) Uani 1 1 d . . . . .
C13 C 0.4227(2) 0.40793(17) 0.29314(13) 0.0221(4) Uani 1 1 d . . . . .
H13 H 0.528474 0.469533 0.262840 0.027 Uiso 1 1 calc R U . . .
C14 C 0.4832(2) 0.34936(16) 0.39633(13) 0.0188(4) Uani 1 1 d . . . . .
C15 C 0.2883(3) 0.5066(2) 0.08046(15) 0.0333(4) Uani 1 1 d . . . . .
H15A H 0.217304 0.532332 0.008607 0.050 Uiso 1 1 calc R U . . .
H15B H 0.368249 0.445502 0.057984 0.050 Uiso 1 1 calc R U . . .
H15C H 0.385878 0.597305 0.137671 0.050 Uiso 1 1 calc R U . . .
loop_
_atom_site_aniso_label
_atom_site_aniso_U_11
_atom_site_aniso_U_22
_atom_site_aniso_U_33
_atom_site_aniso_U_23
_atom_site_aniso_U_13
_atom_site_aniso_U_12
O1 0.0236(6) 0.0345(7) 0.0263(6) 0.0094(5) 0.0013(5) 0.0095(5)
N1 0.0172(7) 0.0226(7) 0.0201(7) 0.0072(5) 0.0052(5) 0.0015(6)
N2 0.0148(7) 0.0261(7) 0.0255(7) 0.0117(6) 0.0067(5) 0.0027(6)
N3 0.0170(7) 0.0195(7) 0.0225(7) 0.0029(5) 0.0062(5) 0.0010(6)
N4 0.0165(7) 0.0189(7) 0.0221(7) 0.0059(5) 0.0062(5) 0.0036(5)
C1 0.0224(9) 0.0262(9) 0.0312(9) 0.0105(7) 0.0088(7) 0.0003(7)
C2 0.0316(10) 0.0343(9) 0.0305(9) 0.0145(7) 0.0116(8) 0.0014(8)
C3 0.0376(10) 0.0336(9) 0.0342(10) 0.0184(8) 0.0099(8) 0.0090(8)
C4 0.0248(9) 0.0311(9) 0.0284(9) 0.0105(7) 0.0044(7) 0.0068(8)
C5 0.0228(9) 0.0254(9) 0.0298(9) 0.0094(7) 0.0079(7) 0.0071(7)
C6 0.0181(8) 0.0282(9) 0.0258(8) 0.0096(7) 0.0045(7) 0.0047(7)
C7 0.0167(8) 0.0159(7) 0.0196(8) 0.0015(6) 0.0071(6) 0.0032(6)
C8 0.0178(8) 0.0146(7) 0.0214(8) 0.0008(6) 0.0075(6) 0.0016(6)
C9 0.0196(8) 0.0176(7) 0.0217(8) 0.0013(6) 0.0067(6) 0.0040(7)
C10 0.0168(8) 0.0235(8) 0.0274(8) 0.0020(7) 0.0071(7) 0.0014(7)
C11 0.0167(8) 0.0285(9) 0.0286(9) -0.0001(7) 0.0024(7) 0.0060(7)
C12 0.0240(9) 0.0209(8) 0.0225(8) -0.0002(6) 0.0022(7) 0.0089(7)
C13 0.0199(8) 0.0189(8) 0.0251(8) 0.0045(6) 0.0071(7) 0.0029(7)
C14 0.0166(8) 0.0151(7) 0.0209(8) -0.0007(6) 0.0042(6) 0.0029(6)
C15 0.0328(10) 0.0371(10) 0.0269(9) 0.0112(7) 0.0034(7) 0.0096(8)
loop_
_atom_type_symbol
_atom_type_description
_atom_type_scat_dispersion_real
_atom_type_scat_dispersion_imag
_atom_type_scat_source
C C 0.0033 0.0016 'International Tables Vol C Tables 4.2.6.8 and 6.1.1.4'
H H 0.0000 0.0000 'International Tables Vol C Tables 4.2.6.8 and 6.1.1.4'
N N 0.0061 0.0033 'International Tables Vol C Tables 4.2.6.8 and 6.1.1.4'
O O 0.0106 0.0060 'International Tables Vol C Tables 4.2.6.8 and 6.1.1.4'
loop_
_geom_angle_atom_site_label_1
_geom_angle_atom_site_label_2
_geom_angle_atom_site_label_3
_geom_angle
_geom_angle_site_symmetry_1
_geom_angle_site_symmetry_3
C12 O1 C15 116.49(12) . .
C5 N1 C1 116.25(12) . .
C8 N1 C1 115.63(12) . .
C8 N1 C5 116.91(11) . .
C6 N2 H2 118.8 . .
C7 N2 H2 118.8 . .
C7 N2 C6 122.43(12) . .
C8 N3 C9 117.65(12) . .
C7 N4 C14 117.57(12) . .
N1 C1 H1A 109.3 . .
N1 C1 H1B 109.3 . .
N1 C1 C2 111.76(13) . .
H1A C1 H1B 107.9 . .
C2 C1 H1A 109.3 . .
C2 C1 H1B 109.3 . .
C1 C2 H2A 109.3 . .
C1 C2 H2B 109.3 . .
H2A C2 H2B 107.9 . .
C3 C2 C1 111.81(13) . .
C3 C2 H2A 109.3 . .
C3 C2 H2B 109.3 . .
C2 C3 H3A 109.7 . .
C2 C3 H3B 109.7 . .
C2 C3 C4 109.97(13) . .
H3A C3 H3B 108.2 . .
C4 C3 H3A 109.7 . .
C4 C3 H3B 109.7 . .
C3 C4 H4A 108.8 . .
C3 C4 H4B 108.8 . .
C3 C4 C5 113.59(13) . .
H4A C4 H4B 107.7 . .
C5 C4 H4A 108.8 . .
C5 C4 H4B 108.8 . .
N1 C5 C4 111.41(12) . .
N1 C5 H5 108.5 . .
N1 C5 C6 110.34(12) . .
C4 C5 H5 108.5 . .
C6 C5 C4 109.46(13) . .
C6 C5 H5 108.5 . .
N2 C6 C5 112.73(12) . .
N2 C6 H6A 109.0 . .
N2 C6 H6B 109.0 . .
C5 C6 H6A 109.0 . .
C5 C6 H6B 109.0 . .
H6A C6 H6B 107.8 . .
N2 C7 C8 119.34(13) . .
N4 C7 N2 119.30(13) . .
N4 C7 C8 121.35(13) . .
N1 C8 C7 118.51(13) . .
N3 C8 N1 120.17(13) . .
N3 C8 C7 121.28(13) . .
N3 C9 C10 119.84(13) . .
N3 C9 C14 121.08(14) . .
C10 C9 C14 119.08(14) . .
C9 C10 H10 119.6 . .
C11 C10 C9 120.83(14) . .
C11 C10 H10 119.6 . .
C10 C11 H11 120.0 . .
C10 C11 C12 120.05(14) . .
C12 C11 H11 120.0 . .
O1 C12 C11 115.21(13) . .
C13 C12 O1 124.31(14) . .
C13 C12 C11 120.48(14) . .
C12 C13 H13 120.1 . .
C12 C13 C14 119.81(14) . .
C14 C13 H13 120.1 . .
N4 C14 C9 121.05(13) . .
N4 C14 C13 119.20(13) . .
C13 C14 C9 119.74(14) . .
O1 C15 H15A 109.5 . .
O1 C15 H15B 109.5 . .
O1 C15 H15C 109.5 . .
H15A C15 H15B 109.5 . .
H15A C15 H15C 109.5 . .
H15B C15 H15C 109.5 . .
loop_
_geom_bond_atom_site_label_1
_geom_bond_atom_site_label_2
_geom_bond_distance
_geom_bond_site_symmetry_2
O1 C12 1.3774(18) .
O1 C15 1.420(2) .
N1 C1 1.4699(19) .
N1 C5 1.4662(19) .
N1 C8 1.3820(18) .
N2 H2 0.8600 .
N2 C6 1.4354(18) .
N2 C7 1.3411(19) .
N3 C8 1.303(2) .
N3 C9 1.3800(19) .
N4 C7 1.3100(18) .
N4 C14 1.3746(19) .
C1 H1A 0.9700 .
C1 H1B 0.9700 .
C1 C2 1.504(2) .
C2 H2A 0.9700 .
C2 H2B 0.9700 .
C2 C3 1.502(2) .
C3 H3A 0.9700 .
C3 H3B 0.9700 .
C3 C4 1.515(2) .
C4 H4A 0.9700 .
C4 H4B 0.9700 .
C4 C5 1.522(2) .
C5 H5 0.9800 .
C5 C6 1.505(2) .
C6 H6A 0.9700 .
C6 H6B 0.9700 .
C7 C8 1.470(2) .
C9 C10 1.403(2) .
C9 C14 1.407(2) .
C10 H10 0.9300 .
C10 C11 1.366(2) .
C11 H11 0.9300 .
C11 C12 1.404(2) .
C12 C13 1.376(2) .
C13 H13 0.9300 .
C13 C14 1.405(2) .
C15 H15A 0.9600 .
C15 H15B 0.9600 .
C15 H15C 0.9600 .
loop_
_geom_torsion_atom_site_label_1
_geom_torsion_atom_site_label_2
_geom_torsion_atom_site_label_3
_geom_torsion_atom_site_label_4
_geom_torsion
_geom_torsion_site_symmetry_1
_geom_torsion_site_symmetry_2
_geom_torsion_site_symmetry_3
_geom_torsion_site_symmetry_4
O1 C12 C13 C14 -179.66(12) . . . .
N1 C1 C2 C3 -54.16(19) . . . .
N1 C5 C6 N2 -47.34(17) . . . .
N2 C7 C8 N1 3.4(2) . . . .
N2 C7 C8 N3 -179.03(13) . . . .
N3 C9 C10 C11 -179.60(12) . . . .
N3 C9 C14 N4 -1.0(2) . . . .
N3 C9 C14 C13 178.57(11) . . . .
N4 C7 C8 N1 -177.47(11) . . . .
N4 C7 C8 N3 0.1(2) . . . .
C1 N1 C5 C4 -47.61(18) . . . .
C1 N1 C5 C6 -169.41(12) . . . .
C1 N1 C8 N3 13.2(2) . . . .
C1 N1 C8 C7 -169.20(12) . . . .
C1 C2 C3 C4 55.43(19) . . . .
C2 C3 C4 C5 -53.12(19) . . . .
C3 C4 C5 N1 48.55(18) . . . .
C3 C4 C5 C6 170.86(13) . . . .
C4 C5 C6 N2 -170.29(11) . . . .
C5 N1 C1 C2 50.93(18) . . . .
C5 N1 C8 N3 155.76(14) . . . .
C5 N1 C8 C7 -26.68(18) . . . .
C6 N2 C7 N4 176.15(12) . . . .
C6 N2 C7 C8 -4.7(2) . . . .
C7 N2 C6 C5 27.6(2) . . . .
C7 N4 C14 C9 0.0(2) . . . .
C7 N4 C14 C13 -179.63(12) . . . .
C8 N1 C1 C2 -166.29(12) . . . .
C8 N1 C5 C4 170.10(12) . . . .
C8 N1 C5 C6 48.30(17) . . . .
C8 N3 C9 C10 -178.71(13) . . . .
C8 N3 C9 C14 1.5(2) . . . .
C9 N3 C8 N1 176.41(11) . . . .
C9 N3 C8 C7 -1.1(2) . . . .
C9 C10 C11 C12 0.9(2) . . . .
C10 C9 C14 N4 179.24(12) . . . .
C10 C9 C14 C13 -1.2(2) . . . .
C10 C11 C12 O1 178.66(12) . . . .
C10 C11 C12 C13 -0.9(2) . . . .
C11 C12 C13 C14 -0.1(2) . . . .
C12 C13 C14 N4 -179.25(13) . . . .
C12 C13 C14 C9 1.2(2) . . . .
C14 N4 C7 N2 179.60(12) . . . .
C14 N4 C7 C8 0.5(2) . . . .
C14 C9 C10 C11 0.1(2) . . . .
C15 O1 C12 C11 -173.91(13) . . . .
C15 O1 C12 C13 5.7(2) . . . .
