#------------------------------------------------------------------------------
#$Date: 2022-06-24 11:35:33 +0300 (Fri, 24 Jun 2022) $
#$Revision: 276241 $
#$URL: file:///home/coder/svn-repositories/cod/cif/8/10/55/8105510.cif $
#------------------------------------------------------------------------------
#
# This file is available in the Crystallography Open Database (COD),
# http://www.crystallography.net/
#
# All data on this site have been placed in the public domain by the
# contributors.
#
data_8105510
loop_
_publ_author_name
'Sirajuddin, Muhammad'
'Hanifa, Bibi'
'Ullah, Sharif'
'Lo, Kong Mun'
'Tiekink, Edward R.T.'
_publ_section_title
;
 Crystal structure of 4-[(3-methoxyphenyl)carbamoyl]butanoic acid,
 C12H15NO4
;
_journal_issue                   6
_journal_name_full
'Zeitschrift f\"ur Kristallographie - New Crystal Structures'
_journal_page_first              1519
_journal_page_last               1521
_journal_paper_doi               10.1515/ncrs-2020-0376
_journal_volume                  235
_journal_year                    2020
_chemical_formula_moiety         'C12 H15 N O4'
_chemical_formula_sum            'C12 H15 N O4'
_chemical_formula_weight         237.25
_space_group_crystal_system      triclinic
_space_group_IT_number           2
_space_group_name_Hall           '-P 1'
_space_group_name_H-M_alt        'P -1'
_atom_sites_solution_hydrogens   mixed
_atom_sites_solution_primary     direct
_atom_sites_solution_secondary   difmap
_audit_creation_method           SHELXL-2018/3
_cell_angle_alpha                98.909(4)
_cell_angle_beta                 92.060(4)
_cell_angle_gamma                101.800(4)
_cell_formula_units_Z            2
_cell_length_a                   5.0167(2)
_cell_length_b                   7.9264(5)
_cell_length_c                   15.2073(7)
_cell_measurement_reflns_used    6031
_cell_measurement_temperature    293(2)
_cell_measurement_theta_max      76.1810
_cell_measurement_theta_min      5.8270
_cell_volume                     583.36(5)
_computing_cell_refinement       'CrysAlisPro [1]'
_computing_data_collection       'CrysAlisPro [1]'
_computing_data_reduction        'CrysAlisPro [1]'
_computing_molecular_graphics    'ORTEP-3 for Windows [4]'
_computing_publication_material  'SHELXL-2018/3 [3]'
_computing_structure_refinement  'SHELXL-2018/3 [3]'
_computing_structure_solution    'SHELXT 2014/5 [2]'
_diffrn_ambient_temperature      293(2)
_diffrn_detector_area_resol_mean 5.2558
_diffrn_measured_fraction_theta_full 0.997
_diffrn_measured_fraction_theta_max 0.997
_diffrn_measurement_device_type  'XtaLAB Synergy, Dualflex, AtlasS2'
_diffrn_measurement_method       '\w scans'
_diffrn_radiation_type           CuK\a
_diffrn_radiation_wavelength     1.54184
_diffrn_reflns_av_R_equivalents  0.0539
_diffrn_reflns_av_unetI/netI     0.0305
_diffrn_reflns_Laue_measured_fraction_full 0.997
_diffrn_reflns_Laue_measured_fraction_max 0.997
_diffrn_reflns_limit_h_max       4
_diffrn_reflns_limit_h_min       -5
_diffrn_reflns_limit_k_max       9
_diffrn_reflns_limit_k_min       -9
_diffrn_reflns_limit_l_max       18
_diffrn_reflns_limit_l_min       -18
_diffrn_reflns_number            11933
_diffrn_reflns_point_group_measured_fraction_full 0.997
_diffrn_reflns_point_group_measured_fraction_max 0.997
_diffrn_reflns_theta_full        67.068
_diffrn_reflns_theta_max         67.068
_diffrn_reflns_theta_min         2.949
_diffrn_source                   'micro-focus sealed X-ray tube'
_exptl_absorpt_coefficient_mu    0.849
_exptl_absorpt_correction_T_max  1.000
_exptl_absorpt_correction_T_min  0.787
_exptl_absorpt_correction_type   gaussian
_exptl_absorpt_process_details   'CrysAlisPro [1]'
_exptl_crystal_colour            yellow
_exptl_crystal_density_diffrn    1.351
_exptl_crystal_description       prism
_exptl_crystal_F_000             252
_exptl_crystal_size_max          0.135
_exptl_crystal_size_mid          0.104
_exptl_crystal_size_min          0.040
_refine_diff_density_max         0.185
_refine_diff_density_min         -0.168
_refine_diff_density_rms         0.044
_refine_ls_extinction_coef       0.0043(11)
_refine_ls_extinction_expression Fc^*^=kFc[1+0.001xFc^2^\l^3^/sin(2\q)]^-1/4^
_refine_ls_extinction_method     'SHELXL-2018/3 (Sheldrick 2018)'
_refine_ls_goodness_of_fit_ref   1.093
_refine_ls_hydrogen_treatment    mixed
_refine_ls_matrix_type           full
_refine_ls_number_parameters     162
_refine_ls_number_reflns         2063
_refine_ls_number_restraints     0
_refine_ls_restrained_S_all      1.093
_refine_ls_R_factor_all          0.0488
_refine_ls_R_factor_gt           0.0403
_refine_ls_shift/su_max          0.000
_refine_ls_shift/su_mean         0.000
_refine_ls_structure_factor_coef Fsqd
_refine_ls_weighting_details
'w=1/[\s^2^(Fo^2^)+(0.0570P)^2^+0.1151P] where P=(Fo^2^+2Fc^2^)/3'
_refine_ls_weighting_scheme      calc
_refine_ls_wR_factor_gt          0.1053
_refine_ls_wR_factor_ref         0.1179
_reflns_Friedel_coverage         0.000
_reflns_Friedel_fraction_full    .
_reflns_Friedel_fraction_max     .
_reflns_number_gt                1759
_reflns_number_total             2063
_reflns_threshold_expression     'I > 2\s(I)'
_cod_data_source_file            suppl_ncrs-2020-0376_suppl.cif
_cod_data_source_block           shelx
_cod_database_code               8105510
_shelx_shelxl_version_number     2018/3
_shelx_space_group_comment
;
The symmetry employed for this shelxl refinement is uniquely defined
by the following loop, which should always be used as a source of
symmetry information in preference to the above space-group names.
They are only intended as comments.
;
_shelx_estimated_absorpt_t_min   0.894
_shelx_estimated_absorpt_t_max   0.967
_shelx_res_file
;
TITL exp_1367
    shelx.res
    created by SHELXL-2018/3 at 08:26:26 on 19-Jul-2020
CELL  1.54184   5.0167   7.9264  15.2073   98.909   92.060  101.800
ZERR        2   0.0002   0.0005   0.0007    0.004    0.004    0.004
LATT   1
SFAC   C    H    N    O
UNIT   24   30   2    8
MERG   2
FMAP   2
PLAN   5
SIZE     0.040   0.104   0.135
ACTA
BOND   $H
CONF
L.S.  18
TEMP  20
OMIT   3  -3  11
OMIT   3  -4  13
OMIT   3  -2  10
OMIT   3  -5  12
OMIT   2  -4  14
WGHT    0.057000    0.115100
EXTI    0.004254
FVAR       7.44089
O1    4    0.675412    0.343535    0.969774    11.00000    0.06145    0.08556 =
         0.03853    0.00744    0.00228   -0.01414
H1O   2    0.790851    0.409527    1.017078    11.00000   -1.50000
O2    4    0.980972    0.485401    0.890725    11.00000    0.05170    0.08178 =
         0.03930    0.00683   -0.00256   -0.01601
O3    4    0.821691    0.251395    0.543622    11.00000    0.02802    0.11630 =
         0.05079    0.01626    0.00606    0.02014
O4    4    0.007330    0.020653    0.200736    11.00000    0.05691    0.07100 =
         0.03532    0.00463   -0.00572   -0.00799
N1    3    0.387563    0.242442    0.494661    11.00000    0.02372    0.06183 =
         0.03685    0.00029    0.00239    0.00723
H1N   2    0.231037    0.233886    0.511401    11.00000   -1.20000
C1    1    0.763779    0.385288    0.893924    11.00000    0.04158    0.05225 =
         0.03852    0.00448    0.00386    0.00711
C2    1    0.574728    0.298596    0.814691    11.00000    0.03715    0.05739 =
         0.04176    0.00454    0.00157    0.00118
AFIX  23
H2A   2    0.409327    0.344013    0.818760    11.00000   -1.20000
H2B   2    0.524707    0.174528    0.816865    11.00000   -1.20000
AFIX   0
C3    1    0.687512    0.321825    0.725365    11.00000    0.02980    0.05271 =
         0.03965    0.00234    0.00005    0.00244
AFIX  23
H3A   2    0.851297    0.274892    0.719826    11.00000   -1.20000
H3B   2    0.736577    0.445392    0.721915    11.00000   -1.20000
AFIX   0
C4    1    0.479292    0.229437    0.649391    11.00000    0.02767    0.05367 =
         0.04089    0.00264    0.00120    0.00431
AFIX  23
H4A   2    0.426713    0.106836    0.654625    11.00000   -1.20000
H4B   2    0.317493    0.278474    0.654972    11.00000   -1.20000
AFIX   0
C5    1    0.581774    0.243774    0.558187    11.00000    0.02564    0.05096 =
         0.04141    0.00064    0.00080    0.00664
C6    1    0.418679    0.237591    0.402374    11.00000    0.02970    0.04381 =
         0.03965    0.00265    0.00386    0.01029
C7    1    0.208719    0.136650    0.343558    11.00000    0.03115    0.05084 =
         0.03893    0.00633    0.00286    0.00252
AFIX  43
H7    2    0.055844    0.073301    0.365534    11.00000   -1.20000
AFIX   0
C8    1    0.223881    0.129011    0.252488    11.00000    0.03970    0.04586 =
         0.03904    0.00401    0.00115    0.00652
C9    1    0.449664    0.222770    0.218774    11.00000    0.04922    0.05601 =
         0.04120    0.01072    0.01090    0.01072
AFIX  43
H9    2    0.460933    0.218750    0.157603    11.00000   -1.20000
AFIX   0
C10   1    0.658619    0.322829    0.278454    11.00000    0.03931    0.05891 =
         0.05802    0.01584    0.01227    0.00100
AFIX  43
H10   2    0.811612    0.385669    0.256300    11.00000   -1.20000
AFIX   0
C11   1    0.647744    0.332483    0.369247    11.00000    0.03264    0.04795 =
         0.05223    0.00474    0.00169    0.00206
AFIX  43
H11   2    0.790496    0.401026    0.407877    11.00000   -1.20000
AFIX   0
C12   1   -0.005253    0.027193    0.108234    11.00000    0.07280    0.08235 =
         0.03650    0.00589   -0.00667    0.00364
AFIX 137
H12A  2   -0.006745    0.144315    0.099372    11.00000   -1.50000
H12B  2   -0.168628   -0.050392    0.079943    11.00000   -1.50000
H12C  2    0.151080   -0.007909    0.082644    11.00000   -1.50000

AFIX   0
HKLF    4




REM  exp_1367
REM wR2 = 0.1179, GooF = S = 1.093, Restrained GooF = 1.093 for all data
REM R1 = 0.0403 for 1759 Fo > 4sig(Fo) and 0.0488 for all 2063 data
REM 162 parameters refined using 0 restraints

END

WGHT      0.0570      0.1153

REM Highest difference peak  0.185,  deepest hole -0.168,  1-sigma level  0.044
Q1    1   0.0464 -0.0120  0.3782  11.00000  0.05    0.18
Q2    1   0.8293  0.4078  0.7042  11.00000  0.05    0.17
Q3    1   0.1401  0.0738  0.0819  11.00000  0.05    0.16
Q4    1   0.7382  0.3380  0.5416  11.00000  0.05    0.16
Q5    1   0.5692  0.2643  0.3832  11.00000  0.05    0.16
;
_shelx_hkl_file
;
   0   0   1 11582.5 240.236   5
   0   0  -1 11418.3 236.651   3
   0   0   2 7579.75 273.343   5
   0   0  -2 8604.53 245.501   2
   0   0   2 8091.18 297.959   4
   0   0  -2 8190.25 284.643   3
   0   0   3 10633.4 423.187   4
   0   0  -3 10492.8 397.903   3
   0   0   3 11218.5 411.168   5
   0   0  -3 9626.55 342.212   2
   0   0  -4 5.56924 9.22927   7
   0   0   4 14.4836 40.1925   4
   0   0   4 51.1337 42.2025   5
   0   0  -4 14.5379 28.9134   3
   0   0  -5 2496.68 260.855   3
   0   0   5 1918.99 242.353   5
   0   0   5 3083.00 379.697  18
   0   0   5 2539.91 275.602   4
   0   0   6 1645.09 363.559  18
   0   0  -6 1886.73 258.127   3
   0   0   6 1784.40 261.403   4
   0   0  -7 11939.9 706.815   3
   0   0  -7 11513.5 507.884  37
   0   0   7 11853.5 740.872   4
   0   0  -8 8252.33 466.405  37
   0   0  -8 8672.37 663.653   3
   0   0   8 8850.01 708.064   4
   0   0  -9 7137.78 457.236  37
   0   0  -9 7690.92 680.136   3
   0   0  -9 6916.59 233.359  16
   0   0   9 7660.27 712.593   4
   0   0  10 3277.38 158.904  26
   0   0 -10 2995.31 164.492  22
   0   0  10 3328.94 513.499   4
   0   0 -10 3048.48 167.277  16
   0   0  11 11595.4 1028.47   4
   0   0  11 11459.4 316.999  26
   0   0 -11 11608.0 348.362  16
   0   0 -11 11704.3 344.649  22
   0   0 -12 2859.72 171.299  19
   0   0  12 2765.78 528.025   4
   0   0 -12 2715.02 179.792  16
   0   0 -13 18644.1 493.266  16
   0   0  13 20088.6 1473.52   4
   0   0 -13 19668.6 463.564  19
   0   0 -13 19279.1 484.028  13
   0   0 -14 1138.00 120.770  13
   0   0 -14 1207.24 130.777  16
   0   0  14 781.110 306.703   4
   0   0 -14 1084.53 110.409  19
   0   0 -15 350.036 70.1140  16
   0   0 -15 420.583 74.2602  13
   0   0 -15 454.858 69.2089  19
   0   0 -16 823.012 83.1632  19
   0   0 -16 908.418 102.905  16
   0   0 -16 801.909 93.5108  13
   0   0 -17 115.933 37.5691  16
   0   0 -17 146.128 37.2224  13
   0  -1  18 944.311 61.2615  27
   0   1 -18 985.448 80.4351  13
   0   1 -18 1030.23 86.4582  16
   0   1 -17 62.2686 33.0889  16
   0   1 -17 40.6988 24.8460  13
   0   1 -16 25.1561 20.3413  19
   0   1 -16 35.3883 33.3674  16
   0   1 -16 19.1392 28.8571  13
   0   1 -15 5482.99 266.697  16
   0   1 -15 5587.12 258.758  13
   0   1 -15 5388.29 227.467  19
   0   1 -14-8.12582 25.8631  16
   0  -1  14 13.9867 19.6609  26
   0  -1  14 110.945 185.702   4
   0   1 -14-18.5664 19.5397  19
   0   1 -13 458.936 78.6849  16
   0  -1  13 463.917 70.4190  26
   0  -1  13 330.821 184.468   4
   0   1 -12 6855.31 279.813  16
   0   1 -12 6896.57 260.462  22
   0  -1  12 6243.56 790.662   4
   0  -1  12 6816.83 256.028  26
   0  -1  11 224.582 142.210   4
   0   1 -11 252.645 52.7443  16
   0  -1  11-46.9617 162.245  18
   0  -1  11 272.734 54.3543  26
   0  -1  11-0.83822 22.2513  12
   0   1 -11 272.066 53.5134  22
   0  -1  10 302.668 49.8853  26
   0  -1  10 315.707 174.092   4
   0   1 -10 279.191 51.0019  16
   0  -1  10 11.7271 23.2787  12
   0   1 -10 298.966 51.7843  22
   0  -1   9-60.6184 101.382  18
   0  -1   9 64.0452 57.0595  12
   0  -1   8 3610.56 242.986  39
   0  -1   8 3256.35 436.136   4
   0  -1   8 3256.48 589.563  18
   0  -1   7 130914. 2485.27   4
   0  -1   7 138823. 1215.45  17
   0  -1   6 27554.1 1034.78   4
   0  -1   6 41743.4 1436.66  18
   0  -1   5 201.504 109.730  18
   0  -1   5 155.685 72.3970   4
   0  -1   4 2441.06 248.608   4
   0  -1   4 1302.86 213.037  18
   0   1  -3 67313.7 968.228  36
   0  -1   3 66841.5 1130.12   4
   0  -1   2 53998.3 866.835   4
   0   1  -2 53595.6 792.516  36
   0  -1   2 52846.1 499.401   2
   0  -1   1 3758.25 159.144   2
   0  -1   1 3551.33 136.894  38
   0   1  -1 3504.19 199.220  36
   0   1   0 4.53401 19.2451   5
   0  -1   0 657.491 80.4829   2
   0  -1  -1 16520.8 468.766   2
   0  -1  -1 17657.9 422.995   3
   0  -1  -1 16979.0 444.331  37
   0   1   1 17357.5 475.611   5
   0  -1  -2 1270.12 135.251   3
   0  -1  -2 1213.15 127.982  37
   0  -1  -2 1284.25 98.0145  17
   0  -1  -2 1292.88 100.938  39
   0   1   2 1159.93 143.592   5
   0   1   2 1298.78 144.607   4
   0  -1  -2 1151.19 140.353   2
   0  -1  -3 8572.99 357.630  37
   0  -1  -3 8721.00 234.044  17
   0   1   3 9129.38 432.799   4
   0  -1  -3 8768.16 236.530  39
   0  -1  -3 8847.29 409.924   3
   0  -1  -3 8265.94 414.006   2
   0   1   3 8429.85 419.838   5
   0   1   4-39.8593 49.7630   4
   0   1   4-10.4466 46.7559   5
   0  -1  -4-34.7535 52.7935   3
   0  -1  -4 11.1143 24.4097  37
   0  -1  -4-10.0735 31.3855   2
   0   1   4-0.30900 76.6447  18
   0  -1  -4 22.5548 10.5941  39
   0   1   5 34498.3 1064.96   5
   0   1   5 33902.9 1062.39   4
   0  -1  -5 35901.7 1051.33   3
   0  -1  -5 33627.8 826.325  37
   0  -1  -6 5904.41 372.619  37
   0  -1  -6 6141.46 447.002   2
   0   1   6 5721.72 479.627   5
   0  -1  -6 5986.43 474.402   3
   0   1   6 5637.27 482.948   4
   0  -1  -7 5668.63 515.108   3
   0   1   7 6087.38 538.976   5
   0   1   7 6067.98 550.472   4
   0  -1  -7 6501.45 416.767  37
   0  -1  -8 4283.91 491.003   3
   0   1   8 3734.45 458.593   5
   0   1   8 4168.82 498.575   4
   0  -1  -8 3935.72 341.252  37
   0  -1  -9 3111.56 452.981   3
   0  -1  -9 2891.98 160.156  16
   0   1   9 2720.97 441.087   4
   0  -1  -9 2919.08 155.594  19
   0   1  10 106.271 98.6893   4
   0  -1 -10 78.1601 28.1863  13
   0  -1 -10 84.4287 30.0590  19
   0  -1 -10 72.3794 32.1814  16
   0  -1 -10 130.557 110.677   3
   0  -1 -11 286.954 56.0729  19
   0  -1 -11 274.958 58.4731  16
   0  -1 -11 249.816 54.5984  13
   0   1  11 332.514 211.099   4
   0  -1 -12 16639.3 432.595  19
   0  -1 -12 16260.8 453.047  16
   0  -1 -12 16145.9 440.252  13
   0   1  12 16110.0 1288.36   4
   0   1  13 15.7222 78.7187   4
   0  -1 -13 48.1690 32.8914  13
   0  -1 -13 30.9171 28.3565  19
   0  -1 -13 26.8851 32.7702  16
   0   1  14 2137.30 489.605   4
   0  -1 -14 2497.36 178.749  13
   0  -1 -14 2415.74 181.481  16
   0  -1 -14 2414.78 166.195  19
   0  -1 -15 53.4449 45.4755  16
   0  -1 -15 43.7146 28.5601  13
   0  -1 -15 18.7158 18.1748  19
   0  -1 -16 226.378 51.5333  13
   0  -1 -16 220.709 55.0871  16
   0  -1 -17 267.466 51.1636  16
   0  -1 -17 235.188 37.2510  15
   0  -1 -17 228.926 43.3416  13
   0   2 -18 126.914 30.4682  13
   0   2 -18 106.447 30.9813  16
   0  -2  17 55.3624 18.1149  33
   0   2 -17 48.3405 28.1620  16
   0   2 -17 45.5398 26.6011  13
   0   2 -16 175.926 45.7739  16
   0  -2  15 124.559 38.2796  26
   0   2 -15 130.401 47.1045  16
   0   2 -15 121.940 35.9855  19
   0  -2  14 4013.60 207.270  26
   0   2 -14 4194.23 230.081  16
   0   2 -13 1566.25 140.374  16
   0  -2  13 1308.86 122.780  26
   0   2 -13 1796.51 131.799  22
   0   2 -12 2204.61 158.738  16
   0  -2  12 2212.28 147.886  26
   0  -2  12 323.808 109.565  12
   0  -2  12 206.835 241.514  18
   0  -2  12 2575.97 518.787   4
   0   2 -12 155.675 49.0647  22
   0   2 -11 607.017 74.0326  22
   0  -2  11 496.091 67.8308  26
   0  -2  11 544.247 242.210   4
   0  -2  11 161.962 92.1428  12
   0  -2  10 28284.8 550.267  12
   0  -2  10 26349.3 458.153  26
   0  -2  10 27263.8 1470.28   4
   0  -2   9 12827.7 938.641   4
   0  -2   9 7428.02 259.056  12
   0  -2   9 13978.0 675.690  39
   0  -2   9 9705.79 931.250  18
   0  -2   8 70.8925 53.9699  17
   0  -2   8 32.8225 75.4369  18
   0  -2   7 44.8947 62.6668   4
   0  -2   7-35.8621 75.0716  18
   0  -2   6 6743.91 589.459  18
   0  -2   6 5474.11 483.709   4
   0  -2   5 103.763 110.252  18
   0   2  -5 286.232 98.7719  36
   0  -2   5 264.813 42.0006   2
   0  -2   5 448.246 135.769   4
   0  -2   4 20173.4 424.951   2
   0   2  -4 22472.2 739.800  36
   0  -2   4 22768.1 991.854  18
   0   2  -3 1423.17 184.438  36
   0  -2   3 1695.29 136.964   2
   0   2  -2 9950.06 485.572  36
   0  -2   2 10968.8 387.154   2
   0  -2   1 355983. 2447.21   2
   0  -2   0 140143. 1432.12   3
   0  -2   0 130218. 1606.96   2
   0  -2  -1 46352.4 890.436   3
   0  -2  -1 45577.3 1037.75  37
   0   2   1 48901.8 1099.45   5
   0  -2  -1 50720.3 1090.14   2
   0   2   2 65168.8 1248.47   4
   0  -2  -2 63119.1 1239.51  37
   0  -2  -2 61986.2 1081.41  39
   0   2   2 66721.3 1354.90   5
   0  -2  -2 68953.4 1359.19   2
   0  -2  -2 64704.3 1157.87   3
   0  -2  -3 1455.59 221.910   2
   0   2   3 1352.01 195.960   4
   0  -2  -3 1321.75 145.906  17
   0   2   3 1146.33 207.465   5
   0  -2  -3 1385.81 156.618  39
   0  -2  -3 1375.39 191.058  37
   0  -2  -3 1359.15 187.808   3
   0  -2  -4 48386.9 1307.27   2
   0  -2  -4 46191.4 830.570  39
   0   2   4 46578.2 1252.33   4
   0  -2  -4 46247.0 1194.49   3
   0  -2  -4 45654.2 801.634  17
   0   2   4 46502.6 1302.80   5
   0  -2  -4 44742.2 1115.20  37
   0  -2  -5 20504.5 897.950   2
   0   2   5 20852.9 938.460   5
   0   2   5 19057.3 876.810   4
   0  -2  -5 19768.0 855.247   3
   0  -2  -5 19533.9 441.566  39
   0  -2  -5 18975.1 751.656  37
   0  -2  -5 19124.6 465.974  17
   0   2   6 7555.38 604.675   4
   0   2   6 6977.92 592.622   5
   0  -2  -6 8323.23 614.235   3
   0  -2  -6 7761.27 501.920  37
   0  -2  -6 8351.17 612.244   2
   0  -2  -7 191.057 122.617   3
   0   2   7 81.1119 93.6050   4
   0  -2  -7 195.445 86.6685  37
   0   2   7 272.959 145.237   5
   0  -2  -7 228.156 105.468   2
   0  -2  -8 388.608 115.499  37
   0  -2  -8 491.675 67.4163  13
   0  -2  -8 505.159 68.3326  16
   0   2   8 407.054 159.756   4
   0  -2  -8 526.108 68.7319  19
   0   2   8 646.614 209.906   5
   0  -2  -8 641.586 207.131   3
   0  -2  -9 3619.34 189.210  13
   0  -2  -9 3401.40 499.253   3
   0  -2  -9 3391.68 181.639  19
   0  -2  -9 3432.28 188.667  16
   0   2   9 3129.94 488.907   4
   0   2   9 3071.27 505.123   5
   0   2  10 1209.60 330.254   4
   0   2  10 1159.09 320.937   5
   0   2  10 952.746 255.192  36
   0  -2 -10 1205.69 114.433  19
   0  -2 -10 1182.10 114.922  13
   0  -2 -10 1335.55 338.108   3
   0  -2 -10 1040.89 109.665  16
   0   2  11 718.559 280.466   4
   0  -2 -11 655.471 92.9074  16
   0  -2 -11 701.428 253.786   3
   0  -2 -11 841.581 100.101  19
   0  -2 -11 709.460 94.9820  13
   0  -2 -12 4657.93 245.539  13
   0  -2 -12 4521.54 248.857  16
   0  -2 -12 4788.46 244.133  19
   0  -2 -12 4962.90 233.802  21
   0   2  12 4620.78 692.044   4
   0  -2 -13 3053.78 200.035  13
   0   2  13 2809.93 547.944   4
   0  -2 -13 2968.76 192.194  19
   0  -2 -13 2983.73 203.497  16
   0  -2 -13 3096.66 180.143  21
   0  -2 -14 237.441 47.9140  21
   0  -2 -14 192.792 51.3588  19
   0  -2 -14 235.822 62.3481  16
   0  -2 -14 177.560 55.0227  13
   0  -2 -15 109.535 31.0348  15
   0  -2 -15 84.7866 37.9227  16
   0  -2 -15 132.076 46.3740  13
   0  -2 -16 180.357 34.7839  15
   0  -2 -16 227.242 48.5572  16
   0  -2 -16 243.216 48.1119  13
   0   3 -17 217.683 45.7187  16
   0  -3  16 224.355 46.7262  26
   0   3 -16 156.995 45.4473  16
   0   3 -15 940.417 106.749  16
   0  -3  15 956.830 99.3318  26
   0  -3  14 1.12475 178.695  18
   0  -3  14-33.1171 25.2125  26
   0   3 -14-11.4960 32.2785  16
   0  -3  13 1133.76 470.211  18
   0  -3  13 346.708 98.9035  12
   0  -3  12-6.63301 26.3250  12
   0  -3  12 6.15156 22.0934  26
   0  -3  12 9.87236 170.392  18
   0   3 -12 49.7738 115.908   6
   0  -3  11 11.1379 17.9464  26
   0  -3  11 95.7565 42.0131  12
   0  -3  10 536.223 166.523  39
   0  -3  10 314.971 74.4914  12
   0  -3   9 1715.36 254.787  17
   0  -3   9 1752.41 130.652  12
   0  -3   9 1545.47 279.114  39
   0  -3   8 11492.1 747.932  39
   0  -3   8 12606.8 323.387  12
   0  -3   8 11623.1 673.848  17
   0   3  -7 17562.4 938.649  36
   0  -3   7 24506.7 1273.01  18
   0  -3   6 239.778 136.504  18
   0   3  -6 336.007 127.473  36
   0   3  -5 8393.11 575.501  36
   0  -3   5 10168.6 327.292   2
   0   3  -4 324.935 122.204  36
   0  -3   4 317.033 71.5689   2
   0  -3   4 525.188 146.411  18
   0   3  -3 481.510 144.214  36
   0  -3   3 437.155 98.0826   2
   0  -3   3 385.816 159.640  18
   0  -3   3 428.078 139.375  37
   0  -3   2 27229.3 798.538   2
   0   3  -2 24335.1 948.874  36
   0  -3   2 24345.1 966.884  37
   0   3  -1 33587.0 1121.96  36
   0  -3   1 36964.1 1001.20   2
   0  -3   1 34111.5 1138.80  37
   0  -3   0 26560.6 773.059   3
   0  -3   0 28409.7 929.529   2
   0   3   0 27393.1 1033.35  36
   0   3   0 26934.3 1007.92   5
   0  -3   0 26487.5 1001.27  37
   0  -3  -1 117.666 74.1796  37
   0   3   1 333.232 130.804  36
   0  -3  -1 134.794 66.1974   3
   0  -3  -1-10.7930 18.3971  41
   0   3   1 182.847 106.975   5
   0  -3  -1 97.5741 69.3527   2
   0  -3  -1 123.674 71.2448  39
   0   3   2 5723.87 487.907   5
   0  -3  -2 4953.77 439.083   2
   0  -3  -2 4941.83 392.874  39
   0  -3  -2 5136.17 385.633   3
   0  -3  -2 4840.45 436.379  37
   0   3   2 4965.46 415.884   4
   0  -3  -2 5062.32 379.244  17
   0   3   2 5312.39 479.419  36
   0  -3  -3 665.721 168.627  37
   0  -3  -3 806.822 163.555   3
   0   3   3 488.468 177.868   5
   0   3   3 824.993 183.705   4
   0   3   3 886.576 205.700  36
   0  -3  -3 795.346 190.951   2
   0  -3  -3 739.570 148.938  39
   0  -3  -3 698.123 137.174  17
   0   3   4 13848.5 772.625   4
   0  -3  -4 13921.8 819.838   2
   0  -3  -4 12686.2 559.313  17
   0   3   4 13354.9 823.514  36
   0   3   4 13830.8 841.167   5
   0  -3  -4 13177.9 597.105  39
   0  -3  -4 13022.9 712.649   3
   0  -3  -4 13064.7 735.834  37
   0   3   5 2115.15 328.729   4
   0   3   5 2111.91 346.591   5
   0  -3  -5 1861.43 291.695   3
   0  -3  -5 2040.45 300.458  37
   0  -3  -5 2196.19 221.205  17
   0  -3  -5 2226.14 222.875  39
   0  -3  -5 2274.26 354.524   2
   0   3   5 2281.72 352.117  36
   0  -3  -6 1746.29 282.602  37
   0  -3  -6 1627.32 119.862  19
   0   3   6 1513.82 320.058  36
   0  -3  -6 1782.31 314.108   3
   0  -3  -6 1676.91 119.746  13
   0   3   6 1804.77 327.252   4
   0   3   6 1789.70 338.702   5
   0  -3  -6 1435.15 112.962  16
   0  -3  -6 1614.90 322.568   2
   0  -3  -7 3939.51 195.243  19
   0  -3  -7 4713.84 538.799   3
   0  -3  -7 3885.15 195.440  16
   0   3   7 3997.89 538.150   5
   0  -3  -7 4786.36 554.955   2
   0  -3  -7 3703.18 187.762  13
   0  -3  -7 4074.15 437.730  37
   0   3   7 3818.72 508.352   4
   0  -3  -7 4197.77 194.577  21
   0   3   7 4485.03 534.868  36
   0  -3  -8 134.477 42.4818  16
   0  -3  -8 132.239 40.1908  19
   0  -3  -8 97.4748 37.0768  13
   0   3   8 176.155 122.070   4
   0  -3  -8 82.1006 31.8025  21
   0   3   8 134.649 95.8931  36
   0   3   8 88.1668 112.395   5
   0  -3  -8 139.849 101.686   3
   0  -3  -9 8277.16 316.112  16
   0  -3  -9 9223.57 856.904   3
   0   3   9 8687.26 857.797   4
   0  -3  -9 8464.22 311.218  13
   0  -3  -9 9062.45 311.253  21
   0   3   9 8075.53 860.412   5
   0   3   9 8394.81 787.819  36
   0  -3  -9 8928.38 322.466  19
   0  -3 -10 4681.78 243.294  13
   0   3  10 4517.35 655.604   5
   0  -3 -10 5098.26 678.265   3
   0  -3 -10 4654.48 229.430  21
   0  -3 -10 4345.55 239.237  16
   0  -3 -10 4449.61 222.592  15
   0   3  10 4529.65 655.193   4
   0   3  10 4659.79 597.650  36
   0  -3 -10 4325.34 233.693  19
   0  -3 -11 11734.9 391.144  13
   0  -3 -11 11887.9 404.282  16
   0  -3 -11 11553.6 387.376  19
   0   3  11 12525.7 1113.32   4
   0  -3 -11 12012.3 371.426  15
   0  -3 -11 12037.3 1073.13   3
   0  -3 -11 12151.8 371.584  21
   0  -3 -12 13691.9 393.854  15
   0  -3 -12 14297.2 393.802  21
   0   3  12 13997.5 1189.82   4
   0  -3 -12 13852.0 438.956  16
   0  -3 -12 13796.3 428.065  13
   0  -3 -13 5.49252 18.6681  15
   0  -3 -13-10.2842 26.3895  16
   0  -3 -13 9.19185 19.0426  21
   0  -3 -13-11.2992 23.2236  13
   0  -3 -14 35.9583 29.2427  16
   0  -3 -14 2.22455 22.9462  15
   0  -3 -14 33.9052 31.0538  13
   0  -3 -15 319.016 57.1998  16
   0  -3 -15 346.587 57.1274  13
   0  -3 -15 323.105 46.7989  15
   0   4 -17-2.89342 15.1985  16
   0   4 -16 51.0507 24.7036  16
   0  -4  16 66.3164 29.2372  26
   0  -4  15 6.70395 21.6809  26
   0   4 -15 5.84375 21.4395  16
   0  -4  14 389.299 65.2130  26
   0   4 -14 453.761 76.4737  16
   0  -4  13 825.684 78.8374  29
   0  -4  13 672.568 87.2961  26
   0  -4  12 184.185 54.2141  12
   0  -4  12 149.164 41.2596  26
   0   4 -11-16.5114 101.593   6
   0  -4  11 58.0938 39.9974  12
   0  -4  10 191.432 178.667  18
   0  -4  10 3108.12 192.301  12
   0   4 -10-67.2773 119.204   6
   0  -4  10 2758.21 426.397  39
   0  -4  10 2798.90 145.205  40
   0  -4   9 2328.91 359.371  17
   0  -4   9-5.90896 21.4168  41
   0  -4   9 2295.79 397.331  39
   0  -4   9 240.159 231.717  18
   0  -4   9 2534.60 159.565  12
   0   4  -8 8991.97 725.651  36
   0  -4   8 10988.1 924.260  18
   0  -4   8 10245.5 816.191  39
   0  -4   8 10827.8 315.657  12
   0  -4   8 10277.8 747.373  17
   0  -4   7 11316.4 312.459  12
   0   4  -7 10125.5 744.638  36
   0  -4   7 9882.04 289.803  25
   0  -4   7 10874.4 831.900  39
   0  -4   6 2091.45 388.765  18
   0  -4   6 1658.48 113.327  15
   0  -4   6 1758.91 118.691  25
   0   4  -6 1953.18 334.880  36
   0   4  -5 1870.88 319.758  36
   0  -4   5 2520.78 379.810  18
   0  -4   4 106.276 58.3497   2
   0   4  -4 105.390 83.5146  36
   0   4  -4 268.867 152.847   6
   0  -4   4 28.8241 85.1886  18
   0  -4   3 24391.6 855.534   2
   0  -4   3 24496.5 1163.65  37
   0   4  -3 23597.2 1106.20  36
   0  -4   2 2817.04 309.506   2
   0  -4   2 2685.71 388.198  37
   0   4  -2 2996.50 404.386  36
   0  -4   1 10213.2 747.240  37
   0  -4   1 9608.45 526.882   3
   0  -4   1 10289.2 733.620  39
   0   4  -1 9232.72 710.865  36
   0   4  -1 9487.12 724.763   5
   0  -4   1 10261.7 627.957   2
   0  -4   0 21986.8 823.464   3
   0  -4   0 22557.7 1052.67  39
   0   4   0 24501.8 1145.38   5
   0  -4   0 21150.7 1070.11  37
   0   4   0 23933.8 1153.09  36
   0  -4   0 23431.1 1003.69   2
   0  -4  -1 11292.7 784.519  37
   0  -4  -1 13452.6 797.135   2
   0  -4  -1 11113.6 610.360   3
   0   4   1 11340.5 814.731  36
   0  -4  -1 11535.4 737.558  39
   0  -4  -1 10749.2 671.817  17
   0   4   1 11925.3 807.351   5
   0   4   2 7490.28 591.753   4
   0  -4  -2 7700.19 646.322   2
   0  -4  -2 6724.61 614.629  37
   0   4   2 7004.38 638.962   5
   0  -4  -2 7186.31 520.303   3
   0   4   2 8383.48 715.690  36
   0  -4  -2 7202.24 575.919  39
   0  -4  -2 6886.10 529.060  17
   0  -4  -2 6999.24 197.061  40
   0  -4  -3 41503.1 465.670  40
   0  -4  -3 45196.6 1609.88   2
   0   4   3 45565.6 1718.06  36
   0   4   3 42700.8 1677.20   5
   0  -4  -3 41041.1 1253.72  17
   0  -4  -3 41065.4 1519.79  37
   0  -4  -3 40325.8 1302.71   3
   0  -4  -3 43752.1 1374.34  39
   0   4   3 43020.3 1464.89   4
   0  -4  -4 917.085 92.6949  13
   0  -4  -4 969.363 92.0862  15
   0  -4  -4 952.942 93.6586  21
   0  -4  -4 860.204 228.715  37
   0  -4  -4 1024.68 96.5760  11
   0  -4  -4 912.484 93.1749  16
   0  -4  -4 929.682 185.136  17
   0   4   4 1200.41 285.821  36
   0  -4  -4 848.268 208.990   3
   0  -4  -4 1086.72 206.101  39
   0   4   4 1110.35 281.744   5
   0  -4  -4 831.721 224.075   2
   0   4   4 965.528 229.400   4
   0  -4  -5 4458.71 571.267   2
   0  -4  -5 4010.26 470.209   3
   0  -4  -5 3934.62 201.682  16
   0  -4  -5 3882.21 476.947  37
   0  -4  -5 4349.76 379.680  17
   0  -4  -5 4115.22 202.726  13
   0   4   5 4212.20 551.736  36
   0  -4  -5 4166.36 195.394  15
   0   4   5 4396.76 514.808   4
   0   4   5 3987.15 537.978   5
   0  -4  -5 5066.40 217.682  11
   0  -4  -5 4195.30 200.940  21
   0  -4  -6 1118.74 108.103  21
   0  -4  -6 1075.31 104.047  15
   0  -4  -6 1210.96 317.711   2
   0   4   6 908.241 276.709  36
   0  -4  -6 1536.77 121.637  11
   0  -4  -6 1000.74 106.683  16
   0  -4  -6 913.806 238.730  37
   0  -4  -6 813.276 221.807   3
   0   4   6 1221.84 293.674   4
   0   4   6 918.627 268.886   5
   0  -4  -6 1051.47 107.250  13
   0   4   7 154.574 132.717  36
   0  -4  -7 74.5399 46.7128  37
   0  -4  -7 155.248 44.6718  11
   0  -4  -7 100.659 106.465   2
   0  -4  -7 185.710 49.8292  16
   0  -4  -7 186.711 126.786   3
   0   4   7 193.382 140.711   5
   0  -4  -7 150.762 48.3567  15
   0  -4  -7 184.709 50.0445  13
   0   4   7 116.334 105.509   4
   0  -4  -7 158.122 46.4785  21
   0  -4  -8 107.349 42.2777  13
   0   4   8-12.5986 57.9676   4
   0  -4  -8 103.062 38.0386  15
   0   4   8-8.63419 109.539   5
   0  -4  -8 74.0393 35.0536  16
   0  -4  -8 72.5143 31.2893  21
   0  -4  -8 66.1451 32.6604  11
   0  -4  -8 56.2773 60.7495   3
   0   4   8 84.4951 74.6149  36
   0  -4  -9 1216.50 134.355  16
   0   4   9 805.797 294.232   5
   0  -4  -9 794.905 106.379  13
   0   4   9 705.006 244.546  36
   0  -4  -9 845.125 101.151  21
   0  -4  -9 882.399 104.095  15
   0  -4  -9 978.729 298.463   3
   0   4   9 633.774 206.380   4
   0  -4 -10 3865.29 591.169   3
   0  -4 -10 3945.74 214.287  15
   0  -4 -10 4289.34 225.189  21
   0  -4 -10 3960.30 231.266  13
   0   4  10 3570.04 614.608   5
   0  -4 -10 4008.70 238.018  16
   0   4  10 3628.42 585.588   4
   0  -4 -11 300.738 65.8975  13
   0  -4 -11 304.991 60.8742  21
   0  -4 -11 282.911 58.9785  15
   0  -4 -11 326.411 71.8381  16
   0  -4 -12 1141.85 106.294  21
   0  -4 -12 963.828 99.8949  15
   0  -4 -12 1055.08 114.795  13
   0  -4 -12 975.252 116.050  16
   0  -4 -13 138.408 44.1513  13
   0  -4 -13 106.475 41.2858  16
   0  -4 -13 60.4258 25.6362  15
   0  -4 -13 52.7357 21.3707  21
   0  -4 -14 107.553 34.7753  16
   0  -4 -14 119.827 36.0895  13
   0  -5  16 130.666 32.5868  26
   0   5 -16 143.533 34.8399  16
   0  -5  15 22.7871 23.1961  26
   0   5 -15 223.360 46.8263  16
   0  -5  14-10.0095 25.1336  26
   0  -5  14-24.5454 31.4835  12
   0  -5  14 7.91478 13.9893  29
   0  -5  13 1936.98 144.546  26
   0  -5  13 597.475 122.106  12
   0  -5  12 1363.63 131.597  12
   0  -5  11 1312.13 126.229  12
   0  -5  11 1098.97 97.0524  40
   0  -5  10 4806.33 209.464  40
   0  -5  10 4282.00 526.429  17
   0  -5  10 5405.73 253.773  12
   0   5 -10 4806.21 193.881  42
   0  -5  10 4689.59 618.695  39
   0  -5  10 4820.01 190.904   9
   0  -5   9 13.1115 70.3316  39
   0  -5   9 9.77087 23.9152  12
   0  -5   9-12.0305 16.8146  40
   0  -5   9 2.09772 99.4249  17
   0  -5   8 1215.75 115.936  25
   0  -5   8 1244.62 321.749  39
   0   5  -8 1264.03 312.063  36
   0  -5   8 1428.79 122.392  12
   0  -5   8 1352.12 310.882  17
   0  -5   7 2574.63 421.783  17
   0  -5   7 3162.12 173.549  12
   0   5  -7 2372.01 432.866  36
   0  -5   7 2700.14 168.174  25
   0  -5   7 2984.04 494.993  39
   0  -5   6 3494.11 185.853  25
   0  -5   6 3463.39 483.957  17
   0  -5   6 3635.10 185.449  15
   0  -5   6 3742.64 550.492  39
   0   5  -6 3465.68 498.740  36
   0  -5   6 3965.71 191.558  12
   0  -5   5 3219.10 172.682  15
   0  -5   5 651.277 114.576  11
   0  -5   5 3020.07 454.891  17
   0   5  -5-14.9163 67.0346   5
   0  -5   5 3159.83 174.368  25
   0  -5   5 3069.21 490.752  39
   0   5  -5 2939.16 462.071  36
   0  -5   5 3512.50 176.616  12
   0  -5   4 1453.21 117.903  25
   0  -5   4 886.654 104.085  11
   0  -5   4 1511.53 116.258  12
   0   5  -4 1048.76 274.723  36
   0  -5   4 1344.51 110.374  15
   0  -5   4 1268.47 287.901  17
   0  -5   4 1743.55 368.530  39
   0  -5   3 4184.07 518.807  17
   0  -5   3 4174.27 558.614  39
   0  -5   3 4218.86 198.640  10
   0  -5   3 4229.95 213.252  11
   0  -5   3 3908.24 397.931   2
   0   5  -3 3908.40 533.766  36
   0  -5   3 4396.70 202.281  12
   0  -5   3 4473.60 199.615  15
   0  -5   2 19872.7 418.823  15
   0  -5   2 20567.2 1130.71  17
   0  -5   2 19210.3 933.679   2
   0  -5   2 21920.9 868.520   3
   0   5  -2 20751.4 1196.27   5
   0  -5   2 19608.6 1187.96  39
   0  -5   2 19679.8 428.982  10
   0  -5   2 21392.4 1246.67  37
   0  -5   2 19410.7 449.843  11
   0   5  -2 19657.0 1198.04  36
   0  -5   2 19986.7 427.942  13
   0  -5   1 685.963 79.3797  15
   0  -5   1 703.369 82.7361  11
   0  -5   1-5.76776 29.4349  41
   0  -5   1 746.316 227.855  39
   0  -5   1 856.574 239.478  17
   0   5  -1 752.713 240.891   5
   0   5  -1 462.010 187.184  36
   0  -5   1 797.490 173.013   3
   0  -5   1 607.029 210.568  37
   0  -5   1 670.543 79.5389  13
   0  -5   1 628.858 79.1447  10
   0  -5   1 552.466 176.084   2
   0  -5   0 318.716 154.637   2
   0  -5   0 18.3854 28.5546  41
   0  -5   0 206.156 137.138  39
   0  -5   0 215.074 46.9031  13
   0  -5   0 215.101 47.9223  10
   0  -5   0 300.647 151.076  17
   0  -5   0 204.328 43.3325  40
   0   5   0 169.163 103.252  36
   0   5   0 263.514 153.586   5
   0  -5   0 199.974 43.7530  11
   0  -5   0 194.837 45.0981  15
   0  -5   0 197.929 93.0065   3
   0  -5   0 203.370 119.860  37
   0  -5  -1 589.298 76.0949  15
   0  -5  -1 598.976 68.5277  40
   0   5   1 651.821 225.866  36
   0  -5  -1 618.064 79.4020  11
   0  -5  -1 562.988 77.8422  10
   0  -5  -1 714.732 201.111  17
   0   5   1 444.957 169.522   5
   0  -5  -1 560.245 76.5586  13
   0   5   1 739.308 210.832   4
   0  -5  -1 618.625 203.874   2
   0  -5  -1 602.578 161.622   3
   0  -5  -1 474.486 184.192  39
   0  -5  -1 575.388 210.361  37
   0  -5  -2 3370.80 482.716   2
   0  -5  -2 2956.04 176.999  16
   0  -5  -2 3249.23 388.087   3
   0  -5  -2 2832.69 417.321  39
   0  -5  -2 3006.45 176.720  21
   0  -5  -2 3002.35 470.387  37
   0  -5  -2 3098.52 174.076  15
   0   5   2 2916.52 409.456   4
   0  -5  -2 3050.08 180.561  10
   0  -5  -2 3132.47 143.051   9
   0  -5  -2 2794.73 388.049  17
   0   5   2 2991.60 497.735  36
   0   5   2 3490.61 550.784   5
   0  -5  -2 3030.21 177.896  13
   0  -5  -2 3069.27 150.562  40
   0  -5  -2 3177.12 180.758  11
   0  -5  -3 1190.66 263.393  39
   0   5   3 1308.52 341.149   5
   0  -5  -3 1203.97 91.1589  40
   0  -5  -3 1081.39 234.520  17
   0  -5  -3 1179.59 112.418  11
   0  -5  -3 1.26372 22.2150  41
   0  -5  -3 1194.25 114.511  21
   0  -5  -3 1128.10 309.034   2
   0  -5  -3 1167.95 304.340  37
   0   5   3 1056.93 253.617   4
   0  -5  -3 1194.52 114.400  13
   0   5   3 1256.38 327.101  36
   0  -5  -3 1232.47 111.333  15
   0  -5  -3 1192.94 85.0525   9
   0  -5  -3 1088.74 110.643  16
   0  -5  -3 1091.21 238.784   3
   0  -5  -4 1.38832 22.4845  13
   0  -5  -4 143.338 129.114   2
   0   5   4 68.7917 61.0302   4
   0   5   4-76.3322 115.800   5
   0  -5  -4 29.7362 24.8518  21
   0  -5  -4 2.99809 19.5431  41
   0  -5  -4 10.8117 19.1128  15
   0  -5  -4-28.0746 39.5264  17
   0  -5  -4-7.13356 18.5164  11
   0  -5  -4 99.1405 83.5126   3
   0   5   4-5.29608 91.7426  36
   0  -5  -4-5.81038 24.7262  16
   0  -5  -4-0.55717 57.2965  37
   0  -5  -5 70.8407 99.7592  37
   0  -5  -5 81.0611 33.4834  15
   0   5   5 199.365 140.057   4
   0  -5  -5 76.3062 123.802   2
   0  -5  -5 33.0036 25.7140  21
   0  -5  -5 1.93256 47.8129   3
   0  -5  -5 70.6642 36.7658  11
   0   5   5 129.970 123.132   5
   0  -5  -5 30.4459 30.4886  16
   0   5   5 50.1225 50.5552  36
   0  -5  -5 51.7454 32.1577  13
   0  -5  -6 1279.09 130.700  16
   0   5   6 1328.87 358.032  36
   0  -5  -6 1177.26 294.542  37
   0  -5  -6 1339.57 123.982  15
   0  -5  -6 1408.92 132.874  21
   0  -5  -6 1268.40 298.757   3
   0  -5  -6 1364.17 127.945  11
   0  -5  -6 1455.51 137.722  13
   0   5   6 1465.36 340.908   4
   0   5   6 1287.16 349.572   5
   0  -5  -7 654.253 93.1739  21
   0   5   7 991.633 318.153  36
   0   5   7 423.722 216.665   5
   0  -5  -7 619.582 220.298   3
   0  -5  -7 253.269 71.2816  16
   0  -5  -7 490.083 78.0154  15
   0   5   7 643.936 230.078   4
   0  -5  -7 518.533 79.9216  11
   0  -5  -7 646.849 95.5452  13
   0  -5  -8 2401.74 167.709  15
   0  -5  -8 2417.39 181.774  13
   0  -5  -8 2447.99 437.843   3
   0  -5  -8 2599.82 177.992  21
   0   5   8 2929.45 510.991   4
   0  -5  -8 2315.95 181.099  16
   0   5   8 2636.45 491.665  36
   0   5   8 2545.07 518.827   5
   0  -5  -8 2395.20 167.454  11
   0  -5  -9 5416.99 252.345  21
   0   5   9 5666.35 769.381   5
   0  -5  -9 5301.33 272.791  16
   0  -5  -9 5160.34 648.322   3
   0  -5  -9 5472.55 270.096  13
   0  -5  -9 5345.31 245.799  15
   0  -5 -10 92.6604 36.2038  13
   0  -5 -10 79.1966 34.5382  21
   0  -5 -10 63.0801 38.9271  16
   0  -5 -10 62.4223 32.8935  15
   0  -5 -11 7351.50 285.964  13
   0  -5 -11 7037.93 291.742  16
   0  -5 -11 7502.03 259.401  21
   0  -5 -11 7184.12 252.974  15
   0  -5 -12 377.793 65.7040  16
   0  -5 -12 328.120 48.8177  15
   0  -5 -12 365.819 59.5581  13
   0  -5 -13 179.727 41.1014  16
   0  -5 -13 213.976 41.7576  13
   0  -6  15 7.93265 16.5708  26
   0   6 -15 4.62745 13.5402  16
   0  -6  15 23.2249 13.9260  29
   0  -6  14 168.279 40.4230  26
   0  -6  14 183.480 33.7350  29
   0  -6  13 1699.14 126.189  26
   0  -6  13 1848.14 114.663  29
   0  -6  12 685.237 88.6613  12
   0   6 -11 5926.75 208.308  42
   0  -6  11 6028.28 232.096  40
   0  -6  11 6534.90 210.500   9
   0  -6  10 52.7878 36.1602  12
   0  -6  10 98.0835 34.4238  40
   0   6 -10 168.308 165.755   5
   0  -6  10 46.0169 144.647  39
   0   6 -10 83.9053 33.4496  42
   0  -6  10 7.31196 22.1354  41
   0  -6  10 60.4808 26.5745   9
   0  -6  10-33.1330 94.8565  17
   0  -6   9 4585.86 198.692   9
   0  -6   9 4930.21 627.314  17
   0  -6   9 5001.98 238.233  12
   0  -6   9-9.22456 26.1704  41
   0   6  -9 107.763 119.247   5
   0  -6   9 4182.66 626.222  39
   0  -6   9 4595.13 219.976  40
   0   6  -8 325.504 174.601  36
   0  -6   8 390.725 67.4935  40
   0  -6   8 361.880 70.1742  25
   0   6  -8 100.688 123.619   5
   0  -6   8 485.686 218.281  39
   0  -6   8 381.336 184.671  17
   0  -6   8 385.315 69.9204  12
   0  -6   8 506.105 70.8163   9
   0  -6   7 227.637 56.6254  40
   0   6  -7 111.165 94.1877  36
   0  -6   7 228.254 162.116  17
   0  -6   7 257.865 59.0871  25
   0  -6   7 275.809 57.3340  12
   0  -6   7 242.311 189.544  39
   0   6  -7-61.3604 105.422   5
   0  -6   6 325.407 200.909  39
   0   6  -6-55.3859 102.226   5
   0  -6   6 373.082 181.818  17
   0  -6   6 305.737 62.0779  25
   0  -6   6 324.764 62.1732  40
   0  -6   6 333.085 62.3838  12
   0   6  -6 222.498 116.435  36
   0  -6   6 280.758 56.7978  15
   0  -6   5 119.128 127.359  17
   0  -6   5 28.0559 27.8953  12
   0  -6   5 66.2868 37.8096  40
   0   6  -5 34.1988 68.2836   5
   0  -6   5 13.2299 28.2376  11
   0   6  -5-56.3457 106.896  36
   0  -6   5 31.9198 29.3145  25
   0  -6   5 32.1459 23.9906  15
   0  -6   5-20.0918 80.5293  39
   0  -6   4 3914.44 205.062  15
   0  -6   4 3740.70 203.994  40
   0  -6   4 3561.19 577.922  39
   0   6  -4 2978.83 504.941   5
   0  -6   4 3675.28 207.291  25
   0   6  -4 3595.62 567.165  36
   0  -6   4 3735.00 553.390  17
   0  -6   4 3949.95 200.139  12
   0  -6   3 778.713 276.483  39
   0  -6   3 563.584 91.6304  11
   0  -6   3 770.040 93.0413  40
   0  -6   3 732.139 88.8412  12
   0   6  -3 748.234 287.488   5
   0  -6   3 784.663 93.1753  15
   0  -6   3 862.107 265.395  17
   0  -6   3 712.811 92.9705  25
   0  -6   3 746.548 94.8638  10
   0   6  -3 777.799 264.520  36
   0  -6   2 368.428 144.465   2
   0  -6   2 460.850 75.6863  10
   0  -6   2 504.945 202.074  17
   0   6  -2 478.122 187.898   5
   0  -6   2 597.067 81.7524  40
   0   6  -2 574.389 235.138  36
   0  -6   2 451.737 84.7200  11
   0  -6   2 588.751 82.1981  15
   0  -6   2 371.380 211.850  39
   0  -6   1 8592.09 329.541  11
   0  -6   1 8116.22 837.228  39
   0  -6   1 8165.20 715.205   2
   0  -6   1 8103.46 309.029  10
   0   6  -1 9221.18 902.616   5
   0   6  -1 7698.51 847.674  36
   0  -6   1 8294.12 306.762  13
   0  -6   1 8752.47 812.719  17
   0  -6   1 8340.44 287.969  40
   0  -6   1 8120.35 295.560  15
   0   6  -1 8913.38 766.862   4
   0   6   0 315.698 166.405  36
   0  -6   0 350.924 161.672   2
   0  -6   0 361.128 66.8125  13
   0  -6   0 498.100 197.022  17
   0  -6   0 249.680 148.151  39
   0  -6   0 398.595 66.7710  15
   0   6   0 442.359 202.515   5
   0  -6   0 354.458 70.7903  11
   0  -6   0 465.005 63.1315   9
   0  -6   0 357.699 60.5760  40
   0   6   0 554.664 202.639   4
   0  -6   0 401.402 72.4693  10
   0  -6  -1 4409.66 200.802  40
   0  -6  -1 4047.52 219.278  13
   0   6   1 4016.51 518.561   4
   0  -6  -1 4298.14 183.871   9
   0  -6  -1 4250.69 539.656  17
   0   6   1 4376.39 648.545   5
   0  -6  -1 4646.31 240.156  11
   0   6   1 4004.42 614.245  36
   0  -6  -1 3869.21 559.692  39
   0  -6  -1 3873.19 587.124  37
   0  -6  -1 4334.81 219.918  15
   0  -6  -1 4034.85 224.191  10
   0  -6  -1 4191.72 560.013   2
   0  -6  -2 8541.42 310.889  15
   0  -6  -2 9104.57 281.026  40
   0   6   2 8939.68 936.077  36
   0  -6  -2 8233.35 848.570  37
   0  -6  -2 9559.18 344.961  11
   0   6   2 9002.35 779.889   4
   0   6   2 9774.92 953.907   5
   0  -6  -2 8805.49 257.369   9
   0  -6  -2 8496.70 845.301   2
   0  -6  -2 8815.48 818.334  39
   0  -6  -2 9027.36 297.501  28
   0  -6  -2 8827.14 332.061  13
   0  -6  -2 8199.74 735.545  17
   0  -6  -2 8407.65 329.465  10
   0  -6  -3 1985.43 171.532  11
   0   6   3 2008.68 439.117   5
   0  -6  -3 2238.86 125.557   9
   0  -6  -3 2239.08 132.772  40
   0  -6  -3 2122.27 157.937  15
   0  -6  -3 2191.08 152.261  28
   0  -6  -3 2436.60 389.324  17
   0  -6  -3 1771.76 400.076   2
   0  -6  -3 2011.16 414.241  37
   0   6   3 1831.22 442.721  36
   0  -6  -3 2157.20 170.390  10
   0  -6  -3 2108.09 166.176  13
   0   6   4 2564.35 504.949   5
   0  -6  -4 2232.32 429.473  37
   0   6   4 2025.52 467.626  36
   0  -6  -4 2375.46 184.580  10
   0  -6  -4 2238.40 173.405  13
   0  -6  -4 2188.55 160.999  15
   0  -6  -4 1126.32 131.756  11
   0  -6  -5 57.4951 41.2105  13
   0  -6  -5 35.3323 26.5925  15
   0   6   5 186.490 167.926   5
   0  -6  -5 79.0056 40.1009  10
   0  -6  -5 29.8603 33.1615  11
   0   6   6 76.9343 86.3315  36
   0  -6  -6 139.304 47.9764  11
   0  -6  -6 189.699 53.1746  13
   0  -6  -6 169.230 54.6500  10
   0  -6  -6 130.245 49.5286  16
   0  -6  -6 192.612 49.1447  15
   0  -6  -7 15.1990 27.7301  10
   0   6   7-60.2294 123.806   5
   0  -6  -7 20.5414 26.3251  13
   0   6   7-135.885 133.765  36
   0  -6  -7 4.41910 32.1180  16
   0  -6  -7 2.20739 20.0505  11
   0  -6  -7-11.3071 24.4700  15
   0  -6  -8 14.4875 25.0681  13
   0  -6  -8-13.5576 26.1239  15
   0  -6  -8 4.96673 27.4977  16
   0  -6  -8 30.7597 32.3435  10
   0  -6  -9 670.711 90.6235  10
   0  -6  -9 719.895 91.3076  13
   0  -6  -9 629.373 86.0150  16
   0  -6  -9 669.131 77.1418  15
   0  -6 -10 72.4197 25.4090  15
   0  -6 -10 76.4342 33.6029  13
   0  -6 -10 58.9829 21.2851  35
   0  -6 -10 18.8801 23.0024  10
   0  -6 -11 69.6571 26.6764  28
   0  -6 -11 64.1776 27.1893  13
   0  -6 -11 50.9913 22.7609  10
   0   7 -14 51.1569 20.2188  16
   0  -7  14 52.5789 20.5829  26
   0  -7  14 45.6512 15.9007  29
   0  -7  13 1165.83 88.5679  26
   0  -7  13 1207.37 81.6262  29
   0  -7  11 350.169 46.0921   9
   0   7 -11 303.772 45.5452  42
   0  -7  11 379.898 55.4917  40
   0   7 -10 334.577 54.6728  42
   0  -7  10 228.466 48.4472  12
   0  -7  10 296.658 56.4411  40
   0  -7  10 284.590 47.3934   9
   0  -7   9 65.5863 28.1621  12
   0  -7   9 73.2531 36.0633  40
   0  -7   9 107.385 35.6588   9
   0   7  -9 72.2446 33.0427  42
   0  -7   9-10.5551 26.1345  41
   0  -7   8 2579.38 502.659  39
   0  -7   8 3013.33 165.889   9
   0  -7   8 2729.72 480.628  17
   0  -7   8 2950.47 182.077  40
   0  -7   8 2990.54 172.621  12
   0  -7   7 27.5876 30.8241  25
   0  -7   7-7.49663 15.9528  12
   0  -7   7 150.175 154.345  39
   0   7  -7 140.539 154.820  36
   0  -7   7 99.6512 38.3365  40
   0  -7   7 5.11858 31.2139  41
   0  -7   7 44.3959 24.9548   9
   0  -7   7 111.549 151.244  17
   0   7  -7 154.027 118.852   5
   0   7  -6-216.436 155.100  36
   0  -7   6-10.8521 73.5669  17
   0   7  -6 123.406 132.013   5
   0  -7   6 19.7626 178.175  39
   0  -7   6 62.6075 33.3775  25
   0  -7   6-0.21775 28.7746  41
   0  -7   6 78.5666 35.5805   9
   0  -7   6 52.4478 34.2684  12
   0  -7   6 79.0273 31.9657  40
   0  -7   5 181.073 156.058  17
   0  -7   5 165.022 52.1894  25
   0  -7   5 49.0087 127.324  39
   0   7  -5 98.6660 147.246  36
   0  -7   5-6.35606 33.2382  41
   0   7  -5 77.7840 162.549   5
   0  -7   5 171.504 52.4924  12
   0  -7   5 202.872 51.4662  15
   0  -7   5 245.865 60.4623  40
   0  -7   5 235.285 53.2058   9
   0  -7   4 156.142 138.384  17
   0  -7   4 131.322 42.6262  25
   0  -7   4 184.556 42.1379  35
   0  -7   4 47.2201 37.0186  12
   0  -7   4 152.174 46.0298   9
   0  -7   4 112.505 140.168  39
   0  -7   4 13.4958 43.9787  41
   0   7  -4 127.847 132.908   5
   0  -7   4 130.527 45.9048  40
   0  -7   4 171.320 51.5832  15
   0   7  -4 196.122 159.795  36
   0  -7   3 358.264 196.475  17
   0  -7   3 260.075 148.128  39
   0  -7   3 306.533 56.8297  35
   0  -7   3 207.138 59.8244  12
   0   7  -3 206.597 161.426   5
   0  -7   3 377.012 73.4886  25
   0  -7   3 110.713 62.9317  11
   0   7  -3 339.523 194.743  36
   0  -7   3-19.8616 30.0860  41
   0  -7   3 430.820 68.5338   9
   0  -7   3 401.501 73.8545  40
   0  -7   3 356.580 68.0710  15
   0  -7   2 1520.72 132.243  40
   0  -7   2 882.165 107.916  12
   0   7  -2 1460.46 383.224   5
   0  -7   2 959.014 142.100  11
   0  -7   2 1488.28 120.972   9
   0  -7   2 1899.40 405.655  17
   0  -7   2 1476.97 143.654  10
   0  -7   2 1554.59 142.966  25
   0  -7   2 1381.55 373.735  39
   0  -7   2 1419.01 130.555  15
   0   7  -2 1454.51 388.577  36
   0  -7   1 104.140 35.6256   9
   0   7  -1 232.267 173.352   5
   0  -7   1 72.4852 30.7090  15
   0  -7   1 115.791 46.5428  10
   0  -7   1 54.4976 61.2252  39
   0  -7   1 95.7489 47.4678  41
   0  -7   1 105.083 46.4472  25
   0  -7   1 26.0824 27.4996  12
   0  -7   1 109.982 37.3929  40
   0  -7   1 206.943 143.082  17
   0   7  -1 218.479 175.349  36
   0  -7   1 71.9940 41.3348  11
   0   7   0 438.321 245.293  36
   0  -7   0 265.116 179.524  39
   0  -7   0 270.985 59.6185  15
   0  -7   0 287.027 51.8041   9
   0   7   0 238.294 169.155   5
   0  -7   0 306.272 66.1391  10
   0  -7   0-31.7152 31.9303  41
   0  -7   0 150.234 133.016  17
   0  -7   0 262.857 68.4860  11
   0  -7   0 307.524 57.9597  40
   0   7   1 79.0025 108.363  36
   0  -7  -1-58.4718 59.2595  17
   0  -7  -1 20.1260 23.6368  13
   0  -7  -1 17.1086 25.0168  15
   0  -7  -1-3.78538 17.8576  40
   0  -7  -1 7.28590 15.2712   9
   0   7   1-13.1215 100.106   5
   0  -7  -1-6.53456 27.6611  10
   0  -7  -1 4.11527 24.4712  11
   0  -7  -1 17.7378 28.5935  41
   0  -7  -2 614.678 92.4002  13
   0  -7  -2 650.868 89.0756  15
   0  -7  -2 658.819 75.4745  40
   0  -7  -2 721.467 99.1847  11
   0  -7  -2 734.079 75.4150   9
   0   7   2 658.837 256.056  36
   0   7   2 694.339 268.582   5
   0  -7  -2 570.659 205.729  17
   0  -7  -2 663.077 96.1955  10
   0   7   3 782.370 80.6411  42
   0   7   3 538.522 248.650   5
   0  -7  -3 883.244 75.1053   9
   0  -7  -3 905.855 113.861  11
   0  -7  -3 1000.55 118.738  10
   0   7   3 1077.10 325.119  36
   0  -7  -3 859.702 100.546  15
   0  -7  -3 1034.58 117.471  13
   0  -7  -4 192.210 40.9324  28
   0  -7  -4 230.795 62.1879  10
   0  -7  -4 205.466 55.9471  13
   0  -7  -4 204.666 54.3414  15
   0  -7  -4 197.825 52.3129  11
   0  -7  -5 268.586 58.4551  11
   0  -7  -5 274.862 50.0886  28
   0  -7  -5 238.107 59.5044  10
   0  -7  -5 198.052 49.1921  15
   0  -7  -5 206.919 55.2081  13
   0  -7  -6 283.055 50.3817  28
   0  -7  -6 346.174 67.3135  10
   0  -7  -6 313.145 52.3072  11
   0  -7  -6 316.834 56.8116  15
   0  -7  -6 289.042 61.2177  13
   0  -7  -7 22.4211 18.3264  15
   0  -7  -7 14.7915 20.9308  13
   0  -7  -7 30.4117 18.2947  28
   0  -7  -7-7.27544 27.4360  10
   0  -7  -8 248.037 41.4151  15
   0  -7  -8 239.048 42.9738  35
   0  -7  -8 205.222 37.6051  28
   0  -7  -8 208.091 44.5768  13
   0  -7  -8 221.312 46.0368  10
   0  -7  -9-2.30117 12.4431  28
   0  -7  -9 0.64496 11.5941  35
   0  -7  -9 7.08457 16.6247  10
   0  -7  -9 2.45075 17.7018  13
   0  -8  11 376.660 46.0158  29
   0  -8  11 359.928 36.4316   9
   0  -8  10 153.201 34.3585  40
   0   8 -10 131.138 31.1535  42
   0  -8  10 110.403 25.9919   9
   0   8  -9 1904.92 115.153  42
   0  -8   9 1938.10 110.421   9
   0  -8   9 2023.27 126.877  40
   0  -8   8 24.3881 21.4870  40
   0   8  -8 22.7511 22.6588  42
   0  -8   8 28.6355 16.7622   9
   0  -8   7 21.0008 21.3895  40
   0  -8   7 1.45610 17.4088   9
   0  -8   7 16.0126 25.0991  41
   0   8  -7-13.8861 22.2852  42
   0  -8   6 260.250 54.8290  25
   0   8  -6 230.719 51.2324  42
   0  -8   6 283.756 53.8561   9
   0  -8   6 234.134 51.8256  40
   0  -8   5 16.7223 28.3589   9
   0  -8   5 58.8812 29.4411  25
   0  -8   5 15.4619 25.2462  41
   0  -8   5 35.8368 27.2994  40
   0  -8   4-8.47591 23.7963  25
   0  -8   4 20.0789 23.0683  40
   0  -8   4 6.06467 12.8234  35
   0  -8   4-12.4086 28.2781  15
   0  -8   4-2.54038 24.6024  41
   0  -8   4 6.24702 22.5878   9
   0  -8   3 114.344 36.1622  40
   0  -8   3 21.5956 25.1914  41
   0  -8   3 107.952 31.0674  35
   0  -8   3 120.944 45.1543  25
   0  -8   3 129.669 43.1020  15
   0  -8   3 117.097 37.7524   9
   0  -8   2 579.197 84.0787  25
   0  -8   2 636.950 79.7841  40
   0  -8   2 532.004 67.9533   9
   0  -8   2 463.781 63.8597  35
   0  -8   2 581.557 77.4346  15
   0  -8   1 198.459 40.1167   9
   0  -8   1 247.475 50.2839  35
   0  -8   1 234.403 47.5744  40
   0  -8   1 238.459 51.5338  15
   0  -8   1 241.820 56.8974  25
   0  -8   0 1565.86 118.884  35
   0  -8   0 1602.90 139.338  25
   0  -8   0 1616.59 115.406  40
   0  -8   0 1715.83 109.927   9
   0  -8   0 1580.44 124.684  15
   0   8   0 1562.80 116.085  42
   0  -8  -1 252.374 49.6534  35
   0  -8  -1 272.121 51.8949  15
   0  -8  -1 100.936 43.6145  11
   0  -8  -1 252.557 40.9639   9
   0  -8  -1 265.153 58.5817  25
   0   8   1 240.907 45.3971  42
   0  -8  -1 255.930 59.7273  10
   0  -8  -2 186.314 48.9351  25
   0  -8  -2 171.198 48.6513  10
   0  -8  -2 216.293 34.3523   9
   0  -8  -2 89.7064 40.8431  11
   0  -8  -2 197.097 44.3613  35
   0  -8  -2 185.703 46.8023  41
   0  -8  -2 172.089 41.4429  15
   0  -8  -3 167.853 44.4832  10
   0  -8  -3 138.920 40.7593  11
   0  -8  -3 175.314 39.2779  15
   0  -8  -3 200.211 45.4196  35
   0  -8  -4 567.954 63.3772  15
   0  -8  -4 653.922 79.3862  10
   0  -8  -4 526.929 65.3628  35
   0  -8  -5 10.2074 18.0236  35
   0  -8  -5 23.8991 16.4181  15
   0  -8  -5 46.8391 26.7262  10
   0  -8  -6-5.60307 12.9567  35
   0  -8  -6-2.85794 15.0262  10
   0  -9   7 115.919 25.2183   9
   0  -9   7 97.0281 20.3976  29
   0  -9   6 102.751 27.2691  40
   0   9  -6 115.675 28.5744  42
   0  -9   6 122.602 26.8250   9
   0  -9   6 110.727 21.9981  29
   0  -9   5 67.7076 23.7330  40
   0   9  -5 99.1236 27.0118  42
   0  -9   5 89.0316 26.4039  25
   0  -9   5 102.859 27.9871   9
   0  -9   4 66.8667 23.7478  40
   0  -9   4 51.4398 22.2094  25
   0   9  -4 83.3269 26.2836  42
   0  -9   4 93.0828 25.8933   9
   0  -9   3 21.0842 20.9195  25
   0  -9   3 44.8444 19.8491   9
   0   9  -3 40.9872 18.7907  42
   0  -9   3 21.2061 17.6363  40
   0   9  -2 206.962 38.1524  42
   0  -9   2 205.040 33.2690   9
   0  -9   2 152.973 36.7783  25
   0  -9   2 183.142 29.2882  35
   0  -9   1 11.9649 12.5714   9
   0  -9   1 0.79084 10.4830  35
   0  -9   1 1.45691 15.0221  25
   0  -9   0 1020.89 71.6502  35
   0  -9   0 1017.81 84.1053  25
   0  -9  -1 1238.35 74.8021  15
   0  -9  -1 1368.05 93.1098  25
   0  -9  -1 1233.13 78.2957  35
   1  -9  -2 182.555 34.6481  25
   1  -9  -2 174.959 32.9949  35
   1  -9  -2 218.553 38.5165  15
   1  -9  -1-6.42405 16.1766  15
   1  -9  -1-12.6903 14.8277  25
   1  -9  -1-4.38560 12.6530  35
   1  -9   0 44.2732 18.7185  35
   1  -9   0 30.5345 20.0785  15
   1  -9   0 38.6754 14.4307   9
   1  -9   0 22.9016 15.4677  25
  -1   9  -1 1.32442 11.5629  14
  -1   9  -1 22.5983 18.3419  42
   1  -9   1 25.7880 19.4836  25
   1  -9   1-2.78335 20.0301  15
   1  -9   1 15.4427 13.8204  35
   1  -9   1 4.19884 12.6647   9
   1  -9   2 125.211 29.2931   9
   1  -9   2 132.911 35.5774  15
   1  -9   2 114.897 32.9056  25
  -1   9  -2 135.606 32.7153  42
   1  -9   2 160.696 35.6138  40
   1  -9   2 101.373 32.2849  41
   1  -9   3 41.4168 25.7537  15
   1  -9   3 32.3458 16.9052   9
   1  -9   3 31.5781 20.4525  40
  -1   9  -3 45.9165 22.6199  42
   1  -9   3 42.7798 23.5369  25
   1  -9   4 337.974 51.5220  25
   1  -9   4 332.982 56.9103  41
  -1   9  -4 341.953 49.8824  42
   1  -9   4 343.993 51.5372  40
   1  -9   4 378.513 50.1336   9
   1  -9   5 276.659 43.1245   9
   1  -9   5 306.860 47.6850  40
  -1   9  -5 296.076 46.4555  42
   1  -9   6-5.81800 13.2600  40
  -1   9  -6-17.7827 16.8997  42
   1  -9   6 0.92719 14.6945  41
   1  -9   6-15.9233 16.6982   9
   1  -9   7-2.73111 12.3827  40
  -1   9  -7 24.2955 18.0013  42
   1  -9   7 1.90539 12.2720   9
  -1   9  -8 314.221 43.9821  14
   1  -9   8 325.737 41.3199   9
   1  -8  -7-4.21196 13.2401  15
   1  -8  -7 4.35606 11.6530  10
   1  -8  -6 80.8485 28.0487  15
   1  -8  -6 76.7692 30.7658  13
   1  -8  -6 93.7954 28.8242  10
   1  -8  -5 12.5595 17.1286  15
   1  -8  -5-6.57926 16.8749  10
   1  -8  -4 341.591 61.4637  15
   1  -8  -4 314.618 55.1407  10
   1  -8  -3 1001.76 99.4264  10
   1  -8  -3 1017.31 102.291  15
   1  -8  -2 2482.38 164.918  15
   1  -8  -2 2381.86 157.774  10
   1  -8  -2 2334.35 114.288   9
   1  -8  -1 191.063 49.4174  41
   1  -8  -1 385.402 52.8414   9
   1  -8  -1 380.801 68.0334  25
  -1   8   1 374.183 58.2284  42
   1  -8  -1 410.494 71.7075  15
   1  -8   0 151.189 36.6291   9
   1  -8   0 156.067 51.6235  15
   1  -8   0 123.911 38.2110  40
   1  -8   0 19.1192 27.7038  12
   1  -8   0 147.081 47.5263  25
  -1   8   0 127.951 35.0664  42
   1  -8   1 439.998 73.5553  25
  -1   8  -1 347.996 59.8547  42
   1  -8   1 39.6569 40.9316  12
   1  -8   1 402.441 73.8143  15
   1  -8   1 59.1283 38.1598  41
   1  -8   1 420.643 63.9599  40
   1  -8   1 399.803 58.6065   9
   1  -8   2 12.2151 24.9228  12
   1  -8   2-4.16895 25.3308  25
   1  -8   2-7.14218 23.6459  40
   1  -8   2-3.42433 16.8426   9
  -1   8  -2 36.3115 30.2072  42
   1  -8   2 25.2411 30.5248  15
   1  -8   3 22.7903 27.8335  15
  -1   8  -3 25.1376 23.4567  42
   1  -8   3 2.73559 20.9336  40
   1  -8   3 10.5353 18.4877  35
   1  -8   3-17.1948 20.6085  12
   1  -8   3 4.77645 23.0617  25
   1  -8   4 72.6137 40.2041  12
  -1   8  -4 101.367 36.2099  42
   1  -8   4 122.614 37.9229  25
   1  -8   4 156.881 47.1597  15
   1  -8   4 104.424 40.9124  40
   1  -8   5 99.1604 43.4823  12
   1  -8   5 125.926 44.3816  25
  -1   8  -5 112.283 39.1178  42
   1  -8   5 186.478 47.7878  15
   1  -8   5 158.218 43.5380  40
   1  -8   6 426.520 67.5728  25
   1  -8   6 380.418 65.0399  40
   1  -8   6 464.170 73.8996  12
  -1   8  -6 446.088 67.7835  42
   1  -8   7 42.6228 33.8826  12
   1  -8   7 49.8024 32.3064  40
  -1   8  -7 72.5432 31.6747  42
   1  -8   7 48.0939 26.9249   9
   1  -8   8 105.410 32.5859   9
   1  -8   8 30.0896 27.4383  41
   1  -8   8 105.906 33.9355  12
   1  -8   8 110.299 36.5736  40
  -1   8  -8 68.9311 28.4953  42
  -1   8  -9 899.054 81.7243  42
   1  -8   9 846.605 82.9716  12
   1  -8   9 1003.95 82.6866   9
   1  -8   9 975.577 91.5583  40
   1  -8  10 95.9142 27.7253  12
   1  -8  10 46.8462 28.9334  41
   1  -8  10 182.077 39.1077  40
  -1   8 -10 135.691 32.3081  42
   1  -8  10 126.892 27.9210   9
  -1   8 -10 118.031 33.8728  14
   1  -8  11 2332.95 96.7767   9
  -1   8 -11 2403.76 112.918  14
   1  -7  -9 3781.66 177.058  13
   1  -7  -9 3773.24 162.462  10
   1  -7  -9 3940.11 170.855  15
   1  -7  -8 790.300 83.7424  10
   1  -7  -8 866.784 90.3180  15
   1  -7  -8 777.858 89.4826  13
   1  -7  -7 87.0920 32.4012  13
   1  -7  -7 88.0674 37.2353  15
   1  -7  -7 119.798 42.7126  10
   1  -7  -6 78.7980 37.0053  10
   1  -7  -6 102.393 44.8472  15
   1  -7  -6 103.230 46.2469  13
   1  -7  -5-1.32416 28.0105  10
   1  -7  -5 18.4266 21.9028  15
   1  -7  -5 23.3320 26.1267  13
   1  -7  -4-25.9870 111.652  37
   1  -7  -4-10.0776 72.7193   2
  -1   7   4 15.8223 104.332  36
   1  -7  -4 36.2263 31.1905  13
   1  -7  -4 48.9080 35.4118  15
   1  -7  -4 10.6144 26.9978  10
  -1   7   4 133.688 121.711   5
  -1   7   3 432.297 212.356  36
   1  -7  -3 598.040 256.619  37
  -1   7   3 524.013 238.656   5
   1  -7  -3 264.786 185.650   2
   1  -7  -3 455.818 78.8900  10
   1  -7  -3 135.082 44.4517  41
   1  -7  -3 480.863 82.1407  15
   1  -7  -3 72.6885 43.2136  11
   1  -7  -3 447.895 78.2370  13
   1  -7  -3 477.572 56.8158   9
   1  -7  -2 335.555 71.8532  13
   1  -7  -2 483.844 239.729  37
  -1   7   2 489.727 213.556   5
   1  -7  -2 458.704 79.1117  10
   1  -7  -2 150.684 121.892  17
   1  -7  -2 331.870 69.6033  15
  -1   7   2 304.044 54.3030  42
   1  -7  -2 386.301 57.4092  40
   1  -7  -2 432.356 203.838   2
   1  -7  -2 49.9984 42.8539  11
   1  -7  -2 321.953 51.1252   9
  -1   7   2 501.566 218.170  36
   1  -7  -1-7.92661 78.8008  37
   1  -7  -1-84.8845 154.852   2
  -1   7   1 29.9947 72.0916   5
   1  -7  -1 31.2322 32.5939  15
   1  -7  -1 61.7677 32.3174  40
  -1   7   1 64.1892 90.6447  36
   1  -7  -1-36.2768 112.762  39
   1  -7  -1 60.9214 40.9066  13
   1  -7  -1 44.8917 34.7053  11
   1  -7  -1-28.1340 94.8130  17
  -1   7   1 47.1395 29.2371  42
   1  -7  -1 82.4241 38.7080  10
   1  -7   0-2.93637 23.7287  11
   1  -7   0-19.2332 29.4605  10
   1  -7   0-138.199 129.088  39
   1  -7   0 74.7107 88.9561   2
   1  -7   0 1.42024 25.1150  15
  -1   7   0-80.7880 109.633   5
   1  -7   0-0.15178 18.1058  40
  -1   7   0 2.88049 25.4148  42
   1  -7   0-21.1170 82.9595  17
  -1   7   0 32.3397 111.159  36
   1  -7   0-38.9502 98.4468  37
   1  -7   0 3.33289 38.9848  41
   1  -7   1 258.366 107.360  41
  -1   7  -1-4.40187 94.6852  36
   1  -7   1 201.558 125.749   2
  -1   7  -1 309.183 172.188   5
   1  -7   1 167.050 51.7732  15
  -1   7  -1 180.585 48.9433  42
   1  -7   1 152.049 45.6066  25
   1  -7   1 139.743 137.052  37
   1  -7   1 153.769 48.3595  10
   1  -7   1 271.839 189.618  39
   1  -7   1 278.517 152.733  17
   1  -7   2 4044.49 590.704  17
   1  -7   2 3920.84 220.303  25
  -1   7  -2 3945.02 619.040  36
  -1   7  -2 3787.94 204.286  42
   1  -7   2 3780.71 219.304  15
   1  -7   2 3580.49 502.945   2
   1  -7   2 3750.94 613.214  39
  -1   7  -2 3698.07 571.544   5
   1  -7   3 22.9128 33.8684  12
   1  -7   3 153.472 146.461  17
  -1   7  -3 161.856 130.092   5
   1  -7   3 10.4668 26.7087  25
   1  -7   3-35.5459 116.222  39
  -1   7  -3 51.9977 38.2069  42
   1  -7   3-4.08949 23.9558  15
  -1   7  -3-170.702 177.178   6
  -1   7  -3-5.16812 115.821  36
   1  -7   4 1804.28 173.045  12
   1  -7   4 2350.34 170.146  15
  -1   7  -4 2225.33 464.147  36
  -1   7  -4 2352.20 164.509  42
   1  -7   4 2118.68 441.755  17
   1  -7   4 2266.72 164.340  25
   1  -7   4 1904.97 442.711  39
   1  -7   5 1477.39 135.327  15
  -1   7  -5 1548.73 134.684  42
   1  -7   5 1650.02 140.400  25
   1  -7   5 1533.95 148.799  12
   1  -7   5 1448.00 380.219  39
   1  -7   5 1533.01 380.572  17
  -1   7  -5 1218.81 350.084  36
   1  -7   6-1.90805 30.3013  41
   1  -7   6 24.3180 28.6795  12
   1  -7   6 86.3420 106.657  39
  -1   7  -6 12.7967 27.3948  42
   1  -7   6 35.1841 34.0377  25
   1  -7   6-125.699 118.878  17
   1  -7   6 32.8007 34.0996  15
  -1   7  -6-7.38263 73.4590  36
   1  -7   7 218.530 53.9680  12
   1  -7   7 414.249 200.958  17
  -1   7  -7 210.467 54.2078  42
   1  -7   7 32.5354 33.2240  41
   1  -7   7 218.704 52.5752  25
  -1   7  -7 121.237 173.175  36
   1  -7   7-26.0942 137.287  39
   1  -7   8 22.5293 22.1429  12
   1  -7   8 61.1490 141.631  17
   1  -7   8 3.25612 31.9899  41
  -1   7  -8 39.9770 27.2089  42
   1  -7   8 90.0747 108.264  39
  -1   7  -9 306.205 56.0263  42
   1  -7   9 418.296 70.8108  12
   1  -7  10 126.020 37.3601  40
  -1   7 -10 171.838 39.3052  42
   1  -7  10 162.817 48.3078  12
   1  -7  10 183.594 39.9636   9
   1  -7  11 1287.04 90.5760   9
   1  -7  11 1234.36 100.207  40
  -1   7 -11 1250.74 91.0341  42
  -1   7 -11 1232.25 96.7001  14
   1  -7  12 836.235 75.8153  40
  -1   7 -12 904.727 72.6219  14
   1  -7  13 709.662 68.4056  26
   1  -7  13 5.73880 19.9409  12
   1  -7  14 6.66874 11.0444  26
   1  -7  14-2.41606 9.41097  29
   1  -7  14 3.94495 13.2179  12
   1  -6 -12 123.116 32.0085  13
   1  -6 -12 87.8796 24.3027  10
   1  -6 -12 92.8708 25.8374  15
   1  -6 -11 642.160 70.1950  10
   1  -6 -11 686.798 79.7913  13
   1  -6 -11 680.727 75.9373  15
   1  -6 -10 1298.87 114.152  15
   1  -6 -10 1433.70 128.499  13
   1  -6 -10 1363.99 113.641  10
   1  -6 -10 1311.09 112.359  16
   1  -6  -9-6.01482 28.3814  13
   1  -6  -9 7.90544 26.9316  10
   1  -6  -9-3.15602 29.9068  15
   1  -6  -9-6.15615 19.6162  16
   1  -6  -8 81.5117 37.8488  15
   1  -6  -8 89.3578 37.8884  10
   1  -6  -8 53.4179 25.9493  16
   1  -6  -8 88.4075 39.6283  13
   1  -6  -7 184.450 109.563   2
   1  -6  -7-181.852 140.431  37
   1  -6  -7 30.4332 34.1419  15
   1  -6  -7-18.6190 25.7246  10
   1  -6  -7-233.654 146.871   3
   1  -6  -7 23.5853 33.2015  13
   1  -6  -7 14.9586 24.8921  16
  -1   6   7 69.7618 101.854   5
  -1   6   6 1152.34 350.236   5
   1  -6  -6 307.276 251.018   2
   1  -6  -6 855.854 111.783  13
   1  -6  -6 831.818 103.803  10
   1  -6  -6 581.609 237.710  37
  -1   6   6 879.843 283.729  36
   1  -6  -6 652.967 263.145   3
   1  -6  -6 839.235 102.273  16
   1  -6  -6 848.582 108.746  15
   1  -6  -5 454.178 78.8085  15
  -1   6   5 503.446 219.299  36
   1  -6  -5 333.132 198.079   2
  -1   6   5 782.617 295.125   5
   1  -6  -5 585.745 247.402  37
   1  -6  -5 512.000 83.2354  10
   1  -6  -5 460.260 81.4524  13
   1  -6  -5 326.536 166.536   3
   1  -6  -4 92.2510 109.048   3
  -1   6   4 81.1687 110.489   5
   1  -6  -4 13.7209 25.8780  13
   1  -6  -4-16.8286 125.465  37
   1  -6  -4 20.8139 25.8704  15
  -1   6   4-80.3117 97.8994  36
   1  -6  -4 5.08970 20.6204  10
   1  -6  -4 73.6134 115.384   2
  -1   6   3 8532.39 867.714  36
  -1   6   3 8983.43 265.852  42
   1  -6  -3 9324.39 822.376   3
   1  -6  -3 9011.06 329.821  10
   1  -6  -3 9030.23 740.068  17
   1  -6  -3 7361.72 292.670  11
   1  -6  -3 8163.46 889.583  37
   1  -6  -3 9096.40 337.973  15
   1  -6  -3 8784.50 334.335  13
   1  -6  -3 8838.02 890.714   2
  -1   6   3 9750.59 925.121   5
   1  -6  -2 912.455 106.747  13
   1  -6  -2 1006.84 92.1629  40
   1  -6  -2 1024.38 301.741   2
   1  -6  -2 811.173 101.852  11
   1  -6  -2 933.265 261.131  39
  -1   6   2 1040.13 302.649   5
  -1   6   2 984.369 93.6484  42
   1  -6  -2 1056.69 113.609  15
  -1   6   2 1129.14 303.166  36
   1  -6  -2 1006.90 111.188  10
   1  -6  -2 1053.97 269.999   3
   1  -6  -2 1270.74 355.179  37
   1  -6  -2 1007.13 262.391  17
   1  -6  -1 1198.10 327.025   2
  -1   6   1 1074.31 316.863   5
   1  -6  -1 1490.19 131.161  10
   1  -6  -1 1169.48 120.045  11
   1  -6  -1 1357.29 127.478  15
   1  -6  -1 1585.00 330.639   3
   1  -6  -1 1080.14 296.766  39
   1  -6  -1 1628.83 398.678  37
  -1   6   1 1334.03 345.251  36
   1  -6  -1 1401.52 129.567  13
   1  -6   0 1245.91 322.719   2
   1  -6   0 1300.72 363.171  37
   1  -6   0 1196.53 311.533  39
  -1   6   0 1344.23 348.130  36
   1  -6   0 1252.32 121.235  13
   1  -6   0 1250.35 118.919  10
  -1   6   0 1069.91 291.279   5
   1  -6   0 1229.72 120.557  15
   1  -6   0 920.846 110.491  11
   1  -6   0 1499.63 315.984   3
  -1   6  -1 377.626 211.769   5
   1  -6   1 394.582 172.053   2
   1  -6   1 549.880 221.906  37
  -1   6  -1 567.756 228.872  36
   1  -6   1 535.686 185.316   3
   1  -6   1 561.125 81.9600  13
   1  -6   1 496.565 78.8644  15
   1  -6   1 518.062 75.9137  10
   1  -6   1 275.922 63.6089  11
   1  -6   2-41.4097 72.7691  37
  -1   6  -2-131.797 117.118  36
   1  -6   2-10.0278 24.9278  11
   1  -6   2 57.2121 28.3410  10
  -1   6  -2 73.4243 78.9806   5
   1  -6   2 124.573 117.677   3
   1  -6   2 47.8737 31.8466  15
   1  -6   2 10.3214 83.9681   2
   1  -6   3 108.170 79.1985   3
  -1   6  -3-17.9968 90.4420  36
   1  -6   3 27.9364 26.6917  15
   1  -6   3 26.8793 19.4306  25
   1  -6   3-64.8552 111.630  37
   1  -6   3 98.5779 91.4822   2
  -1   6  -3-216.522 129.520   5
   1  -6   4 448.285 71.8205  15
  -1   6  -4 446.173 192.743   5
   1  -6   4 421.812 70.0532  25
   1  -6   4 43.9691 117.256  18
   1  -6   4 356.708 78.5031  12
   1  -6   4 468.224 168.942   2
  -1   6  -4 491.804 217.206  36
   1  -6   5 163.003 45.7671  25
   1  -6   5-20.9248 88.2138  18
  -1   6  -5 111.505 99.8314  36
   1  -6   5 108.588 47.9456  12
  -1   6  -5 165.215 90.9710   5
   1  -6   5 119.371 39.1280  15
   1  -6   6 1517.04 140.103  12
  -1   6  -6 1406.22 123.062  42
   1  -6   6 628.396 297.160  18
   1  -6   6 1342.01 122.158  15
  -1   6  -6 918.018 295.278  36
  -1   6  -6 1089.69 304.060   5
   1  -6   6 1308.96 120.290  25
   1  -6   7 1270.04 119.819  25
   1  -6   7 1485.59 134.860  12
   1  -6   7-11.4728 33.3433  41
  -1   6  -7 1225.09 112.850  42
  -1   6  -7 363.946 263.810  36
   1  -6   7 796.947 350.758  18
   1  -6   8 2275.35 165.216  12
  -1   6  -8 1811.47 132.321  42
   1  -6   8 1698.95 409.085  39
  -1   6  -9 39.4980 22.9785  42
   1  -6   9 87.4853 119.772  39
   1  -6   9 4.36001 68.5874  17
   1  -6   9 21.8570 29.9783  12
   1  -6  10 1341.55 334.324  17
   1  -6  10 1540.18 141.085  12
   1  -6  10 1540.74 373.026  39
  -1   6 -10 1366.83 109.042  42
   1  -6  11 1.51877 27.0679  12
  -1   6 -11 59.4850 25.1599  42
  -1   6 -12 91.3346 27.6283  14
  -1   6 -12 24.0489 15.2968  22
   1  -6  12 64.7433 26.7009  40
   1  -6  12 49.1253 31.4767  12
  -1   6 -13 480.654 60.4533  22
   1  -6  13 166.937 55.1621  12
   1  -6  14 863.551 78.3914  26
   1  -6  14 871.409 63.1934  29
  -1   6 -14 849.831 75.7484  16
   1  -6  15 19.0554 14.4311  26
   1  -5 -13 6.85618 14.9058  10
   1  -5 -13-0.05850 17.8377  16
   1  -5 -13-20.2241 22.1469  15
   1  -5 -13 4.48024 19.4289  13
   1  -5 -12 3062.54 171.651  16
   1  -5 -12 3317.89 179.999  15
   1  -5 -12 3420.89 192.084  13
   1  -5 -11 1794.30 149.600  13
   1  -5 -11 1616.50 137.957  15
   1  -5 -11 1674.95 138.940  16
   1  -5 -10 4804.32 254.085  13
   1  -5 -10 4685.37 240.725  16
   1  -5 -10 4775.92 245.594  15
   1  -5  -9 5446.55 274.207  13
   1  -5  -9 5566.89 272.609  15
  -1   5   9 6399.73 829.211   5
   1  -5  -9 5799.22 724.127   3
   1  -5  -9 5474.05 264.630  16
   1  -5  -8 173.126 130.171   3
   1  -5  -8-72.6891 169.879  37
   1  -5  -8 175.500 52.2496  13
   1  -5  -8 208.344 56.6888  16
   1  -5  -8 204.418 178.267   2
   1  -5  -8 217.201 58.0761  15
  -1   5   8 203.168 156.264   5
   1  -5  -7 851.197 109.502  13
   1  -5  -7 539.226 220.647  37
  -1   5   7 705.955 279.538   5
   1  -5  -7 678.817 237.747   3
  -1   5   7 1144.04 288.359  36
   1  -5  -7 1027.92 311.681   2
   1  -5  -7 740.138 96.7501  16
   1  -5  -7 767.385 103.018  15
  -1   5   6 114.752 80.9957  36
  -1   5   6 70.5433 121.850   5
   1  -5  -6 188.859 120.206   3
   1  -5  -6 311.050 161.819  37
   1  -5  -6 313.314 68.5749  13
   1  -5  -6 173.399 129.480   2
   1  -5  -6 285.778 62.2889  16
   1  -5  -6 291.747 63.8101  15
   1  -5  -5 989.815 106.992  16
   1  -5  -5 893.588 104.079  15
   1  -5  -5 827.643 299.842   2
  -1   5   5 907.743 263.994  36
   1  -5  -5 780.051 273.952  37
   1  -5  -5 966.652 108.440  13
  -1   5   5 792.350 260.134   5
   1  -5  -5 799.936 255.471   3
  -1   5   4 277.273 147.746   5
   1  -5  -4 396.542 168.882   3
   1  -5  -4 317.765 61.0233  13
   1  -5  -4 221.520 88.2696  17
   1  -5  -4 175.907 106.676  37
   1  -5  -4 298.400 60.4895  15
   1  -5  -4 2.07064 18.6671  41
   1  -5  -4 341.544 62.3178  16
   1  -5  -4 266.769 160.778   2
  -1   5   4 533.140 198.767  36
  -1   5   3 1935.06 369.790  36
  -1   5   3 1684.57 369.124   5
   1  -5  -3 1689.81 334.745   3
   1  -5  -3 1549.73 129.022  15
  -1   5   3 1626.32 104.875  42
   1  -5  -3 1439.78 381.860   2
   1  -5  -3 1793.14 315.362  39
   1  -5  -3 1764.94 381.154  37
   1  -5  -3 1617.01 129.080  10
   1  -5  -3 1546.63 125.888  16
   1  -5  -3 1419.00 124.393  13
   1  -5  -3 1384.47 126.147  11
   1  -5  -2 61.4268 27.2703  16
   1  -5  -2 115.067 86.8971   3
   1  -5  -2 179.707 117.604  39
   1  -5  -2 73.4811 31.4399  13
   1  -5  -2 77.6120 32.1739  10
   1  -5  -2 107.024 120.915  37
   1  -5  -2 85.7367 34.6277  11
  -1   5   2 37.5244 71.3745  36
   1  -5  -2 123.543 39.0256  15
  -1   5   2 88.0089 70.2617   5
   1  -5  -2 179.354 140.498   2
   1  -5  -1 792.388 87.9882  10
   1  -5  -1 753.787 86.9212  13
   1  -5  -1 796.465 242.614   2
  -1   5   1 975.640 82.7599  24
  -1   5   1 967.150 261.875  36
   1  -5  -1 874.434 236.152   3
   1  -5  -1 906.772 90.1840  11
   1  -5  -1 777.424 88.5174  15
  -1   5   1 680.424 208.713   5
   1  -5  -1 833.941 252.759  37
   1  -5   0 1819.76 366.458  37
   1  -5   0 2053.03 356.931   2
  -1   5   0 1755.82 356.228   5
  -1   5   0-54.3419 90.0586   6
  -1   5   0 1759.39 352.750  36
  -1   5   0 1659.47 106.728  24
   1  -5   0 1753.53 127.924  11
   1  -5   0 1790.36 319.989   3
   1  -5   0 1838.20 131.581  15
   1  -5   0 1681.65 125.821  13
   1  -5   0 8.39388 28.1919  41
   1  -5   0 1693.42 124.551  10
   1  -5   1 4267.49 194.680  10
  -1   5  -1 4286.82 172.317  24
   1  -5   1 3311.31 180.596  11
  -1   5  -1 4400.58 493.354   5
   1  -5   1 4446.51 513.282   2
   1  -5   1 4317.26 199.063  13
   1  -5   1 4273.00 198.563  15
   1  -5   1 4439.14 578.206  37
  -1   5  -1 4367.29 540.998  36
   1  -5   1 4810.06 514.704   3
  -1   5  -2 1553.00 291.806   5
   1  -5   2 1670.74 120.878  10
   1  -5   2 886.051 95.2950  11
   1  -5   2 1919.29 379.937  37
  -1   5  -2 1966.03 369.335  36
   1  -5   2 1558.70 117.520  13
   1  -5   2 1612.10 300.187   2
   1  -5   2 1752.90 126.522  15
   1  -5   3 784.748 199.596   2
  -1   5  -3 824.718 248.301  36
   1  -5   3 911.686 91.5099  15
   1  -5   3 881.172 258.864  37
   1  -5   3 967.455 93.2357  25
  -1   5  -3 733.212 217.857   5
   1  -5   4 413.925 163.333   2
   1  -5   4 239.399 240.419  18
   1  -5   4 993.627 95.5141  15
  -1   5  -4 1043.93 279.888  36
  -1   5  -4 745.891 213.066   5
   1  -5   4 1007.10 103.327  12
   1  -5   4 874.379 259.903  37
   1  -5   4 30.8117 30.3528  41
   1  -5   4 993.109 93.7372  25
   1  -5   5 62.6329 32.6576  12
   1  -5   5-0.20780 20.3460  25
   1  -5   5-6.94859 30.7264  41
   1  -5   5-2.78794 102.875  18
  -1   5  -5 9.69438 57.1750  36
   1  -5   5-19.8156 42.6674   2
  -1   5  -5 16.3220 44.2318   5
   1  -5   5 9.18671 19.7032  15
   1  -5   6 1320.36 111.660  25
   1  -5   6 1201.56 105.145  15
   1  -5   6 1467.29 125.816  12
  -1   5  -6-27.9887 92.7279   5
  -1   5  -6 941.728 303.770  36
   1  -5   6 10.3064 30.2372  41
   1  -5   6 1482.94 401.082  18
   1  -5   7 762.379 92.0137  12
  -1   5  -7 369.119 184.294  36
   1  -5   7 603.774 77.2184  25
  -1   5  -7 636.121 75.8719  42
   1  -5   7 1025.25 348.092  18
  -1   5  -7 16.6316 98.9072   5
   1  -5   8 51.4642 108.547  18
  -1   5  -8-7.88281 20.4721  42
   1  -5   8-9.72207 27.0394  12
  -1   5  -9 5662.08 213.596  42
   1  -5   9 6022.93 273.663  12
   1  -5  10 3727.00 218.535  12
  -1   5 -10 3431.58 163.951  42
   1  -5  10 3804.60 668.188  18
  -1   5 -11 373.379 64.5901  14
   1  -5  11 11.1858 25.7964  41
   1  -5  11 735.758 100.138  12
   1  -5  11-320.556 220.461  18
   1  -5  11 727.491 257.765  39
   1  -5  12 275.721 62.7111  12
   1  -5  12 267.235 203.521  18
  -1   5 -13 2541.99 155.180  22
   1  -5  13 2258.07 174.485  12
   1  -5  13 2422.25 151.249  26
  -1   5 -14 19.8795 16.4297  22
  -1   5 -14 7.25629 16.7673  16
   1  -5  14-0.31281 16.5301  26
  -1   5 -15 270.236 45.8250  16
   1  -5  15 297.501 47.6447  26
  -1   5 -16 19.9733 15.1997  16
   1  -5  16 1.12252 12.8238  26
   1  -4 -15 32.6919 17.9543  16
   1  -4 -15 26.4737 15.3693  15
   1  -4 -15 29.7653 21.1493  13
   1  -4 -14 79.9175 31.6457  16
  -1   4  14-2.74880 16.3712  23
   1  -4 -14 115.287 37.9663  13
   1  -4 -14 126.473 37.3281  15
   1  -4 -13 536.934 76.8867  16
   1  -4 -13 538.801 77.3261  15
   1  -4 -13 468.649 77.3950  13
   1  -4 -12 3504.80 214.651  13
   1  -4 -12 3703.39 212.641  15
   1  -4 -12 3593.65 210.874  16
   1  -4 -11 111.425 45.4948  15
   1  -4 -11 71.7303 44.1232  13
   1  -4 -11 70.7349 35.5341  16
   1  -4 -11 192.575 164.447   3
   1  -4 -10 76.9880 42.3190  15
  -1   4  10 83.9771 28.5047  27
   1  -4 -10 80.6385 36.8190  13
   1  -4 -10 92.7803 43.0311  16
   1  -4 -10 178.241 143.648   3
  -1   4  10 83.3943 110.241   5
   1  -4  -9 3129.26 518.089   2
  -1   4   9 3187.09 169.488  27
   1  -4  -9 2982.63 201.326  13
   1  -4  -9 3177.45 492.411  37
   1  -4  -9 3460.93 557.354   3
   1  -4  -9 3063.10 196.329  16
  -1   4   9 3192.36 570.043   5
   1  -4  -9 3112.53 200.846  15
  -1   4   8 78.1963 101.182   5
   1  -4  -8 68.4279 33.6301  15
   1  -4  -8 114.368 127.643   3
   1  -4  -8 82.5374 34.8316  16
   1  -4  -8 117.095 44.3525  13
  -1   4   8 5.12152 102.413   4
   1  -4  -8 92.7285 105.043  37
   1  -4  -8 46.3775 64.6930   2
  -1   4   8 71.8710 29.0423  27
  -1   4   7 1183.45 326.504   5
  -1   4   7 840.271 216.888  36
   1  -4  -7 992.389 108.778  13
   1  -4  -7 994.706 283.913   2
  -1   4   7 1043.07 250.362   4
   1  -4  -7 882.354 270.024   3
   1  -4  -7 938.309 102.437  16
   1  -4  -7 893.870 260.278  37
   1  -4  -7 1003.77 107.287  15
  -1   4   7 1085.64 96.9202  27
   1  -4  -6 3216.18 180.939  16
   1  -4  -6 3521.09 509.088   2
   1  -4  -6 3376.90 190.044  13
   1  -4  -6 3391.21 188.782  15
  -1   4   6 3271.64 404.954   4
  -1   4   6 3577.87 168.542  27
   1  -4  -6 3410.47 492.719   3
   1  -4  -6 3390.84 495.412  37
  -1   4   6 4114.32 555.344   5
  -1   4   6 3395.24 450.075  36
   1  -4  -5 618.215 79.2676  13
   1  -4  -5 544.228 206.340  37
   1  -4  -5 608.420 201.979   2
   1  -4  -5 671.431 207.634   3
   1  -4  -5 572.422 75.0945  16
  -1   4   5 491.917 182.745  36
  -1   4   5 729.082 219.815   5
  -1   4   5 648.201 70.0842  27
   1  -4  -5 720.383 85.3264  15
  -1   4   5 509.405 158.240   4
   1  -4  -5 528.698 131.605  17
   1  -4  -4 13073.6 870.412   3
   1  -4  -4 11935.8 329.206  13
  -1   4   4 13511.0 906.453   5
  -1   4   4 11705.5 655.350   4
  -1   4   4 12238.1 817.764  36
   1  -4  -4 12424.6 671.326  39
   1  -4  -4 11280.6 860.158  37
  -1   4   4 11703.9 238.803  42
   1  -4  -4 14481.0 974.631   2
   1  -4  -4 11480.0 319.805  15
  -1   4   3 372.772 46.1979  42
   1  -4  -3-4.38666 20.0472  41
  -1   4   3 342.988 105.623   4
   1  -4  -3 344.506 153.817  37
  -1   4   3 501.483 169.543   5
   1  -4  -3 512.552 182.710   2
  -1   4   3 386.044 150.187  36
   1  -4  -3 289.793 137.702   3
  -1   4   2 13358.6 581.171   4
   1  -4  -2 14199.3 903.890   2
   1  -4  -2 13682.6 903.793  37
  -1   4   2 14173.6 858.785  36
   1  -4  -2 13960.8 838.770   3
  -1   4   2 13099.8 853.633   5
  -1   4   1 3609.82 423.333   5
   1  -4  -1 3784.60 468.502  37
  -1   4   1 3919.46 289.161   4
  -1   4   1 4138.85 452.924  36
   1  -4  -1 4019.70 437.345   3
   1  -4  -1 4051.80 465.778   2
   1  -4   0 19046.5 1040.98  37
  -1   4   0 20261.0 925.664   5
   1  -4   0 19739.9 980.864   2
   1  -4   0 20008.5 952.856   3
  -1   4   0 21502.6 1033.49  36
  -1   4   0 20384.2 634.156   4
  -1   4  -1 52977.1 1635.88  36
   1  -4   1 57127.7 1630.85   2
  -1   4  -1 58163.8 1519.63   5
   1  -4   1 52437.3 1699.66  37
   1  -4   1 52941.0 1123.56  38
  -1   4  -2 32388.4 1260.76  36
   1  -4   2 30595.1 894.230  38
  -1   4  -2 33993.4 1137.89   5
   1  -4   2 28868.7 1125.85   2
   1  -4   2 30067.9 1272.42  37
   1  -4   3 14889.6 778.956   2
   1  -4   3 16120.9 688.951  38
   1  -4   3 17649.9 970.166  37
  -1   4  -3 16488.0 930.910  36
   1  -4   4 46.0071 58.9514  37
  -1   4  -4 22.6479 42.8887   5
   1  -4   4 112.037 65.7611  38
  -1   4  -4 82.0999 81.6529  36
   1  -4   4 46.9873 70.5931   2
   1  -4   5 3726.61 386.253   2
   1  -4   5 4346.23 480.533  37
  -1   4  -5 3715.49 468.398  36
  -1   4  -6 573.313 224.362  36
   1  -4   6 469.356 146.285   2
   1  -4   6 839.183 88.6327  12
   1  -4   6 1041.25 305.331  18
   1  -4   6 760.016 76.1847  25
  -1   4  -6 739.151 70.0681  42
   1  -4   6 714.266 73.4263  15
   1  -4   7 334.612 189.392  18
   1  -4   7 202.884 42.5886  25
  -1   4  -7 200.571 38.7037  42
   1  -4   7 183.841 45.0667  12
  -1   4  -8 1334.03 94.7774  42
   1  -4   8 1532.18 129.212  12
   1  -4   9 5380.94 247.464  12
  -1   4  -9 5298.66 187.828  42
  -1   4 -10 8935.86 236.744  42
   1  -4  10 9162.52 1055.14  18
   1  -4  10 9207.14 334.302  12
   1  -4  11 116.186 201.152  18
   1  -4  11 1562.66 141.921  12
   1  -4  12 70.9069 32.4914  26
   1  -4  12 57.0337 41.0443  12
  -1   4 -12 59.1284 33.8289  22
   1  -4  13 3824.47 191.336  26
   1  -4  13 989.214 126.712  12
   1  -4  13 151.476 268.996  18
  -1   4 -13 4480.69 215.719  22
  -1   4 -13 3689.56 197.712  16
  -1   4 -14 5512.05 230.488  22
  -1   4 -14 4770.30 218.416  16
   1  -4  14 5002.67 211.698  26
   1  -4  15 29.0969 19.7305  26
  -1   4 -15 45.3126 26.0286  22
  -1   4 -15 49.2467 28.9844  16
  -1   4 -16 7.88071 15.6734  16
   1  -4  16 25.7442 12.0081  26
  -1   4 -17 9.66614 12.4010  13
  -1   4 -17 15.2411 12.2517  16
  -1   4 -17 10.6023 12.9656  19
   1  -3 -16 43.9671 26.8110  13
   1  -3 -16 7.30942 13.0976  16
   1  -3 -16 6.93691 12.6912  15
   1  -3 -15 230.602 49.4704  16
   1  -3 -15 288.033 55.8265  13
   1  -3 -15 279.761 51.6940  15
   1  -3 -14 633.082 90.5751  13
   1  -3 -14 672.538 89.4957  16
   1  -3 -14 674.498 88.7120  15
   1  -3 -13 224.394 56.3956  15
  -1   3  13 261.701 49.7823  27
   1  -3 -13 274.212 65.7803  13
   1  -3 -13 265.713 62.4055  16
   1  -3 -12 2249.77 174.848  13
   1  -3 -12 2174.58 169.585  16
  -1   3  12 2289.07 147.755  27
   1  -3 -12 2071.09 452.064   3
  -1   3  12 2600.62 494.140   4
   1  -3 -11 182.583 54.6772  13
   1  -3 -11 249.942 188.461   3
  -1   3  11 228.094 49.1385  27
   1  -3 -11 229.264 57.2215  16
  -1   3  11 206.894 146.278   4
  -1   3  10 2192.76 433.027   4
   1  -3 -10 1929.29 157.307  13
  -1   3  10 2233.55 145.923  27
   1  -3 -10 2016.69 157.692  16
   1  -3 -10 2305.54 457.691   3
  -1   3   9 1787.93 127.821  27
   1  -3  -9 2034.43 402.678   2
   1  -3  -9 2031.62 415.665   3
   1  -3  -9 2037.25 154.971  13
   1  -3  -9 2121.80 384.517  37
  -1   3   9 1772.82 420.424   5
   1  -3  -9 1981.68 149.963  16
  -1   3   9 2264.45 408.385   4
   1  -3  -8 1944.29 140.720  16
  -1   3   8 2010.68 129.979  27
  -1   3   8 2155.49 416.158   5
   1  -3  -8 2035.89 365.484  37
   1  -3  -8 2026.85 390.016   3
   1  -3  -8 1982.13 145.130  13
   1  -3  -8 2021.78 375.225   2
  -1   3   8 2205.47 376.893   4
   1  -3  -7 3088.46 450.720   3
  -1   3   7 3667.64 413.514  36
  -1   3   7 3267.39 158.115  27
   1  -3  -7 4253.87 519.143   2
   1  -3  -7 3278.05 177.553  13
  -1   3   7 3306.15 478.406   5
   1  -3  -7 3217.97 171.848  16
  -1   3   7 3801.68 452.281   4
   1  -3  -7 3425.06 460.445  37
   1  -3  -6 1742.19 122.261  13
  -1   3   6 1879.43 289.033   4
   1  -3  -6 1778.74 319.825   3
  -1   3   6 1864.66 337.471   5
  -1   3   6 1908.95 290.734  36
   1  -3  -6 1723.23 313.352  37
   1  -3  -6 2031.02 350.093   2
  -1   3   5 4558.40 407.917   4
   1  -3  -5 4778.65 508.148   2
  -1   3   5 4870.18 509.706   5
  -1   3   5 4735.28 440.126  36
   1  -3  -5 4320.08 483.167  37
   1  -3  -5 4912.89 508.348   3
   1  -3  -4 9647.70 691.657  37
   1  -3  -4 11244.1 749.182   2
  -1   3   4 9842.21 539.463   4
  -1   3   4 10892.3 708.575   5
   1  -3  -4 9241.15 667.070   3
  -1   3   4 10485.4 637.255  36
  -1   3   3 10.6275 44.3051  36
   1  -3  -3-31.0275 60.8921   2
  -1   3   3 8.17021 26.4087   4
   1  -3  -3-1.72589 52.8613  37
  -1   3   3-44.3323 51.6378   5
   1  -3  -3 62.1271 73.8920   3
   1  -3  -2 1174.88 232.051   2
  -1   3   2 1030.46 202.315   5
   1  -3  -2 876.701 198.628  37
  -1   3   2 1011.44 195.799  36
   1  -3  -2 1093.05 212.617   3
  -1   3   2 1096.79 140.218   4
  -1   3   1 41315.7 730.620   4
  -1   3   1 41934.3 1148.66   5
   1  -3  -1 43674.7 1263.10   3
  -1   3   1 39570.2 1189.39  36
   1  -3  -1 40184.8 1274.06  37
  -1   3   0 427.556 130.461  36
   1  -3   0 106.923 126.560   2
   1  -3   0 448.960 144.116  37
  -1   3   0 474.908 115.681   5
  -1   3   0 456.857 70.4071   4
  -1   3  -1 629.373 158.357  36
   1  -3   1 914.942 187.075   2
  -1   3  -1 621.012 139.987   5
   1  -3   1 682.549 169.798  37
   1  -3   2 31461.0 1094.06  37
   1  -3   2 35784.5 1053.07   2
   1  -3   2 33151.6 930.718  38
  -1   3  -2 33382.1 1100.08  36
  -1   3  -3 15702.7 767.918  36
   1  -3   3 15503.0 760.064  37
   1  -3   3 16604.9 696.903   2
   1  -3   3 14951.6 659.155  38
   1  -3   4-23.7171 50.3188  37
   1  -3   4-6.83642 92.7816  18
   1  -3   4 105.892 70.7680  38
  -1   3  -4 46.3331 62.0891  36
   1  -3   4 8.67015 33.2275   2
  -1   3  -5 5983.56 554.809  36
  -1   3  -5 7291.25 186.011  42
   1  -3   5 7021.83 502.180  37
   1  -3   5 6944.49 442.915   2
   1  -3   5 7234.00 532.181  38
   1  -3   6 503.105 124.104   2
  -1   3  -6 496.554 51.3006  42
   1  -3   6 143.203 225.275  18
   1  -3   6 513.229 153.654  38
   1  -3   7 9429.50 684.382   4
   1  -3   7 11031.5 562.160   2
  -1   3  -7 10153.8 226.429  42
   1  -3   8 20741.4 1105.08   4
  -1   3  -8 22212.2 339.063  42
   1  -3   9 6415.38 656.126   4
  -1   3  -9 6986.57 188.393  42
   1  -3   9 7684.25 279.595  12
   1  -3  10 7731.56 298.211  12
   1  -3  10 6458.80 715.342   4
   1  -3  10 6874.59 911.751  18
   1  -3  11 1170.36 102.926  26
   1  -3  11-11.8944 260.270  18
   1  -3  11 1285.65 341.131   4
   1  -3  11 1206.04 128.087  12
  -1   3 -11 877.679 102.375  22
  -1   3 -11-18.7399 22.0032  20
  -1   3 -12 6513.36 261.538  16
   1  -3  12 7332.72 325.941  12
  -1   3 -12 6784.34 280.771  22
   1  -3  12 6735.29 249.789  26
  -1   3 -13 1487.59 130.169  22
   1  -3  13 1233.23 108.722  26
  -1   3 -13 1089.62 111.168  16
   1  -3  14-17.1195 22.1983  26
   1  -3  14 7.46787 31.9388  12
  -1   3 -14 2.38925 21.2786  22
  -1   3 -14-1.73397 24.5965  16
  -1   3 -15 2649.75 164.488  16
  -1   3 -15 2670.54 160.238  22
   1  -3  15 2826.28 150.616  26
  -1   3 -16 165.822 39.9845  19
  -1   3 -16 153.222 38.8872  16
  -1   3 -17 135.287 30.5945  13
  -1   3 -17 125.110 30.2618  19
  -1   3 -17 146.600 34.2837  16
   1  -2 -16 710.770 79.2947  15
   1  -2 -16 656.780 78.6652  16
   1  -2 -16 667.628 82.0255  13
   1  -2 -15 205.428 53.1084  16
   1  -2 -15 191.952 50.6391  13
  -1   2  15 194.138 39.6376  27
   1  -2 -14 78.5183 38.0017  16
   1  -2 -14 114.740 44.6387  13
  -1   2  14 75.8114 30.9125  27
  -1   2  13 13090.3 362.474  27
   1  -2 -13 12506.2 404.635  16
  -1   2  13 12736.3 1122.07   4
   1  -2 -13 12752.3 416.408  13
   1  -2 -12 1212.98 127.733  13
  -1   2  12 1168.45 112.272  27
   1  -2 -12 1207.81 125.586  16
   1  -2 -12 1413.62 374.431   3
  -1   2  12 1240.89 356.003   4
   1  -2 -11 2445.30 477.074   3
  -1   2  11 1626.83 372.765   4
   1  -2 -11 2002.96 142.591  19
   1  -2 -11 1988.47 158.595  13
   1  -2 -11 1924.96 153.103  16
  -1   2  11 2169.59 147.939  27
   1  -2 -10 4986.48 236.644  13
  -1   2  10 5113.54 194.979  24
   1  -2 -10 4895.23 230.911  16
   1  -2 -10 4698.43 622.095   3
  -1   2  10 5218.12 644.945   4
   1  -2 -10 5441.97 588.434  37
   1  -2 -10 5329.96 224.320  19
   1  -2  -9 140.033 45.2593  13
   1  -2  -9 130.272 33.9193  19
   1  -2  -9 130.770 110.900   3
   1  -2  -9 127.871 39.3469  16
  -1   2   9 162.196 103.911   4
   1  -2  -9 126.822 83.1141  37
   1  -2  -9 68.8471 54.1456   2
  -1   2   9 105.270 28.0849  24
   1  -2  -8 21694.4 1065.43   2
  -1   2   8 21238.1 1118.74   4
   1  -2  -8 19717.8 418.775  13
   1  -2  -8 19917.3 412.280  16
  -1   2   8 22443.6 1236.15   5
   1  -2  -8 20792.2 1066.02  37
   1  -2  -8 20714.3 1146.00   3
  -1   2   7 10315.5 717.166   4
  -1   2   7 11361.3 601.625  36
   1  -2  -7 10929.5 779.953   3
   1  -2  -7 10243.9 716.384  37
  -1   2   7 11472.3 829.641   5
   1  -2  -7 10853.6 724.640   2
   1  -2  -6 430.764 141.082   2
   1  -2  -6 435.463 145.378  37
  -1   2   6 567.395 153.707   4
  -1   2   6 512.257 171.215   5
   1  -2  -6 579.599 172.131   3
  -1   2   6 372.102 109.400  36
   1  -2  -5 2916.23 350.913   3
   1  -2  -5 2753.07 337.449   2
   1  -2  -5 2265.02 307.042  37
  -1   2   5 2905.47 275.293  36
  -1   2   5 2893.45 305.430   4
  -1   2   5 2967.13 359.456   5
  -1   2   4 981.867 161.930   4
   1  -2  -4 1074.91 198.749  37
   1  -2  -4 610.509 206.508   2
  -1   2   4 1149.81 206.961   5
  -1   2   4 1056.55 165.273  36
   1  -2  -4 1126.59 211.530   3
  -1   2   3 8411.13 497.894   5
  -1   2   3 7773.00 378.562   4
  -1   2   3 7906.46 427.181  36
   1  -2  -3 7945.90 519.772  37
   1  -2  -3 8284.94 518.988   3
   1  -2  -3 6936.97 553.564   2
  -1   2   2 3382.17 274.644  36
   1  -2  -2 3364.70 315.796   3
  -1   2   2 3170.52 288.072   5
   1  -2  -2 3349.83 320.896  37
  -1   2   2 3221.23 196.709   4
  -1   2   1 5253.23 321.135   5
   1  -2  -1 4973.99 386.403   2
  -1   2   1 5187.29 337.883  36
  -1   2   1 5211.53 171.690   4
  -1   2   0 864935. 4309.27  36
   1  -2   0 879617. 4753.69  37
  -1   2  -1 26821.1 800.464  36
   1  -2   1 27591.7 819.293  37
   1  -2   2 67850.3 1260.16  37
  -1   2  -2 62583.4 1300.67  36
   1  -2   2 67794.3 1288.45  38
   1  -2   2 61905.4 1319.33   2
   1  -2   3 12824.8 600.227  38
   1  -2   3 11575.8 449.210   4
   1  -2   3 12694.7 537.993  37
  -1   2  -3 12198.1 578.851  36
   1  -2   4 12985.5 558.421   4
   1  -2   4 13274.1 653.138  38
   1  -2   4 13428.1 542.773  37
  -1   2  -5 5440.25 138.420  42
   1  -2   5 5568.10 457.046  38
   1  -2   5 5373.62 409.485   4
  -1   2  -6 12247.1 211.536  42
   1  -2   6 11718.5 672.716   4
   1  -2   6 12604.4 743.639  38
   1  -2   7 5021.59 488.215   4
  -1   2  -7 5463.00 142.447  42
   1  -2   7 5297.36 671.945  18
   1  -2   8 2341.79 365.958   4
   1  -2   8 1700.07 443.814  18
   1  -2   9 3708.36 499.118   4
   1  -2   9 3638.26 658.963  18
   1  -2   9 3320.97 178.939  12
   1  -2  10 5256.34 638.758   4
   1  -2  10 5259.28 196.653  26
   1  -2  10 5417.29 246.333  12
  -1   2 -10 5372.73 216.361  16
  -1   2 -10 3207.08 187.192  22
   1  -2  10 141.687 126.723  18
  -1   2 -11 3576.65 198.682  22
   1  -2  11 3479.96 214.593  12
   1  -2  11 3306.94 164.173  26
  -1   2 -11 3132.21 175.236  16
   1  -2  11 3685.37 573.968   4
  -1   2 -12 0.09105 23.0204  20
   1  -2  12-9.39102 25.0136  12
   1  -2  12 36.3360 24.4768  26
   1  -2  12-87.2723 131.791  18
   1  -2  12-122.713 123.606   4
  -1   2 -12 10.5293 21.8329  22
  -1   2 -12 7.61108 19.8958  16
  -1   2 -13 21135.0 488.328  16
   1  -2  13 20752.0 1466.32   4
   1  -2  13 4202.62 245.084  12
   1  -2  13 21431.4 441.156  26
  -1   2 -13 22224.6 515.399  22
   1  -2  14 261.548 49.6854  26
   1  -2  14 39.7472 136.908  18
  -1   2 -14 276.347 60.8690  22
  -1   2 -14 259.370 55.1196  16
   1  -2  14 243.251 158.055   4
  -1   2 -15 1024.57 107.389  16
  -1   2 -15 1030.35 108.219  22
  -1   2 -16 147.293 39.9987  19
  -1   2 -16 190.476 43.2883  13
  -1   2 -16 156.993 41.4784  16
  -1   2 -17 492.470 58.4789  19
  -1   2 -17 467.349 59.8408  16
  -1   2 -17 462.582 54.8040  13
  -1   1  17 3.78471 11.0002  27
   1  -1 -17 6.34652 18.8439  13
   1  -1 -17 0.48448 16.1131  16
   1  -1 -16 663.841 85.3629  13
   1  -1 -16 590.323 79.3831  16
  -1   1  16 598.494 68.7761  27
   1  -1 -15 1872.27 155.210  13
   1  -1 -15 1830.75 148.856  16
  -1   1  15 1905.55 134.544  27
  -1   1  14 859.818 81.9129  24
   1  -1 -14 754.043 100.825  13
   1  -1 -14 736.458 101.554  16
  -1   1  14 681.015 281.096   4
   1  -1 -13 540.515 86.1396  16
  -1   1  13 554.618 68.7533  24
   1  -1 -13 578.082 90.5871  13
  -1   1  13 705.458 294.868   4
  -1   1  12 1302.18 105.971  24
   1  -1 -12 1478.71 374.747   3
   1  -1 -12 1223.28 124.745  13
   1  -1 -12 1294.84 127.546  16
  -1   1  12 1092.71 333.687   4
  -1   1  11 5462.52 694.190   4
   1  -1 -11 4681.19 229.034  13
   1  -1 -11 4598.81 622.516   3
  -1   1  11 4785.27 197.132  24
   1  -1 -11 4957.55 547.787  37
   1  -1 -11 4648.71 227.809  16
   1  -1 -10 175.419 106.738  37
   1  -1 -10 65.4650 59.4173   3
  -1   1  10 162.449 125.410   4
   1  -1 -10 139.975 40.4682  16
  -1   1  10 172.517 38.0338  24
  -1   1   9 94.3193 69.2470   4
   1  -1  -9 156.236 39.1458  16
   1  -1  -9 61.1107 49.1413   2
   1  -1  -9 165.297 111.190   3
   1  -1  -9 242.733 128.275  37
   1  -1  -8-7.53210 43.8082  37
   1  -1  -8-28.4418 86.1074   3
  -1   1   8 38.1213 51.4907   4
   1  -1  -8-11.5526 59.5033   2
  -1   1   7 89452.3 2061.14   4
  -1   1   7 86077.5 1225.35  36
   1  -1  -7 87321.6 1917.72  37
   1  -1  -7 90285.3 2036.93   3
   1  -1  -7 92876.4 1761.55   2
  -1   1   6 11465.6 668.424   4
   1  -1  -6 11043.0 639.607  37
   1  -1  -6 10762.4 646.464   3
  -1   1   6 12118.3 726.387   5
  -1   1   6 11095.2 413.476  36
   1  -1  -6 10178.4 555.696   2
  -1   1   5 21521.3 346.926   7
  -1   1   5 20098.4 850.206   5
   1  -1  -5 19069.1 785.460   3
  -1   1   5 18748.0 484.012  36
   1  -1  -5 19047.1 760.643   2
  -1   1   5 19240.8 774.952   4
   1  -1  -5 18401.7 774.460  37
  -1   1   4 6031.39 256.742   7
  -1   1   4 5607.32 363.625   4
   1  -1  -4 5441.47 390.575   3
   1  -1  -4 5108.36 383.352  37
  -1   1   4 5930.43 419.064   5
   1  -1  -4 4727.43 353.998   2
  -1   1   4 5773.51 241.206  36
   1  -1  -3 15740.3 594.229   2
  -1   1   3 16424.9 384.130  36
  -1   1   3 15593.6 621.696   5
   1  -1  -3 15875.5 610.021   3
  -1   1   3 16536.1 539.903   4
  -1   1   2 109391. 1127.50   4
   1  -1  -2 106149. 1445.08   2
   1  -1  -2 108521. 1485.12   3
   1  -1  -1 380.812 90.2625   2
  -1   1   1 484.492 81.9110   5
  -1   1   1 349.625 61.4589  36
  -1   1   0 3159.34 146.626   5
   1  -1   0 3095.42 96.3782   4
  -1   1   0 2921.38 196.201  36
   1  -1   0 3132.28 222.791  37
  -1   1  -1 3105.78 224.322  36
   1  -1   1 3526.79 220.318  37
   1  -1   1 3293.35 149.661   4
   1  -1   2 865.397 104.368   4
   1  -1   2 872.153 102.689  37
   1  -1   3 1307.17 113.199  37
   1  -1   3 1142.62 146.098   4
   1  -1   4 8241.96 500.929  38
   1  -1   4 9106.08 697.047  18
   1  -1   5 4260.27 364.787   4
   1  -1   5 4328.51 558.540  18
   1  -1   5 4501.10 406.709  38
   1  -1   6 9125.40 624.613  38
   1  -1   6 8813.93 583.317   4
   1  -1   7 6590.75 561.091   4
   1  -1   7 9712.85 845.245  18
   1  -1   8 936.163 299.734  18
   1  -1   8 616.097 209.420   4
  -1   1  -8 610.095 135.836   7
   1  -1   9 1431.33 137.750  12
  -1   1  -9 1909.74 125.611  22
  -1   1  -9 1689.28 116.068  16
   1  -1   9 1859.63 359.953   4
  -1   1 -10 5674.84 224.891  16
   1  -1  10 5364.02 651.908   4
   1  -1  10 5693.04 199.499  26
  -1   1 -10 6681.88 249.485  22
  -1   1 -11 5434.25 240.845  22
   1  -1  11 4590.82 188.833  26
   1  -1  11 4311.15 626.078   4
  -1   1 -11 4551.86 214.093  16
   1  -1  12 29764.3 1719.90   4
   1  -1  12 30648.1 508.535  26
  -1   1 -12 29857.8 572.743  16
  -1   1 -13 153.968 46.4185  22
  -1   1 -13 96.8585 45.8672  20
   1  -1  13-52.4641 144.363  18
  -1   1 -13 200.627 57.0992  16
   1  -1  13 45.3070 91.9177   4
  -1   1 -14 972.235 103.346  13
   1  -1  14 956.718 331.224   4
  -1   1 -14 1328.39 131.496  19
  -1   1 -14 1102.15 120.661  22
  -1   1 -14 993.074 111.845  16
  -1   1 -15 114.234 39.3038  13
  -1   1 -15 110.419 40.7434  16
  -1   1 -15 113.778 39.7865  19
  -1   1 -16 31.6696 24.7329  19
  -1   1 -16 30.4812 29.0761  13
  -1   1 -16 28.9020 29.7615  16
  -1   1 -17-7.45726 11.8699  13
  -1   1 -17-13.9903 16.7351  19
  -1   1 -17-11.6404 19.3033  16
   1   0 -17 243.785 47.8684  13
   1   0 -17 238.966 47.3760  16
  -1   0  17 232.872 42.4934  27
  -1   0  16 288.959 43.7814  24
   1   0 -16 296.118 62.3433  13
   1   0 -16 302.138 60.7660  16
  -1   0  15-3.29533 15.3311  24
   1   0 -15-4.88098 26.6724  13
   1   0 -15-15.0933 31.5786  16
   1   0 -14 3770.31 220.510  13
   1   0 -14 3726.31 219.343  16
  -1   0  14 3846.12 185.607  24
  -1   0  13 1888.52 451.382   4
  -1   0  13 1796.53 121.218  33
   1   0 -13 1740.22 149.037  16
  -1   0  13 1806.55 130.106  24
  -1   0  12 349.494 199.191   4
  -1   0  12 268.626 56.5746  26
   1   0 -12 307.567 61.4107  16
   1   0 -11 2320.71 155.780  16
  -1   0  11 2723.25 491.904   4
   1   0 -11 2476.21 387.711  37
   1   0 -11 2542.03 443.168   3
  -1   0  11 2217.02 146.654  26
  -1   0  10 9080.85 276.786  26
   1   0 -10 8709.73 284.953  16
   1   0 -10 9679.94 728.134  37
   1   0 -10 9577.99 795.364   3
  -1   0  10 8624.49 823.963   4
  -1   0   9 35567.8 1550.02   4
   1   0  -9 35479.6 1406.92   3
  -1   0   9 33343.2 494.090  26
   1   0  -9 35498.5 1318.92  37
   1   0  -9 32524.3 510.065  16
   1   0  -8 848.937 202.785   3
  -1   0   8 861.672 237.880   4
   1   0  -7 4922.74 302.438   2
  -1   0   7 5073.91 500.405   4
   1   0  -7 4849.64 436.519   3
  -1   0   6 31773.9 1131.11   4
  -1   0   6 33823.5 561.322  39
   1   0  -6 31089.3 992.457   3
   1   0  -5 533.236 94.2101   2
  -1   0   5 611.878 148.895   4
  -1   0   5 562.713 83.4351  39
   1   0  -5 676.579 132.769   3
  -1   0   4 25751.1 824.491   4
   1   0  -4 25010.7 715.400   3
  -1   0   4 26626.6 596.456  39
  -1   0   3 1583.20 162.455   7
   1   0  -3 1341.88 132.968   2
   1   0  -3 1267.19 142.005   3
  -1   0   3 1256.05 166.292   4
  -1   0   3 1374.41 140.940  39
  -1   0   2 4123.59 246.725  39
   1   0  -2 4017.25 226.243   3
  -1   0   1 305318. 2180.30   7
  -1   0   1 270735. 2025.79  39
  -1   0   0 37595.0 770.969  39
  -1   0  -1 983.453 131.461  39
   1   0   1 603.736 82.1927   5
  -1   0  -2 1108.91 143.171   7
   1   0   2 1089.48 205.145  18
  -1   0  -2 1066.59 139.288  39
   1   0   2 1112.63 152.341  38
   1   0   2 1048.23 145.824   4
   1   0   2 991.215 98.4438   5
   1   0   3 43162.2 1008.49   4
  -1   0  -3 44335.1 918.308  39
   1   0   3 45264.7 1048.20  38
  -1   0  -4 8174.73 406.703   7
   1   0   4 6837.63 351.348   5
   1   0   4 6714.34 453.608  38
   1   0   4 6746.39 443.266   4
   1   0   5 116006. 1659.97   5
   1   0   5 117147. 2035.20  38
   1   0   5 111943. 1996.44   4
   1   0   6 1816.99 233.243   5
  -1   0  -6 2370.67 241.695   7
   1   0   6 1934.51 385.789  18
   1   0   6 1668.13 270.770   4
  -1   0  -7 2641.32 258.586   7
   1   0   7 2188.54 348.607   4
   1   0   8 497.604 183.889   4
   1   0   8 141.721 168.217  18
   1   0   9 5603.62 634.955   4
  -1   0  -9 6143.56 251.851  20
  -1   0  -9 5801.14 226.461  22
  -1   0  -9 5349.91 210.992  16
  -1   0 -10 532.058 71.5206  16
  -1   0 -10 713.484 98.0306  20
  -1   0 -10 853.386 97.2423  22
   1   0  10 505.609 202.927   4
  -1   0 -11 205.220 51.0946  22
  -1   0 -11 255.141 53.0000  16
   1   0  11 20.7788 106.781  18
  -1   0 -11 247.772 53.1129  13
  -1   0 -11 205.378 64.2145  20
   1   0  11 173.176 128.620   4
   1   0  12 8201.54 924.812   4
  -1   0 -12 7703.29 302.993  16
  -1   0 -12 7299.02 277.553  13
   1   0  12 7767.78 1169.74  18
  -1   0 -12 7837.96 312.616  22
  -1   0 -13 2109.25 162.771  16
   1   0  13 1893.79 463.155   4
  -1   0 -13 2061.02 160.690  19
  -1   0 -13 1983.68 148.230  13
  -1   0 -14 1355.79 121.716  13
  -1   0 -14 1348.68 130.547  16
   1   0  14 1162.78 368.391   4
  -1   0 -14 1311.13 128.922  19
  -1   0 -14 1172.68 110.606  11
  -1   0 -15 868.322 92.9432  13
  -1   0 -15 799.257 96.7663  19
  -1   0 -15 842.816 100.221  16
  -1   0 -16 4.57609 17.7591  13
  -1   0 -16 16.6302 21.4185  16
  -1   0 -16 24.3363 20.8988  19
  -1   0 -17 1230.15 84.9823  21
  -1   0 -17 1215.01 94.8688  16
  -1   0 -17 1267.37 94.0176  19
   1   1 -18 53.2729 22.1447  16
   1   1 -18 76.7140 25.7067  13
  -1  -1  18 108.115 25.9600  27
   1   1 -17 8.08655 19.9080  13
   1   1 -17 13.1652 17.2055  16
  -1  -1  17 2.49813 10.1215  24
   1   1 -16 24.0993 23.0263  13
  -1  -1  16 45.2273 23.8158  24
  -1  -1  16 56.7758 22.0084  33
   1   1 -16 41.4870 27.2091  16
  -1  -1  15 70.2949 23.8693  24
  -1  -1  15 93.4646 30.2111  33
   1   1 -15 87.3324 36.6899  16
  -1  -1  14 1032.62 110.652  26
   1   1 -14 1121.24 120.178  16
   1   1 -13 907.450 108.590  16
  -1  -1  13 890.924 100.324  26
  -1  -1  12 2634.11 165.787  26
   1   1 -12 2619.97 173.731  16
   1   1 -12 2853.77 428.658  37
   1   1 -11 408.894 66.5474  16
  -1  -1  11 490.378 69.3092  26
  -1  -1  10 498.243 211.648   4
  -1  -1  10 370.128 56.5308  26
  -1  -1   9 21.7707 95.4220   4
  -1  -1   9 4.72229 14.2143  26
  -1  -1   8 19314.8 1101.78   4
   1   1  -8 18609.5 888.370   3
  -1  -1   7 36345.9 1404.12   4
   1   1  -7 35039.5 1103.91   3
  -1  -1   7 35852.5 895.436  39
  -1  -1   6 1423.00 165.170  17
   1   1  -6 1400.74 198.384   3
  -1  -1   6 1408.37 179.816  39
  -1  -1   5 15.6259 33.3969  39
  -1  -1   5 28.9889 49.7545  18
   1   1  -5 6.49097 25.5168   3
  -1  -1   5-13.4183 33.9428  17
   1   1  -4 16572.9 403.822  36
  -1  -1   4 16836.6 557.461  17
   1   1  -4 16218.2 503.235   3
  -1  -1   4 17221.3 621.737  39
  -1  -1   3 1946.61 190.453  17
   1   1  -3 1967.49 154.864  36
  -1  -1   3 2016.29 215.079  39
  -1  -1   3 2187.83 222.377   7
   1   1  -3 1894.20 135.165   3
  -1  -1   2 19104.0 655.947   7
   1   1  -2 18561.5 524.633  36
  -1  -1   2 18168.7 630.625  39
  -1  -1   2 16534.4 548.455  17
   1   1  -2 16640.8 239.461   3
  -1  -1   1 35027.6 870.293  39
   1   1   0 117208. 896.895  18
  -1  -1   0 102268. 1500.10  39
  -1  -1  -1-0.68000 28.9570  17
  -1  -1  -1 47.2913 40.9227  39
   1   1   1 77.0639 47.7736  18
  -1  -1  -1 3.38936 42.8080   7
   1   1   1 22.9472 20.2354  38
   1   1   1 17.4123 29.4914   5
   1   1   2 4324.03 284.506  38
   1   1   2 3479.84 306.024  18
   1   1   2 4087.91 299.161   5
  -1  -1  -2 4573.72 288.692  17
  -1  -1  -2 4647.58 322.115  39
  -1  -1  -2 4851.40 345.322   7
  -1  -1  -3 6774.58 397.564  39
  -1  -1  -3 8101.91 447.663   7
   1   1   3 7543.43 523.778  18
   1   1   3 6759.32 396.078  38
   1   1   3 7239.11 423.061   5
   1   1   3 6303.75 454.310   4
   1   1   4 8692.15 493.209   5
  -1  -1  -4 9919.09 496.840   7
   1   1   4 8661.93 501.278  38
  -1  -1  -4 9108.84 511.765   3
   1   1   4 9348.72 673.800  18
  -1  -1  -4 8978.19 458.403  39
   1   1   4 8082.26 552.520   4
   1   1   5 32429.0 1415.77  18
   1   1   5 31311.7 1005.81   5
  -1  -1  -5 31377.3 864.550  39
  -1  -1  -5 34501.6 918.553   7
  -1  -1  -5 30876.5 1053.11   3
   1   1   5 29707.0 1142.78   4
   1   1   6 6632.02 515.497   5
  -1  -1  -6 7509.13 427.988   7
   1   1   6 6547.93 588.627   4
   1   1   7-54.0586 82.6463   4
   1   1   7 15.6570 61.3145   5
  -1  -1  -8 5504.49 214.730  16
   1   1   8 5584.33 625.469   4
  -1  -1  -8 4377.56 210.175  20
   1   1   8 5651.10 551.318   5
  -1  -1  -8 4591.16 202.012  22
   1   1   9 1440.80 359.394   4
  -1  -1  -9 741.961 106.777  20
  -1  -1  -9 1284.38 112.065  16
  -1  -1  -9 1285.22 110.442  19
   1   1   9 1008.19 264.509   5
  -1  -1  -9 1217.04 102.593  13
   1   1   9 1287.78 434.066  18
  -1  -1  -9 1163.81 109.641  22
  -1  -1 -10 83.3561 34.3514  19
  -1  -1 -10 142.307 40.6865  13
  -1  -1 -10 103.327 36.0587  22
   1   1  10 119.199 110.285   4
   1   1  10 54.9171 136.685  18
  -1  -1 -10 87.2503 30.5624  16
  -1  -1 -11 38092.6 670.556  16
  -1  -1 -11 37448.1 627.271  13
   1   1  11 37239.5 1931.03   4
  -1  -1 -11 36133.9 658.446  19
  -1  -1 -12 27064.0 588.251  16
  -1  -1 -12 26081.0 539.912  13
   1   1  12 25569.7 1651.82   4
  -1  -1 -12 26319.4 581.642  19
  -1  -1 -13 146.811 51.8876  19
  -1  -1 -13 157.704 42.9742  11
  -1  -1 -13 148.124 49.1065  16
   1   1  13 54.6763 129.793   4
  -1  -1 -13 168.010 44.2256  13
  -1  -1 -14 27.0523 26.8897  11
  -1  -1 -14 22.1153 30.6091  19
  -1  -1 -14 10.6185 24.7368  16
  -1  -1 -14 6.03166 17.7555  13
  -1  -1 -15 230.081 53.2154  19
  -1  -1 -15 262.863 55.9132  16
  -1  -1 -15 229.008 46.2204  13
  -1  -1 -15 189.038 45.8574  21
  -1  -1 -16 145.508 38.1860  19
  -1  -1 -16 150.041 33.5183  13
  -1  -1 -16 189.326 42.9437  16
  -1  -1 -16 133.959 33.4468  21
  -1  -2  17 200.378 34.6955  33
   1   2 -17 175.354 43.2210  13
   1   2 -17 178.573 42.2935  16
  -1  -2  17 229.454 40.4917  24
   1   2 -16 38.8659 28.1678  16
  -1  -2  16 53.3119 27.9677  24
  -1  -2  16 40.3899 22.3730  33
  -1  -2  15 3.15433 28.5841  26
   1   2 -15-4.41069 22.3295  16
  -1  -2  14 205.354 57.3427  26
   1   2 -14 208.380 52.8216  16
   1   2 -13 1826.30 152.273  16
  -1  -2  13 1746.37 140.388  26
  -1  -2  12 19.8292 22.0860  26
  -1  -2  12 6.88458 18.0305  29
  -1  -2  11 1421.05 99.1050  29
  -1  -2  11 1352.26 115.186  26
  -1  -2  10 10555.9 264.494  29
  -1  -2  10 10200.1 295.848  26
  -1  -2   9 2401.04 293.465  39
  -1  -2   9 2177.40 128.830  26
  -1  -2   9 1729.80 363.869  18
  -1  -2   9 1693.90 137.230  12
  -1  -2   8 10378.4 616.324  39
  -1  -2   8 11228.0 570.665  17
  -1  -2   8 9288.93 848.844  18
  -1  -2   7 52327.6 1243.09  17
  -1  -2   7 70353.6 601.112  41
  -1  -2   7 63968.8 1832.59  18
  -1  -2   7 50144.1 473.792  40
  -1  -2   7 50728.6 1363.46  39
   1   2  -6 604.900 118.375  36
  -1  -2   6 486.081 160.277  18
  -1  -2   6 687.696 162.169  39
  -1  -2   6 699.988 149.298  17
  -1  -2   6 814.211 65.5305  41
  -1  -2   6 511.858 48.0345  40
  -1  -2   5 16027.2 720.054  18
  -1  -2   5 11889.6 226.056  40
   1   2  -5 12304.0 526.918  36
  -1  -2   5 16971.2 292.406  41
  -1  -2   5 12609.2 660.871  39
  -1  -2   5 12126.0 594.895  17
  -1  -2   4 678.044 156.265  39
  -1  -2   4 587.216 50.1032  40
  -1  -2   4 876.739 67.7791  41
   1   2  -4 651.723 130.264  36
  -1  -2   4 617.620 136.435  17
  -1  -2   3 79564.2 565.563  40
  -1  -2   3 80038.0 1500.64  17
  -1  -2   3 82793.5 1664.59  39
   1   2  -3 81764.1 1471.39  36
  -1  -2   2 4.25834 11.8305  40
  -1  -2   2 3.08992 33.1181  17
   1   2  -2 8.30656 36.5937  36
  -1  -2   2 35.9055 41.7410  39
  -1  -2   2 10.7876 17.4693  41
  -1  -2   1 44.4587 51.8233  39
  -1  -2   1 58.2254 51.1595  17
   1   2  -1-2.52102 36.4786  36
  -1  -2   0 18028.4 760.682   7
  -1  -2   0 17359.8 676.145  17
   1   2   0 16092.7 720.699  36
   1   2   0 16572.5 385.637  38
  -1  -2   0 16574.3 723.459  39
  -1  -2  -1 35.2655 53.1885   7
   1   2   1 48.6695 69.9965   5
  -1  -2  -1 12.2058 44.2815  39
  -1  -2  -1 37.2195 39.1331  17
  -1  -2  -1 94.0218 42.2004   3
   1   2   1 44.4917 25.7547  38
  -1  -2  -2 659.776 135.375  17
  -1  -2  -2 610.994 139.906  39
  -1  -2  -2 519.459 140.926   7
   1   2   2 529.710 145.452   5
  -1  -2  -2 649.570 111.729   3
   1   2   3 49742.2 1361.24   5
  -1  -2  -3 47359.6 1082.86   3
  -1  -2  -3 49799.7 1244.55  39
  -1  -2  -3 47932.5 1109.16  17
  -1  -2  -3 47827.4 1280.63   7
   1   2   3 50515.4 1496.23   4
  -1  -2  -4 55025.9 1170.32  17
   1   2   4 59288.1 1703.07   4
  -1  -2  -4 57851.0 1340.97  39
   1   2   4 54918.0 1509.22   5
  -1  -2  -4 54181.5 1306.45   3
  -1  -2  -5 49761.5 1224.65  39
   1   2   5 50002.7 1518.57   5
  -1  -2  -5 48849.9 1388.01   3
   1   2   5 50198.6 1671.14   4
  -1  -2  -6 322.205 132.964   3
   1   2   6 193.981 137.917   4
  -1  -2  -6 170.640 74.8591  39
   1   2   6 34.2128 108.324  18
   1   2   6 198.048 111.326   5
  -1  -2  -7 255.855 46.5986  13
   1   2   7 302.999 161.836   4
   1   2   7-2.11643 80.2852  18
  -1  -2  -7 238.711 129.359   3
  -1  -2  -7 246.168 48.3213  19
   1   2   7 129.420 98.7209   5
  -1  -2  -7 295.151 53.1363  16
  -1  -2  -7 223.113 49.7957  11
   1   2   8 337.892 166.532   4
  -1  -2  -8 207.193 48.7046  16
  -1  -2  -8 220.114 47.7608  19
   1   2   8 287.945 146.822   5
  -1  -2  -8 195.526 48.7100  11
  -1  -2  -8 218.906 46.0339  13
   1   2   9 2470.60 431.804   5
  -1  -2  -9 2581.51 159.732  13
  -1  -2  -9 2604.28 170.721  19
  -1  -2  -9 2666.21 173.282  16
   1   2   9 2827.14 511.482   4
  -1  -2  -9 2587.36 167.254  11
  -1  -2 -10 12743.2 395.112  19
  -1  -2 -10 13282.9 402.966  16
  -1  -2 -10 13226.0 377.443  13
  -1  -2 -10 13810.1 386.489  11
   1   2  10 12541.1 1103.95   4
  -1  -2 -11 94.8469 44.1112  16
  -1  -2 -11 132.976 50.2948  19
  -1  -2 -11 122.527 42.4428  13
  -1  -2 -11 70.9033 34.6447  11
  -1  -2 -12 933.789 113.485  16
  -1  -2 -12 874.317 111.723  19
   1   2  12 1193.41 377.111   4
  -1  -2 -12 937.969 110.441  21
   1   2  12 633.321 282.448  36
  -1  -2 -12 992.603 107.836  13
  -1  -2 -12 998.792 104.599  11
  -1  -2 -13 41.2605 30.5712  13
  -1  -2 -13 35.4533 24.7918  11
  -1  -2 -13 62.9710 36.0000  21
  -1  -2 -13 53.6065 33.5811  19
  -1  -2 -13 31.3059 35.3242  16
  -1  -2 -14 434.628 67.2221  13
  -1  -2 -14 475.219 75.8349  16
  -1  -2 -14 471.054 76.7849  19
  -1  -2 -14 411.070 68.4686  21
  -1  -2 -15 3.99477 19.0879  21
  -1  -2 -15-2.97499 14.9223  13
  -1  -2 -15 10.7220 18.1291  16
  -1  -2 -16 1188.65 79.4722  21
  -1  -2 -16 1281.24 95.7340  16
  -1  -2 -16 1240.70 88.5934  34
  -1  -3  17 673.576 64.9883  24
  -1  -3  17 639.583 62.2172  33
   1   3 -17 629.893 71.1641  16
  -1  -3  16 22.1917 21.0379  33
   1   3 -16-14.6665 23.8441  16
  -1  -3  16 6.26687 21.0017  26
  -1  -3  15 118.559 40.5497  26
   1   3 -15 86.0887 39.0014  16
   1   3 -14 744.020 98.0406  16
  -1  -3  14 823.304 99.3841  26
  -1  -3  13 548.995 82.4107  26
  -1  -3  13 569.084 66.2644  29
  -1  -3  12 295.603 59.8599  26
  -1  -3  12 297.629 50.4510  29
  -1  -3  11 15.6729 16.5756  29
  -1  -3  11 7.55970 29.4592  12
  -1  -3  11 27.7591 26.0317  26
  -1  -3  10 20598.9 471.726  12
  -1  -3   9 150.014 32.0662  40
  -1  -3   9 164.328 41.0159  12
  -1  -3   9 206.139 50.3294  28
  -1  -3   9 175.956 81.1784  17
  -1  -3   9 107.768 88.2117  39
  -1  -3   8 4540.51 193.787  28
  -1  -3   8 4701.85 196.606  12
  -1  -3   8 4486.74 488.260  39
  -1  -3   8 4341.83 164.804  40
  -1  -3   8 4745.04 451.053  17
  -1  -3   8 4903.53 189.289  41
  -1  -3   7 4967.96 466.946  17
  -1  -3   7 4668.22 169.302  40
  -1  -3   7 4688.25 186.078  41
   1   3  -7 4174.49 391.511  36
  -1  -3   7 4663.98 490.145  39
  -1  -3   6 2568.27 140.127  41
  -1  -3   6 3158.71 137.969  40
  -1  -3   6 3201.39 406.848  39
   1   3  -6 3320.70 345.480  36
  -1  -3   6 3381.18 381.355  17
  -1  -3   5 22687.2 362.696  40
  -1  -3   5 23881.5 1097.47  39
   1   3  -5 22605.2 917.541  36
  -1  -3   5 22231.9 968.294  17
  -1  -3   4 2611.55 356.593  39
  -1  -3   4 2178.20 302.815  17
   1   3  -4 2411.98 305.145  36
  -1  -3   4 2568.28 120.062  40
  -1  -3   3 4072.17 405.975  17
  -1  -3   3 3939.05 148.097  40
   1   3  -3 4646.98 437.502  36
  -1  -3   3 4394.86 463.074  39
   1   3  -2 18941.5 908.707  36
  -1  -3   2 18689.5 318.532  40
  -1  -3   2 18484.1 930.279  39
  -1  -3   2 18465.3 860.922  17
  -1  -3   1-8.41353 45.2061  39
   1   3  -1 12.3134 60.7109   5
   1   3  -1-0.34242 48.4530  36
  -1  -3   1 12.5921 13.2910  40
  -1  -3   1-0.86215 42.9837  17
  -1  -3   1-8.63161 15.7657  41
   1   3   0 2050.23 315.402  36
  -1  -3   0 2224.11 107.994  40
  -1  -3   0 2446.16 334.331  39
   1   3   0 2265.42 336.271   5
  -1  -3   0 2222.32 290.605  17
  -1  -3  -1 884.153 181.501  17
  -1  -3  -1 1124.30 226.770  39
   1   3   1 737.527 222.063   5
   1   3   1 1030.29 243.451  36
  -1  -3  -1 1120.98 133.615   3
  -1  -3  -1 977.006 72.1658  40
   1   3   2 6446.23 606.959  36
  -1  -3  -2 6609.83 184.874  40
   1   3   2 6735.22 588.922   5
  -1  -3  -2 6861.31 547.891  39
  -1  -3  -2 6488.61 488.015  17
  -1  -3  -2 6949.75 395.620   3
   1   3   3 6161.01 593.207   5
  -1  -3  -3 6819.46 542.215  39
  -1  -3  -3 6143.79 425.373   3
   1   3   3 5839.80 595.023  36
  -1  -3  -3 6377.47 180.441  40
   1   3   3 6187.23 601.041   4
  -1  -3  -3 6531.45 482.870  17
  -1  -3  -4 12.0631 15.5382  41
  -1  -3  -4 309.246 106.404  17
  -1  -3  -4 410.519 131.819   3
  -1  -3  -4 347.078 42.6138  40
   1   3   4 365.557 170.202   4
   1   3   4 289.894 133.924   5
  -1  -3  -4 433.559 138.896  39
   1   3   4 380.523 163.654  36
  -1  -3  -5 1609.72 122.124  16
  -1  -3  -5 1567.75 118.238  19
  -1  -3  -5 1885.61 250.419  17
  -1  -3  -5 1602.44 121.313  21
   1   3   5 1646.43 337.620   4
  -1  -3  -5 1777.17 126.298  11
  -1  -3  -5 1796.84 116.723  30
  -1  -3  -5 1936.20 280.524  39
   1   3   5 1498.56 308.478   5
  -1  -3  -5 1698.95 273.366   3
  -1  -3  -6 69.9097 26.4389  13
  -1  -3  -6 50.4637 28.5548  16
   1   3   6 78.1432 111.385   4
   1   3   6 10.8183 79.0239   5
  -1  -3  -6 47.7811 27.8591  11
  -1  -3  -6 50.1370 26.2122  19
  -1  -3  -6 45.2165 26.9254  21
  -1  -3  -6 74.4950 71.1436   3
  -1  -3  -7 8207.55 303.180  16
  -1  -3  -7 7978.42 278.712  13
  -1  -3  -7 7999.32 704.468   3
  -1  -3  -7 8033.53 296.375  21
  -1  -3  -7 8418.44 293.774  11
   1   3   7 6666.06 745.810  36
   1   3   7 7771.80 759.499   5
  -1  -3  -7 7843.87 291.076  19
   1   3   7 9048.95 872.902   4
  -1  -3  -8 892.993 99.9646  13
   1   3   8 1039.56 319.805   4
   1   3   8 835.492 275.332  36
   1   3   8 620.050 224.175   5
  -1  -3  -8 919.151 105.827  19
  -1  -3  -8 956.213 109.837  16
  -1  -3  -8 887.033 106.323  21
  -1  -3  -8 975.557 104.804  11
   1   3   9 903.773 302.335   4
  -1  -3  -9 759.486 98.5808  11
  -1  -3  -9 857.473 98.8561  13
   1   3   9 538.234 229.298  36
  -1  -3  -9 839.168 105.832  21
   1   3   9 915.532 285.717   5
  -1  -3  -9 871.331 106.853  16
  -1  -3  -9 823.836 104.330  19
  -1  -3 -10 3773.95 210.100  13
   1   3  10 3830.01 635.889   4
  -1  -3 -10 3603.44 223.777  19
   1   3  10 3082.02 546.492  36
  -1  -3 -10 3749.82 226.933  16
  -1  -3 -10 3742.51 211.649  11
  -1  -3 -10 3648.99 218.838  21
   1   3  11 18441.3 1395.91   4
  -1  -3 -11 17853.2 452.014  13
  -1  -3 -11 17068.6 490.807  19
  -1  -3 -11 17833.3 484.503  21
  -1  -3 -11 18801.9 454.904  11
   1   3  11 17017.2 1299.74  36
  -1  -3 -11 18395.2 503.344  16
  -1  -3 -12 1049.62 120.225  16
  -1  -3 -12 1012.40 112.587  21
  -1  -3 -12 935.230 101.704  13
  -1  -3 -12 950.876 115.278  19
  -1  -3 -12 987.880 100.491  11
  -1  -3 -13 496.944 68.7854  13
  -1  -3 -13 570.276 79.5267  21
  -1  -3 -13 619.524 80.1111  34
  -1  -3 -13 628.607 87.8734  16
  -1  -3 -14 931.653 82.9561  13
  -1  -3 -14 968.378 98.6247  16
  -1  -3 -14 956.755 92.2012  21
  -1  -3 -14 1004.81 89.7608  34
  -1  -3 -15 256.948 39.7012  21
  -1  -3 -15 264.036 46.6322  16
  -1  -3 -15 226.293 34.6217  34
  -1  -4  17 262.302 38.7846  24
   1   4 -17 216.693 38.6047  16
  -1  -4  17 222.698 35.8553  33
  -1  -4  16-6.42913 18.1265  26
   1   4 -16 3.81033 17.4871  16
  -1  -4  16-16.9817 16.7849  33
  -1  -4  15 121.634 40.4970  26
   1   4 -15 145.356 44.0628  16
  -1  -4  14 474.928 58.1222  29
  -1  -4  14 447.471 70.5872  26
  -1  -4  13 3106.44 157.295  29
  -1  -4  13 3011.43 181.798  26
  -1  -4  12 7928.44 294.704  26
  -1  -4  12 7852.88 259.796  29
  -1  -4  11 12593.6 332.230  29
  -1  -4  11 12953.5 369.715  26
  -1  -4  10 229.143 58.0791  12
  -1  -4  10 323.053 151.303  39
  -1  -4  10 305.009 51.6143  40
  -1  -4   9 6589.60 210.928   9
  -1  -4   9 6459.25 247.003  28
  -1  -4   9 6657.19 255.668  12
  -1  -4   9 6670.83 230.883  40
  -1  -4   9 6469.32 672.668  39
  -1  -4   9 6657.18 619.811  17
  -1  -4   8 35.2048 24.1710  28
  -1  -4   8 49.6912 28.1514  41
  -1  -4   8 36.1233 63.8910  39
   1   4  -8 23.5613 76.5594  36
  -1  -4   8-74.3338 78.0589  17
  -1  -4   8 4.53978 18.8444  40
  -1  -4   8 10.3965 15.7393   9
  -1  -4   7 3429.36 171.691  28
   1   4  -7 3582.90 422.946  36
  -1  -4   7 3384.31 157.206   9
  -1  -4   7 3421.90 166.812  40
  -1  -4   7 3461.47 490.477  39
  -1  -4   7 3513.29 178.127  25
  -1  -4   7 3475.67 447.892  17
  -1  -4   6 122.589 33.0705   9
   1   4  -6 109.402 86.1531  36
  -1  -4   6 166.690 39.0382  25
  -1  -4   6 161.369 38.6842  28
  -1  -4   6 20.9839 26.1399  11
  -1  -4   6 126.298 72.0158  39
  -1  -4   6 224.087 115.453  17
  -1  -4   6 160.252 37.4785  34
  -1  -4   6 16.5808 26.9859  41
  -1  -4   6 173.611 40.6135  40
  -1  -4   5 136.066 87.9542  39
  -1  -4   5 2.56233 24.1487  41
  -1  -4   5 89.1996 39.2430  11
  -1  -4   5 131.963 33.7549  28
  -1  -4   5 127.912 37.5112  40
  -1  -4   5 123.955 34.5294  25
  -1  -4   5 89.1323 68.1328  17
  -1  -4   5 124.437 32.4557   9
   1   4  -5 59.8292 86.3853  36
  -1  -4   5 131.611 36.0039  34
  -1  -4   4 17813.7 368.788  40
  -1  -4   4 16780.6 334.617   9
   1   4  -4 18187.5 1009.93  36
  -1  -4   4 17636.4 375.720  25
  -1  -4   4 18437.0 408.348  11
  -1  -4   4 18116.5 1088.41  39
  -1  -4   4 17790.3 998.185  17
  -1  -4   4 17416.1 378.952  34
  -1  -4   3 2789.06 145.385  40
  -1  -4   3 2592.81 130.199   9
  -1  -4   3 2885.11 436.825  39
   1   4  -3 2804.32 407.158  36
  -1  -4   3 2729.56 392.769  17
  -1  -4   2 84.2060 27.9313   9
  -1  -4   2 91.4433 80.2229  17
  -1  -4   2-1.04167 23.4413  41
   1   4  -2-16.5846 68.2502  36
   1   4  -2 16.4092 70.8103   5
  -1  -4   2 87.0760 31.3458  40
  -1  -4   2 64.6160 86.3115  39
  -1  -4   1 19827.4 376.787  40
  -1  -4   1 18972.5 1079.76  39
  -1  -4   1 20740.0 1045.18  17
   1   4  -1 19790.5 1124.07  36
  -1  -4   1 20759.0 358.009   9
  -1  -4   1 20425.2 423.715  11
   1   4  -1 21488.8 1210.20   5
   1   4   0 9645.90 810.727  36
  -1  -4   0 9959.07 775.613  39
  -1  -4   0 10698.5 301.660  21
  -1  -4   0 10001.6 265.378  40
  -1  -4   0 11033.8 314.871  11
  -1  -4   0 10852.1 749.531  17
  -1  -4   0 10438.9 251.634   9
   1   4   0 10471.8 849.169   5
  -1  -4  -1 6157.41 234.101  21
  -1  -4  -1 6331.48 238.501  28
  -1  -4  -1 5920.08 203.484  40
  -1  -4  -1 6546.37 244.529  11
  -1  -4  -1 6438.36 617.163  39
  -1  -4  -1 6338.16 564.694  17
   1   4   1 5635.07 633.149  36
  -1  -4  -1 5941.76 187.545   9
   1   4   1 6039.52 637.779   5
  -1  -4  -2 7980.42 260.920  13
  -1  -4  -2 8006.49 681.148  39
  -1  -4  -2 7987.13 276.265  16
   1   4   2 8088.93 777.983  36
   1   4   2 8531.77 772.161   5
  -1  -4  -2 7937.72 215.080   9
  -1  -4  -2 7944.48 232.881  40
  -1  -4  -2 8099.06 629.029  17
  -1  -4  -2 7978.02 273.968  21
  -1  -4  -2 7773.11 256.032  34
   1   4   2 8379.26 768.311   4
   1   4   3-45.1948 88.7810   4
  -1  -4  -3 11.5142 51.4430  17
  -1  -4  -3-3.60906 12.1459   9
  -1  -4  -3-3.43401 63.0180  39
  -1  -4  -3 8.29693 12.5687  40
  -1  -4  -3 20.3512 21.9592  13
   1   4   3-10.4568 85.9038   5
  -1  -4  -3-5.41868 16.0166  21
  -1  -4  -3 20.2587 25.4731  11
   1   4   3-7.27008 70.0217  36
  -1  -4  -3-11.7607 18.0292  16
  -1  -4  -3-6.25510 22.1844  34
  -1  -4  -4 17919.6 438.984  11
  -1  -4  -4 18498.4 345.595  40
  -1  -4  -4 17735.0 407.668  34
  -1  -4  -4 19312.0 1027.40  39
  -1  -4  -4 17658.5 901.252  17
  -1  -4  -4 17772.1 434.908  21
   1   4   4 17939.3 1238.15  36
  -1  -4  -4 18156.4 442.112  16
  -1  -4  -4 17400.0 375.278  15
   1   4   4 18128.7 1188.87   4
  -1  -4  -4 17929.6 412.219  13
   1   4   4 17658.7 1179.96   5
   1   4   5 2191.32 425.702   5
  -1  -4  -5 2363.27 155.312  13
  -1  -4  -5 2382.26 167.126  21
  -1  -4  -5 2314.78 317.169  17
   1   4   5 2353.15 484.954  36
  -1  -4  -5 2430.18 168.026  16
  -1  -4  -5 1998.01 315.860   3
  -1  -4  -5 2303.68 152.551  34
  -1  -4  -5 2323.70 160.842  11
  -1  -4  -5 2312.40 140.429  15
   1   4   5 2363.32 443.230   4
  -1  -4  -6 65.3225 33.9750  13
   1   4   6 18.0919 76.4635   4
  -1  -4  -6 49.1953 32.3809  21
  -1  -4  -6 69.6305 33.5819  34
   1   4   6 54.5541 103.117  36
  -1  -4  -6 51.1562 30.6806  16
  -1  -4  -6 52.0424 24.6513  15
  -1  -4  -6 73.5525 34.1063  11
   1   4   6 4.55458 67.0300   5
  -1  -4  -7 21.4544 18.8381  13
   1   4   7-13.5794 126.700   4
   1   4   7 5.50429 112.106   5
  -1  -4  -7 46.1270 32.8400  11
  -1  -4  -7 28.5490 20.9660  34
  -1  -4  -7 16.0826 26.5348  21
  -1  -4  -7 31.9795 29.1190  16
  -1  -4  -7 4.55052 19.2918  15
   1   4   7 37.4046 79.9984  36
   1   4   8 117.448 140.272  36
  -1  -4  -8 128.230 49.0379  11
  -1  -4  -8 289.126 62.6642  13
  -1  -4  -8 247.243 59.8477  16
   1   4   8 255.168 193.670   4
  -1  -4  -8 214.467 57.4800  21
   1   4   8 271.178 131.326   5
  -1  -4  -8 266.089 57.2107  34
  -1  -4  -9 1948.06 163.241  21
   1   4   9 1754.77 428.106   5
   1   4   9 1781.78 428.042   4
  -1  -4  -9 1970.74 148.764  34
  -1  -4  -9 1871.73 148.303  13
   1   4   9 1871.68 438.212  36
  -1  -4  -9 1805.39 161.203  16
  -1  -4  -9 1768.98 120.922  35
  -1  -4  -9 1863.52 153.154  11
  -1  -4 -10 629.224 82.7128  34
  -1  -4 -10 618.758 84.0945  13
   1   4  10 175.934 142.510   5
   1   4  10 733.096 256.544   4
   1   4  10 437.627 204.651  36
  -1  -4 -10 25.3260 27.8701  11
  -1  -4 -10 746.171 105.565  16
  -1  -4 -10 615.522 92.1753  21
  -1  -4 -11 66.9728 26.9660  11
  -1  -4 -11 90.1267 33.0950  34
  -1  -4 -11 31.5892 22.7488  13
  -1  -4 -11 84.1417 38.8328  21
  -1  -4 -11 48.6120 32.9701  16
  -1  -4 -12 1019.69 95.4184  13
  -1  -4 -12 1092.22 107.973  21
  -1  -4 -12 1164.21 94.0703  11
  -1  -4 -12 1097.90 93.7564  34
  -1  -4 -12 1116.35 117.796  16
  -1  -4 -13 173.058 35.3063  13
  -1  -4 -13 230.077 50.3698  16
  -1  -4 -13 199.112 42.1756  21
  -1  -4 -14 261.968 37.9509  21
  -1  -4 -14 183.920 37.8915  16
  -1  -5  16 282.254 42.1391  26
   1   5 -16 247.230 43.8117  16
  -1  -5  16 248.440 39.0181  33
   1   5 -15 534.702 70.0826  16
  -1  -5  15 630.685 70.9776  26
  -1  -5  15 694.562 74.3958  33
  -1  -5  15 562.516 52.5164  29
  -1  -5  14 8.65777 14.5498  29
  -1  -5  14 4.73102 19.2762  26
  -1  -5  13 1135.43 106.678  26
  -1  -5  13 1243.25 99.3047  29
  -1  -5  12 1038.81 97.0417  29
  -1  -5  12 946.341 101.755  26
  -1  -5  11 2669.62 147.078  40
  -1  -5  11 1824.84 136.494  12
  -1  -5  10 2207.16 126.500   9
  -1  -5  10 2161.27 140.501  40
  -1  -5  10 2506.54 461.152  39
  -1  -5   9-17.1605 25.1734  40
  -1  -5   9 2.25169 20.3306  28
  -1  -5   9-34.8481 72.8640  17
  -1  -5   9 48.0786 95.3017  39
  -1  -5   9 22.4443 21.9115   9
  -1  -5   8 10046.2 930.841  39
  -1  -5   8 10120.7 305.066  28
  -1  -5   8 10311.8 868.623  17
  -1  -5   8 10315.5 317.745  40
  -1  -5   8 9967.93 286.224   9
  -1  -5   7 11.4560 23.0246  25
   1   5  -7-41.8784 75.0345  36
  -1  -5   7 6.72969 24.8715  41
  -1  -5   7-7.90545 23.1310  40
  -1  -5   7 74.9696 98.1193  39
  -1  -5   7 8.63313 20.5328  28
  -1  -5   7 36.9345 67.4343  17
  -1  -5   7-0.50825 17.4439   9
  -1  -5   6 19.1527 24.4667  40
  -1  -5   6 7.53139 18.9995  28
  -1  -5   6-9.39001 17.8846  25
  -1  -5   6-19.9836 60.6060  17
  -1  -5   6 6.73820 22.4456  11
  -1  -5   6-30.1668 37.5167  41
  -1  -5   6-2.71589 24.3920  34
  -1  -5   6-1.30612 108.341  39
   1   5  -6-11.5801 65.2024  36
  -1  -5   6-3.42663 18.3802   9
  -1  -5   5 481.952 66.6097  28
   1   5  -5-110.375 129.830   6
  -1  -5   5 448.326 70.0842  25
   1   5  -5 384.185 178.864  36
  -1  -5   5 499.787 67.2332   9
  -1  -5   5 218.789 69.1275  11
  -1  -5   5-0.81964 32.7416  41
  -1  -5   5 430.812 67.4511  40
  -1  -5   5 448.711 204.940  39
  -1  -5   5 523.531 63.5267  35
   1   5  -5-16.5193 111.157   5
  -1  -5   5 439.345 168.131  17
  -1  -5   5 513.547 71.9181  34
   1   5  -4 163.597 111.364  36
  -1  -5   4 210.018 45.8653  28
  -1  -5   4 211.142 47.3358  25
  -1  -5   4 115.143 54.5789  11
  -1  -5   4 224.490 44.4000  35
  -1  -5   4-1.08339 27.4621  41
  -1  -5   4 260.364 53.1626  40
   1   5  -4-74.9691 110.437   6
  -1  -5   4 239.275 133.543  39
  -1  -5   4 224.959 46.4102  34
  -1  -5   4 235.667 149.377  17
  -1  -5   4 206.704 43.8704   9
   1   5  -4 46.1125 137.395   5
  -1  -5   4 269.013 50.6990  15
  -1  -5   3 24.7600 24.7818  40
  -1  -5   3-8.60681 23.0184  25
  -1  -5   3-16.0678 27.1565  11
   1   5  -3-10.9282 96.9018   5
  -1  -5   3 9.72656 37.4233  41
  -1  -5   3 20.6784 78.2738  17
  -1  -5   3 11.1964 66.0314  39
  -1  -5   3 5.15675 18.6171  10
   1   5  -3-63.5536 116.605  36
  -1  -5   3 1.57819 19.6943  35
  -1  -5   3-2.07103 15.2986  34
  -1  -5   3 10.2913 18.7278   9
  -1  -5   3 18.7818 19.0373  15
  -1  -5   3-12.9488 17.6352  28
  -1  -5   2 4222.95 190.727  35
   1   5  -2 3700.03 623.131   5
  -1  -5   2 4167.56 200.186  28
  -1  -5   2 4208.51 182.025   9
  -1  -5   2 4706.25 230.496  11
  -1  -5   2 4251.17 199.726  40
  -1  -5   2 4176.06 583.395  39
  -1  -5   2 4208.57 206.180  10
  -1  -5   2 4308.90 543.860  17
   1   5  -2 3803.00 559.423  36
  -1  -5   2 3932.58 189.898  34
  -1  -5   2 3945.69 183.691  15
  -1  -5   1 101.315 31.2190   9
  -1  -5   1 18.4583 28.1049  41
  -1  -5   1 108.899 38.4620  28
  -1  -5   1 54.2579 33.4045  11
  -1  -5   1 68.4890 28.9552  40
  -1  -5   1 91.2033 35.5916  10
   1   5  -1 239.462 161.281   5
  -1  -5   1 104.965 90.2792  17
  -1  -5   1 57.6450 24.6669  34
  -1  -5   1 141.836 122.959  39
  -1  -5   1 69.4012 25.2279  15
   1   5  -1 83.3728 107.463  36
  -1  -5   0 1065.46 90.8969   9
  -1  -5   0 923.847 96.3884  13
  -1  -5   0 1006.65 102.341  28
  -1  -5   0 959.140 94.5152  40
   1   5   0 1052.32 307.090  36
   1   5   0 790.489 262.878   5
  -1  -5   0 1056.51 292.539  39
  -1  -5   0 876.441 234.753  17
  -1  -5   0 952.571 91.3099  15
  -1  -5   0 983.720 96.5527  34
  -1  -5   0 1066.26 108.946  10
  -1  -5   0 1060.63 111.331  11
  -1  -5  -1 46.3900 22.0563  28
   1   5   1 204.820 156.598   4
  -1  -5  -1 70.9189 29.4875  15
  -1  -5  -1 14.0209 24.3107  10
  -1  -5  -1 69.5263 31.4194  40
  -1  -5  -1 46.8279 33.0122  11
  -1  -5  -1 47.2453 27.8739  21
  -1  -5  -1 138.590 113.297  39
  -1  -5  -1 108.949 34.1496   9
  -1  -5  -1 65.0816 28.3044  13
  -1  -5  -1 50.3867 53.2880  17
   1   5   1 166.850 155.330   5
  -1  -5  -1 92.2654 31.4926  34
   1   5   1 72.1830 89.0537  36
  -1  -5  -2 1596.11 137.612  21
  -1  -5  -2 1620.15 138.705  10
  -1  -5  -2 1738.57 325.447  17
  -1  -5  -2 1661.20 136.141  28
   1   5   2 1743.55 380.470   4
  -1  -5  -2 1539.80 118.429  15
   1   5   2 1749.36 398.854   5
  -1  -5  -2 1774.51 122.870  40
   1   5   2 1467.14 373.150  36
  -1  -5  -2 1654.87 109.692   9
  -1  -5  -2 1680.40 143.238  11
  -1  -5  -2 1666.07 354.373  39
  -1  -5  -2 1682.71 127.865  34
  -1  -5  -2 1591.97 129.683  13
  -1  -5  -3 3142.42 185.868  13
  -1  -5  -3 3355.11 199.664  28
  -1  -5  -3 3127.81 148.273   9
  -1  -5  -3 3221.83 172.013  15
   1   5   3 3103.49 552.887   5
  -1  -5  -3 3023.58 195.409  21
  -1  -5  -3 3256.93 198.612  10
  -1  -5  -3 3382.06 452.446  17
   1   5   3 3109.47 555.012  36
  -1  -5  -3 3485.32 496.281  39
  -1  -5  -3 3300.26 202.306  11
  -1  -5  -3 3275.40 163.071  40
  -1  -5  -3 3192.79 177.138  34
   1   5   3 3819.38 577.155   4
  -1  -5  -4 10.6725 27.6239  41
  -1  -5  -4 315.740 62.4443  13
  -1  -5  -4 349.830 70.6714  11
  -1  -5  -4 325.850 51.2375  40
   1   5   4 473.947 216.824   4
  -1  -5  -4 263.687 120.959  17
   1   5   4 324.996 184.758   5
   1   5   4 636.746 267.906  36
  -1  -5  -4 358.571 71.0385  16
  -1  -5  -4 306.406 57.2711  34
  -1  -5  -4 332.023 47.9905   9
  -1  -5  -4 340.675 58.1838  15
  -1  -5  -4 246.156 59.4460  21
   1   5   5 2744.33 506.932   4
  -1  -5  -5 3217.20 193.804  13
  -1  -5  -5 3095.44 202.658  11
   1   5   5 3275.52 569.994   5
   1   5   5 3038.96 574.693  36
  -1  -5  -5 3179.45 180.465  34
  -1  -5  -5 2960.18 165.999  15
  -1  -5  -5 2808.19 193.147  21
  -1  -5  -5 3208.29 209.327  16
  -1  -5  -6 96.5204 42.8985  11
   1   5   6 194.260 140.560   4
   1   5   6 230.130 160.000   5
  -1  -5  -6 89.7427 40.6801  21
  -1  -5  -6 117.222 34.2325  15
   1   5   6 71.1439 82.9269  36
  -1  -5  -6 72.2273 30.2379  34
  -1  -5  -6 82.4668 37.5838  16
  -1  -5  -6 69.5858 33.1516  13
  -1  -5  -7 122.044 42.0391  21
   1   5   7 120.630 156.658   4
  -1  -5  -7 107.815 50.3924  16
   1   5   7 36.3089 90.1375   5
   1   5   7 70.9351 133.641  36
  -1  -5  -7 152.218 39.8118  34
  -1  -5  -7 160.212 46.7978  13
  -1  -5  -7 163.094 49.9381  11
   1   5   8 60.9313 133.146   5
  -1  -5  -8 174.692 53.1754  11
  -1  -5  -8 143.851 42.7571  13
   1   5   8 109.753 62.9511   4
  -1  -5  -8 196.542 53.8880  21
   1   5   8-110.750 117.329  36
  -1  -5  -8 154.059 39.3858  35
  -1  -5  -8 154.165 55.0672  16
  -1  -5  -8 145.704 40.0057  34
  -1  -5  -9 921.857 103.104  11
  -1  -5  -9 826.037 94.4872  13
  -1  -5  -9 959.152 87.5256  35
  -1  -5  -9 943.779 113.092  16
  -1  -5  -9 874.924 106.007  21
  -1  -5 -10 382.344 67.1780  21
  -1  -5 -10 403.050 73.3615  16
  -1  -5 -10 378.654 58.5460  13
  -1  -5 -10 369.159 56.8791  11
  -1  -5 -11 562.969 66.3283  13
  -1  -5 -11 495.543 56.7493  11
  -1  -5 -11 575.892 72.8056  21
  -1  -5 -11 617.979 80.8842  16
  -1  -5 -12 257.660 47.0475  28
  -1  -5 -12 340.591 54.4945  16
  -1  -6  14 664.263 59.3166  29
  -1  -6  14 661.392 64.6577  33
  -1  -6  14 630.555 64.3439  26
  -1  -6  13 256.211 43.7657  29
  -1  -6  13 235.467 45.9427  26
  -1  -6  12 2827.25 149.486  29
  -1  -6  12 2808.68 156.749  26
  -1  -6  11 310.707 57.2757  29
  -1  -6  11 272.526 40.2051   9
  -1  -6  11 241.948 45.4585  40
  -1  -6  10 868.391 80.7623   9
  -1  -6  10 725.918 83.4149  40
  -1  -6   9 6367.44 229.009   9
  -1  -6   9 6138.81 249.250  40
  -1  -6   9 5991.02 744.432  39
  -1  -6   9 6123.35 687.341  17
  -1  -6   8 588.954 74.8551   9
  -1  -6   8 501.111 76.8949  40
  -1  -6   8 621.071 237.403  17
  -1  -6   8 408.075 214.059  39
  -1  -6   7 471.796 75.9203  40
  -1  -6   7 520.605 241.597  39
   1   6  -7 557.879 216.754  36
  -1  -6   7 761.178 251.978  17
  -1  -6   7 429.677 72.0245  25
  -1  -6   7 486.781 70.3239   9
  -1  -6   6 132.792 37.9713   9
  -1  -6   6 153.877 90.6153  17
  -1  -6   6 145.965 45.4450  25
  -1  -6   6 5.13503 40.3494  11
  -1  -6   6 2.86110 36.9264  41
   1   6  -6 67.3716 89.0581   5
  -1  -6   6 62.4685 98.9151  39
  -1  -6   6 137.127 44.8475  40
   1   6  -6-22.6583 96.3134  36
  -1  -6   5 92.1990 65.5660  11
  -1  -6   5 491.935 66.0018  35
  -1  -6   5 458.110 77.2580  40
  -1  -6   5 25.1260 39.6610  41
  -1  -6   5 280.301 191.078  39
   1   6  -5 366.348 228.185   5
   1   6  -5 451.609 213.018  36
  -1  -6   5 565.794 224.278  17
  -1  -6   5 385.807 68.8499  25
  -1  -6   5 472.175 73.5732   9
  -1  -6   5 471.021 69.4220  34
  -1  -6   5 439.676 64.8357  28
  -1  -6   4 152.869 40.3331  28
  -1  -6   4 144.092 43.4930  25
  -1  -6   4 121.740 34.5639  35
  -1  -6   4 43.3575 48.3056  11
  -1  -6   4-5.32653 36.9395  41
  -1  -6   4 127.871 43.0001  40
  -1  -6   4 89.1267 127.042  39
   1   6  -4 210.587 141.814  36
  -1  -6   4 147.762 141.647  17
  -1  -6   4 135.659 43.7371   9
  -1  -6   4 105.312 36.7887  34
  -1  -6   4 129.550 41.2987  15
   1   6  -4 34.9796 71.3206   5
  -1  -6   3 476.468 70.0932   9
  -1  -6   3 500.245 72.3338  28
  -1  -6   3 445.467 73.3697  25
  -1  -6   3-5.28983 31.8422  41
  -1  -6   3 399.342 86.5070  11
  -1  -6   3 384.150 182.997  39
  -1  -6   3 481.775 70.4586  35
   1   6  -3 460.322 222.785   5
   1   6  -3 279.376 177.903  36
  -1  -6   3 482.151 206.027  17
  -1  -6   3 500.663 71.8369  34
  -1  -6   3 493.431 79.2981  40
  -1  -6   3 457.251 68.5475  15
   1   6  -2 2173.48 467.603  36
  -1  -6   2 2080.68 141.882  15
  -1  -6   2 2266.33 164.501  10
  -1  -6   2 2220.34 163.012  25
   1   6  -2 2249.85 470.465   5
  -1  -6   2 2190.24 144.430   9
  -1  -6   2 2296.31 182.839  11
  -1  -6   2 2260.99 159.081  40
  -1  -6   2 2214.36 150.044  35
  -1  -6   2 2278.71 435.155  17
  -1  -6   2 2236.31 146.678  34
  -1  -6   2 2327.03 155.514  28
  -1  -6   2 2180.35 463.506  39
  -1  -6   1 127.369 37.4769  15
  -1  -6   1 138.194 130.612  39
  -1  -6   1 85.5748 33.8933  28
  -1  -6   1 112.406 34.5095   9
  -1  -6   1 114.853 41.4938  40
  -1  -6   1 80.6131 33.2562  34
  -1  -6   1 82.3411 38.1521  10
  -1  -6   1 379.873 180.135  17
   1   6  -1 63.8918 110.836  36
   1   6  -1 131.663 158.936   5
  -1  -6   1 80.3403 33.9903  35
  -1  -6   1 158.513 56.8290  11
  -1  -6   0 4904.80 206.489   9
  -1  -6   0 4775.20 262.943  11
   1   6   0 5114.45 678.282   4
   1   6   0 4278.89 656.067   5
  -1  -6   0 4757.20 222.647  40
  -1  -6   0 4905.02 675.080  39
  -1  -6   0 4512.95 237.110  10
  -1  -6   0 4803.32 225.628  35
   1   6   0 4176.61 655.640  36
  -1  -6   0 4725.71 210.369  34
  -1  -6   0 4749.83 605.038  17
  -1  -6   0 4490.57 207.683  15
  -1  -6   0 4761.62 228.946  28
   1   6   1-147.790 135.521  36
  -1  -6  -1-2.84851 22.3520  13
  -1  -6  -1 9.09620 22.5770  28
  -1  -6  -1 14.4202 29.6451  11
  -1  -6  -1 27.8339 23.5750  15
  -1  -6  -1-82.0886 114.737  39
   1   6   1 18.0748 80.1048   4
  -1  -6  -1 51.4244 94.0894  17
   1   6   1-17.1429 79.4958   5
  -1  -6  -1 48.0658 32.2470  35
  -1  -6  -1-3.17796 15.9199   9
  -1  -6  -1-0.67011 22.4402  40
  -1  -6  -1 15.4421 25.9834  10
   1   6   2 341.805 230.767   5
  -1  -6  -2 222.880 46.6692  40
  -1  -6  -2 148.388 44.4659  13
  -1  -6  -2 165.088 46.8761  28
   1   6   2 135.760 152.380   4
  -1  -6  -2 204.482 59.2547  11
  -1  -6  -2 197.484 56.9230  10
   1   6   2 85.7539 122.024  36
  -1  -6  -2 173.660 148.332  39
  -1  -6  -2 192.772 41.1894   9
  -1  -6  -2 192.519 46.9311  15
  -1  -6  -2 236.862 136.784  17
  -1  -6  -3 238.709 60.4777  11
  -1  -6  -3 224.618 56.6142  13
  -1  -6  -3 209.975 54.9465  28
   1   6   3-30.9442 86.1118   4
  -1  -6  -3 188.776 127.735  17
   1   6   3-43.7563 98.9436  36
  -1  -6  -3 205.557 40.8204   9
  -1  -6  -3 211.074 43.3984  40
   1   6   3 222.354 181.778   5
  -1  -6  -3-0.56835 23.4316  41
  -1  -6  -3 220.286 50.1819  15
  -1  -6  -3 209.066 56.2475  10
  -1  -6  -4 4422.47 227.455  13
  -1  -6  -4 4564.96 237.654  28
  -1  -6  -4 4728.68 254.983  11
  -1  -6  -4 4782.09 253.556  10
   1   6   4 4364.27 707.539  36
  -1  -6  -4 4621.26 226.291  35
  -1  -6  -4 4359.36 197.909  15
   1   6   4 5093.44 683.555   4
   1   6   4 4826.90 701.463   5
  -1  -6  -5 50.4954 25.7314  15
  -1  -6  -5 33.5904 27.5210  13
  -1  -6  -5 44.4726 34.3774  28
   1   6   5 24.0927 113.911   4
  -1  -6  -5 72.0847 47.1191  10
   1   6   5-53.7468 145.851   5
  -1  -6  -5 38.0107 33.3743  35
  -1  -6  -5 56.1191 36.2628  11
  -1  -6  -6 152.256 50.8041  10
  -1  -6  -6 141.572 43.2854  13
  -1  -6  -6 97.5010 40.9197  11
  -1  -6  -6 110.826 41.7471  28
  -1  -6  -6 104.673 34.8198  35
  -1  -6  -7 1004.80 108.211  28
  -1  -6  -7 917.552 96.3738  13
  -1  -6  -7 880.415 101.261  11
  -1  -6  -7 975.651 109.798  10
  -1  -6  -7 796.426 85.4417  35
  -1  -6  -8 260.883 57.9996  10
  -1  -6  -8 188.504 42.5414  13
  -1  -6  -8 209.772 51.0594  28
  -1  -6  -8 229.543 47.8934  11
  -1  -6  -8 249.539 47.0295  35
  -1  -6  -9 957.768 82.2468  13
  -1  -6  -9 1117.96 101.759  28
  -1  -6  -9 1030.27 85.8954  11
  -1  -6  -9 1111.37 104.303  10
  -1  -6  -9 1100.38 78.4190  35
  -1  -6 -10 76.8564 26.1356  28
  -1  -6 -10 127.934 37.2750  10
  -1  -7  13 5.78384 12.0537  29
  -1  -7  13-3.24264 10.5278  26
  -1  -7  12 46.7529 19.0525  26
  -1  -7  12 49.3724 20.3865  29
  -1  -7  11 19.2893 16.0026  29
  -1  -7  11 40.2171 20.3978  40
  -1  -7  11 46.6994 18.0395   9
  -1  -7  11 32.4054 19.3469  26
  -1  -7  10 282.145 50.7680  29
   1   7 -10 229.042 41.2210  42
  -1  -7  10 231.475 40.0318   9
  -1  -7  10 206.287 42.7838  40
  -1  -7   9 1708.24 118.341  29
  -1  -7   9 1747.75 125.681  40
  -1  -7   9 1671.61 110.721   9
  -1  -7   8 380.665 64.9225  40
  -1  -7   8 414.387 61.7427   9
  -1  -7   7 361.013 66.7024  25
  -1  -7   7 382.837 68.3673  40
  -1  -7   7 406.078 62.1342   9
  -1  -7   6 549.350 83.2086  25
  -1  -7   6 590.651 75.7337   9
  -1  -7   6 515.455 80.7864  40
  -1  -7   5 300.378 63.6098  40
  -1  -7   5 289.356 60.4203  25
   1   7  -5 88.4524 69.8604   5
  -1  -7   5 389.524 206.169  17
  -1  -7   5 339.069 53.6199  35
  -1  -7   5 420.084 197.739  39
  -1  -7   5 319.014 60.1876   9
  -1  -7   4 119.123 36.3343  35
  -1  -7   4 174.229 46.5201  25
  -1  -7   4 183.997 50.1139  40
   1   7  -4 367.779 163.979  36
   1   7  -4 187.991 181.660   5
  -1  -7   4 161.212 49.0517   9
  -1  -7   4 29.2905 125.389  39
  -1  -7   4 278.166 149.785  17
  -1  -7   4 52.9254 56.1242  11
  -1  -7   3 133.952 42.9714  40
  -1  -7   3 105.465 36.4689  35
   1   7  -3-30.7094 193.348   4
  -1  -7   3 171.478 52.0540  25
   1   7  -3 125.350 121.502  36
  -1  -7   3 148.710 82.1125  17
   1   7  -3 9.51062 77.7792   5
  -1  -7   3 128.862 61.7050  11
  -1  -7   3 124.697 39.3557   9
  -1  -7   3 125.866 38.1828  15
  -1  -7   3-159.860 136.678  39
  -1  -7   2 541.113 231.825  39
  -1  -7   2 626.326 73.9356  28
  -1  -7   2 589.995 86.9738  25
  -1  -7   2 567.217 76.1009   9
  -1  -7   2 399.858 91.3774  11
  -1  -7   2 579.999 81.2995  40
  -1  -7   2 632.003 80.9349  35
  -1  -7   2 648.726 241.297  17
   1   7  -2 393.323 248.078  36
   1   7  -2 553.124 238.560   5
  -1  -7   2 574.178 75.3474  15
  -1  -7   1 56.1979 32.1039  25
  -1  -7   1 64.4984 43.4757  11
  -1  -7   1 28.6787 24.7641  40
  -1  -7   1 177.045 124.978  39
  -1  -7   1 11.2675 82.5070  17
   1   7  -1-82.4689 144.755  36
  -1  -7   1 30.1916 28.9849  10
  -1  -7   1 27.9868 27.0911  35
  -1  -7   1 54.2452 27.1881  15
   1   7  -1 74.0856 159.883   5
  -1  -7   1 8.28810 15.2528  28
  -1  -7   1 67.7505 32.9985   9
  -1  -7   0 5054.29 216.760  28
   1   7   0 3860.99 686.536   5
  -1  -7   0 4885.08 243.060  25
  -1  -7   0 4718.11 605.880  17
  -1  -7   0 4776.29 240.387  10
  -1  -7   0 5090.49 270.416  11
  -1  -7   0 4246.13 643.133  39
   1   7   0 4363.13 674.336  36
  -1  -7   0 4656.32 201.666  15
  -1  -7   0 5065.19 228.931  35
  -1  -7   0 4800.23 200.899   9
  -1  -7   0 4993.42 221.704  40
  -1  -7  -1 3068.55 152.744   9
  -1  -7  -1 3181.60 171.031  40
  -1  -7  -1 2989.72 168.327  28
  -1  -7  -1 2742.27 152.520  15
  -1  -7  -1 3328.53 212.664  11
  -1  -7  -1 3043.04 193.049  10
  -1  -7  -1 3017.36 178.963  35
  -1  -7  -2 1043.38 100.588  28
  -1  -7  -2 1166.81 124.543  11
  -1  -7  -2 992.391 113.069  10
  -1  -7  -2 1088.61 108.649  35
  -1  -7  -2 939.549 86.8425  15
  -1  -7  -2 1107.62 94.3942  40
  -1  -7  -2 1037.36 85.0564   9
  -1  -7  -3 3137.21 173.874  28
  -1  -7  -3 3326.16 199.304  11
  -1  -7  -3 3123.45 192.522  10
  -1  -7  -3 2926.34 128.581   9
  -1  -7  -3 3157.93 178.015  35
  -1  -7  -3 2743.89 141.022  15
  -1  -7  -4 1200.95 117.977  10
  -1  -7  -4 1250.29 108.580  28
  -1  -7  -4 1388.03 124.293  11
  -1  -7  -4 1312.13 111.862  35
  -1  -7  -5 461.249 63.9148  28
  -1  -7  -5 520.781 72.5549  11
  -1  -7  -5 492.802 74.1480  10
  -1  -7  -5 413.402 60.4756  35
  -1  -7  -6 49.6853 27.2457  11
  -1  -7  -6 73.3884 25.3581  28
  -1  -7  -6 93.0439 36.0594  10
  -1  -7  -6 64.9723 26.2708  35
  -1  -7  -7 227.891 40.6599  28
  -1  -7  -7 229.694 44.6325  10
  -1  -7  -7 236.244 40.5418  11
  -1  -7  -7 260.969 41.2916  35
  -1  -7  -8 443.925 50.0991  28
  -1  -7  -8 350.822 38.8587  11
  -1  -7  -8 436.572 43.5131  35
  -1  -7  -8 514.520 59.6763  10
  -1  -8  10 379.021 36.9314   9
  -1  -8  10 436.860 42.9907  26
  -1  -8  10 398.450 44.2947  29
  -1  -8   9-1.85958 12.7693  40
  -1  -8   9-10.9800 12.4852  29
  -1  -8   9 8.86800 11.2724  26
  -1  -8   9 11.1133 13.0708   9
  -1  -8   8 647.520 69.0276  40
  -1  -8   8 630.487 61.2995   9
   1   8  -8 551.403 60.7925  42
  -1  -8   8 681.630 62.2439  29
  -1  -8   7 732.726 65.8372  29
  -1  -8   7 643.746 65.5006   9
  -1  -8   7 744.603 77.3267  40
  -1  -8   6 6.19627 19.0329  41
  -1  -8   6 14.8654 16.8844   9
  -1  -8   6-21.3679 24.8349  40
  -1  -8   6-1.64578 13.9139  29
  -1  -8   5 10.8807 18.5524  40
  -1  -8   5 5.32836 10.7343  29
  -1  -8   5 11.1964 20.9950  25
  -1  -8   5 13.9355 20.8657  41
  -1  -8   5-2.92069 22.1721   9
  -1  -8   4 365.341 43.5897  29
  -1  -8   4 428.638 63.9224  25
  -1  -8   4 325.102 46.1259  35
  -1  -8   4 338.141 52.0523   9
  -1  -8   4 346.858 58.1460  40
  -1  -8   3 166.806 41.6833  40
  -1  -8   3 181.891 39.2999   9
  -1  -8   3 163.671 38.0554  25
  -1  -8   3 158.865 35.4975  35
  -1  -8   2 183.607 42.5394  25
  -1  -8   2 100.522 43.2075  11
  -1  -8   2 199.949 40.2971  35
  -1  -8   2 212.496 43.8812  40
  -1  -8   2 228.841 43.9213   9
  -1  -8   1 4427.76 196.643  25
  -1  -8   1 4462.92 182.821  35
  -1  -8   1 4280.40 182.007  40
  -1  -8   1 4587.87 171.491   9
  -1  -8   0 29.2616 18.5893   9
  -1  -8   0-2.60323 14.5235  40
  -1  -8   0 23.9969 19.7822  25
  -1  -8   0 15.5065 20.7468  35
  -1  -8   0 20.4795 24.0405  11
  -1  -8  -1 268.107 47.7341  25
  -1  -8  -1 282.203 38.3092   9
  -1  -8  -1 303.027 55.7756  11
  -1  -8  -1 270.997 46.5659  35
  -1  -8  -2 353.244 54.5775  25
  -1  -8  -2 324.601 51.1582  35
  -1  -8  -2 334.814 56.7250  11
  -1  -8  -3 561.026 74.8141  11
  -1  -8  -3 693.611 73.5440  10
  -1  -8  -3 751.053 70.9124  35
  -1  -8  -3 732.456 71.3055  25
  -1  -8  -4 55.5882 20.1686  25
  -1  -8  -4 85.8382 26.1977  10
  -1  -8  -4 49.8035 24.0473  11
  -1  -8  -4 72.0655 23.2366  35
   2  -9  -2 110.138 22.7898  25
   2  -9  -2 119.921 29.6423  15
   2  -9  -1 48.2441 16.1358  25
   2  -9  -1-10.5913 15.3202  12
   2  -9  -1 38.2546 19.0248  15
   2  -9   0-5.82913 11.0637  25
   2  -9   0 4.83688 14.2945  12
   2  -9   1-0.28493 16.1422  12
   2  -9   1-6.86013 15.6535  25
   2  -9   1 1.72861 18.9011  15
   2  -9   1-0.63823 10.5224   9
  -2   9  -1-8.35485 16.4146  42
   2  -9   2 377.521 45.0787  25
   2  -9   2 262.987 45.9061  12
   2  -9   2 342.931 44.5202   9
   2  -9   2 405.105 55.1372  15
  -2   9  -2 328.488 45.6922  42
  -2   9  -2 376.274 45.5041  14
   2  -9   3 48.8663 23.5622  12
   2  -9   3 57.8495 21.5017  40
   2  -9   3 106.547 29.1716  15
   2  -9   3 104.914 28.3799   9
  -2   9  -3 111.036 31.2038  14
  -2   9  -3 56.8336 22.6546  42
   2  -9   4 969.737 83.8465  12
   2  -9   4 853.516 77.2743  40
   2  -9   4 926.753 74.8240   9
  -2   9  -4 828.618 73.1461  42
  -2   9  -4 799.064 72.4777  14
  -2   9  -5 251.537 42.4359  14
   2  -9   5 252.919 44.6420  12
   2  -9   5 263.919 43.8108  40
   2  -9   5 270.811 41.5392   9
  -2   9  -5 211.279 37.0412  42
  -2   9  -6-7.69544 15.9502  14
   2  -9   6-15.3836 16.1665  12
  -2   9  -6 21.3796 15.1188  42
   2  -9   6 24.1844 17.5770  40
   2  -9   6-10.9405 14.6164   9
   2  -9   7 47.0469 23.1579  12
   2  -9   7 77.2266 22.3954   9
  -2   9  -7 74.1510 23.7069  14
   2  -8  -6 79.2948 23.7327  25
   2  -8  -6 69.5609 26.0070  15
   2  -8  -5 218.578 38.8616  25
   2  -8  -5 251.372 48.8066  15
   2  -8  -4 7.79758 17.3644  25
   2  -8  -4 24.4291 23.3762  15
   2  -8  -3 1330.11 102.724  25
   2  -8  -3 1251.49 114.529  15
   2  -8  -2 113.458 33.4033  25
   2  -8  -2 91.7272 36.8039  15
  -2   8   1 142.709 31.7344  14
   2  -8  -1 128.427 37.1038  25
   2  -8  -1 122.153 41.4621  15
  -2   8   1 159.474 37.3097  42
  -2   8   0 55.3632 25.0655  14
   2  -8   0 35.9624 25.5551  25
   2  -8   0 46.0691 22.3175  40
  -2   8   0 60.3316 26.5835  42
   2  -8   0 43.7003 33.4283  15
  -2   8  -1 115.566 33.3007  14
   2  -8   1 138.365 37.8224  25
   2  -8   1 21.8413 35.2942  12
   2  -8   1 106.944 42.4087  41
   2  -8   1 149.243 38.2462  40
  -2   8  -1 144.902 41.2905  42
   2  -8   1 144.669 47.7219  15
  -2   8  -2 73.1596 33.7915  14
   2  -8   2 116.693 35.8204  25
   2  -8   2 9.91102 33.4563  12
   2  -8   2 72.7910 32.5831  15
  -2   8  -2 94.1468 35.0734  42
   2  -8   3 285.895 51.6416  25
   2  -8   3 285.313 56.9003  15
  -2   8  -3 159.246 51.0197  14
  -2   8  -3 242.916 52.6563  42
  -2   8  -4 14.8317 18.3875  42
   2  -8   4 9.62452 17.5161  25
   2  -8   4 28.3150 37.8897  12
  -2   8  -4 24.5674 27.0354  14
   2  -8   4 7.41885 21.7204  15
  -2   8  -5 32.5127 24.4982  14
  -2   8  -5 46.2445 27.5546  42
   2  -8   5 48.3158 32.8301  12
  -2   8  -6 49.1508 25.3493  42
  -2   8  -6 68.2354 31.6386  14
   2  -8   6 2.90373 22.3017  12
  -2   8  -7 313.127 57.3203  14
  -2   8  -7 330.552 54.8452  42
   2  -8   7 286.803 63.0390  12
  -2   8  -8 206.022 45.8957  14
   2  -8   8 131.216 45.2281  12
  -2   8  -8 182.750 38.8735  42
  -2   8  -9 65.5911 27.1551  42
  -2   8  -9 92.8966 32.0292  14
   2  -8   9 49.4741 27.3010  12
   2  -8   9 55.2011 24.6648  40
  -2   8 -10 240.814 38.6866  14
  -2   8 -10 223.067 36.3559  42
   2  -8  10 116.817 34.8094  12
   2  -8  10 227.985 40.4802  40
   2  -8  10 227.569 35.6381   9
   2  -8  11 12.7532 11.6466  26
   2  -8  11 11.3401 17.9463  12
  -2   8 -11 44.6267 17.3121  14
   2  -8  11 11.6321 8.59332   9
  -2   8 -11 21.1986 13.0635  22
   2  -7  -9 1817.03 113.946  13
   2  -7  -9 1876.30 121.225  15
   2  -7  -8 46.8530 22.3711  13
   2  -7  -8 24.1211 18.2166  15
   2  -7  -7 152.382 43.8979  13
   2  -7  -7 92.4953 39.7469  15
   2  -7  -6 83.2643 36.8544  13
   2  -7  -6 30.4407 31.1974  15
   2  -7  -6 108.263 32.8249  10
   2  -7  -5 22.5279 20.3107  10
   2  -7  -5 82.4854 35.3615  13
   2  -7  -5 42.0487 25.9737  15
   2  -7  -4-14.9018 19.5656  13
   2  -7  -4 20.7084 34.2899  15
   2  -7  -4-8.91546 18.4948  10
   2  -7  -3 29.7044 91.0730   3
   2  -7  -3 26.8819 21.6404  13
   2  -7  -3 206.585 49.3729  41
   2  -7  -3 26.0982 23.0580  10
   2  -7  -3-35.3514 88.4542  37
   2  -7  -3-68.5440 95.3918   2
   2  -7  -3 25.9567 28.7508  15
  -2   7   2 58.4308 62.4517  36
   2  -7  -2 75.5866 75.2742   3
   2  -7  -2 182.232 48.0496  13
   2  -7  -2 232.716 51.4191  10
   2  -7  -2 191.721 55.2842  15
   2  -7  -2 138.716 95.1772  37
  -2   7   2 218.793 42.8384  14
   2  -7  -2 300.828 161.989   2
  -2   7   2 201.607 43.9982  42
  -2   7   1-7.21382 21.8657  14
   2  -7  -1 143.049 135.378   2
  -2   7   1-5.97197 20.9420  42
   2  -7  -1 93.0688 122.737  37
  -2   7   1-86.4972 107.661  36
   2  -7  -1-2.99566 23.6914  15
   2  -7   0 730.294 291.301  37
   2  -7   0 775.649 92.3315  25
   2  -7   0 801.264 263.786   3
   2  -7   0 964.897 313.355  39
  -2   7   0 580.298 219.109  36
   2  -7   0 692.940 95.5127  15
   2  -7   0 537.813 230.589   2
  -2   7   0 734.470 86.0012  42
   2  -7   1 12.0723 27.3322  25
   2  -7   1 84.5585 105.442  37
  -2   7  -1 147.808 127.921  36
   2  -7   1 17.2483 21.3956  15
   2  -7   1-23.4867 91.3915   3
   2  -7   1 190.779 147.139   2
  -2   7  -1 7.76224 20.8073  42
   2  -7   2 63.9671 27.4471  25
   2  -7   2 80.5649 127.927  37
  -2   7  -2 198.343 52.1639  42
  -2   7  -2-25.2323 90.5350  36
   2  -7   2-29.9295 96.6787   2
   2  -7   2 83.3691 35.8557  15
   2  -7   2 144.139 156.634   3
   2  -7   3 459.625 125.854  12
   2  -7   3 994.786 100.668  25
  -2   7  -3 966.085 106.427  42
  -2   7  -3 980.825 326.464  36
   2  -7   3 1162.80 348.639  37
   2  -7   3 949.060 106.643  15
   2  -7   3 1056.85 290.502   3
   2  -7   3 1115.66 295.700   2
   2  -7   4 375.360 63.2627  25
   2  -7   4 267.231 83.2612  12
   2  -7   4 286.244 152.338   3
  -2   7  -4 417.096 70.9987  42
   2  -7   4 401.837 69.5607  15
  -2   7  -4 321.661 202.194  36
  -2   7  -5 110.460 41.3292  42
   2  -7   5 114.508 38.4778  25
   2  -7   5 93.0006 45.6040  12
  -2   7  -5 127.044 126.878  36
   2  -7   5 85.5641 85.0985   3
   2  -7   5 93.1291 37.0679  15
   2  -7   6 221.520 247.631  18
   2  -7   6 258.853 68.2058  12
   2  -7   6 169.875 55.9859   3
  -2   7  -6 226.179 52.3701  42
   2  -7   7 131.631 51.3146  12
  -2   7  -7 206.213 51.0682  42
  -2   7  -8 55.3715 35.1176  14
   2  -7   8 24.5564 37.1225  12
  -2   7  -8 44.0067 26.4872  42
   2  -7   8 9.17377 34.1305  41
   2  -7   9 1553.64 137.182  12
  -2   7  -9 1626.43 118.596  42
  -2   7  -9 1668.12 124.934  14
  -2   7 -10 9.05836 18.9016  20
  -2   7 -10 627.369 68.8958  42
   2  -7  10 590.569 88.0434  12
   2  -7  10-29.1806 24.7449  41
  -2   7 -10 713.245 78.6465  14
   2  -7  11 5.39956 25.2958  12
  -2   7 -11 1.18967 16.0391  14
  -2   7 -11-5.75793 15.4204  42
  -2   7 -12 0.77535 13.0294  14
   2  -7  12 2.90483 22.4977  12
  -2   7 -12-0.81190 14.4693  22
   2  -7  12 5.26352 10.9822  26
  -2   7 -13 106.016 24.2532  22
   2  -7  13-14.2554 15.8884  12
   2  -6 -11 176.537 40.1995  13
   2  -6 -11 177.872 43.0257  15
   2  -6 -10-4.34999 19.1924  13
   2  -6 -10 5.13607 23.2892  15
   2  -6  -9 395.856 68.8851  13
   2  -6  -9 527.075 82.5642  15
   2  -6  -8 56.3465 33.5321  13
   2  -6  -8 30.0623 28.8699  15
   2  -6  -7-10.7972 73.5138  37
   2  -6  -7 107.053 41.3978  13
   2  -6  -7-73.4760 108.105   2
   2  -6  -7 136.358 40.3118  10
   2  -6  -7-48.1049 66.0863   3
  -2   6   7 180.432 126.848   5
   2  -6  -7 119.636 44.6220  15
   2  -6  -6 126.141 125.374   3
   2  -6  -6 1.03249 22.5185  13
   2  -6  -6-13.2828 30.1576  15
   2  -6  -6-39.4202 92.2804   2
   2  -6  -6 126.905 134.374  37
   2  -6  -6 5.23609 18.1429  10
  -2   6   6 145.689 187.159   5
   2  -6  -5 715.106 95.9910  13
   2  -6  -5 816.792 299.375  37
   2  -6  -5 486.336 220.440   3
   2  -6  -5 683.316 83.8480  10
  -2   6   5 653.103 73.5341  24
   2  -6  -5 296.388 243.229   2
   2  -6  -5 680.647 97.9615  15
  -2   6   5 519.586 209.340   5
   2  -6  -4 288.774 152.391   3
   2  -6  -4 493.633 79.9909  13
   2  -6  -4 268.403 221.154   2
  -2   6   4 516.017 68.2469  24
   2  -6  -4 544.117 256.058  37
   2  -6  -4 539.238 74.1112  10
  -2   6   4 761.022 260.061   5
   2  -6  -4 507.707 84.4818  15
   2  -6  -3 231.615 186.574  37
   2  -6  -3 314.391 201.896   2
   2  -6  -3 334.126 65.7981  13
  -2   6   3 240.392 49.9752  24
  -2   6   3 342.020 53.2343  42
  -2   6   3 165.505 88.4136   5
   2  -6  -3 314.138 55.8143  10
  -2   6   3 174.463 129.223  36
   2  -6  -3 409.697 221.903   3
   2  -6  -3 301.414 66.6943  15
  -2   6   2 1004.33 91.2610  14
   2  -6  -2 965.156 105.407  13
  -2   6   2 1114.19 102.374  24
   2  -6  -2 1009.58 100.173  10
   2  -6  -2 898.884 321.657  37
  -2   6   2 822.954 257.828  36
   2  -6  -2 847.936 305.730   2
  -2   6   2 1299.91 301.063   5
  -2   6   2 1039.70 95.4316  42
   2  -6  -2 978.537 111.821  15
   2  -6  -2 1062.41 307.778   3
   2  -6  -1 202.458 129.699   2
   2  -6  -1 155.613 42.4867  13
   2  -6  -1 172.287 45.5043  10
  -2   6   1 139.650 40.6606  24
  -2   6   1 155.391 142.195  36
   2  -6  -1-2.31519 69.1827  37
  -2   6   1 158.693 40.8580  42
   2  -6  -1 94.3018 70.3035   3
   2  -6  -1 56.0314 94.7147  41
   2  -6  -1 144.720 44.6236  15
   2  -6   0 4605.07 219.658  13
   2  -6   0 4688.21 641.107   2
  -2   6   0 5127.34 219.179  24
   2  -6   0 4686.04 233.694  15
   2  -6   0 4891.07 702.832  37
  -2   6   0 5113.19 632.132  36
  -2   6   0 5056.37 219.211  42
   2  -6   0 4873.62 639.118   3
   2  -6   0 5039.05 219.824  10
   2  -6   1 4927.32 645.578   2
   2  -6   1 6043.33 245.209  25
  -2   6  -1 5878.72 235.746  24
   2  -6   1 6543.22 736.163   3
   2  -6   1 5157.23 714.650  37
  -2   6  -1 5871.74 690.509  36
   2  -6   1 5650.89 251.305  15
  -2   6  -1 5952.98 241.647  42
  -2   6  -2 12641.7 346.524  24
   2  -6   2 12419.5 1015.05   3
  -2   6  -2 12393.6 352.313  42
   2  -6   2 11814.3 1061.24  37
  -2   6  -2 12793.4 1035.20  36
   2  -6   2 11959.2 339.206  25
   2  -6   2 11891.0 360.825  15
   2  -6   3 4327.94 201.885  25
   2  -6   3 4171.53 620.501  37
  -2   6  -3 4116.23 205.330  42
   2  -6   3 2736.41 463.090   2
   2  -6   3 4128.51 210.195  15
  -2   6  -3 4001.48 595.954  36
  -2   6  -4 127.910 42.4711  42
   2  -6   4 90.2427 98.8339   2
   2  -6   4 125.680 53.7937  12
   2  -6   4 134.590 140.568  37
   2  -6   4 155.051 39.0949  25
  -2   6  -4 224.942 160.822  36
   2  -6   4 127.940 40.3528  15
   2  -6   4-91.6558 139.348  18
   2  -6   5 34.5539 58.2929   2
   2  -6   5 110.647 35.5787  25
   2  -6   5 66.8535 46.2098  12
  -2   6  -5 86.2458 36.8209  42
   2  -6   5-20.2312 98.6862  18
  -2   6  -5 51.6618 87.4944  36
   2  -6   5 93.2595 38.0954  15
  -2   6  -6-1.31631 27.8549  42
   2  -6   6 4.78040 14.5991  25
   2  -6   6 6.81233 24.2604  12
   2  -6   6 175.074 148.381  18
  -2   6  -6 191.882 182.161   6
   2  -6   6 3.85768 34.8854  41
   2  -6   6 35.9636 26.5888  15
   2  -6   7-38.6130 123.260  18
   2  -6   7 108.356 51.3292  12
  -2   6  -7 155.999 46.6173  42
   2  -6   7-0.89125 32.5631  41
  -2   6  -8 1578.49 133.556  14
  -2   6  -8 1839.40 134.351  42
   2  -6   8 1905.87 166.162  12
   2  -6   9 1110.29 122.458  12
   2  -6   9 1247.79 434.886  18
  -2   6  -9 1054.60 98.5813  42
  -2   6  -9 1198.67 110.790  14
  -2   6 -10 1723.68 118.159  42
   2  -6  10 486.574 448.540  18
   2  -6  10 10.5607 21.3752  41
   2  -6  10 1793.97 154.446  12
  -2   6 -10-74.2826 136.543   6
  -2   6 -10 1849.75 131.829  14
   2  -6  11 159.759 59.3657  12
  -2   6 -11 304.030 46.5500  42
  -2   6 -11 265.338 49.7975  14
   2  -6  12 8.23214 26.4918  12
  -2   6 -12 34.9137 20.9528  14
  -2   6 -12 3.85955 17.0613  20
   2  -6  12 32.4387 20.8017  26
   2  -6  13 1452.81 88.7426  26
  -2   6 -13 1371.32 107.780  22
   2  -6  14 13.7215 19.6858  12
  -2   6 -14 926.570 75.8122  22
   2  -5 -13 34.3939 17.9123  13
   2  -5 -13 60.1722 25.8622  15
   2  -5 -12 501.705 70.5439  13
   2  -5 -12 512.784 72.7191  15
   2  -5 -11 35.6231 23.7775  13
   2  -5 -11 59.7979 25.9351  16
   2  -5 -11 46.4411 31.8681  15
   2  -5 -10 1142.08 103.300  16
   2  -5 -10 1152.71 124.036  15
   2  -5 -10 1165.16 120.655  13
   2  -5  -9 409.585 211.499  37
   2  -5  -9 270.880 59.3937  13
   2  -5  -9 497.690 233.195   3
   2  -5  -9 280.109 55.1727  16
   2  -5  -9 279.044 67.1537  15
   2  -5  -9 185.380 136.292   2
   2  -5  -8 244.085 192.218   2
   2  -5  -8 411.349 76.1010  13
   2  -5  -8 584.855 233.730   3
  -2   5   8 262.749 56.9318  27
   2  -5  -8 446.143 67.9381  16
   2  -5  -8 439.214 215.863  37
   2  -5  -8 372.620 72.5688  15
   2  -5  -7 1447.40 383.583  37
   2  -5  -7 1399.65 363.086   3
  -2   5   7 936.298 100.206  27
  -2   5   7 1441.11 111.430  24
   2  -5  -7 1269.35 129.502  13
   2  -5  -7 1310.09 381.052   2
   2  -5  -7 1390.84 138.164  15
  -2   5   7 1324.67 366.564   5
   2  -5  -6 962.897 110.331  13
   2  -5  -6 536.835 233.168   2
  -2   5   6 931.982 91.7300  24
   2  -5  -6 865.858 288.050   3
  -2   5   6 1119.56 315.394   5
   2  -5  -6 1068.73 340.489  37
   2  -5  -6 985.188 114.730  15
   2  -5  -5 452.678 197.205   3
   2  -5  -5 405.860 70.3587  13
   2  -5  -5 600.852 255.902  37
  -2   5   5 466.876 65.0906  24
  -2   5   5 411.749 188.902   5
   2  -5  -5 468.879 79.9303  15
   2  -5  -5 321.597 192.520   2
   2  -5  -4 2227.90 432.419   3
   2  -5  -4 1839.37 143.194  13
  -2   5   4 1913.39 130.489  24
  -2   5   4 2028.88 388.865   5
   2  -5  -4 1535.36 394.056  37
  -2   5   4 1618.29 306.519  36
   2  -5  -4 1895.11 414.417   2
   2  -5  -4 1821.96 146.685  15
   2  -5  -3 442.958 69.9556  13
   2  -5  -3 191.615 168.051   2
  -2   5   3 519.758 70.7853  24
   2  -5  -3 535.152 77.4087  15
   2  -5  -3 625.475 255.699  37
  -2   5   3 564.978 194.554  36
  -2   5   3 315.768 148.346   5
  -2   5   3 524.158 61.4045  42
   2  -5  -3 605.324 229.985   3
   2  -5  -2 186.818 46.6763  13
  -2   5   2 31.9316 59.5536   5
   2  -5  -2 73.7789 123.182  37
   2  -5  -2 91.7535 133.398   2
  -2   5   2 125.571 35.4502  24
  -2   5   2 52.0388 55.7697  36
   2  -5  -2 139.790 40.3793  15
  -2   5   2 145.415 36.2587  42
   2  -5  -2 70.0111 83.7020   3
   2  -5  -1 2441.26 151.425  13
  -2   5   1 2440.87 144.289  24
   2  -5  -1 2837.35 466.416   3
   2  -5  -1 2451.60 465.597  37
   2  -5  -1 1974.44 403.403   2
  -2   5   1 2534.85 396.296  36
   2  -5  -1 2450.73 158.815  15
  -2   5   1 2494.66 139.652  42
  -2   5   1 2481.49 365.841   5
   2  -5   0 4410.95 197.641  13
   2  -5   0 4443.05 207.725  15
  -2   5   0 4523.80 196.188  24
   2  -5   0 4782.87 600.538   3
  -2   5   0 4288.74 441.972   5
   2  -5   0 4192.05 591.794  37
  -2   5   0 4430.17 534.370  36
   2  -5   0 3859.63 543.781   2
   2  -5   0 4134.66 447.468  38
  -2   5   0 4502.96 190.588  42
  -2   5  -1 5993.11 225.794  24
  -2   5  -1 5607.68 611.120  36
   2  -5   1 5294.01 507.821  38
   2  -5   1 5061.27 639.506  37
   2  -5   1 5858.47 223.137  13
   2  -5   1 4112.06 549.620   2
  -2   5  -1 5743.89 218.449  42
   2  -5   1 5666.45 231.232  15
   2  -5   2 13108.8 321.964  25
  -2   5  -2 13372.4 337.595  24
  -2   5  -2 12805.9 332.706  42
   2  -5   2 13761.0 1031.39  37
  -2   5  -2 13241.4 955.096  36
   2  -5   2 12456.4 788.824  38
   2  -5   2 12730.2 341.531  15
  -2   5  -3 343.103 59.7694  42
   2  -5   3 336.019 52.9651  25
  -2   5  -3 316.623 55.8827  24
   2  -5   3 169.241 126.701   2
  -2   5  -3-104.930 136.865   6
   2  -5   3 296.074 52.4689  15
   2  -5   3 166.889 85.0693  38
  -2   5  -3 364.273 158.298  36
   2  -5   3 320.905 166.323  37
   2  -5   4 196.969 41.7054  25
   2  -5   4 125.595 49.4237  12
  -2   5  -4 230.636 47.6232  24
   2  -5   4 139.779 119.744   2
  -2   5  -4 222.842 47.4325  42
   2  -5   4 210.053 103.209  38
   2  -5   4 99.2260 92.8727  37
  -2   5  -4 113.568 103.261  36
   2  -5   4 205.114 42.9827  15
  -2   5  -4-65.5757 114.605   6
   2  -5   5 3677.71 208.410  12
   2  -5   5 3125.09 159.039  25
  -2   5  -5 3665.00 182.349  42
  -2   5  -5 3278.59 512.711  36
   2  -5   5 3580.62 456.619  38
   2  -5   5 1976.94 722.208  18
   2  -5   5 3063.16 465.218  37
   2  -5   5 1792.03 384.620   2
   2  -5   5 3205.65 167.075  15
   2  -5   6-12.9975 26.3981  12
  -2   5  -6 19.0371 22.8519  42
   2  -5   6 23.1406 100.769  18
   2  -5   6 44.9341 70.9882  38
   2  -5   6-8.23318 75.8287   2
   2  -5   6 17.8224 19.0266  15
   2  -5   7 903.856 412.842  18
   2  -5   7 725.465 95.3585  12
  -2   5  -7 665.425 78.5959  42
  -2   5  -8 5354.79 216.976  42
   2  -5   8 5725.19 267.595  12
  -2   5  -8 5233.05 226.154  14
   2  -5   9 848.516 110.635  12
   2  -5   9 1880.21 496.518  18
  -2   5  -9 1291.34 105.225  42
  -2   5  -9 1453.62 118.450  14
   2  -5  10 898.078 114.320  12
   2  -5  10 944.342 383.949  18
  -2   5 -10 1005.52 89.4263  42
  -2   5 -10 1026.80 96.9863  14
   2  -5  11 51.0522 29.4000  12
   2  -5  11-1.09832 126.227  18
  -2   5 -11 26.7807 18.4634  14
   2  -5  12 725.479 100.218  12
   2  -5  12 871.561 81.1356  26
   2  -5  13 50.4635 21.2424  26
   2  -5  13-12.9137 25.4736  12
  -2   5 -13 56.8340 31.0717  22
   2  -5  14 4.70406 23.7062  12
  -2   5 -14 280.539 50.4449  22
  -2   5 -15 251.971 42.8639  22
   2  -4 -14 56.2854 28.6184  13
   2  -4 -14 103.107 34.4353  15
   2  -4 -13 4482.08 185.075  16
   2  -4 -13 4359.30 209.969  13
   2  -4 -13 4464.31 219.258  15
  -2   4  13 4416.65 180.475  27
  -2   4  12 654.895 77.6928  27
   2  -4 -12 675.251 90.8096  13
   2  -4 -12 623.212 89.7189  15
   2  -4 -12 505.890 70.0739  16
   2  -4 -11 1162.21 122.557  13
  -2   4  11 1265.00 115.040  27
   2  -4 -11 1251.18 365.476   3
   2  -4 -11 1139.59 123.030  15
   2  -4 -11 1211.99 112.384  16
   2  -4 -10 613.838 89.5529  13
  -2   4  10 534.211 77.9658  27
  -2   4  10 588.348 70.5548  24
   2  -4 -10 729.585 278.721  37
   2  -4 -10 574.720 81.6446  16
   2  -4 -10 728.535 281.915   3
   2  -4 -10 510.369 207.814   2
   2  -4 -10 588.824 91.4692  15
   2  -4  -9 198.134 56.0645  13
   2  -4  -9 108.657 107.372   3
   2  -4  -9 258.521 139.587   2
  -2   4   9 176.563 42.9264  24
   2  -4  -9 285.816 178.801  37
   2  -4  -9 156.192 43.7413  16
   2  -4  -9 177.234 57.6098  15
  -2   4   9 171.455 49.2481  27
  -2   4   8 3534.13 197.409  27
  -2   4   8 3500.93 178.174  24
   2  -4  -8 3580.16 192.511  16
   2  -4  -8 3311.90 555.899  37
   2  -4  -8 3187.82 552.938   2
   2  -4  -8 3553.25 573.019   3
   2  -4  -8 3536.96 212.884  15
   2  -4  -8 3561.13 210.161  13
   2  -4  -7-19.9746 105.577  37
   2  -4  -7 193.851 141.973   3
   2  -4  -7 31.2898 86.4970   2
   2  -4  -7 120.790 40.4398  13
  -2   4   7 121.642 40.5549  27
  -2   4   7 125.979 133.643   5
   2  -4  -7 141.729 46.8110  15
  -2   4   7 90.2337 28.5743  24
   2  -4  -6 776.940 262.362   3
   2  -4  -6 1348.46 120.494  13
  -2   4   6 1407.38 119.498  27
  -2   4   6 1330.52 108.237  24
   2  -4  -6 1117.86 312.744  37
   2  -4  -6 1408.49 339.990   2
  -2   4   6 1529.29 336.392   5
   2  -4  -6 1448.83 128.231  15
   2  -4  -5 1126.15 306.783   3
  -2   4   5 939.385 93.9700  27
  -2   4   5 863.567 85.3817  24
   2  -4  -5 878.423 265.474   2
   2  -4  -5 1066.61 313.128  37
   2  -4  -5 862.152 93.4105  13
  -2   4   5 1014.89 267.812   5
   2  -4  -5 840.757 94.2240  15
  -2   4   4 3.93235 22.7460  23
   2  -4  -4 376.876 58.6250  13
  -2   4   4 409.566 62.2014  27
  -2   4   4 392.090 57.2555  24
   2  -4  -4 431.149 213.036   2
  -2   4   4 444.256 50.4949  42
   2  -4  -4 378.528 183.082  37
   2  -4  -4 344.568 157.009   3
   2  -4  -4 425.300 65.4504  15
  -2   4   4 380.038 128.932  36
  -2   4   4 367.259 158.180   5
   2  -4  -3 18.0507 16.7123  13
   2  -4  -3-53.6627 60.5771   2
  -2   4   3 13.0080 22.0206  27
  -2   4   3 23.2117 21.3474  24
  -2   4   3 18.7423 15.3669  42
   2  -4  -3-51.6819 69.5172  37
  -2   4   3-34.7760 61.0094  36
  -2   4   3 68.0844 77.1956   5
   2  -4  -3 20.5620 72.6239   3
   2  -4  -3 9.43580 17.8063  15
  -2   4   2 1871.45 121.986  27
  -2   4   2 2562.69 137.814  24
   2  -4  -2 2408.07 397.029   3
  -2   4   2 2332.22 328.207   5
   2  -4  -2 2370.95 407.657  37
  -2   4   2 2512.36 337.070  36
   2  -4  -2 1561.39 369.656   2
  -2   4   2 2455.38 122.443  42
   2  -4  -2 2311.01 141.323  15
   2  -4  -1 1199.85 286.986  37
  -2   4   1 1191.54 93.4555  24
  -2   4   1 1088.50 228.086  36
  -2   4   1 1334.99 227.473   5
   2  -4  -1 1197.67 280.225   3
   2  -4  -1 1106.98 278.846   2
  -2   4   1 1122.11 83.7439  42
   2  -4   0 107082. 2607.31  37
  -2   4   0 112632. 1895.14   5
  -2   4   0 110842. 2313.14  36
  -2   4  -1 12410.8 286.934  42
   2  -4   1 14211.2 909.778   2
  -2   4  -1 13125.6 593.196   5
   2  -4   1 13088.9 893.602  37
  -2   4  -1 13556.9 831.494  36
  -2   4  -2 20203.3 1048.70  36
  -2   4  -2 20550.0 383.976  24
   2  -4   2 19744.9 1082.55  37
  -2   4  -2 19522.5 363.613  42
   2  -4   2 20142.3 1004.54  38
  -2   4  -3 1912.83 346.695  36
  -2   4  -3 2012.49 121.434  24
  -2   4  -3 2196.34 123.496  42
   2  -4   3 2477.11 372.288   2
   2  -4   3 2020.99 324.549  38
   2  -4   3 1924.75 329.333  37
   2  -4   4 784.473 205.018  38
   2  -4   4 907.599 100.641  12
  -2   4  -4 887.978 82.5484  24
  -2   4  -4 883.526 80.9513  42
   2  -4   4 829.892 210.959   2
   2  -4   4 747.607 197.675  37
  -2   4  -4 523.002 228.166  36
   2  -4   5 49.9627 71.7470  38
   2  -4   5-6.26985 56.8945  37
   2  -4   5 27.8002 27.9482  12
  -2   4  -5 45.2567 25.0277  42
   2  -4   5-12.6084 99.9506  18
   2  -4   5 34.9572 63.0515   2
   2  -4   6 246.187 108.386  38
   2  -4   6 353.716 62.9165  12
   2  -4   6 307.491 148.346   2
  -2   4  -6 303.551 50.1776  42
   2  -4   6 261.419 200.267  18
   2  -4   7 5754.07 249.916  12
   2  -4   7 5559.51 624.944  38
  -2   4  -7 5535.74 203.424  42
   2  -4   7 4516.91 505.798   2
  -2   4  -7 5304.24 212.009  14
   2  -4   8 3059.37 186.495  12
   2  -4   8 4508.16 770.968  18
   2  -4   8 3969.23 471.890   2
  -2   4  -8 2927.62 147.243  42
  -2   4  -8 2762.27 154.550  14
  -2   4  -9 300.494 54.2357  14
   2  -4   9 360.793 67.2239  12
   2  -4   9 398.755 233.213  18
  -2   4  -9 269.189 46.4905  42
  -2   4 -10 3122.68 161.921  14
   2  -4  10 3152.57 199.424  12
   2  -4  10 3288.97 669.491  18
  -2   4 -10 3122.69 147.654  42
   2  -4  11 747.431 104.115  12
   2  -4  11 686.415 73.6646  26
   2  -4  11 443.397 291.194  18
   2  -4  12 6.74398 26.1922  12
  -2   4 -12 16.7959 29.3867  22
  -2   4 -12 19.5995 33.1615  20
   2  -4  12-43.9044 139.906  18
   2  -4  13 1421.14 137.838  12
  -2   4 -13 6185.58 271.784  22
   2  -4  14 4.08177 26.2003  12
  -2   4 -14 19.1117 17.1565  20
  -2   4 -15-19.6695 23.4834  22
  -2   4 -16 276.812 44.0280  22
   2  -3 -15 1041.76 92.9757  13
  -2   3  15 1060.10 79.8157  27
   2  -3 -15 982.189 77.8986  16
   2  -3 -15 975.740 92.7818  15
   2  -3 -14 73.6430 31.3299  13
  -2   3  14 95.7724 30.8501  27
   2  -3 -14 86.1965 30.5759  16
   2  -3 -14 125.472 39.7526  15
  -2   3  13 153.216 42.9928  27
   2  -3 -13 164.243 40.7209  16
   2  -3 -13 159.315 50.4870  13
   2  -3 -13 170.800 49.1467  15
   2  -3 -12 908.693 99.8266  16
   2  -3 -12 866.005 105.994  13
  -2   3  12 843.635 100.395  27
   2  -3 -12 859.453 303.886   3
  -2   3  12 894.166 86.2518  24
   2  -3 -11 1731.50 139.512  16
   2  -3 -11 1844.98 154.706  13
  -2   3  11 1538.60 136.868  27
   2  -3 -11 1542.85 389.904   3
  -2   3  11 1721.64 125.629  24
   2  -3 -11 1655.64 388.720  37
  -2   3  10 158.407 43.5997  24
  -2   3  10 80.7881 37.4260  27
   2  -3 -10 132.951 40.8528  16
   2  -3 -10 100.045 39.3036  13
   2  -3 -10 286.552 187.868  37
   2  -3 -10 93.5494 94.6497   3
   2  -3  -9-14.1147 85.8451   2
   2  -3  -9-29.8490 63.0837   3
  -2   3   9 1.65822 19.7379  27
   2  -3  -9 48.1712 62.0849  37
  -2   3   9 2.89510 19.6049  24
   2  -3  -9 8.80718 27.2302  13
   2  -3  -9 1.39950 26.0430  16
   2  -3  -8 76.1681 103.820   3
  -2   3   8 27.8370 22.9376  27
   2  -3  -8 53.7202 29.3459  13
   2  -3  -8 87.0298 100.986   2
   2  -3  -8-8.27902 92.6141  37
   2  -3  -8 98.3923 35.5735  16
  -2   3   8 45.1276 27.0068  24
   2  -3  -7 17157.5 410.877  13
  -2   3   7 17731.9 410.137  27
  -2   3   7 17747.2 384.808  24
   2  -3  -7 17334.0 1173.76  37
   2  -3  -7 17664.1 1153.11   3
   2  -3  -7 19584.1 1162.15   2
   2  -3  -6 2974.48 447.178   3
   2  -3  -6 2778.54 157.405  13
   2  -3  -6 2649.44 446.432   2
  -2   3   6 2647.52 152.632  27
  -2   3   6 2724.08 146.778  24
  -2   3   6 3128.29 450.984   5
   2  -3  -6 2659.83 445.758  37
  -2   3   5 6371.59 227.128  27
   2  -3  -5 6457.51 642.251   3
  -2   3   5 6491.75 218.032  24
   2  -3  -5 6175.68 655.486  37
  -2   3   5 6776.46 610.552   5
   2  -3  -5 5577.52 598.480   2
   2  -3  -4-4.70702 81.5206   2
   2  -3  -4-30.0444 60.0858  37
  -2   3   4-12.2864 27.6025  36
  -2   3   4 4.47935 47.1602   7
  -2   3   4-29.5055 83.8172   5
  -2   3   4 18.2912 13.9903  42
   2  -3  -4 32.4297 50.7424   3
  -2   3   3 8608.60 200.247  42
  -2   3   3 8539.54 586.176   5
   2  -3  -3 8697.26 696.512   3
   2  -3  -3 8168.09 699.203  37
   2  -3  -3 9194.41 731.828   2
  -2   3   3 8576.27 501.631  36
   2  -3  -2 10916.6 758.334   3
  -2   3   2 9614.33 215.688  42
   2  -3  -2 9417.96 721.595  37
   2  -3  -2 10078.5 751.658   2
  -2   3   2 10277.1 561.957  36
   2  -3  -1 10851.6 747.055  37
  -2   3   1 11162.3 605.203  36
  -2   3   1 11008.9 539.083   5
  -2   3   1 11223.9 236.238  42
  -2   3   0 3461.92 132.530  42
  -2   3   0 3618.14 270.931   5
   2  -3   0 3167.07 391.565  37
   2  -3   0 4182.24 452.999   2
  -2   3   0 3319.23 340.831  36
   2  -3   1 16292.4 904.774   2
  -2   3  -1 17518.5 477.868   5
   2  -3   1 16569.2 867.344  37
  -2   3  -1 16566.4 803.414  36
  -2   3  -1 16826.7 294.953  42
   2  -3   2 10158.9 659.331  37
  -2   3  -2 9163.18 637.377  36
  -2   3  -2 10125.2 232.488  42
   2  -3   3 1764.31 270.367  37
  -2   3  -3 1820.91 100.132  42
   2  -3   3 1422.20 276.969   2
   2  -3   3 1701.71 293.926  38
  -2   3  -4 15604.8 297.198  42
   2  -3   4 16507.4 933.344  38
   2  -3   4 15144.4 767.246  37
   2  -3   4 15800.9 880.335   2
  -2   3  -5 48.4714 19.0687  42
   2  -3   5 35.5837 82.9410  18
   2  -3   5 32.0894 68.2860   2
   2  -3   5 118.607 60.0266  38
   2  -3   5 59.5717 58.6014  37
   2  -3   6 5587.19 454.838   4
   2  -3   6 6598.14 239.911  12
  -2   3  -6 6160.93 191.349  42
   2  -3   6 5181.82 522.890   2
   2  -3   6 6361.82 631.719  38
  -2   3  -6 6183.19 206.911  14
   2  -3   7 2923.70 364.061   4
   2  -3   7 3383.37 178.511  12
   2  -3   7 2329.53 358.402   2
   2  -3   7 3166.55 471.911  38
   2  -3   7 3932.46 686.125  18
  -2   3  -7 3133.66 138.150  42
  -2   3  -7 3071.34 148.629  14
   2  -3   8-36.6481 79.3133   2
   2  -3   8-1.02217 20.4777  12
   2  -3   8 25.4690 64.4298  38
  -2   3  -8 2.89428 14.4005  14
   2  -3   8-14.8815 111.699  18
  -2   3  -8 6.64666 16.4527  42
   2  -3   8 12.9264 87.4716   4
   2  -3   9 307.149 140.210   2
   2  -3   9 496.252 76.7823  12
  -2   3  -9 548.820 205.114   7
   2  -3   9 432.867 174.638   4
   2  -3   9 428.409 269.977  18
  -2   3  -9 493.972 55.9898  42
  -2   3  -9 505.777 63.2347  14
   2  -3  10 998.611 114.834  12
   2  -3  10 941.376 269.764   4
   2  -3  10 792.643 324.817  18
  -2   3 -11 922.463 89.7261  16
   2  -3  11 1209.89 127.710  12
   2  -3  11 1004.70 300.299   4
  -2   3 -11 4.17716 28.4181  20
   2  -3  11 144.337 144.276  18
  -2   3 -11 877.370 126.154  22
   2  -3  12 8591.52 340.648  12
  -2   3 -12 11945.9 389.684  22
   2  -3  12 129.684 128.457  18
  -2   3 -12 10145.2 303.172  16
  -2   3 -13 478.105 65.5327  16
   2  -3  13-23.9639 30.2429  12
  -2   3 -13 553.657 84.1571  22
  -2   3 -13-27.2537 27.0944  20
   2  -3  13-33.4139 190.968  18
  -2   3 -14 235.826 44.3546  16
  -2   3 -14 135.673 52.7740  22
  -2   3 -15 310.449 59.9073  22
  -2   3 -16 38.8423 21.8937  19
   2  -2 -16 23.0267 18.4812  13
  -2   2  16 29.1082 19.5868  27
   2  -2 -16 1.12350 16.6305  16
   2  -2 -16-1.27195 15.4661  15
  -2   2  16 16.2475 22.2771  31
   2  -2 -15 271.049 53.4561  13
  -2   2  15 256.078 51.1786  27
   2  -2 -15 339.348 54.5147  16
   2  -2 -14 2603.71 173.358  13
  -2   2  14 2581.08 163.930  27
  -2   2  14 2660.51 141.514  24
   2  -2 -14 2548.11 158.650  16
   2  -2 -13 1254.89 127.494  13
  -2   2  13 1169.46 116.735  27
  -2   2  13 1226.27 105.111  24
   2  -2 -13 1102.37 321.039   3
   2  -2 -13 1242.24 117.013  16
  -2   2  12 222.705 50.6796  24
   2  -2 -12 203.098 54.8400  13
  -2   2  12 175.933 46.9904  27
   2  -2 -12 169.890 168.192   3
   2  -2 -12 368.582 199.581  37
   2  -2 -12 217.400 52.4559  16
   2  -2 -11 33.7494 30.3203  13
  -2   2  11 71.7173 35.4013  27
   2  -2 -11 197.385 145.037   3
   2  -2 -11 184.656 137.660  37
   2  -2 -11 153.799 45.5728  16
  -2   2  11 97.6401 32.0082  24
  -2   2  10 3157.90 187.429  27
   2  -2 -10 3235.35 182.184  16
   2  -2 -10 3317.94 523.272   3
  -2   2  10 3540.70 183.990  24
   2  -2 -10 3484.23 544.195  37
   2  -2 -10 3299.48 194.496  13
   2  -2  -9 8041.71 673.686   2
   2  -2  -9 7393.64 277.503  13
  -2   2   9 7479.08 276.945  27
   2  -2  -9 6885.63 254.381  16
  -2   2   9 7569.97 260.667  24
   2  -2  -9 6721.54 737.512  37
   2  -2  -9 6280.02 697.540   3
   2  -2  -8 599.137 76.2419  13
   2  -2  -8 837.450 217.772   2
   2  -2  -8 625.626 218.178   3
  -2   2   8 708.243 81.5258  27
  -2   2   8 652.558 74.9203  24
   2  -2  -8 566.634 68.1997  16
   2  -2  -8 525.215 182.843  37
   2  -2  -7 192.247 120.664   3
   2  -2  -7 47.3736 24.9437  13
  -2   2   7 83.9834 28.9855  27
   2  -2  -7 144.740 94.9022  37
   2  -2  -7 21.3931 43.8541   2
  -2   2   7 105.025 30.6984  24
   2  -2  -6 78.5932 79.3253   3
  -2   2   6 149.909 35.7845  27
   2  -2  -6 81.3580 99.8542   2
   2  -2  -6 54.8759 61.8946  37
  -2   2   6 181.605 39.0468  24
   2  -2  -5 3781.98 441.201   3
  -2   2   5 4387.70 359.484   7
   2  -2  -5 3566.33 454.149  37
  -2   2   4-0.70396 55.1409   7
  -2   2   4 19.4992 13.3636  42
   2  -2  -4 23.3483 67.1105   2
   2  -2  -4-41.2856 45.9952   3
   2  -2  -4 30.5354 67.1583  37
  -2   2   3 6642.52 486.760   7
   2  -2  -3 7529.11 570.351   3
   2  -2  -3 5966.77 531.005  37
  -2   2   3 6751.82 160.749  42
   2  -2  -3 6949.56 568.282   2
   2  -2  -2 1785.85 282.944  37
  -2   2   2 1985.24 265.790   7
   2  -2  -2 1858.31 280.702   2
   2  -2  -2 1739.15 270.143   3
  -2   2   2 1705.13 82.6257  42
  -2   2   1 27600.9 335.156  42
   2  -2  -1 27672.4 1044.06  37
   2  -2   0 598.600 157.137   2
  -2   2   0 545.092 48.7616  42
   2  -2   0 625.038 155.109  37
  -2   2  -1 989.004 65.5714  42
   2  -2   1 969.257 204.362   2
   2  -2   1 1138.92 198.146  37
  -2   2  -2 3.01807 13.4037  42
   2  -2   2-11.5817 19.5802   4
   2  -2   2-8.35182 40.9340  37
  -2   2  -3 14334.0 254.222  42
   2  -2   3 14150.1 820.752  38
   2  -2   3 13564.0 614.098  37
   2  -2   3 13370.0 481.266   4
   2  -2   4 3472.73 296.979   4
   2  -2   4 4220.93 466.087  38
   2  -2   4 3947.78 304.864  37
  -2   2  -4 3700.83 133.939  42
   2  -2   5 26001.6 923.126   4
  -2   2  -5 26724.7 359.466  42
   2  -2   5 27189.3 1233.13  38
  -2   2  -6 4036.62 142.646  42
   2  -2   6 4338.02 419.310   4
   2  -2   6 3632.69 475.029  38
  -2   2  -6 4690.10 509.791   7
   2  -2   7 603.070 285.096  18
   2  -2   7 429.852 66.7206  12
   2  -2   7 653.955 191.384   4
   2  -2   7 571.766 203.701  38
  -2   2  -7 589.976 55.6454  42
  -2   2  -7 560.494 191.885   7
   2  -2   8 730.365 86.1691  12
  -2   2  -8-14.7261 82.1383   7
   2  -2   8 477.102 173.836   4
  -2   2  -8 1.17694 25.6134  20
  -2   2  -8 100.765 99.0961   6
   2  -2   8 409.019 179.558  38
   2  -2   8 692.579 286.225  18
  -2   2  -8 654.481 59.9506  42
  -2   2  -8 643.046 68.5661  14
   2  -2   9 5428.79 605.793   4
   2  -2   9 4454.11 237.554  12
  -2   2  -9 5647.30 570.892   7
   2  -2  10 167.764 53.6350  12
  -2   2 -10 0.09894 20.6025  20
  -2   2 -10 203.822 57.7477  22
   2  -2  10 184.123 198.989  18
  -2   2 -10 240.532 49.6574  16
   2  -2  10-57.2367 98.3019   4
   2  -2  11 133.231 46.0944  12
  -2   2 -11 925.217 92.6790  16
  -2   2 -11 948.785 116.677  22
  -2   2 -11-14.9006 26.5208  20
   2  -2  11-5.66264 184.168  18
   2  -2  11 855.414 278.174   4
   2  -2  12 19.2552 39.1573  12
  -2   2 -12 1758.86 150.296  22
   2  -2  12 1346.25 353.007   4
  -2   2 -12 2.86477 27.7465  20
   2  -2  12 41.4144 158.336  18
  -2   2 -12 1645.81 126.434  16
   2  -2  13 3684.28 601.003   4
  -2   2 -13 3275.86 213.591  22
  -2   2 -13 3399.58 180.179  16
  -2   2 -14 164.257 40.5308  16
  -2   2 -14 164.555 50.2603  22
  -2   2 -15 44.6276 30.4993  19
  -2   2 -15 14.5732 27.3908  22
  -2   2 -16-5.64658 17.0270  11
  -2   2 -16 170.901 41.6583  19
   2  -1 -16 77.2218 40.7147  13
   2  -1 -16 15.6048 15.8220  16
  -2   1  16 35.3853 22.2901  27
  -2   1  16 58.1467 20.6543  24
  -2   1  15 162.694 37.7905  24
   2  -1 -15 138.444 42.6605  13
  -2   1  15 181.757 46.3370  27
   2  -1 -15 128.249 37.5625  16
   2  -1 -14 216.898 55.9204  13
  -2   1  14 222.923 54.6807  27
  -2   1  14 202.871 47.6908  24
   2  -1 -14 199.476 49.8321  16
   2  -1 -13 1158.43 121.932  13
  -2   1  13 1230.56 126.756  27
  -2   1  13 1117.71 106.717  24
   2  -1 -13 1231.27 117.298  16
   2  -1 -12 607.927 89.3045  13
   2  -1 -12 558.578 224.206   3
  -2   1  12 645.236 82.0317  24
   2  -1 -12 782.691 265.751  37
   2  -1 -12 562.701 80.1345  16
  -2   1  12 583.006 69.8010  33
   2  -1 -11 63.4915 34.6291  13
   2  -1 -11 209.724 144.356   3
   2  -1 -11 49.6997 82.7966  37
  -2   1  11 77.6548 33.5407  24
   2  -1 -11 98.9162 38.3844  16
  -2   1  11 106.789 33.1197  33
   2  -1 -10 59.5735 31.4986  13
   2  -1 -10 77.3357 115.338   3
   2  -1 -10 81.5844 77.3453  37
   2  -1 -10 49.7807 27.5703  16
  -2   1  10 69.3933 29.0084  24
  -2   1  10 54.9033 21.1180  33
  -2   1   9 90.5619 32.3897  24
   2  -1  -9 108.264 36.4996  13
   2  -1  -9 40.8127 71.0661   3
   2  -1  -9 82.7755 69.7610  37
  -2   1   9 123.150 32.7602  33
   2  -1  -9 77.8107 30.6187  16
  -2   1   8 2937.02 134.779  29
  -2   1   8 2831.81 140.941  33
  -2   1   8 2806.47 150.011  24
   2  -1  -8 2887.81 408.175   3
   2  -1  -8 3085.60 458.911  37
   2  -1  -8 2359.74 304.902   2
  -2   1   7 10775.5 276.330  24
   2  -1  -7 12068.7 860.209  37
   2  -1  -7 11473.7 763.345   3
   2  -1  -7 11328.4 698.798   2
  -2   1   6 4213.85 325.730   7
   2  -1  -6 3691.76 453.901  37
   2  -1  -6 3956.54 421.963   3
   2  -1  -5 197.256 99.5511   3
   2  -1  -5 87.1976 81.1589  37
  -2   1   5 161.132 83.3507   7
   2  -1  -5 6.77944 69.5726   2
   2  -1  -4 3052.83 357.433   2
   2  -1  -4 3722.82 365.589   3
   2  -1  -4 3651.06 405.087  37
   2  -1  -3 1864.59 248.870   3
  -2   1   3 2305.40 270.685   7
   2  -1  -3 1902.87 255.410   2
   2  -1  -3 2110.19 291.427  37
  -2   1   3 2029.19 83.7760  42
   2  -1  -2 50212.7 1305.21   2
   2  -1  -2 48484.2 1316.41  37
  -2   1   2 47973.4 412.607  42
   2  -1  -1 34823.5 1052.39  37
  -2   1   1 34351.3 354.016  42
  -2   1   0 14272.5 230.804  42
  -2   1   0 16755.6 766.675   7
   2  -1   0 16227.3 677.972  37
  -2   1  -1 15967.8 245.068  42
   2  -1   1 15077.0 611.855  37
   2  -1   1 15630.4 543.648   4
  -2   1  -2 2861.20 324.301   7
   2  -1   2 2447.83 230.399  37
   2  -1   2 2330.84 228.783   4
  -2   1  -2 2584.22 100.420  42
  -2   1  -3 35858.1 379.244  42
  -2   1  -3 37623.3 1278.13   7
   2  -1   3 34811.7 750.206  37
   2  -1   3 35401.7 1263.89  38
   2  -1   3 34001.5 956.083   4
   2  -1   4 728.956 160.139   4
  -2   1  -4 629.614 190.271   7
   2  -1   4 1017.07 313.518  18
   2  -1   4 862.973 210.348  38
  -2   1  -4 932.885 63.0279  42
   2  -1   5 32101.1 1313.68  38
   2  -1   5 32910.7 1643.97  18
  -2   1  -5 30971.6 365.074  42
  -2   1  -6 7071.84 585.358   7
   2  -1   6 5802.82 593.672  38
  -2   1  -6 6075.02 164.819  42
   2  -1   6 5910.87 530.750   4
  -2   1  -7 151.932 27.9082  42
   2  -1   7 107.966 105.464   4
  -2   1  -7 233.711 115.879   7
   2  -1   7 168.696 106.904  38
   2  -1   7 134.996 118.252  18
   2  -1   8 3458.81 472.496   4
   2  -1   8 3638.28 179.613  12
  -2   1  -8 4267.36 459.881   7
  -2   1  -8 2934.05 173.708  22
   2  -1   8 3953.17 644.940  18
   2  -1   9 2204.20 404.527   4
   2  -1   9 1122.91 108.726  12
  -2   1  -9 2254.12 149.966  22
   2  -1   9 2123.53 516.428  18
  -2   1  -9 2239.69 135.908  16
   2  -1  10 34.9192 31.2479  12
   2  -1  10 252.066 176.356   4
   2  -1  10-81.1342 123.079  18
  -2   1 -10 250.664 49.4572  16
  -2   1 -10 267.770 60.1636  22
  -2   1 -11 3483.19 248.201  20
   2  -1  11 25562.1 1542.56   4
  -2   1 -11 28571.5 591.640  22
   2  -1  11 454.787 442.980  18
  -2   1 -11 25751.4 504.791  16
   2  -1  12 10432.2 1023.96   4
  -2   1 -12 10337.0 325.666  16
  -2   1 -12 12308.5 403.959  22
  -2   1 -13 2944.87 194.779  22
   2  -1  13 2881.88 562.919   4
  -2   1 -13 2082.93 176.147  20
  -2   1 -13 2738.49 167.853  16
  -2   1 -14 687.688 96.9427  22
  -2   1 -14 841.420 89.2023  16
  -2   1 -14 766.339 99.4765  19
  -2   1 -15-13.7224 19.9921  11
  -2   1 -15 53.2692 33.0193  19
  -2   1 -15 45.6149 20.2842  16
  -2   1 -16-8.27358 13.9016  11
  -2   1 -16 16.6429 15.9767  19
   2   0 -17 39.9635 16.7029  13
  -2   0  17 66.2656 23.0551  27
   2   0 -17 35.0846 17.4065  16
  -2   0  17 38.5479 15.2763  24
   2   0 -16 48.1072 27.3485  13
  -2   0  16 115.797 36.2592  27
   2   0 -16 63.5181 28.1687  16
  -2   0  16 54.7029 21.7981  24
  -2   0  15 185.983 44.4439  24
   2   0 -15 145.682 44.9612  13
  -2   0  15 167.980 49.3991  27
   2   0 -15 144.573 40.0203  16
  -2   0  15 137.553 31.8357  33
   2   0 -14 527.995 81.2611  13
  -2   0  14 462.607 70.1336  24
  -2   0  14 534.736 67.2211  33
   2   0 -14 450.668 73.0534  16
   2   0 -13 2007.09 156.294  13
  -2   0  13 2086.39 149.105  24
   2   0 -13 2404.18 456.343  37
   2   0 -13 2008.42 150.717  16
  -2   0  13 2096.58 138.269  33
  -2   0  12 7.36305 17.0780  33
  -2   0  12-10.2643 22.1174  24
   2   0 -12-4.59839 117.346  37
   2   0 -12-6.61933 18.2693  16
  -2   0  12-39.3515 35.6198  31
  -2   0  11 2459.48 157.074  24
   2   0 -11 3010.84 509.227  37
   2   0 -11 2263.76 153.723  16
   2   0 -11 2681.65 440.546   3
  -2   0  11 2455.67 150.120  33
  -2   0  10 2713.78 136.798  29
   2   0 -10 2140.17 369.460   3
  -2   0  10 2642.00 158.691  26
   2   0 -10 2524.22 444.483  37
   2   0 -10 2483.69 152.886  16
  -2   0  10 2755.33 155.415  33
  -2   0   9 10527.3 263.232  29
  -2   0   9 10036.1 286.368  33
  -2   0   9 10164.0 288.803  26
   2   0  -9 9288.44 279.115  16
   2   0  -9 10706.1 774.830   3
  -2   0   8 16863.6 323.373  29
  -2   0   8 17008.8 349.461  26
   2   0  -8 16628.4 892.629   3
  -2   0   8 17526.8 361.391  33
  -2   0   7 16913.8 364.219  28
   2   0  -7 16241.6 816.251   3
  -2   0   7 16478.6 333.083  33
  -2   0   6 1810.20 228.593  39
  -2   0   6 1933.85 247.245   7
   2   0  -6 1569.07 238.328   3
   2   0  -5 66.3539 61.1622   3
  -2   0   5 91.6053 62.8903   7
  -2   0   5 142.645 23.8859  42
  -2   0   5 131.723 24.8214  40
  -2   0   5 153.463 65.6337  39
   2   0  -5 88.8285 66.0614   2
  -2   0   4 5539.93 143.640  42
   2   0  -4 5492.55 387.571   2
   2   0  -4 5534.83 376.221   3
  -2   0   4 5228.92 141.926  40
  -2   0   4 5561.86 415.022  39
  -2   0   3 31021.2 338.893  42
  -2   0   3 31721.9 1007.46  39
   2   0  -3 31981.8 845.249   3
  -2   0   3 30711.0 347.413  40
   2   0  -2 18440.9 616.425   3
  -2   0   2 19104.4 791.681  39
  -2   0   2 17903.9 268.833  40
  -2   0   2 18365.1 259.576  42
  -2   0   1 7918.99 171.596  42
  -2   0   1 8209.80 184.610  40
  -2   0   1 8625.80 540.681  39
  -2   0   0 2868.37 103.562  42
  -2   0   0 2711.27 309.001  39
  -2   0   0 2940.27 112.223  40
  -2   0  -1 2148.69 294.368   7
  -2   0  -1 2170.66 90.7430  42
  -2   0  -1 2008.42 269.008  39
  -2   0  -1 2086.13 94.9720  40
   2   0   2 1113.76 140.925  37
   2   0   2 1093.27 208.688  38
  -2   0  -2 1185.62 73.4339  40
  -2   0  -2 1241.01 226.907   7
  -2   0  -2 1138.81 208.582  39
   2   0   2 622.029 97.9518   5
   2   0   2 1164.49 200.886   4
  -2   0  -2 1234.35 69.3538  42
  -2   0  -3 30150.1 380.118  40
  -2   0  -3 30994.4 351.079  42
   2   0   3 31576.6 638.496   5
   2   0   3 30402.3 1136.21  38
   2   0   3 29875.4 530.843  37
  -2   0  -3 30711.1 1097.82  39
   2   0   3 30118.7 1059.93   4
   2   0   4 48233.9 860.227   5
   2   0   4 49877.8 1518.36  38
  -2   0  -4 48263.1 444.957  42
   2   0   4 47895.6 1422.35   4
   2   0   5 32213.1 1291.42  38
  -2   0  -5 32259.9 370.500  42
   2   0   5 30620.1 1224.98   4
  -2   0  -6 6535.38 169.145  42
   2   0   6 7290.57 761.711  18
   2   0   6 6216.57 607.175  38
   2   0   6 5836.25 575.101   4
  -2   0  -7 3186.19 145.183  30
  -2   0  -7 3600.10 424.419   7
  -2   0  -7 2995.41 157.111  22
   2   0   7 4103.38 616.950  18
  -2   0  -7 3466.82 188.322  20
  -2   0  -7 3006.27 117.491  42
   2   0   7 2468.25 397.554   4
  -2   0  -8 1871.41 115.354  30
  -2   0  -8 2302.74 344.214   7
   2   0   8 1548.94 342.404   4
  -2   0  -8 1686.08 117.161  16
  -2   0  -8 1973.10 135.599  22
   2   0   9 505.562 203.955   4
  -2   0  -9 601.172 82.3625  22
  -2   0  -9 652.880 100.210  20
  -2   0  -9 465.968 67.5609  16
   2   0   9 186.066 253.968  18
   2   0  10 17203.1 1259.68   4
  -2   0 -10 17774.9 420.773  16
  -2   0 -10 19454.5 472.519  22
  -2   0 -11 113.151 39.3996  22
  -2   0 -11 7.74298 34.0674  20
   2   0  11-9.92260 67.3498   4
   2   0  11 31.8042 112.153  18
  -2   0 -11 124.606 44.9920  16
  -2   0 -12 1425.14 135.897  19
   2   0  12 1631.67 415.201   4
  -2   0 -12 1839.16 172.407  20
  -2   0 -12 1551.32 143.229  22
  -2   0 -12 1348.73 122.265  16
   2   0  13 36.0701 121.186   4
  -2   0 -13 9.22724 25.5160  11
  -2   0 -13 10.8110 22.3307  19
  -2   0 -13 6.77756 17.8478  16
  -2   0 -14-1.04186 23.9472  11
  -2   0 -14 22.4806 30.5904  19
  -2   0 -14-0.35534 19.0949  16
  -2   0 -15 6.98100 21.5431  11
  -2   0 -15 12.2251 19.1666  19
  -2   0 -15 62.8269 26.7864  16
  -2   0 -16 346.371 53.0544  21
  -2   0 -16 344.508 53.6064  19
   2   1 -17 806.624 74.6344  13
  -2  -1  17 734.636 71.0826  27
  -2  -1  17 785.235 66.2054  24
   2   1 -17 711.222 67.9782  16
   2   1 -16-2.52186 19.1803  13
  -2  -1  16-0.93860 20.4764  27
  -2  -1  16-8.88602 19.0835  24
   2   1 -16 1.60434 17.5836  16
  -2  -1  16 8.12223 13.3947  33
   2   1 -15 578.248 80.0033  13
   2   1 -15 494.295 72.1259  16
  -2  -1  15 581.700 75.1501  24
  -2  -1  15 562.776 68.0685  33
  -2  -1  14 488.840 69.4700  33
  -2  -1  14 533.790 78.2814  24
   2   1 -14 490.726 77.5241  16
  -2  -1  13 1030.86 107.430  24
   2   1 -13 1134.53 328.524  37
   2   1 -13 941.799 103.629  16
  -2  -1  13 1027.04 102.862  33
  -2  -1  12 1677.80 113.012  29
   2   1 -12 1316.12 337.324  37
  -2  -1  12 1452.23 126.151  26
   2   1 -12 1442.58 126.780  16
  -2  -1  12 1471.14 124.277  33
  -2  -1  11 59.0987 23.3301  29
  -2  -1  11 73.9092 35.0849  26
   2   1 -11 61.8271 33.5796  16
  -2  -1  11 58.7109 28.5996  33
  -2  -1  10 16281.3 348.465  29
  -2  -1  10 15901.3 378.440  26
  -2  -1  10 16063.9 386.172  33
  -2  -1   9 461.471 58.7702  29
  -2  -1   9 440.464 60.8501  26
  -2  -1   8 1419.55 116.001  28
  -2  -1   8 1766.28 108.892  29
   2   1  -8 1802.88 260.765   3
  -2  -1   7 1774.47 260.646  39
  -2  -1   7 1678.11 101.785  29
  -2  -1   7 1734.94 120.756  28
  -2  -1   7 1694.78 88.5942  40
  -2  -1   7 1669.14 116.163  34
   2   1  -7 1702.95 231.926   3
   2   1  -6 613.985 123.037   3
  -2  -1   6 655.413 57.1346  40
  -2  -1   6 619.057 160.313  39
  -2  -1   5 23682.9 970.700  39
  -2  -1   5 21993.8 323.178  40
   2   1  -5 22401.3 640.727   3
   2   1  -4 212.149 62.2554   2
   2   1  -4 199.437 51.2343   3
  -2  -1   4 215.369 101.257   7
  -2  -1   4 118.545 87.6042  39
  -2  -1   4 242.893 35.3258  40
  -2  -1   4 199.479 31.2879  42
  -2  -1   4 191.124 32.6610  41
  -2  -1   3 19959.6 904.080   7
  -2  -1   3 17939.9 283.690  42
  -2  -1   3 18087.5 291.304  40
   2   1  -3 18798.9 600.565  36
  -2  -1   3 18892.5 872.265  39
   2   1  -2 30060.5 877.097  36
  -2  -1   2 27124.2 357.741  40
  -2  -1   2 31663.6 1152.80   7
  -2  -1   2 27020.4 344.278  42
  -2  -1   2 28511.0 1078.25  39
  -2  -1   2 31509.9 404.429  41
  -2  -1   1 9898.57 653.921   7
  -2  -1   1 8124.08 187.900  42
  -2  -1   1 9295.32 233.709  41
  -2  -1   1 8795.09 203.868  40
  -2  -1   1 9040.91 615.265  39
   2   1  -1 9370.50 366.297  18
  -2  -1   0 3792.87 413.115   7
  -2  -1   0 3964.72 131.332  42
  -2  -1   0 3565.17 391.317  39
  -2  -1   0 3547.24 130.991  40
   2   1   0 4623.26 311.455  18
  -2  -1  -1 3942.95 412.414  39
  -2  -1  -1 4109.91 434.193   7
   2   1   1 3736.59 346.638   5
  -2  -1  -1 3884.03 138.398  40
   2   1   1 3507.66 346.311  18
  -2  -1  -1 3976.30 131.446  42
  -2  -1  -2 11.3081 12.7617  42
  -2  -1  -2 11.9653 63.9745   7
   2   1   2 54.5638 54.6534  38
   2   1   2-26.6689 54.5533   5
  -2  -1  -2-0.96722 63.8033  39
   2   1   2 74.9656 67.1410  18
  -2  -1  -2 6.43018 14.4242  40
   2   1   3 24593.8 989.809  38
  -2  -1  -3 23868.4 331.496  42
  -2  -1  -3 27712.7 1157.71   7
  -2  -1  -3 24735.9 360.967  40
  -2  -1  -3 25208.5 1051.16  39
   2   1   3 25292.7 869.283   5
   2   1   3 24149.8 1111.77   4
  -2  -1  -4 2452.08 117.008  40
  -2  -1  -4 2755.00 365.230   7
  -2  -1  -4 2479.63 107.591  42
   2   1   4 2709.06 392.603  18
  -2  -1  -4 2249.33 318.300  39
   2   1   4 2447.79 274.955   5
   2   1   4 2454.08 330.761  38
   2   1   4 2266.22 358.908   4
  -2  -1  -5 8910.88 206.914  42
  -2  -1  -5 9985.16 699.353   7
  -2  -1  -5 8787.99 224.380  40
   2   1   5 9213.09 565.332   5
  -2  -1  -5 8181.13 611.785  39
   2   1   5 8289.33 639.027  38
   2   1   5 8707.43 730.425   4
  -2  -1  -6 248.195 43.4179  30
   2   1   6 310.978 150.419   4
  -2  -1  -6 168.341 100.166   7
  -2  -1  -6 261.446 36.3948  42
  -2  -1  -6 270.142 54.2426  20
  -2  -1  -6 201.017 39.8618  22
   2   1   6 0.60586 105.193  18
   2   1   6 278.939 118.652   5
  -2  -1  -7 9386.95 268.571  30
  -2  -1  -7 8458.86 276.854  22
  -2  -1  -7 9885.95 330.768  20
  -2  -1  -7 10559.7 717.149   7
  -2  -1  -7 8826.45 280.037  19
   2   1   7 8706.90 620.504   5
  -2  -1  -7 8669.74 273.748  16
   2   1   7 8683.61 810.282   4
  -2  -1  -8 1509.06 111.603  30
  -2  -1  -8 1500.35 134.723  20
   2   1   8 1298.03 341.522   4
  -2  -1  -8 1472.74 123.111  19
  -2  -1  -8 1393.87 115.914  16
  -2  -1  -8 1404.39 118.355  22
  -2  -1  -9 156.765 43.5615  16
  -2  -1  -9 163.708 37.6050  30
   2   1   9 152.074 166.625   4
  -2  -1  -9 186.291 50.5601  22
  -2  -1  -9 155.230 48.4760  19
   2   1   9 89.8927 141.538  18
  -2  -1  -9 103.108 50.3002  20
  -2  -1 -10 3606.44 200.814  16
  -2  -1 -10 3535.91 209.486  11
  -2  -1 -10 2644.41 225.046  20
  -2  -1 -10 3368.75 201.955  19
   2   1  10 3362.47 582.265   4
   2   1  11 9532.89 1003.75   4
  -2  -1 -11 10129.1 341.786  16
  -2  -1 -11 10643.8 375.487  11
  -2  -1 -11 9810.67 359.171  19
  -2  -1 -12 41.9584 25.8202  16
   2   1  12 93.9055 129.494   4
  -2  -1 -12 40.0966 33.1178  11
  -2  -1 -12 43.3218 39.4557  19
  -2  -1 -13-5.87612 20.4449  11
  -2  -1 -13 53.9803 38.7223  19
  -2  -1 -13 10.9803 20.4207  16
  -2  -1 -14 197.968 50.8933  19
  -2  -1 -14 180.169 44.5426  16
  -2  -1 -14 184.789 45.7612  11
  -2  -1 -14 190.142 47.3008  21
  -2  -1 -15-1.89030 12.2384  16
  -2  -1 -15-9.46078 13.2660  11
  -2  -1 -15 0.91244 16.2516  21
  -2  -1 -15-13.2099 24.4679  19
   2   2 -17 119.494 30.1233  13
  -2  -2  17 117.195 31.0919  27
   2   2 -17 91.2431 26.7014  16
  -2  -2  17 87.7240 25.5216  24
  -2  -2  17 105.450 24.2825  33
  -2  -2  16 88.7699 29.5199  24
   2   2 -16 104.677 31.8075  13
   2   2 -16 77.9794 31.0726  16
  -2  -2  16 126.469 33.8545  33
  -2  -2  15 26.5229 21.6721  24
   2   2 -15 21.2163 22.8569  16
  -2  -2  15 36.5558 22.1430  33
   2   2 -14 746.869 91.5525  16
  -2  -2  14 940.556 100.278  26
  -2  -2  14 868.443 96.2371  24
  -2  -2  14 925.467 97.4382  33
  -2  -2  13 2070.16 126.628  29
  -2  -2  13 2048.38 150.127  26
   2   2 -13 1856.44 400.597  37
   2   2 -13 2012.30 150.682  16
  -2  -2  13 2111.92 151.248  33
  -2  -2  12 14144.0 341.154  29
  -2  -2  12 13545.7 376.860  26
  -2  -2  12 13565.3 381.621  33
  -2  -2  11 10678.7 298.896  29
  -2  -2  11 10165.2 318.055  26
  -2  -2  10 3528.10 170.143  29
  -2  -2  10 3222.85 171.869  26
  -2  -2   9 12649.8 313.965  29
  -2  -2   9 12631.7 366.699  28
  -2  -2   9 12415.6 318.284  26
  -2  -2   8 2187.11 127.328  29
  -2  -2   8 2371.77 153.842  28
  -2  -2   8 2376.01 118.165  40
  -2  -2   8 2242.66 129.049  26
  -2  -2   8 2408.60 348.083  39
  -2  -2   7 953.017 81.2336  29
  -2  -2   7 984.977 96.6683  28
  -2  -2   7 859.625 76.2253  26
  -2  -2   7 823.405 73.9666  41
  -2  -2   7 876.320 218.043  39
  -2  -2   7 978.043 76.3946  40
  -2  -2   7 945.543 93.7858  34
  -2  -2   7 940.443 79.1439  35
  -2  -2   6 1325.30 96.5120  41
  -2  -2   6 1189.47 87.3882  29
  -2  -2   6 1306.58 258.770  39
  -2  -2   6 1235.11 104.078  28
  -2  -2   6 1150.93 83.2361  40
  -2  -2   6 1212.13 233.685  17
  -2  -2   6 1196.39 102.859  34
  -2  -2   5 3204.73 148.143  41
  -2  -2   5 2744.57 347.242  17
  -2  -2   5 2549.22 124.121  40
  -2  -2   5 2623.63 371.284  39
  -2  -2   4 10756.3 252.703  40
  -2  -2   4 10812.2 749.716  39
  -2  -2   4 10225.2 670.188  17
   2   2  -4 10791.1 548.383  36
  -2  -2   3 232.700 111.163   7
  -2  -2   3 228.003 38.2139  40
  -2  -2   3 144.281 108.324  39
  -2  -2   3 277.667 47.9379  41
  -2  -2   3 255.307 122.879  17
   2   2  -3 193.987 80.2337  36
  -2  -2   2 9178.18 245.986  41
  -2  -2   2 7257.92 206.179  40
  -2  -2   2 8104.48 652.170   7
  -2  -2   2 7702.71 633.424  39
  -2  -2   2 7118.48 552.934  17
   2   2  -2 7569.36 538.041  36
  -2  -2   1 8885.82 688.461   7
  -2  -2   1 8561.40 215.985  42
  -2  -2   1 8727.11 226.218  40
   2   2  -1 8290.33 595.120  36
  -2  -2   1 8296.75 596.177  17
  -2  -2   1 8754.27 671.993  39
   2   2   0 28625.5 1191.05   5
  -2  -2   0 31028.7 1290.09   7
  -2  -2   0 30584.1 425.587  40
  -2  -2   0 30492.5 406.759  42
   2   2   0 31404.6 958.116  38
  -2  -2   0 31801.1 1164.48  17
  -2  -2   0 32475.6 1297.74  39
  -2  -2  -1 9326.91 696.512  39
  -2  -2  -1 9455.97 712.053   7
   2   2   1 8833.47 636.870   5
  -2  -2  -1 9732.87 250.680  41
  -2  -2  -1 8610.15 226.389  40
   2   2   1 8489.37 499.962  38
  -2  -2  -1 8901.50 616.195  17
  -2  -2  -1 9200.73 223.783  42
  -2  -2  -2 5428.72 544.721   7
  -2  -2  -2 4679.31 178.031  41
   2   2   2 5168.63 477.304   5
  -2  -2  -2 4796.52 171.104  40
  -2  -2  -2 4995.92 515.614  39
   2   2   2 5009.85 396.007  38
  -2  -2  -2 5360.94 173.140  42
  -2  -2  -3 887.794 78.9134  30
   2   2   3 650.280 213.007   4
   2   2   3 887.660 177.889  38
  -2  -2  -3 839.484 227.052   7
  -2  -2  -3 876.347 70.5528  42
  -2  -2  -3 793.078 84.1964  34
   2   2   3 757.652 193.297   5
  -2  -2  -3 756.594 69.2427  40
  -2  -2  -3 948.547 229.213  39
  -2  -2  -4 24598.6 428.295  30
  -2  -2  -4 2372.88 147.013  20
  -2  -2  -4 24113.3 390.471  40
  -2  -2  -4 26961.7 1226.60   7
  -2  -2  -4 25363.6 472.342  11
   2   2   4 17739.7 1000.51  18
   2   2   4 25360.7 1098.14   5
  -2  -2  -4 26279.3 1169.87  39
  -2  -2  -4 24564.7 480.272  34
  -2  -2  -4 24888.1 421.729  32
   2   2   4 22750.4 1263.76   4
  -2  -2  -4 3495.12 229.594  31
  -2  -2  -5 1999.40 126.397  30
  -2  -2  -5 1754.05 334.777   7
  -2  -2  -5 1858.57 126.979  16
  -2  -2  -5 1814.17 123.516  19
  -2  -2  -5 1821.62 306.472  39
   2   2   5 986.776 263.378  18
  -2  -2  -5 1969.94 113.031  40
  -2  -2  -5 1844.55 111.032  35
  -2  -2  -5 1967.46 122.346  32
  -2  -2  -5 1904.84 136.846  11
   2   2   5 1888.76 385.774   4
   2   2   5 2059.16 322.716   5
  -2  -2  -6 2451.98 144.861  30
  -2  -2  -6 2565.82 366.332  39
  -2  -2  -6 2322.22 124.949  35
  -2  -2  -6 2146.02 141.667  19
   2   2   6 2474.69 373.240   5
  -2  -2  -6 2465.35 126.544  40
   2   2   6 2364.55 442.439   4
  -2  -2  -6 2424.70 151.906  16
  -2  -2  -6 2420.39 158.901  11
  -2  -2  -7 347.967 57.9559  30
   2   2   7 369.135 210.003   4
  -2  -2  -7 247.257 60.7127  11
  -2  -2  -7 286.327 57.3356  19
  -2  -2  -7 361.422 63.6464  16
   2   2   7 384.066 167.826   5
  -2  -2  -8 40.1345 19.8452  30
   2   2   8 99.3837 153.771   4
  -2  -2  -8 25.8488 25.2151  11
  -2  -2  -8 32.1165 18.6293  19
  -2  -2  -8 75.1069 32.8380  16
  -2  -2  -9 4571.22 229.909  16
  -2  -2  -9 4687.73 242.384  19
  -2  -2  -9 4796.06 246.102  11
   2   2   9 4536.32 683.862   4
  -2  -2  -9 4957.06 213.023  30
   2   2  10 1186.26 356.118   4
  -2  -2 -10 1429.99 131.647  16
  -2  -2 -10 1423.96 141.597  21
  -2  -2 -10 1363.53 135.960  19
  -2  -2 -10 1508.38 140.948  11
   2   2  11-22.4745 90.1308   4
  -2  -2 -11 35.8197 25.8576  11
  -2  -2 -11 44.4279 35.8618  19
  -2  -2 -11 36.1506 35.3916  21
  -2  -2 -11 24.7344 22.3703  16
  -2  -2 -12 1559.93 136.590  11
  -2  -2 -12 1486.17 139.808  21
  -2  -2 -12 1659.88 133.792  16
  -2  -2 -12 1713.91 149.500  19
  -2  -2 -13 862.812 97.2450  11
  -2  -2 -13 1004.35 109.080  21
  -2  -2 -13 1019.79 109.126  19
  -2  -2 -13 930.971 94.4604  16
  -2  -2 -13 1086.29 110.654  34
  -2  -2 -14 253.835 52.4544  21
  -2  -2 -14 227.489 44.6395  11
  -2  -2 -14 208.292 47.7202  19
  -2  -2 -14 248.020 43.4029  16
  -2  -2 -14 217.785 46.5953  34
  -2  -2 -15-5.15250 11.8982  28
  -2  -2 -15 10.6597 15.1420  21
  -2  -2 -15-20.9769 17.8663  34
   2   3 -16 704.653 72.1051  16
  -2  -3  16 813.885 75.7421  24
  -2  -3  16 828.656 75.6959  33
  -2  -3  15 424.632 64.4971  24
   2   3 -15 405.831 61.8599  16
  -2  -3  15 408.915 60.6166  33
  -2  -3  14 28.0633 19.7573  29
  -2  -3  14-1.91200 22.9722  26
   2   3 -14 13.3460 21.1441  16
  -2  -3  14 30.0007 25.9632  33
  -2  -3  13 1663.28 115.031  29
  -2  -3  13 1717.92 132.471  26
  -2  -3  13 1552.31 130.359  33
  -2  -3  12 1128.36 100.066  29
  -2  -3  12 1105.77 112.274  33
  -2  -3  12 1058.50 104.887  26
  -2  -3  11 2592.77 154.214  29
  -2  -3  11 2346.29 152.944  26
  -2  -3  10 2457.29 150.180  29
  -2  -3  10 2410.40 150.074  26
  -2  -3   9 321.475 55.4746  29
  -2  -3   9 364.386 66.9645  28
  -2  -3   9 361.620 55.8619  26
  -2  -3   9 385.638 60.8326  41
  -2  -3   9 436.315 57.1623  40
  -2  -3   8 11062.4 270.559   9
  -2  -3   8 10742.6 298.962  29
  -2  -3   8 10942.0 342.338  28
  -2  -3   8 10168.5 284.460  26
  -2  -3   8 10922.1 851.423  39
  -2  -3   8 11288.1 787.309  17
  -2  -3   8 11251.6 291.981  40
  -2  -3   7 334.604 155.346  39
  -2  -3   7 474.250 61.8948  29
  -2  -3   7 460.898 69.5980  28
  -2  -3   7 545.517 63.1398  35
  -2  -3   7 442.544 59.4933  40
  -2  -3   7 493.295 172.339  17
  -2  -3   7 492.211 59.1360   9
  -2  -3   7 470.899 72.5921  34
  -2  -3   7 608.824 74.2512  41
  -2  -3   6 241.351 48.0525   8
  -2  -3   6 211.572 43.2052  40
  -2  -3   6 223.265 47.4565  28
  -2  -3   6 291.588 52.5567  41
  -2  -3   6 162.161 110.939  39
  -2  -3   6 164.763 115.637  17
  -2  -3   6 173.682 37.6411  35
  -2  -3   6 266.401 56.3864  34
  -2  -3   6 207.640 40.4897   9
  -2  -3   6 153.485 37.5811  29
  -2  -3   5 8.30911 15.0792  35
  -2  -3   5 2.13443 14.1936   8
  -2  -3   5 11.1521 14.7519  29
  -2  -3   5-1.01601 19.8392  28
  -2  -3   5-11.8317 13.8899  33
  -2  -3   5 5.19985 15.7034  40
  -2  -3   5 11.0836 51.1169  17
  -2  -3   5 13.8347 23.6189  34
  -2  -3   5-2.03965 17.1095   9
  -2  -3   5 13.4245 13.6663  32
  -2  -3   5 26.2535 62.4011  39
  -2  -3   4 149.909 39.2176   8
  -2  -3   4 136.579 32.0834  29
  -2  -3   4 137.702 36.2723  28
  -2  -3   4 170.658 104.209  39
  -2  -3   4 177.645 39.0739  40
  -2  -3   4 45.0907 43.4194  17
   2   3  -4 170.468 91.0167  36
  -2  -3   4 120.363 38.8328  34
  -2  -3   4 147.180 36.5890   9
  -2  -3   4 144.488 33.1066  33
  -2  -3   4 137.940 31.1947  32
  -2  -3   4 174.907 38.0483  35
  -2  -3   3 9.02763 16.3199   8
  -2  -3   3 34.1268 20.4894  29
  -2  -3   3 49.8748 26.3198  28
  -2  -3   3 30.1645 15.2897  40
  -2  -3   3-29.2623 92.8914  39
  -2  -3   3 27.5132 58.6033  17
   2   3  -3-24.1974 62.7427  36
  -2  -3   3 23.1918 20.9254  35
  -2  -3   3 37.0277 17.1177   9
  -2  -3   3 35.3572 30.3389  34
  -2  -3   3 51.0291 19.5546  32
  -2  -3   2 13485.3 349.878  28
  -2  -3   2 13000.4 342.630  41
  -2  -3   2 13899.5 322.743  40
  -2  -3   2 14623.2 981.426  39
  -2  -3   2 12736.7 840.230  17
   2   3  -2 13791.2 866.383  36
  -2  -3   2 13119.9 308.417  35
  -2  -3   2 12584.1 284.422   9
  -2  -3   2 13883.8 355.487  34
  -2  -3   2 13756.9 304.632  32
  -2  -3   2 13428.5 325.480   8
  -2  -3   1 705.868 71.8600  30
  -2  -3   1 738.556 81.9532  28
  -2  -3   1 456.207 64.3877  41
  -2  -3   1 597.659 210.529  39
   2   3  -1 778.058 245.504   5
  -2  -3   1 591.317 189.875  17
   2   3  -1 893.652 233.455  36
  -2  -3   1 644.513 70.7381  35
  -2  -3   1 642.442 64.3408   9
  -2  -3   1 594.317 74.2600  34
  -2  -3   1 695.178 71.8703  32
  -2  -3   1 677.920 72.6409  40
  -2  -3   1 619.849 70.6153   8
  -2  -3   0 11485.0 292.281  30
   2   3   0 12509.4 896.611   5
  -2  -3   0 11777.9 333.014  28
  -2  -3   0 12051.8 323.538  11
  -2  -3   0 12327.9 898.463  39
  -2  -3   0 11678.5 295.833  40
  -2  -3   0 12495.8 818.948  17
   2   3   0 11258.8 856.438  36
  -2  -3   0 11847.2 297.396  35
  -2  -3   0 11923.3 273.830   9
  -2  -3   0 11676.4 332.349  34
  -2  -3   0 11823.0 295.132  32
  -2  -3   0 11601.8 302.670   8
  -2  -3  -1 1131.14 94.0377  30
  -2  -3  -1 1094.63 104.273  28
  -2  -3  -1 1010.74 88.2681  35
   2   3   1 996.768 280.175  36
  -2  -3  -1 1008.93 260.469  39
   2   3   1 787.518 230.854   5
  -2  -3  -1 1167.01 250.831  17
  -2  -3  -1 1042.54 81.7687   9
  -2  -3  -1 1160.27 106.476  34
  -2  -3  -1 1028.26 88.4056  40
  -2  -3  -1 1096.98 91.7467  32
  -2  -3  -1 167.394 38.1102  41
  -2  -3  -1 971.540 90.1141   8
  -2  -3  -1 1048.11 94.9208  21
  -2  -3  -1-5.77272 24.8224  31
  -2  -3  -1 1034.51 98.6637  11
  -2  -3  -2 7402.14 246.267  30
  -2  -3  -2 7396.33 274.180  28
   2   3   2 6810.56 647.799   5
  -2  -3  -2 7294.21 264.952  11
  -2  -3  -2 6832.76 249.091  21
  -2  -3  -2 250.638 55.4237  41
  -2  -3  -2 7225.54 233.295  40
  -2  -3  -2 7421.16 695.878  39
  -2  -3  -2 6924.20 606.512  17
   2   3   2 7709.86 758.038  36
  -2  -3  -2 7224.58 210.740   9
  -2  -3  -2 7241.05 236.837  35
  -2  -3  -2 7031.47 267.076  34
   2   3   2 7030.72 746.277   4
  -2  -3  -2 7248.02 241.334  32
  -2  -3  -2 7037.75 238.393   8
  -2  -3  -3 3714.61 198.368  34
  -2  -3  -3 3570.07 197.309  28
  -2  -3  -3 3599.43 192.122  11
   2   3   3 2919.97 486.937  36
  -2  -3  -3 3779.53 191.571  21
  -2  -3  -3 23.9072 22.2232  41
   2   3   3 3253.28 464.660   5
   2   3   3 3705.72 554.798   4
  -2  -3  -3 3664.23 487.860  39
  -2  -3  -3 3611.68 165.630  40
  -2  -3  -3 3511.94 148.025   9
  -2  -3  -3 3642.46 170.548  35
  -2  -3  -3 3646.17 176.167  32
  -2  -3  -3 3557.00 171.110   8
  -2  -3  -3 3340.19 168.880  19
  -2  -3  -3 1.39554 29.1363  31
  -2  -3  -3 3510.56 181.590  16
  -2  -3  -3 3811.34 181.565  30
   2   3   4 1.32352 70.6352  36
  -2  -3  -4 23.3120 21.2559   8
  -2  -3  -4 25.5351 24.9402  19
  -2  -3  -4 9.16562 24.3996  11
  -2  -3  -4 1.12606 17.3242  40
   2   3   4-4.53545 103.026   4
  -2  -3  -4 19.0013 25.2156  21
  -2  -3  -4-11.5894 62.2944  39
  -2  -3  -4-2.15677 20.4226  30
  -2  -3  -4 32.0752 26.2171  35
  -2  -3  -4 7.22940 22.1874  16
  -2  -3  -4 31.6603 22.6882  34
  -2  -3  -4 19.7121 16.3884   9
   2   3   4 71.2394 59.0957   5
  -2  -3  -5 12905.7 323.410  35
  -2  -3  -5 12937.9 279.481   9
  -2  -3  -5 13427.9 908.639  39
  -2  -3  -5 12767.2 385.117  11
  -2  -3  -5 13012.0 383.415  21
  -2  -3  -5 13267.1 310.321  40
   2   3   5 12904.7 939.895   5
  -2  -3  -5 12012.8 350.063  19
  -2  -3  -5 12928.0 368.521  16
  -2  -3  -5 12581.5 383.902  34
   2   3   5 14580.3 1171.84   4
  -2  -3  -5 13793.2 328.997   8
  -2  -3  -5 13235.5 356.984  30
  -2  -3  -6 33.6621 23.4770  30
   2   3   6-18.1554 95.0300   4
  -2  -3  -6 34.1951 21.2835  21
  -2  -3  -6 31.4284 31.3491  11
  -2  -3  -6 49.6761 28.1728  19
  -2  -3  -6 23.1098 15.1630  35
   2   3   6 37.3868 70.6145   5
  -2  -3  -6 57.6509 27.7750  16
  -2  -3  -6 21.2745 23.3173  34
  -2  -3  -7 249.079 53.7138  30
  -2  -3  -7 301.021 66.6932  16
   2   3   7 265.131 158.539   4
  -2  -3  -7 244.784 58.5194  21
  -2  -3  -7 252.767 61.3778  11
  -2  -3  -7 255.145 56.6650  19
   2   3   7 309.787 173.585  36
  -2  -3  -7 256.292 46.9495  35
   2   3   7 148.555 117.408   5
  -2  -3  -7 213.494 59.3976  34
  -2  -3  -8 1528.98 137.208  16
   2   3   8 1371.90 382.921   4
  -2  -3  -8 1681.29 150.207  11
  -2  -3  -8 1484.95 142.651  21
  -2  -3  -8 1555.36 146.306  34
  -2  -3  -8 1495.91 137.278  19
   2   3   8 1397.30 391.925  36
  -2  -3  -8 1574.35 108.791  35
   2   3   9 1935.25 449.758   4
  -2  -3  -9 2574.52 181.522  11
  -2  -3  -9 2435.65 187.855  21
  -2  -3  -9 2285.03 173.523  19
   2   3   9 2414.76 534.063  36
  -2  -3  -9 2274.52 166.483  16
  -2  -3  -9 2314.88 177.704  34
   2   3  10-119.766 155.022   4
  -2  -3 -10 5.76258 32.3890  21
  -2  -3 -10 20.5357 20.7430  16
  -2  -3 -10 17.1817 31.4140  11
  -2  -3 -10 22.0303 28.6033  19
   2   3  10 158.786 143.707  36
  -2  -3 -10 16.8829 24.0213  34
  -2  -3 -11 309.466 68.6531  21
  -2  -3 -11 281.753 60.5635  11
  -2  -3 -11 284.491 58.3581  16
  -2  -3 -11 303.438 65.6500  19
  -2  -3 -11 262.215 60.6353  34
  -2  -3 -12 77.3561 34.9578  21
  -2  -3 -12 89.4109 33.1917  11
  -2  -3 -12 97.5106 33.3135  16
  -2  -3 -12 100.943 39.6028  34
  -2  -3 -13 1146.16 99.1566  28
  -2  -3 -13 1112.39 100.859  21
  -2  -3 -13 1029.39 86.8081  16
  -2  -3 -13 1089.08 94.5091  34
  -2  -4  16 11.7817 12.5452  24
   2   4 -16 8.33208 13.9686  16
  -2  -4  16 5.34938 14.0670  33
  -2  -4  15 25.6161 18.2871  24
  -2  -4  15 33.4724 15.0894  29
  -2  -4  15 60.0241 23.1241  26
   2   4 -15 45.7852 24.3195  16
  -2  -4  15 34.9302 19.1906  33
  -2  -4  14 439.906 53.9943  29
  -2  -4  14 442.092 60.3399  26
   2   4 -14 414.672 63.7939  16
  -2  -4  14 494.991 67.5747  33
  -2  -4  13 1225.28 98.7539  29
  -2  -4  13 1075.60 98.8305  26
  -2  -4  13 1295.01 113.636  33
  -2  -4  12 3203.53 169.537  29
  -2  -4  12 3077.74 169.476  26
  -2  -4  12 3271.94 184.980  33
  -2  -4  11-24.4861 29.6460  29
  -2  -4  11-14.3721 21.1904  26
  -2  -4  11 0.31372 20.2859  33
  -2  -4  10 945.018 97.2811  29
  -2  -4  10 952.364 107.608  28
  -2  -4  10 957.673 95.3133  26
  -2  -4  10 945.176 87.3029  40
  -2  -4  10 935.930 99.6319  33
  -2  -4   9 15011.4 379.344  29
  -2  -4   9 15258.7 416.260  28
  -2  -4   9 13531.6 346.644  26
  -2  -4   9 13940.3 367.367  41
  -2  -4   9 15969.6 372.224  40
  -2  -4   9 15777.6 1120.07  39
  -2  -4   9 16095.9 342.653   9
  -2  -4   8 425.025 63.5129  29
  -2  -4   8 464.817 76.5190  28
  -2  -4   8 465.929 70.8824  41
  -2  -4   8 432.627 66.2986  40
  -2  -4   8 430.461 204.800  39
  -2  -4   8 406.175 169.568  17
  -2  -4   8 498.865 63.0990   9
  -2  -4   8 451.816 66.6938  33
  -2  -4   7 132.770 37.1948  29
  -2  -4   7 99.7636 36.6996  28
  -2  -4   7 152.900 45.6607  41
  -2  -4   7 96.3006 39.1562  40
  -2  -4   7 92.0814 69.0211  39
  -2  -4   7 7.52348 63.2455  17
  -2  -4   7 148.412 45.7154  34
  -2  -4   7 77.3594 29.0998   9
  -2  -4   7 98.2932 35.6814  33
  -2  -4   7 106.167 29.7769  35
  -2  -4   6 1637.72 375.964  39
  -2  -4   6 1516.59 113.110  29
  -2  -4   6 1549.59 130.822  28
  -2  -4   6 1316.47 106.824  25
  -2  -4   6 1455.52 118.861  40
  -2  -4   6 1510.44 330.354  17
  -2  -4   6 1475.64 110.420  35
  -2  -4   6 1498.66 109.537   9
  -2  -4   6 1377.14 127.024  34
  -2  -4   6 1396.67 106.016  33
  -2  -4   5 2.96801 17.1523  29
  -2  -4   5-15.4024 27.0825  28
  -2  -4   5 6.27035 15.4659  25
  -2  -4   5-1.30089 20.5466  11
  -2  -4   5 5.88434 19.5241  40
  -2  -4   5 82.8126 91.8840  39
  -2  -4   5-86.0196 90.2343  17
  -2  -4   5 25.7869 20.2202  35
  -2  -4   5 5.60985 22.9157  34
  -2  -4   5 16.5336 19.8414   9
  -2  -4   5 13.3564 17.6297  32
  -2  -4   5 11.1196 19.6366  33
  -2  -4   4-3.84987 15.5066  29
  -2  -4   4 33.0239 28.1608  28
  -2  -4   4-4.89072 20.0060  25
  -2  -4   4 42.8485 26.5412  35
  -2  -4   4-13.0639 21.0286  11
  -2  -4   4-16.6565 26.3789  40
  -2  -4   4 31.4251 88.0441  39
  -2  -4   4-30.7141 107.463  17
   2   4  -4 80.0005 86.1042  36
  -2  -4   4 26.7805 27.6303  34
  -2  -4   4-0.54504 14.8636   9
  -2  -4   4-1.77859 17.0878  33
  -2  -4   4 1.74510 13.6667  32
  -2  -4   3 62.6262 32.4086   8
  -2  -4   3 75.8251 25.1994  29
  -2  -4   3 50.6766 30.0466  28
  -2  -4   3 74.9715 28.8324  25
  -2  -4   3 64.2661 29.3218  11
  -2  -4   3 68.5599 30.7303  40
  -2  -4   3 9.97599 78.1743  39
   2   4  -3-65.5134 96.4823   5
  -2  -4   3 122.123 92.0308  17
   2   4  -3 62.0690 65.8110  36
  -2  -4   3 58.6698 26.0441  35
  -2  -4   3 76.2742 36.0887  34
  -2  -4   3 48.7172 27.8182   9
  -2  -4   3 90.5602 32.7381  32
  -2  -4   3-5.14154 25.8742  31
  -2  -4   2 865.373 75.6561  29
  -2  -4   2 867.910 98.5538  28
  -2  -4   2 909.477 86.8883  25
  -2  -4   2 911.506 103.321  11
  -2  -4   2 773.583 81.3475  10
  -2  -4   2 747.133 255.853  39
   2   4  -2 811.482 297.120   5
  -2  -4   2 883.414 91.7744  40
  -2  -4   2 797.489 240.257  17
   2   4  -2 751.698 227.438  36
  -2  -4   2 875.887 90.7580  35
  -2  -4   2 954.145 87.5624   9
  -2  -4   2 893.137 99.8822  34
  -2  -4   2 919.917 88.5744  32
  -2  -4   2 744.371 89.1947   8
  -2  -4   1 529.168 57.7565  29
  -2  -4   1 538.011 78.2332  28
   2   4  -1 778.176 266.975   5
  -2  -4   1 8.91947 30.8030  41
  -2  -4   1 521.854 67.1043  10
  -2  -4   1 574.832 222.098  39
  -2  -4   1 843.238 244.850  17
   2   4  -1 558.971 235.511  36
  -2  -4   1 504.034 69.3862  35
  -2  -4   1 543.608 65.6087   9
  -2  -4   1 564.475 74.0240  40
  -2  -4   1 512.373 74.7786  34
  -2  -4   1 502.588 67.1128  30
  -2  -4   1 531.369 69.4435  32
  -2  -4   1 485.778 69.2925   8
  -2  -4   1 597.049 83.1907  11
  -2  -4   1-19.9279 29.6170  31
  -2  -4   0 7603.78 292.425  28
  -2  -4   0 7423.78 271.579  21
   2   4   0 7638.74 787.458   5
  -2  -4   0 79.8621 43.8976  41
  -2  -4   0 7829.65 268.019  40
  -2  -4   0 8144.37 809.392  39
  -2  -4   0 7402.71 704.085  17
   2   4   0 6894.04 757.538  36
  -2  -4   0 7376.45 258.745  35
  -2  -4   0 7326.80 237.239   9
  -2  -4   0 7057.99 277.113  34
  -2  -4   0 7110.16 265.804   8
  -2  -4   0 7666.59 290.737  11
  -2  -4   0 7553.95 262.778  10
  -2  -4   0 7350.53 259.272  30
  -2  -4  -1 1933.71 150.657  28
  -2  -4  -1 1820.23 139.263  21
  -2  -4  -1 1899.91 132.478  40
  -2  -4  -1 1765.47 374.733  39
  -2  -4  -1 1800.31 132.672  10
  -2  -4  -1 2040.50 366.829  17
   2   4   1 2095.97 409.856   5
   2   4   1 1764.68 403.026  36
  -2  -4  -1 1940.15 120.809   9
  -2  -4  -1 1766.29 129.413  35
  -2  -4  -1 1852.65 144.327  34
  -2  -4  -1 1654.83 130.840   8
  -2  -4  -1 1941.09 149.103  11
  -2  -4  -1 1958.92 137.787  30
  -2  -4  -2 3399.93 159.575   9
  -2  -4  -2 3138.75 190.149  11
  -2  -4  -2 3618.05 209.564  28
  -2  -4  -2 3449.59 176.160  40
  -2  -4  -2 3247.46 189.644  21
   2   4   2 4026.05 575.320   5
  -2  -4  -2 3410.27 198.650  34
  -2  -4  -2 4876.18 628.596  39
  -2  -4  -2 3533.79 476.866  17
   2   4   2 3558.61 573.491  36
  -2  -4  -2 3409.94 180.822  35
  -2  -4  -2 3457.52 188.058  10
   2   4   2 3932.62 612.663   4
  -2  -4  -2 3307.67 179.946   8
  -2  -4  -2 3525.32 187.698  30
  -2  -4  -3 989.211 112.713  28
   2   4   3 954.877 323.382   4
  -2  -4  -3 890.091 105.110  11
  -2  -4  -3 887.235 103.715  21
  -2  -4  -3 863.182 262.670  39
   2   4   3 950.396 315.649  36
   2   4   3 678.539 248.448   5
  -2  -4  -3 895.818 94.2572  35
  -2  -4  -3 1054.33 96.4630  40
  -2  -4  -3 987.997 110.814  34
  -2  -4  -3 856.004 90.8776   8
  -2  -4  -3 856.486 96.2763  30
  -2  -4  -3 903.719 80.5511   9
  -2  -4  -4 10750.9 299.642  40
  -2  -4  -4 10239.9 366.031  28
  -2  -4  -4 10195.0 358.742  11
  -2  -4  -4 10218.5 354.629  21
   2   4   4 10010.4 913.522   5
  -2  -4  -4 10814.7 887.116  39
   2   4   4 10371.4 1039.06  36
  -2  -4  -4 10353.6 268.806   9
  -2  -4  -4 10437.6 315.737  35
  -2  -4  -4 10113.6 352.359  34
   2   4   4 10350.5 1016.55   4
   2   4   5 367.980 197.263  36
  -2  -4  -5 533.518 86.9050  28
   2   4   5 897.662 306.400   4
  -2  -4  -5 612.024 90.8414  21
  -2  -4  -5 572.738 69.2254  40
  -2  -4  -5 538.075 83.5728  11
  -2  -4  -5 638.447 66.7593   9
  -2  -4  -5 539.300 81.4746  16
  -2  -4  -5 626.660 79.9692  35
   2   4   5 601.035 232.344   5
  -2  -4  -5 624.080 90.0975  34
   2   4   6 141.721 110.713   4
  -2  -4  -6 117.189 46.7540  21
  -2  -4  -6 128.514 45.0506  11
   2   4   6 127.261 163.790  36
  -2  -4  -6 154.122 41.7613  35
   2   4   6 94.7504 154.525   5
  -2  -4  -6 138.962 46.6454  16
  -2  -4  -6 118.711 42.1296  34
  -2  -4  -7 1875.47 157.228  11
   2   4   7 1969.06 480.443  36
   2   4   7 1798.40 442.698   4
  -2  -4  -7 1669.63 152.699  21
  -2  -4  -7 1762.08 149.189  16
  -2  -4  -7 1830.16 127.107  35
  -2  -4  -7 1685.84 148.397  34
   2   4   7 1486.18 369.180   5
  -2  -4  -8 207.650 55.1394  11
   2   4   8 165.214 78.4737   4
  -2  -4  -8 245.225 64.9508  21
   2   4   8 189.505 140.808  36
  -2  -4  -8 177.912 41.6249  35
  -2  -4  -8 154.772 44.1740  16
  -2  -4  -8 179.498 52.6542  34
  -2  -4  -9 2322.21 166.212  11
  -2  -4  -9 2220.91 173.601  21
  -2  -4  -9 2015.57 152.931  16
  -2  -4  -9 2083.79 156.363  34
  -2  -4 -10 43.0297 36.5431  28
  -2  -4 -10 25.5362 24.3747  21
  -2  -4 -10 12.8512 28.9163  11
  -2  -4 -10 33.1516 28.7016  16
  -2  -4 -10 37.0293 26.2032  34
  -2  -4 -11 174.034 41.5260  11
  -2  -4 -11 175.176 45.4443  28
  -2  -4 -11 189.288 46.9825  21
  -2  -4 -11 163.733 39.3731  16
  -2  -4 -11 169.762 39.7806  34
  -2  -4 -12 254.269 48.3082  28
  -2  -4 -12 274.174 43.0422  11
  -2  -4 -12 273.886 43.3401  34
  -2  -4 -12 241.559 44.8132  21
  -2  -5  14 177.978 33.3416  29
  -2  -5  14 185.722 35.1813  26
   2   5 -14 179.337 37.5070  16
  -2  -5  14 190.785 37.8756  33
  -2  -5  13 203.980 39.8796  29
  -2  -5  13 176.083 37.0803  26
  -2  -5  13 186.128 41.4434  33
  -2  -5  12 372.628 59.2445  29
  -2  -5  12 310.233 49.4101  26
  -2  -5  12 389.346 61.9537  33
  -2  -5  11 94.3248 35.7293  29
  -2  -5  11 57.5672 29.4776  26
  -2  -5  11 108.441 34.6721  33
  -2  -5  10 740.041 86.0442  29
  -2  -5  10 716.861 77.8011  26
  -2  -5  10 680.534 76.6933  40
  -2  -5  10 731.976 84.4067  33
  -2  -5  10 733.912 70.1524   9
  -2  -5   9 3508.16 186.098  29
  -2  -5   9 3226.98 186.682  28
  -2  -5   9 3167.58 166.305  26
  -2  -5   9 3467.37 180.503  40
  -2  -5   9 3260.68 536.505  39
  -2  -5   9 3387.15 160.875   9
  -2  -5   9 3154.31 489.323  17
  -2  -5   9 3363.00 173.411  33
  -2  -5   8 545.889 73.7106  29
  -2  -5   8 509.756 75.8658  28
  -2  -5   8 498.806 72.8812  40
  -2  -5   8 654.509 230.290  39
  -2  -5   8 442.524 206.153  17
  -2  -5   8 574.127 70.4945   9
  -2  -5   8 471.982 65.4706  33
  -2  -5   7 321.212 57.8562  29
  -2  -5   7 355.403 65.5420  28
  -2  -5   7 331.889 63.5440  40
  -2  -5   7 32.6323 35.1382  41
  -2  -5   7 337.368 198.131  39
  -2  -5   7 206.255 120.074  17
  -2  -5   7 303.657 49.9466  35
  -2  -5   7 252.778 59.6656  34
  -2  -5   7 322.051 55.1582   9
  -2  -5   7 281.413 50.3736  33
  -2  -5   6 1456.49 115.746  29
  -2  -5   6 1413.60 128.306  28
  -2  -5   6 1364.92 115.702  25
  -2  -5   6 280.117 81.9425  11
  -2  -5   6 107.264 45.0660  41
  -2  -5   6 1379.48 124.876  40
  -2  -5   6 1634.70 405.707  39
   2   5  -6-10.2736 100.135   5
  -2  -5   6 1405.90 347.412  17
  -2  -5   6 1199.60 104.878  35
  -2  -5   6 1564.98 122.882   9
  -2  -5   6 1788.93 152.781  34
  -2  -5   6 1486.79 108.204  33
  -2  -5   5 633.130 75.2426  29
  -2  -5   5 642.588 87.6366  28
  -2  -5   5 674.331 81.8209  25
  -2  -5   5 613.803 78.3531  35
  -2  -5   5 434.585 84.0512  11
  -2  -5   5 47.5318 42.9881  41
  -2  -5   5 764.588 94.9777  40
  -2  -5   5 490.256 229.996  39
   2   5  -5-41.8658 156.665   5
  -2  -5   5 688.151 256.632  17
  -2  -5   5 636.465 79.4422   9
  -2  -5   5 680.002 92.6070  34
  -2  -5   4 475.450 63.8728  29
  -2  -5   4 547.638 82.4092  28
  -2  -5   4 461.117 66.8033  25
  -2  -5   4 382.853 81.5031  11
  -2  -5   4 453.965 75.6366  40
  -2  -5   4 538.342 252.336  39
   2   5  -4 201.544 201.404   5
  -2  -5   4 547.860 218.260  17
   2   5  -4 723.875 243.295  36
  -2  -5   4 510.748 73.1484  35
  -2  -5   4 447.772 67.6662   9
  -2  -5   4 564.036 85.5979  34
  -2  -5   3 71.6500 26.6581  29
  -2  -5   3 93.0449 40.9790  28
  -2  -5   3 95.5381 35.8971  25
  -2  -5   3-0.97271 34.8033  41
  -2  -5   3 51.7637 37.6678  11
  -2  -5   3 74.5342 39.2095  40
  -2  -5   3 105.039 151.855  39
   2   5  -3 27.0737 100.105   5
  -2  -5   3 270.304 151.882  17
   2   5  -3 54.8724 77.7514  36
  -2  -5   3 63.9457 27.6971  35
  -2  -5   3 87.6167 37.1318  34
  -2  -5   3 197.803 47.6387   9
  -2  -5   2 674.847 70.4029  29
  -2  -5   2 675.454 92.0027  28
  -2  -5   2 648.059 79.6769  25
  -2  -5   2 644.992 93.6045  11
  -2  -5   2 5.40866 28.3666  41
  -2  -5   2 668.153 90.5256  40
  -2  -5   2 617.325 78.7716  10
  -2  -5   2 436.276 226.099  39
   2   5  -2 648.832 282.704   5
  -2  -5   2 599.842 233.448  17
   2   5  -2 762.614 279.290  36
  -2  -5   2 715.295 85.7270  35
  -2  -5   2 702.841 83.3297   9
  -2  -5   2 635.115 88.5132  34
  -2  -5   1 1344.82 130.989  28
  -2  -5   1 1320.16 113.634  25
  -2  -5   1 1254.36 122.097  34
  -2  -5   1 1312.37 130.283  11
  -2  -5   1 1299.90 116.104  10
  -2  -5   1 1405.63 369.828  39
   2   5  -1 1197.59 343.634   5
  -2  -5   1 1337.53 329.371  17
   2   5  -1 1082.22 317.123  36
  -2  -5   1 1329.69 117.324  35
  -2  -5   1 1396.14 113.087   9
  -2  -5   1 1392.05 124.605  40
  -2  -5   0 16165.9 452.418  28
   2   5   0 17216.8 1342.06   4
  -2  -5   0 16317.4 467.365  11
   2   5   0 16194.3 1251.17   5
  -2  -5   0 16300.1 416.582  40
  -2  -5   0 16516.4 1244.31  39
  -2  -5   0 15535.9 403.924  10
  -2  -5   0 16769.4 1136.83  17
   2   5   0 15719.1 1242.43  36
  -2  -5   0 16209.5 412.144  35
  -2  -5   0 16670.1 380.936   9
  -2  -5   0 16319.4 439.902  34
  -2  -5  -1 5252.13 692.584  39
  -2  -5  -1 5116.87 258.211  28
   2   5   1 4793.18 678.798   5
  -2  -5  -1 5049.46 229.179  40
  -2  -5  -1 4956.87 232.900  10
  -2  -5  -1 4888.70 604.261  17
   2   5   1 4565.95 689.730  36
  -2  -5  -1 5319.15 211.108   9
  -2  -5  -1 5064.53 232.732  35
  -2  -5  -1 4924.18 242.416  34
  -2  -5  -1 5481.34 269.928  11
   2   5   1 4058.94 652.896   4
  -2  -5  -2 2430.32 181.002  11
  -2  -5  -2 2376.19 179.776  28
   2   5   2 1828.42 439.695   4
  -2  -5  -2 2437.89 140.621   9
  -2  -5  -2 2350.16 173.521  21
  -2  -5  -2 2358.93 152.620  40
  -2  -5  -2 2605.06 487.580  39
  -2  -5  -2 2393.38 165.650  10
   2   5   2 2012.03 474.332  36
  -2  -5  -2 2381.16 161.025  35
   2   5   2 2776.64 525.988   5
  -2  -5  -2 2609.61 178.214  34
  -2  -5  -3 6683.33 296.039  21
  -2  -5  -3 6668.46 301.767  28
   2   5   3 6756.77 802.872   5
  -2  -5  -3 6260.12 725.361  39
  -2  -5  -3 6299.34 271.132  10
   2   5   3 6552.97 847.907  36
  -2  -5  -3 6492.05 223.008   9
  -2  -5  -3 6912.52 272.818  35
  -2  -5  -3 6501.85 279.919  34
  -2  -5  -3 6797.47 307.821  11
  -2  -5  -3 6846.31 251.114  40
   2   5   3 6554.25 827.138   4
  -2  -5  -4 5511.91 275.688  28
  -2  -5  -4 5930.18 222.539  40
  -2  -5  -4 5405.37 267.348  21
   2   5   4 5563.28 732.035   5
  -2  -5  -4 5462.02 255.271  10
   2   5   4 4569.21 724.899  36
  -2  -5  -4 5440.58 196.281   9
  -2  -5  -4 5490.93 240.009  35
  -2  -5  -4 5548.25 257.864  34
   2   5   4 5469.94 762.456   4
  -2  -5  -4 5343.06 270.785  11
  -2  -5  -5 612.902 95.4342  28
   2   5   5 397.862 188.067   4
  -2  -5  -5 515.461 88.0685  21
  -2  -5  -5 500.556 78.4562  10
   2   5   5 384.382 220.286  36
  -2  -5  -5 533.629 75.5150  35
   2   5   5 200.596 183.089   5
  -2  -5  -5 477.909 78.5852  34
  -2  -5  -5 482.781 82.1747  11
  -2  -5  -6 2.00868 33.8831  28
  -2  -5  -6-3.14177 28.2297  21
  -2  -5  -6-16.4221 28.1801  11
  -2  -5  -6 12.6347 20.7999  10
   2   5   6-86.7099 141.449  36
  -2  -5  -6-4.59834 19.8885  35
  -2  -5  -6 6.46666 19.5140  34
  -2  -5  -7 1624.86 140.006  11
  -2  -5  -7 1674.27 148.703  28
  -2  -5  -7 1573.62 143.283  21
  -2  -5  -7 1423.16 126.412  10
  -2  -5  -7 1618.88 114.585  35
  -2  -5  -7 1490.02 126.504  34
  -2  -5  -8 1399.89 129.299  28
  -2  -5  -8 1303.56 125.451  21
  -2  -5  -8 1302.19 115.325  10
  -2  -5  -8 1349.42 95.4377  35
  -2  -5  -8 1332.11 111.721  34
  -2  -5  -8 1279.49 123.180  11
  -2  -5  -9 252.319 53.1498  28
  -2  -5  -9 280.515 52.3206  10
  -2  -5  -9 297.681 58.4727  21
  -2  -5  -9 156.654 43.6951  11
  -2  -5  -9 257.297 46.7449  34
  -2  -5 -10-11.5335 21.0699  21
  -2  -5 -10 7.72755 22.4219  28
  -2  -5 -10 22.0683 18.4145  11
  -2  -5 -10 3.79160 15.3887  10
  -2  -5 -10 12.5691 15.3775  34
  -2  -6  13 20.6698 16.0138  29
  -2  -6  13 10.9802 12.9220  26
  -2  -6  13 9.77326 10.9394  24
  -2  -6  13 13.7487 10.0086  33
  -2  -6  12 110.856 29.3981  29
  -2  -6  12 121.623 26.9472  26
  -2  -6  12 136.758 28.8022  33
  -2  -6  11 821.635 78.1580  29
  -2  -6  11 766.392 68.0537  26
  -2  -6  11 751.697 68.4303  33
  -2  -6  10 1669.23 116.698  29
  -2  -6  10 1493.29 98.2225  26
  -2  -6  10 1571.78 109.655  40
  -2  -6  10 1599.19 96.7456   9
  -2  -6  10 1538.30 100.795  33
  -2  -6   9-2.64802 20.2349  29
  -2  -6   9 7.05044 23.6147  40
  -2  -6   9 31.9123 29.7572  28
  -2  -6   9 10.2553 13.8098  26
  -2  -6   9 13.9924 18.2185  41
  -2  -6   9-8.02917 17.1648   9
  -2  -6   9-0.75605 13.3391  33
  -2  -6   8 1003.21 94.7214  29
  -2  -6   8 1035.86 98.3630  28
  -2  -6   8 855.502 78.4326  26
  -2  -6   8 984.053 99.2203  40
  -2  -6   8 923.931 87.2651   9
  -2  -6   7 2809.99 157.187  29
  -2  -6   7 2908.28 167.664  28
  -2  -6   7 2892.78 176.722  40
  -2  -6   7 3060.28 147.157  35
  -2  -6   7 2942.78 160.693   9
  -2  -6   6 25.7805 23.9180   9
  -2  -6   6 3.42484 19.1322  29
  -2  -6   6-29.6387 40.0343  41
  -2  -6   6-5.31061 17.7288  28
  -2  -6   6 10.7343 27.3344  40
   2   6  -6 127.951 193.045   5
  -2  -6   6 7.87395 83.8345  17
  -2  -6   6 0.16852 26.1615  34
  -2  -6   6-1.35904 19.0010  35
  -2  -6   5 236.909 48.2653  29
  -2  -6   5 229.456 52.5943  28
  -2  -6   5 220.922 48.4485  25
  -2  -6   5 94.3373 47.5354  11
  -2  -6   5-13.6913 28.8391  41
  -2  -6   5 196.296 53.6971  40
  -2  -6   5 2.36633 103.706  39
   2   6  -5-88.7301 148.605   5
  -2  -6   5 245.318 171.501  17
  -2  -6   5 210.089 44.6518  35
  -2  -6   5 200.021 53.1743  34
  -2  -6   5 209.170 46.8951   9
  -2  -6   4 1156.75 94.9622  29
  -2  -6   4 1181.78 114.949  28
  -2  -6   4 1105.46 105.034  25
  -2  -6   4 915.065 119.616  11
  -2  -6   4 1211.16 120.663  40
  -2  -6   4 1113.43 348.894  39
  -2  -6   4 1226.31 108.907  35
   2   6  -4 900.080 337.921   5
  -2  -6   4 1293.62 341.551  17
  -2  -6   4 1159.52 108.058   9
  -2  -6   4 1151.83 115.876  34
  -2  -6   3 1096.99 89.9156  29
  -2  -6   3 1113.93 113.966  28
  -2  -6   3 1023.78 101.740  25
  -2  -6   3 1095.22 127.894  11
  -2  -6   3 1284.79 125.369  40
  -2  -6   3 1050.32 329.263  39
   2   6  -3 1270.63 372.542   5
  -2  -6   3 1530.23 366.442  17
   2   6  -3 1502.01 377.149  36
  -2  -6   3 1122.34 107.770  35
  -2  -6   3 1224.25 111.502   9
  -2  -6   3 1216.43 118.068  34
  -2  -6   2 188.151 36.7230  29
  -2  -6   2 171.172 48.9102  28
  -2  -6   2 182.588 44.8395  25
  -2  -6   2-11.7142 32.9502  41
  -2  -6   2 170.085 53.8744  11
  -2  -6   2 194.499 53.8876  40
  -2  -6   2 217.152 140.501  39
  -2  -6   2 279.315 134.448  17
   2   6  -2 290.371 163.978  36
   2   6  -2 130.428 149.937   5
  -2  -6   2 156.495 43.9853  35
  -2  -6   2 113.226 41.5230  34
  -2  -6   2 208.116 52.2529   9
   2   6  -1 7385.27 869.464   5
  -2  -6   1 8854.58 326.697  28
  -2  -6   1 8121.41 283.160  25
  -2  -6   1 9388.79 357.843  11
  -2  -6   1 9095.14 317.982  40
  -2  -6   1 8018.98 287.851  10
  -2  -6   1 8832.13 852.595  17
   2   6  -1 8145.14 897.834  36
  -2  -6   1 8718.44 936.133  39
  -2  -6   1 8732.49 304.556  35
  -2  -6   1 8877.62 287.105   9
  -2  -6   1 8426.22 305.117  34
   2   6  -1 9076.74 976.096   4
   2   6   0 286.745 161.655   4
  -2  -6   0 298.934 63.9071  28
  -2  -6   0 47.2593 36.5616  41
  -2  -6   0 234.810 49.0435  25
  -2  -6   0 291.733 67.5365  11
  -2  -6   0 264.509 57.1716  40
  -2  -6   0 447.652 216.683  39
  -2  -6   0 226.859 52.8663  10
  -2  -6   0 354.146 173.438  17
   2   6   0 52.3194 106.199  36
   2   6   0 204.514 133.357   5
  -2  -6   0 320.091 61.2630  35
  -2  -6   0 310.439 61.8770  34
  -2  -6   0 299.150 55.7664   9
  -2  -6  -1 2043.45 159.051  28
  -2  -6  -1 2004.81 141.423  40
   2   6   1 1807.92 436.541   4
  -2  -6  -1 1849.07 135.248  25
  -2  -6  -1 2153.80 174.282  11
   2   6   1 1801.00 436.428   5
  -2  -6  -1 1925.88 144.233  10
  -2  -6  -1 2278.57 473.335  39
  -2  -6  -1 1971.73 128.081   9
   2   6   1 2143.43 488.236  36
  -2  -6  -1 2105.73 152.189  35
  -2  -6  -1 1957.93 144.917  34
  -2  -6  -2 674.877 94.4628  28
  -2  -6  -2 633.568 79.6258  25
  -2  -6  -2 724.493 100.987  11
  -2  -6  -2 766.921 84.8806  40
  -2  -6  -2 644.258 84.3927  10
  -2  -6  -2 643.036 69.7109   9
  -2  -6  -2 680.226 87.1544  35
  -2  -6  -2 710.269 86.9181  34
  -2  -6  -3 3492.63 206.404  28
  -2  -6  -3 3673.20 219.904  11
  -2  -6  -3 3344.23 187.528  10
  -2  -6  -3 3470.11 152.145   9
  -2  -6  -3 3715.55 194.752  35
  -2  -6  -3 3627.95 187.832  34
  -2  -6  -3 3799.60 173.486  40
  -2  -6  -4 128.435 45.4475  28
  -2  -6  -4 114.537 44.4497  11
  -2  -6  -4 100.690 37.5680  10
  -2  -6  -4 128.210 42.9440  35
  -2  -6  -4 124.174 35.7620  34
  -2  -6  -4 62.9856 19.2384   9
  -2  -6  -5 18.5074 23.2042  28
  -2  -6  -5-16.0612 25.8332  11
  -2  -6  -5 21.9796 22.9893  10
  -2  -6  -5 54.0679 26.8244  35
  -2  -6  -5 10.9736 14.5184  34
  -2  -6  -6 13.8831 20.8280  28
  -2  -6  -6 47.9979 29.9693  11
  -2  -6  -6 37.8969 22.7395  10
  -2  -6  -6 29.9615 21.2787  35
  -2  -6  -6 65.0151 25.7675  34
  -2  -6  -7 240.526 49.5169  28
  -2  -6  -7 192.140 44.2340  11
  -2  -6  -7 260.858 46.7514  10
  -2  -6  -7 224.312 38.0181  35
  -2  -6  -8 553.144 66.5982  28
  -2  -6  -8 415.473 54.0099  11
  -2  -6  -8 540.939 58.4400  10
  -2  -7  10 309.017 34.8298   9
  -2  -7  10 322.439 42.7461  29
  -2  -7   9 845.635 71.2815  29
  -2  -7   9 944.733 79.2452  40
  -2  -7   9 819.451 65.3018   9
  -2  -7   8 755.446 69.3863  29
  -2  -7   8 855.585 73.2713   9
  -2  -7   8 775.988 77.6541  40
  -2  -7   7 825.748 73.7997  29
  -2  -7   7 783.746 67.8265  28
  -2  -7   7 781.242 75.9271   9
  -2  -7   7 819.961 84.4919  40
  -2  -7   6 246.744 40.7282  29
  -2  -7   6 212.489 38.3325  28
  -2  -7   6 207.731 46.1410  40
  -2  -7   6 247.623 40.9048  35
  -2  -7   6 199.206 42.8485   9
  -2  -7   5 1082.15 80.7035  29
  -2  -7   5 1075.51 89.7079  28
  -2  -7   5 1016.08 100.787  40
  -2  -7   5 1022.56 83.8610  35
  -2  -7   5 1047.78 92.7791   9
  -2  -7   4 17.5982 15.1023  29
  -2  -7   4 9.60181 16.9349  28
  -2  -7   4-2.55295 17.5770  25
  -2  -7   4 16.9081 24.7589  11
  -2  -7   4 13.4044 24.0718  41
  -2  -7   4 6.97798 19.6633  40
  -2  -7   4 21.0793 19.8837  35
  -2  -7   4-3.36212 19.4294   9
  -2  -7   3 1374.65 107.277  28
  -2  -7   3 1390.79 102.870  25
  -2  -7   3 1180.02 123.619  11
  -2  -7   3 1436.84 118.094  40
  -2  -7   3 1501.25 110.592  35
  -2  -7   3 1455.28 109.624   9
  -2  -7   3 1319.53 103.381  34
  -2  -7   2 15.3762 23.1789  28
  -2  -7   2 5.30726 17.8307  25
  -2  -7   2 7.01072 23.4499  11
  -2  -7   2-17.3864 24.1822  41
  -2  -7   2 8.56143 21.9569  40
  -2  -7   2 2.22206 21.5983  35
  -2  -7   2 13.5164 16.0764  34
  -2  -7   2 9.65243 20.2753   9
  -2  -7   1 1607.94 119.039  28
  -2  -7   1 1612.70 111.134  25
  -2  -7   1 1881.20 148.208  11
  -2  -7   1 1667.94 122.569  40
  -2  -7   1 1662.93 112.001   9
  -2  -7   1 1567.30 118.003  35
  -2  -7   1 1556.42 107.809  34
  -2  -7   0 3500.03 175.799  28
  -2  -7   0 3365.03 158.236  25
  -2  -7   0 3937.74 206.851  11
  -2  -7   0 3516.33 169.508  40
  -2  -7   0 3621.43 157.671   9
  -2  -7   0 3704.02 179.256  35
  -2  -7   0 3481.50 155.170  34
  -2  -7  -1 214.614 40.7316  40
  -2  -7  -1 222.802 46.0974  28
  -2  -7  -1 180.689 37.0983  25
  -2  -7  -1 239.175 52.4185  11
  -2  -7  -1 200.769 43.7222  35
  -2  -7  -1 210.825 38.0916   9
  -2  -7  -2 841.375 84.6045  28
  -2  -7  -2 824.722 73.2924  25
  -2  -7  -2 880.953 96.7753  11
  -2  -7  -2 835.052 78.6070  10
  -2  -7  -2 848.502 66.2172   9
  -2  -7  -2 896.690 86.1968  35
  -2  -7  -3 31.4617 15.5522  10
  -2  -7  -3 17.0386 19.6616  28
  -2  -7  -3 10.7946 26.5192  11
  -2  -7  -3 16.6559 21.4694  35
  -2  -7  -4 7.92077 16.0137  10
  -2  -7  -4 9.41806 14.8262  28
  -2  -7  -4-37.7814 27.3108  11
  -2  -7  -4 17.6100 18.1972  35
  -2  -7  -5 154.151 33.9319  28
  -2  -7  -5 111.785 31.0935  11
  -2  -7  -5 142.713 28.9003  10
  -2  -7  -5 148.050 29.9759  35
  -2  -8   5 344.371 42.3795   9
  -2  -8   4 133.805 22.7767  35
  -2  -8   4 125.021 27.8645   9
  -2  -8   3 161.756 27.7740  35
  -2  -8   3 204.172 32.8814   9
  -2  -8   2 562.299 52.7093  35
  -2  -8   2 662.749 55.4182   9
  -2  -8   1 9.46320 12.5351  35
  -2  -8   1 10.6828 10.6109   9
   3  -8  -5 56.4595 20.1655  15
  -3   8   5 61.2279 22.3676  32
   3  -8  -4 89.6366 27.2803  15
   3  -8  -3 3.44539 15.2102  15
   3  -8  -2 214.735 41.6548  15
   3  -8  -1-0.90435 30.3289  12
   3  -8  -1 91.7202 32.3033  15
  -3   8   0 1357.14 96.4253  42
   3  -8   0 1319.95 101.024  15
  -3   8   0 1439.85 91.5376  14
  -3   8  -1 347.571 52.7458  42
   3  -8   1 437.209 60.1023  15
  -3   8  -1 434.463 54.8446  32
  -3   8  -1 445.987 56.1043  14
  -3   8  -2 4043.29 177.818  42
  -3   8  -2 3940.95 150.429  32
   3  -8   2 3934.91 168.490  15
  -3   8  -2 4320.03 178.235  14
  -3   8  -3 1467.02 108.754  14
   3  -8   3 1335.40 124.739  12
  -3   8  -3 1312.06 104.110  42
   3  -8   3 1317.62 94.8863  15
  -3   8  -4 6.12190 20.4821  14
   3  -8   4-12.8979 25.8602  12
  -3   8  -4-14.0843 17.9112  42
   3  -8   4-8.34365 27.8650  41
  -3   8  -5 16.0058 21.7094  14
   3  -8   5 0.88814 24.2929  12
  -3   8  -5 25.4748 24.2735  42
   3  -8   5-13.0025 19.7517  41
  -3   8  -6 16.0344 16.6514  14
   3  -8   6 22.5193 24.4172  12
  -3   8  -6 5.99777 15.2841  42
   3  -8   6 5.05223 21.4676  41
  -3   8  -7 1.97346 19.2444  14
  -3   8  -7 6.31339 11.6818  30
   3  -8   7 9.49541 19.9755  12
  -3   8  -7-6.59041 14.0833  42
  -3   8  -8 278.923 44.3963  14
   3  -8   8 149.182 39.0742  12
  -3   8  -8 277.239 41.6155  42
  -3   8  -9 1.35515 13.2744  14
   3  -8   9 5.63888 18.1688  12
  -3   7   8 326.621 42.5791  32
   3  -7  -8 320.620 46.9945  15
   3  -7  -7 903.975 84.7261  15
  -3   7   6 514.358 52.3439  24
   3  -7  -6 473.425 68.1483  15
  -3   7   5 17.0585 16.6011  24
   3  -7  -5-3.39607 19.5843  15
  -3   7   4 421.197 58.1854  24
   3  -7  -4 500.712 72.6107  15
  -3   7   3 152.797 38.3266  24
   3  -7  -3 162.197 43.2873  15
  -3   7   2 13.7419 18.9224  24
  -3   7   2 16.7359 16.6770  42
   3  -7  -2 62.3771 33.0419  15
  -3   7   1 281.278 49.2659  14
  -3   7   1 300.161 56.1107  24
  -3   7   1 239.719 47.0996  42
   3  -7  -1 328.376 60.7764  15
  -3   7   0 709.116 81.5884  42
  -3   7   0 663.130 82.6424  24
   3  -7   0 724.274 86.2502  15
   3  -7   0 811.148 294.330   3
  -3   7   0 710.050 78.4531  14
   3  -7   1 1075.56 126.036  41
   3  -7   1 430.728 218.654   2
  -3   7  -1 734.825 82.7131  14
   3  -7   1 645.339 80.1489  15
  -3   7  -1 690.558 82.1520  42
   3  -7   1 803.728 292.254   3
   3  -7   2 334.211 76.6360  41
   3  -7   2 283.903 103.404  12
  -3   7  -2 871.399 93.8189  14
  -3   7  -2 836.736 93.3315  42
   3  -7   2 392.465 223.775   2
   3  -7   2 792.348 87.0197  15
   3  -7   2 810.917 268.397   3
  -3   7  -3 264.455 56.0322  14
   3  -7   3 85.9893 59.6678  12
  -3   7  -3 188.797 46.6019  42
   3  -7   3 170.858 62.9007  41
   3  -7   3-34.2137 153.137  18
   3  -7   3 142.982 110.899   3
   3  -7   3 182.303 41.3401  15
  -3   7  -3 212.317 40.4002  32
   3  -7   4 111.436 158.669  18
  -3   7  -4 197.056 48.3970  14
  -3   7  -4 141.276 41.6080  42
   3  -7   4 121.422 51.6424  12
   3  -7   4 145.500 55.9575  41
   3  -7   4 160.664 37.0107  15
  -3   7  -5 236.344 53.0590  14
   3  -7   5 173.058 59.0384  12
  -3   7  -5 165.199 44.3354  42
   3  -7   5 75.7124 48.8718  41
  -3   7  -6 83.5431 35.4787  14
   3  -7   6 110.947 42.3955  12
  -3   7  -6 131.523 40.1210  42
  -3   7  -7 105.673 37.0769  14
   3  -7   7 161.551 47.2913  12
  -3   7  -7 113.107 35.2338  42
  -3   7  -8 748.038 71.3497  30
   3  -7   8 594.402 86.3811  12
  -3   7  -8 707.470 75.9334  42
  -3   7  -8 671.652 79.3344  14
  -3   7  -9 228.874 42.5063  42
  -3   7  -9 212.738 44.6175  14
   3  -7   9 97.0874 40.8010  12
   3  -7   9 4.42007 26.8705  41
  -3   7  -9 3.95233 20.0581  20
  -3   7 -10 90.1707 26.8044   8
  -3   7 -10 203.852 39.7430  14
   3  -7  10 74.2705 34.1195  12
  -3   7 -10 186.173 33.6012  42
  -3   7 -11 6.54773 11.1363  14
  -3   7 -11-5.54776 10.7249   8
   3  -7  11-13.9522 19.8678  12
  -3   7 -11 6.06643 16.3992  22
  -3   7 -11 11.5632 15.8805  20
   3  -6 -10 3.31045 14.2621  13
   3  -6 -10 16.4187 19.6133  15
  -3   6  10-12.9856 15.1575  32
  -3   6  10-17.6602 29.0257  31
  -3   6   9 30.3705 19.0737  32
   3  -6  -9-0.39731 15.9082  13
   3  -6  -9 14.1657 19.3553  15
  -3   6   9 26.2320 28.2304  31
   3  -6  -8 553.460 66.4466  13
  -3   6   8 530.517 59.3555  24
   3  -6  -8 505.252 73.0538  15
   3  -6  -7 28.2553 20.3580  13
  -3   6   7-1.83571 14.1007  24
   3  -6  -7-0.08216 19.7057  15
  -3   6   7 13.1165 29.9800  31
   3  -6  -6 179.890 42.7737  13
  -3   6   6 205.167 44.3808  24
   3  -6  -6 149.042 44.0754  15
   3  -6  -5 61.1546 83.6604   3
   3  -6  -5 18.2343 16.2062  13
  -3   6   5 25.2662 23.2257  24
  -3   6   5-27.1947 30.6615  31
   3  -6  -5 21.2659 23.5450  15
   3  -6  -4-274.574 168.161   3
  -3   6   4 8.07852 22.2513  24
   3  -6  -4-13.6879 105.755  37
   3  -6  -4-177.871 153.009   2
   3  -6  -4-6.47610 22.9408  15
   3  -6  -3 122.887 125.462   3
  -3   6   3 185.269 46.5545  24
  -3   6   3 224.820 44.5445  42
   3  -6  -3-0.73341 30.4632  41
   3  -6  -3 146.733 183.143   2
   3  -6  -3 236.399 176.590  37
   3  -6  -3 244.459 56.6721  15
  -3   6   2 92.6776 133.681   7
  -3   6   2 9.40795 20.2648  14
  -3   6   2 24.2004 23.8788  42
  -3   6   2-10.8033 25.0213  24
   3  -6  -2-22.6740 109.011   2
   3  -6  -2 46.0552 91.3923  37
   3  -6  -2 4.54340 19.6755  15
   3  -6  -2 54.6596 115.541   3
  -3   6   1 1889.87 143.717  24
  -3   6   1 2026.50 136.925  42
   3  -6  -1 1703.68 439.799  37
   3  -6  -1 1860.24 141.334  15
   3  -6  -1 2220.22 475.695   3
  -3   6   1 1973.36 130.984  14
   3  -6   0 16046.9 406.962  15
  -3   6   0 16781.5 425.943  24
  -3   6   0 17275.6 408.845  42
  -3   6   0 17059.1 394.834  14
   3  -6   0 18158.9 1347.91   3
   3  -6   0 15605.8 1273.96  37
   3  -6   1 1443.64 377.231   2
  -3   6  -1 2633.13 170.754  24
  -3   6  -1 2528.01 161.533  42
   3  -6   1 2829.65 528.674   3
   3  -6   1 2400.44 494.195  37
   3  -6   1 2428.56 154.593  15
  -3   6  -1 2524.11 158.200  14
   3  -6   2 6524.74 806.203   3
  -3   6  -2 6159.99 260.169  24
  -3   6  -2 6049.99 250.851  42
   3  -6   2 5788.12 751.481  37
   3  -6   2 5870.88 232.599  15
  -3   6  -2 6223.60 252.929  14
   3  -6   3 433.507 199.474   2
   3  -6   3 449.424 110.936  12
  -3   6  -3 659.981 86.1578  24
  -3   6  -3 725.106 90.3233  42
   3  -6   3 724.572 245.299  37
   3  -6   3 790.143 83.5541  15
  -3   6  -3 750.450 78.8420  32
  -3   6  -3 827.928 97.1422  14
   3  -6   4 167.163 139.714   2
  -3   6  -4 255.541 57.6248  14
   3  -6   4 140.301 60.1425  12
  -3   6  -4 253.384 56.5556  42
  -3   6  -5 139.584 45.1001  14
   3  -6   5 143.934 51.3751  12
  -3   6  -5 177.397 48.5201  42
   3  -6   5 170.848 176.555  18
   3  -6   5 107.830 141.944   2
  -3   6  -6 399.199 68.8731  14
  -3   6  -6 476.269 74.3956  42
   3  -6   6 408.162 80.7565  12
   3  -6   6 84.9194 182.064  18
   3  -6   6 55.7009 112.764   2
   3  -6   7 639.873 98.8881  12
   3  -6   7 689.380 359.932  18
  -3   6  -7 728.802 86.9375  42
  -3   6  -7 759.858 92.1719  14
  -3   6  -8 119.091 39.1747  14
  -3   6  -8 88.5587 30.1819  30
   3  -6   8 60.0791 37.1079  12
  -3   6  -8 101.644 34.8203  42
  -3   6  -9 723.772 70.0932  30
   3  -6   9 517.222 83.5831  12
  -3   6  -9 656.866 74.6239  42
  -3   6  -9 618.345 77.9625  14
  -3   6 -10 65.7673 30.4949  14
   3  -6  10 18.5127 22.5682  12
  -3   6 -10 44.3017 22.3373  42
  -3   6 -11 221.042 43.3787   8
   3  -6  11 194.426 52.5467  12
   3  -6  12 10.7593 16.7336  12
  -3   6 -12 11.0128 17.5959  20
  -3   6 -12 27.8662 24.0095  22
   3  -6  13-1.06393 16.1260  12
  -3   6 -13 17.8880 14.0245  20
   3  -5 -12 0.07120 11.4796  13
   3  -5 -12 5.74345 15.1334  15
   3  -5 -11 1277.02 93.6374  13
   3  -5 -11 1227.87 105.082  15
   3  -5 -10 173.165 40.0673  13
  -3   5  10 159.655 34.5456  24
   3  -5 -10 145.974 43.4230  15
  -3   5  10 147.240 31.3740  32
   3  -5  -9 444.133 64.7775  13
  -3   5   9 481.670 65.2266  24
  -3   5   9 501.468 63.7422  32
   3  -5  -9 424.898 72.1237  15
   3  -5  -8 1426.23 118.056  13
  -3   5   8 1482.61 117.815  24
   3  -5  -8 1395.11 130.822  15
   3  -5  -7 6425.63 252.886  13
   3  -5  -7 5460.84 726.485   2
  -3   5   7 6413.40 254.519  24
   3  -5  -7 6504.48 842.195  37
   3  -5  -7 6608.58 803.521   3
   3  -5  -7 6485.91 280.402  15
   3  -5  -6 1617.79 126.342  13
   3  -5  -6 1480.84 390.283   3
   3  -5  -6 1685.11 441.287  37
  -3   5   6 1533.78 127.640  24
   3  -5  -6 1346.37 392.801   2
   3  -5  -6 1518.71 137.071  15
   3  -5  -5 1206.98 338.459   3
  -3   5   5 1089.54 109.601  24
   3  -5  -5 770.943 345.757   2
   3  -5  -5 940.365 332.246  37
   3  -5  -5 1050.49 112.817  15
  -3   5   5 162.835 61.4547  31
   3  -5  -4 150.221 123.383   3
  -3   5   4 152.709 44.8519  24
   3  -5  -4 165.407 138.995  37
   3  -5  -4 82.8506 37.1534  15
   3  -5  -4 4.74736 79.8938   2
  -3   5   3 1981.93 123.148  42
   3  -5  -3 1002.66 329.072   2
  -3   5   3 2004.45 145.670  24
  -3   5   3 1203.31 302.532   7
   3  -5  -3 1827.99 443.738  37
   3  -5  -3 1875.22 143.142  15
  -3   5   3 1215.86 132.743  31
   3  -5  -3 2049.96 448.160   3
   3  -5  -2 269.100 163.685   2
  -3   5   2 785.591 92.0974  24
  -3   5   2 595.554 209.921   7
   3  -5  -2 598.712 251.954  37
   3  -5  -2 648.155 83.0327  15
  -3   5   2 740.564 79.0054  42
   3  -5  -2 882.503 306.615   3
  -3   5   2 733.409 76.5191  14
  -3   5   1 2280.26 153.959  24
  -3   5   1 2212.68 139.843  42
   3  -5  -1 2232.53 465.464   3
   3  -5  -1 1690.21 414.481  37
   3  -5  -1 2162.41 145.306  15
  -3   5   1 2187.64 136.563  14
  -3   5   0 169.990 42.4600  14
  -3   5   0 147.280 43.2981  24
  -3   5   0 157.436 41.5890  42
   3  -5   0 319.208 172.273  38
   3  -5   0 169.748 127.416  37
   3  -5   0 153.932 101.730   3
   3  -5   0 177.623 42.8871  15
   3  -5   0 270.844 175.272   2
  -3   5  -1 449.676 66.2350  42
  -3   5  -1 445.595 69.1171  24
   3  -5   1 416.292 198.847  38
   3  -5   1 416.124 197.509  37
   3  -5   1 401.482 221.872   2
  -3   5  -1 537.941 73.7166  14
  -3   5  -2 437.669 68.4840  24
  -3   5  -2 385.704 62.5589  42
   3  -5   2 414.116 184.659  38
   3  -5   2 449.302 199.486  37
   3  -5   2 295.658 177.082   2
  -3   5  -2 436.957 66.7713  14
   3  -5   3 193.377 131.067  38
  -3   5  -3 191.671 47.8677  14
   3  -5   3 119.447 51.1944  12
  -3   5  -3 190.823 45.5530  24
  -3   5  -3 171.163 44.5177  42
   3  -5   3 205.270 154.913  37
   3  -5   3 125.733 68.9512   2
  -3   5  -3 173.250 38.1545  32
   3  -5   4 87.6161 183.423  18
   3  -5   4 326.645 72.8645  12
  -3   5  -4 395.128 65.8353  24
  -3   5  -4 459.901 70.3585  42
   3  -5   4 409.659 200.272  38
   3  -5   4 345.691 171.174  37
   3  -5   4 241.702 139.618   2
  -3   5  -4 372.218 50.2720  32
  -3   5  -4 441.520 72.1281  14
   3  -5   5 682.297 95.4541  12
  -3   5  -5 723.068 87.6568  42
   3  -5   5 580.317 228.189  38
   3  -5   5 326.128 195.483   2
   3  -5   5 557.410 361.821  18
  -3   5  -5 659.543 85.1283  14
  -3   5  -6 26.7092 26.1604  14
   3  -5   6 28.1542 27.3663  12
  -3   5  -6 35.5949 31.2790  42
   3  -5   6-60.0252 81.4869   2
   3  -5   6 179.592 137.604  38
   3  -5   6 29.5170 125.283  18
  -3   5  -7 47.2469 34.8113  14
  -3   5  -7-11.5616 82.3937   7
   3  -5   7 22.8852 30.6323  12
  -3   5  -7 40.1545 24.5951  42
   3  -5   7 79.4843 113.233  38
   3  -5   7-108.300 111.652   2
   3  -5   7 100.572 173.915  18
  -3   5  -8 347.491 63.7672  14
  -3   5  -8 283.932 51.4113  30
   3  -5   8 309.193 68.9928  12
  -3   5  -8 387.983 63.5778  42
  -3   5  -8 360.504 216.380   7
  -3   5  -9 72.0602 36.8748  14
  -3   5  -9 64.7250 28.8843  30
   3  -5   9 29.7218 31.3791  12
  -3   5  -9 108.261 150.468   7
  -3   5  -9 82.6895 31.4860  42
  -3   5 -10 164.549 41.3874  14
  -3   5 -10 94.1013 34.8305   8
   3  -5  10 108.553 42.9305  12
  -3   5 -10 127.731 32.4396  42
  -3   5 -11 291.196 48.3631   8
   3  -5  11 404.322 71.2898  12
   3  -5  12 454.400 77.8801  12
  -3   5 -12 0.29957 26.3870  20
   3  -5  13 15.6845 18.6051  12
  -3   5 -13-24.6899 19.6117  20
  -3   5 -14-10.8400 13.0771  20
  -3   5 -14 264.242 45.4155  22
   3  -4 -13 17.7672 14.9353  13
   3  -4 -13 38.9640 22.5933  15
   3  -4 -12 926.095 83.6540  13
  -3   4  12 939.545 92.3376  27
  -3   4  12 961.639 77.9097  24
   3  -4 -12 941.367 95.6616  15
  -3   4  12 880.880 129.641  31
   3  -4 -11 505.956 68.0674  13
  -3   4  11 539.986 77.0360  27
  -3   4  11 513.194 66.4676  24
   3  -4 -11 513.926 77.9135  15
   3  -4 -10 1004.71 100.495  13
  -3   4  10 1106.21 113.395  27
  -3   4  10 1006.29 97.9165  24
   3  -4 -10 1030.40 113.395  15
  -3   4  10 1038.76 85.5197  32
   3  -4  -9 295.729 58.9182  13
   3  -4  -9 291.006 209.266   3
  -3   4   9 327.284 65.3823  27
  -3   4   9 296.869 57.8046  24
   3  -4  -9 237.453 167.762  37
   3  -4  -9 250.064 60.6811  15
  -3   4   9 246.496 47.5971  32
   3  -4  -8 642.525 81.1784  13
   3  -4  -8 584.722 231.347   3
  -3   4   8 696.275 94.6265  27
   3  -4  -8 234.912 140.643   2
  -3   4   8 807.485 94.5171  24
   3  -4  -8 1133.64 357.816  37
   3  -4  -8 699.811 93.3507  15
   3  -4  -7-51.6979 128.393   3
  -3   4   7 61.1777 35.6771  27
  -3   4   7 82.1438 37.1054  24
   3  -4  -7-48.7888 78.8790   2
   3  -4  -7-59.3781 101.062  37
   3  -4  -7 44.0698 32.1018  15
   3  -4  -6 161.220 143.927  37
   3  -4  -6 463.814 221.756   3
  -3   4   6 287.642 64.2035  27
  -3   4   6 348.085 64.1616  24
   3  -4  -6 340.927 64.8973  15
   3  -4  -6 434.310 213.761   2
   3  -4  -5 240.986 155.611   3
  -3   4   5 117.616 40.4910  27
   3  -4  -5 36.1467 115.905   2
  -3   4   5 103.767 37.5634  24
   3  -4  -5 57.0200 59.2839  37
   3  -4  -5 90.8303 35.7622  15
   3  -4  -4 406.860 202.531  37
   3  -4  -4 187.213 126.830   2
  -3   4   4 352.464 62.4832  27
  -3   4   4 217.143 143.838   7
  -3   4   4 350.446 61.8000  24
  -3   4   4 360.076 50.7584  42
  -3   4   4 350.223 52.4718  33
   3  -4  -4 293.875 55.0646  15
   3  -4  -4 395.020 208.862   3
  -3   4   4 70.1576 51.4223  31
  -3   4   3 122.130 33.4534  14
  -3   4   3 8.16231 19.2203  27
  -3   4   3 125.190 38.0243  24
  -3   4   3 33.8585 52.9081   7
  -3   4   3 124.451 34.3680  42
   3  -4  -3 45.3171 85.8870  37
  -3   4   3 114.075 31.5913  33
   3  -4  -3 115.299 129.570   3
   3  -4  -3 127.389 39.9888  15
   3  -4  -3 50.8974 65.9223   2
  -3   4   2 679.545 80.9334  24
  -3   4   2 662.986 223.904   7
   3  -4  -2 725.863 243.163  37
  -3   4   2 699.908 75.4195  33
   3  -4  -2 558.051 228.804   2
  -3   4   2 715.954 74.0927  42
   3  -4  -2 836.217 264.149   3
  -3   4   2 683.335 73.2633  14
  -3   4   1 9161.85 812.986   7
  -3   4   1 7864.56 272.124  24
  -3   4   1 7857.35 247.347  42
   3  -4  -1 7508.37 784.039  37
  -3   4   1 7508.15 246.089  33
  -3   4   1 7570.24 244.408  14
   3  -4  -1 7891.15 809.578   3
  -3   4   0 1330.34 112.044  24
  -3   4   0 1231.70 100.795  42
  -3   4   0 1046.47 324.277   7
  -3   4   0 1245.30 102.857  33
   3  -4   0 1267.01 356.374   2
   3  -4   0 893.866 261.526  37
  -3   4   0 1237.73 100.121  14
  -3   4  -1 178.336 42.7548  14
  -3   4  -1 177.103 43.2035  24
   3  -4   1 189.698 130.897   2
   3  -4   1 239.121 136.311  37
  -3   4  -1 143.783 38.8692  42
  -3   4  -2 34.0161 25.0369  14
  -3   4  -2-18.1686 23.2806  24
  -3   4  -2 20.6008 26.5894  42
   3  -4   2 25.9448 66.3281   2
   3  -4   2-125.444 106.570  38
   3  -4   2-44.5442 110.750  37
  -3   4  -2 31.2164 20.1947  32
   3  -4   3 1911.83 145.665  12
  -3   4  -3 2229.22 142.351  24
  -3   4  -3 2227.13 140.292  42
   3  -4   3 1950.29 401.226  38
   3  -4   3 1883.37 350.505  37
  -3   4  -3 2030.97 120.052  32
  -3   4  -3 2166.50 138.702  14
  -3   4  -4 0.06982 18.4430  14
   3  -4   4-14.9082 62.3783   2
   3  -4   4 10.8021 23.9896  12
  -3   4  -4 19.7794 26.7427  24
  -3   4  -4-6.58802 19.3663  42
   3  -4   4 19.4091 73.0267  38
   3  -4   4 66.9115 109.723  18
  -3   4  -4 8.17400 14.2410  32
   3  -4   5 9293.77 315.651  12
  -3   4  -5 8141.12 865.827   7
  -3   4  -5 8807.64 279.262  24
  -3   4  -5 8992.88 283.767  42
   3  -4   5 7338.93 794.462   2
   3  -4   5 8530.92 838.709  38
  -3   4  -5 8827.35 287.647  14
  -3   4  -6 4.33013 19.4557  14
   3  -4   6 24.1664 22.7833  12
   3  -4   6-44.4985 114.538   2
  -3   4  -6 51.7179 27.0052  42
   3  -4   6 166.596 127.331  38
  -3   4  -6 6.98210 70.7189   7
  -3   4  -7 21.8566 18.0738  14
  -3   4  -7 51.8165 25.0377  30
   3  -4   7 58.8887 33.1428  12
   3  -4   7 29.7230 89.6446   2
  -3   4  -7 92.4104 155.694   7
  -3   4  -7 30.9518 20.6776  42
   3  -4   7 102.662 77.7420  38
   3  -4   7 189.945 158.956  18
  -3   4  -8 94.1807 33.1572  14
  -3   4  -8 201.889 45.3241  30
   3  -4   8 217.934 54.7476  12
  -3   4  -8 27.7533 86.2204   7
  -3   4  -8 160.837 39.0473  42
   3  -4   8 101.620 173.584  18
   3  -4   8 149.305 98.2714   2
   3  -4   8 264.511 180.764  38
  -3   4  -9 0.85912 18.5641  14
  -3   4  -9 27.4890 23.0600  42
  -3   4  -9 15.2019 19.6467  30
  -3   4  -9 14.0807 18.2384   8
   3  -4   9 9.83469 20.7346  12
   3  -4   9 63.8902 171.291  18
   3  -4   9 146.103 160.626   2
  -3   4  -9-0.21631 31.4565  20
  -3   4 -10 68.0952 28.5430  14
  -3   4 -10 18.9385 20.0508   8
   3  -4  10 49.2178 30.6944  12
   3  -4  10 82.3162 150.372  18
  -3   4 -10 61.2076 24.9278  42
  -3   4 -11 32.3204 20.7456  14
  -3   4 -11-27.5791 18.9650   8
   3  -4  11 23.7353 25.4417  12
  -3   4 -11 6.39227 27.1822  22
  -3   4 -11 6.09100 37.7158  20
   3  -4  12-16.7027 26.8588  12
  -3   4 -12-2.41887 26.8633  20
   3  -4  13-28.5377 20.4235  12
  -3   4 -13-1.21356 22.3034  20
  -3   4 -14 40.6996 25.6599  22
  -3   4 -14-33.6692 21.1899  20
  -3   4 -15-7.96154 15.6597  22
   3  -3 -14 84.5551 25.5317  13
  -3   3  14 117.830 32.6293  27
  -3   3  14 88.5779 23.1234  24
   3  -3 -14 93.4052 30.0130  15
  -3   3  13-8.62708 23.3072  23
   3  -3 -13 91.2479 29.3200  13
  -3   3  13 137.862 40.1965  27
  -3   3  13 100.264 27.6514  24
   3  -3 -13 97.1833 37.0579  15
   3  -3 -12 544.917 71.7415  13
  -3   3  12 605.857 83.1645  27
  -3   3  12 538.485 70.6288  24
   3  -3 -12 569.815 81.0516  15
  -3   3  12 441.802 101.566  31
   3  -3 -11 391.715 64.8968  13
  -3   3  11 397.128 71.0263  27
  -3   3  11 383.047 63.8720  24
   3  -3 -11 425.422 75.0708  15
   3  -3 -10 2029.16 145.695  13
  -3   3  10 2166.91 162.957  27
   3  -3 -10 2378.41 471.405   3
  -3   3  10 2082.22 150.959  24
   3  -3 -10 1951.21 460.593  37
   3  -3 -10 2238.60 167.174  15
  -3   3  10 2168.00 123.372  32
   3  -3  -9 3159.42 180.275  13
  -3   3   9 3204.26 202.617  27
  -3   3   9 3227.42 187.923  24
   3  -3  -9 2951.41 561.669  37
   3  -3  -9 2934.43 519.486   3
   3  -3  -9 2963.12 190.526  15
  -3   3   9 3093.68 156.413  32
  -3   3   8 3451.74 168.178  29
  -3   3   8 3254.72 203.080  27
  -3   3   8 3421.86 195.359  24
   3  -3  -8 3663.43 619.359  37
   3  -3  -8 3463.59 553.961   3
   3  -3  -8 3293.79 497.819   2
   3  -3  -8 3317.75 196.549  15
  -3   3   8 3304.65 164.870  32
  -3   3   7 8208.13 262.199  29
  -3   3   7 8186.00 305.128  27
  -3   3   7 8125.86 291.424  24
   3  -3  -7 7484.12 870.233  37
   3  -3  -7 8887.93 863.787   3
  -3   3   7 8425.05 261.003  33
   3  -3  -7 7969.51 293.853  15
  -3   3   7 8430.56 264.196  32
   3  -3  -6 25.1825 65.5898  37
   3  -3  -6 14.0037 64.6876   3
  -3   3   6 8.72038 14.7258  29
  -3   3   6 8.36961 24.1048  27
   3  -3  -6 41.0230 81.4319   2
  -3   3   6 26.3150 22.5191  24
  -3   3   6 6.47197 17.7302  33
   3  -3  -6 12.1049 21.6100  15
   3  -3  -5 878.002 271.814   3
   3  -3  -5 53.0633 151.102   2
  -3   3   5 865.238 84.9073  29
   3  -3  -5 775.277 271.628  37
  -3   3   5 883.102 97.0143  27
  -3   3   5 868.273 93.6137  24
  -3   3   5 1109.99 248.704   7
  -3   3   5 12.3899 26.7620  23
  -3   3   5 911.118 86.6410  33
   3  -3  -5 878.321 89.8967  15
  -3   3   5 8.44523 26.7650  31
  -3   3   4 13.4634 15.2092  42
   3  -3  -4-5.05124 99.4102  37
  -3   3   4-2.65780 20.6825  29
  -3   3   4 19.9702 16.3738  27
  -3   3   4 9.53243 60.5348   7
  -3   3   4 7.36916 16.0269  24
  -3   3   4 13.8201 15.6744  33
   3  -3  -4-11.4744 95.3547   2
   3  -3  -4 8.37576 65.8044   3
  -3   3   4 58.9934 48.5535  31
  -3   3   3 2939.10 139.143   8
  -3   3   3 2913.13 151.423  29
  -3   3   3 3106.50 167.964  27
  -3   3   3 3052.80 436.498   7
  -3   3   3 3055.89 164.731  24
  -3   3   3 2961.56 138.723  42
   3  -3  -3 2892.48 458.197   3
   3  -3  -3 2860.02 461.934   2
   3  -3  -3 2788.17 474.088  37
  -3   3   3 2770.59 147.599  33
  -3   3   3 2676.53 133.399  14
  -3   3   2 19342.6 363.766   8
  -3   3   2 18528.3 378.067  29
  -3   3   2 19352.0 410.670  27
  -3   3   2 19094.4 402.937  24
  -3   3   2 19191.4 358.394  42
   3  -3  -2 19388.2 1166.64   3
   3  -3  -2 20535.9 1224.72   2
   3  -3  -2 18303.2 1150.89  37
  -3   3   2 18939.1 384.645  33
  -3   3   2 18397.4 358.631  14
  -3   3   1 3984.58 174.589  29
  -3   3   1 3868.38 162.637  42
  -3   3   1 3981.73 511.083   7
  -3   3   1 3951.09 179.749  24
   3  -3  -1 4921.51 581.641   2
   3  -3  -1 4011.20 519.599  37
  -3   3   1 3833.93 172.610  33
  -3   3   1 3776.61 166.599  32
  -3   3   1 3817.01 165.076  14
  -3   3   0 8455.50 252.292  29
  -3   3   0 8868.07 786.660   7
  -3   3   0 8490.75 261.201  24
  -3   3   0 8042.85 237.913  42
   3  -3   0 8060.72 760.792   2
   3  -3   0 7914.04 709.692  37
  -3   3   0 8347.11 255.414  33
  -3   3   0 8306.24 241.612  32
  -3   3   0 8224.90 244.705  14
  -3   3  -1 163.472 41.6464  14
   3  -3   1 0.52941 68.5830   2
  -3   3  -1 124.135 31.9600  24
  -3   3  -1 189.592 134.746   7
  -3   3  -1 124.283 33.1213  42
   3  -3   1 140.566 63.9302  37
  -3   3  -1 123.702 34.0784  33
  -3   3  -1 111.676 31.4900  32
  -3   3  -2 273.534 170.776   7
  -3   3  -2 218.255 45.3148  14
   3  -3   2 142.966 132.163   2
  -3   3  -2 183.869 38.4420  24
  -3   3  -2 159.550 39.0324  42
   3  -3   2 165.388 117.376  38
   3  -3   2 102.291 84.0632  37
  -3   3  -2 131.004 31.2575  33
  -3   3  -2 160.158 34.0658  32
   3  -3   3 3349.13 170.625  12
  -3   3  -3 3211.96 500.966   7
  -3   3  -3 3141.21 156.230  24
  -3   3  -3 3094.45 153.526  42
   3  -3   3 2856.19 493.224   2
   3  -3   3 3137.71 492.911  38
   3  -3   3 2960.93 377.364  37
  -3   3  -3 3066.53 142.273  32
  -3   3  -3 3010.02 158.118  14
  -3   3  -4 220.382 45.7705  14
   3  -3   4-28.6061 70.0010   2
   3  -3   4 270.375 50.2863  12
  -3   3  -4 229.989 45.1863  24
  -3   3  -4 263.339 170.622   7
  -3   3  -4 289.094 51.4025  42
   3  -3   4 138.712 83.2062  38
   3  -3   4 234.447 190.298  18
  -3   3  -4 211.164 40.2633  32
  -3   3  -5 779.987 79.2102  30
   3  -3   5 529.212 224.722   2
   3  -3   5 907.900 90.1508  12
  -3   3  -5 683.878 74.3926  24
  -3   3  -5 534.606 251.945   7
  -3   3  -5 759.761 78.5274  42
   3  -3   5 721.589 255.793  38
   3  -3   5 1229.63 410.314  18
  -3   3  -5 766.110 83.1083  14
  -3   3  -6 192.225 43.4570  14
  -3   3  -6 191.717 43.6219  30
   3  -3   6 203.668 155.200  38
   3  -3   6 13.2664 77.2236   2
   3  -3   6 195.860 43.4903  12
  -3   3  -6 22.0060 107.329   7
  -3   3  -6 180.370 42.3235  42
   3  -3   6 317.078 223.991  18
  -3   3  -7 1978.24 130.104  30
  -3   3  -7 1901.78 133.380   8
   3  -3   7 1357.50 361.992   2
   3  -3   7 2085.98 146.020  12
   3  -3   7 2009.87 438.180  38
   3  -3   7 2433.31 594.368  18
  -3   3  -7 2131.16 129.621  42
  -3   3  -7 2087.78 138.554  14
  -3   3  -8 160.474 41.6702  14
  -3   3  -8 163.039 39.8215  30
  -3   3  -8 99.9853 37.9050   8
   3  -3   8 215.912 158.943   2
   3  -3   8 127.112 42.1326  12
  -3   3  -8 4.56182 83.0784   7
  -3   3  -8 143.492 35.1816  42
  -3   3  -8-65.2644 38.0457  20
   3  -3   8 193.220 129.043  38
   3  -3   8 147.288 191.449  18
  -3   3  -9 1880.31 124.038  30
  -3   3  -9 691.068 81.3015   8
  -3   3  -9 1717.88 112.658  42
   3  -3   9 1474.52 347.071   2
   3  -3   9 903.129 107.432  12
  -3   3  -9 2336.31 443.050   7
   3  -3   9 965.928 362.444  18
  -3   3  -9 1135.41 105.615  14
  -3   3 -10 2.58856 16.2299  14
  -3   3 -10 14.7860 31.8861  22
  -3   3 -10-12.2122 16.7266   8
   3  -3  10-99.4731 127.263   2
   3  -3  10-24.0987 28.4597  12
   3  -3  10 57.1327 174.577  18
   3  -3  11 108.233 54.4682  12
  -3   3 -11 2.02409 39.8707  20
   3  -3  11-124.584 277.213  18
   3  -3  12-27.6592 30.1148  12
  -3   3 -12 4256.09 226.434  22
  -3   3 -13 1451.27 134.850  22
  -3   3 -13 7.52536 28.5321  20
  -3   3 -14 257.495 52.9413  22
  -3   3 -14-0.07062 17.0790  20
  -3   3 -15 5.89447 18.6546  22
  -3   3 -15 20.9199 17.6690  19
   3  -2 -15 91.4738 22.8460  13
  -3   2  15 130.423 32.5393  27
  -3   2  15 137.297 27.5262  24
  -3   2  15 2.85248 18.5813  23
   3  -2 -15 139.433 32.5924  15
  -3   2  15 21.0917 28.8917  31
   3  -2 -14 13.9400 14.9650  13
  -3   2  14 2.35720 16.8734  27
  -3   2  14 26.1356 17.2185  24
   3  -2 -14 10.1412 19.0021  15
   3  -2 -13-9.75196 16.8609  13
  -3   2  13 38.0464 28.1111  27
  -3   2  13-3.61195 18.2036  24
   3  -2 -12 1034.84 101.599  13
  -3   2  12 1063.01 114.039  27
  -3   2  12 1089.69 107.223  24
   3  -2 -11 307.926 57.7274  13
  -3   2  11 370.221 73.4937  27
   3  -2 -11 132.636 119.678   3
  -3   2  11 302.624 60.1065  24
   3  -2 -11 395.673 201.009  37
  -3   2  11 273.788 47.3992  33
  -3   2  11 18.2034 37.2346  31
  -3   2  10 222.226 44.2093  29
   3  -2 -10 235.976 52.8862  13
  -3   2  10 210.995 57.0104  27
   3  -2 -10 387.542 205.876   3
  -3   2  10 212.724 52.6129  24
   3  -2 -10 106.366 134.880  37
  -3   2  10 225.544 47.2117  33
  -3   2   9 11568.8 309.551  29
  -3   2   9 10614.4 359.129  27
  -3   2   9 11953.5 365.417  24
   3  -2  -9 12224.1 1116.33  37
   3  -2  -9 10791.8 925.475   3
  -3   2   9 11218.8 316.252  33
  -3   2   9 11650.1 291.700  32
  -3   2   8 8123.85 261.200  29
  -3   2   8 8039.97 301.474  27
  -3   2   8 7608.85 282.585  24
   3  -2  -8 7535.27 863.489  37
   3  -2  -8 7166.20 737.452   3
  -3   2   8 7742.27 262.487  33
  -3   2   8 7757.88 240.705  32
  -3   2   7 5182.64 206.473  29
  -3   2   7 5338.76 237.723  27
  -3   2   7 4970.43 224.103  24
   3  -2  -7 5026.96 687.014  37
   3  -2  -7 5785.18 647.107   3
  -3   2   7 5241.25 213.604  33
  -3   2   7 5554.48 204.118  32
   3  -2  -6 29.7993 74.0028   3
   3  -2  -6 111.836 119.252   2
  -3   2   6 21.0291 18.2332  29
  -3   2   6 3.95096 17.0642  27
   3  -2  -6-56.7574 139.330  37
  -3   2   6 42.7317 28.4906  24
  -3   2   6 26.3489 16.1011  33
  -3   2   6 17.8737 13.8065  32
  -3   2   6-5.17508 27.9684  31
   3  -2  -5-57.0845 46.5318   3
  -3   2   5 19.5885 19.7607  29
  -3   2   5-6.53291 24.0462  27
  -3   2   5-24.4849 86.2021   7
  -3   2   5 3.56885 19.2955  24
   3  -2  -5 11.4618 55.5967  37
  -3   2   5-12.6704 19.4169  33
   3  -2  -5 49.7969 91.3446   2
  -3   2   5 4.72973 10.9849  42
  -3   2   5 4.21209 14.4439  32
  -3   2   5-40.1886 31.8694  31
  -3   2   4-13.9857 25.5061  23
  -3   2   4 249.058 44.8594  29
  -3   2   4 266.906 49.1029  27
  -3   2   4 281.434 138.877   7
  -3   2   4 274.251 49.3759  24
  -3   2   4 285.366 41.4273  42
   3  -2  -4 116.785 102.548  37
   3  -2  -4 35.4671 106.796   2
  -3   2   4 242.419 45.6960  33
  -3   2   4 259.334 43.5231  32
   3  -2  -4 123.535 92.0670   3
  -3   2   3 18227.3 338.736   8
  -3   2   3 17688.4 356.571  29
   3  -2  -3 19612.8 1135.21   2
  -3   2   3 18701.8 384.830  27
  -3   2   3 18036.5 374.915  24
  -3   2   3 17590.9 325.648  42
   3  -2  -3 17610.9 1004.18   3
   3  -2  -3 17275.9 1084.78  37
  -3   2   3 18314.3 375.351  35
  -3   2   3 18233.2 372.684  33
  -3   2   3 17953.9 356.818  32
  -3   2   3 17505.0 333.069  14
  -3   2   2 1143.84 84.9704   8
  -3   2   2 1120.03 89.0061  29
  -3   2   2 1099.03 90.7560  27
  -3   2   2 1070.48 90.3888  24
  -3   2   2 1368.60 289.892   7
   3  -2  -2 789.464 234.065   2
  -3   2   2 1095.11 81.7407  42
  -3   2   2 1155.67 89.5595   9
   3  -2  -2 965.799 250.003  37
  -3   2   2 1134.45 91.6240  35
  -3   2   2 972.059 86.1932  33
   3  -2  -2 1206.66 270.001   3
  -3   2   2 1154.16 88.4084  32
  -3   2   2 1012.12 82.2820  14
  -3   2   1 773.201 71.2798   8
  -3   2   1 710.221 70.3987  29
   3  -2  -1 600.577 215.600   2
  -3   2   1 753.208 74.6101  24
  -3   2   1 829.094 232.642   7
  -3   2   1 723.838 67.7259  42
  -3   2   1 794.047 73.6155   9
   3  -2  -1 588.671 189.921  37
  -3   2   1 752.237 73.6140  35
  -3   2   1 724.965 74.2912  33
  -3   2   1 738.577 71.2319  32
  -3   2   1 713.397 70.0541  14
  -3   2   0 3695.99 157.943   8
  -3   2   0 3499.41 153.687  29
  -3   2   0 4039.61 529.471   7
   3  -2   0 3116.98 483.629   2
   3  -2   0 3088.16 400.474  37
  -3   2   0 3177.02 146.566   9
  -3   2   0 3501.10 150.922  35
  -3   2   0 3540.88 161.995  33
  -3   2   0 3561.00 150.979  42
  -3   2   0 3499.84 150.172  32
  -3   2   0 3381.05 152.519  14
  -3   2  -1 46.5134 20.8854  14
  -3   2  -1 26.8864 20.8094  29
  -3   2  -1 14.7783 16.9740   8
  -3   2  -1-2.42409 85.8499   7
  -3   2  -1 31.1107 19.7223  42
   3  -2   1 47.5270 45.5307  37
  -3   2  -1 18.3150 22.7285   9
  -3   2  -1 31.7021 16.3901  33
  -3   2  -1 16.8186 12.3353  32
  -3   2  -2 2031.41 117.762  42
  -3   2  -2 1832.47 115.722  30
  -3   2  -2 2079.75 123.214   8
  -3   2  -2 2030.40 116.613  29
   3  -2   2 2117.12 299.664  37
  -3   2  -2 2066.57 120.491   9
  -3   2  -2 1994.02 123.892  33
  -3   2  -2 1971.60 112.494  32
  -3   2  -2 1871.66 117.488  14
  -3   2  -3 3957.50 169.677  30
  -3   2  -3 3875.84 169.881   8
  -3   2  -3 2543.51 479.990   7
  -3   2  -3 3988.77 165.659  42
   3  -2   3 3846.83 535.990  38
   3  -2   3 5286.14 780.529  18
  -3   2  -3 3672.50 169.921  33
  -3   2  -3 3689.42 153.464  32
  -3   2  -3 3879.44 171.995  14
  -3   2  -4 19815.7 385.552  30
  -3   2  -4 19300.7 385.622   8
  -3   2  -4 19514.0 368.870  42
  -3   2  -4 19691.4 360.557  24
   3  -2   4 19201.5 1219.07  38
  -3   2  -4 19530.3 353.866  32
  -3   2  -4 18445.4 381.126  14
  -3   2  -5 16654.4 359.693  30
  -3   2  -5 16048.2 362.007   8
  -3   2  -5 16077.7 338.356  42
   3  -2   5 15883.7 1134.16  38
  -3   2  -5 15936.7 360.476  14
  -3   2  -6 1393.66 107.211  30
  -3   2  -6 1367.39 106.936   8
  -3   2  -6 1658.04 359.162   7
  -3   2  -6 1351.88 99.5939  42
   3  -2   6 1230.62 334.042  38
   3  -2   6 1309.91 433.204  18
  -3   2  -6 1383.27 108.381  14
  -3   2  -7 234.516 48.1835  14
  -3   2  -7 271.545 48.8768  30
  -3   2  -7 232.145 46.0464   8
   3  -2   7 174.575 149.664  38
  -3   2  -7 417.303 192.922   7
  -3   2  -7 2.03198 19.3898  20
   3  -2   7 332.582 244.449  18
  -3   2  -7 227.753 41.9830  42
  -3   2  -8 359.105 57.4033  30
  -3   2  -8 275.241 48.0492   8
  -3   2  -8 255.987 162.763   7
  -3   2  -8 223.381 59.5027  22
  -3   2  -8 305.870 47.6589  42
   3  -2   8 291.592 165.256  38
   3  -2   8 87.4517 150.940  18
  -3   2  -8 377.339 59.9395  14
  -3   2  -9 967.199 88.0203   8
  -3   2  -9 1573.62 114.890  30
  -3   2  -9 1795.01 388.652   7
  -3   2  -9 1099.01 130.695  22
   3  -2   9 685.604 348.896  18
  -3   2  -9 1576.94 103.389  42
  -3   2  -9 1365.67 108.335  14
   3  -2  10 79.7014 73.6274  12
  -3   2 -10-62.4124 39.8191  20
   3  -2  10-136.566 182.350  18
  -3   2 -11 2668.98 183.830  22
   3  -2  11-477.889 304.504  18
  -3   2 -12 10.9820 37.6135  20
  -3   2 -12 2168.06 162.057  22
  -3   2 -13 263.030 70.8143  22
  -3   2 -13-0.09302 28.4852  20
  -3   2 -14 100.111 33.9121  22
  -3   2 -14 149.324 40.6736  19
  -3   2 -15 120.781 32.4445  19
  -3   2 -15 163.286 34.2381  34
   3  -1 -15 565.868 59.2818  13
  -3   1  15 628.570 70.9161  27
  -3   1  15 614.669 65.2284  24
   3  -1 -14 214.708 44.3840  13
  -3   1  14 258.332 53.4068  27
  -3   1  14 280.917 52.0037  24
   3  -1 -13 357.769 59.5023  13
  -3   1  13 397.358 72.1214  27
  -3   1  13 373.902 63.3347  24
  -3   1  13 385.205 54.7330  33
   3  -1 -12 224.926 48.0742  13
  -3   1  12 238.503 57.3313  27
  -3   1  12 243.674 57.6780  24
   3  -1 -12 176.101 104.156  37
  -3   1  12 224.208 46.3391  33
  -3   1  11 1696.24 116.383  29
   3  -1 -11 1539.19 123.558  13
  -3   1  11 1738.69 146.219  27
  -3   1  11 1645.38 138.310  24
   3  -1 -11 1450.87 393.452  37
  -3   1  11 1615.84 124.897  33
  -3   1  10 19118.1 399.325  29
  -3   1  10 18674.7 470.183  27
  -3   1  10 18438.7 453.187  24
   3  -1 -10 17593.8 1334.03  37
  -3   1  10 18351.4 422.307  33
  -3   1   9 910.306 88.5607  29
  -3   1   9 815.473 97.2623  27
   3  -1  -9 708.360 213.243   3
  -3   1   9 827.250 94.6828  24
   3  -1  -9 885.537 316.048  37
  -3   1   9 907.433 95.2507  33
  -3   1   9 882.627 77.8819  32
  -3   1   8 4847.44 201.994  29
  -3   1   8 4888.11 225.687  27
  -3   1   8 5091.49 227.382  24
   3  -1  -8 5435.51 712.207  37
   3  -1  -8 5195.35 564.463   3
  -3   1   8 4819.30 212.890  33
  -3   1   8 4978.02 185.532  32
  -3   1   7 5116.95 203.947  29
  -3   1   7 4893.54 216.614  27
  -3   1   7 5191.40 221.668  24
   3  -1  -7 4344.35 610.963  37
   3  -1  -7 5056.39 532.956   3
  -3   1   7 5167.14 215.378  33
  -3   1   7 5002.94 186.627  32
  -3   1   6 2335.17 135.045  29
  -3   1   6 2948.38 379.615   7
  -3   1   6 2306.17 143.998  27
  -3   1   6 2325.53 143.480  24
  -3   1   6 2522.56 118.632  42
   3  -1  -6 2274.65 420.844  37
   3  -1  -6 2266.06 344.304   3
  -3   1   6 2430.25 146.779  35
  -3   1   6 2340.74 143.322  33
  -3   1   6 2408.72 129.655  32
  -3   1   5 1661.96 111.016  29
  -3   1   5 1714.18 116.207  28
  -3   1   5 1820.60 121.562  27
  -3   1   5 2196.76 345.115   7
  -3   1   5 1767.07 121.431  24
  -3   1   5 1813.38 101.762  42
   3  -1  -5 1376.27 300.097   2
   3  -1  -5 1626.51 284.275   3
   3  -1  -5 1844.65 369.460  37
  -3   1   5 1603.45 116.653  35
  -3   1   5 1829.24 123.277  33
  -3   1   5 1785.23 111.896  32
  -3   1   4 3173.15 149.508  29
  -3   1   4 3251.23 156.591  27
  -3   1   4 3429.74 458.218   7
  -3   1   4 3276.79 158.068  24
  -3   1   4 3281.64 138.317  42
   3  -1  -4 3339.06 432.688   2
   3  -1  -4 3071.96 377.634   3
   3  -1  -4 2844.60 436.393  37
  -3   1   4 3219.79 140.940   9
  -3   1   4 3180.28 156.485  35
  -3   1   4 3322.01 162.143  33
  -3   1   4 3300.78 149.064  32
  -3   1   3 19103.4 360.626  29
  -3   1   3 22190.4 1220.87   7
  -3   1   3 20073.8 378.067  24
   3  -1  -3 20692.0 1047.41   2
   3  -1  -3 20000.7 937.830   3
   3  -1  -3 18695.6 1071.87  37
  -3   1   3 19239.2 347.880   9
  -3   1   3 20097.5 343.812  42
  -3   1   3 20455.2 387.639  35
  -3   1   3 19795.2 387.360  33
  -3   1   3 20423.5 366.316  32
  -3   1   2 14504.3 308.063  29
   3  -1  -2 13686.5 876.510   2
   3  -1  -2 14784.5 800.629   3
   3  -1  -2 14908.3 912.153  37
  -3   1   2 13764.3 291.398   9
  -3   1   2 14679.3 318.415  35
  -3   1   2 14485.0 325.258  33
  -3   1   2 14976.2 311.285  32
  -3   1   2 14628.9 294.429  42
  -3   1   1 2560.24 129.610   8
  -3   1   1 2581.53 127.864  29
   3  -1  -1 2206.90 362.262   2
  -3   1   1 2452.44 121.387  42
   3  -1  -1 2560.66 360.088  37
  -3   1   1 2435.76 124.700   9
  -3   1   1 2662.56 132.873  35
  -3   1   1 2560.99 135.837  33
  -3   1   1 2567.78 128.349  32
  -3   1   0 216.582 39.6461  14
  -3   1   0 195.761 37.0445  30
  -3   1   0 195.959 37.7636   8
   3  -1   0 302.252 90.0391   4
  -3   1   0 274.459 140.426   7
   3  -1   0 127.021 89.4282  37
  -3   1   0 196.679 35.5571   9
  -3   1   0 231.537 42.0957  33
  -3   1   0 198.767 37.3194  32
  -3   1   0 190.619 35.7276  42
  -3   1  -1 202.388 38.7115  14
  -3   1  -1 164.948 34.7110  30
  -3   1  -1 216.273 40.1428   8
   3  -1   1 82.1487 56.1887   4
  -3   1  -1 269.112 138.307   7
  -3   1  -1 166.446 34.4505  42
   3  -1   1 144.142 76.8898  37
   3  -1   1 0.59425 147.268  18
  -3   1  -1 169.523 35.7158   9
  -3   1  -1 178.822 37.7830  33
  -3   1  -1 190.457 35.9241  32
  -3   1  -2 1374.56 99.0888   8
  -3   1  -2 1310.89 94.4905  30
  -3   1  -2 1149.13 276.353   7
  -3   1  -2 1261.70 90.7992  42
   3  -1   2 1572.77 417.568  18
   3  -1   2 1194.77 287.438  38
   3  -1   2 1112.66 194.048  37
  -3   1  -2 1321.08 93.7949   9
  -3   1  -2 1325.60 98.0708  33
  -3   1  -2 1393.14 95.6902  32
   3  -1   2 1231.40 209.558   4
  -3   1  -2 1377.02 99.9843  14
  -3   1  -3 1943.50 119.618   8
  -3   1  -3 1922.19 117.712  30
  -3   1  -3 2258.20 397.606   7
   3  -1   3 1859.68 375.845  38
   3  -1   3 2697.45 491.078  18
  -3   1  -3 1937.23 113.400   9
  -3   1  -3 2109.75 124.817  33
  -3   1  -3 2132.74 118.820  32
   3  -1   3 1869.52 270.746   4
  -3   1  -3 1959.48 113.736  42
  -3   1  -3 2002.84 122.093  14
  -3   1  -4 624.591 69.5505   8
  -3   1  -4 644.893 70.3447  30
  -3   1  -4 630.329 65.8022  42
   3  -1   4 692.366 176.144   4
  -3   1  -4 7.65043 16.6579  20
  -3   1  -4 843.601 247.921   7
   3  -1   4 630.360 221.474  38
   3  -1   4 647.603 269.755  18
  -3   1  -4 628.772 65.6088   9
  -3   1  -4 700.810 78.2509  34
  -3   1  -4 618.081 68.3927  33
  -3   1  -4 649.959 66.1998  32
  -3   1  -4-104.945 40.6735  31
  -3   1  -4 691.707 74.6743  14
  -3   1  -5 115.417 35.0312  14
  -3   1  -5 66.3100 26.5597  30
  -3   1  -5 61.9911 24.3963  22
  -3   1  -5 100.965 30.7007   8
   3  -1   5 178.702 97.7608   4
  -3   1  -5 119.713 129.958   7
  -3   1  -5 118.511 30.6556  42
   3  -1   5 119.436 109.585  38
   3  -1   5 63.7891 130.016  18
  -3   1  -5 143.079 36.2653   9
  -3   1  -5 116.436 28.1132  32
  -3   1  -5 11.1882 23.4791  31
  -3   1  -6 1135.97 99.0692   8
  -3   1  -6 1207.59 100.617  30
  -3   1  -6 1261.88 93.6300  42
   3  -1   6 1191.85 260.277   4
  -3   1  -6 1634.76 362.689   7
  -3   1  -6 1039.64 100.962  22
   3  -1   6 923.831 276.990  38
   3  -1   6 696.297 313.521  18
  -3   1  -6 1198.38 100.030  14
  -3   1  -7 757.513 78.2976   8
  -3   1  -7 713.598 79.8742  30
  -3   1  -7 1189.38 338.627   7
   3  -1   7 726.426 216.829   4
  -3   1  -7 592.009 77.3488  22
   3  -1   7 662.131 254.440  38
   3  -1   7 500.047 256.448  18
  -3   1  -7 740.339 71.4986  42
  -3   1  -7 725.331 78.6550  14
  -3   1  -8 2377.70 142.931   8
  -3   1  -8 2703.23 154.868  30
   3  -1   8 2736.12 447.773   4
  -3   1  -8 2717.16 135.827  42
  -3   1  -8 3535.72 554.416   7
  -3   1  -8 2891.70 177.184  22
  -3   1  -8 102.094 52.1379  20
   3  -1   8 2297.27 475.152  38
   3  -1   8 178.865 274.245  18
  -3   1  -8 2751.57 151.071  14
  -3   1  -9 140.783 38.6590  30
   3  -1   9 15.4479 77.4532   4
   3  -1   9-22.0670 200.507  18
  -3   1  -9 164.683 47.8570  22
  -3   1 -10 2392.74 140.047  30
   3  -1  10-200.770 252.542  18
  -3   1 -10 688.703 127.959  20
  -3   1 -10 2312.56 171.557  22
  -3   1 -11 567.629 112.462  20
  -3   1 -11 4151.23 227.358  22
  -3   1 -12 8.73754 30.9044  22
  -3   1 -12-0.31957 28.1149  20
  -3   1 -12 6.42742 22.5099  19
  -3   1 -13 9.40688 22.4344  22
  -3   1 -13-10.5693 24.6456  19
  -3   1 -13 9.40751 27.5461  11
  -3   1 -14 86.9566 40.2302  11
  -3   1 -14 135.413 39.1737  19
  -3   1 -15-11.3865 15.0103  11
  -3   1 -15 8.09562 16.9837  19
  -3   1 -15 8.68779 13.9657  34
  -3   0  16 138.498 31.4033  27
  -3   0  16 160.891 31.4993  24
   3   0 -15 537.232 58.1509  13
  -3   0  15 498.884 67.4991  27
  -3   0  15 496.242 62.4289  24
  -3   0  15 492.877 51.4765  33
   3   0 -14 15.4216 16.0300  13
  -3   0  14 33.3103 30.5351  27
  -3   0  14 22.3254 29.3754  24
  -3   0  14 22.3942 19.6385  33
   3   0 -13 3239.06 171.116  13
  -3   0  13 3473.06 197.357  27
  -3   0  13 3595.47 193.323  24
  -3   0  13 3455.16 175.710  33
  -3   0  12 4985.57 196.611  29
   3   0 -12 4511.58 207.096  13
  -3   0  12 4600.80 233.521  27
  -3   0  12 4855.85 232.728  24
   3   0 -12 4594.29 674.134  37
  -3   0  12 4831.50 219.437  33
  -3   0  11 792.876 83.1070  29
   3   0 -11 789.731 87.4653  13
  -3   0  11 954.992 107.724  27
  -3   0  11 854.466 100.299  24
   3   0 -11 707.069 269.906  37
  -3   0  11 816.252 94.0712  33
  -3   0  10 10687.3 308.071  29
  -3   0  10 9305.87 324.085  27
  -3   0  10 9725.06 330.008  24
   3   0 -10 9420.73 968.959  37
  -3   0  10 9818.81 320.981  33
  -3   0   9 15373.4 367.205  29
  -3   0   9 15572.5 402.931  27
  -3   0   9 15116.1 397.495  24
   3   0  -9 15702.9 1230.40  37
  -3   0   9 15883.3 404.378  33
  -3   0   8 4490.23 196.039  29
  -3   0   8 4297.45 204.613  27
  -3   0   8 4270.85 204.970  24
   3   0  -8 4370.30 630.886  37
  -3   0   8 4718.11 207.549  35
  -3   0   8 4504.01 211.370  33
  -3   0   8 4459.04 171.728  32
  -3   0   7 2351.67 138.896  29
  -3   0   7 2401.56 155.598  28
  -3   0   7 2378.68 146.186  27
  -3   0   7 2407.22 148.407  24
  -3   0   7 2368.11 144.629  35
  -3   0   7 2382.44 149.024  33
  -3   0   7 2384.48 127.450  32
  -3   0   6 172.556 39.3258  29
  -3   0   6 192.512 46.9445  28
  -3   0   6 192.510 40.1283  27
  -3   0   6 88.2883 65.9762   7
  -3   0   6 216.283 38.8928  42
  -3   0   6 178.844 34.4126  40
  -3   0   6 172.315 116.533  39
  -3   0   6 185.629 39.8452  35
  -3   0   6 157.238 38.4169  34
  -3   0   6 147.956 38.3327  33
  -3   0   6 202.129 38.4162  32
  -3   0   6 167.763 40.4814  24
  -3   0   6-16.9536 36.4590  31
  -3   0   5 50.7890 18.9816  14
  -3   0   5 40.4478 20.6362   8
  -3   0   5 63.3221 27.5343  29
  -3   0   5 76.8482 27.5719  24
  -3   0   5 81.0929 30.8527  28
  -3   0   5 18.8943 11.9790  27
  -3   0   5 98.3551 97.5562   7
  -3   0   5 63.1185 26.9537  40
   3   0  -5 65.6941 65.1946   2
  -3   0   5 54.7174 102.348  39
  -3   0   5 94.8220 33.0175  35
  -3   0   5 58.4366 23.6887  34
  -3   0   5 52.3089 17.7919   9
  -3   0   5 114.154 29.6020  42
  -3   0   5 64.2215 27.5992  33
  -3   0   5 92.2116 30.5364  32
  -3   0   5-4.06037 23.2189  31
  -3   0   4 13146.5 304.955  29
  -3   0   4 13039.3 324.400  28
  -3   0   4 14514.1 931.616   7
  -3   0   4 12517.3 299.111  24
  -3   0   4 13068.5 287.278  42
  -3   0   4 12857.2 315.952  35
   3   0  -4 12857.4 775.306   2
  -3   0   4 12573.3 835.542  39
  -3   0   4 11657.6 271.987   9
  -3   0   4 12980.1 322.550  33
  -3   0   4 12398.2 289.671  32
  -3   0   4 12512.1 286.982  40
  -3   0   4 12853.8 299.917  14
  -3   0   4 13372.4 301.534   8
  -3   0   3 1726.80 107.783  29
  -3   0   3 1703.76 114.302  28
  -3   0   3 2012.14 353.925   7
  -3   0   3 1724.42 104.189  42
   3   0  -3 1497.04 279.726   2
  -3   0   3 1589.13 105.026  40
  -3   0   3 1359.01 283.849  39
  -3   0   3 1614.06 101.463   9
  -3   0   3 1634.36 111.106  35
  -3   0   3 1648.23 111.923  33
  -3   0   3 1710.98 107.521  32
  -3   0   3 1735.29 109.893  14
  -3   0   3 1660.16 107.933   8
  -3   0   2-18.9367 16.6261  14
  -3   0   2-0.58009 18.8073   8
  -3   0   2-0.34120 14.2928  29
  -3   0   2-50.3338 63.8356   7
  -3   0   2 8.63703 17.1776  42
  -3   0   2 2.86164 17.3759  40
  -3   0   2-7.90967 55.1633  39
  -3   0   2 6.82898 18.0571  35
  -3   0   2 23.0799 20.3142   9
  -3   0   2-7.36249 14.1283  33
  -3   0   2 16.0149 17.2054  32
  -3   0   2-4.08509 23.5880  31
  -3   0   1 10808.0 259.061  30
  -3   0   1 11236.0 261.876  29
  -3   0   1 10902.9 261.930  42
  -3   0   1 11322.0 819.939  39
  -3   0   1 10109.7 254.590   9
  -3   0   1 11553.7 281.918  35
  -3   0   1 11339.5 282.033  40
  -3   0   1 11561.8 286.714  33
  -3   0   1 11019.0 270.549  32
  -3   0   1 11074.8 279.566  14
  -3   0   1 11315.7 280.286   8
  -3   0   0 7493.64 230.325   8
  -3   0   0 7489.60 220.822  30
  -3   0   0 7369.84 217.404  42
  -3   0   0 7850.83 695.334  39
  -3   0   0 7751.96 236.921  40
   3   0   0 7634.09 575.975  37
  -3   0   0 7219.86 215.560   9
  -3   0   0 7502.38 224.292  35
  -3   0   0 7873.25 234.964  33
  -3   0   0 7476.94 224.880  32
  -3   0   0 7315.83 229.152  14
  -3   0  -1 11578.9 291.136   8
  -3   0  -1 12873.6 294.985  30
  -3   0  -1 15209.7 1056.43   7
  -3   0  -1 12256.6 301.885  40
  -3   0  -1 12437.4 886.857  39
   3   0   1 18805.3 1025.39  18
   3   0   1 11879.2 668.934  37
  -3   0  -1 12297.3 281.081   9
  -3   0  -1 12119.6 282.115  35
  -3   0  -1 12269.9 292.955  33
   3   0   1 12431.3 779.574   4
  -3   0  -1 12744.9 293.634  32
  -3   0  -1 4653.92 246.283  31
  -3   0  -1 11909.6 296.245  14
  -3   0  -1 12203.2 281.608  42
  -3   0  -2 776.958 75.9810   8
  -3   0  -2 872.747 79.0286  30
   3   0   2 736.968 196.106   4
  -3   0  -2 1047.70 274.968   7
  -3   0  -2 823.765 74.9637  42
  -3   0  -2 800.267 78.7104  40
  -3   0  -2 872.050 257.080  39
   3   0   2 761.515 223.446  38
   3   0   2 1093.07 274.003  18
  -3   0  -2 863.836 76.0091   9
  -3   0  -2 839.215 74.4192  35
  -3   0  -2 881.760 88.2535  34
  -3   0  -2 869.813 78.7203  33
  -3   0  -2 813.451 76.0552  32
  -3   0  -2 804.581 77.7340  14
  -3   0  -3 1064.92 91.7073   8
  -3   0  -3 1076.36 89.9638  30
  -3   0  -3 819.912 95.1665  20
   3   0   3 1059.73 243.571   4
  -3   0  -3 1248.09 313.608   7
  -3   0  -3 1162.54 88.7585  42
   3   0   3 1309.28 299.748  38
   3   0   3 1205.74 323.632  18
  -3   0  -3 1111.23 86.6843   9
  -3   0  -3 1049.17 82.9968  35
  -3   0  -3 1180.12 104.147  34
  -3   0  -3 1057.89 87.0610  33
  -3   0  -3 1050.59 87.9781  32
  -3   0  -3 580.642 98.9828  31
  -3   0  -3 1105.86 93.0950  14
  -3   0  -4 16786.8 364.967  30
  -3   0  -4 21677.8 1315.12   7
  -3   0  -4 17288.5 343.470  42
  -3   0  -4 12779.2 302.572  22
   3   0   4 17536.7 1270.57  18
   3   0   4 16055.0 1076.75  38
  -3   0  -4 17048.6 339.189   9
  -3   0  -4 16309.3 319.286  35
  -3   0  -4 14151.0 392.221  20
  -3   0  -4 17451.5 413.708  34
  -3   0  -4 16908.1 346.701  33
  -3   0  -4 17449.9 358.690  32
   3   0   4 15988.4 972.356   4
  -3   0  -4 16845.1 365.374  14
  -3   0  -4 17741.1 372.299   8
  -3   0  -5 2592.61 148.129  30
  -3   0  -5 2129.27 132.998  22
  -3   0  -5 2953.15 181.233  20
  -3   0  -5 3166.47 498.601   7
   3   0   5 1949.21 468.178  18
   3   0   5 2699.62 457.773  38
  -3   0  -5 2696.06 136.373   9
  -3   0  -5 2818.22 140.228  42
  -3   0  -5 2536.73 164.286  34
  -3   0  -5 2584.65 140.088  32
   3   0   5 2078.44 364.559   4
  -3   0  -5 2675.26 148.461  14
  -3   0  -5 2699.22 146.460   8
  -3   0  -6 1469.65 115.314  30
  -3   0  -6 1870.23 148.216  20
   3   0   6 1361.44 325.265   4
  -3   0  -6 1808.88 372.278   7
  -3   0  -6 1553.72 104.277  42
  -3   0  -6 1342.94 114.222  22
   3   0   6 1435.66 341.017  38
   3   0   6 1169.94 407.324  18
  -3   0  -6 1483.62 102.228   9
  -3   0  -6 1456.86 104.797  32
  -3   0  -6 1114.49 126.866  31
  -3   0  -6 1421.05 109.322  14
  -3   0  -6 1417.08 110.430   8
  -3   0  -7 164.594 39.2996  14
  -3   0  -7 168.759 42.1648  30
  -3   0  -7 131.229 36.5662   8
   3   0   7 42.0171 104.838   4
  -3   0  -7 276.477 175.913   7
  -3   0  -7 219.368 40.2042  42
   3   0   7 234.661 171.147  38
   3   0   7-62.7974 116.017  18
  -3   0  -7 196.144 42.6879   9
  -3   0  -7 125.402 37.5216  22
  -3   0  -8 862.388 90.8278  30
   3   0   8 565.225 230.076   4
  -3   0  -8 847.878 75.1712  42
  -3   0  -8 1108.86 108.509  19
  -3   0  -8 1003.46 121.039  20
  -3   0  -8 763.288 90.9109  22
  -3   0  -8 837.739 81.9949  14
  -3   0  -9 218.852 48.2834  30
   3   0   9 93.9246 103.494   4
  -3   0  -9 240.635 55.2883  22
  -3   0  -9 252.045 68.8277  20
  -3   0  -9 249.478 57.3766  19
  -3   0 -10 5393.30 214.251  30
   3   0  10 5462.52 722.555   4
  -3   0 -10 5706.94 260.220  22
  -3   0 -10 4874.75 238.378  19
  -3   0 -11 635.333 107.750  20
  -3   0 -11 519.396 78.7155  19
  -3   0 -11 377.326 82.7845  11
  -3   0 -12 172.477 59.8438  11
  -3   0 -12 150.152 43.2203  19
  -3   0 -13 1864.11 137.268  19
  -3   0 -13 2002.62 146.482  34
  -3   0 -13 1512.70 138.371  11
  -3   0 -14 8.28656 19.8719  21
  -3   0 -14 23.6564 21.9382  11
  -3   0 -14 24.7916 21.4755  19
  -3   0 -14 26.4516 22.1497  34
   3   1 -15 38.0665 19.3175  13
  -3  -1  15 29.0690 21.4140  27
  -3  -1  15 65.3782 29.5820  24
  -3  -1  15 53.6449 21.8626  33
   3   1 -14 39.7639 22.0111  13
  -3  -1  14 25.2031 22.3771  27
  -3  -1  14-16.9992 20.1248  33
  -3  -1  14-11.7348 24.9383  24
  -3  -1  13 531.530 61.9818  29
   3   1 -13 442.130 62.8880  13
  -3  -1  13 481.255 70.5006  27
  -3  -1  13 513.248 74.8410  24
  -3  -1  13 472.465 71.5475  33
  -3  -1  12 22.7513 21.6583  29
   3   1 -12 16.6265 18.6320  13
  -3  -1  12 27.2760 23.1461  27
  -3  -1  12 42.5520 35.5923  24
   3   1 -12-65.1646 112.671  37
  -3  -1  12 25.0597 22.3181  33
  -3  -1  11 4383.95 198.537  29
  -3  -1  11 4418.90 222.861  24
   3   1 -11 4633.15 683.775  37
  -3  -1  11 4143.12 214.175  33
  -3  -1  10 6260.18 241.778  29
  -3  -1  10 6379.57 262.396  24
   3   1 -10 5698.69 759.220  37
  -3  -1  10 6348.73 265.315  33
  -3  -1   9 498.321 70.6708  29
  -3  -1   9 452.141 71.4553  24
  -3  -1   9 466.655 67.3691  35
  -3  -1   9 487.960 75.1164  33
  -3  -1   8 16713.6 385.043  29
  -3  -1   8 16570.5 434.631  28
  -3  -1   8 16425.2 395.964  24
  -3  -1   8 16743.8 385.331  35
  -3  -1   8 16123.4 405.426  33
  -3  -1   7 320.809 55.0285  29
  -3  -1   7 298.872 61.6222  28
  -3  -1   7 369.081 51.0488  40
  -3  -1   7 440.424 168.187  39
  -3  -1   7 326.072 56.5308  35
  -3  -1   7 332.703 58.0570  34
  -3  -1   7 346.915 59.3854  33
  -3  -1   7 364.153 57.9804  24
  -3  -1   7 329.659 48.0580  32
  -3  -1   6 985.288 90.2796  29
  -3  -1   6 999.964 103.323  28
  -3  -1   6 1019.58 85.9818  40
  -3  -1   6 914.929 83.5245  27
  -3  -1   6 1013.69 91.4178  24
  -3  -1   6 894.145 235.581  39
  -3  -1   6 1022.69 82.7836   9
  -3  -1   6 1034.93 95.6412  35
  -3  -1   6 1078.82 103.051  34
  -3  -1   6 1038.76 97.4032  33
  -3  -1   6 995.260 83.2317  32
  -3  -1   6 1153.06 94.9254   8
  -3  -1   5 2558.13 136.804  40
  -3  -1   5 2410.85 135.692  29
  -3  -1   5 2625.65 159.651  28
  -3  -1   5 2865.92 432.208   7
  -3  -1   5 2487.82 136.550  24
  -3  -1   5 2588.93 137.243  42
  -3  -1   5 2492.63 394.224  39
  -3  -1   5 2494.67 132.550   9
  -3  -1   5 2554.94 147.984  35
  -3  -1   5 2582.75 156.387  34
  -3  -1   5 2618.40 149.785  33
  -3  -1   5 2534.12 133.467  32
  -3  -1   5 2595.82 143.284   8
  -3  -1   4 2526.64 136.061  29
  -3  -1   4 2665.81 157.189  28
  -3  -1   4 2758.99 427.859   7
  -3  -1   4 2491.36 131.318  24
  -3  -1   4 2508.95 134.430  42
  -3  -1   4 2498.71 136.903  40
  -3  -1   4 2380.62 129.584   9
  -3  -1   4 2662.41 147.573  35
  -3  -1   4 2629.12 156.251  34
  -3  -1   4 2518.15 145.246  33
  -3  -1   4 2530.47 134.499  32
  -3  -1   4 2433.55 395.331  39
  -3  -1   4 2184.01 194.351  31
  -3  -1   4 2639.92 144.639   8
  -3  -1   3 109.037 30.3472  14
  -3  -1   3 123.143 30.8993  30
  -3  -1   3 121.516 31.4306   8
  -3  -1   3 114.922 32.1955  29
  -3  -1   3 88.5035 31.5176  28
  -3  -1   3 87.1122 90.3990   7
  -3  -1   3 107.346 30.6800  42
  -3  -1   3 92.5246 91.4796  39
  -3  -1   3 83.7900 28.3552  35
  -3  -1   3 118.398 35.5963  34
  -3  -1   3 86.7386 26.0244   9
  -3  -1   3 153.788 37.0728  33
  -3  -1   3 139.616 34.0521  32
  -3  -1   3 115.011 31.3864  40
  -3  -1   3 103.567 46.5563  31
  -3  -1   2 12037.9 281.051  30
  -3  -1   2 12367.5 283.455  29
  -3  -1   2 12732.8 334.665  28
  -3  -1   2 13732.5 975.585   7
  -3  -1   2 12547.0 299.278  42
  -3  -1   2 12218.9 307.529  40
  -3  -1   2 12120.3 896.622  39
  -3  -1   2 11605.2 281.677   9
  -3  -1   2 12006.8 305.122  35
  -3  -1   2 12668.1 339.587  34
  -3  -1   2 12692.4 307.718  33
  -3  -1   2 12506.4 300.541  32
  -3  -1   2 11987.2 308.733  14
  -3  -1   2 12641.5 314.422   8
  -3  -1   1 441.338 55.7487  30
  -3  -1   1 402.500 50.8731  29
  -3  -1   1 433.062 61.5836  28
  -3  -1   1 607.755 212.477   7
  -3  -1   1 442.444 62.2979  40
  -3  -1   1 544.990 187.924  39
  -3  -1   1 420.548 55.8659   9
  -3  -1   1 450.507 59.7964  35
  -3  -1   1 481.172 66.7703  34
  -3  -1   1 513.765 61.0860  33
  -3  -1   1 522.682 62.5954  32
  -3  -1   1 432.323 59.7894  14
  -3  -1   1 521.860 90.6550  31
  -3  -1   1 454.519 58.7421  42
  -3  -1   1 411.835 58.0717   8
  -3  -1   0 7355.02 231.141  30
  -3  -1   0 7491.70 211.964  29
  -3  -1   0 7831.38 261.548  28
  -3  -1   0 7823.01 755.837   7
   3   1   0 6946.49 537.346   5
  -3  -1   0 7994.38 252.413  40
  -3  -1   0 8091.92 745.989  39
  -3  -1   0 7114.48 221.842   9
  -3  -1   0 7414.36 235.747  35
  -3  -1   0 7740.17 269.853  34
  -3  -1   0 7620.11 230.723  33
  -3  -1   0 7959.72 240.780  42
  -3  -1   0 7430.76 236.668  32
  -3  -1   0 7235.90 241.927  14
  -3  -1   0 7659.94 247.350   8
  -3  -1  -1 13.4069 18.5166  14
  -3  -1  -1 30.9564 23.5846  30
  -3  -1  -1 12.4167 12.5020   8
   3   1   1 58.8234 60.3169   4
  -3  -1  -1 19.2703 16.4765  28
  -3  -1  -1 22.5596 56.6708   7
  -3  -1  -1 66.6099 20.2592  42
  -3  -1  -1 27.9863 25.4217  40
  -3  -1  -1 34.2746 20.8449  11
  -3  -1  -1 50.3583 87.5272  39
   3   1   1 109.493 104.623  38
  -3  -1  -1 19.2889 19.3078  35
  -3  -1  -1 27.6168 23.8790  34
  -3  -1  -1 15.6393 17.3608   9
  -3  -1  -1 17.2187 12.2898  33
  -3  -1  -1 33.9706 18.8153  32
  -3  -1  -1 49.9703 31.3781  31
  -3  -1  -2 48.0934 23.3086  14
  -3  -1  -2 64.2528 29.6137  30
  -3  -1  -2 75.5935 27.4417   8
   3   1   2 10.3292 85.2666   4
  -3  -1  -2 47.2011 22.5097  28
  -3  -1  -2 78.3322 103.907   7
  -3  -1  -2 56.4521 23.4694  42
  -3  -1  -2 74.9798 31.1540  40
  -3  -1  -2 50.8500 24.4236  11
  -3  -1  -2 66.3551 66.4380  39
   3   1   2-4.11623 60.9864  38
  -3  -1  -2 49.7799 24.7595  35
  -3  -1  -2 91.9134 36.2169  34
  -3  -1  -2 70.6661 26.2806   9
  -3  -1  -2 56.6018 24.4292  33
  -3  -1  -2 69.9944 29.0043  32
  -3  -1  -2 85.9947 45.8238  31
  -3  -1  -3 12726.7 328.664  30
  -3  -1  -3 13379.4 353.981  28
  -3  -1  -3 13071.7 334.422  40
  -3  -1  -3 14753.8 1065.12   7
  -3  -1  -3 13429.9 316.782  42
  -3  -1  -3 12766.9 324.013  21
  -3  -1  -3 14133.3 366.253  20
  -3  -1  -3 13227.7 973.260  39
   3   1   3 12760.8 891.386  38
  -3  -1  -3 13562.9 309.197   9
  -3  -1  -3 12332.6 300.105  35
  -3  -1  -3 13562.9 381.295  34
   3   1   3 12471.5 937.780   4
  -3  -1  -3 13158.8 328.907  32
  -3  -1  -3 12685.3 330.490  14
  -3  -1  -3 13224.8 352.775  11
  -3  -1  -3 13405.2 337.486   8
  -3  -1  -4 1733.63 125.370  30
  -3  -1  -4 1788.76 133.053  28
  -3  -1  -4 2178.82 413.287   7
  -3  -1  -4 1735.18 132.996  11
  -3  -1  -4 1820.53 116.942  42
  -3  -1  -4 1923.93 141.572  20
  -3  -1  -4 1785.09 124.391  40
  -3  -1  -4 1800.05 375.597  39
   3   1   4 1716.96 339.360  38
  -3  -1  -4 1787.69 113.162   9
  -3  -1  -4 1764.61 113.175  35
  -3  -1  -4 1833.70 145.188  34
  -3  -1  -4 1823.17 124.829  32
   3   1   4 1851.61 374.027   4
  -3  -1  -4 1638.37 119.594  14
  -3  -1  -4 1713.15 124.476   8
  -3  -1  -5 6556.01 247.839  30
  -3  -1  -5 6778.23 263.869  28
  -3  -1  -5 7950.39 789.459   7
  -3  -1  -5 5180.10 214.966  22
  -3  -1  -5 6622.81 269.596  11
  -3  -1  -5 7447.22 289.984  20
  -3  -1  -5 6153.04 228.954  19
   3   1   5 6953.68 702.487  38
  -3  -1  -5 6713.75 218.777   9
  -3  -1  -5 6307.17 212.026  35
  -3  -1  -5 6935.79 287.483  34
  -3  -1  -5 7009.19 244.074  32
  -3  -1  -5 7156.05 229.899  42
   3   1   5 6859.16 742.369   4
  -3  -1  -5 6500.47 239.305  14
  -3  -1  -5 6195.90 231.945   8
  -3  -1  -6 1725.94 131.242  30
  -3  -1  -6 1825.55 116.920  42
  -3  -1  -6 1766.77 137.150  28
   3   1   6 1643.29 375.403   4
  -3  -1  -6 1796.18 376.090   7
  -3  -1  -6 1501.70 120.302  22
  -3  -1  -6 1701.00 143.046  11
  -3  -1  -6 1942.87 155.705  20
  -3  -1  -6 1668.28 126.337  19
  -3  -1  -6 1685.20 110.210   9
  -3  -1  -6 1644.88 145.700  34
  -3  -1  -6 1864.71 125.463  32
  -3  -1  -6 1737.86 124.267  14
  -3  -1  -6 1853.74 128.027   8
  -3  -1  -7 68.3713 31.0063  30
  -3  -1  -7 33.6580 21.0881   8
  -3  -1  -7 35.6691 25.6596  28
   3   1   7-51.0245 105.053   4
  -3  -1  -7 194.875 150.850   7
  -3  -1  -7 96.2705 28.8464  42
  -3  -1  -7 99.9592 35.1363  20
  -3  -1  -7 34.6235 32.9595  11
  -3  -1  -7 93.2915 35.0803  19
  -3  -1  -7 90.7115 29.7057   9
  -3  -1  -7 71.0900 44.2688  34
  -3  -1  -7 116.728 34.1788  32
  -3  -1  -8 1531.80 124.084  30
  -3  -1  -8 1479.19 149.778  11
  -3  -1  -8 1489.78 129.480  28
   3   1   8 1555.80 412.061   4
  -3  -1  -8 1712.07 154.021  20
  -3  -1  -8 1457.81 126.254  19
  -3  -1  -8 1467.85 145.113  34
  -3  -1  -9 1507.53 121.362  30
  -3  -1  -9 1367.31 122.740  28
   3   1   9 1113.41 345.214   4
  -3  -1  -9 1397.12 139.664  11
  -3  -1  -9 1189.88 117.342  19
  -3  -1  -9 1458.41 143.765  34
  -3  -1 -10 873.951 95.1322  28
   3   1  10 741.731 294.381   4
  -3  -1 -10 726.179 105.965  11
  -3  -1 -10 786.100 96.4201  19
  -3  -1 -10 882.155 113.577  34
  -3  -1 -10 958.815 91.3800  30
  -3  -1 -11 129.420 35.1324  28
  -3  -1 -11 116.265 43.1782  21
  -3  -1 -11 104.325 44.2654  11
  -3  -1 -11 111.356 39.9882  19
  -3  -1 -11 72.9652 37.2448  34
  -3  -1 -12 133.485 41.8095  21
  -3  -1 -12 39.5728 28.7775  11
  -3  -1 -12 155.620 43.9825  19
  -3  -1 -12 85.6975 34.8813  34
  -3  -1 -13 1219.47 105.850  11
  -3  -1 -13 1276.01 108.396  21
  -3  -1 -13 1232.51 103.335  19
  -3  -1 -13 1158.12 105.812  34
  -3  -1 -14 444.270 55.0094  19
  -3  -1 -14 366.482 52.0807  11
  -3  -1 -14 384.936 54.2549  21
  -3  -1 -14 395.333 54.6889  34
  -3  -2  15 212.704 38.6240  27
  -3  -2  15 201.475 40.3339  24
  -3  -2  15 229.057 40.3088  33
  -3  -2  14 1207.05 83.6993  29
   3   2 -14 1008.89 79.8551  13
  -3  -2  14 1189.60 97.3950  27
  -3  -2  14 1235.97 103.772  24
  -3  -2  14 1205.17 101.436  33
  -3  -2  13 280.250 56.1100  24
  -3  -2  13 173.331 36.8996  29
   3   2 -13 228.508 45.5639  13
  -3  -2  13 190.936 44.8398  27
   3   2 -13 204.589 40.3246  16
  -3  -2  13 189.066 45.7530  33
  -3  -2  12 133.698 35.1542  29
  -3  -2  12 174.591 49.0177  24
   3   2 -12 180.966 41.2979  16
  -3  -2  12 143.980 45.8822  33
  -3  -2  11 2100.59 139.848  29
  -3  -2  11 1954.23 144.429  24
   3   2 -11 1828.98 125.723  16
  -3  -2  11 1927.83 149.197  33
  -3  -2  10-16.8247 23.7328  29
  -3  -2  10 7.52212 20.1074  26
  -3  -2  10 6.00942 18.9645  24
  -3  -2  10-6.47427 25.5722  33
  -3  -2  10-58.8363 42.0468  31
  -3  -2   9 22012.1 458.483  29
  -3  -2   9 21660.2 521.452  28
  -3  -2   9 21923.8 467.072  24
  -3  -2   9 22294.3 437.617  35
  -3  -2   9 22492.8 497.271  33
  -3  -2   8 254.059 52.6880  29
  -3  -2   8 237.358 59.0573  28
  -3  -2   8 243.214 50.9872  24
  -3  -2   8 222.141 42.5402  40
  -3  -2   8 241.748 149.946  39
  -3  -2   8 202.366 44.3514  35
  -3  -2   8 193.754 48.3543  33
  -3  -2   8 168.332 56.0984  31
  -3  -2   7 53.7147 24.8523   8
  -3  -2   7 32.8882 20.3504  29
  -3  -2   7 12.8385 22.1594  28
  -3  -2   7-6.85441 20.0948  24
  -3  -2   7-13.6393 97.3127  39
  -3  -2   7 24.2455 24.0433  35
  -3  -2   7 17.4932 24.2173  34
  -3  -2   7 55.2101 27.2024   9
  -3  -2   7 67.9128 28.4611  40
  -3  -2   7 26.9023 23.2985  33
  -3  -2   7 23.2124 14.5761  32
  -3  -2   7 22.0115 33.7453  31
  -3  -2   6 1262.10 104.762  29
  -3  -2   6 1457.43 130.316  28
  -3  -2   6 1212.20 99.3697  24
  -3  -2   6 1243.09 102.848  40
  -3  -2   6 1332.01 316.196  39
  -3  -2   6 1362.93 101.635   9
  -3  -2   6 1304.18 110.447  35
  -3  -2   6 1460.29 128.540  34
  -3  -2   6 1221.39 108.118  33
  -3  -2   6 1301.35 99.3196  32
  -3  -2   6 1328.96 107.998   8
  -3  -2   5 348.623 55.6407   8
  -3  -2   5 254.971 48.8765  29
  -3  -2   5 280.656 56.7482  28
  -3  -2   5 341.138 52.6847  24
  -3  -2   5 330.311 54.5578  40
  -3  -2   5 427.413 183.289  39
  -3  -2   5 280.515 52.1824  35
  -3  -2   5 378.285 65.9799  34
  -3  -2   5 297.471 48.7942   9
  -3  -2   5 352.247 57.9891  33
  -3  -2   5 343.093 51.7524  32
  -3  -2   5 418.138 91.2684  31
  -3  -2   4 835.159 77.8577  30
  -3  -2   4 808.451 81.0162  29
  -3  -2   4 769.748 92.2599  28
  -3  -2   4 1020.01 277.757  39
  -3  -2   4 803.673 78.5193   9
  -3  -2   4 869.582 90.3214  35
  -3  -2   4 833.065 95.1337  34
  -3  -2   4 781.902 83.3179  40
  -3  -2   4 863.451 87.4140  33
  -3  -2   4 852.675 82.5196  32
  -3  -2   4 807.372 85.7632   8
  -3  -2   4 1225.94 135.267  31
  -3  -2   3 1986.70 121.490  30
  -3  -2   3 2138.08 125.254  29
  -3  -2   3 2173.72 151.702  28
  -3  -2   3 2298.81 423.179   7
  -3  -2   3 1846.42 129.721  40
  -3  -2   3 2516.87 441.955  39
  -3  -2   3 1917.20 122.670   9
  -3  -2   3 1961.56 133.117  35
  -3  -2   3 2241.12 154.474  34
  -3  -2   3 1905.67 126.297  33
  -3  -2   3 2086.88 130.139  32
  -3  -2   3 1990.57 133.734   8
  -3  -2   2 1702.69 114.723  30
  -3  -2   2 1779.50 110.833  29
  -3  -2   2 1858.72 139.329  28
  -3  -2   2 1917.10 391.531   7
  -3  -2   2 1658.88 123.891  40
  -3  -2   2 1526.70 345.835  39
   3   2  -2 417.504 188.477   5
  -3  -2   2 1635.25 113.131   9
  -3  -2   2 1759.58 124.657  35
  -3  -2   2 1894.38 141.965  34
  -3  -2   2 1714.57 116.421  33
  -3  -2   2 1659.34 117.980  32
  -3  -2   2 1876.46 131.028   8
  -3  -2   2 3126.96 212.332  31
  -3  -2   1 33.9101 20.6812  30
  -3  -2   1 30.7751 23.4643   8
  -3  -2   1 45.0613 21.0439  29
  -3  -2   1 123.249 41.1111  28
  -3  -2   1 66.8650 97.9404   7
  -3  -2   1 46.2903 24.8508  42
  -3  -2   1 39.4021 20.7517  11
  -3  -2   1 44.1695 30.2245  40
  -3  -2   1-11.7869 105.328  39
   3   2  -1-23.4001 48.2915  38
   3   2  -1-17.3140 74.8943   5
   3   2  -1 27.4565 42.0617  36
  -3  -2   1 52.1359 24.6738  35
  -3  -2   1 49.4460 28.9559  34
  -3  -2   1 58.6730 24.0624   9
  -3  -2   1 21.7563 21.7061  33
  -3  -2   1 37.8834 25.5403  32
  -3  -2   1-8.66173 26.3027  31
  -3  -2   0 13366.7 334.379  30
  -3  -2   0 13600.5 289.876  29
  -3  -2   0 14301.5 385.577  28
  -3  -2   0 14270.4 1072.62   7
  -3  -2   0 13912.0 343.255  42
   3   2   0 13388.2 875.846   5
  -3  -2   0 13416.2 1022.30  39
   3   2   0 13561.8 957.238  36
  -3  -2   0 13654.4 320.041   9
  -3  -2   0 13711.8 341.361  35
  -3  -2   0 13952.6 393.869  34
  -3  -2   0 13542.3 351.158  40
  -3  -2   0 13908.4 311.014  33
  -3  -2   0 13599.9 340.350  32
  -3  -2   0 14284.2 357.518  11
  -3  -2   0 13435.4 353.565   8
  -3  -2  -1 4288.04 195.049  30
  -3  -2  -1 4529.37 219.404  28
  -3  -2  -1 4964.88 645.460   7
  -3  -2  -1 4714.42 200.358  42
  -3  -2  -1 4782.43 214.948  11
   3   2   1 4744.81 502.824   5
  -3  -2  -1 4569.12 204.772  40
  -3  -2  -1 4924.92 624.240  39
   3   2   1 3616.48 524.137  36
  -3  -2  -1 4590.51 186.858   9
  -3  -2  -1 4504.82 195.646  35
  -3  -2  -1 4530.69 226.679  34
   3   2   1 4239.05 593.654   4
  -3  -2  -1 4498.51 199.890  32
  -3  -2  -1 4283.57 201.216   8
  -3  -2  -2 5751.81 231.179  30
  -3  -2  -2 5860.48 253.191  28
  -3  -2  -2 6006.38 707.581   7
  -3  -2  -2 5778.10 222.287  42
  -3  -2  -2 5657.75 239.190  11
  -3  -2  -2 5500.48 222.261  21
  -3  -2  -2 5701.93 230.351  40
  -3  -2  -2 5538.86 659.841  39
  -3  -2  -2 5480.14 206.363   9
  -3  -2  -2 5686.26 218.821  35
  -3  -2  -2 5964.51 264.948  34
   3   2   2 5688.08 694.412   4
  -3  -2  -2 5517.55 223.677  32
  -3  -2  -2 5616.45 232.333   8
  -3  -2  -3 2022.57 140.100  30
  -3  -2  -3 2128.64 155.214  28
  -3  -2  -3 2071.43 423.485   7
   3   2   3 2071.38 423.070   4
  -3  -2  -3 2215.58 155.468  11
  -3  -2  -3 2113.22 144.128  21
  -3  -2  -3 2257.98 144.967  40
  -3  -2  -3 2348.33 440.442  39
  -3  -2  -3 2153.24 128.945   9
  -3  -2  -3 1941.44 127.636  35
  -3  -2  -3 2158.10 162.888  34
  -3  -2  -3 1981.41 135.921  32
  -3  -2  -3 3142.37 219.686  31
  -3  -2  -3 2105.76 142.924   8
  -3  -2  -4 13017.6 361.488  30
  -3  -2  -4 13438.3 396.354  28
  -3  -2  -4 13273.3 1076.55   7
  -3  -2  -4 13466.3 392.984  11
  -3  -2  -4 12597.2 363.290  21
  -3  -2  -4 13008.8 346.710  40
  -3  -2  -4 12605.1 999.787  39
  -3  -2  -4 13655.7 325.648   9
  -3  -2  -4 12771.0 325.215  35
  -3  -2  -4 13603.5 417.921  34
  -3  -2  -4 13688.9 360.050  32
   3   2   4 11003.1 1001.99   4
  -3  -2  -4 15624.2 509.157  31
  -3  -2  -4 13352.8 357.225   8
  -3  -2  -5 675.565 85.1596  30
  -3  -2  -5 525.818 66.4870  35
  -3  -2  -5 596.070 85.8423  28
   3   2   5 513.138 232.177   4
  -3  -2  -5 641.156 236.491   7
  -3  -2  -5 649.019 88.6257  11
  -3  -2  -5 623.953 87.0160  21
  -3  -2  -5 625.781 78.7035  19
  -3  -2  -5 641.142 70.1157   9
  -3  -2  -5 661.550 97.2627  34
  -3  -2  -5 684.456 81.7139  32
  -3  -2  -5 670.330 78.8662   8
  -3  -2  -6 826.289 97.9326  30
  -3  -2  -6 746.176 98.7481  28
   3   2   6 851.446 308.175   4
  -3  -2  -6 725.388 98.7010  11
  -3  -2  -6 748.122 97.4495  21
  -3  -2  -6 648.930 81.6793  19
  -3  -2  -6 769.786 75.7824   9
  -3  -2  -6 693.943 74.1707  35
  -3  -2  -6 679.458 98.2931  34
  -3  -2  -6 837.145 88.1441   8
  -3  -2  -7 517.552 80.9589  28
   3   2   7 376.962 202.741   4
  -3  -2  -7 609.016 89.4132  21
  -3  -2  -7 519.656 88.8271  11
  -3  -2  -7 487.791 75.4518  19
  -3  -2  -7 638.628 98.8729  34
  -3  -2  -7 565.017 78.7966  30
  -3  -2  -8 231.997 51.4588  30
  -3  -2  -8 261.790 60.1127  28
   3   2   8 54.9980 121.000   4
  -3  -2  -8 174.886 50.2778  21
  -3  -2  -8 244.233 60.6100  11
  -3  -2  -8 213.051 52.7217  19
  -3  -2  -8 225.389 60.7684  34
  -3  -2  -9 4637.93 228.836  28
  -3  -2  -9 4714.59 250.742  11
  -3  -2  -9 4490.51 238.626  21
  -3  -2  -9 4432.00 221.966  19
  -3  -2  -9 4888.01 260.344  34
  -3  -2  -9 4740.62 210.270  30
  -3  -2 -10 198.028 47.5929  28
  -3  -2 -10 183.095 51.9486  21
  -3  -2 -10 215.406 57.0294  11
  -3  -2 -10 134.364 41.6552  19
  -3  -2 -10 165.639 51.8994  34
  -3  -2 -11 72.9699 30.7348  28
  -3  -2 -11 76.2092 40.1612  21
  -3  -2 -11 49.6705 34.6556  11
  -3  -2 -11 95.0966 31.6392  19
  -3  -2 -11 54.2899 30.8517  34
  -3  -2 -12 884.930 76.1799  28
  -3  -2 -12 955.185 93.8424  11
  -3  -2 -12 805.113 89.0596  21
  -3  -2 -12 791.697 87.2803  34
  -3  -2 -13 487.381 59.2299  11
  -3  -2 -13 458.246 58.2780  21
  -3  -2 -13 478.876 59.7922  34
  -3  -3  15 187.458 25.9141  29
  -3  -3  15 210.737 35.1901  24
  -3  -3  15 207.087 36.1681  33
  -3  -3  14 585.453 57.1902  29
  -3  -3  14 526.263 55.5034  27
  -3  -3  14 577.004 65.1497  24
  -3  -3  14 583.455 66.4763  33
  -3  -3  13 736.949 73.0767  29
  -3  -3  13 698.061 69.4025  27
  -3  -3  13 754.409 79.3367  24
   3   3 -13 627.430 65.1115  16
  -3  -3  13 707.074 79.9171  33
  -3  -3  12 355.675 55.3191  29
  -3  -3  12 348.663 53.0386  27
  -3  -3  12 381.456 61.4048  24
   3   3 -12 318.940 49.2069  16
  -3  -3  12 271.255 55.1429  33
  -3  -3  11 736.410 84.1672  29
  -3  -3  11 651.065 71.9434  26
  -3  -3  11 714.749 83.5283  24
  -3  -3  11 799.066 93.2300  33
  -3  -3  10 62.1876 30.8939  29
  -3  -3  10 41.7182 20.3781  26
  -3  -3  10 39.2488 32.4425  33
  -3  -3  10 48.5003 28.7509  24
  -3  -3   9 6733.61 260.013  29
  -3  -3   9 7057.84 301.238  28
  -3  -3   9 6708.88 247.787  24
  -3  -3   9 7159.59 237.861  40
  -3  -3   9 7254.75 243.192  35
  -3  -3   9 7246.21 278.183  33
  -3  -3   8 2965.29 171.384  29
  -3  -3   8 2823.22 192.901  28
  -3  -3   8 2773.88 156.120  24
  -3  -3   8 2939.44 160.033  40
  -3  -3   8 2902.27 476.890  39
  -3  -3   8 2964.81 149.081   9
  -3  -3   8 2790.22 158.501  35
  -3  -3   8 2853.56 173.156  33
  -3  -3   7 2084.10 140.933  29
  -3  -3   7 1770.45 121.392  24
  -3  -3   7 2014.31 137.818  40
  -3  -3   7 1817.16 395.360  39
  -3  -3   7 2066.79 130.255   9
  -3  -3   7 2251.89 147.531  35
  -3  -3   7 1776.08 153.630  34
  -3  -3   7 1955.78 140.046  33
  -3  -3   7 1796.44 116.436  32
  -3  -3   6 4590.80 206.523  29
  -3  -3   6 4744.82 215.426  40
  -3  -3   6 4758.39 243.815  28
  -3  -3   6 4824.69 192.142  24
  -3  -3   6 4911.64 653.646  39
  -3  -3   6 4745.56 199.174   9
  -3  -3   6 4797.30 215.446  35
  -3  -3   6 4784.60 247.191  34
  -3  -3   6 4756.28 212.439  33
  -3  -3   6 4526.36 189.729  32
  -3  -3   6 4639.92 215.334   8
  -3  -3   5 134.308 41.0060   8
  -3  -3   5 107.597 35.2710  29
  -3  -3   5 109.384 46.0881  28
  -3  -3   5 130.345 40.7484  40
  -3  -3   5-47.6305 87.4466  39
  -3  -3   5 120.741 39.6892  35
  -3  -3   5 121.702 44.7939  34
  -3  -3   5 97.6085 32.3819   9
  -3  -3   5 94.7515 30.4958  33
  -3  -3   5 112.369 34.3572  32
  -3  -3   5 113.651 51.3036  31
  -3  -3   4 2061.02 130.563  29
  -3  -3   4 1993.33 156.543  28
  -3  -3   4 1979.05 142.702  40
  -3  -3   4 1964.85 418.468  39
  -3  -3   4 1952.36 129.387   9
  -3  -3   4 1933.85 137.613  35
  -3  -3   4 1869.57 153.268  34
  -3  -3   4 2121.20 133.026  33
  -3  -3   4 1835.22 127.193  32
  -3  -3   4 1948.47 142.917   8
  -3  -3   4 2768.32 207.762  31
  -3  -3   4 1811.30 119.905  30
  -3  -3   3 44.5676 24.4735  30
  -3  -3   3 19.7265 22.7258   8
  -3  -3   3 17.9716 19.7703  29
  -3  -3   3 37.8517 27.9213  28
  -3  -3   3-57.3488 150.854  39
   3   3  -3-34.2270 109.190   5
  -3  -3   3 5.55525 21.9308  40
  -3  -3   3 40.2139 28.5668  35
  -3  -3   3 61.1576 31.1946  34
  -3  -3   3 19.8800 23.0288   9
  -3  -3   3 63.8420 30.1766  33
  -3  -3   3 59.3872 31.1990  32
  -3  -3   3 17.1833 27.6711  31
  -3  -3   2 725.395 74.0487  29
  -3  -3   2 728.461 96.1048  28
  -3  -3   2 709.696 84.9076  11
  -3  -3   2 804.839 93.9780  40
  -3  -3   2 564.391 242.709  39
   3   3  -2 250.991 147.537   5
  -3  -3   2 695.826 77.5878   9
  -3  -3   2 628.731 78.8501  35
  -3  -3   2 740.485 97.6726  34
  -3  -3   2 818.262 79.5443  33
  -3  -3   2 669.539 78.6049  32
  -3  -3   2 730.469 89.5154   8
  -3  -3   2 811.687 116.065  31
  -3  -3   2 633.965 75.7282  30
  -3  -3   1 3434.60 154.357  29
  -3  -3   1 3606.09 208.621  28
  -3  -3   1 3623.34 192.757  11
   3   3  -1 3410.54 515.335   5
  -3  -3   1 3306.15 188.204  40
  -3  -3   1 3710.63 588.478  39
   3   3  -1 3634.50 515.063  36
  -3  -3   1 3621.15 175.855   9
  -3  -3   1 3762.23 192.488  35
  -3  -3   1 3347.47 204.494  34
  -3  -3   1 3444.24 180.490  32
  -3  -3   1 3325.59 187.841   8
  -3  -3   1 4207.44 248.074  31
  -3  -3   1 3385.59 177.471  30
  -3  -3   0 18514.6 422.768  30
  -3  -3   0 19422.1 485.967  28
  -3  -3   0 19917.5 460.494  11
   3   3   0 18588.9 1158.62   5
  -3  -3   0 18450.1 440.009  40
  -3  -3   0 19263.8 1316.60  39
   3   3   0 17580.1 1187.55  36
  -3  -3   0 18880.2 402.290   9
  -3  -3   0 18580.9 425.601  35
  -3  -3   0 19737.7 497.520  34
  -3  -3   0 18956.7 430.179  32
  -3  -3   0 18651.5 443.560   8
  -3  -3  -1 1116.67 107.789  30
  -3  -3  -1 1057.81 116.332  28
   3   3   1 1117.90 330.730   4
  -3  -3  -1 1139.40 113.975  11
  -3  -3  -1 1021.25 100.082  21
  -3  -3  -1 1129.29 110.296  40
  -3  -3  -1 999.637 306.483  39
   3   3   1 1142.49 320.993  36
  -3  -3  -1 1251.89 103.867   9
   3   3   1 948.302 261.315   5
  -3  -3  -1 1092.43 104.497  35
  -3  -3  -1 1114.94 120.410  34
  -3  -3  -1 1012.05 102.139  32
  -3  -3  -1 1079.43 108.173   8
  -3  -3  -1 470.401 91.9839  31
  -3  -3  -2 7478.05 282.366  30
  -3  -3  -2 7834.09 315.117  28
  -3  -3  -2 7713.80 300.910  11
  -3  -3  -2 6899.80 267.757  21
  -3  -3  -2 7503.66 277.445  40
  -3  -3  -2 7817.56 830.496  39
   3   3   2 6490.13 787.023  36
  -3  -3  -2 7536.02 250.935   9
  -3  -3  -2 7805.81 275.883  35
  -3  -3  -2 7053.51 305.779  34
   3   3   2 6935.51 842.136   4
  -3  -3  -2 7455.34 278.150  32
  -3  -3  -2 7268.09 277.823   8
  -3  -3  -3 13830.7 421.841  28
  -3  -3  -3 13329.1 383.826  21
  -3  -3  -3 13192.4 1069.89  39
   3   3   3 12751.4 1140.64  36
  -3  -3  -3 13755.3 334.983   9
  -3  -3  -3 14011.0 365.544  35
  -3  -3  -3 14111.1 374.518  40
  -3  -3  -3 13654.5 431.277  34
  -3  -3  -3 13480.8 375.556  32
  -3  -3  -3 13831.4 414.488  11
   3   3   3 13538.9 1176.39   4
  -3  -3  -3 14466.3 386.347   8
  -3  -3  -3 13301.1 382.143  30
  -3  -3  -4 5058.73 259.760  28
  -3  -3  -4 5086.68 255.259  11
  -3  -3  -4 4629.90 231.899  21
  -3  -3  -4 5155.47 222.577  40
  -3  -3  -4 4565.65 627.829  39
   3   3   4 4106.11 671.304  36
  -3  -3  -4 5240.59 205.144   9
  -3  -3  -4 4675.38 208.340  35
  -3  -3  -4 5086.18 268.372  34
   3   3   4 4551.98 687.588   4
  -3  -3  -4 5046.27 225.665   8
  -3  -3  -4 5109.07 243.152  30
  -3  -3  -5 1989.05 134.936  40
  -3  -3  -5 1906.00 160.262  28
   3   3   5 1344.15 365.008   4
  -3  -3  -5 1887.56 158.508  11
  -3  -3  -5 1965.81 155.382  21
  -3  -3  -5 1547.69 371.256  39
  -3  -3  -5 2005.64 122.560   9
   3   3   5 1534.80 420.172  36
  -3  -3  -5 1870.10 129.063  35
  -3  -3  -5 1925.24 165.668  34
  -3  -3  -5 2092.17 140.903   8
  -3  -3  -5 1892.37 148.347  30
  -3  -3  -6 107.166 35.0720  30
  -3  -3  -6 112.727 37.6637   8
  -3  -3  -6 63.1610 34.7205  28
   3   3   6 107.028 120.966   4
  -3  -3  -6 105.188 38.9315  21
  -3  -3  -6 64.2017 31.6766  11
   3   3   6 115.365 143.737  36
  -3  -3  -6 79.0221 31.1052  35
  -3  -3  -6 127.753 31.7266   9
  -3  -3  -6 99.7832 43.9493  34
  -3  -3  -7 2069.54 162.357  28
   3   3   7 2183.20 492.498   4
  -3  -3  -7 2288.68 172.954  11
  -3  -3  -7 2046.16 161.135  21
   3   3   7 1428.00 409.627  36
  -3  -3  -7 2047.63 121.961  35
  -3  -3  -7 1953.34 164.674  34
  -3  -3  -7 2143.38 153.205  30
  -3  -3  -8 1173.65 120.105  28
  -3  -3  -8 1284.98 128.757  11
  -3  -3  -8 1116.63 118.539  21
  -3  -3  -8 1146.83 126.625  34
  -3  -3  -9 93.5481 38.1153  28
  -3  -3  -9 79.6878 28.2702  21
  -3  -3  -9 87.0278 36.0728  11
  -3  -3  -9 95.3503 41.3579  34
  -3  -3 -10 72.2261 30.2970  28
  -3  -3 -10 61.0519 29.9853  21
  -3  -3 -10 81.8845 32.0696  11
  -3  -3 -10 128.446 45.4549  34
  -3  -3 -11 12.6982 13.3135  28
  -3  -3 -11 18.6643 21.3946  21
  -3  -3 -11 24.2288 21.9670  11
  -3  -3 -11-2.43880 19.3437  34
  -3  -4  14 395.746 42.9127  29
  -3  -4  14 421.346 45.8450  24
  -3  -4  14 415.001 49.4055  33
  -3  -4  13 593.104 61.0121  29
  -3  -4  13 640.446 62.4641  24
   3   4 -13 557.726 54.6668  16
  -3  -4  13 622.746 66.4603  33
  -3  -4  12 1440.80 103.118  29
  -3  -4  12 1428.82 99.6098  24
   3   4 -12 1184.95 88.2871  16
  -3  -4  12 1451.77 108.512  33
  -3  -4  11 99.5252 30.2326  24
  -3  -4  11 128.430 39.6938  29
  -3  -4  11 87.4728 30.6743  33
  -3  -4  10 3760.74 185.847  29
  -3  -4  10 3439.77 163.779  24
  -3  -4  10 3629.19 183.528  33
  -3  -4   9 25.4748 22.5468  29
  -3  -4   9 41.0347 30.2771  28
  -3  -4   9 37.5038 21.2822  24
  -3  -4   9 0.12718 18.5857  40
  -3  -4   9 19.9352 17.3705  35
  -3  -4   9 39.4616 18.7439   9
  -3  -4   9 23.6693 26.3018  33
  -3  -4   8 560.790 77.5611  29
  -3  -4   8 560.907 88.3656  28
  -3  -4   8 622.302 68.5795  24
  -3  -4   8 615.748 77.2913  40
  -3  -4   8 504.604 215.051  39
  -3  -4   8 571.520 67.5008   9
  -3  -4   8 549.846 68.9349  35
  -3  -4   8 534.263 74.4943  33
  -3  -4   7 5601.25 231.663  29
  -3  -4   7 5510.80 265.639  28
  -3  -4   7 5527.30 236.204  40
  -3  -4   7 5646.85 722.772  39
  -3  -4   7 5604.69 217.899   9
  -3  -4   7 5663.22 227.873  35
  -3  -4   7 5432.56 266.378  34
  -3  -4   7 5597.63 225.088  33
  -3  -4   6 61.9730 26.4181  29
  -3  -4   6 42.3677 31.9265  28
  -3  -4   6 53.4620 32.3737  40
  -3  -4   6-34.3570 122.715  39
   3   4  -6-53.0335 96.5029   5
  -3  -4   6 56.4275 30.8288  35
  -3  -4   6 80.7618 42.8785  34
  -3  -4   6 42.0268 26.2050   9
  -3  -4   6 39.3124 23.3889  33
  -3  -4   5 72.9655 28.1694  29
  -3  -4   5 141.895 49.7134  28
  -3  -4   5 40.2839 25.8933  40
  -3  -4   5-28.0177 118.724  39
   3   4  -5 73.5091 127.294   5
  -3  -4   5 66.9864 31.7616  35
  -3  -4   5 138.950 47.7606  34
  -3  -4   5 81.0330 32.4122   9
  -3  -4   5 116.775 34.3484  33
  -3  -4   5 74.5937 31.3887  32
  -3  -4   5 2.05819 24.6999  31
  -3  -4   4 3922.78 181.642  29
  -3  -4   4 4001.31 228.290  28
  -3  -4   4 4061.81 202.132  11
  -3  -4   4 3997.80 214.869  40
  -3  -4   4 3676.78 613.212  39
  -3  -4   4 3693.88 188.173   9
  -3  -4   4 4075.31 204.904  35
  -3  -4   4 3960.18 229.908  34
  -3  -4   4 3634.99 184.178  32
   3   4  -4 2810.07 578.865   5
  -3  -4   3 1182.08 97.5936  29
  -3  -4   3 1248.49 129.068  28
  -3  -4   3 1371.50 120.964  11
  -3  -4   3 1309.41 124.942  40
  -3  -4   3 1287.35 355.501  39
   3   4  -3 1186.03 348.491   5
  -3  -4   3 1194.54 107.763   9
  -3  -4   3 1263.81 117.189  35
  -3  -4   3 1076.40 122.549  34
  -3  -4   3 1091.07 104.879  32
  -3  -4   3 1217.83 122.730   8
  -3  -4   2 773.236 77.7500  29
  -3  -4   2 743.572 101.469  28
  -3  -4   2 814.257 96.6098  11
  -3  -4   2 827.661 101.332  40
  -3  -4   2 1008.36 323.963  39
   3   4  -2 735.187 259.077   5
  -3  -4   2 792.210 89.0090   9
  -3  -4   2 868.033 98.0639  35
  -3  -4   2 732.490 101.400  34
  -3  -4   2 736.087 89.9408  32
  -3  -4   2 730.696 95.2363   8
  -3  -4   2 746.896 85.7264  30
  -3  -4   1 13709.0 425.074  28
  -3  -4   1 14066.6 403.488  11
   3   4  -1 13216.8 1074.40   5
  -3  -4   1 14015.0 399.061  40
  -3  -4   1 13487.3 1160.93  39
  -3  -4   1 13623.2 360.539   9
  -3  -4   1 14107.5 389.601  35
  -3  -4   1 13695.4 429.848  34
  -3  -4   1 13632.7 378.749  32
  -3  -4   1 13358.7 397.104   8
  -3  -4   1 13226.1 367.380  30
  -3  -4   0 1277.77 132.071  28
   3   4   0 917.099 325.127   4
  -3  -4   0 1290.54 126.524  11
  -3  -4   0 1188.34 117.304  40
  -3  -4   0 1058.69 331.601  39
   3   4   0 1018.58 306.699  36
   3   4   0 1245.50 338.055   5
  -3  -4   0 1214.16 107.125   9
  -3  -4   0 1134.56 111.982  35
  -3  -4   0 1246.65 132.543  34
  -3  -4   0 1179.70 114.016  32
  -3  -4   0 1205.73 120.883   8
  -3  -4   0 1235.61 116.228  30
  -3  -4  -1 4522.03 248.045  28
  -3  -4  -1 4535.06 236.631  11
   3   4   1 3855.51 550.947   5
  -3  -4  -1 4500.42 222.601  40
  -3  -4  -1 4848.59 680.886  39
   3   4   1 4391.20 660.785  36
  -3  -4  -1 4660.15 205.304   9
  -3  -4  -1 4504.38 219.877  35
  -3  -4  -1 4714.64 253.659  34
   3   4   1 4487.12 705.316   4
  -3  -4  -1 4478.79 231.151   8
  -3  -4  -1 4328.35 220.729  30
  -3  -4  -2 743.814 102.852  28
   3   4   2 673.061 263.772   4
  -3  -4  -2 762.878 101.521  11
  -3  -4  -2 683.215 89.6604  21
  -3  -4  -2 768.935 90.6205  40
  -3  -4  -2 466.881 210.221  39
  -3  -4  -2 679.224 77.8906   9
   3   4   2 856.192 307.743  36
  -3  -4  -2 823.159 94.3155  35
  -3  -4  -2 769.055 106.200  34
  -3  -4  -2 707.593 91.4830   8
  -3  -4  -2 770.240 96.3543  30
  -3  -4  -3 6864.52 305.483  28
  -3  -4  -3 6339.20 291.751  11
  -3  -4  -3 6282.21 268.079  21
  -3  -4  -3 6743.32 258.953  40
  -3  -4  -3 6103.10 742.138  39
   3   4   3 5920.10 798.094  36
  -3  -4  -3 6762.66 236.068   9
  -3  -4  -3 7005.31 265.067  35
  -3  -4  -3 6310.27 293.372  34
  -3  -4  -3 6758.15 268.853   8
   3   4   3 6883.21 868.241   4
  -3  -4  -3 7075.23 287.963  30
  -3  -4  -4 110.564 43.5593  28
   3   4   4 200.780 157.519   4
  -3  -4  -4 117.106 41.5030  21
  -3  -4  -4-2.18392 24.7652  11
  -3  -4  -4 76.5211 27.2014  40
   3   4   4 36.6269 94.8440  36
  -3  -4  -4 126.330 40.0169  35
  -3  -4  -4 163.904 54.8336  34
  -3  -4  -4 86.7778 27.7895   9
  -3  -4  -5 134.620 44.5413  28
  -3  -4  -5 147.900 46.2134  21
  -3  -4  -5 131.500 48.5507  11
  -3  -4  -5 111.497 34.1515  35
  -3  -4  -5 164.013 53.7029  34
  -3  -4  -5 145.794 33.2701   9
  -3  -4  -6 33.3689 30.6951  28
  -3  -4  -6 18.7154 28.7223  21
  -3  -4  -6 16.4375 31.2281  11
  -3  -4  -6 37.5423 20.9618  35
  -3  -4  -6 12.2305 24.4895  34
  -3  -4  -7 0.25519 26.0086  28
  -3  -4  -7 8.86267 21.6070  21
  -3  -4  -7 26.2533 28.0620  11
  -3  -4  -7 43.7058 21.8359  35
  -3  -4  -7 13.0840 23.8866  34
  -3  -4  -8 1752.13 133.357  28
  -3  -4  -8 1264.29 122.725  11
  -3  -4  -8 1534.28 123.334  21
  -3  -4  -8 1607.07 128.005  34
  -3  -4  -9 940.892 89.3986  28
  -3  -4  -9 822.916 86.6375  11
  -3  -4  -9 957.948 91.5794  21
  -3  -4  -9 1010.13 94.3469  34
  -3  -4 -10 1571.49 101.051  28
  -3  -4 -10 1401.43 99.1803  11
  -3  -4 -10 1639.63 107.148  21
  -3  -4 -10 1507.13 100.962  34
  -3  -5  12 21.2280 16.1042  29
   3   5 -12 33.9808 16.0238  16
  -3  -5  12 58.0742 19.3880  33
  -3  -5  11 174.761 37.5022  29
  -3  -5  11 152.712 32.4167  33
  -3  -5  10 123.154 32.5624  29
  -3  -5  10 151.640 33.6002  33
  -3  -5   9 3154.21 158.903  29
  -3  -5   9 2913.15 168.230  28
  -3  -5   9 2856.08 146.370  40
  -3  -5   9 3081.19 136.794   9
  -3  -5   9 2898.26 140.919  33
  -3  -5   8 1920.70 128.290  29
  -3  -5   8 2062.17 148.057  28
  -3  -5   8 1888.14 128.781  40
  -3  -5   8 1949.78 118.043   9
  -3  -5   8 1954.36 114.410  35
  -3  -5   8 1938.61 116.827  33
  -3  -5   7 2149.58 134.118  29
  -3  -5   7 2148.95 155.553  28
  -3  -5   7 2258.87 146.579  40
  -3  -5   7 2155.71 131.332   9
  -3  -5   7 2216.39 133.398  35
  -3  -5   7 2027.49 117.086  33
  -3  -5   6 324.544 51.8470  29
  -3  -5   6 360.644 68.2080  28
  -3  -5   6 285.340 57.6969  40
  -3  -5   6 336.051 57.4767  35
  -3  -5   6 377.124 71.4430  34
  -3  -5   6 346.882 58.4510   9
  -3  -5   5 2427.42 139.291  29
  -3  -5   5 2409.82 172.236  28
  -3  -5   5 2543.07 167.058  40
  -3  -5   5 2478.07 150.411   9
  -3  -5   5 2704.87 159.864  35
  -3  -5   5 2669.89 182.940  34
  -3  -5   4 41.2576 19.5531  29
  -3  -5   4 82.3744 40.3607  28
  -3  -5   4 32.7688 24.2549  11
  -3  -5   4 40.8326 32.0666  40
  -3  -5   4-30.4884 134.229  39
   3   5  -4-105.842 177.996   5
  -3  -5   4 65.1942 38.4254  35
  -3  -5   4 73.5140 36.0313  34
  -3  -5   4 39.5059 25.5449   9
  -3  -5   3 1994.14 118.543  29
  -3  -5   3 2040.79 160.653  28
  -3  -5   3 2199.78 157.583  11
  -3  -5   3 2119.48 156.300  40
  -3  -5   3 1970.84 449.953  39
   3   5  -3 1905.08 434.645   5
  -3  -5   3 2197.27 146.118   9
  -3  -5   3 2130.02 148.968  35
  -3  -5   3 1932.41 158.547  34
   3   5  -2 173.877 182.479   4
  -3  -5   2 243.779 61.4923  28
  -3  -5   2 291.609 58.8981  11
  -3  -5   2 230.797 55.9942  40
  -3  -5   2 287.275 188.289  39
   3   5  -2 112.647 114.373   5
  -3  -5   2 282.898 59.8337  35
  -3  -5   2 218.360 59.9230  34
  -3  -5   2 217.093 50.4651   9
  -3  -5   1 2672.49 186.026  28
   3   5  -1 2433.33 516.468   4
  -3  -5   1 2780.08 179.953  11
  -3  -5   1 2663.28 171.685  40
  -3  -5   1 2468.61 500.159  39
   3   5  -1 2920.74 527.831   5
  -3  -5   1 2831.11 161.931   9
  -3  -5   1 2673.60 170.270  35
  -3  -5   1 2660.42 185.524  34
  -3  -5   0 3166.15 203.714  28
  -3  -5   0 3294.80 198.941  11
  -3  -5   0 3279.99 186.949  40
  -3  -5   0 3204.51 563.671  39
  -3  -5   0 3376.15 173.706   9
  -3  -5   0 3180.49 184.243  35
  -3  -5   0 3071.89 197.326  34
   3   5   0 3502.19 632.030   4
  -3  -5  -1 18.7557 31.4702  28
  -3  -5  -1 2.40605 30.2991  11
  -3  -5  -1 0.46148 18.5388  40
  -3  -5  -1-16.9537 27.4121  35
  -3  -5  -1 7.78254 34.5704  34
  -3  -5  -1 1.39226 19.0982   9
  -3  -5  -2 2507.31 179.889  28
  -3  -5  -2 2502.79 177.001  11
  -3  -5  -2 2565.43 155.114  40
  -3  -5  -2 2574.58 141.952   9
  -3  -5  -2 2660.69 161.819  35
  -3  -5  -2 2512.83 174.587  34
  -3  -5  -3 279.479 64.9849  28
  -3  -5  -3 269.569 61.7108  11
  -3  -5  -3 238.415 45.1593  40
  -3  -5  -3 248.140 52.6583  35
  -3  -5  -3 261.355 57.0087  34
  -3  -5  -3 243.255 42.6777   9
  -3  -5  -4 30.4112 34.4801  28
  -3  -5  -4 14.7932 25.0895  11
  -3  -5  -4-8.23897 19.8722  35
  -3  -5  -4 4.31598 22.6851  34
  -3  -5  -4 9.21178 13.6548   9
  -3  -5  -5 421.934 70.5802  28
  -3  -5  -5 413.431 69.9413  11
  -3  -5  -5 346.022 52.2860  35
  -3  -5  -5 393.039 64.1248  34
  -3  -5  -6 112.997 38.0184  28
  -3  -5  -6 140.251 43.3252  11
  -3  -5  -6 122.119 29.6461  35
  -3  -5  -6 161.394 40.8840  34
  -3  -5  -7-2.58755 19.2595  28
  -3  -5  -7 23.7465 21.0911  11
  -3  -5  -7 14.6191 14.2673  34
  -3  -5  -8 1836.37 110.583  28
  -3  -5  -8 1667.80 97.9998  34
  -3  -6  10 16.8755 14.3088  29
  -3  -6   9 14.6321 12.4830  29
  -3  -6   9 9.44503 13.2337   9
  -3  -6   8 906.491 73.3518  29
  -3  -6   8 859.821 78.6745  28
  -3  -6   8 886.008 77.4725  40
  -3  -6   8 838.537 67.8223   9
  -3  -6   7 214.945 38.0188  29
  -3  -6   7 191.827 41.9452  28
  -3  -6   7 181.208 38.5291  40
  -3  -6   7 206.986 34.8616  35
  -3  -6   7 149.897 34.1142   9
  -3  -6   6 354.868 47.1119  29
  -3  -6   6 327.661 54.7628  28
  -3  -6   6 368.169 58.8650  40
  -3  -6   6 338.609 47.7382  35
  -3  -6   6 327.584 50.3713   9
  -3  -6   5 1297.89 85.4383  29
  -3  -6   5 1311.93 110.729  28
  -3  -6   5 1411.54 113.056  40
  -3  -6   5 1283.99 99.4860   9
  -3  -6   5 1453.51 102.245  35
  -3  -6   5 1363.13 115.458  34
  -3  -6   4 562.019 74.0308  28
  -3  -6   4 437.458 64.3811  40
  -3  -6   4 524.631 66.1425   9
  -3  -6   4 465.464 62.5976  35
  -3  -6   4 477.122 72.0855  34
  -3  -6   3 486.513 72.2492  28
  -3  -6   3 286.667 54.0756  11
  -3  -6   3 419.778 64.3186  40
  -3  -6   3 407.381 58.7112   9
  -3  -6   3 389.180 57.8501  35
  -3  -6   3 400.095 63.6665  34
  -3  -6   2 745.575 87.3717  28
  -3  -6   2 720.060 84.4578  11
  -3  -6   2 837.015 88.7992  40
  -3  -6   2 837.272 84.2484   9
  -3  -6   2 910.628 89.6870  35
  -3  -6   2 755.359 87.2463  34
  -3  -6   1 273.715 55.5194  28
  -3  -6   1 303.948 57.6057  11
  -3  -6   1 205.161 44.1957  40
  -3  -6   1 230.047 47.3345  35
  -3  -6   1 228.723 48.6984  34
  -3  -6   1 259.603 45.9509   9
  -3  -6   0 204.179 48.4377  28
  -3  -6   0 219.362 49.6878  11
  -3  -6   0 191.029 41.0630  40
  -3  -6   0 265.677 48.9888  35
  -3  -6   0 180.391 41.9352  34
  -3  -6   0 209.598 39.9673   9
  -3  -6  -1 14.0205 20.7339  28
  -3  -6  -1-2.41302 19.4929  11
  -3  -6  -1 10.6537 20.3355  40
  -3  -6  -1 40.1657 24.6706  35
  -3  -6  -1 27.0519 20.8483  34
  -3  -6  -1 50.3913 22.9355   9
  -3  -6  -2 532.369 71.6203  28
  -3  -6  -2 482.418 69.0258  11
  -3  -6  -2 475.638 56.6079  40
  -3  -6  -2 572.567 56.2531   9
  -3  -6  -2 493.096 62.5608  35
  -3  -6  -2 562.217 68.9576  34
  -3  -6  -3 553.772 69.5531  28
  -3  -6  -3 417.530 60.9507  11
  -3  -6  -3 530.975 61.1460  35
  -3  -6  -3 565.378 64.5613  34
  -3  -6  -4 324.367 51.9426  28
  -3  -6  -4 258.071 47.2593  11
  -3  -6  -4 360.175 46.7376  35
  -3  -6  -4 333.448 46.1616  34
  -3  -6  -5 533.089 61.2419  28
  -3  -6  -5 355.962 49.9213  11
  -3  -6  -5 536.855 49.6635  35
  -3  -6  -5 531.202 51.4130  34
  -3  -7   4 410.753 46.9161  28
  -3  -7   4 422.010 46.9121   9
  -3  -7   4 424.717 43.9450  35
  -3  -7   3 611.465 58.6031  28
  -3  -7   3 687.669 59.4293   9
  -3  -7   3 610.572 55.0909  35
  -3  -7   2 21.2722 15.2962  28
  -3  -7   2 6.56980 12.1356  35
  -3  -7   2 18.4795 13.1439   9
   4  -8  -1 3.41963 13.3293  12
  -4   8   1 166.667 29.5990  32
   4  -8   0 126.206 33.3080  12
  -4   8   0 711.755 55.6702  32
  -4   8  -1 1132.58 71.8526   8
  -4   8  -1 1206.49 66.6068  32
  -4   8  -2 2370.27 108.497   8
  -4   8  -2 1987.31 113.138  30
   4  -8   2 1971.58 114.557  12
  -4   8  -2 2536.80 109.234  14
  -4   8  -3 518.782 54.0346  30
  -4   8  -3 439.063 49.9977   8
   4  -8   3 421.632 53.3718  12
  -4   8  -3 507.885 51.7617  14
  -4   8  -4 126.342 27.4117  14
  -4   8  -4 136.031 28.4072  30
  -4   8  -4 71.4576 25.6483   8
   4  -8   4 123.112 30.5338  12
  -4   7   6 5.77385 8.90235  24
  -4   7   6 14.2221 13.8050  32
  -4   7   5 1121.90 78.0648  24
  -4   7   5 1281.25 87.8478  32
  -4   7   4 75.7048 23.0311  30
  -4   7   4 170.872 35.0482  24
  -4   7   4 158.261 37.3746  32
  -4   7   3 11.8786 19.7682  24
  -4   7   3 38.0223 21.9105  32
  -4   7   2 277.524 50.1648  24
  -4   7   2 278.054 48.0011  32
  -4   7   1 89.5718 27.6216   8
   4  -7  -1 14.4882 20.1456  12
  -4   7   1 83.9050 31.4874  24
  -4   7   1 96.3217 27.4578  42
  -4   7   1 87.2730 29.8688  32
  -4   7   0 12.8637 13.0402  14
  -4   7   0 4.57828 16.9711   8
   4  -7   0 16.3031 21.0440  12
  -4   7   0-7.20995 13.9159  42
   4  -7   0 37.5658 30.6353  41
  -4   7   0 6.79958 16.5139  32
  -4   7  -1-9.57854 17.0765  14
  -4   7  -1 4.28692 15.8155   8
   4  -7   1 10.0493 18.0957  12
  -4   7  -1 30.9122 20.3210  32
  -4   7  -1 12.1053 13.5429  42
  -4   7  -2 67.5686 27.6343  14
  -4   7  -2 71.7184 28.3086   8
   4  -7   2 48.0018 26.2402  12
  -4   7  -2 55.2426 24.6608  42
  -4   7  -2 41.0050 20.8712  32
  -4   7  -3-8.03692 22.0851  14
  -4   7  -3 29.8172 27.0034   8
   4  -7   3-0.56671 16.8292  12
  -4   7  -3 37.3575 22.8133  42
  -4   7  -4 162.539 41.6328  14
  -4   7  -4 141.190 38.4806  30
  -4   7  -4 104.173 34.5374   8
   4  -7   4 156.454 40.9827  12
  -4   7  -4 136.436 35.6285  42
   4  -7   4 20.2077 21.7087  41
  -4   7  -5 1.83789 17.4111  14
  -4   7  -5-20.5231 17.3904  30
  -4   7  -5 2.61721 17.8904   8
   4  -7   5 7.26592 14.6976  12
  -4   7  -5-16.7773 21.1751  42
   4  -7   5 55.3525 33.1534  41
  -4   7  -6 74.8289 29.9372  14
  -4   7  -6 100.030 29.9950  30
  -4   7  -6 98.0645 31.3872   8
   4  -7   6 102.732 32.4780  12
  -4   7  -6 107.670 30.1539  42
   4  -7   6 24.7410 27.3851  41
  -4   7  -7 132.182 32.3180  14
  -4   7  -7 141.183 31.0999  30
  -4   7  -7 97.3487 27.2924   8
   4  -7   7 74.5757 26.8091  12
  -4   7  -7 148.292 32.1332  42
  -4   7  -8 15.2462 17.7574  14
  -4   7  -8 11.6161 13.5983  30
  -4   7  -8 11.8786 13.9908   8
   4  -7   8 2.18458 14.6665  12
  -4   7  -8 23.6205 15.0858  42
  -4   6   8 51.1635 18.6168  24
  -4   6   8 41.4354 17.5564  32
  -4   6   7 17.5317 16.0266  24
  -4   6   7 29.4401 18.4490  32
  -4   6   7 2.23423 23.1392  31
  -4   6   6 464.409 61.5838  24
  -4   6   6 508.358 63.8378  32
  -4   6   5-0.34746 13.6743  30
  -4   6   5-13.7272 20.1301  24
  -4   6   5 14.2690 18.4218  32
  -4   6   4-14.2557 22.3049  24
  -4   6   4-12.6577 21.9493  32
  -4   6   3-3.40504 24.2005  24
  -4   6   3 36.2134 28.4580  32
  -4   6   2-4.42915 12.1491  14
  -4   6   2 4.41969 17.7212   8
  -4   6   2 22.2174 20.9518  24
  -4   6   2 23.4229 17.8892  42
  -4   6   2 18.4144 24.3211  32
  -4   6   1 37.2167 27.5667  14
  -4   6   1 31.6660 19.5748   8
  -4   6   1 52.7987 29.4767  24
  -4   6   1 49.1136 25.2427  42
  -4   6   1 43.2825 27.4456  32
  -4   6   0 113.108 35.9151  42
  -4   6   0 182.930 42.9850  14
  -4   6   0 134.224 37.1807   8
   4  -6   0 2.80824 22.2734  12
  -4   6   0 182.364 52.6315  24
  -4   6   0 154.144 41.1654  32
  -4   6  -1 1499.73 120.538   8
  -4   6  -1 1500.91 127.111  24
  -4   6  -1 1498.00 119.206  42
  -4   6  -1 1493.73 113.027  32
  -4   6  -1 1509.14 119.762  14
  -4   6  -2 1203.62 109.148   8
   4  -6   2 1047.36 109.139  12
  -4   6  -2 1194.86 114.018  24
  -4   6  -2 1147.70 107.046  42
  -4   6  -2 1134.61 94.6485  32
  -4   6  -2 1133.32 106.104  14
  -4   6  -3 1588.85 126.704   8
   4  -6   3 1553.22 130.056  12
  -4   6  -3 1645.33 128.095  42
  -4   6  -3 1579.43 104.831  32
  -4   6  -3 1658.32 130.583  14
  -4   6  -4 1039.52 106.531  30
  -4   6  -4 1429.42 122.276   8
   4  -6   4 1314.78 117.487  12
  -4   6  -4 1206.05 110.636  42
  -4   6  -4 1371.00 119.591  14
  -4   6  -5 4215.05 195.663  30
  -4   6  -5 4034.46 202.359   8
   4  -6   5 4130.74 200.789  12
  -4   6  -5 4176.45 196.981  42
  -4   6  -5 4081.14 204.688  14
  -4   6  -6 54.9007 30.7721  14
  -4   6  -6 39.0986 27.7774  30
  -4   6  -6 74.5579 30.6953   8
   4  -6   6 68.8279 33.9859  12
  -4   6  -6 33.0489 18.8686  42
  -4   6  -7 202.622 42.6346  42
  -4   6  -7 192.735 47.8367  14
  -4   6  -7 208.769 42.3480  30
  -4   6  -7 217.417 46.4304   8
   4  -6   7 140.196 41.5992  12
  -4   6  -8 29.8400 25.0197  14
  -4   6  -8 36.6472 18.2194  30
  -4   6  -8 5.49045 18.1098   8
   4  -6   8-6.76617 16.7135  12
  -4   6  -8 5.37616 14.0630  42
  -4   6  -8-4.01256 22.2329  20
  -4   6  -9-8.94697 15.9630  14
  -4   6  -9-2.21499 11.5047  30
  -4   6  -9-2.91412 13.1487   8
   4  -6   9-15.2266 17.3555  12
  -4   6  -9 5.40647 12.1819  42
   4  -6   9-14.8538 23.0172  41
  -4   6 -10 31.3432 15.1037  14
  -4   6 -10-4.74647 15.3814  22
  -4   6 -10 11.2348 13.6029   8
   4  -6  10 1.51449 14.4327  12
  -4   6 -10-9.30373 16.2902  20
  -4   5  10 1203.67 80.0950  24
  -4   5  10 184.610 56.1128  31
  -4   5   9 1147.47 89.6251  24
  -4   5   9 1100.17 78.2283  32
  -4   5   8 207.237 42.4773  24
  -4   5   8 258.782 44.8252  32
  -4   5   8 212.188 62.4938  31
  -4   5   7 598.906 76.1565  24
  -4   5   7 693.662 76.0954  32
  -4   5   6 504.954 73.2513  24
  -4   5   6 545.239 71.6814  32
  -4   5   6 536.952 113.846  31
  -4   5   5 896.684 81.4220  30
  -4   5   5 910.527 102.241  24
  -4   5   5 964.643 98.5152  32
   4  -5  -4 376.310 189.723   3
   4  -5  -4 211.528 248.279   2
  -4   5   4 355.332 66.2147  24
   4  -5  -4 362.351 200.189  37
  -4   5   4 482.023 71.9796  32
  -4   5   4-54.8705 41.6452  31
  -4   5   3-5.14653 13.8119  14
  -4   5   3 1.03481 16.6735   8
   4  -5  -3-15.8430 89.6143   2
  -4   5   3-0.76178 25.5256  24
  -4   5   3 14.4362 21.1860  42
   4  -5  -3 102.741 122.107  37
  -4   5   3 13.7882 20.9475  32
   4  -5  -3 12.8521 79.9135   3
  -4   5   2 810.325 82.7094   8
   4  -5  -2 153.695 214.506   2
  -4   5   2 981.515 108.747  24
  -4   5   2 614.332 256.317   7
  -4   5   2 1006.22 93.1788  42
   4  -5  -2 1183.43 342.697  38
   4  -5  -2 601.725 262.593  37
  -4   5   2 953.953 100.385  32
   4  -5  -2 869.201 312.555   3
  -4   5   2 882.874 85.7889  14
  -4   5   1 12.7413 18.3522  14
  -4   5   1 3.97897 17.7812   8
  -4   5   1 75.1328 113.605   7
  -4   5   1 31.7998 30.9134  24
  -4   5   1 4.36531 18.6533  42
   4  -5  -1 108.433 147.636  38
   4  -5  -1 79.3762 106.103  37
   4  -5  -1-88.1914 102.306   3
  -4   5   1 44.4651 27.4442  32
   4  -5  -1 98.3479 147.279   2
  -4   5   0 3652.40 187.745   8
   4  -5   0 2025.74 157.938  12
  -4   5   0 2702.39 544.332   7
  -4   5   0 3753.59 205.443  24
  -4   5   0 3873.32 193.020  42
   4  -5   0 3405.69 592.812   3
   4  -5   0 3683.65 588.689  38
   4  -5   0 3118.00 550.792  37
   4  -5   0 1223.49 400.570   2
  -4   5   0 3569.71 185.912  32
  -4   5   0 3606.44 186.536  14
  -4   5  -1 147.653 44.4999  14
  -4   5  -1 168.257 47.0594   8
   4  -5   1 119.349 41.0506  12
  -4   5  -1 141.055 44.1369  24
  -4   5  -1 30.3048 102.022   7
  -4   5  -1 207.735 51.5318  42
   4  -5   1-170.178 93.8149  38
   4  -5   1 33.4475 113.027   2
   4  -5   1 136.448 140.840   3
  -4   5  -1 126.992 39.4715  32
  -4   5  -2 35.4788 27.1838  14
  -4   5  -2 75.2818 33.8093   8
   4  -5   2 100.689 37.1341  12
  -4   5  -2 87.1841 42.7058  24
  -4   5  -2 46.8475 101.856   7
  -4   5  -2 68.1562 30.9917  42
   4  -5   2-9.28875 122.720  38
   4  -5   2 10.4070 112.242  18
   4  -5   2 220.466 169.173   2
   4  -5   2 70.3415 116.037   3
  -4   5  -2 82.7813 30.0401  32
  -4   5  -3 480.956 81.4846  30
  -4   5  -3 661.574 86.3257   8
   4  -5   3 715.108 88.1189  12
  -4   5  -3 617.957 81.0276  24
  -4   5  -3-168.247 146.748   7
  -4   5  -3 731.533 88.9781  42
   4  -5   3 486.176 224.989  38
   4  -5   3 23.1013 153.964  18
   4  -5   3 571.213 253.137   2
  -4   5  -3 615.225 71.5112  32
  -4   5  -3 649.492 86.0631  14
  -4   5  -4 60.2197 40.5979  14
  -4   5  -4 22.7133 25.5337  30
  -4   5  -4 45.3751 31.3838   8
   4  -5   4 38.7586 26.1231  12
  -4   5  -4-128.924 130.726   7
  -4   5  -4 59.5365 29.4740  42
   4  -5   4-201.454 146.210  38
   4  -5   4-1.27447 184.219  18
   4  -5   4-188.175 143.197   2
  -4   5  -4 29.8774 19.3945  32
  -4   5  -5 305.096 61.3309  14
  -4   5  -5 350.805 63.0278  30
  -4   5  -5 202.408 48.8717   8
   4  -5   5 320.845 61.4345  12
  -4   5  -5 263.056 220.202   7
  -4   5  -5 332.874 61.4013  42
   4  -5   5 114.112 66.1624  38
   4  -5   5 65.6000 188.332   2
   4  -5   5 265.067 279.190  18
  -4   5  -6 257.438 56.3016  14
  -4   5  -6 258.589 52.5686  30
  -4   5  -6 236.600 54.0065   8
   4  -5   6 183.573 46.7488  12
  -4   5  -6 260.441 52.1586  42
  -4   5  -7 14.2113 20.5116  14
  -4   5  -7 75.8203 30.5088  30
  -4   5  -7 30.1674 26.2777   8
   4  -5   7 37.5669 28.9600  12
  -4   5  -7 54.8375 29.2410  42
  -4   5  -8 200.992 47.5812  14
  -4   5  -8 304.020 51.3572  30
  -4   5  -8 261.919 53.8485   8
   4  -5   8 156.613 40.5814  12
  -4   5  -8 336.127 53.4891  42
  -4   5  -9-4.21742 17.1369  14
  -4   5  -9-3.77460 13.1667  30
  -4   5  -9 5.74037 18.4297   8
   4  -5   9-4.93121 16.0156  12
  -4   5  -9-3.52421 13.9065  42
  -4   5  -9 2.88487 20.2729  22
  -4   5 -10 89.7019 29.5105   8
  -4   5 -10 318.834 42.4909  42
  -4   5 -10 262.765 54.3217  22
  -4   5 -10 60.0038 38.7090  20
  -4   5 -10 318.629 46.5341  14
  -4   5 -11 6424.65 214.653  22
  -4   5 -11 5367.63 158.416  14
  -4   5 -12 671.208 65.1093  22
  -4   5 -12-5.40974 14.2151  20
  -4   4  11 526.982 59.1121  24
  -4   4  11 140.162 56.5915  31
  -4   4  10 99.4237 32.1800  24
  -4   4  10 67.4810 21.5109  32
  -4   4   9 2561.20 153.568  24
  -4   4   9 2698.49 135.062  32
  -4   4   8 667.071 87.3239  24
  -4   4   8 714.086 77.9114  32
  -4   4   7 3862.00 206.712  24
  -4   4   7 3792.67 163.445  33
  -4   4   7 3809.49 183.699  32
   4  -4  -6 969.176 301.708   3
  -4   4   6 1365.44 126.315  24
   4  -4  -6 1039.65 342.160   2
   4  -4  -6 1481.13 414.686  37
  -4   4   6 1401.64 107.168  33
  -4   4   6 1441.74 118.647  32
  -4   4   5-3.95428 15.5641  30
   4  -4  -5-27.5379 128.619   3
   4  -4  -5-134.214 141.275   2
  -4   4   5 7.99904 25.6738  24
   4  -4  -5-72.2765 137.462  37
  -4   4   5 8.13528 19.8188  33
  -4   4   5-28.4038 28.7544  32
   4  -4  -4 400.750 151.932   3
  -4   4   4 379.715 58.8742  30
   4  -4  -4 0.80497 80.1154   2
  -4   4   4 339.546 65.6569  24
  -4   4   4 433.679 58.1077  42
   4  -4  -4 376.926 199.505  37
  -4   4   4 328.619 57.1991  33
  -4   4   4 340.485 62.6139  32
  -4   4   3 1967.81 127.908   8
  -4   4   3 1634.71 128.586  30
  -4   4   3 2042.60 154.700  24
  -4   4   3 2202.48 444.833   7
  -4   4   3 2013.26 130.002  42
   4  -4  -3 1844.99 436.281  37
  -4   4   3 2123.33 142.680  33
  -4   4   3 1918.61 141.765  32
   4  -4  -3 1074.83 352.398   2
  -4   4   3 2091.27 131.037  14
   4  -4  -3 1915.50 428.846   3
  -4   4   2 1689.52 123.386   8
  -4   4   2 1646.09 136.615  24
  -4   4   2 1624.61 392.316   7
  -4   4   2 1807.24 126.719  42
   4  -4  -2 1299.52 361.689  37
  -4   4   2 1653.84 129.015  33
  -4   4   2 1583.50 128.297  32
   4  -4  -2 1531.59 387.161   3
  -4   4   2 1678.14 121.015  14
  -4   4   1 584.977 75.5840   8
  -4   4   1 697.787 89.8178  24
  -4   4   1 683.333 272.380   7
  -4   4   1 625.269 76.3065  42
   4  -4  -1 648.521 256.875  37
   4  -4  -1 500.351 276.552   2
  -4   4   1 616.849 80.7838  33
   4  -4  -1 642.219 260.104   3
  -4   4   1 578.045 78.8896  32
  -4   4   1 655.931 97.6810  31
  -4   4   1 613.167 76.0403  14
  -4   4   0 609.786 78.0236   8
  -4   4   0 616.807 83.2418  24
  -4   4   0 550.290 243.036   7
  -4   4   0 803.383 89.0818  42
   4  -4   0 546.267 242.477  38
   4  -4   0 336.688 222.978   2
   4  -4   0 688.239 236.198  37
  -4   4   0 711.022 87.9948  33
   4  -4   0 756.861 274.959   3
  -4   4   0 691.426 85.1324  32
  -4   4   0 621.465 79.6858  14
  -4   4  -1 1990.40 149.043  30
  -4   4  -1 2071.03 146.943   8
  -4   4  -1 2148.54 150.643  24
  -4   4  -1 2055.21 456.347   7
  -4   4  -1 2180.44 147.800  42
   4  -4   1 1711.85 441.000   2
   4  -4   1 1976.05 448.469  38
   4  -4   1 2094.56 460.241   3
  -4   4  -1 2217.65 145.329  32
  -4   4  -1 2138.05 148.938  14
  -4   4  -2 495.912 75.6731  30
  -4   4  -2 651.216 84.2072   8
  -4   4  -2 580.959 79.3173  24
  -4   4  -2 506.560 240.206   7
  -4   4  -2 589.506 78.9236  42
   4  -4   2 563.977 253.938   2
   4  -4   2 408.366 203.698  38
   4  -4   2 80.7766 159.131  18
  -4   4  -2 518.897 70.6996  32
  -4   4  -2 533.921 78.2663  14
   4  -4   3 503.265 306.167  18
  -4   4  -3 1429.94 123.808  30
  -4   4  -3 1456.48 125.689   8
  -4   4  -3 1339.31 115.082  24
  -4   4  -3 1618.26 425.648   7
  -4   4  -3 1380.78 120.062  42
   4  -4   3 1081.62 345.397   2
   4  -4   3 1243.34 354.843  38
  -4   4  -3 1318.58 106.251  32
  -4   4  -3 1343.92 123.873  14
  -4   4  -4 13248.4 369.910  30
  -4   4  -4 12800.9 374.280   8
  -4   4  -4 13168.7 1201.65   7
  -4   4  -4 12309.3 336.810  24
  -4   4  -4 13554.4 373.629  42
   4  -4   4 12457.6 1124.21   2
   4  -4   4 11956.8 1098.54  38
   4  -4   4 11669.0 1356.38  18
  -4   4  -4 13010.0 319.762  32
  -4   4  -4 13017.8 382.304  14
  -4   4  -5 9340.49 308.813  30
  -4   4  -5 9279.65 317.818   8
  -4   4  -5 9523.02 1012.25   7
  -4   4  -5 9484.80 309.839  42
   4  -4   5 8198.06 898.133   2
   4  -4   5 8451.13 925.702  38
  -4   4  -5 9022.54 317.824  14
  -4   4  -6 113.454 46.6227  14
  -4   4  -6 147.487 43.7382  30
  -4   4  -6 125.023 40.4763   8
  -4   4  -6 27.4112 89.2124   7
  -4   4  -6 147.634 41.4865  42
   4  -4   6 75.1587 106.060   2
   4  -4   6-32.5049 168.096  38
  -4   4  -7 102.042 32.0304  14
  -4   4  -7 104.531 35.1783  30
  -4   4  -7 74.5830 34.6077   8
  -4   4  -7 78.1190 141.192   7
   4  -4   7-24.6923 103.336   2
  -4   4  -7-17.7665 29.5726  20
   4  -4   7-29.3197 121.142  38
  -4   4  -7 135.246 40.8648  42
  -4   4  -8 448.863 63.0245  30
  -4   4  -8 387.771 63.9290  14
  -4   4  -8 343.551 60.8964   8
  -4   4  -8 447.046 61.3913  42
  -4   4  -9 72.1517 31.1338  14
  -4   4  -9 61.9634 22.5246  30
  -4   4  -9 35.4730 27.4384   8
  -4   4  -9 96.3661 28.4415  42
  -4   4  -9 31.1125 32.1024  22
  -4   4 -10 553.369 57.8984  30
  -4   4 -10 640.988 82.5071  22
  -4   4 -10 648.651 68.6860  14
  -4   4 -11 636.668 74.2111  22
  -4   4 -11 461.237 49.0658  14
  -4   4 -12 61.5953 28.7422  22
  -4   4 -12 0.05981 18.0613  20
  -4   3  12 110.868 32.9043  27
  -4   3  12 138.228 33.5090  24
  -4   3  11 2463.90 149.299  27
  -4   3  11 2388.17 141.928  24
  -4   3  10 8461.27 297.683  27
  -4   3  10 8458.80 287.529  24
  -4   3  10 8346.17 222.587  32
  -4   3   9 395.109 69.9387  27
  -4   3   9 417.190 68.5035  24
  -4   3   9 388.406 55.1528  33
  -4   3   9 351.104 52.1900  32
  -4   3   8 473.251 77.4504  27
  -4   3   8 476.930 76.2276  24
   4  -3  -8 201.533 154.203  37
  -4   3   8 431.356 61.4085  33
  -4   3   8 427.731 61.0662  32
  -4   3   8 395.929 96.1325  31
  -4   3   7 248.660 51.2535  29
  -4   3   7 206.748 50.7346  27
  -4   3   7 277.210 60.6549  24
   4  -3  -7 321.210 220.004  37
  -4   3   7 257.131 51.9024  33
  -4   3   7 243.362 48.3696  32
  -4   3   6 733.633 87.2495  29
   4  -3  -6 462.755 202.954   3
  -4   3   6 625.792 89.3799  27
  -4   3   6 813.055 98.7755  24
   4  -3  -6 806.637 291.960  37
  -4   3   6 689.134 83.3275  33
  -4   3   6 707.786 85.0483  32
  -4   3   5 2832.37 142.821  30
  -4   3   5 2843.37 172.269  29
   4  -3  -5 1853.48 438.646   2
  -4   3   5 2979.57 186.929  27
  -4   3   5 3132.25 189.504  24
   4  -3  -5 3006.32 499.137   3
   4  -3  -5 2208.01 481.236  37
  -4   3   5 3088.28 176.299  33
  -4   3   5 3004.06 172.635  32
  -4   3   5 3263.18 152.256  42
   4  -3  -4 171.296 141.338   3
  -4   3   4 183.536 39.5855  14
  -4   3   4 197.683 41.8489  30
  -4   3   4 144.661 47.0578  29
  -4   3   4 187.556 40.6400   8
  -4   3   4 197.310 51.1974  24
  -4   3   4 160.990 37.0995  42
   4  -3  -4 7.04452 84.6863  37
  -4   3   4 219.987 51.8669  33
   4  -3  -4 77.0577 121.842   2
  -4   3   4 127.952 40.5034  32
  -4   3   4 35.8347 92.5005  31
  -4   3   3 575.006 73.4967   8
  -4   3   3 601.001 71.6966  30
  -4   3   3 601.726 80.4818  29
  -4   3   3 644.978 87.7565  24
  -4   3   3 904.976 313.679   7
  -4   3   3 665.719 75.3596  42
   4  -3  -3 407.003 198.857  37
   4  -3  -3 679.251 277.115   2
  -4   3   3 576.966 78.3931  33
  -4   3   3 634.652 81.0735  32
  -4   3   3 618.354 73.1752  14
   4  -3  -3 755.950 256.554   3
  -4   3   2 169.617 42.4173  14
  -4   3   2 221.524 46.0738  30
  -4   3   2 161.712 45.7156  29
  -4   3   2 137.882 39.2473   8
  -4   3   2 425.105 217.865   7
  -4   3   2 167.615 47.4462  24
  -4   3   2 179.812 38.9649  42
   4  -3  -2 310.599 190.054   2
   4  -3  -2 205.268 150.282  37
  -4   3   2 156.069 46.3838  33
   4  -3  -2 186.782 135.163   3
  -4   3   2 192.853 46.8277  32
  -4   3   1 679.137 80.3054   8
  -4   3   1 671.819 80.6341  30
  -4   3   1 606.337 80.8133  24
  -4   3   1 525.620 206.124   7
  -4   3   1 714.676 81.3706  42
   4  -3  -1 684.753 265.483   2
   4  -3  -1 546.877 223.992  37
  -4   3   1 590.200 78.6323  33
   4  -3  -1 763.722 268.198   3
  -4   3   1 614.810 79.2762  32
  -4   3   1 733.996 84.4445  14
  -4   3   1 106.589 66.4878  31
  -4   3   0 2841.65 166.680   8
  -4   3   0 2871.13 165.101  30
  -4   3   0 2763.65 517.943   7
  -4   3   0 2796.24 165.533  24
  -4   3   0 2805.41 162.525  42
   4  -3   0 2805.33 483.370   3
   4  -3   0 2846.69 521.766   2
   4  -3   0 2654.53 448.894  37
  -4   3   0 2767.95 170.614  33
  -4   3   0 2881.44 164.706  32
  -4   3   0 2838.42 167.488  14
  -4   3  -1 1322.89 115.328   8
  -4   3  -1 1418.64 117.963  30
  -4   3  -1 1321.08 112.122  24
  -4   3  -1 1675.29 409.604   7
  -4   3  -1 1335.19 115.538  42
   4  -3   1 1142.86 318.517   2
   4  -3   1 1291.41 381.202  38
   4  -3   1 305.075 224.812  18
  -4   3  -1 1271.97 116.120  33
  -4   3  -1 1300.74 109.873  32
  -4   3  -1 0.65017 29.3323  31
  -4   3  -1 1292.97 114.460  14
  -4   3  -2 542.582 75.8829   8
  -4   3  -2 566.040 78.2595  30
  -4   3  -2 573.700 74.6028  24
  -4   3  -2 689.498 274.432   7
   4  -3   2 490.819 221.462   2
  -4   3  -2 565.981 75.1644  42
   4  -3   2 417.772 210.988  38
   4  -3   2 21.8033 242.587  18
  -4   3  -2 517.804 76.9593  33
  -4   3  -2 540.175 70.6936  32
  -4   3  -2 600.812 82.9283  14
  -4   3  -3 252.022 57.7743  14
  -4   3  -3 130.239 40.7380  30
  -4   3  -3 145.400 42.9562   8
   4  -3   3 181.554 144.758   2
  -4   3  -3 124.436 124.408   7
  -4   3  -3 165.929 40.0696  24
  -4   3  -3 181.725 46.0952  42
   4  -3   3 210.492 190.235  38
   4  -3   3 45.3406 129.139  18
  -4   3  -3 148.175 37.9963  32
  -4   3  -4 50.0218 36.9990  14
  -4   3  -4 27.5497 23.2196  30
  -4   3  -4 67.7046 34.4721   8
   4  -3   4-33.1644 135.106   2
  -4   3  -4 51.1081 98.2716   7
  -4   3  -4 89.0172 30.8636  24
  -4   3  -4 42.2580 27.0942  42
   4  -3   4 80.2924 74.5495  38
   4  -3   4 137.389 201.019  18
  -4   3  -4 76.2651 25.5582  32
  -4   3  -5 971.980 102.505   8
  -4   3  -5 1037.01 103.874  30
   4  -3   5 749.752 268.157   2
  -4   3  -5 1022.19 333.439   7
  -4   3  -5 1098.36 104.612  42
   4  -3   5 1141.65 358.678  38
   4  -3   5 1502.30 464.911  18
  -4   3  -5 1103.25 92.3950  32
  -4   3  -5 990.336 107.402  14
  -4   3  -6 107.299 41.4171  14
  -4   3  -6 76.5396 36.6919  30
  -4   3  -6 97.1105 36.5519   8
   4  -3   6 98.9700 133.187   2
  -4   3  -6 160.183 163.684   7
  -4   3  -6 111.756 36.8370  42
  -4   3  -6-23.0670 30.6288  20
   4  -3   6 67.3437 134.528  38
   4  -3   6 143.196 192.810  18
  -4   3  -7 663.929 88.1887   8
  -4   3  -7 744.453 85.9694  30
   4  -3   7 682.153 259.047   2
  -4   3  -7 858.586 319.691   7
  -4   3  -7 791.357 84.9259  42
  -4   3  -7 336.624 70.8903  22
   4  -3   7 775.467 284.610  38
   4  -3   7 641.398 326.421  18
  -4   3  -7 725.088 89.9916  14
  -4   3  -8 16.7770 23.7794  14
  -4   3  -8-14.2958 24.5234  30
  -4   3  -8 25.2150 23.7016   8
  -4   3  -8 11.4184 19.7391  42
  -4   3  -8 2.60454 21.4050  22
  -4   3  -8-4.83217 27.7057  20
   4  -3   8 98.8596 119.563  38
  -4   3  -9 372.178 57.4257  14
  -4   3  -9 325.605 53.0916  30
  -4   3  -9 239.990 48.9207   8
  -4   3  -9 337.025 50.6706  42
  -4   3  -9 322.674 62.0592  22
  -4   3 -10 2258.85 124.132  30
  -4   3 -10 2425.04 153.513  22
  -4   3 -10 2132.19 122.834  14
  -4   3 -11 652.926 77.3121  22
  -4   3 -11-13.4540 25.9206  20
  -4   3 -12 23.7186 23.7542  22
  -4   3 -12-3.20355 16.9465  20
  -4   3 -12 10.0694 16.5938  19
  -4   3 -13 8.69594 14.3638  22
  -4   3 -13 3.62808 14.3319  20
  -4   3 -13 0.10453 15.3962  11
  -4   3 -13-1.20550 12.2549  19
  -4   2  13 643.821 67.7822  27
  -4   2  13 595.392 63.7941  24
  -4   2  12 2990.83 159.238  27
  -4   2  12 2813.80 151.977  24
  -4   2  11 311.098 57.6697  27
  -4   2  11 351.105 61.5111  24
  -4   2  11 304.779 46.5902  33
  -4   2  10 2711.27 145.091  29
  -4   2  10 2881.39 175.849  27
  -4   2  10 2724.99 171.764  24
  -4   2  10 2739.97 149.995  33
  -4   2  10 2854.70 131.848  32
  -4   2   9 4094.87 190.236  29
  -4   2   9 3890.20 207.697  27
  -4   2   9 4051.71 215.446  24
  -4   2   9 4030.04 192.825  33
  -4   2   9 3835.64 169.260  32
  -4   2   8 167.925 44.5256  29
  -4   2   8 169.992 49.2275  27
  -4   2   8 199.503 52.1053  24
   4  -2  -8 235.959 227.158  37
  -4   2   8 136.127 40.0728  33
  -4   2   8 166.471 40.2798  32
  -4   2   7 7615.19 277.863  29
  -4   2   7 7815.42 294.217  27
  -4   2   7 7448.91 293.341  24
   4  -2  -7 6602.48 852.889  37
  -4   2   7 7484.37 280.827  33
  -4   2   7 7677.79 262.612  32
  -4   2   6 390.657 65.9404  29
  -4   2   6 413.471 69.3652  27
  -4   2   6 370.295 67.3914  24
   4  -2  -6 444.622 248.884  37
  -4   2   6 378.926 65.9757  33
  -4   2   6 384.277 61.7379  32
  -4   2   6 1.27534 36.2388  31
  -4   2   5 204.833 44.1070  14
  -4   2   5 175.618 40.4299   8
  -4   2   5 95.8405 38.2331  29
  -4   2   5 185.145 46.2286  27
  -4   2   5 167.402 44.8859  24
  -4   2   5 180.362 37.6707  42
   4  -2  -5 256.207 171.476  37
  -4   2   5 115.850 40.8032  33
  -4   2   5 202.870 48.4241  32
  -4   2   4 4094.57 177.179  30
  -4   2   4 4068.56 201.938  29
  -4   2   4 3924.33 198.712  27
  -4   2   4 5047.48 645.876   7
  -4   2   4 4146.64 209.133  24
  -4   2   4 4255.42 185.830  42
   4  -2  -4 3447.68 549.130   2
   4  -2  -4 3773.36 601.636  37
  -4   2   4 3954.46 205.189  33
  -4   2   4 4112.15 197.934  32
  -4   2   4 4235.37 187.105  14
  -4   2   4 4307.36 188.670   8
  -4   2   3 21.0464 21.5573  14
  -4   2   3 33.4414 25.4465  30
  -4   2   3 9.83322 22.0867  29
  -4   2   3 20.9610 15.1271   8
  -4   2   3-100.500 141.252   7
  -4   2   3-8.20530 20.8637  24
   4  -2  -3 36.6151 72.1689   2
   4  -2  -3 64.5590 144.957  37
  -4   2   3-3.68056 16.5361  42
  -4   2   3 16.4107 23.8568  33
  -4   2   3 15.2382 19.9956  32
  -4   2   2 298.297 55.3902  14
  -4   2   2 345.969 58.1220  30
  -4   2   2 242.653 51.9693  29
  -4   2   2 349.031 58.3584   8
  -4   2   2 341.392 207.456   7
  -4   2   2 285.018 53.8359  24
  -4   2   2 336.173 55.7012  42
   4  -2  -2 406.777 185.258   2
   4  -2  -2 298.846 156.786  37
  -4   2   2 289.086 64.5664  35
  -4   2   2 271.429 56.9194  33
   4  -2  -2 233.043 134.358   3
  -4   2   2 307.241 58.0514  32
  -4   2   2-0.38441 41.2537  31
  -4   2   1 18.8725 24.1268  14
  -4   2   1-29.1516 24.6668  30
  -4   2   1-1.70688 21.3651  29
  -4   2   1-8.21109 23.4851   8
  -4   2   1 60.5224 76.2271   7
  -4   2   1-0.20959 22.6442  24
   4  -2  -1-25.4282 68.2370   2
  -4   2   1 4.68359 22.1760  42
   4  -2  -1-36.0647 94.0962  37
  -4   2   1 1.21059 30.5134  35
  -4   2   1-4.60169 20.5926  33
   4  -2  -1 31.6106 77.9864   3
  -4   2   1 20.1989 19.4215  32
  -4   2   1 67.4127 54.0906  31
  -4   2   0 7932.33 274.194   8
  -4   2   0 8003.66 269.952  30
  -4   2   0 7776.47 267.138  29
  -4   2   0 9949.66 991.239   7
  -4   2   0 7553.35 258.119  24
  -4   2   0 7960.64 268.951  42
   4  -2   0 7553.81 722.143   3
   4  -2   0 8065.41 752.845  37
   4  -2   0 246.468 192.153  18
  -4   2   0 7472.24 259.038  35
   4  -2   0 7420.36 822.147   2
  -4   2   0 7707.36 282.375  33
  -4   2   0 7573.64 263.806  32
  -4   2   0 7666.40 271.740  14
  -4   2  -1 41.2553 23.5836  14
  -4   2  -1 70.2875 28.6052  30
  -4   2  -1 48.1803 22.4917  29
  -4   2  -1 46.1830 24.1497   8
   4  -2   1 32.5760 65.3585   2
  -4   2  -1 151.265 124.774   7
  -4   2  -1 73.9808 29.2275  24
  -4   2  -1 135.741 42.5714  42
   4  -2   1 101.104 127.951  38
   4  -2   1 36.4355 136.975  18
  -4   2  -1 74.7208 34.4569  35
  -4   2  -1 60.5085 27.7223  33
  -4   2  -1 83.9730 31.1708  32
  -4   2  -1 5.99836 31.0941  31
  -4   2  -2 4967.36 222.891   8
  -4   2  -2 4919.32 218.347  30
  -4   2  -2 6028.45 800.159   7
  -4   2  -2 4978.38 198.913  24
  -4   2  -2 5331.69 225.424  42
   4  -2   2 4108.86 610.987   2
   4  -2   2 4626.27 678.926  38
   4  -2   2 4479.73 765.945  18
  -4   2  -2 4435.42 190.270  35
  -4   2  -2 4986.99 225.088  33
  -4   2  -2 5097.14 213.774  32
  -4   2  -2 5012.99 227.404  14
  -4   2  -3 6339.93 254.587   8
  -4   2  -3 6273.10 249.394  30
  -4   2  -3 7691.63 899.872   7
   4  -2   3 4808.23 653.281   2
  -4   2  -3 6618.83 252.948  42
   4  -2   3 6013.44 785.020  38
   4  -2   3 8592.93 1021.80  18
  -4   2  -3 6378.89 219.521  35
  -4   2  -3 6639.64 258.273  33
  -4   2  -3 6365.10 236.905  32
  -4   2  -3 31.5951 40.2917  31
  -4   2  -3 6246.73 255.060  14
  -4   2  -4 16929.4 419.182   8
  -4   2  -4 17069.4 415.816  30
  -4   2  -4 19813.5 1464.40   7
   4  -2   4 11372.7 1046.97   2
  -4   2  -4 17233.5 405.295  42
   4  -2   4 16107.7 1282.45  38
   4  -2   4 24058.0 1720.49  18
  -4   2  -4 17203.7 382.134  32
  -4   2  -4 16618.3 417.438  14
  -4   2  -5 3996.79 205.411   8
  -4   2  -5 4300.47 209.560  30
  -4   2  -5 4315.94 201.770  42
  -4   2  -5 5047.79 780.972   7
  -4   2  -5 1663.28 126.384  22
   4  -2   5 3262.02 584.522  38
   4  -2   5 5958.28 885.011  18
  -4   2  -5 4235.17 184.764  32
  -4   2  -5 4156.18 209.110  14
  -4   2  -6 268.963 56.2700  14
  -4   2  -6 286.677 55.6154  30
  -4   2  -6 275.150 57.2846   8
  -4   2  -6 429.742 237.304   7
  -4   2  -6 164.933 41.2972  22
  -4   2  -6 281.740 51.9075  42
   4  -2   6 191.520 144.561  38
   4  -2   6 357.833 249.005  18
  -4   2  -7 395.213 64.9601  14
  -4   2  -7 530.203 74.4320  30
  -4   2  -7 376.190 63.4758   8
  -4   2  -7 580.062 244.667   7
  -4   2  -7 467.918 64.7421  42
  -4   2  -7 385.832 65.0023  22
  -4   2  -7 7.88333 31.2575  20
   4  -2   7 389.660 208.862  38
  -4   2  -8 298.658 53.9057  14
  -4   2  -8 268.008 52.0809  30
  -4   2  -8 224.837 46.5206   8
  -4   2  -8 478.301 277.513   7
  -4   2  -8 314.309 58.0811  22
  -4   2  -8 240.947 46.5080  42
  -4   2  -8 26.0099 31.8478  20
   4  -2   8 131.604 113.843  38
  -4   2  -8 231.475 46.2500  34
  -4   2  -9 46.5161 22.8986  14
  -4   2  -9 24.2379 23.2512  30
  -4   2  -9 27.5677 19.7971   8
  -4   2  -9 3.09851 18.3030  22
  -4   2  -9 50.4840 21.5036  42
  -4   2  -9 16.6862 18.1483  34
  -4   2 -10 2180.39 125.317  30
  -4   2 -10 1948.14 139.780  22
  -4   2 -10 1889.01 127.149  19
  -4   2 -10 1972.99 127.857  34
  -4   2 -10 2122.29 118.497  14
  -4   2 -11-16.8809 22.1439  22
  -4   2 -11 13.0815 25.9379  20
  -4   2 -11 24.8690 19.8277  19
  -4   2 -12 201.145 40.7984  22
  -4   2 -12 22.2171 21.9916  20
  -4   2 -12 83.9067 43.3784  11
  -4   2 -12 261.786 43.4655  19
  -4   2 -13 37.2579 25.1504  11
  -4   2 -13 149.719 30.0734  19
  -4   1  13 241.006 42.9899  27
  -4   1  13 248.964 44.7452  24
  -4   1  13 222.338 34.3414  33
  -4   1  12 489.643 53.0656  29
  -4   1  12 506.084 66.7310  27
  -4   1  12 481.882 66.4885  24
  -4   1  12 542.424 63.8198  33
  -4   1  11 3916.01 169.344  29
  -4   1  11 3795.29 190.356  27
  -4   1  11 4050.35 201.856  24
  -4   1  11 3781.36 180.207  33
  -4   1  10 4554.68 197.790  29
  -4   1  10 4414.29 211.252  27
  -4   1  10 4550.31 222.860  24
  -4   1  10 4371.49 206.215  33
  -4   1   9 455.457 67.3471  29
  -4   1   9 419.769 66.8920  27
  -4   1   9 392.601 68.2366  24
   4  -1  -9 339.881 198.280  37
  -4   1   9 414.645 67.3414  33
  -4   1   9 391.414 54.9670  32
  -4   1   8 5660.19 237.884  29
  -4   1   8 5703.42 243.892  27
  -4   1   8 5806.68 254.958  24
   4  -1  -8 5505.54 771.174  37
  -4   1   8 5747.44 251.330  33
  -4   1   8 5725.99 215.267  32
  -4   1   7 247.027 53.0313  29
  -4   1   7 182.400 45.0472  27
  -4   1   7 266.422 58.6171  24
   4  -1  -7 242.518 189.162  37
  -4   1   7 211.996 54.2818  33
  -4   1   7 250.126 50.0483  32
  -4   1   6 677.360 85.1873  29
  -4   1   6 676.684 80.9954  27
  -4   1   6 664.437 85.9950  24
  -4   1   6 716.780 73.3802  42
   4  -1  -6 648.167 267.062  37
  -4   1   6 785.348 101.259  35
  -4   1   6 650.196 87.1502  33
  -4   1   6 643.346 78.2055  32
  -4   1   5 209.783 47.2894  14
  -4   1   5 267.339 52.6307   8
  -4   1   5 290.426 56.4295  29
  -4   1   5 275.493 51.1971  27
  -4   1   5 326.903 140.602   7
  -4   1   5 261.159 53.9262  24
  -4   1   5 312.315 51.6693  42
   4  -1  -5 251.167 164.275  37
  -4   1   5 281.230 62.5589  35
  -4   1   5 372.711 61.4737   9
  -4   1   5 293.651 61.9314  33
  -4   1   5 283.744 54.6512  32
  -4   1   4 734.895 75.4709  30
  -4   1   4 776.507 87.5380  29
  -4   1   4 735.736 81.3466  28
  -4   1   4 722.726 80.9035  27
  -4   1   4 690.248 255.550   7
  -4   1   4 677.684 81.9943  24
  -4   1   4 764.355 81.5326  42
   4  -1  -4 651.732 266.285   2
  -4   1   4 726.416 79.2043   9
   4  -1  -4 663.557 248.041  37
  -4   1   4 692.504 88.7795  35
  -4   1   4 692.037 86.5609  33
  -4   1   4 668.923 81.4642  32
  -4   1   4 759.658 83.6171  14
  -4   1   4 726.159 79.7333   8
  -4   1   4 2.32007 35.2387  31
  -4   1   3 1919.36 123.659  30
  -4   1   3 2156.00 144.386  29
  -4   1   3 2597.18 480.464   7
  -4   1   3 1932.15 134.066  24
  -4   1   3 2129.61 136.171  42
   4  -1  -3 1827.29 379.310   2
  -4   1   3 1919.83 129.038   9
   4  -1  -3 1824.96 392.179  37
  -4   1   3 2070.10 144.377  35
  -4   1   3 2028.48 146.421  33
  -4   1   3 2094.73 141.539  32
  -4   1   3 1999.31 134.424  14
  -4   1   3 2149.99 139.306   8
  -4   1   2 131.148 36.0867  14
  -4   1   2 103.016 32.8686  30
  -4   1   2 105.319 34.7911   8
  -4   1   2 74.4274 29.1821  29
  -4   1   2-32.6238 88.3289   7
   4  -1  -2-8.60739 67.0456   2
  -4   1   2 111.629 38.4688  24
  -4   1   2 47.8406 23.9138  42
   4  -1  -2 147.242 120.000  37
  -4   1   2 58.6573 31.7075  35
  -4   1   2 83.3702 32.5271   9
  -4   1   2 124.090 40.4035  33
  -4   1   2 83.8417 35.6842  32
  -4   1   2 0.13142 37.5849  31
  -4   1   1 1080.17 97.2541  30
  -4   1   1 1175.21 102.194  29
   4  -1  -1 844.051 288.805   2
  -4   1   1 1365.09 372.827   7
  -4   1   1 1052.49 93.9006  24
  -4   1   1 1183.22 104.072  42
  -4   1   1 1106.69 100.708   9
   4  -1  -1 1168.57 294.451  37
  -4   1   1 1130.01 105.179  35
  -4   1   1 1144.81 109.366  33
  -4   1   1 1146.29 105.130  32
  -4   1   1 1167.62 106.685  14
  -4   1   1 1198.41 108.062   8
  -4   1   0 396.490 64.9256  14
  -4   1   0 332.611 56.8657  30
  -4   1   0 375.419 56.9924  29
  -4   1   0 361.250 60.5597   8
   4  -1   0 177.997 149.046   2
  -4   1   0 495.559 239.734   7
  -4   1   0 388.039 61.0847  42
  -4   1   0 411.731 63.0097  35
  -4   1   0 463.241 67.5862   9
  -4   1   0 357.517 64.5651  33
  -4   1   0 440.772 67.4368  32
  -4   1  -1 365.867 63.3692  14
  -4   1  -1 364.612 60.8827  30
  -4   1  -1 353.529 56.3670  29
  -4   1  -1 349.383 60.5149   8
   4  -1   1 299.678 186.304   2
  -4   1  -1 388.237 197.185   7
  -4   1  -1 355.142 61.6920  42
   4  -1   1 366.546 199.395  38
  -4   1  -1 306.642 54.3578  35
  -4   1  -1 317.239 58.3471   9
  -4   1  -1 312.374 57.8799  33
  -4   1  -1 362.809 58.8480  32
  -4   1  -1-9.37706 35.3957  31
  -4   1  -2 2083.69 142.631  30
  -4   1  -2 1894.12 123.981  29
  -4   1  -2 2523.20 525.019   7
  -4   1  -2 2138.68 144.530  42
   4  -1   2 1947.71 440.141  38
  -4   1  -2 1934.45 135.564   9
  -4   1  -2 1826.91 123.213  35
  -4   1  -2 2050.45 141.750  33
  -4   1  -2 2069.58 139.809  32
  -4   1  -2 1841.27 138.475  14
  -4   1  -2 1981.98 141.848   8
  -4   1  -3 8904.14 297.073  30
  -4   1  -3 11178.3 1110.93   7
  -4   1  -3 9676.48 303.012  42
  -4   1  -3 8807.01 282.988  11
  -4   1  -3 154.648 46.9148  20
   4  -1   3 8612.87 917.947  38
  -4   1  -3 9213.86 294.161   9
  -4   1  -3 8608.67 260.338  35
  -4   1  -3 9263.29 299.052  34
  -4   1  -3 9324.78 298.398  33
  -4   1  -3 9392.84 293.016  32
  -4   1  -3 8910.81 305.808  14
  -4   1  -3 9337.14 309.504   8
  -4   1  -4 50.1184 32.1395  14
  -4   1  -4 34.3094 23.0727  30
  -4   1  -4 36.4786 22.2927   8
  -4   1  -4 88.9833 142.013   7
  -4   1  -4 81.8003 32.0064  42
  -4   1  -4-6.99136 21.5859  20
  -4   1  -4 74.4338 34.4256  11
   4  -1   4 42.1107 95.4424  38
  -4   1  -4 98.9675 45.6836   9
  -4   1  -4 77.3381 34.9098  34
  -4   1  -4 70.2401 30.1529  32
  -4   1  -4-13.1501 27.2879  31
  -4   1  -5 8217.16 292.250  30
  -4   1  -5 9469.75 1011.11   7
  -4   1  -5 8289.05 276.920  42
  -4   1  -5 594.249 87.5573  20
   4  -1   5 7193.70 860.212  38
  -4   1  -5 8019.72 293.084  34
  -4   1  -5 8196.66 264.704  32
  -4   1  -5 8025.29 291.244  14
  -4   1  -5 7759.37 283.572   8
  -4   1  -6 52.7736 27.1105  14
  -4   1  -6 44.7463 25.3600  30
  -4   1  -6 53.1458 29.2617   8
  -4   1  -6 74.8111 150.701   7
  -4   1  -6 7.77455 14.7604  22
  -4   1  -6 84.6824 31.8378  42
   4  -1   6 117.856 151.155  38
  -4   1  -6 19.5560 19.5564  34
  -4   1  -6 57.0554 24.5491  32
  -4   1  -7 418.912 65.6570  14
  -4   1  -7 399.769 68.1819  30
  -4   1  -7 244.826 197.409   7
  -4   1  -7 406.522 58.7621  42
  -4   1  -7 336.795 56.8460  22
  -4   1  -7 322.007 53.5720  19
   4  -1   7 589.688 275.504  38
  -4   1  -7 386.172 67.8391  34
  -4   1  -7 411.392 66.1774   8
  -4   1  -8 3812.50 193.825  30
  -4   1  -8 3477.42 181.175  22
  -4   1  -8 3434.95 205.194  11
  -4   1  -8 3350.86 170.301  19
  -4   1  -8 3845.72 170.276  42
  -4   1  -8 3504.21 194.716  34
  -4   1  -8 3786.59 183.136  14
  -4   1  -8 3499.94 172.960   8
  -4   1  -9 1428.94 112.010  30
  -4   1  -9 1471.82 117.569  22
  -4   1  -9 1389.91 130.635  11
  -4   1  -9 1328.55 107.463  19
  -4   1  -9 1540.46 127.533  34
  -4   1  -9 1598.98 110.321  14
  -4   1  -9 1058.24 87.5847   8
  -4   1 -10 254.933 45.2597  30
  -4   1 -10 197.310 44.2570  22
  -4   1 -10 102.123 40.4859  20
  -4   1 -10 174.053 53.0685  11
  -4   1 -10 146.187 37.6564  19
  -4   1 -10 207.296 46.6497  34
  -4   1 -11 20.7662 28.4044  20
  -4   1 -11 92.7713 44.3115  11
  -4   1 -11 118.400 33.7124  19
  -4   1 -11 132.562 36.1929  34
  -4   1 -12 81.1289 28.4725  21
  -4   1 -12 40.8359 29.5544  11
  -4   1 -12 77.4868 22.4739  19
  -4   1 -12 80.7638 27.1621  34
  -4   0  13 241.123 33.8482  29
  -4   0  13 227.643 40.5944  27
  -4   0  13 220.583 41.7421  24
  -4   0  13 249.078 42.4280  33
  -4   0  12 31.3344 18.4487  29
  -4   0  12-0.64826 16.5272  27
  -4   0  12-3.21129 21.0303  24
  -4   0  12 5.52812 18.3150  33
  -4   0  12-20.4398 32.6713  31
  -4   0  11 562.378 67.7038  29
  -4   0  11 528.380 68.5016  27
  -4   0  11 533.329 74.9151  24
  -4   0  11 595.097 77.4568  33
  -4   0  10 141.445 38.0781  29
  -4   0  10 113.483 33.2438  27
  -4   0  10 87.4157 39.6177  24
  -4   0  10 139.148 41.6135  33
  -4   0  10 62.3172 52.2478  31
  -4   0   9 7275.84 267.585  29
  -4   0   9 6847.49 251.825  27
  -4   0   9 7130.81 274.779  24
   4   0  -9 6320.03 820.902  37
  -4   0   9 6937.14 278.142  33
  -4   0   9 6777.15 215.586  32
  -4   0   8 2631.32 166.338  29
  -4   0   8 2625.24 155.923  27
  -4   0   8 2736.99 171.272  24
   4   0  -8 2118.65 470.579  37
  -4   0   8 2608.03 173.032  33
  -4   0   8 2648.14 144.179  32
  -4   0   7 1122.92 109.112  29
  -4   0   7 1250.70 105.384  27
  -4   0   7 1223.26 114.406  24
   4   0  -7 1680.02 424.620  37
  -4   0   7 1315.68 120.777  35
  -4   0   7 1318.92 124.969  33
  -4   0   7 1229.77 102.525  32
  -4   0   6-10.1072 19.4937   8
  -4   0   6 17.1035 19.6432  29
  -4   0   6 19.1693 27.2640  28
  -4   0   6 57.2374 34.9888  24
   4   0  -6-5.38726 72.6814  37
  -4   0   6 49.2792 34.1493  35
  -4   0   6 14.4575 22.1691   9
  -4   0   6 17.5691 22.7951  33
  -4   0   6 24.1529 19.2461  32
  -4   0   6-3.88215 35.2053  31
  -4   0   5 1591.07 126.605  29
  -4   0   5 1393.77 120.449  28
  -4   0   5 1250.81 323.895   7
  -4   0   5 1471.30 117.091  24
  -4   0   5 1497.35 115.313  42
  -4   0   5 1571.64 114.397   9
   4   0  -5 1238.43 339.362  37
  -4   0   5 1820.19 143.240  35
  -4   0   5 1596.03 133.742  33
  -4   0   5 1338.10 113.226  32
  -4   0   5 1384.39 115.373   8
  -4   0   4 751.671 76.3807  30
  -4   0   4 771.580 87.5643  29
  -4   0   4 782.697 89.1376  28
  -4   0   4 958.946 291.591   7
  -4   0   4 802.589 84.7732  24
  -4   0   4 802.610 84.9676  42
   4   0  -4 759.472 260.984  37
  -4   0   4 823.245 84.8295   9
  -4   0   4 721.644 90.2716  35
  -4   0   4 729.499 82.5097  34
  -4   0   4 750.914 92.1368  33
  -4   0   4 752.471 84.9353  32
  -4   0   4 712.861 85.4541   8
  -4   0   3 827.020 82.2094  30
  -4   0   3 853.512 91.7923  29
  -4   0   3 844.097 91.3136  28
  -4   0   3 975.462 294.022   7
  -4   0   3 769.673 80.1918  24
   4   0  -3 646.766 224.448   2
  -4   0   3 828.568 88.9906  42
   4   0  -3 1107.21 302.546  37
  -4   0   3 848.902 89.1067   9
  -4   0   3 890.298 96.4377  35
  -4   0   3 740.764 83.9429  34
  -4   0   3 810.909 93.4803  33
  -4   0   3 863.501 92.9771  32
  -4   0   3 865.122 94.3506  14
  -4   0   3 825.872 92.9674   8
  -4   0   2 112.714 33.0640  14
  -4   0   2 110.281 31.1876  30
  -4   0   2 98.1773 36.4791   8
  -4   0   2 104.590 35.8875  29
  -4   0   2 104.643 38.8501  28
   4   0  -2 21.5187 129.794   2
  -4   0   2 151.550 133.291   7
  -4   0   2 118.113 38.5303  42
   4   0  -2 77.0437 69.7301  37
  -4   0   2 69.7842 30.6463  35
  -4   0   2 77.6840 30.8526  34
  -4   0   2 52.0539 26.8429   9
  -4   0   2 75.7421 32.6840  33
  -4   0   2 98.4123 40.9869  32
  -4   0   2 3.76376 32.0789  31
  -4   0   1 252.100 54.4613  14
  -4   0   1 249.658 49.7209  30
  -4   0   1 273.012 55.0349   8
  -4   0   1 195.568 43.9348  29
  -4   0   1 228.838 48.2732  28
   4   0  -1 36.2755 106.204   2
  -4   0   1 249.625 165.722   7
  -4   0   1 303.338 58.1454  42
  -4   0   1 226.705 50.4899  35
  -4   0   1 258.507 52.2372   9
  -4   0   1 228.760 50.3118  34
  -4   0   1 269.122 55.3227  33
  -4   0   1 327.910 58.5938  32
  -4   0   1 32.3614 46.6694  31
  -4   0   0 727.741 84.0136  30
  -4   0   0 766.269 81.2938  29
  -4   0   0 772.429 82.7073  28
  -4   0   0 931.056 306.598   7
  -4   0   0 853.505 91.9785  42
   4   0   0 604.574 249.770  38
  -4   0   0 724.574 84.5520   9
  -4   0   0 783.611 87.0292  35
  -4   0   0 728.256 87.1532  34
  -4   0   0 728.977 84.2875  33
  -4   0   0 793.052 89.0277  32
  -4   0   0 795.721 93.7770  14
  -4   0   0 778.794 92.5551   8
  -4   0  -1 18509.9 424.366  30
  -4   0  -1 18017.8 381.726  29
  -4   0  -1 18884.1 1380.55   7
  -4   0  -1 16857.9 412.723  42
   4   0   1 17123.4 1253.08  38
  -4   0  -1 18599.8 416.995   9
  -4   0  -1 17541.6 397.837  35
  -4   0  -1 18736.0 443.562  34
  -4   0  -1 18741.7 416.583  33
  -4   0  -1 19138.8 432.694  32
  -4   0  -1 17254.5 430.103  14
  -4   0  -1 17614.3 430.241   8
  -4   0  -2 12430.9 354.928  30
  -4   0  -2 11776.4 296.606  29
  -4   0  -2 13111.3 1153.55   7
  -4   0  -2 12822.4 355.460  42
   4   0   2 10748.9 991.850  38
  -4   0  -2 12614.2 344.803   9
  -4   0  -2 11414.6 314.554  35
  -4   0  -2 11928.2 360.360  34
  -4   0  -2 12022.0 331.745  33
  -4   0  -2 11803.0 339.461  32
  -4   0  -2 11787.1 357.547  14
  -4   0  -2 11684.9 353.715   8
  -4   0  -3 410.025 69.0427  14
  -4   0  -3 544.732 77.3787  30
  -4   0  -3 630.247 270.558   7
  -4   0  -3 654.772 82.5401  42
  -4   0  -3 554.297 75.6285  11
  -4   0  -3 482.268 68.9922  20
   4   0   3 243.229 157.738  38
  -4   0  -3 529.554 74.3396   9
  -4   0  -3 514.946 67.8898  35
  -4   0  -3 568.418 80.7514  34
  -4   0  -3 469.163 67.5276  33
  -4   0  -3 568.876 75.7005  32
  -4   0  -3 551.317 78.0626   8
  -4   0  -4 16734.9 424.626  30
  -4   0  -4 16130.7 1284.93   7
  -4   0  -4 17564.7 411.283  42
  -4   0  -4 16391.2 421.469  11
  -4   0  -4 18452.7 446.861  20
   4   0   4 15190.6 1182.74  38
  -4   0  -4 16530.5 389.375   9
  -4   0  -4 16250.7 356.071  35
  -4   0  -4 16177.9 437.923  34
  -4   0  -4 16940.9 401.196  32
  -4   0  -4 16341.4 418.847  14
  -4   0  -4 16495.2 418.944   8
  -4   0  -5-12.1100 22.9789  14
  -4   0  -5-15.7040 34.7790  30
  -4   0  -5 2.46986 18.8957   8
  -4   0  -5 78.4450 84.8554   7
  -4   0  -5 0.63190 20.6274  42
  -4   0  -5 10.8877 25.2859  20
  -4   0  -5 23.8298 25.0704  11
   4   0   5-72.3535 158.644  38
  -4   0  -5-11.1846 29.8818   9
  -4   0  -5 21.9235 31.9229  34
  -4   0  -5 12.5885 18.3623  32
  -4   0  -5-17.4932 38.9960  31
  -4   0  -6 1154.50 112.755  30
  -4   0  -6 1335.03 369.922   7
  -4   0  -6 1291.01 106.009  42
  -4   0  -6 1229.09 122.013  11
  -4   0  -6 1233.49 108.530  21
  -4   0  -6 1329.55 129.826  20
   4   0   6 991.171 308.832  38
  -4   0  -6 1311.37 126.857  34
  -4   0  -6 1198.67 101.562  32
  -4   0  -6 1037.67 103.642  14
  -4   0  -6 994.576 100.957   8
  -4   0  -7 79.1659 33.8233  14
  -4   0  -7 85.5968 34.6095  30
  -4   0  -7 109.776 35.4602   8
  -4   0  -7 89.6375 29.6815  42
  -4   0  -7 113.340 37.7009  21
  -4   0  -7 98.5054 41.2400  20
  -4   0  -7 137.603 46.0255  11
  -4   0  -7 63.1453 34.9377  34
  -4   0  -8 551.235 74.9686  30
  -4   0  -8 591.149 84.6339  11
  -4   0  -8 604.587 78.6034  21
  -4   0  -8 680.280 96.1261  20
  -4   0  -8 585.764 69.4475  19
  -4   0  -8 631.506 87.0039  34
  -4   0  -8 552.999 66.6643   8
  -4   0  -9 2988.99 159.534  30
  -4   0  -9 3120.60 189.093  11
  -4   0  -9 2795.10 162.952  21
  -4   0  -9 2802.36 150.388  19
  -4   0  -9 2905.15 179.062  34
  -4   0 -10-6.19931 15.7752  30
  -4   0 -10-8.23326 22.0283  21
  -4   0 -10-2.52030 22.2353  11
  -4   0 -10-6.14343 14.2836  19
  -4   0 -10 3.84245 19.4875  34
  -4   0 -11 38.4123 21.5895  21
  -4   0 -11 8.24119 21.7633  11
  -4   0 -11 36.0053 24.8353  34
  -4   0 -12 72.2624 24.8758  21
  -4   0 -12 31.9516 24.0179  11
  -4   0 -12 95.8590 27.0159  34
  -4  -1  13 1993.54 100.388  29
  -4  -1  13 1934.25 113.994  24
  -4  -1  13 1860.22 111.734  33
  -4  -1  12-0.41174 14.2213  29
  -4  -1  12 13.9972 11.9862  27
  -4  -1  12-13.9433 20.4846  24
  -4  -1  12 9.83578 21.7466  33
  -4  -1  12-3.80284 18.7363  31
  -4  -1  11 1286.33 103.011  29
  -4  -1  11 1168.29 91.0527  27
  -4  -1  11 1371.67 111.494  24
  -4  -1  11 1261.15 110.662  33
  -4  -1  10 21.7491 21.1363  29
  -4  -1  10 45.8100 22.2973  27
  -4  -1  10 32.9688 25.8649  24
  -4  -1  10 27.0767 29.4137  33
  -4  -1  10-38.5868 35.9251  31
  -4  -1   9 5242.72 228.222  29
  -4  -1   9 5003.42 219.590  24
  -4  -1   9 5569.43 248.852  33
  -4  -1   8 2623.83 163.629  29
  -4  -1   8 2345.24 150.211  24
   4   1  -8 2028.41 469.368  37
  -4  -1   8 2549.79 161.258  35
  -4  -1   8 2719.10 176.146  33
  -4  -1   8 2417.41 135.687  32
  -4  -1   7 146.879 36.5107   8
  -4  -1   7 111.736 38.5686  29
  -4  -1   7 168.166 52.8953  28
  -4  -1   7 163.969 43.1278  24
   4   1  -7 18.9969 114.222  37
  -4  -1   7 130.145 41.9829  35
  -4  -1   7 83.5945 24.2180   9
  -4  -1   7 82.4729 34.5663  33
  -4  -1   7 125.427 33.7409  32
  -4  -1   7-68.4549 45.4668  31
  -4  -1   6 190.485 44.5817   8
  -4  -1   6 220.170 52.4396  29
  -4  -1   6 254.212 59.4387  28
  -4  -1   6 243.831 48.0870  24
   4   1  -6 275.957 199.534  37
  -4  -1   6 285.006 60.4237  35
  -4  -1   6 261.263 52.7852  34
  -4  -1   6 238.237 45.3832   9
  -4  -1   6 252.332 55.9889  33
  -4  -1   6 245.077 48.4397  32
  -4  -1   6 9.34297 38.1945  31
  -4  -1   5 3036.78 173.366  29
  -4  -1   5 2867.20 180.574  28
  -4  -1   5 2971.46 159.545  24
  -4  -1   5 2109.30 429.915  39
   4   1  -5 3032.62 541.033  37
  -4  -1   5 2905.61 159.318   9
  -4  -1   5 3018.75 180.881  35
  -4  -1   5 2952.72 178.658  34
  -4  -1   5 3050.30 183.031  33
  -4  -1   5 2946.36 165.916  32
  -4  -1   5 2859.50 168.338   8
  -4  -1   4 159.842 37.4131  30
  -4  -1   4 140.202 39.9535   8
  -4  -1   4 177.421 46.4325  29
  -4  -1   4 147.078 45.1885  28
  -4  -1   4 94.6502 103.495   7
  -4  -1   4 159.193 42.1038  40
  -4  -1   4 91.7226 113.031  39
   4   1  -4 128.799 106.137  37
  -4  -1   4 186.141 50.3503  35
  -4  -1   4 197.124 50.5557  34
  -4  -1   4 179.070 45.7185   9
  -4  -1   4 205.139 50.7286  33
  -4  -1   4 142.077 40.0219  32
  -4  -1   4 22.3829 44.4985  31
  -4  -1   3 3503.64 172.843  30
  -4  -1   3 3583.48 181.791  29
  -4  -1   3 3660.28 199.320  28
  -4  -1   3 4031.60 618.998   7
  -4  -1   3 3881.46 197.493  42
  -4  -1   3 3667.11 197.719  40
  -4  -1   3 3906.17 598.023  39
   4   1  -3 3375.04 527.077  37
  -4  -1   3 3790.14 189.658   9
  -4  -1   3 3517.13 195.023  35
  -4  -1   3 3664.98 202.171  34
  -4  -1   3 3855.54 198.736  33
  -4  -1   3 3517.67 188.700  32
  -4  -1   3 3513.00 195.784   8
  -4  -1   2 4195.59 193.294  30
  -4  -1   2 4226.52 191.773  29
  -4  -1   2 4362.38 215.155  28
  -4  -1   2 3875.43 612.932   7
  -4  -1   2 4322.00 211.279  42
  -4  -1   2 4081.11 213.038  40
  -4  -1   2 4446.05 646.365  39
   4   1  -2 3741.43 560.378  38
   4   1  -2 3831.78 535.558  37
  -4  -1   2 4195.63 199.419   9
  -4  -1   2 4262.03 212.205  35
  -4  -1   2 4089.86 215.339  34
  -4  -1   2 4162.03 202.038  33
  -4  -1   2 4490.04 214.109  32
  -4  -1   2 4212.13 216.250   8
  -4  -1   1 1075.91 100.995  30
  -4  -1   1 1047.55 94.7236  29
  -4  -1   1 1068.61 107.118  28
   4   1  -1 897.068 279.955   4
  -4  -1   1 1245.15 366.974   7
  -4  -1   1 1133.81 109.886  42
  -4  -1   1 1140.39 115.961  40
  -4  -1   1 1091.45 324.404  39
   4   1  -1 1098.23 301.447  38
  -4  -1   1 989.536 100.652   9
  -4  -1   1 1174.81 110.605  35
  -4  -1   1 1121.56 114.162  34
  -4  -1   1 1103.31 102.522  33
  -4  -1   1 1173.04 111.058  32
  -4  -1   1 1169.16 163.274  31
  -4  -1   1 1126.59 113.552   8
  -4  -1   0 7120.20 265.311  30
  -4  -1   0 7020.57 236.073  29
  -4  -1   0 7024.47 272.074  28
  -4  -1   0 7059.99 846.340   7
  -4  -1   0 7410.74 277.650  42
  -4  -1   0 7482.94 292.285  40
  -4  -1   0 4868.80 699.431  39
   4   1   0 6897.24 744.581  38
  -4  -1   0 7241.19 264.954   9
  -4  -1   0 7029.89 265.523  35
  -4  -1   0 7418.17 294.085  34
  -4  -1   0 7041.02 252.857  33
   4   1   0 7384.11 764.512   4
  -4  -1   0 6978.21 271.273  32
  -4  -1   0 5377.43 313.520  31
  -4  -1   0 7102.49 285.472   8
  -4  -1  -1 305.439 63.7089  14
  -4  -1  -1 468.839 71.8686  30
  -4  -1  -1 436.580 57.7311  29
  -4  -1  -1 281.440 63.9514   8
  -4  -1  -1 423.552 66.5801  28
   4   1   1 617.526 240.767   4
  -4  -1  -1 396.030 206.634   7
  -4  -1  -1 459.610 71.4721  42
  -4  -1  -1 315.346 58.6874  35
  -4  -1  -1 418.204 67.6701   9
  -4  -1  -1 413.893 74.0120  34
  -4  -1  -1 417.296 61.9459  33
  -4  -1  -1 288.112 58.9668  32
  -4  -1  -1 266.331 78.5598  31
  -4  -1  -2 10693.5 340.550  30
  -4  -1  -2 10436.2 327.169  28
  -4  -1  -2 10124.5 1016.84   7
  -4  -1  -2 10652.0 330.638  42
  -4  -1  -2 11119.5 331.850  11
  -4  -1  -2 10512.7 315.387   9
  -4  -1  -2 9876.11 302.556  35
  -4  -1  -2 10553.6 359.550  34
  -4  -1  -2 10719.2 296.362  33
  -4  -1  -2 10253.1 328.552  32
   4   1   2 9788.59 889.555   4
  -4  -1  -2 10092.4 338.417  14
  -4  -1  -2 11860.5 476.515  31
  -4  -1  -2 10595.8 345.273   8
  -4  -1  -3 11571.8 357.887  30
  -4  -1  -3 10827.7 331.800  28
  -4  -1  -3 11483.3 1085.20   7
  -4  -1  -3 11850.2 343.556  42
  -4  -1  -3 11722.6 352.213  11
  -4  -1  -3 11530.7 326.416   9
  -4  -1  -3 11031.1 312.522  35
  -4  -1  -3 11511.9 381.755  34
  -4  -1  -3 11812.7 350.370  32
  -4  -1  -3 11836.0 364.295   8
  -4  -1  -4 4910.80 235.822  30
  -4  -1  -4 4993.31 221.322  28
  -4  -1  -4 5443.75 736.638   7
  -4  -1  -4 5396.85 227.365  42
  -4  -1  -4 5014.36 237.033  11
  -4  -1  -4 5125.57 213.860   9
  -4  -1  -4 4781.81 199.171  35
  -4  -1  -4 5128.50 256.527  34
  -4  -1  -4 5108.87 227.221  32
  -4  -1  -4 5266.59 239.278   8
  -4  -1  -5 217.263 52.7634  30
  -4  -1  -5 208.411 48.7895   8
  -4  -1  -5 208.122 47.9107  28
  -4  -1  -5 214.937 57.0258  11
  -4  -1  -5 252.503 44.4056  35
  -4  -1  -5 223.930 46.4128   9
  -4  -1  -5 225.819 58.8382  34
  -4  -1  -5 212.761 47.9514  32
  -4  -1  -6 118.128 39.3108  30
  -4  -1  -6 83.5994 34.4260   8
  -4  -1  -6 61.1494 23.8293  28
  -4  -1  -6 67.2868 26.3872  21
  -4  -1  -6 67.9653 35.0081  11
  -4  -1  -6 128.735 37.1033   9
  -4  -1  -6 164.519 51.6088  34
  -4  -1  -6 80.8484 28.0410  32
  -4  -1  -7 4252.15 207.738  30
  -4  -1  -7 4423.43 227.317  11
  -4  -1  -7 4125.41 198.673  21
  -4  -1  -7 4218.68 229.212  34
  -4  -1  -7 4125.84 185.602   8
  -4  -1  -8 1860.87 145.167  11
  -4  -1  -8 1690.78 125.533  21
  -4  -1  -8 1797.05 144.795  34
  -4  -1  -8 1759.99 127.547  30
  -4  -1  -9 255.196 46.3033  30
  -4  -1  -9 251.746 46.9636  21
  -4  -1  -9 281.730 57.2649  11
  -4  -1  -9 283.154 54.6509  34
  -4  -1 -10 27.0187 17.9787  21
  -4  -1 -10 45.5097 28.0528  11
  -4  -1 -10 17.7004 17.0446  34
  -4  -1 -11 4.69059 12.1069  21
  -4  -1 -11 19.1771 17.8914  11
  -4  -1 -11 9.37914 17.9543  34
  -4  -2  13 710.090 58.4865  29
  -4  -2  13 764.391 64.3524  24
  -4  -2  13 763.067 67.8109  33
  -4  -2  12 1145.73 85.5313  29
  -4  -2  12 1092.15 83.8034  24
  -4  -2  12 1086.80 90.4301  33
  -4  -2  11 164.209 39.1311  29
  -4  -2  11 119.394 30.9810  24
  -4  -2  11 156.312 39.4636  33
  -4  -2  10 1174.89 101.350  29
  -4  -2  10 1095.37 92.9280  24
  -4  -2  10 1180.20 108.076  33
  -4  -2   9 327.994 57.9696  29
  -4  -2   9 288.030 49.4258  24
  -4  -2   9 291.984 53.5932  35
  -4  -2   9 307.224 57.3578  33
  -4  -2   8 1276.69 112.345  29
  -4  -2   8 1325.40 130.182  28
  -4  -2   8 1142.58 96.3487  24
  -4  -2   8 1338.44 93.5158   9
  -4  -2   8 1268.51 111.206  35
  -4  -2   8 1380.89 121.582  33
  -4  -2   8 1279.96 93.7287  32
  -4  -2   7 2669.58 163.077  29
  -4  -2   7 2772.91 185.615  28
  -4  -2   7 2475.17 138.991  24
  -4  -2   7 2503.59 148.382  40
  -4  -2   7 2728.26 144.062   9
  -4  -2   7 2664.39 163.242  35
  -4  -2   7 2717.57 170.236  33
  -4  -2   7 2502.45 140.894  32
  -4  -2   7 2620.20 151.228   8
  -4  -2   6 753.550 88.9097  29
  -4  -2   6 690.725 93.6242  28
  -4  -2   6 705.366 83.0814  40
  -4  -2   6 880.427 295.680  39
  -4  -2   6 755.458 80.5237   9
  -4  -2   6 715.201 87.0987  35
  -4  -2   6 763.907 94.8338  34
  -4  -2   6 744.687 88.6073  33
  -4  -2   6 670.153 77.3711  32
  -4  -2   6 717.326 84.2601   8
  -4  -2   6 623.701 111.105  31
  -4  -2   5 138.627 41.4100   8
  -4  -2   5 166.105 44.3019  29
  -4  -2   5 94.9165 40.7969  28
  -4  -2   5 171.398 45.7145  40
  -4  -2   5 54.9537 78.4229  39
  -4  -2   5 151.423 45.6480  35
  -4  -2   5 174.155 51.6360  34
  -4  -2   5 162.686 42.9465   9
  -4  -2   5 130.407 43.3250  33
  -4  -2   5 165.986 44.3907  32
  -4  -2   5 181.303 56.4451  31
  -4  -2   4 4936.60 212.968  29
  -4  -2   4 4803.25 240.445  28
  -4  -2   4 4887.66 230.130  40
  -4  -2   4 4701.79 661.008  39
  -4  -2   4 5063.80 218.028   9
  -4  -2   4 4855.69 230.885  35
  -4  -2   4 5026.00 245.984  34
  -4  -2   4 4745.61 214.063  33
  -4  -2   4 4759.77 216.434  32
  -4  -2   4 5049.05 231.893   8
  -4  -2   4 4641.04 191.524  30
  -4  -2   3 1651.28 119.320  30
  -4  -2   3 1697.13 122.035  29
  -4  -2   3 1758.07 146.062  28
  -4  -2   3 1745.24 140.728  40
  -4  -2   3 1583.01 397.718  39
  -4  -2   3 1718.73 129.759   9
  -4  -2   3 1746.83 140.369  35
  -4  -2   3 1757.49 148.873  34
  -4  -2   3 1713.00 126.217  33
  -4  -2   3 1782.64 136.772  32
  -4  -2   3 1793.97 141.848   8
  -4  -2   2 59.6464 30.5568  30
  -4  -2   2 59.0889 32.9081   8
  -4  -2   2 48.5954 26.3404  29
   4   2  -2 6.63534 97.4834   4
  -4  -2   2 44.2998 27.3872  28
  -4  -2   2 36.4054 31.6005  40
  -4  -2   2 163.035 171.871  39
  -4  -2   2 43.4912 28.3833  35
  -4  -2   2 80.2089 42.0391  34
  -4  -2   2 59.1032 29.1386   9
  -4  -2   2 45.6822 25.1626  33
  -4  -2   2 41.3037 27.3113  32
  -4  -2   2 106.224 56.7838  31
  -4  -2   1 5067.89 223.577  30
  -4  -2   1 5372.88 206.526  29
  -4  -2   1 5351.68 252.255  28
  -4  -2   1 5791.85 259.310  40
  -4  -2   1 5423.55 733.664  39
  -4  -2   1 5268.82 228.084   9
  -4  -2   1 5291.89 238.419  35
  -4  -2   1 5528.52 265.250  34
  -4  -2   1 5302.07 211.981  33
   4   2  -1 4587.02 655.189   4
  -4  -2   1 5419.80 243.711  32
  -4  -2   1 5495.68 253.521   8
  -4  -2   0 6334.87 256.517  30
  -4  -2   0 6705.01 219.050  29
  -4  -2   0 6278.92 270.467  28
  -4  -2   0 6498.52 829.058   7
  -4  -2   0 6345.19 274.910  40
  -4  -2   0 6811.17 821.921  39
  -4  -2   0 6793.87 260.913   9
  -4  -2   0 6433.80 260.656  35
  -4  -2   0 6535.67 290.044  34
  -4  -2   0 6282.90 221.623  33
   4   2   0 5850.54 743.948   4
  -4  -2   0 6637.22 268.915  32
  -4  -2   0 6697.94 280.081   8
  -4  -2  -1 10224.6 333.046  30
  -4  -2  -1 10235.6 341.838  28
  -4  -2  -1 10673.7 1064.38   7
  -4  -2  -1 10178.5 323.328  11
  -4  -2  -1 10282.9 345.907  40
  -4  -2  -1 9763.64 992.769  39
  -4  -2  -1 10283.9 315.676   9
  -4  -2  -1 10011.6 318.766  35
  -4  -2  -1 10428.2 370.663  34
  -4  -2  -1 10187.2 334.653  32
   4   2   1 10187.8 977.305   4
  -4  -2  -1 10346.4 347.058   8
  -4  -2  -2 311.849 62.3416  30
  -4  -2  -2 331.277 65.6965   8
  -4  -2  -2 322.905 62.5858  28
   4   2   2 293.367 178.952   4
  -4  -2  -2 362.228 64.6848  11
  -4  -2  -2 327.755 59.0052  35
  -4  -2  -2 325.894 59.5100   9
  -4  -2  -2 270.152 61.2120  34
  -4  -2  -2 309.983 59.3737  32
  -4  -2  -2 400.706 94.9698  31
  -4  -2  -3 11242.3 356.817  30
  -4  -2  -3 10859.0 346.619  28
  -4  -2  -3 10795.0 344.906  11
  -4  -2  -3 11263.3 319.432   9
  -4  -2  -3 10976.8 315.039  35
  -4  -2  -3 11076.1 383.937  34
  -4  -2  -3 11298.3 344.083  32
   4   2   3 10011.0 980.011   4
  -4  -2  -3 11056.6 349.120   8
  -4  -2  -4 848.075 99.5225  30
  -4  -2  -4 837.857 96.0168  28
   4   2   4 782.302 293.960   4
  -4  -2  -4 894.070 101.781  11
  -4  -2  -4 895.073 88.8301   9
  -4  -2  -4 796.750 82.5419  35
  -4  -2  -4 851.320 107.505  34
  -4  -2  -4 927.722 99.6119  32
  -4  -2  -4 841.366 96.0284   8
  -4  -2  -5 686.819 85.3598  30
  -4  -2  -5 700.946 85.7216  28
  -4  -2  -5 767.666 95.9991  11
  -4  -2  -5 688.205 79.0475  21
  -4  -2  -5 766.478 76.4443   9
  -4  -2  -5 627.170 68.4346  35
  -4  -2  -5 716.761 100.447  34
  -4  -2  -5 810.914 88.9857   8
  -4  -2  -6 307.121 60.1251  30
  -4  -2  -6 305.689 50.6884   8
  -4  -2  -6 330.448 58.4134  28
  -4  -2  -6 300.235 52.7441  21
  -4  -2  -6 328.300 61.6211  11
  -4  -2  -6 346.214 50.3387   9
  -4  -2  -6 294.931 65.6350  34
  -4  -2  -7 37.7704 19.9411  30
  -4  -2  -7 25.0821 19.3196   8
  -4  -2  -7 41.0287 24.5143  28
  -4  -2  -7 65.5356 27.9070  21
  -4  -2  -7 58.2496 35.6445  11
  -4  -2  -7 34.6091 26.4790  34
  -4  -2  -8 1209.70 110.820  11
  -4  -2  -8 1243.04 99.0379  21
  -4  -2  -8 1327.94 117.737  34
  -4  -2  -8 1256.68 100.020  30
  -4  -2  -9 1691.24 119.968  11
  -4  -2  -9 1545.05 102.601  21
  -4  -2  -9 1669.44 122.784  34
  -4  -2 -10 1741.39 111.977  11
  -4  -2 -10 1641.81 94.4592  21
  -4  -2 -10 1692.06 109.380  34
  -4  -3  12 226.704 35.8537  29
  -4  -3  12 263.716 40.4992  33
  -4  -3  11 3.79813 13.4894  29
  -4  -3  11-2.49022 14.1640  33
  -4  -3  10 0.50977 17.1158  29
  -4  -3  10 13.2168 19.0154  33
  -4  -3   9 3984.50 182.031  29
  -4  -3   9 3548.75 154.669  35
  -4  -3   9 3433.30 170.443  33
  -4  -3   8 1308.80 107.225  29
  -4  -3   8 1280.14 120.813  28
  -4  -3   8 1187.24 93.9642  40
  -4  -3   8 1196.97 86.6760   9
  -4  -3   8 1213.50 99.2917  35
  -4  -3   8 1247.34 104.750  33
  -4  -3   7 859.689 90.3104  29
  -4  -3   7 898.607 103.628  28
  -4  -3   7 929.835 90.2103  40
  -4  -3   7 942.831 83.9138   9
  -4  -3   7 920.753 90.9110  35
  -4  -3   7 1016.89 95.3043  33
  -4  -3   7 856.994 77.5699  32
  -4  -3   6 1865.29 130.160  29
  -4  -3   6 1860.68 151.522  28
  -4  -3   6 1653.50 126.501  40
  -4  -3   6 1805.45 122.225   9
  -4  -3   6 1917.28 137.841  35
  -4  -3   6 1740.99 143.829  34
  -4  -3   6 1896.94 128.746  33
  -4  -3   6 1780.46 119.389  32
  -4  -3   5 486.168 67.2860  29
  -4  -3   5 450.781 77.5848  28
  -4  -3   5 442.734 70.7511  40
  -4  -3   5 441.647 65.7929   9
  -4  -3   5 488.717 72.9778  35
  -4  -3   5 418.537 73.5581  34
  -4  -3   5 449.149 62.0441  33
  -4  -3   5 414.677 60.2044  32
  -4  -3   5 505.138 75.0662   8
  -4  -3   5 777.756 104.894  31
  -4  -3   4 1402.58 109.267  29
  -4  -3   4 1365.10 130.957  28
  -4  -3   4 1373.94 123.474  40
  -4  -3   4 1258.17 351.658  39
  -4  -3   4 1474.08 119.082   9
  -4  -3   4 1478.33 124.572  35
  -4  -3   4 1515.28 139.526  34
  -4  -3   4 1398.78 106.863  33
  -4  -3   4 1417.92 115.738  32
  -4  -3   4 1508.15 130.001   8
  -4  -3   3 5052.53 199.927  29
  -4  -3   3 5027.68 250.636  28
  -4  -3   3 5281.01 243.285  40
  -4  -3   3 5252.48 717.124  39
  -4  -3   3 4963.27 218.524   9
  -4  -3   3 5154.25 235.871  35
  -4  -3   3 5371.37 262.681  34
  -4  -3   3 5029.88 196.185  33
  -4  -3   3 4925.79 220.476  32
  -4  -3   3 5545.62 249.990   8
  -4  -3   3 5020.24 205.108  30
  -4  -3   2 85.1996 32.9087  30
  -4  -3   2 91.4164 39.0293   8
  -4  -3   2 69.1549 28.4401  29
  -4  -3   2 46.6973 27.3420  28
  -4  -3   2 59.1446 32.3033  40
  -4  -3   2 40.7721 84.1136  39
  -4  -3   2 63.0670 35.2803  35
  -4  -3   2 46.0042 34.7123  34
  -4  -3   2 81.8276 32.4470   9
  -4  -3   2 83.4173 33.6103  32
  -4  -3   2 76.4262 53.9861  31
  -4  -3   1 657.208 91.7969  28
   4   3  -1 562.323 237.290   4
  -4  -3   1 643.657 89.0390  40
  -4  -3   1 695.467 263.753  39
  -4  -3   1 699.952 84.1690   9
  -4  -3   1 752.698 90.9577  35
  -4  -3   1 623.668 92.7176  34
  -4  -3   1 672.467 86.6536  32
  -4  -3   1 696.359 92.2854   8
  -4  -3   1 950.457 131.569  31
  -4  -3   1 628.957 78.7024  30
  -4  -3   0 469.461 77.0992   8
  -4  -3   0 499.177 81.0711  28
   4   3   0 519.882 246.394   4
  -4  -3   0 401.630 62.8818  11
  -4  -3   0 507.709 77.7689  40
  -4  -3   0 370.679 184.502  39
  -4  -3   0 519.369 74.6926   9
  -4  -3   0 476.915 73.8072  35
  -4  -3   0 430.177 79.3088  34
  -4  -3   0 466.355 72.6346  32
  -4  -3   0 638.448 112.205  31
  -4  -3   0 484.945 72.1853  30
  -4  -3  -1 374.493 67.2689  30
  -4  -3  -1 327.803 63.4202   8
  -4  -3  -1 349.394 66.5525  28
  -4  -3  -1 325.256 59.0704  11
  -4  -3  -1 334.536 63.6544  40
  -4  -3  -1 309.576 58.0654  35
  -4  -3  -1 354.888 73.5372  34
  -4  -3  -1 344.513 58.9115   9
  -4  -3  -1 376.110 67.5663  32
  -4  -3  -1 119.416 91.3338  31
  -4  -3  -2 3555.62 203.696  28
  -4  -3  -2 3696.17 195.417  11
  -4  -3  -2 3626.36 177.706   9
  -4  -3  -2 3619.77 186.032  35
  -4  -3  -2 3706.98 219.993  34
  -4  -3  -2 3602.14 193.848  32
  -4  -3  -2 3925.38 205.805   8
  -4  -3  -2 3642.14 198.204  30
  -4  -3  -3 423.403 68.1032  30
  -4  -3  -3 411.699 67.6983   8
  -4  -3  -3 335.261 63.9511  28
  -4  -3  -3 355.732 63.2693  11
  -4  -3  -3 382.149 58.5984  35
  -4  -3  -3 379.994 55.9688   9
  -4  -3  -3 395.246 72.6291  34
  -4  -3  -4 4.38593 22.6142  30
  -4  -3  -4 10.1346 19.0538   8
  -4  -3  -4-2.58209 19.2516  28
  -4  -3  -4 8.93958 25.7657  11
  -4  -3  -4 13.0427 17.4661  35
  -4  -3  -4-24.6700 21.6237   9
  -4  -3  -4 20.0073 35.8618  34
  -4  -3  -5 119.791 37.2727  30
  -4  -3  -5 123.616 36.7774   8
  -4  -3  -5 183.654 46.2820  28
  -4  -3  -5 160.900 43.0160  11
  -4  -3  -5 166.803 34.9481  35
  -4  -3  -5 188.120 37.6795   9
  -4  -3  -5 143.731 45.4559  34
  -4  -3  -6 594.166 71.2665  28
  -4  -3  -6 515.529 73.0198  11
  -4  -3  -6 579.313 81.3968  34
  -4  -3  -7 4.51290 15.7301  28
  -4  -3  -7-16.3796 19.4378  11
  -4  -3  -7 21.6767 26.2149  34
  -4  -3  -8 2787.53 121.800  28
  -4  -3  -8 2762.83 143.582  11
  -4  -3  -8 3055.94 154.382  34
  -4  -4  10-2.89839 13.2618  29
  -4  -4  10-6.29641 11.7878  33
  -4  -4   9 28.9478 21.1390  29
  -4  -4   9 30.8507 20.2728  35
  -4  -4   9 48.9353 19.7103  33
  -4  -4   8 442.673 56.0966  29
  -4  -4   8 362.814 59.6689  28
  -4  -4   8 451.869 54.5932  40
  -4  -4   8 437.103 48.5597   9
  -4  -4   8 439.968 52.2986  35
  -4  -4   8 434.743 51.2115  33
  -4  -4   7-8.53286 16.4203  29
  -4  -4   7 33.6985 31.7812  28
  -4  -4   7 12.5297 16.5785  40
  -4  -4   7 21.7514 19.8684  35
  -4  -4   7-12.3738 18.0451   9
  -4  -4   7-13.0877 15.7741  33
  -4  -4   6 33.3814 20.8727  29
  -4  -4   6 38.2781 29.0700  28
  -4  -4   6 59.3281 28.1186  40
  -4  -4   6 59.2438 26.8192  35
  -4  -4   6 41.9235 30.4134  34
  -4  -4   6 43.8309 21.9160   9
  -4  -4   5 2784.84 139.397  29
  -4  -4   5 2895.13 176.119  28
  -4  -4   5 2776.13 160.877  40
  -4  -4   5 2642.95 145.038   9
  -4  -4   5 2678.21 152.922  35
  -4  -4   5 2810.64 174.558  34
  -4  -4   4 786.106 73.0515  29
  -4  -4   4 830.907 96.1833  28
  -4  -4   4 850.489 91.3023  40
  -4  -4   4 822.636 85.1016   9
  -4  -4   4 799.535 88.3396  35
  -4  -4   4 852.987 99.6122  34
  -4  -4   4 531.607 79.3113  31
  -4  -4   3 1039.73 80.2628  29
  -4  -4   3 995.220 106.508  28
  -4  -4   3 1074.23 104.481  40
  -4  -4   3 1131.30 100.153   9
  -4  -4   3 1121.81 103.874  35
  -4  -4   3 1185.76 118.873  34
  -4  -4   3 816.569 106.024  31
  -4  -4   2 39.3554 27.6613  28
  -4  -4   2 72.0265 32.1444  40
  -4  -4   2 69.9364 34.0037  35
  -4  -4   2 51.0944 32.9807  34
  -4  -4   2 59.6958 28.9317   9
  -4  -4   1 1456.04 129.025  28
  -4  -4   1 1363.46 117.386  40
  -4  -4   1 1519.39 116.006   9
  -4  -4   1 1560.87 123.142  35
  -4  -4   1 1496.93 133.061  34
  -4  -4   0 42.7382 31.7516  28
  -4  -4   0-4.09675 17.4884  11
  -4  -4   0 41.6126 27.4368  40
  -4  -4   0 51.3320 26.0897  35
  -4  -4   0 58.6917 34.0970  34
  -4  -4   0 81.5315 36.1412   9
  -4  -4  -1 351.932 63.3643  28
  -4  -4  -1 383.188 59.0837  11
  -4  -4  -1 391.368 62.0849  40
  -4  -4  -1 466.670 62.4426   9
  -4  -4  -1 444.143 64.1410  35
  -4  -4  -1 427.593 72.0393  34
  -4  -4  -2 1993.42 142.339  28
  -4  -4  -2 1732.77 123.175  11
  -4  -4  -2 1909.10 115.692   9
  -4  -4  -2 2007.99 127.588  35
  -4  -4  -2 1953.97 146.890  34
  -4  -4  -3 1737.23 127.477  28
  -4  -4  -3 1543.84 113.435  11
  -4  -4  -3 1726.49 103.178   9
  -4  -4  -3 1794.71 113.735  35
  -4  -4  -3 1608.88 128.889  34
  -4  -4  -4 1393.76 109.529  28
  -4  -4  -4 1059.20 93.0375  11
  -4  -4  -4 1345.98 82.8369   9
  -4  -4  -4 1342.68 90.4614  35
  -4  -4  -4 1176.78 107.199  34
  -4  -4  -5 1176.20 93.0906  28
  -4  -4  -5 1136.02 73.4675  35
  -4  -4  -5 1125.13 97.4707  34
  -4  -4  -6 43.6257 19.2085  28
  -4  -4  -6 33.3312 16.5975  11
  -4  -4  -6 77.2310 27.7071  34
  -4  -5   7 129.277 25.2805  29
  -4  -5   7 101.413 29.2982  28
  -4  -5   7 90.3157 20.7972  35
  -4  -5   7 138.537 26.5439   9
  -4  -5   6 109.670 23.8034  29
  -4  -5   6 90.4836 30.8651  28
  -4  -5   6 121.740 30.7042  40
  -4  -5   6 107.741 26.4071  35
  -4  -5   6 107.248 26.6648   9
  -4  -5   5 24.3388 19.8983  28
  -4  -5   5 52.6816 21.3215  40
  -4  -5   5 34.3887 20.3331  35
  -4  -5   5 30.8286 25.0726  34
  -4  -5   5 26.0112 16.1907   9
  -4  -5   4 1562.81 114.656  28
  -4  -5   4 1515.52 107.342  40
  -4  -5   4 1460.92 97.8648   9
  -4  -5   4 1457.71 99.7542  35
  -4  -5   4 1376.34 109.205  34
  -4  -5   3 624.877 74.4822  28
  -4  -5   3 703.769 74.8171  40
  -4  -5   3 717.924 70.7399   9
  -4  -5   3 730.712 72.9184  35
  -4  -5   3 712.314 79.7565  34
  -4  -5   2 152.350 42.0422  28
  -4  -5   2 118.142 33.8198  40
  -4  -5   2 102.970 31.2728  35
  -4  -5   2 155.431 39.2925  34
  -4  -5   2 140.972 33.2206   9
  -4  -5   1 280.316 50.1503  28
  -4  -5   1 284.851 48.2424  40
  -4  -5   1 231.165 42.1672  35
  -4  -5   1 276.957 50.0922  34
  -4  -5   1 291.700 44.7655   9
  -4  -5   0 116.760 32.4984  28
  -4  -5   0 101.422 27.5846  40
  -4  -5   0 129.060 31.8241  35
  -4  -5   0 107.898 34.5681  34
  -4  -5   0 149.288 34.1507   9
  -4  -5  -1 22.6454 18.6168  28
  -4  -5  -1 8.97512 14.8043  35
  -4  -5  -1 11.7583 18.6129  34
  -4  -5  -1 6.46065 14.1892   9
  -4  -5  -2 124.542 31.3960  28
  -4  -5  -2 79.1951 24.1245  11
  -4  -5  -2 107.247 26.9226  35
  -4  -5  -2 125.333 32.2117  34
  -4  -5  -2 113.636 23.9160   9
  -4  -5  -3 53.9104 21.5629  28
  -4  -5  -3 26.6313 15.5980  11
  -4  -5  -3 59.3388 19.7039  35
  -4  -5  -3 43.2797 22.0384  34
  -5   6   4 27.7172 16.5398  24
  -5   6   4 185.363 37.8656  32
  -5   6   3 2.99301 12.8099  24
  -5   6   3-7.52246 13.2220  32
  -5   6   2 1289.99 81.1081  30
  -5   6   2 1406.59 96.1492  24
  -5   6   2 1363.76 92.0767  32
  -5   6   1 973.895 76.3171  30
  -5   6   1 935.753 79.6314  24
  -5   6   1 904.600 74.6809  32
  -5   6   0 633.416 59.9844   8
  -5   6   0 743.332 69.5502  30
  -5   6   0 714.662 69.6672  24
  -5   6   0 668.943 63.1655  42
  -5   6   0 649.752 62.7727  32
  -5   6   0 673.915 59.9173  14
  -5   6  -1 336.082 44.8312   8
  -5   6  -1 408.538 54.2049  30
  -5   6  -1 354.116 48.3914  42
  -5   6  -1 371.543 45.4637  32
  -5   6  -1 355.698 46.8530  14
  -5   6  -2 154.993 33.3873  14
  -5   6  -2 99.3934 29.9592  30
  -5   6  -2 117.512 29.8846   8
  -5   6  -2 76.5454 24.4204  42
  -5   6  -2 104.373 23.0511  32
  -5   6  -3 415.736 52.9743   8
  -5   6  -3 415.341 53.2155  30
  -5   6  -3 352.666 47.8033  42
  -5   6  -3 361.517 49.0283  14
  -5   6  -4 1456.34 97.8676   8
  -5   6  -4 1599.93 99.1533  30
  -5   6  -4 1519.98 96.5662  42
  -5   6  -4 1760.60 105.533  14
  -5   6  -5 624.551 62.7917   8
  -5   6  -5 670.794 61.8535  30
  -5   6  -5 738.219 65.0912  42
  -5   6  -5 727.718 67.1067  14
  -5   5   6 1327.10 93.2109  24
  -5   5   6 1324.86 87.6347  32
  -5   5   5 1061.50 88.2723  24
  -5   5   5 1028.69 82.9120  32
  -5   5   4 85.3437 28.9575  24
  -5   5   4 55.7590 24.3358  32
  -5   5   4 6.03771 21.2240  31
  -5   5   3 97.3425 27.2020  30
  -5   5   3 98.3982 29.5338  24
  -5   5   3 127.820 37.7457  32
  -5   5   2 162.806 36.8597  30
  -5   5   2 154.265 32.2951   8
  -5   5   2 177.342 41.1398  24
  -5   5   2 147.751 32.0001  42
  -5   5   2 166.544 40.4926  32
  -5   5   1 22.6128 16.0700  14
  -5   5   1 2.99861 19.4527  30
  -5   5   1-12.0969 16.6050   8
  -5   5   1 9.39966 18.9297  24
  -5   5   1 16.7124 17.0276  42
  -5   5   1-4.73583 16.3032  32
  -5   5   0 13.1117 17.7954  14
  -5   5   0-21.8230 19.0620  30
  -5   5   0 5.73455 18.2620   8
  -5   5   0 1.19649 19.3352  24
  -5   5   0 12.9908 16.6899  42
  -5   5   0 17.3604 20.0002  32
  -5   5  -1 17.1012 19.6616  14
  -5   5  -1 1.50249 19.2440  30
  -5   5  -1 9.76817 19.1662   8
  -5   5  -1 32.1162 24.7012  24
  -5   5  -1-9.38278 17.0066  42
  -5   5  -1 6.32281 15.4341  32
  -5   5  -2 58.7172 28.9411  14
  -5   5  -2 36.1492 23.8961  30
  -5   5  -2 33.0640 23.5375   8
  -5   5  -2 70.4182 29.0070  42
  -5   5  -2 115.254 33.2999  20
  -5   5  -2 20.8642 13.9095  32
  -5   5  -3 311.350 52.5742  14
  -5   5  -3 290.153 51.1060  30
  -5   5  -3 207.557 45.7618   8
  -5   5  -3 310.899 50.9372  42
  -5   5  -3 222.890 36.4926  32
  -5   5  -4 32.5006 25.3663  14
  -5   5  -4 52.6875 24.9511  30
  -5   5  -4 31.6019 25.2463   8
  -5   5  -4 22.4756 19.5439  42
  -5   5  -5 658.464 70.6885   8
  -5   5  -5 766.317 75.4771  30
  -5   5  -5 733.278 72.7880  42
  -5   5  -5 730.009 75.4333  14
  -5   5  -6 76.7980 26.7169  14
  -5   5  -6 106.600 26.8736  30
  -5   5  -6 97.2410 29.7103   8
  -5   5  -6 104.582 27.6941  42
  -5   5  -7 18.9105 18.3144  14
  -5   5  -7 10.0023 14.5869  30
  -5   5  -7-12.7300 18.5244   8
  -5   5  -7-0.85039 10.6799  42
  -5   5  -7-24.1190 18.1985  20
  -5   4   8 176.054 36.0712  24
  -5   4   8 209.838 32.5901  32
  -5   4   7 1290.25 98.5159  24
  -5   4   7 1394.66 92.3425  32
  -5   4   6 134.477 37.0600  24
  -5   4   6 155.272 37.6405  32
  -5   4   5 386.205 59.3347  24
  -5   4   5 399.938 58.4618  32
  -5   4   4-1.46276 18.0823  24
  -5   4   4 13.2034 21.4803  32
  -5   4   3 924.072 82.0208  30
  -5   4   3 859.061 90.2151  24
  -5   4   3 876.139 78.0382  42
  -5   4   3 1005.77 96.6262  32
  -5   4   3 939.189 78.3352  14
  -5   4   3 1040.01 83.3554   8
  -5   4   2 1770.50 115.789  30
  -5   4   2 1737.08 125.321  24
  -5   4   2 1748.42 116.080  42
  -5   4   2 1812.40 129.720  32
  -5   4   2 1837.83 118.036  14
  -5   4   2 1731.32 114.897   8
  -5   4   1 1518.08 112.799  30
  -5   4   1 1481.44 114.280  24
  -5   4   1 1553.20 113.276  42
  -5   4   1 1471.50 116.320  32
  -5   4   1 1603.38 114.272  14
  -5   4   1 1562.66 114.707   8
  -5   4   0 2435.44 151.350   8
  -5   4   0 2140.31 138.988  30
  -5   4   0 2296.73 138.296  24
  -5   4   0 2394.62 144.154  42
  -5   4   0 2539.83 149.360  32
  -5   4   0 2654.33 153.233  14
  -5   4  -1 483.412 69.5456   8
  -5   4  -1 454.388 67.7803  30
  -5   4  -1 443.273 59.9347  24
  -5   4  -1 500.637 68.1137  42
  -5   4  -1 464.689 64.8004  32
  -5   4  -1 488.387 69.6921  14
  -5   4  -2 2485.46 155.348   8
  -5   4  -2 2284.66 145.668  30
  -5   4  -2 2123.39 124.992  24
  -5   4  -2 2155.85 138.272  42
  -5   4  -2 2297.39 133.140  32
  -5   4  -2 2454.29 153.157  14
  -5   4  -3 1005.50 97.4953   8
  -5   4  -3 888.628 92.5479  30
  -5   4  -3 913.582 90.4827  42
  -5   4  -3 959.589 82.2042  32
  -5   4  -3 989.665 97.5732  14
  -5   4  -4 2018.76 137.062   8
  -5   4  -4 2080.46 135.488  30
  -5   4  -4 2200.71 135.953  42
  -5   4  -4 1977.13 107.602  32
  -5   4  -4 2343.74 148.292  14
  -5   4  -5 2.97729 23.0340  14
  -5   4  -5 41.8139 31.1576  30
  -5   4  -5 7.06043 20.6368   8
  -5   4  -5 12.1208 19.5983  42
  -5   4  -5 6.18066 20.3416  20
  -5   4  -6 2121.21 126.080  30
  -5   4  -6 1952.63 118.108  42
  -5   4  -6 2009.04 126.616  14
  -5   4  -6 1823.23 118.593   8
  -5   4  -7 220.330 42.1441  14
  -5   4  -7 257.420 44.4213  30
  -5   4  -7 178.799 36.6834   8
  -5   4  -7 240.363 40.2028  42
  -5   4  -8 195.504 35.7680  14
  -5   4  -8 169.810 32.1456  30
  -5   4  -8 90.5110 24.1741   8
  -5   3   9 223.917 39.4206  24
  -5   3   9 211.543 30.9131  33
  -5   3   9 203.431 29.9303  32
  -5   3   9 160.143 49.0193  31
  -5   3   8 102.925 32.5111  24
  -5   3   8 75.1050 23.0218  33
  -5   3   8 121.520 28.6867  32
  -5   3   7 1259.55 102.696  24
  -5   3   7 1182.77 91.0606  33
  -5   3   7 1377.48 97.3334  32
  -5   3   6 1946.92 131.489  24
  -5   3   6 1877.59 122.811  33
  -5   3   6 2090.64 127.645  32
  -5   3   5 836.759 87.9465  24
  -5   3   5 897.495 89.8063  33
  -5   3   5 902.454 89.4842  32
  -5   3   5 991.294 135.236  31
  -5   3   4 651.918 64.0795  30
  -5   3   4 725.085 82.7187  24
  -5   3   4 736.938 72.6995  42
  -5   3   4 677.724 80.4534  33
  -5   3   4 794.631 87.2413  32
  -5   3   4 593.567 66.4368  14
  -5   3   4 579.942 65.5041   8
  -5   3   4 440.793 90.3338  31
  -5   3   3 330.910 52.4169  30
  -5   3   3 355.416 59.1554  24
  -5   3   3 321.114 51.3281  42
  -5   3   3 302.485 57.2236  33
  -5   3   3 264.430 54.2413  32
  -5   3   3 371.326 59.0697  14
  -5   3   3 434.629 60.4167   8
  -5   3   2 50.4834 22.2580  14
  -5   3   2 43.7974 21.8197  30
  -5   3   2 16.4676 19.2908   8
  -5   3   2 43.4508 24.4453  24
  -5   3   2 27.7243 19.0856  42
  -5   3   2 28.3130 26.0562  33
  -5   3   2 19.4547 24.5662  32
  -5   3   2 123.564 58.9526  31
  -5   3   1 166.587 45.5176  14
  -5   3   1 195.215 44.5705  30
  -5   3   1 186.001 45.2450   8
  -5   3   1 220.332 48.3344  24
  -5   3   1 235.055 49.1119  42
  -5   3   1 193.871 47.9572  33
  -5   3   1 157.957 38.5782  32
  -5   3   0 1907.63 133.174  30
  -5   3   0 1759.33 119.176  24
  -5   3   0 1481.32 120.441  42
  -5   3   0 1954.25 136.653  32
  -5   3   0 1979.79 139.410  14
  -5   3   0 2043.51 140.950   8
  -5   3  -1 228.657 53.7435  14
  -5   3  -1 187.976 46.4742  30
  -5   3  -1 152.320 43.9371   8
  -5   3  -1 142.513 34.7889  24
  -5   3  -1 136.439 39.2470  42
  -5   3  -1 146.157 37.1644  32
  -5   3  -2 289.542 58.6849  14
  -5   3  -2 316.269 60.8347  30
  -5   3  -2 355.481 64.8922   8
  -5   3  -2 253.799 41.1645  24
  -5   3  -2 327.245 60.4039  42
  -5   3  -2 350.053 58.8376  32
  -5   3  -3 1562.14 123.811  30
  -5   3  -3 1548.78 120.429  42
  -5   3  -3 1440.73 107.248  32
  -5   3  -3 1623.75 128.855  14
  -5   3  -3 1504.88 123.874   8
  -5   3  -4 458.431 69.7012  30
  -5   3  -4 559.307 71.9833  42
  -5   3  -4 467.681 57.1960  32
  -5   3  -4 475.511 73.5793  14
  -5   3  -4 483.216 70.7645   8
  -5   3  -5 4677.56 205.048  30
  -5   3  -5 4935.99 202.905  42
  -5   3  -5 4982.50 214.473  14
  -5   3  -5 4654.26 204.834   8
  -5   3  -6 32.1693 23.8245  14
  -5   3  -6 6.38661 20.9338  30
  -5   3  -6-1.83305 17.2880   8
  -5   3  -6-4.15137 18.8341  42
  -5   3  -7 149.663 37.6782  14
  -5   3  -7 83.4646 28.2758  30
  -5   3  -7 110.168 30.9909   8
  -5   3  -7 87.2516 23.0690  42
  -5   3  -8 862.445 73.3004  30
  -5   3  -8 913.709 70.5862  42
  -5   3  -8 857.405 74.0812  14
  -5   3  -9 3.17227 9.66074  14
  -5   3  -9-1.02599 12.0409  30
  -5   3  -9-34.6474 14.8171   8
  -5   3  -9 4.63456 15.4647  20
  -5   2  10 14.5747 14.8465  24
  -5   2  10-5.16808 9.99784  33
  -5   2   9 2483.37 131.707  24
  -5   2   9 2460.72 123.466  33
  -5   2   8 421.139 59.4438  24
  -5   2   8 398.691 55.2508  33
  -5   2   8 401.361 49.5322  32
  -5   2   7-3.19787 20.1575  29
  -5   2   7-7.51219 18.1368  24
  -5   2   7 13.5365 21.1298  33
  -5   2   7-10.2292 15.2173  32
  -5   2   6 1148.90 103.784  29
  -5   2   6 1172.44 101.448  24
  -5   2   6 1279.81 110.231  33
  -5   2   6 1285.63 102.432  32
  -5   2   5 9.36858 13.0063   8
  -5   2   5 8.33400 24.9208  29
  -5   2   5 28.7681 21.3904  24
  -5   2   5 34.3148 24.2726  33
  -5   2   5 18.8735 20.4177  32
  -5   2   5 22.2169 59.1406  31
  -5   2   4 194.681 36.7170  30
  -5   2   4 230.759 44.4916   8
  -5   2   4 175.960 45.4060  29
  -5   2   4 178.444 41.5350  24
  -5   2   4 211.564 42.3452  42
  -5   2   4 199.444 51.0449  33
  -5   2   4 233.048 51.1335  32
  -5   2   4 15.8378 61.8555  31
  -5   2   3 480.511 61.2921  30
  -5   2   3 559.785 77.1710  29
  -5   2   3 480.437 64.2491  24
  -5   2   3 500.057 66.9533  42
  -5   2   3 489.184 74.9620  33
  -5   2   3 501.488 72.5133  32
  -5   2   3 461.406 65.7070  14
  -5   2   3 597.666 73.0921   8
  -5   2   2 3114.32 161.278  30
  -5   2   2 2832.71 151.454  24
  -5   2   2 3356.40 177.139  42
  -5   2   2 3275.53 186.058  33
  -5   2   2 3425.03 186.403  32
  -5   2   2 3202.30 173.205  14
  -5   2   2 3240.37 174.827   8
  -5   2   1 945.888 92.1288  30
  -5   2   1 916.038 83.2758  24
  -5   2   1 953.006 95.4095  42
  -5   2   1 1029.85 105.961  33
  -5   2   1 976.292 100.569  32
  -5   2   1 1022.60 101.938  14
  -5   2   1 1148.35 108.030   8
  -5   2   0 293.049 58.1659  14
  -5   2   0 304.818 58.0126  30
  -5   2   0 294.836 59.7606   8
  -5   2   0 318.853 59.1902  42
  -5   2   0 289.094 58.8560  33
  -5   2   0 258.417 53.4672  32
  -5   2   0 232.648 67.5457  31
  -5   2  -1 12019.7 341.262  30
  -5   2  -1 12315.0 350.229  42
  -5   2  -1 11832.8 335.500  32
  -5   2  -1 12129.9 357.269  14
  -5   2  -1 12695.0 362.302   8
  -5   2  -2 4192.00 203.634  30
  -5   2  -2 4083.27 202.021  42
  -5   2  -2 4037.54 191.516  32
  -5   2  -2 4345.64 214.925  14
  -5   2  -2 4279.34 212.788   8
  -5   2  -3 50.4846 30.1850  14
  -5   2  -3 55.2617 30.1255  30
  -5   2  -3 99.0937 39.9421   8
  -5   2  -3 84.2886 34.5521  42
  -5   2  -3 74.6338 32.4433  32
  -5   2  -3 53.3072 32.3780  31
  -5   2  -4 2512.45 156.458  30
  -5   2  -4 2329.17 145.888  42
  -5   2  -4-6.12040 17.6160  20
  -5   2  -4 2385.69 134.260  32
  -5   2  -4 2579.11 161.240  14
  -5   2  -4 5.22711 21.1914  31
  -5   2  -4 2457.14 156.099   8
  -5   2  -5 903.147 92.1711  30
  -5   2  -5 869.430 86.1457  42
  -5   2  -5 929.966 76.8198  32
  -5   2  -5 967.626 97.2149  14
  -5   2  -5 919.231 92.3146   8
  -5   2  -6 304.456 53.2699  14
  -5   2  -6 280.589 50.9816  30
  -5   2  -6 256.674 46.3834   8
  -5   2  -6 292.294 48.3020  42
  -5   2  -7 1120.95 93.6353  30
  -5   2  -7 1112.07 84.8710  42
  -5   2  -7 1162.56 94.6729  14
  -5   2  -8-15.8874 17.2173  14
  -5   2  -8 5.87495 13.6961  30
  -5   2  -8 7.92908 13.6386   8
  -5   2  -8 10.7954 18.4642  20
  -5   2  -9 156.089 29.2589  30
  -5   1  10 451.270 50.0377  29
  -5   1  10 452.836 52.1552  24
  -5   1  10 408.994 49.8976  33
  -5   1   9 295.499 46.3252  29
  -5   1   9 301.966 46.4540  24
  -5   1   9 259.095 45.6435  33
  -5   1   8 109.728 34.5440  29
  -5   1   8 90.1713 28.3564  24
  -5   1   8 102.946 33.1595  33
  -5   1   8 102.048 27.3167  32
  -5   1   8 6.68525 36.5814  31
  -5   1   7 864.411 86.0861  29
  -5   1   7 817.792 80.9724  24
  -5   1   7 846.716 89.6953  33
  -5   1   7 904.950 80.9222  32
  -5   1   6 861.916 90.3079  29
  -5   1   6 807.539 80.7441  24
  -5   1   6 820.681 92.6663  33
  -5   1   6 917.059 86.6226  32
  -5   1   5 3881.56 191.880  29
  -5   1   5 3562.59 167.809  24
  -5   1   5 3745.60 197.269  33
  -5   1   5 3859.52 184.503  32
  -5   1   5 3394.16 162.313   8
  -5   1   4 440.790 55.3083  30
  -5   1   4 512.138 69.8268  29
  -5   1   4 414.884 55.2243  24
  -5   1   4 493.911 64.5602  42
  -5   1   4 575.662 79.6389  33
  -5   1   4 484.718 69.6582  32
  -5   1   4 497.683 66.3021   8
  -5   1   3 2045.88 124.580  30
  -5   1   3 2369.38 149.939  29
  -5   1   3 2070.11 121.381  24
  -5   1   3 2268.88 144.618  42
  -5   1   3 2225.86 153.440  33
  -5   1   3 2404.33 154.068  32
  -5   1   3 2090.59 140.008   8
  -5   1   2 556.539 68.9686  30
  -5   1   2 538.834 72.1529  29
  -5   1   2 669.015 81.4752  42
  -5   1   2 529.434 78.7121  35
  -5   1   2 572.858 80.6466  33
  -5   1   2 620.850 82.1605  32
  -5   1   2 598.499 78.3513  14
  -5   1   2 491.742 71.7942   8
  -5   1   1 3841.06 184.845  30
  -5   1   1 3930.11 186.997  29
  -5   1   1 3949.31 197.144  42
  -5   1   1 3885.32 196.513  35
  -5   1   1 4182.57 206.903  33
  -5   1   1 4015.21 202.238  32
  -5   1   1 4087.89 205.832  14
  -5   1   1 4155.63 208.828   8
  -5   1   0 5570.05 229.736  30
  -5   1   0 5683.07 238.244  42
  -5   1   0 5312.71 220.736  35
  -5   1   0 5760.19 240.049  33
  -5   1   0 5585.75 237.419  32
  -5   1   0 5798.84 249.747  14
  -5   1   0 6064.04 253.474   8
  -5   1  -1-0.08166 34.7175  14
  -5   1  -1 34.2856 27.9526  30
  -5   1  -1 34.7638 24.1546   8
  -5   1  -1 6.56853 20.2044  42
  -5   1  -1-1.85853 28.2489  35
  -5   1  -1-13.1235 22.6794  33
  -5   1  -1 2.49444 21.5941  32
  -5   1  -1-10.6501 34.8885  31
  -5   1  -2 3544.51 188.982  30
  -5   1  -2 3528.10 186.420  42
  -5   1  -2 3318.88 160.815  35
  -5   1  -2 3411.38 178.422  32
  -5   1  -2 3508.28 196.134  14
  -5   1  -2 3474.73 192.621   8
  -5   1  -3 2792.40 167.388  30
  -5   1  -3 2599.89 157.723  42
  -5   1  -3 2591.78 150.302  32
  -5   1  -3 2574.50 165.136  14
  -5   1  -3 2883.93 172.209   8
  -5   1  -4 4641.88 213.263  30
  -5   1  -4 5256.22 217.787  42
  -5   1  -4 5290.22 203.082  32
  -5   1  -4 5290.82 229.963  14
  -5   1  -4 4826.65 217.565   8
  -5   1  -5 191.524 47.6732  14
  -5   1  -5 137.263 40.6857  30
  -5   1  -5 122.991 36.7001   8
  -5   1  -5 177.445 42.0692  42
  -5   1  -5 125.075 29.3073  32
  -5   1  -6 113.580 34.0010  14
  -5   1  -6 110.900 35.0135  30
  -5   1  -6 87.9003 29.7262   8
  -5   1  -6 117.493 31.3732  42
  -5   1  -7 1985.98 121.996  30
  -5   1  -7 1169.34 91.3191   8
  -5   1  -8 229.742 38.6534  30
  -5   1  -8 65.0629 24.1238   8
  -5   1  -9 58.5904 18.8157  30
  -5   1  -9 8.46996 13.0354  11
  -5   0  10 239.979 38.4231  29
  -5   0  10 238.814 37.2395  24
  -5   0  10 229.010 39.3226  33
  -5   0   9 69.0100 24.8779  29
  -5   0   9 65.2668 21.6736  24
  -5   0   9 81.7937 31.5904  33
  -5   0   9-1.07113 25.4739  31
  -5   0   8 28.8585 21.5049  29
  -5   0   8 5.55710 12.0694  24
  -5   0   8 36.2085 24.1009  33
  -5   0   8 33.7547 14.4658  32
  -5   0   8-2.43407 33.0081  31
  -5   0   7 3068.19 160.285  29
  -5   0   7 2778.08 133.633  24
  -5   0   7 3253.51 169.929  33
  -5   0   7 2984.12 141.913  32
  -5   0   6 68.0125 23.7214   8
  -5   0   6 49.4595 32.9090  29
  -5   0   6 40.4712 18.6277  24
  -5   0   6 22.8046 22.7412  33
  -5   0   6 37.1469 19.2765  32
  -5   0   6-4.63832 36.4264  31
  -5   0   5 74.3473 31.9921   8
  -5   0   5 72.6842 29.0458  29
  -5   0   5 40.4484 39.4098  35
  -5   0   5 93.7007 36.3757  33
  -5   0   5 67.8535 29.7268  32
  -5   0   5-34.7376 39.5055  31
  -5   0   4 493.218 68.7634  29
  -5   0   4 494.544 77.7478  35
  -5   0   4 509.734 74.6452  33
  -5   0   4 463.319 66.2287  32
  -5   0   4 505.395 67.8304   8
  -5   0   3 4613.39 183.245  30
  -5   0   3 4893.95 206.697  29
  -5   0   3 4712.73 203.216   9
  -5   0   3 5119.07 228.975  35
  -5   0   3 5078.06 223.019  33
  -5   0   3 5274.26 225.531  32
  -5   0   3 5066.16 221.314   8
  -5   0   2 1463.91 109.944  30
  -5   0   2 1475.59 112.097  29
  -5   0   2 1539.56 119.088   9
  -5   0   2 1564.94 125.733  35
  -5   0   2 1606.56 124.233  33
  -5   0   2 1661.12 130.164  32
  -5   0   2 1579.50 126.275   8
  -5   0   1 221.068 46.0977  30
  -5   0   1 178.306 46.4930   8
  -5   0   1 206.066 41.3492  29
  -5   0   1 193.215 45.7062  42
  -5   0   1 204.934 53.3264  35
  -5   0   1 143.280 45.5901   9
  -5   0   1 213.797 49.3815  33
  -5   0   1 177.043 49.3228  32
  -5   0   1 27.6406 36.4604  31
  -5   0   0 6867.89 252.379  30
  -5   0   0 6694.69 222.314  29
  -5   0   0 6762.76 260.679  42
  -5   0   0 6884.93 257.378   9
  -5   0   0 7158.88 255.364  35
  -5   0   0 7042.28 247.595  33
  -5   0   0 7294.82 269.288  32
  -5   0   0 7488.96 283.051   8
  -5   0  -1 6649.68 253.247  30
  -5   0  -1 6929.93 261.087  42
  -5   0  -1 6888.63 256.316   9
  -5   0  -1 6402.26 231.367  35
  -5   0  -1 6384.22 229.707  33
  -5   0  -1 6836.00 257.804  32
  -5   0  -1 7218.25 278.664   8
  -5   0  -2 538.889 74.8996  30
  -5   0  -2 439.694 71.2985   8
  -5   0  -2 514.648 72.2686  42
  -5   0  -2 529.099 66.0939  35
  -5   0  -2 487.484 62.2292  34
  -5   0  -2 514.368 71.2515  32
  -5   0  -3 3705.01 190.219  30
  -5   0  -3 3971.50 188.845  42
  -5   0  -3 3368.23 148.265  35
  -5   0  -3 3677.93 168.215  34
  -5   0  -3 3816.61 180.443  32
  -5   0  -3 3773.85 193.068   8
  -5   0  -4 16.7091 28.1963  30
  -5   0  -4 10.2739 22.5809   8
  -5   0  -4 10.2468 19.1157  34
  -5   0  -4-6.10795 19.4620  32
  -5   0  -5 20.7476 21.4851  30
  -5   0  -5 26.2381 16.1986   8
  -5   0  -5 40.1514 17.7973  32
  -5   0  -6 219.692 45.1468  30
  -5   0  -6 160.089 36.5218   8
  -5   0  -7 280.184 45.3776  30
  -5   0  -7 158.168 34.2313   8
  -5   0  -8 14.6470 13.6981  30
  -5  -1   9 488.039 55.8931  29
  -5  -1   9 461.110 56.0153  33
  -5  -1   8 7.19887 19.2289  29
  -5  -1   8 5.22334 17.3604  33
  -5  -1   8-15.5816 24.9264  31
  -5  -1   7 91.6007 30.9227  29
  -5  -1   7 72.6778 28.7753  33
  -5  -1   7 57.4324 20.6015  32
  -5  -1   6 3260.84 159.802  29
  -5  -1   6 3217.87 166.872  35
  -5  -1   6 3261.98 164.291  33
  -5  -1   6 3104.71 147.276  32
  -5  -1   6 3200.80 143.990   8
  -5  -1   5 60.3967 24.4457   8
  -5  -1   5 66.6734 26.5327  29
  -5  -1   5 49.2773 32.2952  35
  -5  -1   5 44.3319 24.0902   9
  -5  -1   5 52.0987 20.4162  33
  -5  -1   5 64.0758 26.2119  32
  -5  -1   5 9.37029 31.0128  31
  -5  -1   4 2056.64 127.083  29
  -5  -1   4 2042.27 126.477  28
  -5  -1   4 2054.38 126.770   9
  -5  -1   4 2004.16 138.540  35
  -5  -1   4 2051.66 131.977  33
  -5  -1   4 2032.37 132.988  32
  -5  -1   4 2093.98 134.201   8
  -5  -1   3 3368.21 160.027  29
  -5  -1   3 3221.61 157.472  28
  -5  -1   3 3275.53 165.239   9
  -5  -1   3 3465.81 181.722  35
  -5  -1   3 3176.99 154.069  34
  -5  -1   3 3372.10 167.042  33
  -5  -1   3 3339.13 174.421  32
  -5  -1   3 3597.66 182.374   8
  -5  -1   3 3136.76 143.977  30
  -5  -1   2 762.583 76.7820  30
  -5  -1   2 881.240 79.8561  29
  -5  -1   2 672.257 71.7922  28
  -5  -1   2 695.400 82.4977   9
  -5  -1   2 784.868 88.2956  35
  -5  -1   2 710.109 75.5456  34
  -5  -1   2 860.346 82.8878  33
  -5  -1   2 842.333 88.9683  32
  -5  -1   2 495.395 100.887  31
  -5  -1   1 819.235 81.9222  30
  -5  -1   1 801.001 72.7218  29
  -5  -1   1 731.598 73.2882  28
  -5  -1   1 773.065 85.6410   9
  -5  -1   1 754.726 82.4707  35
  -5  -1   1 709.029 78.1691  34
  -5  -1   1 807.592 78.3188  33
  -5  -1   1 830.448 90.8928  32
  -5  -1   1 878.864 94.2561   8
  -5  -1   0 455.136 62.1874  30
  -5  -1   0 424.830 64.7829  35
  -5  -1   0 462.950 67.0911   9
  -5  -1   0 381.227 57.4960  34
  -5  -1   0 420.625 54.6045  33
  -5  -1   0 484.427 70.2014  32
  -5  -1   0 536.815 77.5573   8
  -5  -1   0 250.654 87.2526  31
  -5  -1  -1 5.70674 18.0489  30
  -5  -1  -1 8.27125 20.0732   8
  -5  -1  -1-7.26628 20.2975  35
  -5  -1  -1 25.2034 26.1999   9
  -5  -1  -1 1.56378 19.3494  34
  -5  -1  -1 5.83279 23.4546  32
  -5  -1  -1-14.3574 31.6874  31
  -5  -1  -2 1242.67 106.352  30
  -5  -1  -2 1211.45 101.395   9
  -5  -1  -2 1143.64 90.5849  35
  -5  -1  -2 1070.75 95.5911  34
  -5  -1  -2 1272.27 104.759  32
  -5  -1  -2 1145.94 104.960   8
  -5  -1  -3-15.2488 30.5314  30
  -5  -1  -3 1.81871 21.2015   8
  -5  -1  -3 2.33635 17.2968  35
  -5  -1  -3 16.2079 14.8222  34
  -5  -1  -3 10.4101 15.4127  32
  -5  -1  -4 219.525 46.5496  30
  -5  -1  -4 246.818 46.9110   8
  -5  -1  -4 238.371 44.6936  34
  -5  -1  -4 214.780 40.2796  32
  -5  -1  -5 19.8522 20.9904  30
  -5  -1  -5 26.5531 21.5853   8
  -5  -1  -5 15.8119 15.9120  34
  -5  -1  -6 453.469 54.2125  34
  -5  -1  -6 383.441 48.0540   8
  -5  -1  -6 502.318 58.8016  30
  -5  -1  -7 21.0554 14.4311  30
  -5  -1  -7 26.5536 16.5878  34
  -5  -2   8 496.523 54.6309  29
  -5  -2   8 398.930 47.2890  33
  -5  -2   7 96.8850 28.6009  29
  -5  -2   7 144.491 40.3214  35
  -5  -2   7 104.118 27.4488  33
  -5  -2   6 204.712 37.6177  29
  -5  -2   6 153.588 39.2899  35
  -5  -2   6 143.349 29.4895   9
  -5  -2   6 163.478 33.5995  33
  -5  -2   6 208.753 36.7573  32
  -5  -2   6 67.6745 30.4545  31
  -5  -2   5 933.554 78.3967  29
  -5  -2   5 883.304 82.0869  28
  -5  -2   5 927.792 75.9606   9
  -5  -2   5 906.926 85.0634  35
  -5  -2   5 840.112 73.2067  33
  -5  -2   5 912.537 77.2434  32
  -5  -2   5 993.977 83.0116   8
  -5  -2   5 745.818 95.8798  31
  -5  -2   4 29.0071 21.2893   8
  -5  -2   4 59.0779 24.3708  29
  -5  -2   4 4.66598 16.4385  28
  -5  -2   4 39.0949 28.8702  35
  -5  -2   4 28.8636 20.5003  34
  -5  -2   4 37.4083 23.2777   9
  -5  -2   4 24.1118 18.2311  33
  -5  -2   4 26.5748 19.8055  32
  -5  -2   4 20.7305 36.6827  31
  -5  -2   3 3619.21 146.072  29
  -5  -2   3 3531.65 162.642  28
  -5  -2   3 3616.34 163.119   9
  -5  -2   3 3917.73 180.254  35
  -5  -2   3 3703.55 168.207  34
  -5  -2   3 3456.01 141.803  33
  -5  -2   3 3702.86 169.699  32
  -5  -2   3 3889.26 180.107   8
  -5  -2   2 834.782 80.1916  28
  -5  -2   2 869.575 84.6353   9
  -5  -2   2 916.107 88.3992  35
  -5  -2   2 884.089 84.3622  34
  -5  -2   2 1002.41 91.5309  32
  -5  -2   2 994.035 93.7176   8
  -5  -2   2 1161.91 132.103  31
  -5  -2   2 870.174 74.7996  30
  -5  -2   1 2058.61 122.278  28
  -5  -2   1 2413.09 136.543   9
  -5  -2   1 2397.04 138.581  35
  -5  -2   1 2372.36 138.927  34
  -5  -2   1 2418.91 142.215  32
  -5  -2   1 2570.33 151.109   8
  -5  -2   1 2209.25 124.656  30
  -5  -2   0 44.3779 24.2213  30
  -5  -2   0 16.8683 24.8153   8
  -5  -2   0 40.7186 21.2189  28
  -5  -2   0 17.0290 19.4852  35
  -5  -2   0 46.9547 24.0232   9
  -5  -2   0 54.6112 27.5338  34
  -5  -2   0 25.4061 22.7576  32
  -5  -2   0 31.4003 34.7225  31
  -5  -2  -1 763.800 75.3558   9
  -5  -2  -1 775.735 74.3444  35
  -5  -2  -1 831.773 83.4217  34
  -5  -2  -1 778.769 79.2696  32
  -5  -2  -1 752.761 81.3848   8
  -5  -2  -1 857.150 82.0160  30
  -5  -2  -2 1355.31 95.9152   9
  -5  -2  -2 1273.47 88.7802  35
  -5  -2  -2 1268.00 100.568  34
  -5  -2  -2 1351.79 99.6150  32
  -5  -2  -2 1293.40 103.134   8
  -5  -2  -2 1331.24 100.635  30
  -5  -2  -3 1187.67 85.7985   9
  -5  -2  -3 1051.55 73.0178  35
  -5  -2  -3 1054.47 88.0352  34
  -5  -2  -3 1092.25 89.6457   8
  -5  -2  -3 1085.28 89.6813  30
  -5  -2  -4 635.863 66.0759  34
  -5  -2  -4 559.634 59.1465   8
  -5  -2  -4 725.759 70.6792  30
  -5  -2  -5 133.732 30.7897  30
  -5  -2  -5 140.052 32.2585  34
  -5  -3   6 19.5749 11.7710  29
  -5  -3   6 26.7047 18.6820  35
  -5  -3   6 24.4155 15.9155   9
  -5  -3   5 364.575 39.5116  29
  -5  -3   5 388.207 51.4448  28
  -5  -3   5 361.278 43.6465   9
  -5  -3   5 368.737 48.4747  35
  -5  -3   4 1928.25 109.770  28
  -5  -3   4 1842.78 100.767   9
  -5  -3   4 2001.54 112.599  35
  -5  -3   3 543.582 59.4120  28
  -5  -3   3 598.091 60.6698   9
  -5  -3   3 534.290 60.1032  35
  -5  -3   3 553.378 61.3518  34
  -5  -3   2 168.201 37.0455  28
  -5  -3   2 175.230 36.9039  35
  -5  -3   2 130.285 32.2550  34
  -5  -3   2 134.731 32.5811   9
  -5  -3   1 315.393 44.2119  28
  -5  -3   1 376.815 49.1429   9
  -5  -3   1 368.055 49.9135  35
  -5  -3   1 321.094 47.9435  34
  -5  -3   0 59.6252 23.0459  28
  -5  -3   0 76.4503 24.4577  35
  -5  -3   0 74.1271 25.4533   9
  -5  -3   0 94.9966 28.5584  34
  -5  -3  -1 24.5694 16.8017  28
  -5  -3  -1 12.1622 13.9681  35
  -5  -3  -1 39.7681 20.1868   9
  -5  -3  -1 19.3507 16.5053  34
  -5  -3  -2 0.49948 10.5506  35
  -5  -3  -2 24.2424 17.6322   9
  -5  -3  -2 7.56271 13.3603  34
   0   0   0    0.00    0.00   0

TITL exp_1367 in P-1
REM P-1 (#2 in standard setting)
CELL 1.54184   5.016678   7.926383  15.207301  98.9091  92.0598 101.8000
ZERR    3.00   0.000190   0.000457   0.000732   0.0045   0.0035   0.0040
LATT  1
SFAC C H N O
UNIT 33.00 30.00 3.00 3.00
TREF
HKLF 4
END
;
loop_
_space_group_symop_operation_xyz
'x, y, z'
'-x, -y, -z'
loop_
_atom_site_label
_atom_site_type_symbol
_atom_site_fract_x
_atom_site_fract_y
_atom_site_fract_z
_atom_site_U_iso_or_equiv
_atom_site_adp_type
_atom_site_occupancy
_atom_site_site_symmetry_order
_atom_site_calc_flag
_atom_site_refinement_flags_posn
_atom_site_refinement_flags_adp
_atom_site_refinement_flags_occupancy
_atom_site_disorder_assembly
_atom_site_disorder_group
O1 O 0.6754(3) 0.3435(2) 0.96977(9) 0.0665(4) Uani 1 1 d . . . . .
H1O H 0.791(6) 0.410(4) 1.017(2) 0.100 Uiso 1 1 d . U . . .
O2 O 0.9810(2) 0.48540(18) 0.89073(8) 0.0625(4) Uani 1 1 d . . . . .
O3 O 0.8217(2) 0.2514(2) 0.54362(8) 0.0640(4) Uani 1 1 d . . . . .
O4 O 0.0073(2) 0.02065(17) 0.20074(8) 0.0582(4) Uani 1 1 d . . . . .
N1 N 0.3876(2) 0.24244(18) 0.49466(9) 0.0419(3) Uani 1 1 d . . . . .
H1N H 0.231(4) 0.234(2) 0.5114(13) 0.050 Uiso 1 1 d . U . . .
C1 C 0.7638(3) 0.3853(2) 0.89392(11) 0.0448(4) Uani 1 1 d . . . . .
C2 C 0.5747(3) 0.2986(2) 0.81469(11) 0.0471(4) Uani 1 1 d . . . . .
H2A H 0.409327 0.344013 0.818760 0.057 Uiso 1 1 calc R U . . .
H2B H 0.524707 0.174528 0.816865 0.057 Uiso 1 1 calc R U . . .
C3 C 0.6875(3) 0.3218(2) 0.72537(10) 0.0423(4) Uani 1 1 d . . . . .
H3A H 0.851297 0.274892 0.719826 0.051 Uiso 1 1 calc R U . . .
H3B H 0.736577 0.445392 0.721915 0.051 Uiso 1 1 calc R U . . .
C4 C 0.4793(3) 0.2294(2) 0.64939(10) 0.0420(4) Uani 1 1 d . . . . .
H4A H 0.426713 0.106836 0.654625 0.050 Uiso 1 1 calc R U . . .
H4B H 0.317493 0.278474 0.654972 0.050 Uiso 1 1 calc R U . . .
C5 C 0.5818(3) 0.2438(2) 0.55819(10) 0.0404(4) Uani 1 1 d . . . . .
C6 C 0.4187(3) 0.23759(19) 0.40237(10) 0.0378(4) Uani 1 1 d . . . . .
C7 C 0.2087(3) 0.1366(2) 0.34356(10) 0.0413(4) Uani 1 1 d . . . . .
H7 H 0.055844 0.073301 0.365534 0.050 Uiso 1 1 calc R U . . .
C8 C 0.2239(3) 0.1290(2) 0.25249(11) 0.0423(4) Uani 1 1 d . . . . .
C9 C 0.4497(3) 0.2228(2) 0.21877(12) 0.0484(4) Uani 1 1 d . . . . .
H9 H 0.460933 0.218750 0.157603 0.058 Uiso 1 1 calc R U . . .
C10 C 0.6586(3) 0.3228(2) 0.27845(12) 0.0526(4) Uani 1 1 d . . . . .
H10 H 0.811612 0.385669 0.256300 0.063 Uiso 1 1 calc R U . . .
C11 C 0.6477(3) 0.3325(2) 0.36925(12) 0.0456(4) Uani 1 1 d . . . . .
H11 H 0.790496 0.401026 0.407877 0.055 Uiso 1 1 calc R U . . .
C12 C -0.0053(4) 0.0272(3) 0.10823(12) 0.0664(5) Uani 1 1 d . . . . .
H12A H -0.006745 0.144315 0.099372 0.100 Uiso 1 1 calc R U . . .
H12B H -0.168628 -0.050392 0.079943 0.100 Uiso 1 1 calc R U . . .
H12C H 0.151080 -0.007909 0.082644 0.100 Uiso 1 1 calc R U . . .
loop_
_atom_site_aniso_label
_atom_site_aniso_U_11
_atom_site_aniso_U_22
_atom_site_aniso_U_33
_atom_site_aniso_U_23
_atom_site_aniso_U_13
_atom_site_aniso_U_12
O1 0.0615(8) 0.0856(10) 0.0385(7) 0.0074(6) 0.0023(6) -0.0141(7)
O2 0.0517(7) 0.0818(9) 0.0393(7) 0.0068(6) -0.0026(5) -0.0160(6)
O3 0.0280(6) 0.1163(11) 0.0508(7) 0.0163(7) 0.0061(5) 0.0201(6)
O4 0.0569(7) 0.0710(8) 0.0353(6) 0.0046(5) -0.0057(5) -0.0080(6)
N1 0.0237(6) 0.0618(8) 0.0368(7) 0.0003(6) 0.0024(5) 0.0072(5)
C1 0.0416(8) 0.0523(9) 0.0385(9) 0.0045(7) 0.0039(6) 0.0071(7)
C2 0.0371(8) 0.0574(9) 0.0418(9) 0.0045(7) 0.0016(6) 0.0012(7)
C3 0.0298(7) 0.0527(9) 0.0396(9) 0.0023(7) 0.0001(6) 0.0024(6)
C4 0.0277(7) 0.0537(9) 0.0409(9) 0.0026(7) 0.0012(6) 0.0043(6)
C5 0.0256(7) 0.0510(8) 0.0414(9) 0.0006(6) 0.0008(6) 0.0066(6)
C6 0.0297(7) 0.0438(8) 0.0396(8) 0.0027(6) 0.0039(6) 0.0103(5)
C7 0.0312(7) 0.0508(8) 0.0389(8) 0.0063(6) 0.0029(6) 0.0025(6)
C8 0.0397(8) 0.0459(8) 0.0390(8) 0.0040(6) 0.0012(6) 0.0065(6)
C9 0.0492(9) 0.0560(9) 0.0412(9) 0.0107(7) 0.0109(7) 0.0107(7)
C10 0.0393(8) 0.0589(10) 0.0580(11) 0.0158(8) 0.0123(7) 0.0010(7)
C11 0.0326(7) 0.0480(8) 0.0522(10) 0.0047(7) 0.0017(7) 0.0021(6)
C12 0.0728(12) 0.0823(13) 0.0365(10) 0.0059(9) -0.0067(8) 0.0036(10)
loop_
_atom_type_symbol
_atom_type_description
_atom_type_scat_dispersion_real
_atom_type_scat_dispersion_imag
_atom_type_scat_source
C C 0.0181 0.0091 'International Tables Vol C Tables 4.2.6.8 and 6.1.1.4'
H H 0.0000 0.0000 'International Tables Vol C Tables 4.2.6.8 and 6.1.1.4'
N N 0.0311 0.0180 'International Tables Vol C Tables 4.2.6.8 and 6.1.1.4'
O O 0.0492 0.0322 'International Tables Vol C Tables 4.2.6.8 and 6.1.1.4'
loop_
_geom_angle_atom_site_label_1
_geom_angle_atom_site_label_2
_geom_angle_atom_site_label_3
_geom_angle
_geom_angle_site_symmetry_1
_geom_angle_site_symmetry_3
C1 O1 H1O 110.0(18) . .
C8 O4 C12 117.40(13) . .
C5 N1 C6 127.06(12) . .
C5 N1 H1N 115.4(14) . .
C6 N1 H1N 117.3(14) . .
O2 C1 O1 121.90(15) . .
O2 C1 C2 124.42(15) . .
O1 C1 C2 113.69(13) . .
C1 C2 C3 115.12(12) . .
C1 C2 H2A 108.5 . .
C3 C2 H2A 108.5 . .
C1 C2 H2B 108.5 . .
C3 C2 H2B 108.5 . .
H2A C2 H2B 107.5 . .
C2 C3 C4 110.91(12) . .
C2 C3 H3A 109.5 . .
C4 C3 H3A 109.5 . .
C2 C3 H3B 109.5 . .
C4 C3 H3B 109.5 . .
H3A C3 H3B 108.0 . .
C5 C4 C3 113.58(12) . .
C5 C4 H4A 108.8 . .
C3 C4 H4A 108.8 . .
C5 C4 H4B 108.8 . .
C3 C4 H4B 108.8 . .
H4A C4 H4B 107.7 . .
O3 C5 N1 123.28(14) . .
O3 C5 C4 122.07(14) . .
N1 C5 C4 114.63(12) . .
C7 C6 C11 119.55(15) . .
C7 C6 N1 117.78(13) . .
C11 C6 N1 122.66(13) . .
C8 C7 C6 120.69(13) . .
C8 C7 H7 119.7 . .
C6 C7 H7 119.7 . .
O4 C8 C7 115.46(13) . .
O4 C8 C9 124.18(15) . .
C7 C8 C9 120.34(14) . .
C8 C9 C10 118.32(16) . .
C8 C9 H9 120.8 . .
C10 C9 H9 120.8 . .
C11 C10 C9 122.32(14) . .
C11 C10 H10 118.8 . .
C9 C10 H10 118.8 . .
C10 C11 C6 118.78(14) . .
C10 C11 H11 120.6 . .
C6 C11 H11 120.6 . .
O4 C12 H12A 109.5 . .
O4 C12 H12B 109.5 . .
H12A C12 H12B 109.5 . .
O4 C12 H12C 109.5 . .
H12A C12 H12C 109.5 . .
H12B C12 H12C 109.5 . .
loop_
_geom_bond_atom_site_label_1
_geom_bond_atom_site_label_2
_geom_bond_distance
_geom_bond_site_symmetry_2
O1 C1 1.316(2) .
O1 H1O 0.93(3) .
O2 C1 1.2171(19) .
O3 C5 1.2227(17) .
O4 C8 1.3729(18) .
O4 C12 1.415(2) .
N1 C5 1.344(2) .
N1 C6 1.413(2) .
N1 H1N 0.83(2) .
C1 C2 1.489(2) .
C2 C3 1.513(2) .
C2 H2A 0.9700 .
C2 H2B 0.9700 .
C3 C4 1.517(2) .
C3 H3A 0.9700 .
C3 H3B 0.9700 .
C4 C5 1.509(2) .
C4 H4A 0.9700 .
C4 H4B 0.9700 .
C6 C7 1.384(2) .
C6 C11 1.395(2) .
C7 C8 1.382(2) .
C7 H7 0.9300 .
C8 C9 1.383(2) .
C9 C10 1.386(2) .
C9 H9 0.9300 .
C10 C11 1.375(2) .
C10 H10 0.9300 .
C11 H11 0.9300 .
C12 H12A 0.9600 .
C12 H12B 0.9600 .
C12 H12C 0.9600 .
loop_
_geom_torsion_atom_site_label_1
_geom_torsion_atom_site_label_2
_geom_torsion_atom_site_label_3
_geom_torsion_atom_site_label_4
_geom_torsion
_geom_torsion_site_symmetry_1
_geom_torsion_site_symmetry_2
_geom_torsion_site_symmetry_3
_geom_torsion_site_symmetry_4
O2 C1 C2 C3 8.5(3) . . . .
O1 C1 C2 C3 -171.27(15) . . . .
C1 C2 C3 C4 -179.78(14) . . . .
C2 C3 C4 C5 -178.56(13) . . . .
C6 N1 C5 O3 4.5(3) . . . .
C6 N1 C5 C4 -173.66(14) . . . .
C3 C4 C5 O3 32.2(2) . . . .
C3 C4 C5 N1 -149.59(14) . . . .
C5 N1 C6 C7 141.30(16) . . . .
C5 N1 C6 C11 -40.0(2) . . . .
C11 C6 C7 C8 0.0(2) . . . .
N1 C6 C7 C8 178.70(14) . . . .
C12 O4 C8 C7 171.30(16) . . . .
C12 O4 C8 C9 -10.5(2) . . . .
C6 C7 C8 O4 178.15(14) . . . .
C6 C7 C8 C9 -0.1(2) . . . .
O4 C8 C9 C10 -177.80(16) . . . .
C7 C8 C9 C10 0.3(2) . . . .
C8 C9 C10 C11 -0.4(3) . . . .
C9 C10 C11 C6 0.3(3) . . . .
C7 C6 C11 C10 -0.1(2) . . . .
N1 C6 C11 C10 -178.70(15) . . . .
