#------------------------------------------------------------------------------
#$Date: 2022-08-24 11:19:59 +0300 (Wed, 24 Aug 2022) $
#$Revision: 277373 $
#$URL: file:///home/coder/svn-repositories/cod/cif/8/10/56/8105690.cif $
#------------------------------------------------------------------------------
#
# This file is available in the Crystallography Open Database (COD),
# http://www.crystallography.net/
#
# All data on this site have been placed in the public domain by the
# contributors.
#
data_8105690
loop_
_publ_author_name
'Zhang, Lilei'
'Mi, Tianyu'
_publ_section_title
;
 The crystal structure of (E)-3-(furan-2-yl)acrylonitrile, C7H5NO
;
_journal_issue                   3
_journal_name_full
'Zeitschrift f\"ur Kristallographie - New Crystal Structures'
_journal_page_first              339
_journal_page_last               340
_journal_paper_doi               10.1515/ncrs-2022-0036
_journal_volume                  237
_journal_year                    2022
_chemical_formula_moiety         'C7 H5 N O'
_chemical_formula_sum            'C7 H5 N O'
_chemical_formula_weight         119.12
_space_group_crystal_system      monoclinic
_space_group_IT_number           14
_space_group_name_Hall           '-P 2yn'
_space_group_name_H-M_alt        'P 1 21/n 1'
_atom_sites_solution_hydrogens   geom
_cell_angle_alpha                90
_cell_angle_beta                 102.591(4)
_cell_angle_gamma                90
_cell_formula_units_Z            4
_cell_length_a                   3.7589(5)
_cell_length_b                   19.493(2)
_cell_length_c                   8.4180(10)
_cell_measurement_reflns_used    2165
_cell_measurement_temperature    170
_cell_measurement_theta_max      26.029
_cell_measurement_theta_min      2.691
_cell_volume                     601.97(12)
_computing_cell_refinement       'SAINT V8.40A (?, 2016) [1]'
_computing_data_reduction        'SAINT V8.40A (?, 2016) [1]'
_computing_molecular_graphics    'Olex2 1.5 (Dolomanov et al., 2009) [2]'
_computing_publication_material  'Olex2 1.5 (Dolomanov et al., 2009) [2]'
_computing_structure_refinement  'SHELXL 2019/2 (Sheldrick, 2015) [3]'
_computing_structure_solution    'ShelXT (Sheldrick, 2015) [4]'
_diffrn_ambient_temperature      170.00
_diffrn_measured_fraction_theta_full 0.998
_diffrn_measured_fraction_theta_max 0.993
_diffrn_measurement_device_type  'Bruker APEX-II CCD'
_diffrn_measurement_method       '\f and \w scans'
_diffrn_radiation_type           MoK\a
_diffrn_radiation_wavelength     0.71073
_diffrn_reflns_av_R_equivalents  0.0749
_diffrn_reflns_av_unetI/netI     0.0530
_diffrn_reflns_Laue_measured_fraction_full 0.998
_diffrn_reflns_Laue_measured_fraction_max 0.993
_diffrn_reflns_limit_h_max       4
_diffrn_reflns_limit_h_min       -4
_diffrn_reflns_limit_k_max       24
_diffrn_reflns_limit_k_min       -24
_diffrn_reflns_limit_l_max       9
_diffrn_reflns_limit_l_min       -10
_diffrn_reflns_number            6761
_diffrn_reflns_point_group_measured_fraction_full 0.998
_diffrn_reflns_point_group_measured_fraction_max 0.993
_diffrn_reflns_theta_full        25.242
_diffrn_reflns_theta_max         26.528
_diffrn_reflns_theta_min         2.089
_exptl_absorpt_coefficient_mu    0.090
_exptl_absorpt_correction_T_max  0.7454
_exptl_absorpt_correction_T_min  0.6400
_exptl_absorpt_correction_type   multi-scan
_exptl_absorpt_process_details
'SADABS-2016/2 (Bruker,2016/2) was used for absorption correction. wR2(int) was 0.1195 before and 0.0697 after correction. The Ratio of minimum to maximum transmission is 0.8586. The \l/2 correction factor is Not present.'
_exptl_crystal_colour            colourless
_exptl_crystal_colour_primary    colourless
_exptl_crystal_density_diffrn    1.314
_exptl_crystal_description       block
_exptl_crystal_F_000             248
_exptl_crystal_size_max          0.15
_exptl_crystal_size_mid          0.12
_exptl_crystal_size_min          0.08
_refine_diff_density_max         0.237
_refine_diff_density_min         -0.287
_refine_diff_density_rms         0.053
_refine_ls_extinction_coef       .
_refine_ls_extinction_method     none
_refine_ls_goodness_of_fit_ref   1.099
_refine_ls_hydrogen_treatment    constr
_refine_ls_matrix_type           full
_refine_ls_number_parameters     82
_refine_ls_number_reflns         1253
_refine_ls_number_restraints     0
_refine_ls_restrained_S_all      1.099
_refine_ls_R_factor_all          0.0764
_refine_ls_R_factor_gt           0.0502
_refine_ls_shift/su_max          0.001
_refine_ls_shift/su_mean         0.000
_refine_ls_structure_factor_coef Fsqd
_refine_ls_weighting_details
'w=1/[\s^2^(Fo^2^)+(0.0523P)^2^+0.2154P] where P=(Fo^2^+2Fc^2^)/3'
_refine_ls_weighting_scheme      calc
_refine_ls_wR_factor_gt          0.1126
_refine_ls_wR_factor_ref         0.1274
_reflns_Friedel_coverage         0.000
_reflns_Friedel_fraction_full    .
_reflns_Friedel_fraction_max     .
_reflns_number_gt                945
_reflns_number_total             1253
_reflns_threshold_expression     'I > 2\s(I)'
_iucr_refine_instructions_details
;
TITL mo_22020062_0m_a.res in P2(1)/n
    mo_22020062_0m.res
    created by SHELXL-2019/2 at 18:00:50 on 20-Jan-2022
REM Old TITL mo_22020062_0m in P2(1)/n
REM SHELXT solution in P2(1)/n
REM R1 0.121, Rweak 0.006, Alpha 0.029, Orientation as input
REM Formula found by SHELXT: C7 N O
CELL 0.71073 3.7589 19.4933 8.418 90 102.591 90
ZERR 4 0.0005 0.0024 0.001 0 0.004 0
LATT 1
SYMM 0.5-X,0.5+Y,0.5-Z
SFAC C H N O
UNIT 28 20 4 4

L.S. 4 0 67
PLAN  5
SIZE 0.15 0.12 0.08
TEMP -103.15
CONF
BOND $H
list 4
fmap 2 53
acta
MORE -1
REM <olex2.extras>
REM <HklSrc "%.\\mo_22020062_0m.hkl">
REM </olex2.extras>

WGHT    0.052300    0.215400
FVAR       1.65299
C1    1    0.395214    0.688363    0.712725    11.00000    0.02694    0.03117 =
         0.02488   -0.00479    0.00420   -0.00014
AFIX  43
H1    2    0.380367    0.709650    0.812593    11.00000   -1.20000
AFIX   0
C2    1    0.469431    0.721583    0.573174    11.00000    0.02771    0.02625 =
         0.03234    0.00183    0.00511   -0.00231
AFIX  43
H2    2    0.513857    0.769072    0.561137    11.00000   -1.20000
AFIX   0
C3    1    0.463818    0.671887    0.461515    11.00000    0.03502    0.02713 =
         0.02810    0.00519    0.00795   -0.00275
AFIX  43
H3    2    0.504792    0.679362    0.355424    11.00000   -1.20000
AFIX   0
C4    1    0.349601    0.620799    0.677041    11.00000    0.02458    0.02885 =
         0.01879   -0.00106    0.00387    0.00206
C5    1    0.262971    0.563437    0.767223    11.00000    0.02339    0.03160 =
         0.01909   -0.00033    0.00327    0.00202
AFIX  43
H5    2    0.217764    0.572413    0.871981    11.00000   -1.20000
AFIX   0
C6    1    0.240047    0.498312    0.717025    11.00000    0.02890    0.03208 =
         0.01943    0.00184    0.00608    0.00102
AFIX  43
H6    2    0.288485    0.487902    0.613531    11.00000   -1.20000
AFIX   0
C7    1    0.145410    0.443704    0.813121    11.00000    0.02952    0.02807 =
         0.02104   -0.00255    0.00292    0.00075
N1    3    0.069508    0.398808    0.887680    11.00000    0.03937    0.03177 =
         0.02603    0.00145    0.00594   -0.00075
O1    4    0.391640    0.609386    0.520496    11.00000    0.03834    0.02647 =
         0.02073   -0.00052    0.00883   -0.00125
HKLF 4




REM  mo_22020062_0m_a.res in P2(1)/n
REM wR2 = 0.1274, GooF = S = 1.099, Restrained GooF = 1.099 for all data
REM R1 = 0.0502 for 945 Fo > 4sig(Fo) and 0.0764 for all 1253 data
REM 82 parameters refined using 0 restraints

END  
     
WGHT      0.0523      0.2154 

REM Highest difference peak  0.237,  deepest hole -0.287,  1-sigma level  0.053
Q1    1   0.1321  0.3400  0.8381  11.00000  0.05    0.24
Q2    1   0.5733  0.7799  0.3976  11.00000  0.05    0.21
Q3    1   0.4727  0.4378  0.7355  11.00000  0.05    0.17
Q4    1   0.4877  0.4995  0.5768  11.00000  0.05    0.17
Q5    1   0.3748  0.7846  0.5041  11.00000  0.05    0.17

  REM The information below was added by Olex2.
  REM
  REM R1 = 0.0502 for 945 Fo > 4sig(Fo) and 0.0764 for all 6910 data
  REM 82 parameters refined using n/a restraints
  REM Highest difference peak 0.24, deepest hole -0.29
  REM Mean Shift 0, Max Shift -0.001.

  REM +++ Tabular Listing of Refinement Information +++
  REM R1_all = 0.0764
  REM R1_gt = 0.0502
  REM wR_ref = 0.1274
  REM GOOF = 1.099
  REM Shift_max = -0.001
  REM Shift_mean = 0
  REM Reflections_all = 6910
  REM Reflections_gt = 945
  REM Parameters = 82
  REM Hole = -0.29
  REM Peak = 0.24
  REM Flack = n/a

  
;
_cod_data_source_file            suppl_j_ncrs-2022-0036_suppl.cif
_cod_data_source_block           mo_22020062_0m
_cod_original_cell_volume        601.98(13)
_cod_database_code               8105690
_shelx_space_group_comment
;
The symmetry employed for this shelxl refinement is uniquely defined
by the following loop, which should always be used as a source of
symmetry information in preference to the above space-group names.
They are only intended as comments.
;
_shelx_estimated_absorpt_t_max   0.993
_shelx_estimated_absorpt_t_min   0.987
_olex2_refinement_description
;
1. Fixed Uiso
 At 1.2 times of:
  All C(H) groups
2.a Aromatic/amide H refined with riding coordinates:
 C1(H1), C2(H2), C3(H3), C5(H5), C6(H6)
;
_olex2_submission_special_instructions 'No special instructions were received'
loop_
_space_group_symop_operation_xyz
'x, y, z'
'-x+1/2, y+1/2, -z+1/2'
'-x, -y, -z'
'x-1/2, -y-1/2, z-1/2'
loop_
_atom_site_label
_atom_site_type_symbol
_atom_site_fract_x
_atom_site_fract_y
_atom_site_fract_z
_atom_site_U_iso_or_equiv
_atom_site_adp_type
_atom_site_occupancy
_atom_site_site_symmetry_order
_atom_site_calc_flag
_atom_site_refinement_flags_posn
_atom_site_refinement_flags_adp
_atom_site_refinement_flags_occupancy
_atom_site_disorder_assembly
_atom_site_disorder_group
C1 C 0.3952(5) 0.68836(10) 0.7127(2) 0.0279(5) Uani 1 1 d . . . . .
H1 H 0.380367 0.709650 0.812593 0.033 Uiso 1 1 calc R U . . .
C2 C 0.4694(5) 0.72158(10) 0.5732(2) 0.0290(5) Uani 1 1 d . . . . .
H2 H 0.513857 0.769072 0.561137 0.035 Uiso 1 1 calc R U . . .
C3 C 0.4638(6) 0.67189(10) 0.4615(2) 0.0299(5) Uani 1 1 d . . . . .
H3 H 0.504792 0.679362 0.355424 0.036 Uiso 1 1 calc R U . . .
C4 C 0.3496(5) 0.62080(10) 0.6770(2) 0.0242(5) Uani 1 1 d . . . . .
C5 C 0.2630(5) 0.56344(10) 0.7672(2) 0.0249(5) Uani 1 1 d . . . . .
H5 H 0.217764 0.572413 0.871981 0.030 Uiso 1 1 calc R U . . .
C6 C 0.2400(5) 0.49831(10) 0.7170(2) 0.0267(5) Uani 1 1 d . . . . .
H6 H 0.288485 0.487902 0.613531 0.032 Uiso 1 1 calc R U . . .
C7 C 0.1454(5) 0.44370(10) 0.8131(2) 0.0266(5) Uani 1 1 d . . . . .
N1 N 0.0695(5) 0.39881(9) 0.8877(2) 0.0326(5) Uani 1 1 d . . . . .
O1 O 0.3916(4) 0.60939(7) 0.52050(15) 0.0281(4) Uani 1 1 d . . . . .
loop_
_atom_site_aniso_label
_atom_site_aniso_U_11
_atom_site_aniso_U_22
_atom_site_aniso_U_33
_atom_site_aniso_U_23
_atom_site_aniso_U_13
_atom_site_aniso_U_12
C1 0.0269(10) 0.0312(11) 0.0249(10) -0.0048(8) 0.0042(8) -0.0001(8)
C2 0.0277(11) 0.0263(11) 0.0323(11) 0.0018(9) 0.0051(8) -0.0023(8)
C3 0.0350(11) 0.0271(11) 0.0281(10) 0.0052(9) 0.0079(9) -0.0028(9)
C4 0.0246(10) 0.0288(11) 0.0188(9) -0.0011(8) 0.0039(7) 0.0021(8)
C5 0.0234(10) 0.0316(11) 0.0191(9) -0.0003(8) 0.0033(7) 0.0020(8)
C6 0.0289(10) 0.0321(12) 0.0194(9) 0.0018(8) 0.0061(8) 0.0010(8)
C7 0.0295(11) 0.0281(11) 0.0210(9) -0.0025(9) 0.0029(8) 0.0007(8)
N1 0.0394(11) 0.0318(10) 0.0260(9) 0.0014(8) 0.0059(8) -0.0008(8)
O1 0.0383(8) 0.0265(8) 0.0207(7) -0.0005(6) 0.0088(6) -0.0013(6)
loop_
_atom_type_symbol
_atom_type_description
_atom_type_scat_dispersion_real
_atom_type_scat_dispersion_imag
_atom_type_scat_source
C C 0.0033 0.0016 'International Tables Vol C Tables 4.2.6.8 and 6.1.1.4'
H H 0.0000 0.0000 'International Tables Vol C Tables 4.2.6.8 and 6.1.1.4'
N N 0.0061 0.0033 'International Tables Vol C Tables 4.2.6.8 and 6.1.1.4'
O O 0.0106 0.0060 'International Tables Vol C Tables 4.2.6.8 and 6.1.1.4'
loop_
_diffrn_refln_index_h
_diffrn_refln_index_k
_diffrn_refln_index_l
_diffrn_refln_intensity_net
_diffrn_refln_intensity_u
-1 0 0 4.5 2.9
-1 0 0 -0.1 2.2
-1 0 0 -1.4 1.8
1 0 0 2.4 3.1
1 0 0 2.6 2.5
1 0 0 -0.1 2.6
-2 0 0 95.49 18.4
-2 0 0 88.29 13
-2 0 0 77.49 16.4
2 0 0 63.69 13.9
2 0 0 117.09 15.7
-3 0 0 1.2 5.8
-3 0 0 5.8 7.3
-3 0 0 11.6 12.2
3 0 0 15 9
3 0 0 -3.2 5.9
3 0 0 -3.6 6.8
-4 0 0 2.9 11.3
4 0 0 18.6 14.2
4 0 0 2.6 14.8
4 -1 0 53.59 21.6
4 -1 0 112.19 23.6
-4 1 0 68.29 21
3 -1 0 19.8 11.8
3 -1 0 4.4 8.4
3 -1 0 3.1 8
-3 1 0 13 7.5
-3 1 0 23.6 14.2
2 -1 0 4698.03 229.78
2 -1 0 4771.12 228.68
2 -1 0 4525.05 227.58
-2 1 0 4641.34 229.48
-2 1 0 4188.88 223.18
-2 1 0 5364.36 234.38
1 -1 0 702.23 41.4
1 -1 0 709.13 41.2
1 -1 0 679.13 40.5
-1 1 0 679.33 39.9
-1 1 0 656.03 40.8
-1 1 0 803.22 42.8
-1 -1 0 650.13 38.9
-1 -1 0 556.24 37.4
-1 -1 0 624.44 37.3
1 1 0 672.73 38.5
1 1 0 694.33 39.5
1 1 0 706.93 38.6
-2 -1 0 4575.04 216.58
-2 -1 0 4032.8 213.98
-2 -1 0 4207.38 210.08
2 1 0 4611.54 214.28
2 1 0 4520.95 214.58
2 1 0 4337.47 215.58
-3 -1 0 13.8 7.1
-3 -1 0 7.6 6.1
-3 -1 0 12.6 11.2
3 1 0 5.8 7.1
3 1 0 16.5 11
3 1 0 -5.2 9.9
-4 -1 0 71.49 19.9
4 1 0 112.29 25.7
4 1 0 91.39 26.1
4 -2 0 13.3 12.2
4 -2 0 -18.3 17.8
-4 2 0 -2.8 12.7
3 -2 0 52.29 15.1
3 -2 0 36.7 14.4
3 -2 0 50.79 16.4
-3 2 0 56.89 15.1
-3 2 0 26.3 15.2
2 -2 0 2796.42 148.09
2 -2 0 3004.1 149.69
2 -2 0 2722.83 146.49
-2 2 0 2902.51 149.69
1 -2 0 3538.95 163.78
1 -2 0 3459.75 163.28
1 -2 0 2994.8 161.68
-1 2 0 3813.62 165.18
-1 2 0 3446.96 162.28
0 -2 0 557.24 31.1
0 -2 0 701.53 33.4
0 2 0 650.73 31.8
0 2 0 713.23 32.9
-1 -2 0 3499.65 167.38
-1 -2 0 3373.96 168.08
1 2 0 3806.62 168.48
1 2 0 3691.03 168.28
1 2 0 3509.55 168.98
-2 -2 0 3028.5 151.68
-2 -2 0 2888.51 146.69
-2 -2 0 2740.53 149.79
2 2 0 3069.79 149.69
2 2 0 2554.94 146.89
2 2 0 3288.47 153.98
-3 -2 0 68.89 16.2
-3 -2 0 48.2 14.9
-3 -2 0 37.5 11.6
3 2 0 53.09 14.7
3 2 0 32.4 14.8
3 2 0 53.09 15.4
-4 -2 0 -10.7 11.3
4 -3 0 7.9 14.1
-4 3 0 32.4 13.9
3 -3 0 37.6 13
3 -3 0 21.8 12.4
3 -3 0 60.69 16.2
-3 3 0 53.59 19
-3 3 0 28.4 10.7
2 -3 0 1996 107.19
2 -3 0 1907.51 106.49
-2 3 0 1946.71 103.69
-2 3 0 1803.72 106.49
1 -3 0 6375.96 301.77
1 -3 0 6430.16 302.27
1 -3 0 6510.65 302.07
-1 3 0 6655.73 303.37
-1 3 0 6998.3 302.27
0 -3 0 0 0.8
0 -3 0 -0.3 1.1
0 3 0 -0.1 0.9
0 3 0 1.9 1.4
-1 -3 0 6086.89 296.17
-1 -3 0 6699.33 297.17
-1 -3 0 6462.75 297.27
1 3 0 6713.83 296.47
1 3 0 6528.35 297.77
-2 -3 0 2017.3 104.89
-2 -3 0 1922.41 107.19
-2 -3 0 1888.41 107.09
2 3 0 1975.2 108.39
2 3 0 1961.7 106.09
-3 -3 0 71.99 15.7
-3 -3 0 37.2 14.2
-3 -3 0 3.9 8.9
3 3 0 26.6 11.5
3 3 0 26.4 16.1
3 3 0 53.29 17.9
-4 -3 0 1.4 12.1
-4 -3 0 11.1 12.7
4 3 0 28.6 15.6
4 -4 0 267.07 38.7
-4 4 0 324.67 55.19
3 -4 0 870.31 66.09
3 -4 0 778.02 63.69
3 -4 0 849.52 64.19
-3 4 0 704.53 62.99
-3 4 0 939.31 62.19
2 -4 0 317.27 29.3
2 -4 0 291.87 29
2 -4 0 250.37 27.2
-2 4 0 281.97 28.4
-2 4 0 284.37 41.7
1 -4 0 248.38 21
1 -4 0 239.98 20.1
-1 4 0 265.27 20.8
-1 4 0 253.67 21.3
0 -4 0 2068.29 93.59
0 -4 0 2019 95.99
0 4 0 1861.61 93.39
0 4 0 2126.29 96.89
-1 -4 0 229.88 19
-1 -4 0 232.88 19.1
1 4 0 252.97 19
1 4 0 252.27 20
-2 -4 0 290.37 28.1
-2 -4 0 213.48 25.9
-2 -4 0 334.87 27.5
2 4 0 282.17 28
2 4 0 321.77 28
-3 -4 0 742.23 62.09
-3 -4 0 824.42 62.89
-3 -4 0 756.62 56.29
3 4 0 933.21 67.19
3 4 0 746.43 59.09
-4 -4 0 235.88 44.1
-4 -4 0 210.98 29.9
4 4 0 239.78 36
4 -5 0 34.6 15.4
-4 5 0 -1.6 11.9
3 -5 0 434.36 43.3
3 -5 0 405.36 40.9
3 -5 0 366.46 40.5
-3 5 0 442.96 39.6
-3 5 0 402.56 44.5
2 -5 0 46.7 12.6
2 -5 0 39.9 12
2 -5 0 28.8 9.7
-2 5 0 24.7 9.5
-2 5 0 39.5 11.7
1 -5 0 1509.05 85.69
1 -5 0 1663.63 85.19
-1 5 0 1661.53 86.19
-1 5 0 1752.22 87.39
0 -5 0 2.3 2.5
0 -5 0 0.3 1.8
0 5 0 2.9 3
0 5 0 3 2.2
-1 -5 0 1602.94 83.29
-1 -5 0 1522.35 82.79
1 5 0 1673.83 84.69
1 5 0 1767.62 83.19
-2 -5 0 28.8 9.6
-2 -5 0 39.8 10.8
-2 -5 0 26.2 9.9
2 5 0 38.1 12.8
2 5 0 53.49 12.4
-3 -5 0 357.46 38.8
-3 -5 0 396.56 40.2
3 5 0 345.87 37.1
3 5 0 360.76 39.7
-4 -5 0 25.9 12.3
-4 -5 0 13.6 12.5
4 5 0 33.5 19.7
4 -6 0 7.7 13
-4 6 0 -2.5 10.2
3 -6 0 24.4 20.1
3 -6 0 0.5 7.8
3 -6 0 8.3 11.1
-3 6 0 5.9 8.9
2 -6 0 1 8.1
2 -6 0 8.3 7
2 -6 0 0.5 7.2
-2 6 0 13.8 6.8
-2 6 0 2.8 6.9
1 -6 0 128.99 14.4
1 -6 0 133.49 15.3
-1 6 0 168.68 16.7
-1 6 0 135.49 15
0 -6 0 703.63 39.6
0 -6 0 697.43 36.4
0 6 0 671.63 40.2
0 6 0 612.44 36.1
-1 -6 0 146.89 14.3
-1 -6 0 128.99 13.4
1 6 0 135.39 13.3
1 6 0 138.79 14.6
-2 -6 0 4.1 5
-2 -6 0 2.8 4.9
-2 -6 0 9.6 6.4
2 6 0 16.7 7.6
2 6 0 18.9 7.8
-3 -6 0 7.6 9.9
-3 -6 0 15.1 8.7
-3 -6 0 8 10.6
3 6 0 33.8 13.2
3 6 0 8.6 12.5
-4 -6 0 34.6 20
-4 -6 0 33.3 14.4
4 6 0 37.1 19.2
4 -7 0 12.8 14.4
-4 7 0 -9.4 10.8
3 -7 0 98.19 22.7
3 -7 0 88.09 27.4
3 -7 0 78.39 22.9
-3 7 0 69.39 17.2
2 -7 0 238.58 27.8
2 -7 0 245.88 26.4
2 -7 0 248.68 27.5
-2 7 0 285.37 28.1
-2 7 0 265.57 29.2
1 -7 0 18.2 5.8
1 -7 0 27.1 8.4
-1 7 0 23.1 7.2
-1 7 0 26.2 7.6
0 -7 0 -1.7 2.1
0 -7 0 3.9 2.1
0 7 0 0.6 2.1
0 7 0 -1 2.3
-1 -7 0 9.8 4.1
-1 -7 0 31.2 7.7
1 7 0 19.6 5.2
1 7 0 15.4 6.2
-2 -7 0 266.37 26.5
-2 -7 0 305.67 28.2
-2 -7 0 318.27 29.5
2 7 0 302.17 29.5
2 7 0 220.78 23.9
-3 -7 0 124.29 18.4
-3 -7 0 37.6 15
-3 -7 0 77.49 20.9
3 7 0 65.99 19.9
-4 -7 0 10.4 14.2
-4 -7 0 0.2 11.5
4 7 0 -4 13.9
4 -8 0 -9.3 12.2
-4 8 0 -22.5 10.1
3 -8 0 14.6 14.1
-3 8 0 16.3 11.4
2 -8 0 13.8 8.5
2 -8 0 12.4 7.7
2 -8 0 1.1 7.7
-2 8 0 13.3 7.9
-2 8 0 10.5 7.7
1 -8 0 402.86 29.4
1 -8 0 368.16 31.1
-1 8 0 388.66 30.3
0 -8 0 7.1 2.7
0 -8 0 2.5 2.9
0 8 0 5.3 3
-1 -8 0 411.46 28.6
1 8 0 358.16 28
-2 -8 0 22.8 8.1
-2 -8 0 6.7 6
-2 -8 0 13.8 7.6
2 8 0 13.2 7.1
2 8 0 10.9 7.5
-3 -8 0 1 9.2
-3 -8 0 11.6 10
3 8 0 16.5 11.4
-4 -8 0 -13.3 10.9
-4 -8 0 17 14.9
4 8 0 17.3 15.8
4 -9 0 16.9 17.3
-4 9 0 25.2 16.7
3 -9 0 221.68 31.4
3 -9 0 236.18 30.8
-3 9 0 208.68 29.9
2 -9 0 202.48 25.5
2 -9 0 184.08 24.2
2 -9 0 209.08 24
-2 9 0 171.28 24.4
-2 9 0 170.18 22.4
1 -9 0 217.48 22.6
-1 9 0 227.58 23.3
-1 9 0 223.68 21.8
0 -9 0 4.3 4.2
0 9 0 3.9 2.8
-1 -9 0 240.88 20.6
1 9 0 237.58 19.5
1 9 0 196.38 19.7
-2 -9 0 196.08 22.6
-2 -9 0 212.28 22
-2 -9 0 173.48 28.3
2 9 0 191.78 23
2 9 0 168.58 20.2
-3 -9 0 235.18 28.9
-3 -9 0 170.88 31.8
3 9 0 207.88 27.5
-4 -9 0 9.1 14.8
-4 -9 0 16 17.4
4 9 0 30.8 17.5
4 -10 0 26.1 27.7
-4 10 0 5.6 13.7
3 -10 0 58.79 17.4
-3 10 0 90.49 21.8
2 -10 0 68.29 16.7
2 -10 0 85.49 17.4
-2 10 0 58.89 16.2
1 -10 0 0.6 4.6
-1 10 0 5.4 5.5
-1 10 0 6.5 5.2
0 -10 0 3023.2 138.69
0 -10 0 2732.53 143.59
-1 -10 0 9.6 5.5
-1 -10 0 4.4 7
1 10 0 7.8 4.9
1 10 0 7.2 4.9
-2 -10 0 125.49 18.3
-2 -10 0 87.89 18.6
-2 -10 0 71.79 16.2
2 10 0 94.69 15.1
2 10 0 106.29 20.4
-3 -10 0 71.89 19
-3 -10 0 95.59 20.6
-3 -10 0 59.59 17.7
3 10 0 73.49 21.2
-4 -10 0 29.8 13.8
4 10 0 23.2 17.4
4 -11 0 33.9 19.9
-4 11 0 37.6 20
3 -11 0 17 13.1
-3 11 0 17.6 13.2
2 -11 0 509.05 49.2
2 -11 0 563.04 43.7
-2 11 0 494.45 45.5
-2 11 0 517.35 44.8
1 -11 0 20.7 9.4
-1 11 0 33.2 10.2
-1 11 0 16.4 8
0 -11 0 6.6 3.7
0 -11 0 4.2 4
-1 -11 0 46.2 11.1
-1 -11 0 35.8 9.3
1 11 0 32.2 8.1
1 11 0 41.2 9.7
-2 -11 0 512.05 42.6
-2 -11 0 522.55 41
2 11 0 538.25 40.5
2 11 0 526.65 43.8
-3 -11 0 36.1 15.6
-3 -11 0 30.8 13.2
3 11 0 10 12.5
-4 -11 0 11 14.6
-4 -11 0 -3.6 19
4 11 0 26.6 14.9
-4 12 0 131.99 31.7
3 -12 0 253.87 31.4
-3 12 0 243.28 34.2
2 -12 0 9.4 9.6
2 -12 0 -8.3 6.5
-2 12 0 -6.6 9.2
-2 12 0 6.5 7.6
1 -12 0 34.1 11.3
1 -12 0 42.8 10.5
-1 12 0 56.19 12.8
-1 12 0 43 11.8
0 -12 0 22.5 6.7
0 -12 0 6.9 6.4
-1 -12 0 48.3 11.9
-1 -12 0 59.29 12.8
1 12 0 48.2 11.3
1 12 0 66.89 14.4
-2 -12 0 9.7 7.9
2 12 0 13.6 9.1
-3 -12 0 190.58 30.4
-3 -12 0 196.08 29.5
3 12 0 265.77 34.2
-4 -12 0 145.39 29.2
-4 -12 0 115.29 32.4
3 -13 0 209.38 30.1
-3 13 0 187.68 29.2
2 -13 0 2.6 10.5
-2 13 0 25.3 13.8
-2 13 0 3.4 9
1 -13 0 197.88 23.1
1 -13 0 151.18 18.5
-1 13 0 169.48 20.7
-1 13 0 166.48 22.8
0 -13 0 2.5 4
0 -13 0 9.1 6.1
-1 -13 0 165.28 20.4
-1 -13 0 163.18 18.7
1 13 0 181.18 19.8
1 13 0 158.88 18.6
-2 -13 0 18.6 8.8
2 13 0 0.9 7.6
2 13 0 11.3 7.3
-3 -13 0 214.78 32.3
-3 -13 0 261.87 34.2
3 13 0 178.38 49.99
3 -14 0 8.1 10.4
-3 14 0 -13.5 8.2
-2 14 0 383.56 41.3
-2 14 0 415.86 40.9
1 -14 0 233.88 28.1
1 -14 0 208.08 23.1
-1 14 0 251.37 29.6
-1 14 0 193.98 23.1
0 -14 0 227.78 21.4
0 -14 0 263.97 27.5
-1 -14 0 233.68 23.6
-1 -14 0 207.88 24.2
1 14 0 259.07 24.9
1 14 0 220.38 22.9
-2 -14 0 417.76 37.3
-2 -14 0 420.56 40.2
2 14 0 423.36 40.4
2 14 0 459.25 37.4
-3 -14 0 0.7 11.6
-3 -14 0 5.2 9.9
3 14 0 16.5 13.2
-3 15 0 -8.6 10.8
-2 15 0 663.83 57.69
-2 15 0 557.14 60.79
1 -15 0 41.5 14.1
1 -15 0 25.4 11
-1 15 0 45.1 12.5
-1 15 0 39.8 13.4
0 -15 0 3.9 6.8
-1 -15 0 35.1 12.2
-1 -15 0 41.9 12.4
1 15 0 37 11.2
1 15 0 42.1 11
-2 -15 0 671.13 54.19
-2 -15 0 630.04 50.69
2 15 0 793.72 53.59
2 15 0 693.63 55.49
-3 -15 0 0.6 15.4
-3 -15 0 37.7 16.2
3 15 0 -12.9 13.7
-3 16 0 40.5 18.1
-2 16 0 616.44 58.39
1 -16 0 46.4 12.2
1 -16 0 50.49 22.6
-1 16 0 27.2 12.4
-1 16 0 60.49 19.9
0 -16 0 458.35 35.8
0 -16 0 547.05 44.6
-1 -16 0 32.4 11.7
1 16 0 44.2 12.6
1 16 0 36.4 11.8
-2 -16 0 606.94 51.29
-2 -16 0 537.35 47.1
2 16 0 666.63 53.09
-3 -16 0 38.7 15.3
-3 -16 0 28.8 17.2
-3 -16 0 21.5 15.8
-3 17 0 9.9 17.5
2 -17 0 48.5 15.6
-2 17 0 44.1 18.3
1 -17 0 249.18 26.4
-1 17 0 181.48 40.6
-1 17 0 226.98 47.4
0 -17 0 2.8 6.7
0 -17 0 4.2 9.1
0 17 0 2.3 6.4
-1 -17 0 264.17 26.5
-1 -17 0 242.58 27.9
1 17 0 221.28 26.6
-2 -17 0 63.09 17.7
2 17 0 87.29 19.8
-3 -17 0 -21.6 13
-3 -17 0 37.4 17.7
3 17 0 -23 13
-3 18 0 -21.3 23.8
2 -18 0 25.9 17.4
-2 18 0 46.1 20.3
1 -18 0 180.98 23.7
-1 18 0 166.48 24.4
0 -18 0 2274.07 114.59
0 18 0 1937.21 112.79
-1 -18 0 192.68 26.1
-1 -18 0 170.08 23
1 18 0 199.78 25.6
1 18 0 198.88 23
-2 -18 0 7.4 10.1
2 18 0 1.3 9.8
-3 -18 0 28.3 17.3
-3 -18 0 42.1 22.3
3 18 0 64.29 23.3
2 -19 0 119.49 25.3
-2 19 0 160.38 32.9
1 -19 0 22.5 10.4
-1 19 0 58.69 17.3
0 -19 0 5.8 7.9
0 19 0 1 10.4
-1 -19 0 45.7 15.1
1 19 0 56.09 15.1
1 19 0 43 15
-2 -19 0 131.09 28.5
2 19 0 109.69 23.2
2 -20 0 68.79 18.4
-2 20 0 26.5 20.6
1 -20 0 32.7 14
0 -20 0 22.8 10.3
0 20 0 15 12.3
-1 -20 0 16.4 11.3
1 20 0 14.8 10.5
-2 -20 0 33 17.7
2 -21 0 53.89 20.5
1 -21 0 193.18 30.2
0 -21 0 0.8 10.4
0 21 0 8.6 12.7
-1 -21 0 199.88 29.6
1 21 0 171.28 27.8
-2 -21 0 50.39 20.4
2 21 0 83.19 24.4
1 -22 0 48.9 15.9
0 -22 0 -19.6 20
-1 -22 0 33.2 14.2
1 22 0 15.1 14.8
1 -23 0 34 14.2
0 -23 0 -5.2 12
-1 -23 0 5.9 12.7
1 23 0 27.4 16.9
0 -24 0 121.59 26.1
0 24 0 116.49 23.3
1 23 -1 81.29 21.7
-1 -23 1 75.09 23
0 -23 1 21.1 13.3
1 -23 1 40.7 22.6
2 22 -1 0 16.1
-2 -22 1 15.6 15.8
1 22 -1 9.2 13.4
0 -22 1 37.9 15
1 -22 1 -11.3 10.7
2 21 -1 3 14.8
-2 -21 1 40.2 17
1 21 -1 80.89 20.9
-1 -21 1 70.29 17.6
0 -21 1 200.78 24.8
1 -21 1 -17.2 9.3
-2 21 -1 144.19 32.1
2 -21 1 81.79 22.8
2 20 -1 -19 11.2
-2 -20 1 19.9 13.4
1 20 -1 65.89 16.9
1 20 -1 112.19 24.4
-1 -20 1 123.89 21.3
0 -20 1 -4.5 7.5
-1 20 -1 -1 12.1
1 -20 1 15.7 11.5
-2 20 -1 78.89 25.1
2 -20 1 101.59 24
2 19 -1 110.79 25.7
-2 -19 1 93.59 37.1
-2 -19 1 46 20.7
1 19 -1 29 11.8
1 19 -1 56.19 15.8
-1 -19 1 81.89 17.7
0 19 -1 18.5 11.7
0 -19 1 -6.7 6.8
-1 19 -1 16.1 11.1
1 -19 1 -4 9.6
-2 19 -1 120.59 28.9
3 18 -1 4.5 15.8
-3 -18 1 39.3 17
-3 -18 1 48.8 19.1
-3 -18 1 25.9 18.4
2 18 -1 22.2 13.9
-2 -18 1 6.8 11
-2 -18 1 2.2 13.1
1 18 -1 50.89 12.3
1 18 -1 43.7 13.6
-1 -18 1 43.5 15.3
-1 -18 1 49.9 12.5
0 -18 1 297.37 26.6
-1 18 -1 1686.43 109.09
1 -18 1 1524.65 90.99
-2 18 -1 101.49 25.4
2 -18 1 86.49 21
3 17 -1 220.78 34.3
-3 -17 1 138.49 29.3
-3 -17 1 168.68 26.5
-3 -17 1 126.89 30.2
2 17 -1 8.4 9.8
2 17 -1 31.4 12.1
-2 -17 1 18.4 16.1
-2 -17 1 1.9 8.8
1 17 -1 150.28 21.5
1 17 -1 148.09 19.1
-1 -17 1 128.09 24.2
-1 -17 1 144.29 19.1
0 -17 1 354.46 28.6
0 -17 1 330.17 35.7
-1 17 -1 91.09 21.9
-1 17 -1 32.3 17
1 -17 1 60.29 14.1
-2 17 -1 40.3 19.7
2 -17 1 32.3 17.7
3 16 -1 -6.9 13.8
-3 -16 1 -15.6 12.7
-3 -16 1 7.3 13.2
-3 -16 1 15.2 12.9
2 16 -1 39.7 11.7
2 16 -1 38 12.4
-2 -16 1 39.1 14.9
-2 -16 1 26.6 11.6
1 16 -1 1215.48 77.29
1 16 -1 1177.88 71.19
-1 -16 1 1223.28 77.09
-1 -16 1 1222.28 71.49
0 -16 1 57.09 15.7
0 -16 1 47.8 10.7
-1 16 -1 377.06 37
-1 16 -1 422.16 42.6
1 -16 1 407.46 33.5
-2 16 -1 138.49 28.7
2 -16 1 150.48 29.9
-3 16 -1 152.18 33.5
3 15 -1 56.09 20.9
-3 -15 1 33.1 16.5
-3 -15 1 25.2 14.6
-3 -15 1 48.5 15.6
2 15 -1 138.59 26.2
2 15 -1 118.29 19
-2 -15 1 157.08 20.8
-2 -15 1 101.89 21.7
1 15 -1 548.65 41.1
1 15 -1 627.34 47.2
-1 -15 1 636.64 47.1
-1 -15 1 620.64 42.5
0 -15 1 108.49 18.1
0 -15 1 117.59 14.3
-1 15 -1 4.3 6.6
1 -15 1 10.8 8.9
1 -15 1 4.3 7
-2 15 -1 -8.3 8.2
2 -15 1 15.1 14.3
-3 15 -1 366.76 42.9
3 14 -1 344.97 43.7
-3 -14 1 336.67 39
-3 -14 1 350.56 36.1
-3 -14 1 299.77 30.7
2 14 -1 3.9 7.3
2 14 -1 1.6 4.5
-2 -14 1 9.5 7.7
-2 -14 1 26 9.7
1 14 -1 862.01 60.69
1 14 -1 958.9 56.99
-1 -14 1 989 57.59
-1 -14 1 930.71 60.89
0 14 -1 440.06 39.6
0 -14 1 460.75 30.6
0 -14 1 377.16 36.2
-1 14 -1 113.09 23.2
-1 14 -1 121.59 18.5
1 -14 1 103.99 14.7
1 -14 1 67.49 18.2
-2 14 -1 38.2 15.3
2 -14 1 49.9 16.9
-3 14 -1 136.79 30.7
3 13 -1 181.38 35.5
-3 -13 1 144.49 21.2
-3 -13 1 197.78 26.4
-3 -13 1 157.78 31.3
2 13 -1 279.87 26.6
2 13 -1 266.57 30.2
-2 -13 1 239.88 28.2
-2 -13 1 284.07 26.5
1 13 -1 4 4.9
1 13 -1 -2.9 4.2
-1 -13 1 2 4.6
0 13 -1 127.29 19
0 -13 1 111.59 12.6
0 -13 1 133.39 18
-1 13 -1 115.99 18.1
-1 13 -1 115.79 19.6
1 -13 1 125.49 21.2
1 -13 1 107.59 15.1
-2 13 -1 48.3 16.3
-2 13 -1 41.7 16.1
2 -13 1 22.8 13.1
3 -13 1 -5.8 9.6
4 12 -1 330.17 48.6
-4 -12 1 168.68 38.2
-4 -12 1 282.57 32.2
3 12 -1 365.46 44.2
-3 -12 1 394.56 42.9
-3 -12 1 400.36 37.4
2 12 -1 151.48 22.3
2 12 -1 206.78 21.1
-2 -12 1 161.98 18.9
-2 -12 1 156.58 22.2
1 12 -1 6.3 5.3
1 12 -1 3.9 4.9
-1 -12 1 1.9 4.7
-1 -12 1 7.6 4.9
0 12 -1 9.7 7
0 -12 1 3.1 3.9
0 -12 1 13 4.3
-1 12 -1 24.3 9.2
-1 12 -1 18 7.2
1 -12 1 8 7.6
-2 12 -1 77.29 18.4
-2 12 -1 66.09 18.9
2 -12 1 69.39 21
2 -12 1 66.09 19
-3 12 -1 12.8 13.6
3 -12 1 9 9.6
4 11 -1 13.7 20
-4 -11 1 10.3 17.5
-4 -11 1 11.3 11.5
3 11 -1 111.39 31.8
-3 -11 1 66.09 32.2
-3 -11 1 115.69 19
2 11 -1 67.49 13
2 11 -1 58.99 16.2
-2 -11 1 71.39 11.8
-2 -11 1 70.19 16.2
1 11 -1 1433.56 78.39
1 11 -1 1263.27 70.49
-1 -11 1 1279.57 74.09
-1 -11 1 1375.56 72.79
0 11 -1 45.9 11.8
0 -11 1 39.4 7.7
0 -11 1 39.4 10.8
-1 11 -1 -5.3 2.5
-1 11 -1 -1 5.3
1 -11 1 -1.5 5.5
-2 11 -1 40.2 14.8
-2 11 -1 9.9 7.6
2 -11 1 2.8 5.9
2 -11 1 6.3 8.4
2 -11 1 8.8 11.3
-3 11 -1 64.49 20.7
3 -11 1 83.89 19.7
4 10 -1 67.99 20.3
-4 -10 1 19.2 19.5
-4 -10 1 28 14.6
3 10 -1 50.59 16.2
-3 -10 1 43.1 15.1
-3 -10 1 55.59 14.1
2 10 -1 559.54 39.2
2 10 -1 502.75 43.2
-2 -10 1 481.55 40.5
-2 -10 1 574.64 42.9
1 10 -1 154.38 18.5
1 10 -1 227.48 18.8
-1 -10 1 184.08 18.5
-1 -10 1 186.68 17.8
0 10 -1 43.2 11.8
0 -10 1 54.99 12
0 -10 1 46.8 6.8
-1 10 -1 1219.88 75.59
-1 10 -1 1256.87 73.59
1 -10 1 1221.08 76.99
-2 10 -1 5.3 7.9
-2 10 -1 -8.8 7.2
2 -10 1 10.5 6
2 -10 1 10 9.5
2 -10 1 4.3 7.5
-3 10 -1 3.3 8.3
3 -10 1 19.7 10.3
-4 10 -1 0.6 16.8
4 -10 1 39 19
4 9 -1 9.3 14.9
-4 -9 1 25 16.9
-4 -9 1 7.3 10.7
3 9 -1 48.1 17.2
-3 -9 1 30.5 19.7
-3 -9 1 40 14.8
-3 -9 1 57.09 15
2 9 -1 532.75 37.8
2 9 -1 492.45 41.7
-2 -9 1 482.65 39.3
-2 -9 1 485.65 39.4
1 9 -1 329.27 23.3
1 9 -1 359.96 28.3
-1 -9 1 332.27 24.6
-1 -9 1 314.97 24.7
0 9 -1 824.42 51.39
0 -9 1 829.72 44.2
0 -9 1 842.52 54.39
-1 9 -1 105.89 14.5
-1 9 -1 81.09 16.6
1 -9 1 85.69 14.5
-2 9 -1 3.6 6.6
-2 9 -1 17 9.1
2 -9 1 11.4 9.4
2 -9 1 7.1 6.7
2 -9 1 12.5 10.1
-3 9 -1 20.2 15.4
3 -9 1 13.5 11
-4 9 -1 40.1 17.6
4 -9 1 56.39 29.7
4 8 -1 8.2 11.2
-4 -8 1 21.5 16.3
-4 -8 1 18 10.9
3 8 -1 -13.7 7.7
3 8 -1 3.1 9.6
-3 -8 1 -10.7 8.6
-3 -8 1 10.8 6.8
-3 -8 1 -9 8
2 8 -1 31.1 11.1
2 8 -1 22.8 8.7
-2 -8 1 32.7 10
-2 -8 1 35.2 9
-2 -8 1 37.3 10.8
1 8 -1 243.28 17.9
1 8 -1 208.98 20.3
-1 -8 1 235.98 18.9
-1 -8 1 192.78 17.5
0 8 -1 378.06 28
0 -8 1 347.07 21.8
0 -8 1 368.06 27.5
-1 8 -1 6.3 4.7
-1 8 -1 1.1 4.3
1 -8 1 10.9 5.6
-2 8 -1 88.09 18.4
-2 8 -1 129.59 25.4
2 -8 1 78.49 16.6
2 -8 1 100.39 21.4
2 -8 1 118.89 17.5
-3 8 -1 71.29 19.1
3 -8 1 52.59 15.6
4 7 -1 8.9 12.6
-4 -7 1 2.9 14.1
3 7 -1 178.18 25.3
3 7 -1 195.88 30.1
-3 -7 1 179.98 26.7
-3 -7 1 234.38 23.3
-3 -7 1 175.48 26.6
2 7 -1 294.97 29.6
2 7 -1 316.27 26.7
-2 -7 1 268.67 26.9
-2 -7 1 268.77 27.2
-2 -7 1 302.37 25
1 7 -1 1480.85 79.69
1 7 -1 1555.14 74.59
-1 -7 1 1498.95 74.79
-1 -7 1 1353.76 74.89
0 7 -1 463.25 30.8
0 -7 1 446.56 30.3
0 -7 1 432.16 24.8
-1 7 -1 124.89 16
-1 7 -1 111.09 16.4
1 -7 1 123.49 16.2
-2 7 -1 31.4 10.6
-2 7 -1 22.9 9.4
2 -7 1 29.1 11.3
2 -7 1 1.9 8.5
2 -7 1 18.1 8.9
-3 7 -1 39.5 14.2
3 -7 1 22.4 10.4
3 -7 1 0.6 14.7
-4 7 -1 30.7 19.6
4 -7 1 -2.9 16.4
4 6 -1 182.08 39.8
-4 -6 1 259.87 37.1
-4 -6 1 236.18 27.7
3 6 -1 102.69 20.4
3 6 -1 104.79 25.2
-3 -6 1 97.79 15.4
-3 -6 1 107.99 23.1
-3 -6 1 179.98 24.3
2 6 -1 27.2 8.4
2 6 -1 22.3 8.3
-2 -6 1 32.9 11.2
-2 -6 1 27.8 9.6
-2 -6 1 28.9 8.8
1 6 -1 181.38 17.5
1 6 -1 157.38 13.7
-1 -6 1 186.88 16.8
-1 -6 1 161.58 14.8
-1 -6 1 159.68 13.5
0 6 -1 109.79 11.6
0 -6 1 101.89 11.3
0 -6 1 104.19 8.3
-1 6 -1 550.84 39.4
-1 6 -1 618.14 40.2
1 -6 1 566.54 36.6
1 -6 1 555.24 40.9
1 -6 1 553.54 37.6
-2 6 -1 402.26 37.9
-2 6 -1 400.96 36.3
2 -6 1 380.96 34.9
2 -6 1 366.96 37.3
2 -6 1 434.36 35.7
-3 6 -1 0.1 9.7
3 -6 1 1.5 11.6
3 -6 1 16.8 11.6
-4 6 -1 -0.9 13.6
4 -6 1 -7.8 14.1
4 5 -1 -12.3 11.9
-4 -5 1 -16.1 9.4
-4 -5 1 -11.2 9.3
3 5 -1 9.8 10.9
3 5 -1 8.4 10.8
-3 -5 1 1.8 8.8
-3 -5 1 4 9.9
-3 -5 1 14.5 7.7
2 5 -1 22.4 9.3
2 5 -1 39 10.1
-2 -5 1 18.7 7
-2 -5 1 40.7 11.5
-2 -5 1 22.9 9.1
1 5 -1 5.5 3.7
1 5 -1 12.4 4.2
-1 -5 1 15.9 4.6
-1 -5 1 11.8 4.8
0 5 -1 1024.7 52.49
0 -5 1 1030.2 52.69
0 -5 1 899.21 46.4
-1 5 -1 493.45 36.1
-1 5 -1 587.74 39.1
1 -5 1 559.94 39.5
1 -5 1 516.45 35.5
1 -5 1 529.15 34.5
-2 5 -1 561.14 46.9
-2 5 -1 622.34 47.5
2 -5 1 641.24 50.69
2 -5 1 593.34 45.2
2 -5 1 594.94 44.9
-3 5 -1 2.1 10.2
3 -5 1 -6.6 8.5
3 -5 1 20 13.5
3 -5 1 21.3 13.5
-4 5 -1 352.06 40.1
4 -5 1 317.97 41.7
4 4 -1 13.2 14.1
-4 -4 1 45.6 13.4
3 4 -1 577.14 48.6
3 4 -1 568.14 51.49
-3 -4 1 554.94 50.29
-3 -4 1 616.24 42.3
-3 -4 1 565.54 50.99
2 4 -1 1050.29 67.19
-2 -4 1 1008.9 64.89
-2 -4 1 1067.79 58.19
-2 -4 1 1014.6 65.39
1 4 -1 1722.03 89.89
1 4 -1 1759.42 86.59
-1 -4 1 1725.43 87.29
-1 -4 1 1812.82 89.29
0 4 -1 1180.78 60.69
0 -4 1 1234.88 61.29
0 -4 1 1199.28 55.39
-1 4 -1 1074.49 60.99
-1 4 -1 992 60.89
1 -4 1 1153.48 60.59
1 -4 1 971.4 57.19
1 -4 1 1101.69 63.39
-2 4 -1 37.7 11.9
-2 4 -1 20.4 9.3
2 -4 1 14.4 7.6
2 -4 1 38.5 12.9
2 -4 1 35.6 11.4
-3 4 -1 6.5 11.1
3 -4 1 -1.3 11.1
3 -4 1 25.3 12.6
3 -4 1 8.7 10.7
-4 4 -1 405.36 43.9
4 -4 1 304.67 41.1
4 3 -1 -1.3 11.5
-4 -3 1 12.1 9
3 3 -1 11.2 7.6
3 3 -1 8.9 8.3
-3 -3 1 10.7 8
-3 -3 1 2.1 5.7
-3 -3 1 1.8 5.5
2 3 -1 64.09 15.5
2 3 -1 51.09 11.5
-2 -3 1 58.09 13.9
-2 -3 1 54.79 13.8
-2 -3 1 47.7 8.1
1 3 -1 3343.87 152.78
1 3 -1 3287.17 149.59
-1 -3 1 2800.62 143.99
-1 -3 1 3151.28 151.38
-1 -3 1 3309.57 150.48
0 3 -1 4620.94 200.08
0 -3 1 4473.65 200.28
0 -3 1 4081.19 193.98
-1 3 -1 53.39 11.3
-1 3 -1 63.29 9.7
-1 3 -1 54.79 8.6
1 -3 1 46.6 10.7
1 -3 1 56.19 10.7
1 -3 1 60.29 9
-2 3 -1 1811.72 105.69
-2 3 -1 1873.71 107.89
-2 3 -1 1912.41 106.19
2 -3 1 1908.51 104.39
2 -3 1 1961 110.79
2 -3 1 1857.01 104.99
-3 3 -1 729.93 65.19
-3 3 -1 756.22 58.89
3 -3 1 701.23 65.99
3 -3 1 741.13 58.79
3 -3 1 677.23 57.99
-4 3 -1 36 16.9
4 -3 1 3.7 13.8
4 2 -1 1.4 11.6
-4 -2 1 -14.6 7.4
3 2 -1 30.1 13
3 2 -1 19.1 10.8
3 2 -1 23 9.3
-3 -2 1 16.4 9.8
-3 -2 1 48.2 16.5
-3 -2 1 42.3 11
2 2 -1 10.3 5.6
2 2 -1 18 6.6
2 2 -1 19.4 7.9
-2 -2 1 21.4 7.4
-2 -2 1 15.1 4.4
-2 -2 1 27.3 9.1
1 2 -1 6155.08 274.47
1 2 -1 6216.28 276.87
-1 -2 1 6152.38 267.97
-1 -2 1 5533.25 273.97
-1 -2 1 5984.4 275.97
0 2 -1 1315.27 63.69
0 -2 1 1307.67 63.89
-1 2 -1 676.73 40.4
-1 2 -1 692.03 43.2
-1 2 -1 690.73 42.1
1 -2 1 612.94 39.2
1 -2 1 678.13 43.8
1 -2 1 664.33 40.6
-2 2 -1 1473.95 90.09
-2 2 -1 1535.55 89.99
-2 2 -1 1491.45 89.29
2 -2 1 1592.14 88.79
2 -2 1 1608.64 94.19
2 -2 1 1504.05 88.79
-3 2 -1 883.91 64.19
-3 2 -1 912.01 67.39
-3 2 -1 847.02 69.19
3 -2 1 807.22 62.89
3 -2 1 815.62 64.39
3 -2 1 806.92 67.29
-4 2 -1 20.4 13.8
4 -2 1 13.2 14.5
4 1 -1 8.3 11.9
-4 -1 1 4.8 9.1
3 1 -1 194.08 27.2
3 1 -1 209.88 23.5
3 1 -1 180.28 25.7
-3 -1 1 174.18 26.2
-3 -1 1 149.99 19.1
2 1 -1 49.6 9.8
2 1 -1 51.49 13.2
2 1 -1 10.6 8.3
-2 -1 1 35.5 8.2
-2 -1 1 36.1 9.5
-2 -1 1 29.6 9.5
1 1 -1 9962.5 424.86
-1 -1 1 8410.36 416.76
-1 -1 1 9999 426.26
-1 -1 1 9318.57 424.46
0 1 -1 1533.05 76.69
0 1 -1 1719.53 72.49
0 -1 1 1711.33 72.49
0 -1 1 1498.25 76.79
-1 1 -1 225.48 18.9
-1 1 -1 218.58 20.5
-1 1 -1 218.38 19.4
1 -1 1 212.08 17.9
1 -1 1 215.98 20.8
-2 1 -1 7.4 5.4
-2 1 -1 -4.5 4.5
-2 1 -1 3.4 6.4
2 -1 1 4.7 7
2 -1 1 -2.2 4.8
2 -1 1 3.5 5.5
-3 1 -1 936.31 68.79
-3 1 -1 1015.5 73.29
-3 1 -1 984.5 74.09
3 -1 1 868.31 69.19
3 -1 1 991.4 70.39
3 -1 1 1014.7 74.69
-4 1 -1 20.2 13.9
4 -1 1 -20.7 10
4 0 -1 -10.7 10.2
4 0 -1 28.3 13.6
-4 0 1 25.5 10.5
3 0 -1 11.6 10.8
3 0 -1 1.9 7
3 0 -1 20.3 10
-3 0 1 25 12.4
-3 0 1 5.5 9.2
2 0 -1 -6.4 4
2 0 -1 4.3 4
2 0 -1 -2.5 3.3
-2 0 1 0.9 3.2
-2 0 1 -1.9 3.7
1 0 -1 5.3 3.2
1 0 -1 17 5.7
1 0 -1 11.4 3.1
-1 0 1 16.5 5.6
-1 0 1 7.7 2.4
0 0 -1 1.5 1.3
0 0 -1 1 0.6
0 0 1 3.3 1.1
0 0 1 0 1.2
-2 0 -1 11.3 6.7
-2 0 -1 0.1 3.9
2 0 1 4.1 5
2 0 1 2.1 4.3
2 0 1 -4.6 5
-3 0 -1 55.19 15.6
-3 0 -1 40.9 15.1
-3 0 -1 27.9 14.4
3 0 1 57.19 19.5
3 0 1 102.39 21.9
3 0 1 77.29 19.4
-4 0 -1 -21.9 13.1
4 0 1 2.4 11.5
4 -1 -1 27.1 15.7
-4 1 1 9.1 10.1
3 -1 -1 198.18 27.2
3 -1 -1 171.08 22.6
3 -1 -1 210.48 26.9
-3 1 1 221.48 23.1
-3 1 1 175.18 26
2 -1 -1 44.4 12
2 -1 -1 27.5 8.4
2 -1 -1 42 11.6
-2 1 1 24.8 9.3
-2 1 1 38.1 8.7
1 -1 -1 9345.06 431.56
-1 1 1 9765.82 431.86
0 -1 -1 1430.86 67.09
0 1 1 1462.05 67.29
-1 -1 -1 231.48 21.2
-1 -1 -1 201.08 17.9
-1 -1 -1 209.68 17.9
1 1 1 207.18 17.9
1 1 1 234.08 18.6
1 1 1 230.38 21.3
-2 -1 -1 1.9 6
-2 -1 -1 4.7 5.1
-2 -1 -1 5.6 6.9
2 1 1 0.8 5.2
2 1 1 23.8 8.2
-3 -1 -1 1111.39 76.79
-3 -1 -1 959.9 72.99
-3 -1 -1 1082.19 72.89
3 1 1 880.91 68.79
3 1 1 948.01 72.99
3 1 1 1094.09 76.29
-4 -1 -1 -10.4 17.7
-4 -1 -1 22.8 14.6
4 1 1 9.7 13.7
4 -2 -1 2.4 13.2
-4 2 1 -6.2 9.1
3 -2 -1 40 13
3 -2 -1 30.6 12
3 -2 -1 34.8 13.8
-3 2 1 46.6 16.8
-3 2 1 47.3 11.9
2 -2 -1 10.1 7.1
2 -2 -1 22.1 7.7
2 -2 -1 13 6.5
-2 2 1 8.4 7
-2 2 1 14.3 6
1 -2 -1 5685.93 265.97
-1 2 1 5914.31 266.67
-1 2 1 5772.92 261.87
0 -2 -1 1254.17 57.09
0 2 1 1119.79 56.79
-1 -2 -1 655.73 43.4
-1 -2 -1 679.93 40
-1 -2 -1 677.93 40.4
1 2 1 641.24 43.4
1 2 1 718.93 40.2
1 2 1 655.13 39.6
-2 -2 -1 1301.77 85.69
-2 -2 -1 1405.06 86.29
-2 -2 -1 1601.84 90.39
2 2 1 1570.84 91.19
2 2 1 1559.64 88.29
2 2 1 1581.74 86.99
-3 -2 -1 743.53 61.99
-3 -2 -1 813.22 61.29
-3 -2 -1 856.31 65.39
3 2 1 823.02 63.69
3 2 1 884.11 66.09
3 2 1 751.92 64.59
-4 -2 -1 -4.1 11.3
-4 -2 -1 2.5 12.4
4 2 1 9.4 14.2
4 -3 -1 1.2 14.1
4 -3 -1 7.3 9.7
-4 3 1 30.5 11.2
3 -3 -1 16.5 9.6
3 -3 -1 -5.7 7
3 -3 -1 7.3 8.6
-3 3 1 -0.2 5.3
-3 3 1 2.4 11.7
2 -3 -1 75.99 15.2
2 -3 -1 59.89 14
2 -3 -1 65.99 11.1
-2 3 1 50.79 13
-2 3 1 53.79 11.1
1 -3 -1 3331.67 160.98
1 -3 -1 3516.95 159.28
-1 3 1 3231.08 160.88
-1 3 1 3515.05 158.98
0 -3 -1 4442.86 191.78
0 3 1 4005.4 191.58
-1 -3 -1 56.09 8.4
-1 -3 -1 52.39 8
-1 -3 -1 52.69 11.5
1 3 1 57.29 8.1
1 3 1 52.19 8
-2 -3 -1 1890.11 106.19
-2 -3 -1 1953.1 109.39
-2 -3 -1 1803.22 104.59
2 3 1 1849.21 103.59
2 3 1 2131.69 111.69
2 3 1 1828.02 104.89
-3 -3 -1 618.94 52.89
-3 -3 -1 693.03 58.59
-3 -3 -1 660.43 56.19
3 3 1 733.03 58.19
-4 -3 -1 9.6 11.9
-4 -3 -1 -4.9 11.5
4 3 1 -0.2 17.9
4 -4 -1 67.19 21.8
4 -4 -1 46.8 20.8
-4 4 1 52.59 16.4
3 -4 -1 572.94 49.99
3 -4 -1 514.75 46.5
3 -4 -1 504.95 48.4
-3 4 1 636.54 55.09
-3 4 1 560.14 43.5
2 -4 -1 951.9 62.49
2 -4 -1 1013.4 64.99
2 -4 -1 1020 65.29
-2 4 1 1040.4 66.19
-2 4 1 1043.6 60.29
1 -4 -1 1697.63 86.59
1 -4 -1 1622.34 85.49
-1 4 1 1728.03 87.29
-1 4 1 1792.02 86.29
0 -4 -1 1138.69 57.09
0 4 1 1147.19 57.69
-1 -4 -1 1098.49 59.49
-1 -4 -1 1142.39 58.49
-1 -4 -1 926.51 61.39
1 4 1 1074.79 58.19
1 4 1 1118.19 58.39
-2 -4 -1 26.7 10
-2 -4 -1 12.8 7.9
2 4 1 42.3 10.8
2 4 1 27 8.8
-3 -4 -1 11.9 9.7
-3 -4 -1 17.6 11.4
-3 -4 -1 -10.4 8.9
3 4 1 14.6 10.4
-4 -4 -1 347.17 46.3
-4 -4 -1 380.56 41.7
4 4 1 298.97 43.1
4 -5 -1 1.4 12.8
4 -5 -1 -15.1 15.6
-4 5 1 6.3 11.2
3 -5 -1 16.7 13.8
3 -5 -1 -18.3 8.3
3 -5 -1 11.7 9.4
-3 5 1 5.4 7.3
-3 5 1 -10.1 12.1
2 -5 -1 34.4 11.3
2 -5 -1 17.1 8.8
2 -5 -1 17.1 7.4
-2 5 1 48.9 10.9
-2 5 1 17.5 9.4
1 -5 -1 18.6 5.5
1 -5 -1 11.1 4.4
-1 5 1 14.7 5.1
-1 5 1 8.4 4.5
0 -5 -1 960.3 51.29
0 5 1 1030.8 52.59
-1 -5 -1 531.85 35.2
-1 -5 -1 566.14 34.1
1 5 1 565.44 34.5
1 5 1 509.35 33.8
-2 -5 -1 593.74 44.9
-2 -5 -1 573.14 43.4
-2 -5 -1 601.34 50.09
2 5 1 540.95 41.8
2 5 1 593.94 44.1
-3 -5 -1 8.2 12.3
-3 -5 -1 15.7 9.3
-3 -5 -1 -8.9 7.4
3 5 1 31.2 13.3
-4 -5 -1 370.66 48.5
-4 -5 -1 370.16 42
4 5 1 417.76 48.2
4 -6 -1 293.67 39
-4 6 1 218.58 31.6
3 -6 -1 129.39 26.4
3 -6 -1 80.69 21.8
3 -6 -1 140.79 27
-3 6 1 118.99 27.6
-3 6 1 101.69 17.6
2 -6 -1 33.1 10.5
2 -6 -1 30.4 9.2
2 -6 -1 38.7 11.4
-2 6 1 55.99 14
-2 6 1 29.6 9.6
1 -6 -1 163.28 16.3
1 -6 -1 173.58 16
-1 6 1 156.98 16.3
-1 6 1 157.38 16
0 -6 -1 115.39 11.2
0 6 1 107.49 11.3
-1 -6 -1 554.74 34.9
-1 -6 -1 592.54 37.6
1 6 1 615.14 37.7
1 6 1 546.75 35.7
-2 -6 -1 320.87 32.3
-2 -6 -1 373.56 33.5
-2 -6 -1 417.36 37.2
2 6 1 431.86 35.1
2 6 1 405.96 33.2
-3 -6 -1 1.9 9.7
-3 -6 -1 0.2 8.1
3 6 1 -8.5 6.4
-4 -6 -1 19.9 15.6
-4 -6 -1 14.5 16.5
4 6 1 5.7 13.6
4 -7 -1 16.3 12.6
-4 7 1 -18.2 11
3 -7 -1 239.98 30.8
3 -7 -1 226.48 31.2
3 -7 -1 225.28 52.69
-3 7 1 248.18 28.5
-3 7 1 237.98 43.8
2 -7 -1 355.46 31.6
2 -7 -1 284.27 29
-2 7 1 306.77 28.2
-2 7 1 311.27 31
1 -7 -1 1516.95 84.29
1 -7 -1 1519.65 78.19
-1 7 1 1496.95 79.79
-1 7 1 1422.36 80.79
0 -7 -1 449.06 28.1
0 -7 -1 442.26 30.9
0 7 1 398.16 28
-1 -7 -1 108.59 13.4
-1 -7 -1 109.69 11.7
1 7 1 134.49 14
1 7 1 125.89 13.2
-2 -7 -1 21.9 9.6
-2 -7 -1 20.4 7.9
-2 -7 -1 28.1 10.8
2 7 1 28.2 8.7
2 7 1 30.8 10.4
-3 -7 -1 14 13.2
-3 -7 -1 24.7 13.4
-3 -7 -1 12.8 10.9
3 7 1 23.6 11.3
-4 -7 -1 7 18
-4 -7 -1 67.99 21
4 7 1 35.5 18.2
4 -8 -1 -10.8 10.7
-4 8 1 -3.8 13.4
3 -8 -1 3.3 10.7
3 -8 -1 8 11.2
-3 8 1 -6.5 6.6
2 -8 -1 32.4 11.6
2 -8 -1 47.7 13.8
-2 8 1 47.8 11.9
1 -8 -1 276.97 23.4
1 -8 -1 225.88 19.4
-1 8 1 187.58 19.3
-1 8 1 206.58 21.9
0 -8 -1 317.77 30.1
0 -8 -1 360.36 24.4
0 8 1 313.17 24.2
-1 -8 -1 6.6 3.6
-1 -8 -1 1.1 4.3
1 8 1 1.6 3.3
1 8 1 2.5 3.3
-2 -8 -1 112.39 16.6
-2 -8 -1 98.79 21.2
-2 -8 -1 87.89 18.1
2 8 1 72.69 15.1
2 8 1 97.79 19.5
-3 -8 -1 53.59 16.4
-3 -8 -1 64.59 19.4
-3 -8 -1 30.2 14.5
3 8 1 65.79 19.8
-4 -8 -1 16.1 15.4
-4 -8 -1 17.4 17.2
4 8 1 -15.8 14.6
4 -9 -1 -5.3 14.8
-4 9 1 -3.4 12.9
3 -9 -1 7.9 14.1
3 -9 -1 42.4 16.3
-3 9 1 17.1 10.3
2 -9 -1 449.76 40.7
2 -9 -1 535.65 40.7
-2 9 1 494.95 40.8
-2 9 1 497.65 43.1
1 -9 -1 346.67 28.9
1 -9 -1 345.87 25.6
-1 9 1 311.47 26.5
-1 9 1 307.37 28.6
0 -9 -1 823.42 51.39
0 -9 -1 849.72 47.7
0 9 1 767.02 50.59
-1 -9 -1 74.59 11.6
1 9 1 77.19 10.8
1 9 1 81.59 11.5
-2 -9 -1 5.5 7.4
-2 -9 -1 5.3 7
-2 -9 -1 5.2 7
2 9 1 11.7 8.1
2 9 1 15.2 8.5
-3 -9 -1 11.4 11.5
-3 -9 -1 24.7 15
-3 -9 -1 37.7 13.1
3 9 1 33.8 12.8
4 9 1 35.3 20.8
4 -10 -1 27.7 14.8
-4 10 1 9.5 12.7
3 -10 -1 42.3 17.3
3 -10 -1 56.09 18.1
-3 10 1 45.3 16.3
2 -10 -1 474.05 42
2 -10 -1 522.45 40.9
-2 10 1 509.75 42.5
-2 10 1 438.36 40.6
1 -10 -1 213.98 22.1
-1 10 1 203.38 22.8
-1 10 1 191.28 20.1
0 -10 -1 46.9 11.3
0 -10 -1 57.29 10.9
0 10 1 36.5 9.6
-1 -10 -1 1320.37 72.39
1 10 1 1293.67 69.89
1 10 1 1161.38 69.79
-2 -10 -1 -6.9 5
-2 -10 -1 -6.4 4.3
-2 -10 -1 5.5 4.9
2 10 1 -7.2 4.3
-3 -10 -1 19.9 13.2
-3 -10 -1 35 13.8
-3 -10 -1 3.6 8.5
3 10 1 18.7 14.8
-4 -10 -1 -19.3 13.4
-4 -10 -1 -3.3 15.8
4 10 1 11.1 19.4
4 -11 -1 -15.8 11.6
-4 11 1 7.7 13.9
3 -11 -1 98.29 23.8
-3 11 1 102.89 23.2
2 -11 -1 59.89 15.5
2 -11 -1 38.3 11.5
-2 11 1 63.19 16.6
-2 11 1 92.59 18.7
1 -11 -1 1406.46 79.49
1 -11 -1 1230.68 74.99
-1 11 1 1267.57 79.99
-1 11 1 1291.17 74.19
0 -11 -1 49.3 12.1
0 -11 -1 25.4 7.9
0 11 1 34 9
-1 -11 -1 4.6 4.7
1 11 1 -1.2 4.2
1 11 1 1.2 3.6
-2 -11 -1 2.7 7.8
-2 -11 -1 18.2 9.7
-2 -11 -1 4.1 5.5
2 11 1 15.9 7.2
2 11 1 2.9 5.9
-3 -11 -1 29 12.9
-3 -11 -1 30.5 16.1
-3 -11 -1 58.29 19
3 11 1 57.99 18.1
4 -12 -1 250.77 68.39
-4 12 1 281.57 41.9
3 -12 -1 345.67 38.2
-3 12 1 347.77 39.4
2 -12 -1 175.98 24.2
2 -12 -1 174.98 21.9
-2 12 1 187.18 25.4
-2 12 1 175.78 23.7
1 -12 -1 9.6 5.8
1 -12 -1 6.7 5.3
-1 12 1 6.1 4.9
-1 12 1 1.7 5.7
0 -12 -1 9.7 5.8
0 -12 -1 5.6 4.1
0 12 1 -2.6 3.4
-1 -12 -1 4.9 5.4
1 12 1 9.8 7.1
1 12 1 8.3 6
-2 -12 -1 39.9 15.2
-2 -12 -1 52.59 12.7
2 12 1 99.79 20
2 12 1 68.99 13.7
-3 -12 -1 27 14.8
-3 -12 -1 1 11.4
3 12 1 10.3 13.6
3 -13 -1 185.88 26.6
-3 13 1 116.89 27.2
2 -13 -1 313.57 29.9
2 -13 -1 263.37 29.6
-2 13 1 279.17 32.5
-2 13 1 264.07 32.6
1 -13 -1 3.5 5.1
1 -13 -1 1.2 5.6
-1 13 1 4.7 5.2
0 -13 -1 133.59 16.1
0 -13 -1 123.79 17.3
-1 -13 -1 130.59 17.3
1 13 1 148.99 18.8
1 13 1 88.19 14.3
-2 -13 -1 46.5 15.1
2 13 1 45.6 14.7
2 13 1 40.3 12.2
-3 -13 -1 0.6 11.3
-3 -13 -1 5.1 14.8
3 13 1 5.4 12.4
3 -14 -1 329.27 37.2
-3 14 1 321.17 38.9
-2 14 1 3.6 12.4
-2 14 1 -12.6 6.8
1 -14 -1 891.21 59.59
1 -14 -1 857.71 62.09
-1 14 1 895.41 58.39
0 -14 -1 350.26 34.7
0 -14 -1 394.06 31.1
0 14 1 422.26 29.5
-1 -14 -1 71.89 17.7
1 14 1 89.89 17.2
-2 -14 -1 44.3 14.9
2 14 1 37.9 14.6
-3 -14 -1 119.59 28.3
-3 -14 -1 105.19 26.8
3 14 1 84.99 23.8
3 -15 -1 2.9 12.2
-3 15 1 31.8 17.8
-2 15 1 129.69 27.6
-2 15 1 120.39 27
1 -15 -1 567.74 48.9
1 -15 -1 660.53 47.9
-1 15 1 611.84 45.8
0 -15 -1 129.69 16.4
0 -15 -1 131.29 28.7
0 15 1 118.59 14.5
-1 -15 -1 -5.7 5.8
1 15 1 13.6 12.2
1 15 1 5.6 6.9
-2 -15 -1 -14.3 9.4
2 15 1 5.8 8.3
-3 -15 -1 365.66 46.1
3 15 1 396.36 47.7
-3 16 1 17.1 13.4
-2 16 1 29.9 15.7
-2 16 1 46.1 20.9
1 -16 -1 1075.59 71.19
-1 16 1 1147.09 71.39
0 -16 -1 49.4 11.9
0 -16 -1 58.89 14.7
0 16 1 45.3 11.4
-1 -16 -1 417.06 38.6
-1 -16 -1 470.75 38.7
1 16 1 411.36 34.8
1 16 1 400.76 36.9
-2 -16 -1 97.49 20.6
2 16 1 157.48 23.1
-3 -16 -1 226.48 35.1
3 16 1 220.08 34.1
-3 17 1 159.58 36.2
2 -17 -1 5.3 10.9
-2 17 1 7.8 13
1 -17 -1 119.09 23.2
-1 17 1 97.89 18.7
0 -17 -1 311.67 35.2
0 -17 -1 326.07 29.3
0 17 1 304.37 27.3
-1 -17 -1 67.79 17.3
-1 -17 -1 48.4 15
1 17 1 46.4 16
1 17 1 54.29 15.2
-2 -17 -1 80.69 21.2
2 17 1 38.3 14.8
-3 -17 -1 29.1 17.7
-3 -17 -1 -14 15.9
3 17 1 33 20
-3 18 1 99.49 29.2
2 -18 -1 2.4 9.4
-2 18 1 31.8 18
1 -18 -1 31 12.5
-1 18 1 31.1 14.4
0 -18 -1 176.98 22.5
0 18 1 207.38 22.8
-1 -18 -1 1982.6 108.09
1 18 1 1672.13 102.39
-2 -18 -1 106.19 24.9
2 18 1 96.89 22.3
-3 -18 -1 4.2 18.1
2 -19 -1 105.49 22.9
1 -19 -1 91.29 20.4
-1 19 1 39.5 19.5
0 -19 -1 2.4 7.3
0 19 1 -10.1 6.6
1 19 1 12 10.8
-2 -19 -1 179.48 29.1
2 19 1 192.28 29.8
2 -20 -1 0.7 12
1 -20 -1 72.59 16.9
-1 20 1 46.2 19.7
0 -20 -1 0 7.8
0 20 1 13.2 11.3
-1 -20 -1 23.4 12.5
1 20 1 8.6 10.2
-2 -20 -1 85.89 22.1
2 20 1 28.6 18.4
2 -21 -1 -5.3 10.2
1 -21 -1 32.9 14
-1 21 1 50.69 21.7
0 -21 -1 230.68 28.2
0 21 1 208.08 25
-1 -21 -1 -1.8 11.7
1 21 1 -18.2 8.7
-2 -21 -1 199.48 29.4
2 21 1 121.69 28.8
2 -22 -1 29.3 17.4
1 -22 -1 11.7 10.3
0 -22 -1 51.79 16.4
0 22 1 57.09 19.7
0 22 1 48.4 14.2
-1 -22 -1 10.6 12.3
1 22 1 -23.5 10.4
1 -23 -1 31.8 16.2
0 -23 -1 54.69 19.1
0 23 1 11.4 11.2
0 23 1 28.5 18.6
-1 -23 -1 15.5 15.2
1 23 1 16.3 16.3
0 -24 -1 156.88 28.9
0 24 1 68.19 19.1
1 23 -2 -3 11.8
-1 -23 2 -8 11.9
0 -23 2 62.09 15.9
-1 23 -2 86.19 26.4
1 -23 2 56.29 17.7
1 22 -2 21.5 12.9
-1 -22 2 12.5 13.3
0 -22 2 -13.2 8.6
-1 22 -2 29.6 21.1
1 -22 2 65.29 15.7
2 21 -2 -0.4 14.3
-2 -21 2 28.8 13.6
1 21 -2 7 14.4
-1 -21 2 62.59 14.3
0 -21 2 14.8 9.3
-1 21 -2 86.89 25.4
1 -21 2 72.49 17.4
-2 21 -2 -3.4 15.5
2 20 -2 29.6 16.1
2 20 -2 28.6 17.3
-2 -20 2 49.5 16.3
-2 -20 2 24 16.2
1 20 -2 8.6 11
-1 -20 2 13.9 9.6
0 -20 2 79.59 15.5
-1 20 -2 2.6 13.9
1 -20 2 28.4 11.4
2 -20 2 -7.4 13.5
2 19 -2 22 14.7
2 19 -2 -10.6 9.7
-2 -19 2 12.2 11.1
-2 -19 2 23.1 12.9
1 19 -2 225.28 35.5
-1 -19 2 234.18 31
-1 -19 2 273.17 27
0 -19 2 11 8.2
-1 19 -2 60.29 20.6
1 -19 2 47 13.6
-2 19 -2 10.7 14.7
2 -19 2 21.6 13.3
2 -19 2 0.8 18.2
3 18 -2 13.1 18.3
-3 -18 2 2.4 13.6
-3 -18 2 -9.6 13.1
-3 -18 2 8.1 12.8
2 18 -2 129.69 21.1
2 18 -2 150.58 31.5
-2 -18 2 150.78 24.4
1 18 -2 -0.2 7
1 18 -2 9.5 9.1
-1 -18 2 20.3 9.5
-1 -18 2 -11.5 8.5
0 18 -2 59.99 19.3
0 -18 2 69.49 13.1
-1 18 -2 257.57 35.8
1 -18 2 251.37 25.3
-2 18 -2 703.13 66.59
2 -18 2 656.03 52.99
2 -18 2 712.33 58.09
3 17 -2 1.2 16.9
-3 -17 2 21.1 14.3
-3 -17 2 2.5 10.6
-3 -17 2 29.3 14.5
2 17 -2 470.15 45.8
2 17 -2 383.06 38.7
-2 -17 2 418.76 38.8
-2 -17 2 373.26 35.2
1 17 -2 34 9.1
1 17 -2 40.8 14.9
-1 -17 2 36.2 10.6
-1 -17 2 26.5 13
0 17 -2 181.48 28.2
0 -17 2 166.78 25.3
0 -17 2 213.58 22.9
-1 17 -2 163.88 26.4
1 -17 2 166.48 19.4
-2 17 -2 94.09 23.7
2 -17 2 85.39 22.8
-3 17 -2 26.6 15.6
3 16 -2 26 19.7
-3 -16 2 44.8 14.8
-3 -16 2 43.4 17.2
-3 -16 2 42.4 13.8
2 16 -2 4.8 9.9
2 16 -2 -3.3 6.6
-2 -16 2 16.8 9.4
-2 -16 2 17 11.7
1 16 -2 15.5 6.9
1 16 -2 21.4 10.3
-1 -16 2 4.7 6.9
-1 -16 2 4.4 8.6
0 16 -2 1294.27 87.69
0 -16 2 1482.35 73.09
0 -16 2 1246.08 85.89
-1 16 -2 224.78 54.19
1 -16 2 216.08 22.1
-2 16 -2 177.28 28.6
2 -16 2 129.59 24.9
3 15 -2 37.1 15.3
-3 -15 2 43.5 16.6
-3 -15 2 18.9 12.1
-3 -15 2 33.8 12.3
2 15 -2 158.78 19.8
2 15 -2 186.08 28.1
-2 -15 2 205.68 22.3
-2 -15 2 223.18 26.7
1 15 -2 393.96 36.7
1 15 -2 346.77 27.9
-1 -15 2 370.66 39
-1 -15 2 374.76 33.5
0 15 -2 203.38 25.8
0 -15 2 130.99 21.1
0 -15 2 173.38 16.3
-1 15 -2 133.09 22.2
-1 15 -2 71.69 17.6
1 -15 2 91.99 14.6
1 -15 2 93.59 21.6
-2 15 -2 -1.8 6.7
2 -15 2 15.6 11.8
-3 15 -2 -12 13.9
3 14 -2 -10.6 9.6
-3 -14 2 -0.9 8.2
-3 -14 2 13 12.3
-3 -14 2 -1.9 7.9
2 14 -2 285.77 33.8
2 14 -2 312.87 27
-2 -14 2 339.37 29
-2 -14 2 302.67 30.5
1 14 -2 6.9 5.8
1 14 -2 1.4 4.7
-1 -14 2 6.2 6.7
-1 -14 2 9 6.6
0 14 -2 899.71 62.49
0 -14 2 911.61 49
0 -14 2 817.92 60.69
-1 14 -2 245.08 29.2
-1 14 -2 178.08 23.1
1 -14 2 230.38 29.7
1 -14 2 237.38 34.1
-2 14 -2 6.8 10.8
2 -14 2 1.7 10.7
-3 14 -2 -19.8 9.8
3 13 -2 9.1 12.7
-3 -13 2 11.9 10.3
-3 -13 2 13 7.8
-3 -13 2 19.1 12.1
2 13 -2 202.58 20.4
2 13 -2 184.08 26.8
-2 -13 2 176.88 19.6
-2 -13 2 171.68 22.2
1 13 -2 72.49 16.1
1 13 -2 73.09 18.3
-1 -13 2 57.59 12.5
-1 -13 2 64.19 10.5
0 13 -2 66.19 16.4
0 -13 2 53.69 14.6
0 -13 2 47.6 7.6
-1 13 -2 5.5 9.4
-1 13 -2 -2.5 3.8
1 -13 2 -6.1 6.1
-2 13 -2 205.08 29.1
2 -13 2 171.58 24.3
-3 13 -2 -21.7 11.9
4 12 -2 55.49 24.2
-4 -12 2 23.9 19.8
-4 -12 2 58.49 13.3
3 12 -2 529.45 52.69
-3 -12 2 506.65 49.8
-3 -12 2 672.43 44
2 12 -2 457.35 34.4
2 12 -2 402.96 40.7
-2 -12 2 441.16 37
-2 -12 2 465.45 37.5
1 12 -2 7 4.8
1 12 -2 2.6 3.7
-1 -12 2 9.8 4.8
-1 -12 2 -2.8 3.3
0 12 -2 -4.3 3.6
0 -12 2 3.8 3.2
0 -12 2 -4.7 3.2
-1 12 -2 154.38 21.7
-1 12 -2 208.18 25.3
1 -12 2 185.58 26.7
2 -12 2 8.5 9.7
-3 12 -2 -3.8 12.4
4 11 -2 -5 18.6
-4 -11 2 -2.9 8.7
-4 -11 2 -7.8 11.4
-4 -11 2 5 7.7
3 11 -2 107.89 24.4
3 11 -2 69.39 20.3
-3 -11 2 65.09 14.3
-3 -11 2 91.99 23.4
2 11 -2 329.57 27.3
2 11 -2 272.27 31.2
-2 -11 2 300.97 23.8
-2 -11 2 323.97 29.7
1 11 -2 41.6 11.8
1 11 -2 41.9 6.9
-1 -11 2 50.99 8.3
-1 -11 2 45.9 10.9
0 11 -2 1078.89 65.39
0 -11 2 1074.29 53.29
0 -11 2 967.7 64.29
-1 11 -2 -5.4 4.7
-1 11 -2 10.1 7.4
1 -11 2 0 6.5
-2 11 -2 -7.1 9.6
-2 11 -2 -7 4.9
2 -11 2 -1.7 9.4
2 -11 2 -12.7 8.2
-3 11 -2 31.3 16.5
3 -11 2 44.5 15.7
4 10 -2 139.19 34.2
-4 -10 2 72.39 25.8
-4 -10 2 114.99 15.5
3 10 -2 4.5 9.2
3 10 -2 -14.6 11.5
-3 -10 2 16.7 9
-3 -10 2 6.5 5.8
-3 -10 2 -2.7 5.4
2 10 -2 79.39 12.7
2 10 -2 83.69 19.3
-2 -10 2 79.29 17
-2 -10 2 56.99 9.3
1 10 -2 1333.87 69.19
1 10 -2 1282.67 78.79
-1 -10 2 1451.85 72.09
-1 -10 2 1392.36 74.19
0 10 -2 220.38 22.9
0 -10 2 223.98 15.2
0 -10 2 225.18 23
-1 10 -2 80.39 16.9
-1 10 -2 70.49 16.4
1 -10 2 77.29 14
1 -10 2 88.39 19.2
-2 10 -2 171.38 24
-2 10 -2 155.38 28.9
2 -10 2 150.38 21.6
2 -10 2 132.99 27.6
-3 10 -2 12.3 12.6
3 -10 2 -5.6 8
4 9 -2 -8.8 14.2
-4 -9 2 1.4 8
-4 -9 2 13.7 15.4
3 9 -2 15.5 10.9
3 9 -2 0.4 9.2
-3 -9 2 5 8.5
-3 -9 2 -6.2 5
2 9 -2 9.4 6.8
2 9 -2 -0.1 5.8
-2 -9 2 5.8 4.5
-2 -9 2 9.2 6.3
-2 -9 2 5.6 6.8
1 9 -2 533.45 29.2
1 9 -2 508.95 37.2
-1 -9 2 471.35 31.4
-1 -9 2 380.96 28.7
0 9 -2 53.69 11.8
0 -9 2 48.9 12.3
0 -9 2 56.99 6.1
-1 9 -2 892.41 59.09
-1 9 -2 869.61 56.79
1 -9 2 809.12 59.99
1 -9 2 823.92 49.99
-2 9 -2 53.49 16.2
-2 9 -2 76.89 18.2
2 -9 2 44.2 13.9
2 -9 2 60.69 18.8
2 -9 2 63.89 14.2
-3 9 -2 8.1 8.8
3 -9 2 17.5 9.4
4 8 -2 62.89 23.7
-4 -8 2 56.09 11.5
-4 -8 2 49 18.9
3 8 -2 42.9 14.9
3 8 -2 18.4 11.4
-3 -8 2 25.2 7.1
-3 -8 2 26.8 14.1
2 8 -2 49.9 15.2
2 8 -2 39.4 9.9
-2 -8 2 35.3 7.9
-2 -8 2 37.8 11.8
-2 -8 2 25.2 6.1
-2 -8 2 43.5 12.2
1 8 -2 123.69 15.9
1 8 -2 111.59 10.5
-1 -8 2 103.29 11.5
-1 -8 2 121.39 12.4
0 8 -2 1006.9 58.69
0 -8 2 1009.4 59.89
0 -8 2 991 48.2
-1 8 -2 39.8 11.6
-1 8 -2 29.4 9.2
1 -8 2 40.4 9.6
1 -8 2 44.7 13.4
-2 8 -2 38 12.8
-2 8 -2 20.1 12
2 -8 2 11.2 9.2
2 -8 2 4.1 6.8
-3 8 -2 8.3 9.8
3 -8 2 5.2 11
-4 8 -2 64.99 21.4
4 -8 2 -4 14.9
4 7 -2 -18 10.8
-4 -7 2 16.4 8.3
3 7 -2 33.6 14.5
3 7 -2 6.9 8.5
-3 -7 2 19.3 12.7
-3 -7 2 23.6 11.3
-3 -7 2 32.7 8
2 7 -2 1544.55 94.79
2 7 -2 1678.83 89.19
-2 -7 2 1522.75 91.79
-2 -7 2 1497.25 90.19
-2 -7 2 1726.23 78.59
-2 -7 2 1652.53 80.99
1 7 -2 1039.3 60.99
1 7 -2 1021.6 52.09
-1 -7 2 1025.3 54.19
-1 -7 2 962.1 52.59
0 7 -2 2653.83 128.19
0 -7 2 2511.05 128.69
0 -7 2 2560.14 116.29
-1 7 -2 554.94 39.6
-1 7 -2 530.55 41.2
1 -7 2 528.85 34.9
1 -7 2 538.15 43.1
-2 7 -2 82.49 21.1
-2 7 -2 59.09 15.9
2 -7 2 59.79 17.6
2 -7 2 55.59 15
2 -7 2 100.89 15.8
-3 7 -2 58.79 19.2
3 -7 2 -2.3 10.7
-4 7 -2 2.1 15.7
4 -7 2 10.6 17.1
4 6 -2 77.09 26.2
-4 -6 2 101.79 14.3
3 6 -2 274.47 35.8
3 6 -2 243.68 30.1
-3 -6 2 277.67 20.9
-3 -6 2 247.58 30.8
-3 -6 2 278.67 33
2 6 -2 369.96 34
2 6 -2 334.57 28.8
-2 -6 2 379.16 32.2
-2 -6 2 386.06 32.2
-2 -6 2 298.57 21.2
1 6 -2 113.49 13.7
1 6 -2 87.99 9
-1 -6 2 75.39 9.7
-1 -6 2 83.59 8.5
0 6 -2 408.16 28.6
0 -6 2 385.06 19.5
0 -6 2 410.76 29.7
-1 6 -2 256.67 25.8
-1 6 -2 247.68 23.5
1 -6 2 244.38 26
1 -6 2 258.47 20.9
-2 6 -2 239.48 29.8
-2 6 -2 257.37 30.5
2 -6 2 279.37 33.3
2 -6 2 243.38 26.3
2 -6 2 248.58 26.9
-3 6 -2 172.98 35
3 -6 2 187.48 26.5
-4 6 -2 -2.9 10.9
4 5 -2 12.5 14
-4 -5 2 16.9 8.4
3 5 -2 33 12.8
3 5 -2 34.4 13.8
-3 -5 2 26.2 6.8
-3 -5 2 27.8 12.7
-3 -5 2 41.4 14.7
2 5 -2 31.6 11
2 5 -2 17.3 7.9
-2 -5 2 21.9 8.7
-2 -5 2 19.7 8.3
1 5 -2 728.33 39.7
1 5 -2 751.62 45.9
-1 -5 2 687.13 40.5
-1 -5 2 724.33 37.1
0 5 -2 153.68 14.9
0 -5 2 141.49 15.1
-1 5 -2 43.4 11.4
-1 5 -2 44.2 11.4
1 -5 2 52.39 13.1
1 -5 2 64.29 9.1
-2 5 -2 537.85 44.7
-2 5 -2 443.06 40.9
2 -5 2 455.85 44.8
2 -5 2 427.96 38.1
2 -5 2 478.95 38.7
-3 5 -2 66.19 19.8
3 -5 2 118.09 25
-4 5 -2 2.8 16.4
-4 -4 2 9.1 6.9
3 4 -2 355.66 36.8
3 4 -2 348.37 38.2
-3 -4 2 324.07 24.3
-3 -4 2 359.66 38
-3 -4 2 387.26 39.3
2 4 -2 799.02 51.99
2 4 -2 863.21 57.09
-2 -4 2 702.43 39.2
-2 -4 2 875.21 55.09
-2 -4 2 828.72 54.89
1 4 -2 411.36 25.1
1 4 -2 411.36 29.4
-1 -4 2 377.76 20.7
-1 -4 2 378.16 27.7
-1 -4 2 374.86 25.3
0 4 -2 1907.71 95.89
0 -4 2 1926.71 97.09
-1 4 -2 664.03 45.7
-1 4 -2 644.74 39.2
-1 4 -2 595.04 41.4
1 -4 2 604.64 45.8
1 -4 2 599.34 37.9
1 -4 2 635.84 41
-2 4 -2 96.69 20.8
-2 4 -2 136.59 20.7
-2 4 -2 123.69 19
2 -4 2 119.99 18
2 -4 2 160.08 23.9
2 -4 2 107.29 16.6
-3 4 -2 76.69 18.7
3 -4 2 65.79 23.8
3 -4 2 59.89 20.5
-4 4 -2 1.4 15.7
4 -4 2 0.3 16.2
4 3 -2 61.49 21
3 3 -2 53.19 17.1
3 3 -2 60.69 14.6
-3 -3 2 65.19 16.8
-3 -3 2 83.49 10.7
2 3 -2 67.29 14.5
-2 -3 2 94.79 15.1
-2 -3 2 89.39 7.1
-2 -3 2 50.39 13.3
1 3 -2 -1.1 2.3
1 3 -2 2.7 1.9
-1 -3 2 -2 1.5
0 3 -2 1587.24 83.19
0 3 -2 1719.33 74.49
0 -3 2 1679.43 84.79
0 -3 2 1599.14 73.79
-1 3 -2 201.68 19.1
-1 3 -2 258.67 24.6
-1 3 -2 207.78 20.7
1 -3 2 224.58 29.5
1 -3 2 243.68 20.5
1 -3 2 223.28 18.6
-2 3 -2 6.5 7
-2 3 -2 5.5 7.8
-2 3 -2 0.6 8.1
2 -3 2 15.1 8.3
2 -3 2 10.4 10
2 -3 2 10.5 7.2
-3 3 -2 361.06 40.4
-3 3 -2 389.96 42.4
3 -3 2 493.95 47.5
3 -3 2 394.56 46.2
-4 3 -2 164.98 35.1
4 2 -2 162.48 35.4
-4 -2 2 133.39 20.3
3 2 -2 37.2 16.3
3 2 -2 12.8 11.1
3 2 -2 38.2 9.2
-3 -2 2 33.9 13.3
-3 -2 2 28.2 7.4
2 2 -2 66.99 7.6
2 2 -2 63.09 13.6
2 2 -2 59.89 14.8
-2 -2 2 66.89 6.5
-2 -2 2 61.79 13.4
1 2 -2 471.65 31
-1 -2 2 409.46 29
0 2 -2 4794.62 193.48
0 2 -2 4012 201.38
0 -2 2 4376.46 193.18
0 -2 2 4139.39 202.38
-1 2 -2 69.39 10.7
-1 2 -2 69.19 14.7
-1 2 -2 66.39 9.9
1 -2 2 58.99 13.9
1 -2 2 74.29 9.8
1 -2 2 98.39 12
-2 2 -2 350.46 34.8
-2 2 -2 312.07 33.1
-2 2 -2 358.66 33.4
2 -2 2 329.87 31.4
2 -2 2 331.67 36.1
2 -2 2 375.86 32.7
-3 2 -2 355.06 39.9
-3 2 -2 420.46 43.1
3 -2 2 356.16 43.4
3 -2 2 359.96 38.7
-4 2 -2 140.89 29.1
4 -2 2 229.98 35.8
4 1 -2 11.2 12.2
4 1 -2 -17.8 8.2
-4 -1 2 3.9 7.6
3 1 -2 34 14.4
3 1 -2 25.1 10.7
3 1 -2 32.7 9.4
-3 -1 2 40.7 8.4
-3 -1 2 7.1 10.7
2 1 -2 182.58 15
2 1 -2 176.08 20.3
2 1 -2 165.88 21.1
-2 -1 2 204.98 13.9
-2 -1 2 179.68 21
1 1 -2 726.03 32.5
1 1 -2 663.13 41.6
-1 -1 2 678.23 41
0 1 -2 5277.77 214.48
0 1 -2 4536.45 222.18
0 -1 2 4900.71 214.48
0 -1 2 4428.96 221.78
-1 1 -2 441.26 31.1
-1 1 -2 468.05 36.9
-1 1 -2 456.15 32.6
1 -1 2 519.65 38.7
1 -1 2 468.75 30.7
1 -1 2 474.75 32.1
-2 1 -2 200.18 25
2 -1 2 140.89 22.1
-3 1 -2 28.8 15
-3 1 -2 39.7 14.7
3 -1 2 39 17.1
3 -1 2 26.3 10.5
-4 1 -2 143.89 32.7
4 -1 2 88.59 24.8
4 0 -2 19.4 15.4
4 0 -2 31.2 13.5
-4 0 2 18.4 8.5
3 0 -2 -3.2 6.5
3 0 -2 -6.5 7.9
3 0 -2 10.2 6.4
-3 0 2 0.2 4.7
-3 0 2 -6.1 7.2
2 0 -2 113.89 16.7
2 0 -2 66.09 9.4
2 0 -2 74.59 15
-2 0 2 83.59 9
-2 0 2 101.89 14.6
-1 0 2 263.57 20.7
0 0 -2 901.21 53.89
0 0 -2 1002.1 47.8
0 0 2 1071.29 48.6
0 0 2 933.31 54.09
-1 0 -2 14.7 5.2
-1 0 -2 4.9 3.5
-1 0 -2 7.6 5.7
1 0 2 12.1 5.3
1 0 2 2.6 3.8
-2 0 -2 8413.86 380.76
-2 0 -2 7585.04 372.86
2 0 2 7595.64 369.66
2 0 2 8285.47 382.66
2 0 2 7684.23 370.86
-3 0 -2 -4.1 8.3
-3 0 -2 0 11.1
-3 0 -2 31.7 17
3 0 2 -5.9 8.4
3 0 2 17.6 12.7
-4 0 -2 14.8 14.7
-4 0 -2 28.6 13.4
4 0 2 17.4 15.5
4 -1 -2 7.2 10.5
4 -1 -2 15.8 12.6
-4 1 2 15.7 10
3 -1 -2 39.4 14
3 -1 -2 32.6 13.6
-3 1 2 11 10
-3 1 2 30.2 8.5
2 -1 -2 199.28 17.4
2 -1 -2 185.78 21.4
2 -1 -2 193.68 22.5
-2 1 2 196.58 15.7
-2 1 2 161.08 20.7
1 -1 -2 706.63 35.6
1 -1 -2 700.33 41.2
-1 1 2 634.64 39.9
0 -1 -2 4379.06 220.08
0 -1 -2 4736.23 213.48
0 1 2 5054.19 214.48
-1 -1 -2 460.35 31.3
-1 -1 -2 486.25 32
-1 -1 -2 418.66 36
1 1 2 481.25 30.8
1 1 2 428.16 29.7
1 1 2 489.75 37.9
-2 -1 -2 152.08 21.8
-2 -1 -2 120.19 19.1
-2 -1 -2 153.98 20.9
2 1 2 175.28 23.4
2 1 2 146.59 19.2
2 1 2 115.19 17.4
-3 -1 -2 32.5 15.2
-3 -1 -2 31.7 15.6
-3 -1 -2 36.1 13.2
3 1 2 62.19 20.9
3 1 2 25.7 13.2
-4 -1 -2 165.18 33.8
-4 -1 -2 156.38 34.7
4 1 2 143.79 33.7
4 -2 -2 148.89 26.7
4 -2 -2 145.09 32.2
-4 2 2 182.18 23.5
3 -2 -2 38.3 14.9
3 -2 -2 35.5 14.9
3 -2 -2 28.1 10.5
-3 2 2 22.4 8.7
-3 2 2 40.9 14.4
2 -2 -2 68.79 15
2 -2 -2 76.59 10.8
2 -2 -2 71.09 14.8
-2 2 2 77.39 10.1
-2 2 2 79.19 16.7
1 -2 -2 433.66 25.5
1 -2 -2 421.36 28.9
-1 2 2 418.56 28.3
0 -2 -2 3898.51 172.38
0 2 2 3618.84 172.58
-1 -2 -2 70.09 10
-1 -2 -2 63.69 11.1
-1 -2 -2 71.69 15.1
1 2 2 44.6 8.8
1 2 2 66.29 14.5
1 2 2 60.99 8.7
-2 -2 -2 339.47 32.5
-2 -2 -2 334.07 31.8
-2 -2 -2 351.66 35.9
2 2 2 356.16 31.8
2 2 2 410.16 33.5
2 2 2 322.47 34.8
-3 -2 -2 311.47 44.4
-3 -2 -2 306.37 37.5
-3 -2 -2 302.37 37.4
3 2 2 389.76 38.9
3 2 2 370.76 42.9
-4 -2 -2 160.08 32.2
-4 -2 -2 140.09 32
4 2 2 228.98 33.5
4 -3 -2 -11.3 12.8
4 -3 -2 2 12.2
-4 3 2 6.1 10.7
3 -3 -2 41.7 12.9
3 -3 -2 99.89 22.4
3 -3 -2 74.09 18.8
-3 3 2 79.29 19.6
-3 3 2 59.99 13.1
2 -3 -2 49.5 13.6
2 -3 -2 74.29 15.7
2 -3 -2 82.19 11.2
-2 3 2 56.89 13.5
-2 3 2 73.49 10.3
1 -3 -2 3.9 3.3
-1 3 2 3.2 2.7
0 -3 -2 1525.05 75.39
0 -3 -2 1610.14 69.19
0 3 2 1468.75 75.99
-1 -3 -2 211.78 19.6
-1 -3 -2 231.28 18.5
-1 -3 -2 238.78 24.4
1 3 2 211.58 18
-2 -3 -2 19.1 9.9
-2 -3 -2 5.3 6.4
-2 -3 -2 17.2 7.6
2 3 2 11.8 7.7
2 3 2 18.7 10.4
2 3 2 17.2 9
-3 -3 -2 325.17 37.4
-3 -3 -2 386.86 57.89
-3 -3 -2 443.06 43.9
3 3 2 332.87 37.2
-4 -3 -2 333.57 40.1
-4 -3 -2 328.47 44.8
4 -4 -2 9.9 13.2
4 -4 -2 15.9 13.5
3 -4 -2 322.17 37.9
3 -4 -2 386.36 38.8
3 -4 -2 375.86 34.4
-3 4 2 374.86 40.8
-3 4 2 345.77 31.1
2 -4 -2 700.93 48.6
2 -4 -2 816.22 55.19
-2 4 2 834.12 55.89
-2 4 2 865.61 49.5
1 -4 -2 396.16 26.3
1 -4 -2 370.06 26.2
-1 4 2 396.86 27.1
0 -4 -2 1936.21 90.59
0 4 2 1754.02 90.79
-1 -4 -2 603.44 37.6
-1 -4 -2 668.73 41.1
-1 -4 -2 641.04 46.9
1 4 2 621.74 37.4
1 4 2 606.74 38.7
-2 -4 -2 123.99 18.3
-2 -4 -2 124.79 21.2
-2 -4 -2 137.49 19.5
2 4 2 98.89 16.5
2 4 2 121.69 17.3
-3 -4 -2 97.99 24
-3 -4 -2 72.89 18.8
-3 -4 -2 78.49 21.1
3 4 2 94.69 21.8
-4 -4 -2 -1.8 15.8
-4 -4 -2 29.9 16.5
4 4 2 4.3 17.3
4 -5 -2 0.6 13
4 -5 -2 -10.1 15
-4 5 2 3.6 9.1
3 -5 -2 21.6 9.7
3 -5 -2 3.3 12.7
3 -5 -2 12.8 12.4
-3 5 2 -1 7.5
-3 5 2 35.8 16.3
2 -5 -2 24.3 9.1
2 -5 -2 33.7 9.8
-2 5 2 42.3 11
-2 5 2 31.2 11
1 -5 -2 698.93 41.5
1 -5 -2 733.83 42.9
-1 5 2 705.83 42.2
0 -5 -2 148.59 13.6
0 5 2 140.99 13.8
-1 -5 -2 53.79 14
-1 -5 -2 51.89 9.4
-1 -5 -2 55.79 9.3
1 5 2 62.49 8.6
1 5 2 41.5 8.7
-2 -5 -2 418.16 38.9
-2 -5 -2 451.55 37.7
-2 -5 -2 524.35 45.6
2 5 2 474.25 38.2
2 5 2 516.95 38.6
-3 -5 -2 126.69 28.4
-3 -5 -2 116.89 25.2
-3 -5 -2 123.59 24.4
3 5 2 142.69 28
-4 -5 -2 -6.8 14.9
-4 -5 -2 25.5 18.8
4 5 2 15.4 17.2
4 -6 -2 72.99 26.1
4 -6 -2 55.79 20.1
-4 6 2 60.29 18.2
3 -6 -2 287.77 31
3 -6 -2 281.47 33.4
3 -6 -2 206.38 34.2
-3 6 2 241.48 34
-3 6 2 300.77 29.3
2 -6 -2 358.16 30.4
2 -6 -2 363.16 32.3
-2 6 2 346.47 32.4
1 -6 -2 80.89 10
1 -6 -2 67.49 10
-1 6 2 78.29 10.3
0 -6 -2 408.16 27.1
0 6 2 379.06 27.4
-1 -6 -2 288.07 24.4
-1 -6 -2 282.67 21.1
1 6 2 313.27 24
1 6 2 265.47 20.9
-2 -6 -2 238.28 24.8
-2 -6 -2 225.68 26.9
-2 -6 -2 212.48 28
2 6 2 279.97 27.2
2 6 2 268.67 26.2
-3 -6 -2 248.58 32.6
-3 -6 -2 173.48 31.4
-3 -6 -2 150.68 31.2
3 6 2 211.68 28.4
-4 -6 -2 5.3 15.5
4 6 2 11.3 17.1
4 -7 -2 8.6 14.9
4 -7 -2 3.3 22.3
-4 7 2 17.4 13.9
3 -7 -2 23.1 10.4
3 -7 -2 21.1 11.3
-3 7 2 37.5 17.6
-3 7 2 22.5 12.7
2 -7 -2 1731.73 92.19
2 -7 -2 1653.93 92.79
-2 7 2 1495.55 92.79
-2 7 2 1549.74 89.69
1 -7 -2 990.4 53.29
1 -7 -2 939.31 56.49
-1 7 2 948.41 54.19
0 -7 -2 2469.05 115.59
0 7 2 2171.78 120.79
0 7 2 2115.39 105.19
0 7 2 2553.74 105.49
-1 -7 -2 466.65 35.4
-1 -7 -2 529.75 31.8
1 7 2 502.85 34.9
1 7 2 524.85 32.5
-2 -7 -2 114.39 23.9
-2 -7 -2 97.99 19.7
-2 -7 -2 70.09 15.4
2 7 2 77.29 15.9
2 7 2 79.79 16.8
-3 -7 -2 26.4 16.7
-3 -7 -2 9.9 12.3
-3 -7 -2 8 12.6
3 7 2 25 13.7
-4 -7 -2 -11 12.3
-4 -7 -2 -8.6 14.6
4 7 2 -7.8 17.5
4 -8 -2 133.79 31.7
3 -8 -2 46.5 16.3
3 -8 -2 3.8 9.7
-3 8 2 30.9 16.3
-3 8 2 21.1 11.9
2 -8 -2 31.9 10.2
2 -8 -2 22.5 9.5
-2 8 2 21.6 8.8
-2 8 2 68.59 15.4
1 -8 -2 136.49 13.8
1 -8 -2 103.89 14.4
-1 8 2 131.29 14
0 -8 -2 963.8 52.99
0 8 2 960.9 44.4
0 8 2 778.42 52.19
-1 -8 -2 41.5 10.1
-1 -8 -2 33.6 7.2
1 8 2 46.3 10
1 8 2 49.8 9.7
-2 -8 -2 15.5 8.2
-2 -8 -2 6.6 8.7
-2 -8 -2 8.6 9.1
2 8 2 22.1 9.2
2 8 2 35.7 9.9
-3 -8 -2 -0.7 8.1
-3 -8 -2 -4.9 8.8
-3 -8 -2 20.2 12.8
3 8 2 8.3 8.8
-4 -8 -2 0.2 16.5
-4 -8 -2 21.4 19
4 8 2 22.2 21.7
4 -9 -2 11.6 11.9
-4 9 2 -18 11.9
3 -9 -2 16.6 10.2
3 -9 -2 16.8 10.8
-3 9 2 1.3 6.7
2 -9 -2 13.2 8
2 -9 -2 5.2 8.1
-2 9 2 3 6.1
-2 9 2 7 7.7
1 -9 -2 409.36 28.6
1 -9 -2 419.46 33.5
1 -9 -2 409.56 33.6
-1 9 2 466.95 32
0 -9 -2 47.7 10.5
0 9 2 39.1 5.3
0 9 2 44.5 10.6
-1 -9 -2 1054.49 59.19
1 9 2 918.41 56.39
1 9 2 821.22 51.19
-2 -9 -2 67.19 18.6
-2 -9 -2 66.99 18.8
-2 -9 -2 69.29 14.2
2 9 2 86.79 17.7
2 9 2 72.49 17
-3 -9 -2 -19.4 10.2
-3 -9 -2 10.2 9
3 9 2 4.8 10.6
-4 -9 -2 -6.4 19.6
4 -10 -2 96.69 29.4
-4 10 2 97.19 25.7
3 -10 -2 13.8 9.6
3 -10 -2 -4.9 10.8
-3 10 2 8.7 8.6
2 -10 -2 87.79 18.9
2 -10 -2 57.49 13.7
-2 10 2 55.49 15.8
-2 10 2 71.89 16.3
1 -10 -2 1413.26 70.29
1 -10 -2 1255.17 76.29
1 -10 -2 1240.48 75.99
-1 10 2 1277.87 71.99
0 -10 -2 200.98 19.9
0 10 2 200.78 20.9
0 10 2 219.38 15
-1 -10 -2 79.99 15.2
1 10 2 73.69 15.1
1 10 2 73.99 10.8
-2 -10 -2 126.09 26.1
-2 -10 -2 153.48 19
-2 -10 -2 163.38 22.5
2 10 2 139.59 19.7
2 10 2 131.49 19.5
-3 -10 -2 -3 14.1
-3 -10 -2 6.3 10.2
-3 -10 -2 0.2 8.9
3 10 2 18.4 12.4
4 -11 -2 -3.7 14.4
-4 11 2 8 17
3 -11 -2 96.89 30.1
-3 11 2 112.09 17.5
2 -11 -2 272.67 27.8
2 -11 -2 352.36 33.2
-2 11 2 282.27 31
-2 11 2 244.78 30.4
1 -11 -2 37.6 10.9
1 -11 -2 25.7 9.1
-1 11 2 34.6 9.2
0 -11 -2 981 58.09
0 -11 -2 928.01 61.69
0 11 2 929.91 59.59
0 11 2 993.9 50.19
-1 -11 -2 7.2 5.5
1 11 2 5.8 5.3
1 11 2 2.7 4
-2 -11 -2 1.7 6.4
-2 -11 -2 3.9 5.5
-2 -11 -2 3.6 8.3
2 11 2 4 7
2 11 2 18.8 9.3
-3 -11 -2 45 18.2
-3 -11 -2 41.8 17.6
-3 -11 -2 56.69 19.7
3 11 2 35.5 15.4
4 -12 -2 73.69 25.6
-4 12 2 19.6 18
3 -12 -2 475.65 46
2 -12 -2 443.66 37.4
2 -12 -2 442.46 40.6
-2 12 2 434.56 40.5
-2 12 2 460.45 44.1
1 -12 -2 -3.3 4.4
1 -12 -2 -1 5
-1 12 2 10.3 6.7
0 -12 -2 12.7 7.1
0 -12 -2 -2.3 4
0 12 2 0.3 3.4
0 12 2 5.3 5.3
-1 -12 -2 182.28 21
1 12 2 177.88 17.7
1 12 2 183.18 21.7
-2 -12 -2 -4.6 7.4
-2 -12 -2 4 6.2
-2 -12 -2 8.2 8.2
2 12 2 -2 7.5
-3 -12 -2 21.1 17.2
-3 -12 -2 13.5 16.2
3 12 2 23 13.5
3 -13 -2 12.4 12.1
-3 13 2 32 13.4
2 -13 -2 171.98 21.7
2 -13 -2 171.38 25
-2 13 2 143.89 23.5
-2 13 2 193.18 27.7
1 -13 -2 61.59 14.7
1 -13 -2 60.09 14.4
-1 13 2 52.89 12.5
0 -13 -2 38 12.8
0 -13 -2 48.3 11.8
0 13 2 49 8.9
0 13 2 45.5 11.9
-1 -13 -2 13.4 7.3
1 13 2 5.9 6.7
1 13 2 -4.3 3.9
-2 -13 -2 147.39 30.7
2 13 2 178.88 23.6
-3 -13 -2 34.7 16.3
-3 -13 -2 17.7 13.6
-3 -13 -2 9.8 16.2
3 13 2 0.2 9.3
3 -14 -2 5.7 11.2
-3 14 2 -17.9 10.6
2 -14 -2 306.47 29.9
-2 14 2 269.97 32.2
1 -14 -2 5.3 5.1
1 -14 -2 9.5 6.9
-1 14 2 19.8 7.5
0 -14 -2 814.42 52.49
0 -14 -2 704.63 79.69
0 14 2 836.52 45.7
0 14 2 715.33 52.99
-1 -14 -2 244.88 26.3
1 14 2 217.28 21.2
1 14 2 201.58 24.3
-2 -14 -2 0.5 8.4
2 14 2 -13.2 7.2
-3 -14 -2 -16.2 10.3
-3 -14 -2 1.8 15
3 14 2 -1.9 12.1
3 -15 -2 24 14.9
-3 15 2 16.6 14.2
2 -15 -2 162.78 26.1
-2 15 2 171.78 34.6
1 -15 -2 377.46 34.7
1 -15 -2 291.57 33.9
-1 15 2 361.46 31.3
0 -15 -2 121.99 20.3
0 -15 -2 156.28 19.1
0 15 2 115.69 13.8
-1 -15 -2 119.09 19.3
1 15 2 107.99 15.2
1 15 2 73.39 16.7
-2 -15 -2 1.6 8.1
2 15 2 2.6 9.2
-3 -15 -2 1 13.8
-3 -15 -2 26.3 20.4
3 15 2 -2.4 14.5
3 -16 -2 42.4 19.4
-3 16 2 36.4 20
2 -16 -2 -0.9 9.4
-2 16 2 47.1 15.3
1 -16 -2 17.8 9.3
-1 16 2 12.5 7.3
0 -16 -2 1258.87 79.89
0 -16 -2 1112.49 71.79
-1 -16 -2 241.58 27.7
-1 -16 -2 191.18 38
1 16 2 207.78 22.2
1 16 2 220.28 45.7
-2 -16 -2 112.19 25.5
2 16 2 163.58 23
-3 -16 -2 116.19 30.8
-3 -16 -2 76.59 27.8
3 16 2 86.79 28
2 -17 -2 426.46 42.8
-2 17 2 302.57 37.5
1 -17 -2 59.89 14.8
-1 17 2 43.6 12.6
0 -17 -2 169.48 23.1
0 17 2 178.48 18.6
0 17 2 179.48 19.4
-1 -17 -2 146.39 35.7
-2 -17 -2 49.5 18.1
2 17 2 70.29 17
-3 -17 -2 1.8 19.5
2 -18 -2 103.89 25.2
-2 18 2 91.09 23.9
1 -18 -2 37.5 19.2
-1 18 2 31.1 12.7
0 -18 -2 41 14
0 18 2 58.89 13.6
0 18 2 47.2 11.9
-1 -18 -2 219.08 28.4
1 18 2 237.08 25.2
-2 -18 -2 782.22 64.79
2 18 2 719.73 55.99
2 -19 -2 1.5 12.2
1 -19 -2 236.88 31.3
-1 19 2 251.47 28.6
0 -19 -2 7 7.7
0 19 2 6.2 8.3
0 19 2 -0.4 4.4
-1 -19 -2 80.79 20
1 19 2 60.59 15.5
-2 -19 -2 -9.7 11.6
2 19 2 20.7 13.3
2 -20 -2 39.3 15.3
1 -20 -2 7.8 9.4
-1 20 2 17.7 15.1
0 -20 -2 75.89 17.6
0 20 2 84.19 15.8
0 20 2 83.79 15.7
-1 -20 -2 42.7 16.1
1 20 2 44.6 13.8
-2 -20 -2 3.2 11.4
2 20 2 -3.7 13.9
2 -21 -2 30.6 13.5
1 -21 -2 35.8 14.7
-1 21 2 22.8 23.4
0 -21 -2 22.4 16
0 21 2 9.9 9.3
0 21 2 5.4 12.3
-1 -21 -2 97.99 23.9
1 21 2 84.69 19.1
1 -22 -2 32.2 13.8
-1 22 2 34 20.5
0 -22 -2 5.2 11.8
0 22 2 11.8 8.7
0 22 2 -9.2 12.7
-1 -22 -2 56.99 19
1 22 2 66.89 19.2
1 22 2 71.69 17.1
1 -23 -2 16 13.6
-1 23 2 26.6 24.8
0 -23 -2 63.39 18.7
0 23 2 53.19 15.1
0 23 2 16.2 17.7
-1 -23 -2 34.7 16.6
1 23 2 -4.8 14.4
1 23 -3 -18.9 11.6
-1 -23 3 -6.8 12
0 -23 3 54.39 15.1
1 22 -3 16.4 13.8
-1 -22 3 -7.4 10.6
0 -22 3 20.1 11.5
1 -22 3 8.3 17.1
1 -22 3 16.9 10.3
2 21 -3 -4.9 12.9
2 21 -3 -13.6 13
-2 -21 3 -1.4 12.9
1 21 -3 49 16.9
-1 -21 3 38 12.7
0 -21 3 16.2 10.7
-1 21 -3 28.8 16.5
1 -21 3 29.8 15
1 -21 3 7.6 10.5
2 20 -3 167.48 35.9
2 20 -3 217.88 39.6
-2 -20 3 262.57 31.4
-2 -20 3 194.38 30.1
1 20 -3 1.8 9.7
-1 -20 3 5.7 9.9
0 20 -3 31.3 14.5
-1 20 -3 65.59 23.8
1 -20 3 36 11.2
1 -20 3 42 16.1
-2 20 -3 11.4 18.6
2 19 -3 16.3 12.6
2 19 -3 -10.5 9.2
-2 -19 3 -31.2 19.2
-2 -19 3 25.5 11.5
1 19 -3 19.9 14
-1 -19 3 -0.2 10.6
-1 -19 3 41.1 10.9
0 19 -3 287.97 35.1
0 -19 3 279.27 22.6
-1 19 -3 9.7 11.9
1 -19 3 -6.6 10.5
1 -19 3 6.1 8.8
-2 19 -3 41.2 36.2
2 -19 3 99.39 21.8
2 -19 3 31.3 20.2
3 18 -3 43.3 22.2
-3 -18 3 23.9 13.9
-3 -18 3 45.1 19.5
-3 -18 3 -1.7 13.4
2 18 -3 48.5 19.9
2 18 -3 30.4 12
-2 -18 3 11.1 12.5
-2 -18 3 29.1 10.6
1 18 -3 150.28 29.5
-1 -18 3 145.29 27.8
0 18 -3 23.9 15.1
0 -18 3 26.6 7.1
-1 18 -3 28.4 13.3
1 -18 3 -3.5 7.4
1 -18 3 -11 7.8
-2 18 -3 71.79 25.2
2 -18 3 71.49 21.7
3 17 -3 67.59 24
-3 -17 3 29.3 13.9
-3 -17 3 50.29 17.9
-3 -17 3 28.9 15.7
2 17 -3 9.4 13.9
2 17 -3 27.1 9.8
-2 -17 3 10.9 10.6
-2 -17 3 13.7 11
-1 -17 3 410.66 31.3
-1 -17 3 431.46 40.8
0 17 -3 50.39 15.5
0 -17 3 38.3 7.9
0 -17 3 31.3 13.2
-1 17 -3 192.18 29.3
1 -17 3 151.58 20.1
1 -17 3 151.38 18.8
-2 17 -3 57.49 17.4
3 16 -3 72.59 24.8
-3 -16 3 34.5 23.9
-3 -16 3 69.99 18.7
-3 -16 3 54.69 14
2 16 -3 119.89 26.6
2 16 -3 81.29 14.8
-2 -16 3 68.19 15.6
-2 -16 3 89.99 18.5
1 16 -3 184.48 26.2
-1 -16 3 191.68 24.5
-1 -16 3 137.79 16.6
0 16 -3 18 10.1
0 -16 3 9.8 4.8
0 -16 3 -2.2 8.3
-1 16 -3 922.61 68.19
1 -16 3 712.83 59.29
1 -16 3 805.42 51.59
-2 16 -3 240.68 33.5
2 -16 3 221.08 30.6
3 15 -3 24.4 15.8
-3 -15 3 7.4 9.9
-3 -15 3 19.8 10.4
-3 -15 3 -4 13.1
2 15 -3 49.3 11.8
2 15 -3 57.19 20.3
-2 -15 3 35.3 11.6
-2 -15 3 43.8 13.3
1 15 -3 381.96 38.4
1 15 -3 402.56 27.4
-1 -15 3 467.05 38.8
-1 -15 3 364.96 28.2
0 15 -3 437.56 41
0 -15 3 445.66 27
-1 15 -3 5.5 8.5
1 -15 3 11.8 8
1 -15 3 19.7 7.2
-2 15 -3 16.8 13
2 -15 3 38.8 14.6
-3 15 -3 7.3 14.9
3 14 -3 99.69 27.2
-3 -14 3 66.69 14.3
-3 -14 3 95.39 14.2
-3 -14 3 121.19 24.1
2 14 -3 -9.1 4.9
2 14 -3 -6.1 9.1
-2 -14 3 -2.7 6.9
-2 -14 3 8.1 6.8
1 14 -3 53.79 8.3
1 14 -3 39.5 13.9
-1 -14 3 78.79 16.6
-1 -14 3 66.69 10.3
0 14 -3 9 9.2
0 -14 3 3.5 3.9
0 -14 3 27 11.9
-1 14 -3 287.07 55.49
-1 14 -3 244.08 31.3
1 -14 3 289.27 34.4
1 -14 3 274.77 23.1
-2 14 -3 28.9 16.1
2 -14 3 101.29 19.5
-3 14 -3 21 20.4
3 13 -3 38.8 16.5
-3 -13 3 12 6.3
-3 -13 3 6.5 9.7
-3 -13 3 -2.5 5.7
2 13 -3 43.7 11.1
2 13 -3 36.2 16
-2 -13 3 53.39 14.7
1 13 -3 62.99 16.4
1 13 -3 61.39 8.6
-1 -13 3 70.49 10.9
-1 -13 3 67.49 14.4
0 13 -3 27.1 10.2
0 -13 3 15.5 11.1
0 -13 3 21.9 5.3
-1 13 -3 90.29 20.5
-1 13 -3 129.39 20.7
1 -13 3 127.49 20.8
1 -13 3 96.69 14.8
-2 13 -3 34 13.3
2 -13 3 50.99 16
-3 13 -3 119.99 29.5
-4 -12 3 98.69 28.2
3 12 -3 54.79 15.6
3 12 -3 59.79 20.2
-3 -12 3 55.29 8.3
-3 -12 3 25.5 12.9
-3 -12 3 56.49 9.6
2 12 -3 436.26 31.3
2 12 -3 370.66 40.4
-2 -12 3 508.25 38.4
-2 -12 3 369.46 29.1
1 12 -3 181.28 37.7
1 12 -3 197.68 15.5
1 12 -3 229.68 26.3
-1 -12 3 212.48 18.2
-1 -12 3 233.18 23.1
0 12 -3 339.67 31
0 -12 3 310.97 32.2
0 -12 3 298.27 18.1
-1 12 -3 2.9 7.9
1 -12 3 1.8 5.8
1 -12 3 1.8 7.5
-2 12 -3 328.27 38.3
2 -12 3 259.77 30.6
-3 12 -3 -11.7 11.9
4 11 -3 95.89 24.1
3 11 -3 26.3 13.8
3 11 -3 34.1 14.9
-3 -11 3 44.3 6.3
-3 -11 3 34.4 14.5
2 11 -3 780.72 46.4
2 11 -3 824.42 59.99
-2 -11 3 635.84 41
-2 -11 3 643.94 48.4
1 11 -3 376.16 24.2
1 11 -3 391.56 36
1 11 -3 450.35 32.3
-1 -11 3 401.66 26.7
-1 -11 3 423.46 32.8
0 11 -3 -1 2.7
0 -11 3 3.9 6.2
0 -11 3 3.6 2.1
-1 11 -3 316.17 32.6
-1 11 -3 245.98 48.9
1 -11 3 259.97 22.7
1 -11 3 250.67 31.2
-2 11 -3 0.2 9.1
2 -11 3 10 10.8
-3 11 -3 -16.5 10.3
4 10 -3 122.69 32.2
3 10 -3 234.98 34.6
3 10 -3 250.27 28.7
-3 -10 3 251.37 31.4
2 10 -3 33.6 12
2 10 -3 46.8 10.3
-2 -10 3 54.19 12.7
-2 -10 3 36.6 7.9
1 10 -3 4.3 6.3
1 10 -3 8.2 4.5
1 10 -3 5.3 2.5
-1 -10 3 0.1 3.6
-1 -10 3 4.1 5
0 10 -3 1204.08 71.49
0 -10 3 1151.08 73.09
-1 10 -3 96.89 18.8
-1 10 -3 80.29 19
1 -10 3 105.79 23
1 -10 3 76.79 12.2
-2 10 -3 135.99 22.8
2 -10 3 100.19 20.4
-3 10 -3 9.9 8.6
4 9 -3 44.5 24.8
3 9 -3 1 7.5
3 9 -3 21.2 11.6
2 9 -3 142.29 21.3
2 9 -3 124.59 15.5
-2 -9 3 129.39 17.4
1 9 -3 9.1 4.6
1 9 -3 9.3 3.1
1 9 -3 8.2 5.6
-1 -9 3 10.8 4.2
-1 -9 3 17.5 5.9
0 9 -3 151.88 19.1
0 -9 3 174.38 21.2
-1 9 -3 35.8 12.1
-1 9 -3 18.9 8.6
1 -9 3 10.9 8.5
1 -9 3 36.3 8.8
-2 9 -3 341.67 38
-2 9 -3 380.66 38.6
2 -9 3 387.06 34.6
2 -9 3 352.86 43.3
-3 9 -3 8 9.8
3 -9 3 30.3 14.7
4 8 -3 38.8 23.9
3 8 -3 428.76 38.4
-3 -8 3 375.16 40.6
2 8 -3 317.07 26.5
2 8 -3 338.47 33.5
-2 -8 3 342.47 30.8
-2 -8 3 264.57 18
1 8 -3 74.09 7.8
1 8 -3 75.49 9.9
1 8 -3 89.89 14.2
-1 -8 3 80.99 9.6
-1 -8 3 104.19 12.1
0 8 -3 91.99 13.7
0 -8 3 103.49 15.2
-1 8 -3 582.84 44.9
-1 8 -3 615.14 48.8
1 -8 3 659.33 52.89
1 -8 3 629.84 38.9
-2 8 -3 11.5 10.8
-2 8 -3 24.6 12
2 -8 3 7.5 8.7
2 -8 3 2 9.4
-3 8 -3 2.4 13.8
3 -8 3 15.2 10.6
4 7 -3 -2.1 13.1
3 7 -3 105.49 26.2
3 7 -3 80.19 20.6
2 7 -3 174.88 20.4
2 7 -3 200.68 25.5
-2 -7 3 211.38 26.7
-2 -7 3 184.38 22.2
1 7 -3 2668.13 139.29
1 7 -3 2983.3 142.89
1 7 -3 3067.19 154.38
-1 -7 3 3469.05 146.99
0 7 -3 1369.16 72.39
0 -7 3 1066.89 81.69
-1 7 -3 1194.58 76.99
-1 7 -3 1172.78 72.29
1 -7 3 1230.68 80.59
1 -7 3 1225.88 65.19
-2 7 -3 198.48 28
-2 7 -3 200.18 27.5
2 -7 3 152.78 20.9
2 -7 3 164.58 22.4
2 -7 3 125.09 27.3
-3 7 -3 -3.6 12.6
3 -7 3 10.2 12.2
4 6 -3 28.1 17.8
3 6 -3 364.26 36.2
3 6 -3 336.97 40.2
2 6 -3 222.98 25.8
2 6 -3 205.88 21.5
-2 -6 3 194.38 22.7
1 6 -3 580.24 41.4
1 6 -3 536.45 32
1 6 -3 511.15 31.1
-1 -6 3 678.53 35.9
0 6 -3 -1.5 4.2
0 -6 3 5.6 4.3
-1 6 -3 101.19 16.2
-1 6 -3 90.19 17.3
1 -6 3 96.49 12.2
1 -6 3 94.09 20.6
-2 6 -3 117.69 24.6
-2 6 -3 100.59 22.2
2 -6 3 166.28 20.9
2 -6 3 122.69 18.6
2 -6 3 159.68 26.8
-3 6 -3 62.49 21.6
3 -6 3 115.39 25.8
4 5 -3 24.9 16.1
3 5 -3 20.5 13.2
3 5 -3 20.3 13.7
-3 -5 3 10.3 10.3
2 5 -3 14.9 7.6
2 5 -3 7.4 8
-2 -5 3 7.9 7.2
1 5 -3 346.17 29.1
1 5 -3 333.87 20.8
1 5 -3 363.06 22.3
-1 -5 3 335.87 22.8
0 5 -3 2089.99 108.49
0 -5 3 2095.39 110.59
-1 5 -3 250.47 26.4
-1 5 -3 208.88 19.2
-1 5 -3 215.18 22.1
1 -5 3 219.18 18.7
1 -5 3 195.68 25.2
-2 5 -3 9.8 7.1
-2 5 -3 -1.6 7.9
-2 5 -3 -0.8 8.9
2 -5 3 3.5 6.6
2 -5 3 -5.4 6.7
-3 5 -3 196.98 33
3 -5 3 203.28 29.4
-4 5 -3 -0.5 16.6
4 -5 3 30 15.1
4 4 -3 173.78 38.2
3 4 -3 16.2 14.1
3 4 -3 9.6 9.6
-3 -4 3 18.6 10.6
2 4 -3 1048.8 69.49
2 4 -3 1014.3 63.59
-2 -4 3 1122.09 67.99
1 4 -3 520.95 29.9
1 4 -3 440.36 26.5
1 4 -3 518.75 36.3
-1 -4 3 504.65 28.8
0 4 -3 4.3 3.7
0 4 -3 3.4 1.6
0 -4 3 0.8 1.2
0 -4 3 2.3 3.6
-1 4 -3 352.26 27.6
-1 4 -3 422.06 36.7
-1 4 -3 390.66 31.2
1 -4 3 361.96 36
1 -4 3 387.06 26.8
-2 4 -3 118.09 24.2
-2 4 -3 141.99 19.4
-2 4 -3 123.79 25.8
2 -4 3 100.39 24.5
2 -4 3 134.29 18.9
2 -4 3 111.99 21.5
-3 4 -3 18 13.2
3 -4 3 1.8 10
-4 4 -3 59.49 26.5
4 -4 3 57.49 29.7
4 3 -3 149.69 33.8
-4 -3 3 135.59 13.2
3 3 -3 16.6 12
3 3 -3 16.6 11.3
-3 -3 3 40.8 14.2
2 3 -3 549.05 40.3
2 3 -3 532.95 43.6
-2 -3 3 560.64 42.6
1 3 -3 6.6 2.5
1 3 -3 5.5 3
-1 -3 3 7.3 3
0 3 -3 109.79 14.6
0 3 -3 137.09 9
0 -3 3 104.09 15
0 -3 3 115.69 8.5
-1 3 -3 96.09 16.4
-1 3 -3 91.39 12.3
1 -3 3 92.39 11.4
1 -3 3 77.09 17.5
-2 3 -3 54.59 14.5
-2 3 -3 30.3 12.2
-2 3 -3 42.2 14.3
2 -3 3 40.6 10.6
2 -3 3 60.19 14.5
2 -3 3 43.1 17
-3 3 -3 3.7 12
3 -3 3 23.8 11.3
-4 3 -3 35.5 21
4 -3 3 3.1 28.3
4 2 -3 18 13.8
-4 -2 3 19.5 6.8
3 2 -3 312.77 36.1
3 2 -3 324.87 35.5
-3 -2 3 313.27 34.8
2 2 -3 266.77 28
2 2 -3 265.67 25.5
-2 -2 3 261.77 26.7
1 2 -3 70.59 7.5
1 2 -3 73.49 10.8
-1 -2 3 83.89 10.8
0 2 -3 1954.7 102.59
0 2 -3 1995.3 90.59
0 -2 3 1968.9 90.89
0 -2 3 1856.61 101.99
-1 2 -3 885.11 53.79
-1 2 -3 834.52 50.59
-1 2 -3 848.12 59.99
1 -2 3 830.62 48.5
1 -2 3 909.51 61.89
-2 2 -3 171.78 24.9
-2 2 -3 249.58 30.8
-2 2 -3 241.18 27.2
2 -2 3 256.87 26.3
2 -2 3 220.58 31.2
2 -2 3 239.38 25.5
-3 2 -3 131.69 34.5
-3 2 -3 126.39 34.5
-4 2 -3 45.3 22.1
4 -2 3 3.9 13.5
4 1 -3 -8.7 11.8
-4 -1 3 -11.3 6.3
3 1 -3 55.19 16.1
3 1 -3 86.59 10.3
3 1 -3 52.79 18.9
-3 -1 3 105.49 10.2
-3 -1 3 75.29 18.9
2 1 -3 416.16 34.1
2 1 -3 421.56 22.2
2 1 -3 371.46 34.9
-2 -1 3 405.86 34.8
1 1 -3 36.4 8.8
1 1 -3 26.8 6
0 1 -3 1725.53 76.09
0 1 -3 1545.75 86.59
0 -1 3 1560.74 76.19
0 -1 3 1499.35 85.79
-1 1 -3 243.18 27.7
-1 1 -3 286.17 23.5
1 -1 3 250.37 27.8
1 -1 3 312.47 22.6
-2 1 -3 43.1 15.4
-2 1 -3 58.29 15.5
-2 1 -3 40.9 12.1
2 -1 3 68.69 19.3
2 -1 3 55.29 13.1
2 -1 3 46.1 13.4
-3 1 -3 193.58 55.19
-3 1 -3 214.98 33.2
-4 1 -3 15.3 15.1
-4 1 -3 26.7 19.2
4 -1 3 12.3 15.4
4 0 -3 -7 8.5
-4 0 3 4.8 7.8
3 0 -3 8.5 9.4
3 0 -3 11.5 5.5
3 0 -3 7.4 9.4
-3 0 3 10.3 5.6
-3 0 3 24.3 12.4
2 0 -3 2.1 2.6
-2 0 3 5.8 6.7
1 0 -3 1048.1 59.19
-1 0 3 1051.09 57.59
0 0 -3 0.1 2.4
0 0 -3 0.1 1.5
0 0 3 0.9 1.8
0 0 3 2.1 2.5
-1 0 -3 1064.19 61.29
-1 0 -3 1065.69 62.09
-1 0 -3 984.3 71.09
1 0 3 1160.48 61.09
1 0 3 1097.79 71.89
1 0 3 1106.69 60.79
-2 0 -3 2.4 6
-2 0 -3 -6.8 5.7
-2 0 -3 -1.8 5.8
2 0 3 3.8 7.5
2 0 3 13.6 6.9
2 0 3 2.2 6.1
-3 0 -3 882.81 76.99
-3 0 -3 818.92 69.49
3 0 3 985 70.59
-4 0 -3 19 19
-4 0 -3 -7.8 16.4
4 0 3 38.1 21.4
4 -1 -3 -2.5 8.9
4 -1 -3 9.1 10.9
3 -1 -3 83.79 21.2
3 -1 -3 80.69 12.1
3 -1 -3 67.59 18.7
-3 1 3 61.29 18.3
2 -1 -3 405.96 35.3
2 -1 -3 383.46 25.2
2 -1 -3 372.66 32.9
-2 1 3 393.76 33.6
1 -1 -3 28.7 7.4
-1 1 3 25.1 6.9
0 -1 -3 1368.66 70.29
0 -1 -3 1428.16 80.79
0 1 3 1492.35 72.09
-1 -1 -3 232.48 21.5
-1 -1 -3 197.68 25.5
-1 -1 -3 250.17 21.8
1 1 3 308.47 22.2
1 1 3 245.78 27.4
-2 -1 -3 46.9 13.4
-2 -1 -3 45.5 16.3
-2 -1 -3 40.2 12.9
2 1 3 37.6 15.7
2 1 3 35.9 10.3
2 1 3 34.9 10
-3 -1 -3 84.19 23.7
-3 -1 -3 64.99 20.9
3 1 3 74.69 18.8
-4 -1 -3 30.3 17.1
4 1 3 35.4 20.5
4 -2 -3 7.2 10
4 -2 -3 38.3 16.2
-4 2 3 14.6 10.7
3 -2 -3 304.77 36.8
3 -2 -3 327.97 28.5
3 -2 -3 402.06 39.8
-3 2 3 332.77 35.5
-3 2 3 358.16 27.2
2 -2 -3 296.87 21.6
2 -2 -3 257.87 27.1
-2 2 3 249.58 25.8
1 -2 -3 68.69 10
-1 2 3 72.29 9.4
0 -2 -3 1699.03 99.79
0 -2 -3 2115.19 92.29
0 2 3 1781.32 91.99
-1 -2 -3 881.31 51.99
-1 -2 -3 957.9 64.39
-1 -2 -3 833.52 52.59
1 2 3 992.5 64.99
1 2 3 879.61 51.39
1 2 3 841.12 49.9
-2 -2 -3 202.38 23.6
-2 -2 -3 242.98 31.9
-2 -2 -3 172.58 22.7
2 2 3 184.68 22.4
2 2 3 203.78 29.4
2 2 3 186.48 22.2
-3 -2 -3 196.98 29.2
3 2 3 109.59 23.6
-4 -2 -3 72.09 21.3
4 2 3 67.29 23.7
4 -3 -3 136.89 30
4 -3 -3 111.49 23.3
-4 3 3 119.99 19.5
3 -3 -3 24.9 16.7
3 -3 -3 32.2 14.5
3 -3 -3 9.7 7.8
-3 3 3 27.3 8.5
-3 3 3 14.7 12.1
2 -3 -3 527.55 35.1
2 -3 -3 560.44 43.3
-2 3 3 579.14 42.8
1 -3 -3 6.8 4
-1 3 3 4.9 4.1
0 -3 -3 126.09 12.3
0 3 3 106.59 12.2
-1 -3 -3 84.09 11.2
-1 -3 -3 60.79 16.1
1 3 3 91.49 10.7
1 3 3 122.49 13.2
-2 -3 -3 27.6 9.7
-2 -3 -3 25.5 13
-2 -3 -3 61.49 14.7
2 3 3 36.2 10.6
2 3 3 43.2 11.8
-3 -3 -3 -14.9 8.5
-3 -3 -3 8.6 11.5
-3 -3 -3 3.7 12.2
3 3 3 1.2 9
-4 -3 -3 34.5 24.5
-4 -3 -3 9.2 18.6
4 3 3 18.8 19.4
4 -4 -3 213.08 32.3
4 -4 -3 139.49 24.3
-4 4 3 166.48 22.3
3 -4 -3 10.4 8.9
3 -4 -3 26.6 15.1
3 -4 -3 2 11.5
-3 4 3 5.3 10.1
-3 4 3 28.3 9.8
2 -4 -3 1079.39 61.39
2 -4 -3 1094.99 69.19
-2 4 3 1079.39 67.99
1 -4 -3 502.85 32.5
-1 4 3 509.25 32.2
0 -4 -3 -2.5 2.4
0 -4 -3 -0.3 1.1
0 -4 -3 2.5 1.2
0 4 3 -1 2.7
-1 -4 -3 360.86 26.7
-1 -4 -3 418.56 31.2
-1 -4 -3 433.16 39.1
1 4 3 366.96 26
1 4 3 414.76 29.6
-2 -4 -3 140.99 22.2
-2 -4 -3 131.49 19.1
-2 -4 -3 123.89 20.2
2 4 3 129.89 18.5
2 4 3 123.09 17.7
-3 -4 -3 22.1 12
-3 -4 -3 3.8 14.8
3 4 3 -11.2 10.2
-4 -4 -3 44.2 25.9
-4 -4 -3 26.5 24
4 4 3 107.99 24.6
4 -5 -3 10.3 15.8
4 -5 -3 22.6 14.2
-4 5 3 6.4 11.4
3 -5 -3 16.4 14.3
3 -5 -3 19.7 10.9
3 -5 -3 22.3 9.3
-3 5 3 18.3 12.6
-3 5 3 33.1 10
2 -5 -3 21 8.1
2 -5 -3 17.2 7.9
-2 5 3 19.7 7.8
1 -5 -3 316.67 25.8
1 -5 -3 371.56 25.3
-1 5 3 364.86 25
0 -5 -3 1891.21 101.09
0 5 3 2200.38 105.59
-1 -5 -3 200.08 18.2
-1 -5 -3 225.98 27.3
-1 -5 -3 192.18 20.7
1 5 3 244.98 21.7
1 5 3 253.47 18.5
-2 -5 -3 2.9 8.3
-2 -5 -3 7.8 5.7
-2 -5 -3 3.1 6.6
2 5 3 -0.4 4.9
-3 -5 -3 200.38 30
-3 -5 -3 236.28 49.99
-3 -5 -3 181.68 32.5
3 5 3 207.28 30
-4 -5 -3 15.6 16.8
-4 -5 -3 26.1 20.5
4 5 3 -7.8 15.1
4 -6 -3 48.9 18.1
4 -6 -3 47.2 32.9
-4 6 3 46.2 13.9
3 -6 -3 290.57 35.3
3 -6 -3 275.57 28.9
-3 6 3 269.47 28.4
-3 6 3 318.17 37
2 -6 -3 206.88 21.4
2 -6 -3 253.87 25.8
-2 6 3 207.58 23.7
1 -6 -3 434.36 33.9
1 -6 -3 529.95 32.3
-1 6 3 539.95 32.8
0 -6 -3 5.2 3.4
0 6 3 5.9 3.6
-1 -6 -3 48.5 12.1
-1 -6 -3 85.59 21.2
-1 -6 -3 78.39 9.7
1 6 3 85.39 12.2
1 6 3 71.19 9.2
-2 -6 -3 127.69 18.6
-2 -6 -3 115.89 27
-2 -6 -3 107.69 21.8
2 6 3 96.29 19
2 6 3 137.99 18.5
-3 -6 -3 103.69 21.5
3 6 3 161.08 24.1
4 -7 -3 24.3 14.2
4 -7 -3 -18 13.5
-4 7 3 11.6 10.6
3 -7 -3 72.69 17.1
3 -7 -3 107.89 24.2
-3 7 3 90.19 18.7
-3 7 3 51.39 19.5
2 -7 -3 180.08 20.5
2 -7 -3 215.98 23.8
-2 7 3 221.78 24.7
1 -7 -3 2931.21 137.29
1 -7 -3 2904.21 144.19
1 -7 -3 2687.83 144.89
-1 7 3 2954.5 138.59
0 -7 -3 1367.76 72.29
0 7 3 1266.17 73.39
-1 -7 -3 1260.37 63.79
-1 -7 -3 1022.3 68.89
-1 -7 -3 1234.88 81.89
1 7 3 1282.47 63.39
1 7 3 1288.17 71.09
-2 -7 -3 181.68 25.4
-2 -7 -3 207.58 22.8
-2 -7 -3 229.38 30.5
2 7 3 161.38 21.1
2 7 3 201.78 22.9
-3 -7 -3 24.1 14.1
-3 -7 -3 33.1 16.4
-3 -7 -3 28.5 14.2
3 7 3 -0.5 11
4 -8 -3 52.29 21.2
4 -8 -3 50.79 22.8
-4 8 3 74.99 19
3 -8 -3 344.97 35.1
3 -8 -3 346.47 37.6
-3 8 3 334.87 38.9
-3 8 3 301.27 32.6
2 -8 -3 240.18 25.9
2 -8 -3 310.87 29.2
-2 8 3 313.87 30.1
1 -8 -3 83.29 10.2
1 -8 -3 60.79 13.7
1 -8 -3 90.59 14.7
-1 8 3 67.29 10
0 -8 -3 98.69 13.1
0 8 3 95.19 13.9
-1 -8 -3 598.24 35.7
-1 -8 -3 708.73 45.9
1 8 3 592.94 42.9
1 8 3 635.94 36.5
-2 -8 -3 -2.1 6.2
-2 -8 -3 12 9.6
-2 -8 -3 -1.6 6.4
2 8 3 18.7 8
2 8 3 15.9 8.2
-3 -8 -3 -4.4 10.8
-3 -8 -3 8.6 12.7
-3 -8 -3 -12.9 10.5
3 8 3 17.2 14.3
4 -9 -3 47.2 20.5
-4 9 3 64.49 26.7
3 -9 -3 30.4 21.2
3 -9 -3 25.5 13.6
-3 9 3 8.3 8.7
-3 9 3 11.2 13.1
2 -9 -3 120.79 18
2 -9 -3 116.09 17
-2 9 3 123.19 18.3
1 -9 -3 6.3 5.5
1 -9 -3 3.1 3.3
1 -9 -3 12.4 6.7
-1 9 3 5.5 4.4
0 -9 -3 154.28 17
0 9 3 131.99 17.3
-1 -9 -3 10.6 3.9
-1 -9 -3 12 6.2
1 9 3 18.6 5.6
1 9 3 4.7 5.3
-2 -9 -3 344.27 31.1
-2 -9 -3 334.77 36
-2 -9 -3 376.46 42.3
2 9 3 368.46 35.5
2 9 3 389.56 33.1
-3 -9 -3 33.1 15.5
-3 -9 -3 23.1 15.9
-3 -9 -3 16.7 10.8
3 9 3 22.8 13.9
4 -10 -3 105.99 29.8
-4 10 3 48.8 22
3 -10 -3 230.78 29.4
3 -10 -3 252.87 31.7
-3 10 3 217.08 29.1
2 -10 -3 45.6 13.6
2 -10 -3 35.6 11.4
-2 10 3 27.5 10.1
1 -10 -3 6.4 6.1
1 -10 -3 3.6 3.7
1 -10 -3 6.4 6
-1 10 3 -1 3.9
0 -10 -3 1221.88 68.09
0 10 3 1072.59 68.99
-1 -10 -3 121.99 17.2
1 10 3 97.59 15.3
1 10 3 108.59 11.6
-2 -10 -3 87.69 20.4
-2 -10 -3 107.49 16.3
-2 -10 -3 119.99 27.5
2 10 3 110.19 17.4
-3 -10 -3 11.6 17.2
-3 -10 -3 30.1 11.3
-3 -10 -3 -15.7 9.4
3 10 3 -4.6 12.2
4 -11 -3 78.99 22.2
-4 11 3 88.09 25.6
3 -11 -3 11.3 13.5
3 -11 -3 16.8 13.5
2 -11 -3 754.82 50.19
2 -11 -3 648.14 50.89
-2 11 3 692.93 52.49
1 -11 -3 382.36 34.5
1 -11 -3 372.06 33.3
-1 11 3 354.26 27.3
0 -11 -3 2.7 4.5
0 11 3 -3.6 5.8
-1 -11 -3 293.57 28.9
1 11 3 300.37 21.6
-2 -11 -3 8.6 6.4
-2 -11 -3 22.3 13.4
-2 -11 -3 19.9 13.1
2 11 3 6.8 7.7
-3 -11 -3 -20.6 10.3
-3 -11 -3 4.6 10.4
-3 -11 -3 -7.9 14.4
3 11 3 15.6 13.4
4 -12 -3 80.89 24.9
3 -12 -3 50.09 21.8
2 -12 -3 407.56 38.2
2 -12 -3 396.26 34.2
-2 12 3 402.76 38
1 -12 -3 172.48 22.4
1 -12 -3 219.28 24.4
-1 12 3 218.78 19.8
0 -12 -3 299.87 27.1
0 12 3 244.18 27.3
0 12 3 289.77 17.1
0 12 3 297.17 17.1
-1 -12 -3 10.7 7.5
1 12 3 12.2 7
-2 -12 -3 306.37 34.7
-2 -12 -3 279.77 37.7
-2 -12 -3 246.58 24.6
2 12 3 292.97 28.7
-3 -12 -3 7.5 11.2
-3 -12 -3 0.1 12.2
-3 -12 -3 4 14.2
3 12 3 14.5 13.1
3 -13 -3 -0.3 11.7
2 -13 -3 17.5 11.9
2 -13 -3 49.8 12.8
-2 13 3 22.5 13.2
1 -13 -3 48.7 14
1 -13 -3 56.49 15.3
-1 13 3 57.99 12.4
0 -13 -3 23.5 8.8
0 13 3 26.3 5.3
0 13 3 40.5 18
0 13 3 25.7 5.4
-1 -13 -3 126.39 19.3
1 13 3 110.19 12.8
1 13 3 127.79 19.3
-2 -13 -3 41.2 14.2
-2 -13 -3 35.2 28
2 13 3 57.29 14.5
-3 -13 -3 104.69 29.2
-3 -13 -3 122.59 24.1
-3 -13 -3 94.09 25.7
3 13 3 120.19 25.3
3 -14 -3 75.19 18.8
2 -14 -3 -0.8 6.8
-2 14 3 12.2 10
1 -14 -3 70.09 16.8
1 -14 -3 58.99 16.9
-1 14 3 45.5 11.8
0 -14 -3 15.5 8.1
0 -14 -3 2.2 8
0 14 3 21.3 9.4
0 14 3 12.5 4.6
0 14 3 12.1 5
-1 -14 -3 306.37 30.8
1 14 3 287.57 22.3
1 14 3 262.17 42.5
-2 -14 -3 63.79 19.4
-2 -14 -3 62.69 22.3
2 14 3 58.59 13.8
-3 -14 -3 42.7 27.1
-3 -14 -3 30.8 21.2
-3 -14 -3 10.9 16.7
3 14 3 44.1 19.1
3 -15 -3 13 11.1
2 -15 -3 70.79 20.9
-2 15 3 82.39 22.4
1 -15 -3 405.56 39.4
1 -15 -3 385.86 48.2
-1 15 3 428.86 35.6
0 -15 -3 374.36 34.8
0 -15 -3 375.66 38.2
0 15 3 353.06 34.8
0 15 3 430.86 25.5
0 15 3 377.16 24.9
-1 -15 -3 8.1 12.2
1 15 3 19.8 6.3
-2 -15 -3 57.49 18.7
-2 -15 -3 26.7 13.1
2 15 3 26.9 11
-3 -15 -3 -19 12.6
-3 -15 -3 4.4 16.5
3 15 3 -10.2 14.6
3 -16 -3 89.89 20.8
2 -16 -3 61.09 19.1
-2 16 3 38.2 17.3
1 -16 -3 140.69 23.2
-1 16 3 178.48 20
0 -16 -3 -7.5 6.1
0 16 3 8.8 5
0 16 3 18.4 6.1
-1 -16 -3 887.41 63.09
1 16 3 835.82 49.6
-2 -16 -3 159.18 35.6
-2 -16 -3 273.57 33.3
2 16 3 187.88 23.4
3 -17 -3 66.69 20.2
2 -17 -3 14.2 9.9
-2 17 3 34.1 20.5
1 -17 -3 488.35 43.9
-1 17 3 455.75 36.4
0 17 3 30.2 7.4
0 17 3 33 9.1
-1 -17 -3 160.48 24.5
1 17 3 163.88 17
-2 -17 -3 28.4 15
-2 -17 -3 26.4 19.4
2 17 3 39.6 13.1
2 -18 -3 23.5 15.9
-2 18 3 25.2 20.5
1 -18 -3 161.78 25.3
-1 18 3 128.79 19.3
0 -18 -3 24.7 12.6
0 18 3 22.3 7.9
0 18 3 23.9 8.9
-1 -18 -3 5.4 10.4
1 18 3 7.7 6.5
-2 -18 -3 161.78 33.3
2 18 3 113.19 20.2
2 -19 -3 -1.4 11.8
-2 19 3 17.3 20
1 -19 -3 4.5 10.2
-1 19 3 -0.6 11
0 -19 -3 318.37 33.9
0 19 3 299.27 23.8
0 19 3 243.08 22.9
-1 -19 -3 -6 11
1 19 3 23.9 9
1 19 3 13.9 8
-2 -19 -3 79.09 22.2
2 19 3 47.9 14.7
2 -20 -3 219.38 33.2
-2 20 3 265.17 38.6
1 -20 -3 12.3 11.3
-1 20 3 -13.7 11.7
0 -20 -3 25.6 14.5
0 20 3 8.8 10.7
0 20 3 28.6 9
-1 -20 -3 43.7 16.6
1 20 3 45.2 11.9
1 20 3 26.8 9.7
2 -21 -3 12.6 14.5
1 -21 -3 32.4 12.2
-1 21 3 40.1 17.1
0 -21 -3 0 9.8
0 21 3 18.3 8.7
-1 -21 -3 3.7 11.1
1 21 3 1.3 9.7
1 21 3 -8.8 12.2
1 -22 -3 -6.6 13.5
-1 22 3 9.1 17.6
0 -22 -3 5.1 13.9
0 22 3 23.8 14.3
0 22 3 21.4 11.2
-1 -22 -3 9.9 16.3
1 22 3 34.5 13.2
1 -23 -3 6.6 16.9
-1 23 3 22.1 21.9
0 -23 -3 105.19 25.1
1 22 -4 102.69 25.8
-1 -22 4 125.29 19
0 22 -4 9.8 14.1
-2 -21 4 -3.3 18.7
1 21 -4 33.3 16.3
0 21 -4 -9.5 8.4
-1 21 -4 9 17.8
1 -21 4 12.9 8.4
2 20 -4 65.79 15.5
2 20 -4 29.3 19.5
-2 -20 4 80.29 18
-2 -20 4 84.19 21.9
1 20 -4 120.09 27.3
-1 -20 4 140.59 16.8
0 20 -4 9 11.6
-1 20 -4 -0.1 14.4
1 -20 4 -10.3 6.6
2 19 -4 7.2 9.5
2 19 -4 11.2 11.5
-2 -19 4 11.6 13.7
-2 -19 4 3.7 10.4
1 19 -4 2.3 10.9
-1 -19 4 0.5 6.7
-1 -19 4 9.1 14.7
0 19 -4 0.9 11.4
-1 19 -4 130.49 29.6
1 -19 4 139.39 15.7
2 18 -4 23.2 16.6
2 18 -4 55.99 13.1
-2 -18 4 54.39 17.3
-2 -18 4 71.99 16
1 18 -4 43.1 17.5
-1 -18 4 44.9 16.2
-1 -18 4 40.2 9.2
0 18 -4 65.29 20.8
0 -18 4 84.39 7.7
-1 18 -4 29.7 19.6
1 -18 4 49.4 10.6
1 -18 4 52.69 15
-2 18 -4 23.2 17.1
2 -18 4 20.1 19.1
2 -18 4 18.2 15.3
3 17 -4 -24.6 11.4
-3 -17 4 -1 8.2
-3 -17 4 -6.3 9.5
-3 -17 4 -4.4 11.5
2 17 -4 51.99 18.4
2 17 -4 32.8 10.9
-2 -17 4 40.8 13.8
-2 -17 4 26.1 10.6
1 17 -4 22.1 13.8
0 17 -4 157.48 25.4
-1 17 -4 12.9 10.7
1 -17 4 1.9 6.3
1 -17 4 9 9.1
-2 17 -4 86.89 24.8
2 -17 4 78.89 21.7
3 16 -4 31 17.2
3 16 -4 0.9 15.6
-3 -16 4 8.4 7
-3 -16 4 7.1 8
-3 -16 4 8.2 12.2
2 16 -4 216.68 20.2
2 16 -4 180.28 28.6
-2 -16 4 192.38 23.5
-2 -16 4 225.88 24.6
1 16 -4 56.49 14.5
1 16 -4 73.59 20.6
-1 -16 4 39.4 14.1
-1 -16 4 59.29 9.7
0 16 -4 453.85 42.3
0 -16 4 382.76 43.4
-1 16 -4 54.39 17.6
1 -16 4 47.1 9.1
1 -16 4 40.6 10.9
-2 16 -4 300.27 41.2
2 -16 4 285.37 33.9
3 15 -4 8.5 13
3 15 -4 -4.7 12.6
-3 -15 4 4.1 12.2
2 15 -4 17.4 12.5
2 15 -4 23.7 8
-2 -15 4 19.2 9
1 15 -4 102.29 16.1
-1 -15 4 67.69 9.4
-1 -15 4 64.69 16.5
0 15 -4 553.74 47.5
0 -15 4 490.65 49
-1 15 -4 208.48 29.8
1 -15 4 204.38 19.9
1 -15 4 191.18 17.8
-2 15 -4 86.99 24
2 -15 4 127.19 23.8
3 14 -4 15.1 12.6
3 14 -4 10.2 13.5
-3 -14 4 4.5 12.5
2 14 -4 171.38 27.5
2 14 -4 224.88 19.3
-2 -14 4 189.98 23.2
1 14 -4 8.2 9.1
1 14 -4 2.8 8.7
-1 -14 4 19.8 5
-1 -14 4 18.8 8.7
0 14 -4 8.4 7.2
-1 14 -4 36 18.6
1 -14 4 42.5 10
-2 14 -4 19.3 15.6
2 -14 4 49.5 15.8
3 13 -4 43.2 13.8
3 13 -4 88.59 25
2 13 -4 17.9 7.7
2 13 -4 12.3 11.7
-2 -13 4 15.9 7.1
-2 -13 4 29.2 14.2
1 13 -4 330.07 29.4
1 13 -4 327.87 35.8
-1 -13 4 287.87 30
0 13 -4 -6.9 4.9
0 -13 4 -6.7 7.6
-1 13 -4 112.29 25
1 -13 4 95.19 13
-2 13 -4 66.19 22.4
2 -13 4 60.59 17.7
-3 13 -4 63.89 24.4
3 12 -4 716.93 49.99
3 12 -4 547.25 58.29
2 12 -4 91.09 13
2 12 -4 72.99 18.9
-2 -12 4 79.89 11.7
1 12 -4 118.99 24.6
1 12 -4 138.89 18.3
-1 -12 4 179.38 21.2
0 12 -4 29.4 11.3
0 -12 4 35.5 13.5
-1 12 -4 598.54 51.79
1 -12 4 588.84 55.69
1 -12 4 527.95 35
-2 12 -4 8.5 11.7
2 -12 4 13.6 12.7
-3 12 -4 195.08 58.19
4 11 -4 29.2 17.9
3 11 -4 64.29 22.3
3 11 -4 42 13.7
2 11 -4 269.27 22.6
2 11 -4 278.57 34
-2 -11 4 239.98 20.4
1 11 -4 1700.73 98.49
1 11 -4 1659.83 86.99
1 11 -4 1452.25 72.89
-1 -11 4 1562.14 89.59
0 11 -4 119.79 18.1
0 -11 4 101.99 23
-1 11 -4 1.2 7.5
-1 11 -4 14 9.9
1 -11 4 11.9 9.2
1 -11 4 12.8 6.6
-2 11 -4 32 15.3
-3 11 -4 10 11
4 10 -4 23.1 34.5
3 10 -4 308.47 40.7
3 10 -4 392.66 33.8
2 10 -4 160.68 18
2 10 -4 190.48 28
-2 -10 4 229.38 16.6
1 10 -4 57.79 5.4
1 10 -4 53.39 15.4
1 10 -4 87.89 12
-1 -10 4 112.59 28.8
0 10 -4 12.4 7.9
0 -10 4 15.5 7.6
-1 10 -4 496.45 44.1
-1 10 -4 387.16 38.1
1 -10 4 429.96 29.2
1 -10 4 421.46 43.7
-2 10 -4 7.1 10.5
2 -10 4 17.4 11
-3 10 -4 118.89 28
4 9 -4 20.2 16.5
3 9 -4 238.78 28.9
3 9 -4 301.87 35.9
2 9 -4 12.7 7.8
2 9 -4 -1.6 5
-2 -9 4 1.9 2.4
1 9 -4 906.71 50.69
1 9 -4 758.52 57.19
1 9 -4 795.12 39.8
-1 -9 4 874.61 53.79
0 9 -4 0.4 4.6
0 -9 4 -6.7 5.1
-1 9 -4 70.39 20.2
-1 9 -4 107.09 22.4
1 -9 4 71.59 11.5
1 -9 4 92.19 24
-2 9 -4 24.7 14.5
2 -9 4 55.19 14.5
-3 9 -4 93.49 25.1
4 8 -4 33.7 18.9
3 8 -4 304.97 34.3
3 8 -4 275.57 36.6
2 8 -4 343.67 36.7
2 8 -4 391.16 29.8
1 8 -4 721.83 51.89
1 8 -4 652.03 34.2
1 8 -4 713.63 42.4
-1 -8 4 743.33 46.5
0 8 -4 122.79 16.8
0 -8 4 111.49 17.8
-1 8 -4 18.4 10
-1 8 -4 19.5 9.2
1 -8 4 5.1 9.4
1 -8 4 12.7 5.7
2 -8 4 126.79 20.2
-3 8 -4 -6.7 13.4
4 7 -4 66.49 23
3 7 -4 5.9 9.1
3 7 -4 -12.6 9.9
2 7 -4 171.08 24.6
2 7 -4 196.48 20
1 7 -4 748.53 51.49
1 7 -4 715.23 41.6
1 7 -4 661.53 35.1
-1 -7 4 675.63 44.1
0 7 -4 1288.67 77.89
0 -7 4 1325.27 81.69
-1 7 -4 705.43 57.09
-1 7 -4 684.53 51.49
1 -7 4 808.42 43.9
1 -7 4 742.93 61.69
-2 7 -4 407.36 44.4
-2 7 -4 346.87 47.3
2 -7 4 396.36 35.3
-3 7 -4 42.5 21
4 6 -4 139.49 34.3
3 6 -4 256.47 35.4
3 6 -4 364.46 69.89
2 6 -4 426.56 33
2 6 -4 449.66 41
1 6 -4 201.18 17.3
1 6 -4 197.88 14.3
1 6 -4 199.58 22.8
-1 -6 4 225.88 19.9
0 6 -4 326.97 30
0 -6 4 297.67 30.7
-1 6 -4 122.19 18.1
-1 6 -4 132.59 20.7
-1 6 -4 151.18 16.5
1 -6 4 147.49 14.1
1 -6 4 138.09 23.8
-2 6 -4 -0.3 7.2
-2 6 -4 -5.5 9
2 -6 4 -9.9 14.8
2 -6 4 -2.7 8.4
-3 6 -4 14.3 14.3
3 -6 4 21.9 14.7
4 5 -4 11.3 13.3
3 5 -4 -14.6 7.6
3 5 -4 -8.7 6
2 5 -4 11.5 8.3
2 5 -4 13.6 7.5
-2 -5 4 8 8.7
1 5 -4 84.39 16.8
1 5 -4 82.39 10.5
1 5 -4 86.39 9.4
-1 -5 4 91.49 11.4
0 5 -4 485.85 24.3
0 5 -4 386.56 34.8
0 -5 4 473.95 39.1
-1 5 -4 1023.9 59.09
-1 5 -4 1018.7 64.29
-1 5 -4 989 71.19
1 -5 4 1007.4 55.39
1 -5 4 1043.4 74.59
-2 5 -4 110.29 21.3
-2 5 -4 138.19 29.4
-2 5 -4 99.49 22.9
2 -5 4 114.19 18.3
2 -5 4 82.29 24.8
-3 5 -4 2.5 12.4
3 -5 4 0.5 9.3
4 4 -4 60.99 20.3
3 4 -4 211.88 30.4
3 4 -4 279.47 34.6
2 4 -4 130.29 16.7
2 4 -4 173.28 23.1
-2 -4 4 190.58 22.4
1 4 -4 1401.16 70.39
1 4 -4 1415.26 79.29
1 4 -4 1267.97 68.09
-1 -4 4 1342.27 71.59
0 4 -4 2.3 6.2
0 4 -4 12.2 3.5
0 -4 4 5.9 2.7
0 -4 4 14.9 7.5
-1 4 -4 18.1 6.8
-1 4 -4 23.8 8.7
-1 4 -4 35.7 11.2
1 -4 4 16.9 5.7
1 -4 4 8.9 9.7
-2 4 -4 -2.9 7
-2 4 -4 19.1 11.4
-2 4 -4 20.7 9.5
2 -4 4 5.6 13
2 -4 4 15.7 8.5
-3 4 -4 25.4 12
-3 4 -4 8.7 17
3 -4 4 5.1 13.2
4 3 -4 -17.3 10.3
3 3 -4 153.98 30.6
3 3 -4 156.68 27.8
2 3 -4 -7 5.2
2 3 -4 -1.7 5.4
-2 -3 4 -0.2 5.4
1 3 -4 1434.46 87.59
1 3 -4 1331.47 71.29
0 3 -4 192.08 22.1
0 3 -4 186.18 13.5
0 -3 4 171.28 23.2
0 -3 4 196.18 14
-1 3 -4 172.78 24.4
1 -3 4 126.29 14.2
1 -3 4 139.39 21.9
-2 3 -4 30.8 10.9
-2 3 -4 10.9 10.4
2 -3 4 31.4 10.6
2 -3 4 37.6 11.7
2 -3 4 6 11.3
-3 3 -4 127.09 28.3
-3 3 -4 121.49 29.6
3 -3 4 105.89 24.8
4 2 -4 81.49 26.1
3 2 -4 221.48 30.9
3 2 -4 175.38 26.2
-3 -2 4 201.48 27.3
2 2 -4 310.37 31.6
2 2 -4 330.87 29.3
-2 -2 4 298.17 29.3
1 2 -4 903.71 51.89
1 2 -4 678.53 44.6
0 2 -4 107.09 17.2
0 2 -4 137.99 11.4
0 -2 4 140.29 12
-1 2 -4 1305.27 74.19
-1 2 -4 1466.05 78.79
-1 2 -4 1282.87 88.09
1 -2 4 1331.57 75.79
1 -2 4 1331.47 88.59
-2 2 -4 189.28 27.1
-2 2 -4 231.68 26.8
-2 2 -4 202.58 30.9
2 -2 4 187.48 30.8
2 -2 4 161.58 22.4
-3 2 -4 102.99 26
-3 2 -4 79.99 23.4
3 -2 4 91.19 23.1
4 1 -4 76.49 24.6
3 1 -4 2.5 7.6
3 1 -4 5.4 10.3
-3 -1 4 -2.3 7.5
2 1 -4 350.76 18.6
2 1 -4 376.66 31.9
2 1 -4 335.87 19.2
2 1 -4 331.97 32.9
-2 -1 4 327.07 30.9
1 1 -4 1421.66 79.39
1 1 -4 1462.35 77.39
-1 1 -4 614.74 43.3
-1 1 -4 603.54 52.39
-1 1 -4 615.14 41.7
1 -1 4 673.93 54.09
1 -1 4 633.44 39.5
-2 1 -4 94.99 24.7
-2 1 -4 95.99 20.6
-3 1 -4 0.6 10.7
3 -1 4 8.6 12.2
4 0 -4 -12 10.6
3 0 -4 4.9 7.8
3 0 -4 -0.5 10.8
3 0 -4 -2.4 3.5
-3 0 4 5.1 11.8
0 0 -4 1444.46 91.49
0 0 -4 1650.03 79.59
0 0 4 1671.73 81.09
0 0 4 1602.24 95.39
-1 0 -4 18.8 7.2
-1 0 -4 22.5 10.4
1 0 4 42.4 9.2
1 0 4 51.79 15.3
-2 0 -4 753.02 66.69
-2 0 -4 788.02 58.69
-2 0 -4 824.42 59.49
2 0 4 835.22 56.59
2 0 4 865.51 71.19
2 0 4 752.02 54.29
-3 0 -4 -6.9 11.4
-3 0 -4 -5.5 12.2
3 0 4 6.3 11.7
4 -1 -4 113.19 30
4 -1 -4 77.89 14.8
3 -1 -4 5.1 10.6
3 -1 -4 3.9 7.6
3 -1 -4 11.2 5.6
-3 1 4 18.7 11.7
2 -1 -4 320.37 21.6
2 -1 -4 320.27 31.7
-2 1 4 366.16 31.5
1 -1 -4 1379.76 75.29
0 -1 -4 40.1 12.5
0 -1 -4 45 7
0 1 4 43.6 8.9
-1 -1 -4 638.64 44.4
-1 -1 -4 674.23 56.69
1 1 4 688.03 56.29
1 1 4 752.22 44.2
-2 -1 -4 30.1 11.5
-2 -1 -4 32.8 11.3
-2 -1 -4 5.4 9.3
2 1 4 25.9 11.6
2 1 4 26 10.5
2 1 4 10.7 12.4
-3 -1 -4 19.6 13.7
-3 -1 -4 1.6 9.7
3 1 4 1.7 11.6
4 -2 -4 60.89 20.6
3 -2 -4 179.88 19
3 -2 -4 231.48 30.5
3 -2 -4 247.58 31.6
-3 2 4 210.38 27.6
2 -2 -4 270.67 28
2 -2 -4 287.27 20.7
-2 2 4 260.67 26.8
1 -2 -4 630.54 41.6
1 -2 -4 646.84 42.4
-1 2 4 712.03 40.8
0 -2 -4 115.49 12.5
0 -2 -4 123.89 19.2
-1 -2 -4 1449.55 91.89
-1 -2 -4 1287.47 75.89
-1 -2 -4 1266.57 74.19
1 2 4 1438.66 74.99
-2 -2 -4 205.28 26.2
-2 -2 -4 207.28 31.8
-2 -2 -4 192.48 25
2 2 4 216.38 33.4
2 2 4 222.18 23.5
-3 -2 -4 78.19 21.1
-3 -2 -4 102.19 28.9
4 -3 -4 -2.7 11.3
4 -3 -4 -7.1 9.5
3 -3 -4 148.59 24.4
3 -3 -4 137.79 27.5
3 -3 -4 154.48 18.6
-3 3 4 182.38 26.1
2 -3 -4 -0.2 3.2
2 -3 -4 -7.1 5.6
1 -3 -4 1290.17 69.49
1 -3 -4 1213.88 71.39
-1 3 4 1328.17 67.69
0 -3 -4 188.98 24.3
0 -3 -4 190.38 17.4
0 3 4 213.68 18.9
-1 -3 -4 126.79 16.2
-1 -3 -4 128.49 14.4
-1 -3 -4 104.09 22.9
1 3 4 109.59 14.4
-2 -3 -4 5.6 12.2
-2 -3 -4 -11.7 7.4
-2 -3 -4 -3.8 7.2
2 3 4 20.3 9.2
2 3 4 16.6 7.5
-3 -3 -4 90.79 24.1
-3 -3 -4 71.49 24.2
3 3 4 91.99 23.2
4 -4 -4 69.69 21.6
4 -4 -4 31 15.9
3 -4 -4 230.28 35.9
3 -4 -4 241.28 23.6
3 -4 -4 207.78 30
-3 4 4 209.58 28.8
2 -4 -4 145.59 15.6
2 -4 -4 168.38 22.1
-2 4 4 182.68 21.2
1 -4 -4 1268.37 68.29
1 -4 -4 1209.88 73.09
-1 4 4 1290.57 66.19
0 -4 -4 11.7 5.6
0 -4 -4 7.3 3.1
0 -4 -4 8.7 6.3
0 4 4 2.7 4.2
-1 -4 -4 7.5 5.7
-1 -4 -4 32.5 10.2
-1 -4 -4 10.6 8.4
1 4 4 8.7 6.4
-2 -4 -4 11.2 8.8
-2 -4 -4 17.1 9.5
-2 -4 -4 1.5 8.2
2 4 4 1.8 6.8
2 4 4 7.7 7.1
-3 -4 -4 5.2 12.4
-3 -4 -4 -19.1 12.8
3 4 4 -6.6 11.6
4 -5 -4 5.4 13.2
4 -5 -4 -0.8 14.3
3 -5 -4 17.6 9.1
3 -5 -4 0.2 9.5
-3 5 4 -0.4 10.3
2 -5 -4 19.8 9.6
2 -5 -4 15.6 6.4
-2 5 4 5.8 7.8
1 -5 -4 81.49 15.8
1 -5 -4 69.09 10
-1 5 4 75.59 9.2
0 -5 -4 506.25 24.2
0 -5 -4 442.46 23.9
0 -5 -4 504.35 33.3
0 5 4 395.46 32.6
-1 -5 -4 1013.4 63.49
-1 -5 -4 1084.59 76.59
-1 -5 -4 970.4 56.59
1 5 4 1078.49 62.59
-2 -5 -4 97.29 21.9
-2 -5 -4 91.79 18.4
-2 -5 -4 109.09 28.7
2 5 4 117.59 17.5
2 5 4 97.99 15.8
-3 -5 -4 31.6 18.4
-3 -5 -4 -4.5 10.5
3 5 4 4 11.2
4 -6 -4 139.39 34.6
4 -6 -4 160.48 26.6
3 -6 -4 440.36 35.3
3 -6 -4 341.17 39.1
-3 6 4 286.17 33.7
2 -6 -4 447.76 36.9
2 -6 -4 416.86 32.5
-2 6 4 452.55 36.8
1 -6 -4 193.28 17.2
1 -6 -4 218.18 22.6
-1 6 4 200.38 16.7
0 -6 -4 376.16 27.6
0 6 4 255.77 25.4
-1 -6 -4 129.39 27.7
-1 -6 -4 123.19 13.2
-1 -6 -4 142.19 18.9
1 6 4 114.79 11.2
1 6 4 131.39 16.6
-2 -6 -4 -5.4 6.6
-2 -6 -4 -13.2 9.3
-2 -6 -4 3.8 6.8
2 6 4 3.2 7.8
2 6 4 7.1 7
-3 -6 -4 3.9 11.7
-3 -6 -4 15.2 16.9
-3 -6 -4 6.1 16.4
3 6 4 28.2 13.2
4 -7 -4 -4.3 19.3
4 -7 -4 2.4 16
3 -7 -4 -0.8 7.3
3 -7 -4 13.8 11.6
-3 7 4 14.4 11.2
2 -7 -4 147.09 18
2 -7 -4 142.29 19.7
-2 7 4 170.48 20.1
1 -7 -4 626.44 38
1 -7 -4 618.64 45.9
-1 7 4 702.33 38.6
0 -7 -4 1445.96 73.09
0 7 4 1074.59 71.39
-1 -7 -4 627.64 48.3
-1 -7 -4 791.02 41.8
-1 -7 -4 719.63 60.69
1 7 4 680.23 38.5
1 7 4 745.13 49.6
-2 -7 -4 400.16 46.1
-2 -7 -4 403.46 34.8
-2 -7 -4 376.56 40.1
2 7 4 431.56 34.2
-3 -7 -4 34.8 17.5
-3 -7 -4 18.3 15.8
-3 -7 -4 29.1 14.6
3 7 4 59.59 16.5
4 -8 -4 50.69 22
4 -8 -4 94.79 25
3 -8 -4 354.46 38.3
3 -8 -4 303.67 32.1
-3 8 4 331.37 37.6
2 -8 -4 330.67 29
2 -8 -4 331.27 31.4
-2 8 4 305.27 30.2
1 -8 -4 620.54 47.3
1 -8 -4 663.83 38.3
-1 8 4 706.03 39.2
0 -8 -4 121.39 15.6
0 8 4 97.39 15
-1 -8 -4 14 9.9
-1 -8 -4 17.2 7.9
-1 -8 -4 18.5 4.7
1 8 4 10.9 4
1 8 4 18.5 7.8
-2 -8 -4 108.29 26.8
-2 -8 -4 134.79 18.9
-2 -8 -4 151.38 32.7
2 8 4 132.39 17.5
-3 -8 -4 15.4 14.9
-3 -8 -4 21 11.5
3 8 4 17.6 13.5
4 -9 -4 -13.9 13.3
3 -9 -4 252.37 31.9
3 -9 -4 207.88 29.6
-3 9 4 247.98 35
2 -9 -4 5.8 7.2
2 -9 -4 4.9 7.2
1 -9 -4 825.52 55.49
1 -9 -4 679.73 51.59
1 -9 -4 785.72 42.5
-1 9 4 790.72 43.8
0 -9 -4 -0.1 3.4
0 9 4 -2.1 4.2
-1 -9 -4 93.29 9
-1 -9 -4 78.09 21.2
-1 -9 -4 122.09 17.6
1 9 4 115.99 18.6
1 9 4 108.19 9.2
-2 -9 -4 48.1 18.5
-2 -9 -4 65.69 18
-2 -9 -4 63.09 14.1
2 9 4 49.5 12
-3 -9 -4 106.69 28.2
-3 -9 -4 99.59 23.1
-3 -9 -4 69.09 20.6
3 9 4 113.09 22.6
4 -10 -4 18.3 20.5
3 -10 -4 312.97 32.8
3 -10 -4 265.17 34.9
-3 10 4 252.17 34.3
2 -10 -4 237.08 24.5
2 -10 -4 152.98 21.9
-2 10 4 183.18 23.2
1 -10 -4 92.79 18.4
1 -10 -4 69.49 8.6
1 -10 -4 54.19 13.3
-1 10 4 56.29 8.7
0 -10 -4 10.5 4.9
0 10 4 -1.6 4.6
-1 -10 -4 474.85 38.6
1 10 4 421.26 37.3
-2 -10 -4 10.5 15.4
-2 -10 -4 29.5 9.5
-2 -10 -4 17.9 10.2
2 10 4 28.8 9.7
-3 -10 -4 125.89 29.5
-3 -10 -4 119.89 23.6
-3 -10 -4 72.09 20.9
3 10 4 102.09 21.7
4 -11 -4 6.1 15.9
3 -11 -4 26.4 14.9
3 -11 -4 60.29 19.4
2 -11 -4 158.08 33.2
2 -11 -4 222.58 23.2
-2 11 4 187.48 24.4
1 -11 -4 1548.55 92.59
1 -11 -4 1412.46 90.69
-1 11 4 1640.54 79.19
0 -11 -4 118.79 16.7
0 11 4 98.29 22.9
-1 -11 -4 16.7 8.5
1 11 4 -7.3 5.6
-2 -11 -4 58.09 12.5
-2 -11 -4 67.29 22.7
-2 -11 -4 47.7 16.6
-3 -11 -4 11.4 12.9
-3 -11 -4 5.5 12.1
-3 -11 -4 13.5 20
3 11 4 -15 13.2
3 -12 -4 541.35 48.5
2 -12 -4 62.69 15.3
2 -12 -4 68.69 14.9
2 -12 -4 56.09 17.7
-2 12 4 68.09 15.7
1 -12 -4 126.79 24.2
1 -12 -4 107.49 21
-1 12 4 129.29 13.6
0 -12 -4 14.1 7.1
0 12 4 34.7 13
-1 -12 -4 568.84 45.7
-2 -12 -4 5.3 13.6
-2 -12 -4 3.5 6
-2 -12 -4 12.6 7.9
2 12 4 30.8 13.3
-3 -12 -4 134.79 25.7
-3 -12 -4 233.88 39.3
3 12 4 148.29 28.2
3 -13 -4 83.69 22
2 -13 -4 38.8 9.9
2 -13 -4 40.5 13.5
2 -13 -4 13.9 13.2
-2 13 4 13 10.4
1 -13 -4 292.57 31
1 -13 -4 288.17 31.8
-1 13 4 270.97 21.8
0 -13 -4 -5.6 4.7
0 13 4 -11.8 6
-1 -13 -4 97.49 32.8
-2 -13 -4 91.59 28.2
-2 -13 -4 93.69 22.8
2 13 4 99.89 16
-3 -13 -4 33.1 19.9
-3 -13 -4 17.3 20
-3 -13 -4 40.9 18.7
3 13 4 53.19 20.7
3 -14 -4 14.4 13
2 -14 -4 285.37 34.6
2 -14 -4 192.18 22.4
-2 14 4 176.98 25
1 -14 -4 9 10.7
1 -14 -4 4.3 7.8
-1 14 4 8 6.1
0 -14 -4 4.6 7.7
-1 -14 -4 42.4 15.8
-2 -14 -4 31.8 20.8
-2 -14 -4 58.49 19.2
2 14 4 37.2 11.3
3 -15 -4 -4.8 9.3
2 -15 -4 14.6 13.4
-2 15 4 16.6 11.2
1 -15 -4 102.39 34.4
-1 15 4 71.99 11.5
-1 -15 -4 229.58 29.2
-2 -15 -4 55.49 24
2 15 4 79.29 15
3 -16 -4 24.1 13.6
3 -16 -4 15.9 13.3
2 -16 -4 164.18 33.3
-2 16 4 166.88 25.9
1 -16 -4 41.7 16.2
-1 16 4 76.79 12.9
0 -16 -4 327.17 33.6
-1 -16 -4 49.2 15.6
-2 -16 -4 322.87 45.4
-2 -16 -4 330.67 38.8
2 16 4 293.37 27.4
3 -17 -4 14.5 13.8
2 -17 -4 23.2 14
-2 17 4 40.2 16.7
1 -17 -4 52.09 16.8
-1 17 4 38.3 11
0 -17 -4 147.49 23.1
-1 -17 -4 25.5 12.3
-2 -17 -4 96.59 28.9
-2 -17 -4 47.7 18.6
2 17 4 84.69 15.2
2 -18 -4 29.8 17.3
-2 18 4 37.9 17.1
1 -18 -4 19.3 12.8
-1 18 4 39.5 11
0 -18 -4 68.29 18.3
-1 -18 -4 53.39 19.2
-2 -18 -4 28.9 23.8
-2 -18 -4 71.29 26.8
2 18 4 17.5 10.5
2 -19 -4 24.4 14.1
-2 19 4 14.1 18.5
1 -19 -4 -0.5 9.8
-1 19 4 -14.4 8.9
0 -19 -4 -5.5 10.3
-1 -19 -4 85.29 22.4
2 -20 -4 58.89 20.1
1 -20 -4 193.08 27.2
0 -20 -4 13.3 11.2
-1 -20 -4 -2.9 13.4
1 -21 -4 72.89 21.1
0 -21 -4 -14.5 10.3
1 -22 -4 50.29 26.2
0 -22 -4 9 14.8
1 21 -5 16.6 21
0 21 -5 70.99 20.1
-2 -20 5 23.5 24.8
0 20 -5 33.8 17.9
2 19 -5 74.79 23
-2 -19 5 48.5 19
1 19 -5 -4.7 10.7
0 19 -5 -2.3 13.9
-1 19 -5 -5.5 13.5
2 18 -5 16.6 13.5
2 18 -5 8.7 8.8
-2 -18 5 16.2 15.7
1 18 -5 18.4 12.7
1 18 -5 9.4 12.8
-1 -18 5 4.9 15.3
0 18 -5 10.2 11.2
-1 18 -5 17 13
2 17 -5 18.4 9.4
2 17 -5 3.3 8
-2 -17 5 -0.1 12.6
1 17 -5 14.1 13.8
1 17 -5 9.2 7.3
-1 -17 5 -9.7 14.1
0 17 -5 51.59 16.8
-1 17 -5 -5.6 10.2
-2 17 -5 -7.8 15.4
2 16 -5 31.7 9.7
2 16 -5 24.1 13.7
-2 -16 5 50.39 14.5
1 16 -5 132.99 28.6
1 16 -5 178.48 24.8
-1 -16 5 187.48 29
0 16 -5 15.8 13.1
-1 16 -5 436.46 47.9
2 -16 5 -23.6 14.4
3 15 -5 102.99 25.3
3 15 -5 75.69 19.9
2 15 -5 7 6.2
2 15 -5 2.4 11.3
-2 -15 5 -1.1 9.7
1 15 -5 89.19 24
1 15 -5 108.39 20.6
-1 -15 5 98.59 22.1
0 15 -5 66.69 18.3
0 -15 5 88.59 21.7
-1 15 -5 343.37 41.2
-2 15 -5 29.1 18.8
2 -15 5 40.8 15.6
3 14 -5 55.79 21
2 14 -5 -5.8 5.5
2 14 -5 -1.9 10.3
1 14 -5 212.78 31.2
1 14 -5 288.57 28.3
-1 -14 5 238.98 29.9
0 14 -5 12 8.5
0 -14 5 33.8 12.7
-1 14 -5 2.3 11.2
1 -14 5 19.2 6.1
1 -14 5 4.4 4.7
-2 14 -5 21.3 16.8
2 -14 5 19.5 12.8
3 13 -5 153.98 36.2
2 13 -5 53.29 9.7
2 13 -5 58.89 19.5
-2 -13 5 58.59 12.5
1 13 -5 56.89 14.4
-1 -13 5 20.5 10.9
0 13 -5 461.55 42.5
0 -13 5 454.25 47.6
-1 13 -5 -2 9.6
1 -13 5 14.5 5.2
-2 13 -5 129.19 30.2
2 -13 5 57.09 17.7
3 12 -5 329.47 44.6
3 12 -5 447.56 53.49
2 12 -5 1262.77 91.19
2 12 -5 1338.57 69.19
-2 -12 5 1208.28 69.09
1 12 -5 139.19 17.8
1 12 -5 102.99 22.8
-1 -12 5 126.99 19.4
0 12 -5 8.5 7.8
0 -12 5 9.8 9.5
1 -12 5 7.2 4.9
-2 12 -5 397.46 46.1
2 -12 5 285.47 30.4
3 11 -5 7.8 15.1
3 11 -5 33.6 11.9
2 11 -5 15 10.6
2 11 -5 3.8 6
-2 -11 5 -6.1 4.2
1 11 -5 304.67 34.8
1 11 -5 379.56 30.4
-1 -11 5 347.07 33.3
0 11 -5 1447.06 89.19
0 -11 5 1436.56 95.99
-1 11 -5 2.7 9.7
1 -11 5 0.6 4.2
-2 11 -5 9.3 12.2
2 -11 5 26.1 10.8
-3 11 -5 9.3 14
4 10 -5 25.7 21.2
3 10 -5 65.99 21.1
3 10 -5 81.39 20.2
2 10 -5 577.04 53.59
-2 -10 5 590.74 33.6
1 10 -5 44.1 13.9
1 10 -5 80.59 12
-1 -10 5 81.09 18.5
0 10 -5 4.5 6.3
0 -10 5 12.8 11.1
-1 10 -5 10.1 8.2
1 -10 5 6.1 4.8
1 -10 5 -3.9 12
-2 10 -5 103.99 28.1
2 -10 5 73.79 17
-3 10 -5 -19.5 13
4 9 -5 350.26 52.69
3 9 -5 48.7 14.5
3 9 -5 -10.6 10.1
2 9 -5 491.85 48.3
1 9 -5 -3 3.8
1 9 -5 3.7 7.2
-1 -9 5 11.1 7.2
0 9 -5 1516.95 91.59
0 -9 5 1508.75 97.49
-1 9 -5 14.4 12.3
-1 9 -5 14.6 10.7
1 -9 5 10.7 4.4
-2 9 -5 150.98 32.2
2 -9 5 130.99 20.7
4 8 -5 20.9 20.9
3 8 -5 69.69 17.6
3 8 -5 39 17.1
2 8 -5 720.73 47.2
2 8 -5 805.12 62.99
1 8 -5 40.2 13.6
1 8 -5 43.4 10.2
-1 -8 5 32.4 11
0 8 -5 497.45 42.1
0 -8 5 484.05 45.3
-1 8 -5 110.39 21.5
-1 8 -5 145.49 23.4
1 -8 5 103.39 12.6
1 -8 5 146.29 31.4
-2 8 -5 -2.1 8.7
-3 8 -5 -10.1 9.9
4 7 -5 -13.8 13.9
3 7 -5 6.9 8.8
3 7 -5 -1.4 16.4
2 7 -5 -2.5 6.7
2 7 -5 1.9 5.9
1 7 -5 98.09 20.1
1 7 -5 108.19 7.6
1 7 -5 97.99 13.4
-1 -7 5 117.69 16
0 7 -5 833.82 59.19
0 -7 5 842.52 62.69
-1 7 -5 58.99 18.6
-1 7 -5 79.09 17.3
1 -7 5 61.39 10.2
1 -7 5 52.59 17.4
-2 7 -5 378.76 46.3
2 -7 5 336.47 32
-3 7 -5 151.38 34.7
4 6 -5 -0.8 14
3 6 -5 130.79 32.7
3 6 -5 175.98 33.5
2 6 -5 1124.79 77.39
2 6 -5 1040.8 62.79
1 6 -5 146.89 12
1 6 -5 138.79 16.1
1 6 -5 164.58 21.2
1 6 -5 156.38 11.4
-1 -6 5 162.88 18.5
0 6 -5 186.18 23.5
0 -6 5 205.48 25.4
-1 6 -5 83.89 18.5
-1 6 -5 85.69 12.7
-1 6 -5 89.49 22.8
1 -6 5 88.19 11.6
1 -6 5 83.99 24
-2 6 -5 170.18 35.4
-2 6 -5 181.78 23.9
2 -6 5 143.59 21.3
-3 6 -5 40 18.9
4 5 -5 79.99 23.3
3 5 -5 5.5 9.2
2 5 -5 88.29 20.8
2 5 -5 91.39 17.1
1 5 -5 5 3.4
1 5 -5 7 5.3
1 5 -5 7.7 3.7
1 5 -5 2.7 5.2
-1 -5 5 17.6 7.4
0 5 -5 273.27 30.5
0 5 -5 302.67 19.1
0 -5 5 304.07 32.1
-1 5 -5 269.27 24.3
-1 5 -5 271.47 35.4
-1 5 -5 236.18 26.4
1 -5 5 244.48 30
1 -5 5 280.07 43.1
-2 5 -5 353.76 42.8
-2 5 -5 289.27 31.8
2 -5 5 362.36 32.2
-3 5 -5 21.3 17.4
4 4 -5 100.69 28.2
3 4 -5 63.39 17.2
3 4 -5 42.4 16.9
2 4 -5 196.98 25.9
2 4 -5 126.89 18.5
1 4 -5 591.74 34.6
1 4 -5 616.14 40.7
1 4 -5 623.84 46.2
-1 -4 5 586.84 41.3
0 4 -5 600.54 33.2
0 4 -5 609.24 47.8
0 -4 5 529.55 46.5
-1 4 -5 22 8.2
-1 4 -5 16 8.3
-1 4 -5 30.4 11
1 -4 5 9 9.9
1 -4 5 6 6.1
-2 4 -5 34.9 16.8
-2 4 -5 -6 7.7
-2 4 -5 -6.3 12.1
2 -4 5 -9 7.3
-3 4 -5 -20.6 10.3
-3 4 -5 -2.1 14.3
4 3 -5 261.17 41.9
3 3 -5 -6.5 10.1
1 3 -5 1.8 3.8
1 3 -5 9.1 6.2
1 3 -5 5.6 4
0 3 -5 896.91 49
0 3 -5 938.31 65.19
0 -3 5 943.71 49.8
0 -3 5 928.11 64.89
-1 3 -5 351.46 29.3
-1 3 -5 274.17 28.8
-1 3 -5 332.07 38.4
1 -3 5 349.96 40.1
1 -3 5 359.66 26.3
-2 3 -5 81.79 18.1
-2 3 -5 70.39 22.6
-2 3 -5 50.69 18.5
2 -3 5 106.09 17.2
-3 3 -5 1.6 13
-3 3 -5 50.49 20.1
4 2 -5 43.6 18.2
3 2 -5 172.68 28.9
3 2 -5 126.49 28.8
2 2 -5 650.23 46.3
2 2 -5 576.94 31.1
2 2 -5 691.73 53.09
-2 -2 5 708.03 49.5
1 2 -5 85.39 11.3
1 2 -5 121.49 15.7
0 2 -5 388.06 37.9
0 2 -5 502.85 28.1
0 -2 5 404.26 38
0 -2 5 367.66 26.8
-1 2 -5 105.89 24.3
-1 2 -5 90.29 14.6
-1 2 -5 106.69 19.1
1 -2 5 90.29 13.1
1 -2 5 79.69 22.4
-2 2 -5 522.65 44.6
-2 2 -5 481.45 44.8
2 -2 5 496.05 47.5
-3 2 -5 73.89 19.3
-3 2 -5 27.8 20.8
3 -2 5 87.09 21.9
4 1 -5 2.8 12.8
3 1 -5 93.89 22.7
3 1 -5 81.69 18.9
2 1 -5 11.4 3.6
2 1 -5 19.6 4.5
2 1 -5 15.7 9.1
1 1 -5 450.95 35.2
1 1 -5 421.86 30.2
1 1 -5 471.35 42.2
0 1 -5 1226.98 78.89
0 1 -5 1229.98 61.89
0 -1 5 1065.59 74.79
0 -1 5 1131.29 62.59
-1 1 -5 162.68 18.4
-1 1 -5 169.58 25.8
1 -1 5 116.79 15.4
1 -1 5 147.19 29.6
-2 1 -5 92.39 23.5
-2 1 -5 106.09 40.3
-2 1 -5 106.69 22.7
2 -1 5 126.89 20
-3 1 -5 56.39 20.6
-3 1 -5 27.6 16.5
3 -1 5 66.39 19.4
4 0 -5 -1.2 10.8
3 0 -5 153.88 32.5
3 0 -5 140.39 26.7
2 0 -5 -6 2.9
2 0 -5 6.2 3
2 0 -5 0.1 5.1
-2 0 5 11.8 7.9
1 0 -5 44 12.1
1 0 -5 34 8.4
0 0 -5 48.2 14.5
-1 0 -5 564.94 41.1
-1 0 -5 587.44 42.3
-1 0 -5 576.74 54.29
1 0 5 582.34 54.89
1 0 5 559.94 38.3
-2 0 -5 9.7 10
-2 0 -5 22.3 14.1
2 0 5 15 9
-3 0 -5 424.26 48.8
-3 0 -5 412.76 53.59
3 0 5 386.26 43.6
4 -1 -5 12.4 17.3
3 -1 -5 118.59 23.9
3 -1 -5 117.09 25.4
-3 1 5 110.59 25.1
-2 1 5 117.79 17.2
1 -1 -5 464.45 32.7
1 -1 -5 420.26 33.1
1 -1 -5 421.56 36.2
0 -1 -5 1136.39 79.79
0 -1 -5 1236.88 65.29
0 1 5 1225.28 67.39
-1 -1 -5 121.39 16.5
-1 -1 -5 91.99 14.6
-1 -1 -5 120.79 27.1
1 1 5 121.99 15.2
1 1 5 145.49 24
-2 -1 -5 132.79 37.5
-2 -1 -5 200.78 25.5
-2 -1 -5 146.89 23.2
2 1 5 171.28 23.3
-3 -1 -5 9.1 17
-3 -1 -5 16.3 15.7
3 1 5 48.4 16.9
4 -2 -5 51.19 20.4
3 -2 -5 146.59 23.4
3 -2 -5 118.89 26.4
3 -2 -5 139.39 14.4
-3 2 5 127.19 27.1
2 -2 -5 655.93 50.79
2 -2 -5 646.04 39.5
-2 2 5 652.53 47.6
1 -2 -5 60.19 15.2
1 -2 -5 55.99 11.2
1 -2 -5 55.59 14.9
0 -2 -5 382.76 37.7
0 -2 -5 324.77 30.5
0 2 5 417.96 30.4
-1 -2 -5 95.59 14.7
-1 -2 -5 95.89 25.3
-1 -2 -5 95.09 15.4
1 2 5 110.19 15
-2 -2 -5 484.95 44.8
-2 -2 -5 522.15 84.49
-2 -2 -5 431.26 41.6
2 2 5 553.54 41.7
2 2 5 538.85 43.3
-3 -2 -5 21.3 14.2
-3 -2 -5 46.8 22.5
3 2 5 22.2 13
4 -3 -5 230.48 31.6
4 -3 -5 222.88 35.3
3 -3 -5 34.3 13.2
3 -3 -5 26.2 8.5
-3 3 5 39 16.4
2 -3 -5 81.19 18.1
2 -3 -5 99.09 12.7
-2 3 5 66.19 14.9
1 -3 -5 -2.7 3.6
1 -3 -5 4 4.3
0 -3 -5 926.91 53.69
0 -3 -5 856.61 48.2
0 -3 -5 941.31 68.09
0 3 5 943.61 56.49
-1 -3 -5 293.87 37.9
-1 -3 -5 337.57 30
1 3 5 349.87 29.3
-2 -3 -5 63.09 15.8
-2 -3 -5 52.39 15.9
2 3 5 23.1 9.8
2 3 5 42.9 15.1
-3 -3 -5 29.3 14.8
-3 -3 -5 53.59 18.7
3 3 5 39.7 15.6
4 -4 -5 85.39 25.2
4 -4 -5 46.7 16
3 -4 -5 58.49 12.4
3 -4 -5 90.39 24.3
-3 4 5 78.89 21.3
2 -4 -5 140.59 20.5
2 -4 -5 158.48 16.9
-2 4 5 142.99 19.5
1 -4 -5 633.94 41.5
1 -4 -5 662.13 45.2
0 -4 -5 523.95 37.1
0 -4 -5 547.15 48.8
0 -4 -5 550.24 32.3
0 -4 -5 561.24 31.5
0 4 5 568.24 40.1
-1 -4 -5 13.8 9.6
-1 -4 -5 2.3 5.1
-1 -4 -5 6 5.2
1 4 5 9.3 8.9
-2 -4 -5 30.2 19.8
-2 -4 -5 11.5 10.5
-2 -4 -5 -2.4 9.3
2 4 5 -3.7 6.7
-3 -4 -5 27.5 15.3
-3 -4 -5 -3.1 15.9
3 4 5 28.8 14.8
4 -5 -5 94.19 26
4 -5 -5 87.39 19.8
3 -5 -5 19.6 13.5
3 -5 -5 12.3 8.5
-3 5 5 39.6 17.1
2 -5 -5 111.09 14.3
2 -5 -5 99.49 20.7
-2 5 5 87.89 17.6
1 -5 -5 19.6 6.7
1 -5 -5 5.3 4.9
0 -5 -5 302.97 25.7
0 -5 -5 295.77 18.7
0 -5 -5 294.47 18.6
0 -5 -5 255.97 32.4
0 5 5 292.97 27.2
-1 -5 -5 224.98 24.2
-1 -5 -5 238.08 20.8
-1 -5 -5 205.88 31.4
1 5 5 237.38 24.2
-2 -5 -5 262.67 34.3
-2 -5 -5 281.37 28.5
-2 -5 -5 271.07 39.8
2 5 5 282.17 27.1
-3 -5 -5 19.2 14.3
-3 -5 -5 -4.3 12.6
3 5 5 -4.2 20.4
4 -6 -5 -2.7 12.9
4 -6 -5 21.1 16.5
3 -6 -5 197.28 27.9
3 -6 -5 140.69 20.4
-3 6 5 113.49 24.8
2 -6 -5 1099.49 69.39
2 -6 -5 1001.3 63.39
-2 6 5 1119.59 67.89
1 -6 -5 141.29 18.8
1 -6 -5 147.09 14.9
0 -6 -5 160.08 10.1
0 -6 -5 147.69 9.8
0 -6 -5 147.99 17.8
0 -6 -5 179.98 26.1
0 6 5 127.89 18.2
-1 -6 -5 71.29 17
-1 -6 -5 78.89 10.2
-1 -6 -5 72.59 21.6
1 6 5 62.09 14.7
-2 -6 -5 130.99 21.3
-2 -6 -5 148.09 36.2
-2 -6 -5 167.28 26.6
2 6 5 216.18 22.1
-3 -6 -5 14.7 19.7
-3 -6 -5 20.3 15.3
3 6 5 -8.8 10.2
4 -7 -5 -9.3 14.3
4 -7 -5 -19.7 15.8
3 -7 -5 0.1 8.1
3 -7 -5 -4.4 11
-3 7 5 15.8 14.9
2 -7 -5 13.7 7
2 -7 -5 1.9 4.8
-2 7 5 9.4 7.2
1 -7 -5 89.39 18.9
1 -7 -5 92.39 11.2
0 -7 -5 699.93 48.9
0 7 5 809.82 53.99
-1 -7 -5 70.29 20.5
-1 -7 -5 67.99 9.5
-1 -7 -5 65.99 15.8
1 7 5 37.4 12.4
-2 -7 -5 401.16 50.89
-2 -7 -5 364.66 39.8
-2 -7 -5 350.46 33.7
2 7 5 400.96 32.2
-3 -7 -5 218.28 45.8
-3 -7 -5 101.89 26
3 7 5 139.99 27.7
4 -8 -5 40.7 18
4 -8 -5 -3.8 13.1
3 -8 -5 23 14.6
3 -8 -5 45.1 14.5
-3 8 5 17.5 16.3
2 -8 -5 782.52 52.79
2 -8 -5 728.43 51.99
-2 8 5 740.33 52.69
1 -8 -5 40.7 7.7
1 -8 -5 30.5 11
0 -8 -5 420.36 33.9
0 8 5 384.36 35.9
-1 -8 -5 98.59 19.5
-1 -8 -5 118.69 27.7
-1 -8 -5 120.79 11.4
1 8 5 118.09 17.7
-2 -8 -5 10 9.1
-2 -8 -5 10.3 7.7
-2 -8 -5 -10.5 8.1
2 8 5 -6.8 6.7
-3 -8 -5 23.4 20.9
-3 -8 -5 -7.9 12.1
-3 -8 -5 3.4 18.5
3 8 5 5.8 13.7
4 -9 -5 319.87 45.6
4 -9 -5 241.28 36.6
3 -9 -5 -2.6 16.8
3 -9 -5 17.7 11.5
-3 9 5 24.5 16.2
2 -9 -5 373.16 33.5
2 -9 -5 383.66 39.1
2 -9 -5 386.36 33.4
-2 9 5 366.86 32.8
1 -9 -5 -1.6 2.5
1 -9 -5 5.1 5.5
0 -9 -5 1281.17 76.39
-1 -9 -5 5.8 2.4
-1 -9 -5 1.2 11.2
-1 -9 -5 1.5 6.1
1 9 5 14.6 9.2
-2 -9 -5 167.88 31
-2 -9 -5 158.88 35.6
-2 -9 -5 134.99 19.4
2 9 5 142.59 18.5
-3 -9 -5 84.29 30.4
-3 -9 -5 33.8 19.4
3 9 5 45.9 17.8
4 -10 -5 21.1 17.8
3 -10 -5 53.09 18.2
3 -10 -5 36.7 13.5
-3 10 5 48.5 19.4
2 -10 -5 533.45 49.9
2 -10 -5 582.44 42.1
2 -10 -5 525.15 62.09
-2 10 5 536.45 42.2
1 -10 -5 46.6 5.9
1 -10 -5 27 10.6
0 -10 -5 10 6.3
0 10 5 -2.6 7.4
-1 -10 -5 -13.8 7.7
-1 -10 -5 13.8 7.8
-2 -10 -5 111.29 15.4
-2 -10 -5 91.69 27
-2 -10 -5 93.69 22.1
-3 -10 -5 30 19
-3 -10 -5 -16.5 15.7
-3 -10 -5 -1.7 13
3 10 5 9.3 13.5
3 -11 -5 2.2 13.8
3 -11 -5 38.9 15.4
-3 11 5 34.8 18.9
2 -11 -5 -7 8.9
2 -11 -5 -15.4 7.5
2 -11 -5 -2.3 5.2
-2 11 5 21 8.3
1 -11 -5 328.87 34.3
1 -11 -5 371.06 36.1
-1 11 5 341.87 20.2
0 -11 -5 1264.07 76.79
0 11 5 1221.58 80.49
-1 -11 -5 -2.2 14
-1 -11 -5 9.2 12.7
-2 -11 -5 22.2 11.1
-2 -11 -5 1.5 15.6
-2 -11 -5 11.1 8.4
2 11 5 -7.3 7.4
-3 -11 -5 42.9 24.3
3 -12 -5 257.57 32.3
-3 12 5 238.68 50.99
2 -12 -5 1131.79 77.19
2 -12 -5 1151.18 68.89
2 -12 -5 1158.78 83.39
-2 12 5 1208.48 72.49
1 -12 -5 126.69 21.1
1 -12 -5 142.09 21.6
-1 12 5 121.79 9.4
0 -12 -5 22.4 9.4
-1 -12 -5 8.6 10.7
-1 -12 -5 1.2 6.9
-2 -12 -5 278.57 36.6
-2 -12 -5 379.16 49.99
2 12 5 369.56 26.9
3 -13 -5 149.09 29.5
2 -13 -5 41.5 15.9
2 -13 -5 64.59 13.8
-2 13 5 34.7 13.8
0 -13 -5 406.96 52.69
-1 -13 -5 19.2 10.6
-2 -13 -5 104.79 25.2
-2 -13 -5 110.39 33.6
2 13 5 109.19 14.9
3 -14 -5 50.29 18
3 -14 -5 59.89 19.2
2 -14 -5 -5.3 9.3
2 -14 -5 9.2 7.4
-2 14 5 11.3 8.8
1 -14 -5 268.57 30.6
0 -14 -5 13.7 8.3
-1 -14 -5 5.6 9.8
-2 -14 -5 7.4 9.2
-2 -14 -5 33.7 21.7
3 -15 -5 55.29 21.4
2 -15 -5 29.8 13.2
-2 15 5 3.7 9.6
1 -15 -5 83.79 21
0 -15 -5 58.99 16.1
-1 -15 -5 388.76 40.2
-2 -15 -5 66.89 19.2
-2 -15 -5 45.8 23
3 -16 -5 -1.9 13
3 -16 -5 31.4 14.5
2 -16 -5 23 11.7
-2 16 5 21.9 13.5
1 -16 -5 185.08 27.9
0 -16 -5 -1.7 6.7
-1 -16 -5 450.25 44.7
-2 -16 -5 50.99 21.2
-2 -16 -5 26.5 20.6
2 -17 -5 -21.9 9.4
-2 17 5 3.3 12.6
1 -17 -5 5.2 8.6
0 -17 -5 31.8 14.9
-1 -17 -5 3.1 10
2 -18 -5 -4.9 11.7
-2 18 5 -27 13.1
1 -18 -5 16.9 11.5
0 -18 -5 20.7 13.6
-1 -18 -5 1.4 12.4
-2 19 5 8.8 17.2
1 -19 -5 24.6 13.6
0 -19 -5 4.2 10.8
1 -20 -5 18.3 13.8
0 -20 -5 33.5 15.7
1 -21 -5 15.8 14.3
0 -21 -5 25.5 16
1 20 -6 17.6 17
1 19 -6 3.3 11.4
0 19 -6 -16.5 11.6
2 18 -6 -2.1 11.9
-2 -18 6 22.9 18
1 18 -6 19.2 16.7
1 18 -6 45.5 16.3
0 18 -6 3.9 11.8
-1 18 -6 38.8 15.4
2 17 -6 26.9 14.9
-2 -17 6 45.9 18.3
1 17 -6 11.5 11.5
1 17 -6 10.2 13.8
-1 -17 6 -7.2 17
0 17 -6 -8.8 12.6
-1 17 -6 -13 13.9
2 16 -6 18.8 12.4
-2 -16 6 -3.4 12.7
1 16 -6 33.2 13.3
1 16 -6 32.6 17.3
-1 -16 6 9 14.4
0 16 -6 86.59 23.7
-1 16 -6 26.3 16.3
3 15 -6 44 15.1
3 15 -6 -2.9 15.3
2 15 -6 95.49 24.6
-2 -15 6 55.09 16
1 15 -6 25 11
1 15 -6 -2.8 10
-1 -15 6 22.8 16.4
0 15 -6 72.39 21.9
-1 15 -6 22.7 12.8
3 14 -6 25.1 13.6
2 14 -6 65.79 19.5
1 14 -6 -6.3 6.6
1 14 -6 2.8 6.3
-1 -14 6 -11.9 12.2
0 14 -6 207.58 29.2
-1 14 -6 3 13.2
-2 14 -6 1.6 14.5
2 -14 6 -3.3 13.7
3 13 -6 213.28 26.4
3 13 -6 279.97 40
2 13 -6 251.37 37.5
2 13 -6 274.07 17.3
-2 -13 6 267.47 24.5
1 13 -6 86.89 18.7
1 13 -6 60.19 20.1
-1 -13 6 79.49 20.9
0 13 -6 140.89 23.4
0 -13 6 87.39 26.2
-1 13 -6 303.57 38.6
-2 13 -6 -0.5 16.6
2 -13 6 -0.4 12.8
3 12 -6 22.4 15
3 12 -6 66.79 16
2 12 -6 341.87 41.5
2 12 -6 341.77 21.3
-2 -12 6 311.17 26.1
1 12 -6 1430.96 81.49
1 12 -6 1357.46 93.99
-1 -12 6 1260.37 86.49
0 12 -6 193.28 28.4
0 -12 6 221.78 31.7
-1 12 -6 -1.8 9
-2 12 -6 -21.7 13
2 -12 6 33.9 13.8
3 11 -6 10.2 11.8
3 11 -6 1 14.4
2 11 -6 91.09 23.3
2 11 -6 58.39 9.3
-2 -11 6 50.69 9.6
1 11 -6 46.5 12.2
1 11 -6 43.6 24.2
-1 -11 6 36.3 14.1
0 11 -6 199.98 27.3
0 -11 6 237.38 32.9
-1 11 -6 676.13 60.19
1 -11 6 620.94 33.9
-2 11 -6 45.5 15.7
2 -11 6 -0.9 10.5
3 10 -6 -17.6 11.5
3 10 -6 17.9 15.7
2 10 -6 33.3 15.4
2 10 -6 25.9 6.7
1 10 -6 860.31 54.99
1 10 -6 832.82 65.49
-1 -10 6 799.52 59.99
0 10 -6 -2.8 7.1
-1 10 -6 9.7 12.5
1 -10 6 9.9 5.7
-2 10 -6 -17.2 12.2
2 -10 6 8.4 10.7
3 9 -6 482.55 40.4
3 9 -6 460.95 52.99
2 9 -6 28.5 13.3
2 9 -6 33.2 9.2
1 9 -6 286.27 33.5
1 9 -6 295.37 27.1
-1 -9 6 242.38 28.1
0 9 -6 2.6 9.2
0 -9 6 -1 11.8
-1 9 -6 1291.37 98.59
1 -9 6 1321.07 66.69
-2 9 -6 17.4 14.6
2 -9 6 2 10.7
4 8 -6 7 19.1
3 8 -6 29.7 14.9
3 8 -6 50.79 21.1
2 8 -6 6.6 9.1
2 8 -6 18.2 8.8
1 8 -6 950.1 68.39
1 8 -6 821.32 59.59
-1 -8 6 986.7 63.89
0 8 -6 111.69 19
0 -8 6 109.39 24.3
-1 8 -6 173.28 34.6
1 -8 6 187.88 16.6
-2 8 -6 87.59 23.7
2 -8 6 61.39 15.9
4 7 -6 12 18.9
3 7 -6 156.08 25.9
2 7 -6 88.29 15.9
2 7 -6 82.19 22.5
1 7 -6 -0.1 7
1 7 -6 -1.9 6.1
-1 -7 6 5.8 7.5
0 7 -6 1.2 7.3
0 -7 6 14.8 10.5
-1 7 -6 639.84 51.39
-1 7 -6 707.83 62.19
-1 7 -6 624.34 43.2
1 -7 6 710.43 41
-2 7 -6 87.99 23.8
3 6 -6 2.3 10.9
3 6 -6 13.3 20.9
2 6 -6 72.39 18.9
2 6 -6 53.09 12.3
1 6 -6 1572.64 98.29
1 6 -6 1680.23 76.59
1 6 -6 1645.74 90.69
-1 -6 6 1547.15 92.99
0 6 -6 6.8 3.4
0 6 -6 -3.8 6.5
0 -6 6 8.9 11.4
-1 6 -6 147.29 31.8
-1 6 -6 134.79 17.2
-1 6 -6 140.29 21.5
1 -6 6 139.49 15.9
1 -6 6 104.29 35.3
-2 6 -6 7.4 15.6
-2 6 -6 12.5 9
2 -6 6 20.7 11.7
-3 6 -6 148.39 37.2
4 5 -6 -3.5 16.5
3 5 -6 293.87 34
3 5 -6 380.36 45.1
2 5 -6 31.8 16.4
2 5 -6 25.2 3.7
2 5 -6 38.7 11.8
1 5 -6 522.15 40.9
1 5 -6 606.84 32.4
1 5 -6 547.45 46.6
-1 -5 6 585.74 44.1
0 5 -6 6.8 7.3
0 5 -6 13.1 4.6
0 -5 6 -10.6 6.6
-1 5 -6 214.08 25.1
-1 5 -6 219.58 23.5
-1 5 -6 191.38 31.8
1 -5 6 214.38 34.2
1 -5 6 254.67 21.1
-2 5 -6 118.69 22.1
-2 5 -6 111.59 27.5
2 -5 6 112.59 34.7
-3 5 -6 35.6 24.5
-3 5 -6 70.29 23.2
4 4 -6 12.4 13.2
3 4 -6 415.36 39.2
3 4 -6 411.46 47.5
2 4 -6 14 7.1
2 4 -6 16.5 3.9
2 4 -6 11.2 12.2
1 4 -6 17.9 8.3
1 4 -6 17.6 5.3
1 4 -6 29 10.1
0 4 -6 736.13 41.6
0 4 -6 702.83 57.79
0 -4 6 728.63 59.39
-1 4 -6 100.69 28.3
-1 4 -6 97.19 14.7
-1 4 -6 91.19 24.4
1 -4 6 75.49 13.6
1 -4 6 60.79 22
-2 4 -6 29.8 12
-2 4 -6 9.7 11.6
2 -4 6 21.3 11.8
-3 4 -6 12.3 13.9
-3 4 -6 6.3 16
4 3 -6 65.59 22.5
3 3 -6 502.75 52.49
3 3 -6 513.75 47.2
2 3 -6 186.48 14.5
2 3 -6 189.08 27.9
2 3 -6 184.98 21
1 3 -6 23.4 8.8
1 3 -6 16.9 8.7
1 3 -6 15.5 5
0 3 -6 15.7 5.2
0 3 -6 0.8 7.1
0 -3 6 0.5 7.8
-1 3 -6 147.39 19.4
-1 3 -6 148.89 32.3
-1 3 -6 150.08 19.4
1 -3 6 153.28 35.1
1 -3 6 148.49 18.2
-2 3 -6 275.97 32.6
-2 3 -6 268.67 38.9
2 -3 6 240.78 28.4
-3 3 -6 31.8 17
4 2 -6 37 20.5
3 2 -6 30.9 15.9
3 2 -6 49.2 17.7
2 2 -6 210.38 17.3
2 2 -6 194.68 27
1 2 -6 782.12 44.7
1 2 -6 722.83 52.79
1 2 -6 715.23 52.69
0 2 -6 21.9 10.1
0 2 -6 33.7 7.9
0 -2 6 15.8 11.2
0 -2 6 25.1 7.9
-1 2 -6 51.59 13.1
-1 2 -6 29.4 14.5
-1 2 -6 28.4 13
1 -2 6 58.69 18.2
1 -2 6 46.6 10.7
-2 2 -6 69.79 21.9
2 -2 6 74.29 18.6
-3 2 -6 110.89 48
-3 2 -6 88.59 23.8
4 1 -6 267.37 40.6
3 1 -6 93.09 20.9
3 1 -6 52.09 19
2 1 -6 40.2 14.5
2 1 -6 42.5 9.3
1 1 -6 4 4
1 1 -6 14.4 9.1
1 1 -6 3.9 4.5
0 1 -6 101.09 12.2
0 1 -6 118.19 25.4
0 -1 6 98.19 14.2
-1 1 -6 316.67 40.1
-1 1 -6 262.07 28.7
1 -1 6 279.47 36.8
1 -1 6 296.87 26.3
-2 1 -6 24.9 18.3
-2 1 -6 38.2 19.8
-2 1 -6 73.69 18.1
2 -1 6 77.49 19
-3 1 -6 15.9 19.5
-3 1 -6 -0.9 15.7
4 0 -6 269.17 38.7
3 0 -6 8.8 12.3
2 0 -6 278.27 31.5
2 0 -6 286.97 25.4
1 0 -6 -4.1 4.8
1 0 -6 6 5.7
0 0 -6 15.3 11.2
0 0 6 41.2 9.9
-1 0 -6 -5.4 6.5
-1 0 -6 2.2 6.1
-1 0 -6 -10 5
1 0 6 -2.4 9
1 0 6 -9.6 5.2
-2 0 -6 98.49 21.9
-2 0 -6 71.89 24.4
-2 0 -6 68.69 19.1
2 0 6 92.99 20.6
-3 0 -6 -15.9 14.7
-3 0 -6 21.6 15.9
4 -1 -6 262.17 39.1
3 -1 -6 59.49 8.9
3 -1 -6 79.59 8.8
3 -1 -6 67.59 20.9
2 -1 -6 51.19 8.8
2 -1 -6 46.6 13.9
2 -1 -6 47.7 11.9
1 -1 -6 15.3 7.2
1 -1 -6 10.7 7
1 -1 -6 13.9 6
0 -1 -6 84.79 21.8
0 -1 -6 101.19 13
0 1 6 84.59 13.7
-1 -1 -6 295.67 39.4
-1 -1 -6 303.57 29.5
-1 -1 -6 297.47 28.9
1 1 6 317.67 28.2
-2 -1 -6 61.09 18.7
-2 -1 -6 39.1 16.1
-2 -1 -6 43.6 18.3
-3 -1 -6 -26.2 12.3
-3 -1 -6 3.8 19.8
4 -2 -6 25.7 20.5
3 -2 -6 21.3 12.9
3 -2 -6 34.6 8.6
2 -2 -6 223.78 24.3
2 -2 -6 193.68 26
-2 2 6 203.18 24.6
1 -2 -6 662.63 45.8
1 -2 -6 683.73 45.3
1 -2 -6 639.44 52.29
0 -2 -6 17 6.6
0 -2 -6 20.7 12.6
0 -2 -6 20.6 7.4
0 2 6 14.4 7.2
-1 -2 -6 63.19 14.4
-1 -2 -6 66.89 19.1
-1 -2 -6 65.89 15.7
1 2 6 71.99 15.9
-2 -2 -6 50.99 17.1
-2 -2 -6 79.19 24.2
-2 -2 -6 33 15.2
-3 -2 -6 47.7 23.7
-3 -2 -6 128.69 28.6
4 -3 -6 52.19 11.5
4 -3 -6 73.69 22
3 -3 -6 438.76 32.7
3 -3 -6 534.55 51.09
2 -3 -6 172.08 24.2
2 -3 -6 154.18 17.1
-2 3 6 150.48 19.6
1 -3 -6 1.6 4.5
1 -3 -6 13.2 7.1
1 -3 -6 21.3 11.1
0 -3 -6 2.2 5.4
0 -3 -6 3.8 4.2
0 -3 -6 4.3 6.4
0 3 6 19.8 7.6
-1 -3 -6 146.99 32.1
-1 -3 -6 136.59 20.1
-1 -3 -6 158.48 19.2
1 3 6 151.48 19.7
-2 -3 -6 320.67 45.1
-2 -3 -6 263.37 33.6
-3 -3 -6 -10.4 18.8
-3 -3 -6 -9.7 12.9
4 -4 -6 -0.5 14.2
3 -4 -6 463.45 34.3
3 -4 -6 449.66 47.2
-3 4 6 431.46 52.79
2 -4 -6 12.3 9.2
2 -4 -6 36.2 8.8
-2 4 6 34.4 10.9
1 -4 -6 25 9.1
1 -4 -6 5.5 7.9
1 -4 -6 13.6 6.4
0 -4 -6 726.43 61.79
0 -4 -6 706.63 47.3
0 -4 -6 705.53 41.1
0 -4 -6 723.33 42.4
0 4 6 764.02 51.29
-1 -4 -6 87.29 24.6
-1 -4 -6 77.59 15.6
-1 -4 -6 51.59 13
1 4 6 86.99 19.7
-2 -4 -6 22.3 15.1
-2 -4 -6 2.3 10.6
-2 -4 -6 -3.1 9.7
-3 -4 -6 -15.2 14
4 -5 -6 37.9 13.9
4 -5 -6 -2.1 13.5
3 -5 -6 323.27 28.5
3 -5 -6 299.47 37.6
-3 5 6 308.17 35.7
2 -5 -6 57.79 14.7
2 -5 -6 31.2 12.4
2 -5 -6 32.4 10
-2 5 6 27.6 11.9
1 -5 -6 561.64 39.1
1 -5 -6 612.74 44.6
0 -5 -6 7.4 3.4
0 -5 -6 9.4 11.2
0 -5 -6 7.8 4
0 -5 -6 0.8 4.4
0 5 6 6.2 6.1
-1 -5 -6 201.78 25.4
-1 -5 -6 205.28 32.6
-1 -5 -6 211.28 20.3
1 5 6 192.28 24.7
-2 -5 -6 60.99 16.9
-2 -5 -6 79.49 21.9
-2 -5 -6 169.58 39.2
-3 -5 -6 31.4 20.2
4 -6 -6 17.1 15.2
4 -6 -6 42.2 20.8
3 -6 -6 -10.8 7.3
3 -6 -6 1.1 11
-3 6 6 -5.4 12.7
2 -6 -6 77.59 16.5
2 -6 -6 35 13.8
2 -6 -6 30 9.5
-2 6 6 37 11
1 -6 -6 1504.15 79.59
1 -6 -6 1472.35 87.49
0 -6 -6 1.7 5.3
0 -6 -6 3.2 2.8
0 -6 -6 2 3
0 -6 -6 -0.5 7.1
0 6 6 11.5 6.6
-1 -6 -6 109.59 20.9
-1 -6 -6 100.79 13.8
-1 -6 -6 162.18 27.5
1 6 6 113.29 21.9
-2 -6 -6 1.9 10.2
-2 -6 -6 -2.2 11.1
-2 -6 -6 2.5 9.1
-3 -6 -6 119.29 35.6
4 -7 -6 -6.1 14.6
4 -7 -6 12.3 17.3
3 -7 -6 84.79 13.8
3 -7 -6 79.39 22.1
-3 7 6 72.99 19.1
2 -7 -6 69.99 19.2
2 -7 -6 81.49 17.8
2 -7 -6 65.39 15.3
-2 7 6 73.19 15.2
1 -7 -6 3.3 4.7
1 -7 -6 -3.6 4.7
0 -7 -6 26.4 12.5
0 -7 -6 4.4 6.4
0 7 6 4.3 8.5
-1 -7 -6 575.84 47.7
-1 -7 -6 620.34 37.7
1 7 6 672.13 56.09
-2 -7 -6 38.4 13
-2 -7 -6 20.9 17.8
-2 -7 -6 44.5 18
4 -8 -6 25.3 19.1
4 -8 -6 -18.7 18.2
3 -8 -6 42.2 13
3 -8 -6 60.69 19.3
-3 8 6 30.5 17.4
2 -8 -6 11.1 9.1
2 -8 -6 17.1 8.1
2 -8 -6 1.5 9
-2 8 6 6.5 7.4
1 -8 -6 947.01 61.99
1 -8 -6 813.62 46.7
0 -8 -6 113.59 17.2
0 -8 -6 62.39 20.2
0 8 6 93.49 19.3
-1 -8 -6 130.79 31.9
-1 -8 -6 158.78 13.1
-1 -8 -6 160.38 23.6
-2 -8 -6 50.89 24.7
-2 -8 -6 69.29 19.7
-2 -8 -6 81.99 16.5
3 -9 -6 502.05 40.2
3 -9 -6 427.36 44.1
-3 9 6 362.66 43
2 -9 -6 23.3 10.4
2 -9 -6 35.8 28
-2 9 6 44.8 11.7
1 -9 -6 254.27 17
1 -9 -6 253.97 29
0 -9 -6 0.3 4.4
0 9 6 -5.7 7.2
-1 -9 -6 1202.98 77.89
-1 -9 -6 1095.99 91.89
-2 -9 -6 21 12.3
-2 -9 -6 8.9 11.1
-2 -9 -6 19.7 15.9
3 -10 -6 11.5 10.4
3 -10 -6 10.1 11.1
-3 10 6 -0.8 15
2 -10 -6 24.8 12.6
2 -10 -6 16.4 8.8
2 -10 -6 11.4 12.1
-2 10 6 30.6 11.4
1 -10 -6 767.92 57.89
0 -10 -6 6.3 6.8
-1 -10 -6 15.5 14.2
-1 -10 -6 0 8.9
-2 -10 -6 -4 8
-2 -10 -6 9.7 15.5
3 -11 -6 28.2 14.4
-3 11 6 27.2 19
2 -11 -6 51.69 13.8
2 -11 -6 31.4 11.7
2 -11 -6 66.99 16
-2 11 6 34.7 12.1
0 -11 -6 177.28 38.7
-1 -11 -6 541.45 47.3
-1 -11 -6 530.55 59.59
-2 -11 -6 24.6 16.1
-2 -11 -6 19 9.9
-2 -11 -6 9.2 11.7
3 -12 -6 17.6 13.8
3 -12 -6 12.1 13.5
-3 12 6 29.8 20.2
2 -12 -6 399.06 42.2
2 -12 -6 301.67 26.9
-2 12 6 271.37 28
1 -12 -6 1269.87 83.89
0 -12 -6 180.38 23.3
-1 -12 -6 7.4 9.9
-1 -12 -6 1.6 11.8
-2 -12 -6 21.9 22.5
-2 -12 -6 28 14.5
3 -13 -6 262.57 38
3 -13 -6 213.38 28.9
-3 13 6 175.88 36.9
2 -13 -6 231.58 22.5
2 -13 -6 229.98 32.8
-2 13 6 248.58 25.3
1 -13 -6 87.49 22.8
0 -13 -6 110.49 22.4
-1 -13 -6 274.97 31.6
-1 -13 -6 244.88 41.5
-2 -13 -6 -20.4 15.2
-2 -13 -6 6.9 10.8
3 -14 -6 21 14.7
2 -14 -6 37.6 14.9
2 -14 -6 34.5 13.5
-2 14 6 31.7 12.7
1 -14 -6 -7 6.7
0 -14 -6 217.88 26.8
-1 -14 -6 17.9 9.6
-1 -14 -6 -15.9 12.9
-2 -14 -6 0.6 19.9
-2 -14 -6 4.7 13.1
3 -15 -6 31.5 17.7
3 -15 -6 30.2 13.8
2 -15 -6 77.29 20.6
-2 15 6 84.19 16.7
1 -15 -6 13.7 8.5
0 -15 -6 97.09 21.5
-1 -15 -6 27.6 12.1
-1 -15 -6 5.3 16.8
-2 16 6 -2.1 10.9
1 -16 -6 47.1 16.3
0 -16 -6 43.5 13
-1 -16 -6 -13.6 8.2
-1 -16 -6 9.2 16.1
2 -17 -6 12.8 15.5
-2 17 6 13.9 12.5
1 -17 -6 -8.1 7.8
0 -17 -6 -7.8 8
-1 -17 -6 17.1 22.7
2 -18 -6 16.5 14.9
1 -18 -6 58.49 20.4
0 -18 -6 5.8 10.4
-1 -18 -6 -0.7 11.6
0 -19 -6 -19.3 13.8
1 18 -7 0.9 12.7
1 18 -7 7.8 14.6
0 18 -7 43.1 17.2
1 17 -7 13.7 14.1
0 17 -7 -7.2 10
2 16 -7 4.5 10.7
-2 -16 7 7.4 14.7
1 16 -7 2.9 9.7
1 16 -7 26.2 13.6
-1 -16 7 48.2 23.9
0 16 -7 8.4 13.5
-1 16 -7 -11.7 13.5
2 15 -7 68.09 20.2
-2 -15 7 35.5 15
1 15 -7 51.09 14.8
1 15 -7 15.1 11.8
-1 -15 7 50.39 20.9
0 15 -7 3.7 12.6
-1 15 -7 6.3 14.8
2 14 -7 22.4 14
1 14 -7 13.5 12.5
1 14 -7 11.8 10.4
-1 -14 7 2.3 13.8
0 14 -7 -1.3 10.5
-1 14 -7 85.59 25.2
3 13 -7 80.59 27.1
2 13 -7 187.18 37.4
-2 -13 7 194.78 28
1 13 -7 177.68 36.3
1 13 -7 249.08 27.1
-1 -13 7 201.68 33.5
0 13 -7 106.59 25.1
-1 13 -7 99.69 27.3
3 12 -7 11.2 28.4
3 12 -7 60.89 16.6
2 12 -7 28.3 16.8
-2 -12 7 37.7 11.4
1 12 -7 192.68 22.9
1 12 -7 244.18 35.5
-1 -12 7 171.28 28.5
0 12 -7 528.25 60.69
-1 12 -7 98.99 27.9
3 11 -7 57.59 14.9
2 11 -7 50.79 19.5
1 11 -7 83.09 24
1 11 -7 51.29 15
-1 -11 7 66.99 21.1
0 11 -7 127.39 26.1
-1 11 -7 31.2 16.7
-2 11 -7 152.68 34.9
3 10 -7 -7.1 13.2
3 10 -7 -4.9 14.4
2 10 -7 17.1 6.1
2 10 -7 15.8 5.2
2 10 -7 10 6
2 10 -7 11 13.1
1 10 -7 1.9 7.8
1 10 -7 11.9 11.1
-1 -10 7 17.2 11.2
0 10 -7 675.73 56.59
0 -10 7 571.64 57.59
-1 10 -7 5.1 13.6
1 -10 7 1.1 5.6
-2 10 -7 -19.7 21.2
2 -10 7 14.8 13.8
3 9 -7 38 15.3
3 9 -7 40.2 20.1
2 9 -7 307.97 23.2
2 9 -7 338.37 24.5
2 9 -7 310.17 42.3
2 9 -7 352.66 22.5
1 9 -7 105.59 16.7
1 9 -7 65.89 17.8
-1 -9 7 86.49 19.4
0 9 -7 139.29 29.6
0 -9 7 173.18 35.3
-1 9 -7 7.6 12.2
1 -9 7 13.4 6.8
-2 9 -7 802.82 80.19
2 -9 7 732.43 50.79
3 8 -7 45.3 22.1
3 8 -7 29.8 15.3
2 8 -7 123.89 15.4
2 8 -7 88.69 12.8
2 8 -7 102.79 26.2
2 8 -7 98.09 10.2
1 8 -7 0.6 5.4
1 8 -7 -3.3 4.4
-1 -8 7 -5.6 6.3
0 8 -7 453.25 46.5
0 -8 7 532.35 53.59
-1 8 -7 295.47 40.5
1 -8 7 294.27 23.3
-2 8 -7 61.79 20.5
2 -8 7 -6.5 14.5
3 7 -7 137.39 24
2 7 -7 167.18 13.7
1 7 -7 316.77 35.6
1 7 -7 277.17 28.3
-1 -7 7 278.97 31.2
0 7 -7 23 15
0 -7 7 30.7 16.1
-1 7 -7 3.2 7.7
-1 7 -7 1.8 11.6
1 -7 7 -6.3 8.9
-2 7 -7 397.96 54.09
2 -7 7 423.66 42.4
3 6 -7 60.89 21.9
3 6 -7 80.99 27.9
2 6 -7 45.8 7.7
2 6 -7 33.1 12.1
2 6 -7 59.09 23.5
1 6 -7 -1.6 3
1 6 -7 7.6 3.9
1 6 -7 5.6 6.2
1 6 -7 3.8 6.3
-1 -6 7 -4.4 7
0 6 -7 1153.18 59.39
0 6 -7 1194.38 83.99
0 -6 7 1098.09 84.99
-1 6 -7 49.6 19.7
1 -6 7 37.1 10.5
-2 6 -7 121.09 31.1
-2 6 -7 108.79 22
3 5 -7 -5.3 11.4
3 5 -7 37.7 13
2 5 -7 492.35 30.2
2 5 -7 403.56 35.3
2 5 -7 561.84 51.79
1 5 -7 52.69 8
1 5 -7 87.69 20.9
1 5 -7 59.39 15
0 5 -7 931.51 70.69
0 5 -7 887.21 50.09
0 -5 7 865.51 71.09
-1 5 -7 14.8 8.8
-1 5 -7 2.3 11.4
1 -5 7 -11 6.4
-2 5 -7 80.09 25.7
-2 5 -7 78.39 20.4
4 4 -7 16.3 21.5
3 4 -7 29.7 14.3
3 4 -7 -1.2 12.6
2 4 -7 1177.48 60.39
2 4 -7 998.7 65.89
2 4 -7 1113.09 81.49
1 4 -7 19.5 6
1 4 -7 10.7 8.7
1 4 -7 12.4 8.1
0 4 -7 2.2 8
0 4 -7 1.7 5.2
0 -4 7 1 9.4
-1 4 -7 371.56 46.1
-1 4 -7 349.07 33.9
-1 4 -7 326.87 31.7
1 -4 7 357.06 29.2
-2 4 -7 -11.9 13.1
-2 4 -7 -6.9 10.6
2 -4 7 -3.3 10.2
3 3 -7 23.1 14.1
3 3 -7 55.79 18.2
2 3 -7 462.45 33.2
2 3 -7 489.25 39.6
2 3 -7 540.95 51.09
2 3 -7 520.55 39.2
1 3 -7 387.06 38.1
1 3 -7 440.86 40.6
1 3 -7 444.26 29.3
0 3 -7 -1.6 9.9
0 3 -7 11.3 6
0 -3 7 13.7 12.5
-1 3 -7 18.7 11.1
-1 3 -7 17 17.3
-1 3 -7 9.6 10.1
1 -3 7 30.8 10.5
-2 3 -7 9 12.3
-2 3 -7 -8.5 11.6
2 -3 7 -3.8 10.2
4 2 -7 242.98 53.59
3 2 -7 8.8 15.5
3 2 -7 44.3 16
2 2 -7 42.8 10.8
2 2 -7 36.1 15.3
2 2 -7 45.4 12.3
1 2 -7 180.28 24.7
1 2 -7 214.78 19.2
1 2 -7 209.78 26.5
0 2 -7 138.99 22.2
0 2 -7 147.09 32.6
-1 2 -7 188.18 38.3
-1 2 -7 121.19 22.9
-1 2 -7 128.99 18.9
1 -2 7 135.19 20.9
-2 2 -7 -8.9 8.8
-2 2 -7 -11 11.8
4 1 -7 90.59 28.7
3 1 -7 413.06 46.1
3 1 -7 345.87 54.79
2 1 -7 50.79 14
2 1 -7 84.99 13.2
2 1 -7 83.19 22.3
1 1 -7 9.7 5.5
1 1 -7 4.1 6.2
1 1 -7 -1.9 7.4
0 1 -7 10.5 11.7
0 1 -7 0.3 4.3
-1 1 -7 1.7 7.3
-1 1 -7 -11.5 8
-1 1 -7 5 10.3
1 -1 7 3.8 8.6
-2 1 -7 27.1 18.1
4 0 -7 16.7 16.6
3 0 -7 195.58 39.5
2 0 -7 -4.2 6.1
2 0 -7 5.4 9.2
2 0 -7 4.5 5.4
1 0 -7 167.38 22.6
1 0 -7 178.58 26.5
1 0 -7 181.88 19.6
0 0 -7 -7.6 5.2
0 0 -7 4.7 4.5
0 0 -7 4.9 9.9
0 0 7 1.8 5.4
-1 0 -7 22.5 11.7
-1 0 -7 6.8 9.4
-1 0 -7 4.4 8.5
1 0 7 16.1 9.6
-2 0 -7 -16.5 10.4
-2 0 -7 0.8 12.2
4 -1 -7 75.79 27
3 -1 -7 267.67 19.7
3 -1 -7 351.76 42
2 -1 -7 88.49 18.6
2 -1 -7 76.69 20
2 -1 -7 71.29 18
1 -1 -7 15.8 9.5
1 -1 -7 11.6 7
0 -1 -7 5.2 8.2
0 -1 -7 -3.1 5
0 -1 -7 -7.6 5.2
0 1 7 11.1 7.3
-1 -1 -7 -5.6 9
-1 -1 -7 1.4 7
1 1 7 -14.2 9
-2 -1 -7 2.7 15
-2 -1 -7 30.3 13.6
-2 -1 -7 -5.6 13.7
4 -2 -7 204.28 40.6
3 -2 -7 16.8 7
3 -2 -7 40.4 15.7
3 -2 -7 29.6 10.3
2 -2 -7 44.5 15.5
2 -2 -7 22.8 12.7
2 -2 -7 23.4 13.2
1 -2 -7 251.77 25.3
1 -2 -7 223.78 30.7
1 -2 -7 233.18 24.1
0 -2 -7 139.09 29.9
0 -2 -7 137.89 17.9
0 -2 -7 181.98 17.8
0 2 7 156.58 20.7
-1 -2 -7 119.09 20.6
-1 -2 -7 142.39 22.3
-1 -2 -7 149.19 35.7
1 2 7 127.69 22.8
-2 -2 -7 5.2 10.3
-2 -2 -7 -11 9.9
-2 -2 -7 10.1 13.9
4 -3 -7 50.09 23.3
3 -3 -7 50.49 12.2
2 -3 -7 533.95 45.3
2 -3 -7 512.25 45.4
2 -3 -7 502.85 45.3
1 -3 -7 406.06 42.5
1 -3 -7 385.26 34.4
1 -3 -7 386.66 33.4
0 -3 -7 12.8 6.3
0 -3 -7 9.1 9.1
0 -3 -7 13.5 7.4
0 3 7 11.5 8.4
-1 -3 -7 13.2 10.5
-1 -3 -7 24.2 11.4
-1 -3 -7 11.1 11.8
1 3 7 15.4 10.9
-2 -3 -7 6.6 15.4
-2 -3 -7 -5.3 12.8
-2 -3 -7 2.1 10.3
4 -4 -7 10.3 15.2
3 -4 -7 -7.4 7
3 -4 -7 22.7 16.7
2 -4 -7 1080.89 73.89
2 -4 -7 1040.8 71.79
1 -4 -7 35.6 15.6
1 -4 -7 16.5 9
1 -4 -7 10.3 7.4
0 -4 -7 11.2 5.9
0 -4 -7 -12.7 10.6
0 -4 -7 1 4.1
0 -4 -7 9.3 7.5
0 4 7 -6.7 8.4
-1 -4 -7 293.97 28.8
-1 -4 -7 357.86 34.8
-1 -4 -7 399.36 49.2
1 4 7 285.77 32.6
-2 -4 -7 -4.3 13.7
-2 -4 -7 -12.1 9
-2 -4 -7 -9.1 16.4
3 -5 -7 -5 7.9
2 -5 -7 545.75 47.3
2 -5 -7 451.45 40.6
2 -5 -7 514.45 43
1 -5 -7 51.49 12.7
1 -5 -7 61.99 14.7
1 -5 -7 56.99 17.7
0 -5 -7 919.31 58.99
0 -5 -7 896.11 75.89
0 -5 -7 850.71 49.99
0 -5 -7 892.51 49.8
0 5 7 885.71 62.29
-1 -5 -7 8.1 14.7
-1 -5 -7 -8.4 5.4
-1 -5 -7 6.9 7.2
-2 -5 -7 145.09 31.3
-2 -5 -7 113.79 23.7
-2 -5 -7 132.99 36.7
3 -6 -7 77.89 15.7
3 -6 -7 60.39 20.4
2 -6 -7 44.3 15.2
2 -6 -7 44.6 11.7
2 -6 -7 53.89 16.8
1 -6 -7 14.4 9.8
1 -6 -7 -0.9 5
1 -6 -7 2 7
0 -6 -7 1168.38 58.19
0 -6 -7 1079.19 87.49
0 -6 -7 1152.38 58.49
0 -6 -7 1133.19 70.19
0 6 7 1005 72.19
-1 -6 -7 34.4 17.4
-1 -6 -7 46 11
-1 -6 -7 15.2 13.8
-2 -6 -7 85.89 20.1
-2 -6 -7 81.09 23.8
3 -7 -7 90.39 23.6
3 -7 -7 74.09 18.4
2 -7 -7 105.79 20
2 -7 -7 77.39 34.5
2 -7 -7 85.99 19.7
1 -7 -7 284.67 30
1 -7 -7 283.67 22.7
1 -7 -7 234.68 35.3
0 -7 -7 22.3 9.2
0 -7 -7 38.5 19.4
0 7 7 41 13
-1 -7 -7 -3.7 7.9
-1 -7 -7 -4.4 5.8
-1 -7 -7 12.4 11.6
-2 -7 -7 358.96 51.79
-2 -7 -7 364.66 45.4
-2 -7 -7 318.07 32.9
3 -8 -7 -11.3 12.5
3 -8 -7 55.89 17.8
-3 8 7 -7.4 15.4
2 -8 -7 78.79 16.6
2 -8 -7 82.19 22.2
2 -8 -7 94.99 20
1 -8 -7 4.8 3.8
1 -8 -7 -6.3 5.9
0 -8 -7 495.75 41.8
0 -8 -7 528.95 59.29
-1 -8 -7 312.37 34.8
-1 -8 -7 304.47 42.9
-1 -8 -7 289.07 19.1
-2 -8 -7 19.4 14.7
-2 -8 -7 15.2 13.1
-2 -8 -7 18 17
3 -9 -7 6.9 11.7
3 -9 -7 1 14.2
3 -9 -7 10.2 13
-3 9 7 15.7 15.2
2 -9 -7 303.77 34.7
2 -9 -7 337.37 39.9
2 -9 -7 385.66 32.9
1 -9 -7 66.09 6.7
0 -9 -7 171.58 23.5
0 -9 -7 154.48 34.8
-1 -9 -7 17.6 12.5
-1 -9 -7 17 16.3
-2 -9 -7 611.74 42.6
-2 -9 -7 571.64 57.69
-2 -9 -7 636.34 73.79
3 -10 -7 0 11.8
3 -10 -7 -13.5 11.2
-3 10 7 6.2 16.6
2 -10 -7 24.5 9.1
2 -10 -7 7.8 10.3
1 -10 -7 11.4 9.3
0 -10 -7 600.34 64.79
0 -10 -7 602.84 48
-1 -10 -7 3.7 10.1
-1 -10 -7 -8 7.8
-2 -10 -7 -5.1 12.4
-2 -10 -7 25.6 23.7
3 -11 -7 -4 12.7
3 -11 -7 10.1 12.4
-3 11 7 -19.2 15.4
2 -11 -7 54.89 18.5
1 -11 -7 31.5 14.1
0 -11 -7 102.79 20.2
0 -11 -7 75.99 25.3
-1 -11 -7 57.59 21
-1 -11 -7 18.6 14.1
-2 -11 -7 159.28 34.5
-2 -11 -7 115.79 33.2
-2 -11 -7 94.09 14.7
3 -12 -7 74.69 19.6
-3 12 7 57.79 22.3
2 -12 -7 39.4 17.6
2 -12 -7 12.6 9.2
1 -12 -7 136.89 27.6
0 -12 -7 595.14 64.69
0 -12 -7 542.35 47.1
-1 -12 -7 33.8 14.7
-1 -12 -7 69.39 28.4
3 -13 -7 7.2 14.7
3 -13 -7 18.3 15.4
-3 13 7 4.8 21.6
2 -13 -7 163.78 34.9
2 -13 -7 203.58 19.7
1 -13 -7 217.18 31.5
0 -13 -7 75.39 20.2
-1 -13 -7 94.59 23.2
-1 -13 -7 90.49 33.4
2 -14 -7 12.6 15.3
1 -14 -7 2.1 9.2
0 -14 -7 -13.5 7.3
-1 -14 -7 93.49 32.1
-1 -14 -7 93.59 22.2
2 -15 -7 52.79 19.7
1 -15 -7 9.2 12.3
0 -15 -7 26.1 12.5
-1 -15 -7 63.69 28.2
-1 -15 -7 18.6 19.7
2 -16 -7 16.1 14.5
1 -16 -7 -1.6 11.3
0 -16 -7 13.4 12
-1 -16 -7 22.9 22.9
0 -17 -7 0.1 13
1 -18 -7 26.1 14.6
1 15 -8 95.59 21
1 15 -8 90.69 25.6
0 15 -8 4.6 12.2
2 14 -8 35.7 19.7
1 14 -8 31.5 15.7
1 14 -8 22.9 14.7
-1 -14 8 12.2 23.4
0 14 -8 17.7 14.7
2 13 -8 75.99 39
1 13 -8 31.6 14.3
1 13 -8 30.6 15.3
-1 -13 8 15 19.6
0 13 -8 70.09 22.3
2 12 -8 19.3 16.8
2 12 -8 19.4 8.3
1 12 -8 39.1 13.1
1 12 -8 -4.3 8.4
-1 -12 8 5.7 17.6
0 12 -8 56.79 20.4
-1 12 -8 147.89 36.1
2 11 -8 70.89 12.4
2 11 -8 73.29 23
1 11 -8 46.8 16.8
1 11 -8 55.69 16.1
-1 -11 8 81.59 24.8
0 11 -8 8.1 11.7
-1 11 -8 119.29 33.6
3 10 -8 20.7 21
3 10 -8 20.3 14.6
2 10 -8 27.4 9.4
2 10 -8 49.1 17.8
1 10 -8 5.1 9.9
1 10 -8 -8.9 10.2
-1 -10 8 -9.6 13.5
0 10 -8 71.39 22
-1 10 -8 247.88 39.5
3 9 -8 190.68 27.6
3 9 -8 236.18 53.69
2 9 -8 7.1 10.1
2 9 -8 -2.1 6
2 9 -8 -4.9 3.6
1 9 -8 102.09 20.7
1 9 -8 83.89 22.4
-1 -9 8 93.49 23.3
0 9 -8 106.59 24.4
-1 9 -8 84.39 24.8
3 8 -8 20.3 15.8
3 8 -8 1 15.2
2 8 -8 24.6 8.4
2 8 -8 34 7.9
2 8 -8 53.89 11.5
2 8 -8 61.89 22.6
1 8 -8 16.1 10.4
1 8 -8 67.89 16.9
-1 -8 8 24.3 14.6
0 8 -8 -5.4 12.4
-1 8 -8 115.79 28.9
1 -8 8 64.49 18.7
3 7 -8 -23.6 14.1
3 7 -8 11.2 18.3
2 7 -8 207.38 19.3
2 7 -8 213.88 18.9
2 7 -8 260.77 37
1 7 -8 94.09 20.7
0 7 -8 197.08 51.79
-1 7 -8 36 18.2
-1 7 -8 39.3 18.9
1 -7 8 58.89 13.8
3 6 -8 -22.8 16.1
3 6 -8 -0.6 14.2
2 6 -8 45.2 12.4
2 6 -8 44.5 12.2
2 6 -8 38.1 9.7
2 6 -8 70.09 20.9
1 6 -8 58.99 8.4
1 6 -8 55.19 9.3
1 6 -8 31.9 12.6
0 6 -8 101.19 25.2
0 6 -8 57.79 10.2
-1 6 -8 552.24 41.4
-1 6 -8 534.85 62.09
1 -6 8 549.05 40.4
-2 6 -8 23.4 17.2
2 -6 8 11.6 17.6
3 5 -8 37.6 16.3
3 5 -8 41.7 18.9
2 5 -8 22 8
2 5 -8 8.9 15.2
2 5 -8 15.9 8.6
2 5 -8 39.9 11.7
1 5 -8 477.45 46.6
1 5 -8 431.26 42.2
1 5 -8 538.65 30.9
0 5 -8 55.69 11
0 5 -8 37.9 18.2
-1 5 -8 571.64 44.1
-1 5 -8 614.54 66.59
1 -5 8 489.75 39.9
-2 5 -8 0.7 13.9
-2 5 -8 8.1 16.5
3 4 -8 32.2 19.8
3 4 -8 26.4 15.9
2 4 -8 -6.9 7.7
2 4 -8 11.9 7
2 4 -8 -7 5.1
1 4 -8 1076.79 76.69
1 4 -8 1104.39 78.89
1 4 -8 1175.48 60.89
0 4 -8 109.79 14.6
0 4 -8 71.99 17.2
0 4 -8 89.09 23.1
-1 4 -8 -15.5 14.6
-1 4 -8 33.1 11.8
1 -4 8 9.6 11.7
-2 4 -8 93.99 32.5
3 3 -8 117.19 25.1
3 3 -8 115.79 30.6
2 3 -8 5.5 7.5
2 3 -8 -11.8 18.6
2 3 -8 -3.5 6.7
1 3 -8 295.17 33.4
1 3 -8 272.27 32.8
1 3 -8 313.97 33.2
0 3 -8 290.47 27.3
0 3 -8 321.07 31.8
0 3 -8 326.87 42.1
-1 3 -8 11.8 10.6
-1 3 -8 20.4 16.8
1 -3 8 60.29 15.1
-2 3 -8 5 14.1
-2 3 -8 25 19.5
3 2 -8 176.78 38.8
2 2 -8 15.9 9.4
2 2 -8 5.1 12.5
2 2 -8 5.8 7.4
1 2 -8 20.2 12.6
1 2 -8 36 9.1
1 2 -8 22.7 10.5
0 2 -8 93.69 14.5
0 2 -8 91.99 24.6
0 2 -8 50.39 16.7
-1 2 -8 -21.4 10.5
-1 2 -8 1 15.6
-1 2 -8 -10.4 7.8
1 -2 8 -6.1 9.4
-2 2 -8 54.39 25.3
-2 2 -8 36 17.1
3 1 -8 103.89 27.7
2 1 -8 329.67 32.5
2 1 -8 356.36 34.3
2 1 -8 330.77 40.2
1 1 -8 23.7 9.9
1 1 -8 29.6 13.3
1 1 -8 17.8 12.6
0 1 -8 55.39 14.1
0 1 -8 18.1 14
0 1 -8 63.49 13.3
-1 1 -8 7.3 9.6
-1 1 -8 7.3 14.7
-1 1 -8 -3.3 11.2
1 -1 8 36.8 12.8
-2 1 -8 43.7 19.8
-2 1 -8 30 27.6
3 0 -8 17.8 17.5
2 0 -8 18.5 13.1
2 0 -8 7.5 9.9
2 0 -8 15.8 10.8
1 0 -8 8.3 10.6
1 0 -8 7.5 8.3
1 0 -8 -6.9 4.8
0 0 -8 60.39 13.4
0 0 -8 56.69 13.9
0 0 -8 103.89 29.8
-1 0 -8 7.7 9.8
-1 0 -8 15.2 13.5
-1 0 -8 8.2 14
1 0 8 -13 10.1
-2 0 -8 0.4 13.9
-2 0 -8 -17.2 17.4
3 -1 -8 130.39 13.3
3 -1 -8 153.28 30.7
3 -1 -8 132.19 16.1
2 -1 -8 267.97 34.4
2 -1 -8 321.07 33.5
2 -1 -8 298.27 32.5
1 -1 -8 25.2 15.4
1 -1 -8 30 12.3
1 -1 -8 30.2 11.5
0 -1 -8 56.49 21.1
0 -1 -8 49.7 12.3
0 -1 -8 61.49 13.4
-1 -1 -8 6.3 10.1
-1 -1 -8 7.4 11.4
-2 -1 -8 12 20.8
-2 -1 -8 20.8 15.8
3 -2 -8 134.29 19.6
2 -2 -8 16.8 10.7
2 -2 -8 8.6 9.1
2 -2 -8 8.7 10.3
1 -2 -8 31.9 11.5
1 -2 -8 7.7 10.3
1 -2 -8 38 18
0 -2 -8 68.39 14.3
0 -2 -8 68.59 13.5
0 -2 -8 54.89 13.4
-1 -2 -8 7.9 16.2
-1 -2 -8 1.4 9.1
-1 -2 -8 4.3 11.3
-2 -2 -8 97.09 30.3
-2 -2 -8 104.59 26.7
3 -3 -8 99.89 25.1
3 -3 -8 100.69 16.5
2 -3 -8 2.8 9.4
2 -3 -8 -11.9 8.4
2 -3 -8 12.5 10.7
1 -3 -8 289.87 30.6
1 -3 -8 325.37 30.6
1 -3 -8 271.57 37.1
0 -3 -8 333.17 44.6
0 -3 -8 305.87 30.1
0 -3 -8 312.67 27.9
0 -3 -8 297.37 26.7
-1 -3 -8 26.4 12.6
-1 -3 -8 -0.5 15.7
-2 -3 -8 27.9 14.8
-2 -3 -8 -2.3 12.2
3 -4 -8 16.4 15
3 -4 -8 10.3 13.9
3 -4 -8 5.4 12.1
3 -4 -8 16.9 10.2
2 -4 -8 -20 8.7
2 -4 -8 -13.7 7.7
2 -4 -8 6.2 10.3
1 -4 -8 1135.99 86.49
1 -4 -8 1009.4 66.79
1 -4 -8 1122.29 69.99
0 -4 -8 85.09 13.5
0 -4 -8 37.2 18.4
0 -4 -8 73.29 13.3
0 -4 -8 105.89 20.3
-1 -4 -8 44.1 25.4
-1 -4 -8 23.5 11.1
-1 -4 -8 24.8 12.3
-2 -4 -8 133.79 26.2
-2 -4 -8 149.59 45
-2 -4 -8 102.59 23.3
3 -5 -8 16.4 13.3
3 -5 -8 34.1 12.9
3 -5 -8 4.3 13.4
3 -5 -8 16.1 16.3
2 -5 -8 19.8 12.6
2 -5 -8 9.8 11.4
2 -5 -8 37.3 15.2
1 -5 -8 465.35 37.7
1 -5 -8 482.95 40.8
1 -5 -8 443.96 50.79
0 -5 -8 45.6 10
0 -5 -8 38.4 21.7
0 -5 -8 50.79 14.6
0 -5 -8 47.8 10.1
-1 -5 -8 539.35 47.4
-1 -5 -8 453.95 38.1
-1 -5 -8 618.44 66.39
-2 -5 -8 30.9 23.5
-2 -5 -8 -16.3 13.6
3 -6 -8 -1 13.1
3 -6 -8 -13.1 9.6
3 -6 -8 8.7 14.6
2 -6 -8 60.19 18.8
2 -6 -8 51.79 15.8
2 -6 -8 65.29 18.2
1 -6 -8 56.99 14.1
1 -6 -8 55.59 22.8
1 -6 -8 38.3 10.6
0 -6 -8 44.1 9.1
0 -6 -8 38.3 9
0 -6 -8 52.59 18.1
0 -6 -8 52.19 24.5
-1 -6 -8 513.25 47.5
-1 -6 -8 529.65 61.79
-2 -6 -8 30 25.3
3 -7 -8 -11.8 13.4
3 -7 -8 18.8 13.8
3 -7 -8 2.3 11.4
2 -7 -8 190.78 30.9
2 -7 -8 210.28 26.3
2 -7 -8 177.08 29.2
2 -7 -8 196.18 26.7
1 -7 -8 86.79 14.5
1 -7 -8 66.79 18.5
1 -7 -8 74.79 23.4
0 -7 -8 247.18 41.1
0 -7 -8 211.48 26.5
-1 -7 -8 35.2 14
-1 -7 -8 36.4 10
-1 -7 -8 20.5 18.8
3 -8 -8 18.6 16.5
3 -8 -8 34.2 17
3 -8 -8 10.9 14.4
2 -8 -8 36 11.4
2 -8 -8 26.4 14.5
2 -8 -8 10.4 16.6
1 -8 -8 20.1 12.5
1 -8 -8 42.7 8.1
1 -8 -8 76.19 24.2
0 -8 -8 20.2 11.5
0 -8 -8 -13.3 6
-1 -8 -8 115.09 25
-1 -8 -8 110.09 31.8
3 -9 -8 216.58 30.9
3 -9 -8 249.68 39.1
2 -9 -8 1.8 11.3
2 -9 -8 6.6 8.9
1 -9 -8 91.49 21.8
1 -9 -8 56.59 24.9
0 -9 -8 88.89 19
0 -9 -8 67.79 27.8
-1 -9 -8 91.59 22.3
-1 -9 -8 83.89 30.3
3 -10 -8 4.9 12.3
-3 10 8 -3.2 23.4
2 -10 -8 31.8 15.3
1 -10 -8 13.6 10.1
1 -10 -8 4 13.3
0 -10 -8 57.39 16.7
0 -10 -8 76.09 26.1
-1 -10 -8 227.08 33.4
-1 -10 -8 264.47 45
2 -11 -8 55.69 12.1
2 -11 -8 89.09 22.1
1 -11 -8 92.19 21.5
0 -11 -8 15.2 16.9
0 -11 -8 24.6 15.1
-1 -11 -8 95.59 24.4
2 -12 -8 28 8.8
2 -12 -8 20.7 13
1 -12 -8 8.5 12.2
0 -12 -8 44.3 23.8
0 -12 -8 6.8 12.8
-1 -12 -8 129.09 36.4
2 -13 -8 81.59 11.5
2 -13 -8 82.39 22.8
1 -13 -8 71.89 18.7
0 -13 -8 137.49 39
0 -13 -8 81.29 21.5
2 -14 -8 39.7 20.1
1 -14 -8 37.3 18.2
0 -14 -8 45.5 25.3
0 -15 -8 17.9 13.3
0 -15 -8 16.3 19.9
1 12 -9 -2.2 11.5
0 12 -9 -7.2 16.8
2 11 -9 27.4 22.6
1 11 -9 151.58 23.3
1 11 -9 144.39 29.9
0 11 -9 54.99 21.4
2 10 -9 20.5 16.6
1 10 -9 89.79 22.5
1 10 -9 46.7 18.2
-1 -10 9 36.4 24.1
0 10 -9 10.9 11.5
2 9 -9 116.59 32
1 9 -9 10.1 11.3
1 9 -9 13.9 11.6
0 9 -9 26.9 18.3
2 8 -9 15.6 19.3
1 8 -9 -7.3 8.8
1 8 -9 -7.7 12.8
0 8 -9 20.4 16.2
-1 8 -9 19.7 30.7
2 7 -9 14.9 11.3
2 7 -9 25.9 8.1
2 7 -9 21.7 18
1 7 -9 130.59 28.6
1 7 -9 188.08 28.5
0 7 -9 48.1 19.2
-1 7 -9 -8.4 15.4
2 6 -9 4.6 10.3
2 6 -9 -20.3 13.5
1 6 -9 2.9 9.6
1 6 -9 15.6 5.9
1 6 -9 8.9 10.5
1 6 -9 16.6 6
0 6 -9 14.5 7.1
0 6 -9 26.6 19
-1 6 -9 107.99 30.9
-1 6 -9 66.09 16.7
3 5 -9 12.7 17.9
3 5 -9 4.8 18.8
3 5 -9 35.2 14.1
2 5 -9 -3.5 8
2 5 -9 11.3 7.7
2 5 -9 13.7 11.1
2 5 -9 4.4 12.6
1 5 -9 67.59 20
1 5 -9 60.19 18.2
1 5 -9 95.49 13.1
0 5 -9 205.98 22.1
0 5 -9 225.88 42.9
-1 5 -9 9.9 21.4
-1 5 -9 8.7 11.4
1 -5 9 -25.5 16.2
3 4 -9 13.6 13.4
3 4 -9 -25.3 20.1
3 4 -9 -8 15.5
2 4 -9 3.8 11.7
2 4 -9 -2.3 13.2
2 4 -9 14.8 7.4
2 4 -9 -2.7 7.5
1 4 -9 2.7 8.3
1 4 -9 -3 10.2
1 4 -9 -5.5 9.8
0 4 -9 503.25 54.99
0 4 -9 523.95 42.6
-1 4 -9 76.49 27.8
-1 4 -9 69.69 17
1 -4 9 55.49 20
3 3 -9 185.78 29.8
3 3 -9 232.88 42.7
2 3 -9 66.59 16.6
2 3 -9 71.59 15.5
2 3 -9 67.99 23.5
1 3 -9 12.4 11.3
1 3 -9 2 10.8
1 3 -9 -7.6 6
0 3 -9 89.29 16.7
0 3 -9 73.69 25.4
-1 3 -9 135.69 26
-1 3 -9 114.59 31.8
3 2 -9 -16.5 16.9
3 2 -9 -3.7 11.8
2 2 -9 82.09 17.9
2 2 -9 89.29 19
2 2 -9 68.79 23
1 2 -9 7.9 7.7
1 2 -9 -1.8 9.7
1 2 -9 6.6 13.4
0 2 -9 5.3 15.7
0 2 -9 15.4 14.6
0 2 -9 22.3 10.4
-1 2 -9 26 14.2
-1 2 -9 12.2 16.6
1 -2 9 -17.3 14.3
3 1 -9 -16.3 9
3 1 -9 8.6 16.5
2 1 -9 147.29 22.1
2 1 -9 153.08 22.7
2 1 -9 106.79 28
1 1 -9 119.39 25.4
1 1 -9 103.19 16.7
1 1 -9 133.09 28.9
0 1 -9 11.6 8.9
0 1 -9 21.3 13.9
-1 1 -9 22 20.7
-1 1 -9 10 13.8
1 -1 9 32.5 18.6
3 0 -9 56.49 20.7
3 0 -9 56.39 9.3
3 0 -9 30.1 14.8
3 0 -9 30.9 8.6
2 0 -9 3.7 10.8
2 0 -9 29.9 15.7
2 0 -9 -4.7 9.5
1 0 -9 23.1 13.1
1 0 -9 26 15.9
1 0 -9 25.4 10.9
0 0 -9 11 8.9
0 0 -9 -11.1 9.5
0 0 -9 -3 9.7
0 0 -9 10 7.5
-1 0 -9 -8.6 9.7
-1 0 -9 19.5 16.6
-1 0 -9 2.5 19
3 -1 -9 9.2 11.7
3 -1 -9 19 12.3
3 -1 -9 0.1 8.6
3 -1 -9 -3.7 15.7
2 -1 -9 115.29 23.4
2 -1 -9 109.59 28.2
2 -1 -9 121.19 25.1
1 -1 -9 158.18 20.4
1 -1 -9 98.29 27.2
1 -1 -9 114.19 23.4
0 -1 -9 -1.6 8.5
0 -1 -9 13.2 18.3
0 -1 -9 4.4 9
0 -1 -9 -11.2 9.1
-1 -1 -9 23.8 16.7
-1 -1 -9 38.3 15.5
-1 -1 -9 31.3 20.7
3 -2 -9 32.5 13.9
3 -2 -9 10.7 17.1
3 -2 -9 3.9 10.2
2 -2 -9 90.99 21.2
2 -2 -9 99.99 25.4
2 -2 -9 116.39 24.6
1 -2 -9 7.4 10.1
0 -2 -9 20.4 9
0 -2 -9 6.8 10.3
0 -2 -9 9.6 9.8
0 -2 -9 5.1 17.8
-1 -2 -9 27.7 20.6
-1 -2 -9 -24.5 14
-1 -2 -9 -3.3 13.6
3 -3 -9 150.18 22
3 -3 -9 169.08 30.5
3 -3 -9 178.68 33.7
3 -3 -9 188.88 26.3
2 -3 -9 65.19 17.7
2 -3 -9 100.39 22.8
2 -3 -9 62.69 19.3
1 -3 -9 -0.7 6.3
1 -3 -9 2.5 13.8
0 -3 -9 80.99 17.6
0 -3 -9 121.99 19.8
0 -3 -9 78.49 17
0 -3 -9 53.19 24.1
-1 -3 -9 89.79 23.3
-1 -3 -9 120.49 35
-1 -3 -9 142.69 24.3
3 -4 -9 36.1 18.9
3 -4 -9 -5.9 10.6
3 -4 -9 5.9 11.6
3 -4 -9 13.3 12.5
2 -4 -9 -3.9 12.2
2 -4 -9 -15.5 9.7
1 -4 -9 10.5 8.2
1 -4 -9 14.6 9.7
1 -4 -9 -14.9 9.1
0 -4 -9 494.55 38.1
0 -4 -9 521.15 60.19
0 -4 -9 477.95 43.7
0 -4 -9 506.45 37.4
-1 -4 -9 26 16.4
-1 -4 -9 55.49 20.1
-1 -4 -9 82.09 31.7
3 -5 -9 24 15.1
3 -5 -9 16.9 11.7
3 -5 -9 57.09 19.1
3 -5 -9 -5.2 16.4
2 -5 -9 4.2 15.1
2 -5 -9 -1.1 9.1
2 -5 -9 -6.1 10.3
1 -5 -9 89.79 27.2
1 -5 -9 43.9 14.9
1 -5 -9 80.09 17.7
0 -5 -9 247.58 40
0 -5 -9 296.07 31
0 -5 -9 242.38 28.9
0 -5 -9 260.77 24.8
-1 -5 -9 -13.3 23
-1 -5 -9 6.5 12.8
-1 -5 -9 -9.3 9.5
3 -6 -9 -6.8 16.1
3 -6 -9 17.8 15.4
2 -6 -9 14.7 12.1
2 -6 -9 12.8 11.9
2 -6 -9 8.6 13.8
1 -6 -9 0.1 7.6
1 -6 -9 2.8 15
1 -6 -9 5.9 8.9
0 -6 -9 -13.4 15.8
0 -6 -9 3.9 7.1
0 -6 -9 -3.7 7.4
0 -6 -9 -8.7 7.9
-1 -6 -9 75.39 20.5
2 -7 -9 29 15.7
2 -7 -9 -2.5 14.2
2 -7 -9 36.1 19.8
1 -7 -9 162.08 25.2
1 -7 -9 183.48 18.9
1 -7 -9 149.39 36
0 -7 -9 89.29 26.1
0 -7 -9 50.59 16.5
-1 -7 -9 38.6 17.8
-1 -7 -9 2.9 16.8
-1 -7 -9 31.5 8.8
-1 -7 -9 43.1 11.6
2 -8 -9 12.6 10.4
2 -8 -9 -9.2 10.5
2 -8 -9 23.2 15.9
1 -8 -9 6.3 4.9
1 -8 -9 1.3 4.7
1 -8 -9 15.9 15.9
1 -8 -9 20.3 12.5
0 -8 -9 9.5 16.4
0 -8 -9 6.5 10.8
-1 -8 -9 -2.4 19.7
2 -9 -9 94.49 17.4
2 -9 -9 76.29 23.4
2 -9 -9 39.5 21.7
1 -9 -9 5.7 12.5
1 -9 -9 19.7 18.4
0 -9 -9 16.3 11.7
0 -9 -9 -0.4 21.4
2 -10 -9 9.2 16.7
2 -10 -9 7.3 17.4
1 -10 -9 73.19 20.3
1 -10 -9 64.59 23.4
0 -10 -9 -7.1 10.9
0 -10 -9 14.2 16.9
2 -11 -9 14 8.3
2 -11 -9 22.2 21.7
1 -11 -9 204.08 44.6
0 -11 -9 57.09 17.7
0 -11 -9 115.79 54.09
1 -12 -9 10.2 13.7
1 -12 -9 -4.9 21.8
0 -12 -9 19.6 23.4
1 7 -10 3.7 13.2
1 7 -10 13.7 13.1
1 6 -10 3.5 12.8
1 6 -10 -12.6 12.1
0 6 -10 19.8 14.3
2 5 -10 1.5 22
2 5 -10 24.7 13.6
2 5 -10 24.8 10.8
1 5 -10 57.89 19.7
1 5 -10 63.89 12.1
1 5 -10 33.8 16.4
0 5 -10 89.99 25.1
0 5 -10 84.89 17.2
2 4 -10 19.8 15.1
2 4 -10 26 13.8
2 4 -10 -15.3 14.4
1 4 -10 14.3 13.5
1 4 -10 18.6 16.6
1 4 -10 6.2 12.7
0 4 -10 7.3 11.8
0 4 -10 19.5 16.9
2 3 -10 376.06 50.19
2 3 -10 482.65 42.5
2 3 -10 455.45 37.8
2 3 -10 429.16 42.8
1 3 -10 31 10.7
1 3 -10 21.6 17.7
1 3 -10 43.2 18.5
0 3 -10 6.6 11.8
0 3 -10 23.1 12.5
0 3 -10 -5.4 17.1
2 2 -10 3 12.6
2 2 -10 42.1 19.2
2 2 -10 22 14.9
1 2 -10 -2.9 14.6
1 2 -10 34.7 10.9
1 2 -10 25.8 16.9
0 2 -10 10.9 13.5
0 2 -10 9.1 17.7
0 2 -10 34.3 13.4
2 1 -10 52.09 17.3
2 1 -10 21 19.5
2 1 -10 40.9 14.2
1 1 -10 68.99 23.3
1 1 -10 43.2 13.1
1 1 -10 43.4 20
0 1 -10 -8.7 22.5
0 1 -10 22.7 13.2
0 1 -10 25 22.2
2 0 -10 -8.1 13.7
2 0 -10 -2.4 9.5
2 0 -10 10.4 13.9
1 0 -10 -13.7 8.7
1 0 -10 10.7 14.2
1 0 -10 -23.2 14
0 0 -10 74.89 31.8
0 0 -10 63.09 18.8
0 0 -10 104.49 20.6
0 0 -10 79.09 30.4
2 -1 -10 8.8 15.1
2 -1 -10 34.3 18.6
2 -1 -10 43.4 16.2
1 -1 -10 75.89 25.8
1 -1 -10 49.7 15.4
1 -1 -10 52.99 18.9
0 -1 -10 15.5 16.1
0 -1 -10 -10.3 14
0 -1 -10 9.4 11.1
0 -1 -10 18.2 16.5
2 -2 -10 13.9 14.6
2 -2 -10 51.49 33
2 -2 -10 7.7 12
1 -2 -10 45.8 20.8
1 -2 -10 -2 13.1
1 -2 -10 27.2 14.9
0 -2 -10 48 28
0 -2 -10 22.6 11.6
0 -2 -10 25.2 13.5
2 -3 -10 387.36 42.7
2 -3 -10 430.06 48
2 -3 -10 359.16 41.8
1 -3 -10 2.2 16
1 -3 -10 -5.1 11.8
1 -3 -10 13.6 10.5
0 -3 -10 29.2 19.9
0 -3 -10 -1 10.9
0 -3 -10 -4.3 13.2
0 -3 -10 -9.3 9.1
2 -4 -10 -6.1 14.5
2 -4 -10 10.9 17.9
2 -4 -10 14.9 13
1 -4 -10 8.6 12.2
1 -4 -10 18.3 10.8
1 -4 -10 1.5 15.2
0 -4 -10 2.9 10.5
0 -4 -10 -12.1 10.8
2 -5 -10 4.6 13.1
2 -5 -10 18.7 16.7
2 -5 -10 47.5 18.9
1 -5 -10 24.2 15
1 -5 -10 58.89 27.3
1 -5 -10 52.29 12.7
1 -5 -10 43 13.3
0 -5 -10 59.09 19
0 -5 -10 96.09 34.4
1 -6 -10 20.3 16.9
1 -6 -10 13.4 10
1 -6 -10 2.4 12.5
0 -6 -10 6.3 13.1
1 -7 -10 -0.6 11.4
1 -7 -10 5.4 20.7
1 -7 -10 19 8.8
1 -7 -10 -4 11.8
1 -8 -10 26.6 22.9
loop_
_geom_angle_atom_site_label_1
_geom_angle_atom_site_label_2
_geom_angle_atom_site_label_3
_geom_angle
_geom_angle_site_symmetry_1
_geom_angle_site_symmetry_3
C2 C1 H1 126.3 . .
C4 C1 H1 126.3 . .
C4 C1 C2 107.34(17) . .
C1 C2 H2 127.1 . .
C3 C2 C1 105.85(18) . .
C3 C2 H2 127.1 . .
C2 C3 H3 124.4 . .
C2 C3 O1 111.24(17) . .
O1 C3 H3 124.4 . .
C1 C4 C5 132.56(18) . .
C1 C4 O1 109.49(16) . .
O1 C4 C5 117.93(16) . .
C4 C5 H5 117.2 . .
C6 C5 C4 125.64(18) . .
C6 C5 H5 117.2 . .
C5 C6 H6 118.8 . .
C5 C6 C7 122.44(18) . .
C7 C6 H6 118.8 . .
N1 C7 C6 178.5(2) . .
C3 O1 C4 106.07(15) . .
loop_
_geom_bond_atom_site_label_1
_geom_bond_atom_site_label_2
_geom_bond_distance
_geom_bond_site_symmetry_2
C1 H1 0.9500 .
C1 C2 1.421(3) .
C1 C4 1.353(3) .
C2 H2 0.9500 .
C2 C3 1.347(3) .
C3 H3 0.9500 .
C3 O1 1.365(2) .
C4 C5 1.428(3) .
C4 O1 1.379(2) .
C5 H5 0.9500 .
C5 C6 1.335(3) .
C6 H6 0.9500 .
C6 C7 1.428(3) .
C7 N1 1.149(3) .
loop_
_geom_torsion_atom_site_label_1
_geom_torsion_atom_site_label_2
_geom_torsion_atom_site_label_3
_geom_torsion_atom_site_label_4
_geom_torsion
_geom_torsion_site_symmetry_1
_geom_torsion_site_symmetry_2
_geom_torsion_site_symmetry_3
_geom_torsion_site_symmetry_4
C1 C2 C3 O1 -0.1(2) . . . .
C1 C4 C5 C6 -177.3(2) . . . .
C1 C4 O1 C3 -0.1(2) . . . .
C2 C1 C4 C5 -178.4(2) . . . .
C2 C1 C4 O1 0.0(2) . . . .
C2 C3 O1 C4 0.1(2) . . . .
C4 C1 C2 C3 0.0(2) . . . .
C4 C5 C6 C7 -178.85(18) . . . .
C5 C4 O1 C3 178.66(17) . . . .
O1 C4 C5 C6 4.3(3) . . . .
