#------------------------------------------------------------------------------
#$Date: 2022-06-07 11:21:30 +0300 (Tue, 07 Jun 2022) $
#$Revision: 275869 $
#$URL: file:///home/coder/svn-repositories/cod/cif/8/10/53/8105353.cif $
#------------------------------------------------------------------------------
#
# This file is available in the Crystallography Open Database (COD),
# http://www.crystallography.net/
#
# All data on this site have been placed in the public domain by the
# contributors.
#
data_8105353
loop_
_publ_author_name
'Zeng, Yan'
'Du, Chao-Jun'
_publ_section_title
;
 The crystal structure of 3,5-difluoroisonicotinic acid, C6H3F2NO2
;
_journal_issue                   4
_journal_name_full
'Zeitschrift f\"ur Kristallographie - New Crystal Structures'
_journal_page_first              989
_journal_page_last               990
_journal_paper_doi               10.1515/ncrs-2020-0144
_journal_volume                  235
_journal_year                    2020
_chemical_formula_moiety         'C6 H3 F2 N O2'
_chemical_formula_sum            'C6 H3 F2 N O2'
_chemical_formula_weight         159.09
_space_group_crystal_system      monoclinic
_space_group_IT_number           14
_space_group_name_Hall           '-P 2yn'
_space_group_name_H-M_alt        'P 1 21/n 1'
_atom_sites_solution_hydrogens   mixed
_atom_sites_solution_primary     dual
_cell_angle_alpha                90
_cell_angle_beta                 94.562(4)
_cell_angle_gamma                90
_cell_formula_units_Z            4
_cell_length_a                   6.8050(10)
_cell_length_b                   6.8443(9)
_cell_length_c                   12.7196(14)
_cell_measurement_reflns_used    3153
_cell_measurement_temperature    150(2)
_cell_measurement_theta_max      26.36
_cell_measurement_theta_min      3.52
_cell_volume                     590.54(13)
_computing_cell_refinement       'SAINT v8.37A (Bruker, 2015) [1]'
_computing_data_collection       'Bruker APEX-II'
_computing_data_reduction        'SAINT v8.37A (Bruker, 2015) [1]'
_computing_molecular_graphics    'Olex2 1.3 (Dolomanov et al., 2009) [3]'
_computing_publication_material  'Olex2 1.3 (Dolomanov et al., 2009) [3]'
_computing_structure_refinement  'SHELXL 2018/3 (Sheldrick, 2015) [4]'
_computing_structure_solution    'SHELXT 2018/2 (Sheldrick, 2018) [2]'
_diffrn_ambient_temperature      149.99
_diffrn_measured_fraction_theta_full 0.997
_diffrn_measured_fraction_theta_max 0.997
_diffrn_measurement_device       'Bruker APEX-II diffractometer'
_diffrn_measurement_device_type  'Bruker APEX-II CCD'
_diffrn_measurement_method       '\f and \w scans'
_diffrn_radiation_type           MoK\a
_diffrn_radiation_wavelength     0.71073
_diffrn_reflns_av_R_equivalents  0.0620
_diffrn_reflns_av_unetI/netI     0.0284
_diffrn_reflns_Laue_measured_fraction_full 0.997
_diffrn_reflns_Laue_measured_fraction_max 0.997
_diffrn_reflns_limit_h_max       8
_diffrn_reflns_limit_h_min       -8
_diffrn_reflns_limit_k_max       8
_diffrn_reflns_limit_k_min       -8
_diffrn_reflns_limit_l_max       14
_diffrn_reflns_limit_l_min       -15
_diffrn_reflns_number            10438
_diffrn_reflns_point_group_measured_fraction_full 0.997
_diffrn_reflns_point_group_measured_fraction_max 0.997
_diffrn_reflns_theta_full        25.242
_diffrn_reflns_theta_max         25.995
_diffrn_reflns_theta_min         3.213
_diffrn_source_current           30.0
_diffrn_source_power             1.5
_diffrn_source_voltage           50.0
_diffrn_standards_number         0
_exptl_absorpt_coefficient_mu    0.175
_exptl_absorpt_correction_T_max  0.7454
_exptl_absorpt_correction_T_min  0.6906
_exptl_absorpt_correction_type   multi-scan
_exptl_absorpt_process_details
;
SADABS-2016/2 (Bruker,2016/2) was used for absorption correction.
wR2(int) was 0.0722 before and 0.0614 after correction.
The Ratio of minimum to maximum transmission is 0.9265.
The \l/2 correction factor is Not present.
;
_exptl_crystal_colour            colorless
_exptl_crystal_density_diffrn    1.789
_exptl_crystal_density_method    'not measured'
_exptl_crystal_description       blcok
_exptl_crystal_F_000             320
_exptl_crystal_size_max          0.25
_exptl_crystal_size_mid          0.2
_exptl_crystal_size_min          0.15
_refine_diff_density_max         0.214
_refine_diff_density_min         -0.240
_refine_diff_density_rms         0.063
_refine_ls_extinction_coef       .
_refine_ls_extinction_method     none
_refine_ls_goodness_of_fit_ref   1.179
_refine_ls_hydrogen_treatment    mixed
_refine_ls_matrix_type           full
_refine_ls_number_parameters     104
_refine_ls_number_reflns         1158
_refine_ls_number_restraints     0
_refine_ls_restrained_S_all      1.179
_refine_ls_R_factor_all          0.0603
_refine_ls_R_factor_gt           0.0395
_refine_ls_shift/su_max          0.000
_refine_ls_shift/su_mean         0.000
_refine_ls_structure_factor_coef Fsqd
_refine_ls_weighting_details
'w=1/[\s^2^(Fo^2^)+(0.0567P)^2^] where P=(Fo^2^+2Fc^2^)/3'
_refine_ls_weighting_scheme      calc
_refine_ls_wR_factor_gt          0.0972
_refine_ls_wR_factor_ref         0.1038
_reflns_Friedel_coverage         0.000
_reflns_Friedel_fraction_full    .
_reflns_Friedel_fraction_max     .
_reflns_number_gt                881
_reflns_number_total             1158
_reflns_threshold_expression     'I > 2\s(I)'
_cod_data_source_file            suppl_ncrs-2020-0144_suppl.cif
_cod_data_source_block           1
_cod_depositor_comments
;
The following automatic conversions were performed:

data name '__reflns_threshold_expression' was replaced with
'_reflns_threshold_expression'.

Automatic conversion script
Id: cif_correct_tags 9268 2022-04-12 08:56:07Z antanas 
;
_cod_original_sg_symbol_H-M      'P 21/n'
_cod_database_code               8105353
_shelx_space_group_comment
;
The symmetry employed for this shelxl refinement is uniquely defined
by the following loop, which should always be used as a source of
symmetry information in preference to the above space-group names.
They are only intended as comments.
;
_shelx_estimated_absorpt_t_max   0.974
_shelx_estimated_absorpt_t_min   0.958
_olex2_refinement_description
;
1. Fixed Uiso
 At 1.2 times of:
  All C(H) groups
2.a Aromatic/amide H refined with riding coordinates:
 C4(H4), C5(H5)
;
_shelx_res_file
;
TITL 1_a.res in P2(1)/n
    1.res
    created by SHELXL-2018/3 at 19:49:27 on 15-Mar-2020
CELL 0.71073 6.805 6.8443 12.7196 90 94.562 90
ZERR 4 0.001 0.0009 0.0014 0 0.004 0
LATT 1
SYMM 0.5-X,0.5+Y,0.5-Z
SFAC C H F O N
UNIT 24 12 8 8 4

L.S. 10
PLAN  1
SIZE 0.25 0.2 0.15
TEMP -123.16
CONF
BOND $H
MORE -1
fmap 2
acta
OMIT 0 52
REM <olex2.extras>
REM <HklSrc "%.\\1.hkl">
REM </olex2.extras>

WGHT    0.056700
FVAR       0.88724
C1    1    0.705157    0.251685    0.193760    11.00000    0.01875    0.02030 =
         0.01568    0.00321    0.00265    0.00102
C2    1    0.574822    0.275381    0.283158    11.00000    0.01680    0.01519 =
         0.01800   -0.00197    0.00451   -0.00213
C3    1    0.385410    0.350663    0.270582    11.00000    0.01927    0.01934 =
         0.01375    0.00216   -0.00159   -0.00123
C4    1    0.268401    0.369443    0.354071    11.00000    0.01561    0.02016 =
         0.02108   -0.00095    0.00364    0.00233
AFIX  43
H4    2    0.138722    0.420521    0.342231    11.00000   -1.20000
AFIX   0
C5    1    0.519197    0.245009    0.467771    11.00000    0.02279    0.02158 =
         0.01407   -0.00057    0.00024   -0.00041
AFIX  43
H5    2    0.567202    0.206882    0.536910    11.00000   -1.20000
AFIX   0
C6    1    0.639710    0.225877    0.385664    11.00000    0.01426    0.02075 =
         0.01896   -0.00038   -0.00042    0.00238
F1    3    0.822170    0.152569    0.407135    11.00000    0.01923    0.04171 =
         0.02248    0.00291    0.00038    0.00835
F2    3    0.311868    0.410322    0.175025    11.00000    0.02308    0.03778 =
         0.01621    0.00584    0.00075    0.00433
N1    5    0.336663    0.316137    0.451414    11.00000    0.01837    0.02227 =
         0.01626   -0.00048    0.00439   -0.00100
O1    4    0.612499    0.173416    0.109568    11.00000    0.02180    0.03320 =
         0.01538   -0.00368    0.00671   -0.00729
H1    2    0.697213    0.168079    0.049507    11.00000    0.08194
O2    4    0.876395    0.302415    0.202091    11.00000    0.01776    0.04187 =
         0.02278   -0.00187    0.00466   -0.00492
HKLF 4




REM  1_a.res in P2(1)/n
REM wR2 = 0.1038, GooF = S = 1.179, Restrained GooF = 1.179 for all data
REM R1 = 0.0395 for 881 Fo > 4sig(Fo) and 0.0603 for all 1158 data
REM 104 parameters refined using 0 restraints

END

WGHT      0.0604      0.1588

REM Highest difference peak  0.214,  deepest hole -0.240,  1-sigma level  0.063
Q1    1   0.3203  0.3263  0.3057  11.00000  0.05    0.21
;
_shelx_hkl_file
;
   1   0   0    1.20    1.30
   1   0   0    0.80    1.30
   1   0   0    1.30    1.40
  -1   0   0   -1.50    1.20
  -1   0   0   -0.50    1.20
  -2   0   0 1811.22   49.50
   2   0   0 1731.83   49.60
  -2   0   0 1870.31   49.60
  -2   0   0 1816.32   49.70
   2   0   0 1806.62   49.50
   2   0   0 1837.22   49.70
   3   0   0   -2.30    2.80
  -3   0   0   -1.40    2.90
   3   0   0    2.30    3.10
  -3   0   0   -1.50    2.90
  -3   0   0    1.40    3.00
   3   0   0   -2.80    2.80
   4   0   0 1392.46   43.80
  -4   0   0 1383.76   43.00
   4   0   0 1376.16   43.50
   4   0   0 1446.46   44.10
   4   0   0 1426.56   43.40
  -4   0   0 1457.95   43.70
  -4   0   0 1412.96   43.10
   5   0   0    1.30    5.90
  -5   0   0    0.00    5.50
  -5   0   0    2.50    4.70
   5   0   0   -0.90    4.40
  -6   0   0  152.98   14.00
   6   0   0  167.18   14.90
   6   0   0  116.49   15.60
  -6   0   0  175.08   15.00
   6   0   0  144.09   14.30
  -6   0   0  163.98   15.10
   7   0   0   -0.60   10.90
  -7   0   0   -8.60   10.30
   7   0   0   -0.20    9.90
   7   0   0    0.90    7.80
  -7   0   0    1.30    9.10
  -8   0   0   -2.70   13.60
  -8   0   0   -6.50   13.60
   8   0   0  -11.60   15.80
  -8   0   0   21.20   14.00
   8   0   0   -1.10   13.40
   8   0   0  -10.70   14.50
   8   0   0   10.70   14.00
   0  -1   0    5.50    1.40
   0  -1   0    7.60    1.40
   0  -1   0    4.20    1.40
   0   1   0    7.30    1.40
   0   1   0    5.50    1.60
   0   1   0    5.90    1.60
  -1  -1   0  162.38    6.30
  -1  -1   0  167.48    7.10
   1  -1   0  162.78    6.70
  -1  -1   0  160.18    7.00
  -1  -1   0  151.88    6.60
   1  -1   0  160.28    7.00
  -1   1   0  151.18    6.20
   1   1   0  148.49    7.00
   1   1   0  158.38    6.70
   1   1   0  163.58    6.30
   1   1   0  167.98    6.70
  -1   1   0  169.48    7.00
  -1   1   0  166.78    6.90
   2  -1   0  226.18    9.90
  -2  -1   0  208.98    9.80
   2  -1   0  240.98    9.70
  -2  -1   0  212.68    9.00
  -2  -1   0  233.38    9.90
  -2  -1   0  228.78    9.50
   2  -1   0  217.08    9.70
   2   1   0  235.28    9.60
  -2   1   0  222.78    9.30
  -2   1   0  220.08    9.50
   2   1   0  213.88    9.80
  -2   1   0  238.98    9.90
   2   1   0  231.68   10.00
   2   1   0  217.48    9.40
   3  -1   0  716.83   24.50
   3  -1   0  767.02   24.60
  -3  -1   0  735.93   24.20
   3  -1   0  716.93   24.70
  -3  -1   0  748.43   24.80
  -3  -1   0  760.12   24.70
   3   1   0  729.23   24.90
   3   1   0  748.43   24.30
  -3   1   0  706.43   24.20
  -3   1   0  780.52   24.90
  -3   1   0  740.43   24.40
   3   1   0  741.93   24.70
   3   1   0  718.53   24.60
  -4  -1   0 1165.78   37.50
  -4  -1   0 1187.78   37.00
   4  -1   0 1169.98   37.60
  -4  -1   0 1182.68   37.40
   4  -1   0 1202.58   37.30
   4  -1   0 1169.78   38.00
  -4   1   0 1205.18   37.50
   4   1   0 1119.29   36.80
  -4   1   0 1140.39   37.20
   4   1   0 1175.18   38.20
   4   1   0 1193.18   38.10
   4   1   0 1120.29   37.20
   5  -1   0  416.56   21.30
   5  -1   0  458.05   20.00
   5  -1   0  509.75   20.20
  -5  -1   0  431.66   20.60
  -5  -1   0  408.16   20.40
   5   1   0  423.86   21.50
   5   1   0  480.65   20.00
  -5   1   0  398.36   19.60
   5   1   0  388.26   20.70
  -5   1   0  440.16   20.80
   5   1   0  498.65   19.80
  -6  -1   0    6.70    8.00
   6  -1   0   10.60    9.40
  -6  -1   0   -2.10    6.90
   6  -1   0    2.10    7.50
   6   1   0    5.40    8.90
   6   1   0    6.80    9.30
  -6   1   0    1.90    7.00
   6   1   0   12.60    8.90
  -6   1   0   19.60    8.00
   7  -1   0   34.70   10.80
   7  -1   0   37.90   11.70
  -7  -1   0   24.40   10.40
  -7  -1   0   19.40   11.30
   7  -1   0   18.80   11.80
   7   1   0   21.30   11.70
   7   1   0   23.80   12.30
   7   1   0   33.10   11.60
  -7   1   0   51.19   11.10
   7   1   0   13.70   10.50
  -8  -1   0   19.90   13.60
   8  -1   0   14.90   15.80
   8  -1   0    9.60   11.90
   8  -1   0   -0.30   12.30
  -8  -1   0   18.60   14.40
  -8  -1   0   20.00   13.90
   8  -1   0   26.60   11.40
   8   1   0    4.40   16.30
   8   1   0   13.50   12.90
  -8   1   0   -5.30   13.60
  -8   1   0   21.30   13.90
  -8   1   0   19.40   13.40
   8   1   0   12.50   14.90
   8   1   0    6.80   15.30
   0  -2   0 9841.12  252.57
   0  -2   0 9845.32  253.17
   0  -2   0 9999.00  253.27
   0   2   0 9776.22  252.47
   0   2   0 9987.80  253.27
   0   2   0 9781.32  253.07
  -1  -2   0 6123.19  158.38
  -1  -2   0 5952.30  157.58
   1  -2   0 6134.69  158.38
  -1  -2   0 6335.97  158.58
   1  -2   0 5998.80  158.18
   1   2   0 6138.69  158.28
   1   2   0 6005.70  157.68
  -1   2   0 6014.60  158.18
   1   2   0 6184.68  158.48
   1   2   0 6185.98  156.88
  -1   2   0 5968.70  157.98
  -2  -2   0   45.90    5.60
   2  -2   0   41.50    4.90
  -2  -2   0   38.70    4.80
   2  -2   0   32.60    4.60
  -2  -2   0   45.10    4.80
  -2  -2   0   25.20    4.40
   2   2   0   36.50    4.70
  -2   2   0   39.20    5.30
  -2   2   0   43.60    5.20
   2   2   0   41.90    4.90
   2   2   0   43.30    5.90
   2   2   0   44.80    5.40
  -2   2   0   45.60    5.80
   3  -2   0   56.19    7.60
  -3  -2   0   56.99    6.30
   3  -2   0   52.29    6.60
  -3  -2   0   58.29    6.00
  -3  -2   0   60.79    7.40
  -3  -2   0   38.70    5.30
   3  -2   0   56.09    7.30
   3   2   0   57.89    7.50
   3   2   0   53.99    6.40
  -3   2   0   52.19    5.70
  -3   2   0   54.39    6.90
   3   2   0   54.59    7.40
   3   2   0   54.79    6.40
  -3   2   0   63.69    7.40
  -4  -2   0  424.16   18.50
   4  -2   0  425.56   18.60
  -4  -2   0  448.96   18.80
   4  -2   0  432.26   19.50
  -4  -2   0  446.66   19.50
   4  -2   0  425.56   19.90
   4   2   0  431.86   18.70
  -4   2   0  427.86   18.60
   4   2   0  466.05   18.40
   4   2   0  467.35   20.10
  -4   2   0  441.36   18.90
   4   2   0  437.26   19.60
  -4   2   0  432.46   19.10
  -5  -2   0  182.28   14.30
   5  -2   0  197.78   12.90
  -5  -2   0  184.58   14.40
   5  -2   0  189.58   14.80
   5  -2   0  197.28   15.90
  -5  -2   0  187.18   14.70
   5   2   0  223.68   13.50
  -5   2   0  210.58   14.50
   5   2   0  205.38   15.50
  -5   2   0  193.58   14.50
   5   2   0  206.68   15.80
   6  -2   0    8.30    8.20
  -6  -2   0  -12.40    7.80
  -6  -2   0   -2.90    7.50
   6  -2   0    9.10    8.50
  -6  -2   0    9.20   15.00
   6  -2   0    8.20    7.20
  -6   2   0    7.80    9.80
   6   2   0    5.60    8.30
  -6   2   0   -3.10    7.50
   6   2   0    0.50    7.80
   7  -2   0   23.00   12.10
  -7  -2   0   44.70   10.40
  -7  -2   0   22.30   10.80
  -7  -2   0   29.70   11.70
   7  -2   0   13.70    9.10
   7  -2   0   37.20   10.40
  -7   2   0   25.70   11.40
   7   2   0   18.90   12.40
   7   2   0   25.50   11.90
  -7   2   0    7.80   10.50
   7   2   0   23.50   13.10
   7   2   0   15.90   11.30
  -8  -2   0   -1.20   15.20
   8  -2   0    1.40   15.00
  -8  -2   0    4.60   15.80
   8  -2   0   30.50   18.30
   8  -2   0   -1.80   14.10
   8  -2   0   14.80   16.80
  -8  -2   0   26.70   15.30
   8   2   0   23.20   14.70
   8   2   0   10.50   16.20
  -8   2   0   34.20   13.40
  -8   2   0   21.00   14.60
  -8   2   0   13.80   14.30
   8   2   0   11.60   17.50
   8   2   0    0.10   15.00
   0  -3   0   -3.10    3.00
   0  -3   0    0.60    3.10
   0  -3   0    0.70    2.80
   0   3   0   -2.70    3.00
   0   3   0   -0.80    3.40
  -1  -3   0    0.70    3.50
   1  -3   0    8.70    3.90
  -1  -3   0    4.90    3.10
  -1  -3   0    4.40    3.50
   1  -3   0    4.10    3.50
   1   3   0    3.00    3.60
   1   3   0    2.00    3.40
   1   3   0    2.80    3.20
  -1   3   0   -1.10    2.80
  -1   3   0   -0.60    3.30
  -2  -3   0  990.50   31.30
   2  -3   0 1012.00   32.10
  -2  -3   0 1026.40   32.20
   2  -3   0  976.30   32.20
  -2  -3   0  972.60   32.20
   2   3   0  998.40   32.50
   2   3   0  962.80   31.50
   2   3   0  977.40   30.10
   2   3   0 1001.00   32.30
  -2   3   0 1005.70   30.70
  -2   3   0  986.40   31.90
  -2   3   0 1006.50   32.00
  -3  -3   0  200.78   11.30
  -3  -3   0  187.98   12.50
   3  -3   0  216.78   12.60
   3  -3   0  196.38   12.70
  -3  -3   0  199.78   11.90
  -3  -3   0  223.78   12.90
   3   3   0  171.38   12.40
   3   3   0  197.68   12.40
   3   3   0  202.08   12.70
  -3   3   0  217.18   11.80
   3   3   0  216.68   11.30
  -3   3   0  197.28   12.10
  -3   3   0  197.18   12.20
  -4  -3   0   99.19   11.10
  -4  -3   0  137.59   12.30
  -4  -3   0  134.19   11.20
   4  -3   0  140.89   12.70
  -4   3   0  139.09   11.60
  -4   3   0  148.59   12.10
   4   3   0  138.49   11.40
   4   3   0  140.19   10.70
   4   3   0  145.79   12.50
  -5  -3   0  305.27   19.30
   5  -3   0  320.67   19.20
  -5  -3   0  324.07   19.50
   5  -3   0  294.67   20.30
  -5  -3   0  312.07   17.90
   5   3   0  304.67   17.60
   5   3   0  253.17   18.70
  -5   3   0  319.17   18.80
  -5   3   0  348.27   19.20
   5   3   0  303.67   19.50
  -5   3   0  306.67   21.40
  -6  -3   0  184.48   18.10
   6  -3   0  198.58   20.00
  -6  -3   0  230.38   19.40
   6  -3   0  202.38   19.60
   6   3   0  205.68   20.30
   6   3   0  212.08   17.50
  -6   3   0  199.88   18.20
  -6   3   0  237.58   21.60
  -7  -3   0   41.00   12.90
  -7  -3   0   28.90   11.50
   7  -3   0   33.10   12.90
  -7  -3   0   24.60   13.00
   7  -3   0   55.79   14.80
  -7   3   0   74.39   14.70
   7   3   0   57.09   13.20
   7   3   0   16.00   11.70
  -7   3   0   28.90   10.20
   7   3   0   35.00   14.10
   7   3   0   20.90   13.40
   0  -4   0   42.90    6.20
   0  -4   0   43.40    5.70
   0  -4   0   66.79    7.00
   0   4   0   62.29    8.30
   0   4   0   40.20    6.30
   1  -4   0  114.29    9.50
  -1  -4   0  121.09   10.50
  -1  -4   0  144.19   10.70
  -1  -4   0  140.89   10.30
   1  -4   0  139.19   10.80
   1  -4   0  144.69   11.00
  -1   4   0  131.39   10.50
   1   4   0  127.79   10.70
  -1   4   0  132.89   10.50
   1   4   0  140.69   10.00
   1   4   0  121.99   10.40
  -2  -4   0  490.45   21.20
  -2  -4   0  517.45   21.30
  -2  -4   0  486.25   19.80
   2  -4   0  497.35   21.00
   2  -4   0  478.35   21.20
   2   4   0  497.75   21.00
   2   4   0  484.95   21.20
  -2   4   0  484.75   20.60
  -2   4   0  500.55   19.00
   2   4   0  493.15   20.20
  -2   4   0  504.95   20.80
   2   4   0  527.15   18.90
  -3  -4   0   16.60    5.90
   3  -4   0   13.90    6.60
  -3  -4   0   15.90    5.50
   3  -4   0   -4.50    6.50
   3   4   0   16.60    6.00
   3   4   0   10.20    6.30
  -3   4   0   18.10    6.10
   3   4   0   15.00    5.20
  -3   4   0   23.80    5.70
   4  -4   0    3.50    6.70
  -4  -4   0    3.60    6.70
   4  -4   0    7.30    7.20
  -4  -4   0    0.90    6.60
  -4  -4   0    0.10    6.20
   4   4   0    5.80    7.10
  -4   4   0    0.20    6.50
  -4   4   0    8.10    6.30
   4   4   0    2.30    5.30
  -4   4   0    9.10    6.60
   5  -4   0   70.69   11.70
  -5  -4   0   71.09   12.20
  -5  -4   0   83.89   11.70
   5  -4   0   67.69   10.90
  -5  -4   0   43.00   10.70
  -5  -4   0   89.89   13.60
  -5   4   0   51.19   10.40
  -5   4   0   63.29    9.60
  -5   4   0   41.80   11.40
   5   4   0   46.50    8.80
   5   4   0   82.59   10.00
   5   4   0   59.89   11.40
  -6  -4   0  -16.10   10.00
   6  -4   0    5.50   11.60
   6  -4   0    9.90    8.70
  -6  -4   0   -2.60    8.60
  -6  -4   0   12.20   10.00
  -6   4   0   -1.90    7.10
  -6   4   0   -8.10   10.60
   6   4   0   -1.60   11.30
   6   4   0  -13.10    9.80
   6   4   0   10.40   11.20
   6   4   0   21.60   12.10
   7  -4   0    1.70   14.50
  -7  -4   0   -3.00   13.40
  -7  -4   0   -3.20   13.00
  -7  -4   0   -5.60   13.40
   7  -4   0   12.90   14.60
  -7   4   0    7.60   13.60
  -7   4   0   -0.10   14.90
   7   4   0   -7.60   14.00
   7   4   0   -2.30   15.90
   7   4   0   14.10   14.10
   0  -5   0   -3.40    5.70
   0  -5   0   -1.70    5.00
  -1  -5   0  102.39   10.50
   1  -5   0   92.09   11.80
   1  -5   0   93.99   10.20
  -1  -5   0   91.29   11.30
   1   5   0   80.89   10.80
  -1   5   0   80.89   11.00
   1   5   0   98.29   11.40
  -2  -5   0  427.66   20.70
  -2  -5   0  458.05   20.90
   2  -5   0  468.85   22.10
   2  -5   0  412.56   21.50
   2  -5   0  371.26   20.20
   2   5   0  441.86   22.10
   2   5   0  470.85   22.00
  -2   5   0  515.35   21.20
  -2   5   0  439.86   19.10
  -2   5   0  441.76   21.30
   2   5   0  423.96   20.90
   2   5   0  452.55   18.30
   3  -5   0  131.29   14.00
   3  -5   0  114.99   14.80
  -3  -5   0  104.69   13.50
  -3  -5   0  153.38   12.50
  -3   5   0  118.49   14.00
   3   5   0  117.79   14.10
  -3   5   0  119.09   11.70
  -3   5   0  137.09   13.90
   3   5   0  129.19   13.70
   3   5   0   92.99   14.50
   3   5   0  128.49   11.10
  -4  -5   0   64.19   10.30
   4  -5   0   54.19    9.40
  -4  -5   0   72.39   11.20
  -4  -5   0   52.89   12.90
   4  -5   0   45.50    9.20
  -4   5   0   68.19   10.10
  -4   5   0   75.79   11.30
   4   5   0   73.79   11.50
  -4   5   0   62.99   10.70
   4   5   0   64.99   13.20
   5  -5   0   -5.90   10.90
  -5  -5   0   -6.70    9.30
  -5  -5   0    5.30    9.40
   5  -5   0   -5.60    9.90
  -5  -5   0   -2.00   10.50
  -5   5   0    7.90   10.50
   5   5   0    1.20   10.30
   5   5   0   -7.80   10.30
   5   5   0    4.70    9.60
  -6  -5   0   63.69   13.60
   6  -5   0   35.70   15.00
   6  -5   0   20.40   13.40
  -6  -5   0   50.69   15.20
   6   5   0   48.20   13.50
   6   5   0   43.50   15.50
  -6   5   0   32.30   14.30
   6   5   0   32.80   15.10
   6   5   0   39.30   13.40
  -6   5   0   55.79   13.80
  -6   5   0   40.80   12.40
   0  -6   0    1.40    7.40
   0   6   0    0.50    7.80
   1  -6   0  106.59   12.40
  -1  -6   0   75.19   18.40
   1   6   0   80.29   11.30
  -1   6   0   74.59   11.60
   1   6   0   87.09    9.60
  -1   6   0   62.89   12.30
   1   6   0   86.29   11.50
  -2  -6   0    3.80    7.50
  -2  -6   0   -8.90    6.70
   2  -6   0  -13.70    7.70
   2  -6   0    3.00    7.00
  -2   6   0    6.20    8.30
   2   6   0   -1.00    6.20
   2   6   0    1.90    8.20
  -2   6   0   14.50    5.60
  -2   6   0   -2.00    8.70
   2   6   0   -1.90    7.60
  -3  -6   0    3.60    7.10
  -3  -6   0    1.90    8.30
   3  -6   0   -3.70   10.00
   3  -6   0    8.00    7.50
  -3   6   0    6.70    9.10
   3   6   0   -2.20    7.40
  -3   6   0   -8.00    6.80
  -3   6   0    4.40    9.50
   3   6   0    3.40    9.10
  -4  -6   0  130.39   16.40
  -4  -6   0  194.08   20.10
   4  -6   0  156.28   20.10
   4  -6   0  111.89   15.20
  -4  -6   0  165.68   19.40
   4   6   0  142.39   16.60
   4   6   0  151.38   20.20
   4   6   0  174.18   19.70
  -4   6   0  167.08   16.50
  -4   6   0  195.48   20.00
   4   6   0  140.79   17.00
  -5  -6   0   31.90   14.00
   5  -6   0   36.20   14.10
  -5  -6   0    7.40   13.20
  -5  -6   0   30.10   13.60
   5  -6   0   26.50   13.50
   5   6   0   30.50   14.70
   5   6   0   27.20   14.20
  -5   6   0   19.90   12.60
   5   6   0   11.20   11.10
   5   6   0   15.40   11.00
  -5   6   0   49.00   14.10
  -5   6   0   29.30   11.80
  -6  -6   0  -12.00   16.20
  -6  -6   0  -10.30   15.30
   6  -6   0   22.10   22.00
   6  -6   0  -12.30   16.30
  -6   6   0   11.50   14.40
   6   6   0  -16.90   14.50
  -6   6   0    1.80   17.30
   6   6   0    7.40   21.60
   6   6   0  -16.00   16.00
   6   6   0    4.00   16.80
  -6   6   0  -19.00   14.90
   0  -7   0   15.40    9.40
   0  -7   0   -5.80    9.50
   0   7   0  -19.10   10.10
   0   7   0    3.90   12.20
   1  -7   0    7.60   11.00
  -1  -7   0    1.70   10.50
  -1  -7   0   31.50   12.20
  -1   7   0   14.30   11.90
   1   7   0    8.80    9.50
   1   7   0   18.10   10.10
  -2  -7   0   54.09   11.80
  -2  -7   0   45.10   11.80
   2  -7   0   61.49   13.50
  -2  -7   0   51.39   13.10
   2  -7   0   43.40   11.70
   2  -7   0   39.80   13.20
   2   7   0   59.19   13.90
   2   7   0   44.10   12.40
   2   7   0   62.29   13.40
  -2   7   0   40.00    9.20
  -2   7   0   35.50   11.10
  -2   7   0   59.29   14.40
  -3  -7   0   29.60   12.90
  -3  -7   0   29.60   13.70
   3  -7   0   25.60   13.10
   3  -7   0   31.80   14.20
   3  -7   0   23.20   12.40
  -3  -7   0   37.50   13.80
  -3   7   0   19.50   11.90
   3   7   0   12.80   12.10
  -3   7   0   37.50   14.40
   3   7   0   19.80   14.00
   3   7   0   51.19   14.20
  -3   7   0   22.80    9.30
   3   7   0   32.20   10.20
   4  -7   0  -13.20   14.70
  -4  -7   0   18.90   13.90
   4  -7   0   -8.90   15.40
   4  -7   0  -23.10   14.10
  -4  -7   0   12.60   14.80
  -4  -7   0   16.30   14.30
   4   7   0   -9.00   11.00
   4   7   0    8.10   13.70
  -4   7   0   12.20   13.30
  -4   7   0   12.60   16.10
   4   7   0   -9.30   14.20
  -4   7   0   -2.40   10.80
   4   7   0   14.80   15.20
   0  -8   0   11.70   14.30
   0  -8   0    5.90   14.10
   0  -8   0   13.60   15.10
   0   8   0    5.90   14.40
   0   8   0   -2.20   15.20
   1  -8   0   15.90   11.70
   1  -8   0   19.70   13.70
  -1  -8   0   14.20   15.20
   1  -8   0   22.20   13.90
  -1  -8   0   20.10   15.00
  -1  -8   0   -5.40   15.10
   1   8   0   45.50   11.80
  -1   8   0   26.40   15.80
   1   8   0   26.60   15.60
  -1   8   0   -1.10   14.00
   1   8   0   18.20   15.10
  -2  -8   0   33.20   15.60
   2  -8   0   20.50   16.90
  -2  -8   0   -0.10   14.70
   2  -8   0   18.00   16.20
   2  -8   0    7.40   13.90
  -2  -8   0    6.30   15.80
   2   8   0  -16.80   10.50
   2   8   0   -6.50   14.40
  -2   8   0  -18.30   16.80
   2   8   0  -17.30   15.90
  -2   8   0    2.50   10.30
  -2   8   0    0.90   14.80
  -3  -8   0   29.70   17.70
  -3  -8   0   32.40   17.70
  -3  -8   0   60.79   17.20
   3  -8   0    4.60   17.70
   3  -8   0   44.80   16.60
   3   8   0   21.70   18.80
  -3   8   0   12.20   19.70
  -3   8   0   12.90   16.80
   3   8   0    7.40   16.80
  -3   8   0   10.80   11.90
   3   8   0   32.90   13.20
   3   8   0   57.29   18.70
  -8   0   1   -0.30   14.40
   8   0  -1    3.50   12.90
   8   0  -1  -20.30   14.70
   8   0  -1   -9.30   14.30
   8   0  -1   31.00   14.60
  -8   0   1   21.10   13.20
  -8   0   1   -0.10   12.00
   7   0  -1   99.89   14.90
   7   0  -1  111.59   14.30
   7   0  -1  104.79   14.00
   7   0  -1   96.49   13.60
  -7   0   1  139.09   18.10
  -7   0   1   98.49   13.10
   6   0  -1   -4.20    7.80
  -6   0   1    0.40    6.80
  -6   0   1   -0.60    6.40
   6   0  -1   -8.60    8.40
   6   0  -1   -4.80    6.90
   6   0  -1  -10.60    5.30
  -5   0   1   -1.30    5.50
  -5   0   1   18.70    5.50
   5   0  -1   -1.10    5.50
  -5   0   1    3.30    5.10
   5   0  -1    8.80    6.20
  -4   0   1    2.20    3.30
   4   0  -1   -1.10    4.20
   4   0  -1   -0.60    4.00
  -4   0   1   -2.60    3.80
  -4   0   1    6.00    3.80
   4   0  -1   -5.30    3.70
  -3   0   1  172.38    9.00
  -3   0   1  168.88    8.90
   3   0  -1  162.48    9.50
   3   0  -1  169.58    8.80
   3   0  -1  172.08    9.20
  -3   0   1  168.18    9.10
  -2   0   1   -2.80    1.80
  -2   0   1   -2.90    1.70
  -2   0   1    0.00    2.20
   2   0  -1    0.50    2.30
   2   0  -1    1.80    1.90
   1   0  -1    2.90    1.20
   1   0  -1    1.20    1.10
  -1   0   1    2.50    1.10
  -1   0   1    3.20    1.60
   1   0  -1    2.90    1.20
  -1   0   1    1.20    1.20
   1   0   1 1316.27   35.80
   1   0   1 1281.07   35.80
   1   0   1 1349.77   35.60
  -1   0  -1 1309.67   35.70
  -1   0  -1 1378.56   36.00
   1   0   1 1321.67   35.80
  -1   0  -1 1337.07   35.90
  -1   0  -1 1328.27   35.50
   2   0   1    1.00    1.70
  -2   0  -1    0.70    2.20
   2   0   1    1.50    1.90
  -2   0  -1   -3.20    2.30
   2   0   1   -0.80    2.20
   2   0   1    1.80    2.50
  -2   0  -1    1.80    2.40
   3   0   1 2724.53   75.59
  -3   0  -1 2921.11   75.99
   3   0   1 2762.02   75.19
  -3   0  -1 2704.93   74.99
   3   0   1 2644.64   75.59
   3   0   1 2724.43   75.59
   4   0   1   -2.20    4.20
  -4   0  -1   -2.00    2.90
   4   0   1   -3.30    3.90
  -4   0  -1   -3.60    3.60
   4   0   1    2.20    4.30
  -4   0  -1    0.90    3.90
   4   0   1    1.80    4.30
  -5   0  -1   95.59   11.40
   5   0   1  110.19   12.10
  -5   0  -1  107.99   11.70
  -5   0  -1  120.89   11.60
   5   0   1  116.29   12.10
  -6   0  -1   -8.50    8.00
  -6   0  -1    5.40    7.00
  -6   0  -1    3.40    7.50
   7   0   1   10.70    9.60
  -7   0  -1   36.20   10.70
   7   0   1   30.70   11.00
  -7   0  -1   -3.20   11.10
  -7   0  -1   24.20    8.80
   8   0   1  -15.50   13.20
  -8   0  -1   -5.50   11.50
  -8   0  -1  -20.30   13.60
   8   0   1   -7.00   11.60
   8   0   1  -10.10   14.20
  -8   0  -1   -2.50   13.70
   8   0   1   12.40   14.30
   8  -1  -1   11.30   14.70
   8  -1  -1   24.80   14.80
   8  -1  -1   -3.30   12.90
  -8  -1   1   -1.10   12.70
  -8  -1   1  -20.10   13.40
  -8  -1   1  -15.70   13.20
   8  -1  -1   -7.00   15.70
  -8   1   1    9.50   12.80
  -8   1   1   -0.50   12.20
   8   1  -1   11.30   11.10
  -8   1   1   -4.80   14.70
   8   1  -1   -2.00   14.70
   8   1  -1    4.90   15.20
   8   1  -1   30.20   13.30
  -7  -1   1    5.40    9.90
   7  -1  -1   26.00   10.10
   7  -1  -1    3.10    9.80
   7  -1  -1   10.10    8.50
  -7  -1   1   16.60    8.70
  -7  -1   1   -5.20    9.00
  -7   1   1   13.20    9.80
   7   1  -1    7.50   11.20
   7   1  -1   24.00   10.60
   7   1  -1    1.70   10.90
   7   1  -1   12.30    9.90
  -7   1   1    5.20    9.20
   6  -1  -1   56.29   10.00
  -6  -1   1   61.49    9.70
  -6  -1   1   66.69   10.00
   6  -1  -1   59.79   10.90
  -6  -1   1   57.79   10.30
   6   1  -1   71.69   11.30
   6   1  -1   83.79   11.30
  -6   1   1   89.59   12.40
  -6   1   1   80.09   10.20
   6   1  -1   71.09   11.40
  -5  -1   1   22.00    6.10
  -5  -1   1   20.70    7.00
   5  -1  -1   14.60    6.50
  -5   1   1   34.40    5.70
   5   1  -1   10.40    6.40
  -5   1   1   23.00    5.60
   5   1  -1    8.90    5.10
  -5   1   1   13.50    5.80
  -4  -1   1  109.19    9.00
  -4  -1   1  109.49    9.10
   4  -1  -1   97.99    9.30
   4  -1  -1  102.69    9.20
   4  -1  -1   98.79    9.40
  -4  -1   1  107.99    9.50
  -4   1   1  110.39    8.80
   4   1  -1  100.09    9.90
  -4   1   1  124.59    9.70
   4   1  -1  108.89    9.80
   4   1  -1   99.79    8.00
  -4   1   1  101.79    8.90
   3  -1  -1  220.48   10.90
  -3  -1   1  224.28   11.00
  -3  -1   1  214.98   10.90
   3  -1  -1  218.18   10.70
  -3  -1   1  220.78   10.80
   3  -1  -1  217.68   11.10
   3   1  -1  223.28   11.20
  -3   1   1  222.28   10.60
  -3   1   1  217.78   10.40
   3   1  -1  211.88   11.20
   3   1  -1  220.68   10.60
  -3   1   1  222.18   10.90
   3   1  -1  231.08   11.10
   2  -1  -1 1198.78   33.90
  -2  -1   1 1197.98   33.90
   2  -1  -1 1192.48   34.00
  -2  -1   1 1181.58   34.00
   2  -1  -1 1200.78   33.80
  -2  -1   1 1193.98   34.10
   2   1  -1 1178.88   34.00
   2   1  -1 1169.78   34.10
  -2   1   1 1167.98   33.60
  -2   1   1 1167.38   33.70
  -2   1   1 1211.68   33.70
   2   1  -1 1200.98   34.20
   2   1  -1 1144.29   34.00
  -1  -1   1  669.33   20.30
   1  -1  -1  688.53   20.00
   1  -1  -1  728.63   20.20
  -1  -1   1  706.03   19.80
  -1  -1   1  703.63   20.30
  -1  -1   1  703.03   20.30
   1  -1  -1  698.43   19.70
   1   1  -1  720.73   20.40
   1   1  -1  679.53   20.40
  -1   1   1  719.03   20.00
   1   1  -1  711.63   20.30
  -1   1   1  679.03   19.80
   1   1  -1  701.23   19.80
  -1   1   1  682.23   19.70
   0  -1   1    1.50    1.40
   0  -1   1   -0.50    1.40
   0  -1  -1    0.50    1.30
   0  -1   1    3.90    1.00
   0  -1  -1   -1.00    1.60
   0  -1  -1   -1.70    1.20
   0   1  -1    0.20    1.50
   0   1  -1    2.60    1.60
   0   1   1    0.60    1.20
   0   1   1    2.30    1.40
   0   1   1    1.10    1.30
  -1  -1  -1 2198.48   55.99
   1  -1   1 2033.20   55.89
  -1  -1  -1 2010.80   55.79
   1  -1   1 2086.79   55.79
  -1  -1  -1 2085.59   55.89
  -1  -1  -1 2065.59   54.69
   1   1   1 2140.09   55.89
  -1   1  -1 2052.19   55.99
   1   1   1 2105.19   54.69
   1   1   1 2176.28   55.89
  -1   1  -1 2126.49   55.99
   1   1   1 2027.20   55.89
  -2  -1  -1  541.05   17.50
  -2  -1  -1  558.34   18.50
  -2  -1  -1  537.65   18.40
   2  -1   1  542.85   18.60
   2  -1   1  527.95   18.00
  -2  -1  -1  550.54   18.60
   2  -1   1  557.14   18.60
  -2   1  -1  557.84   18.40
  -2   1  -1  555.64   18.40
   2   1   1  527.95   18.40
   2   1   1  555.74   17.50
   2   1   1  557.34   18.40
  -2   1  -1  562.44   18.20
   2   1   1  547.05   18.20
  -3  -1  -1  184.78    9.90
   3  -1   1  186.18   10.20
  -3  -1  -1  191.28   10.70
  -3  -1  -1  175.78    9.70
   3  -1   1  181.08   10.70
   3  -1   1  198.08   10.60
  -3   1  -1  183.08   10.50
  -3   1  -1  190.18    9.60
  -3   1  -1  173.58   10.40
   3   1   1  182.68    9.20
   3   1   1  159.88    9.60
   3   1   1  179.08   10.60
  -4  -1  -1   43.00    6.60
  -4  -1  -1   43.90    6.40
   4  -1   1   50.19    6.50
   4  -1   1   40.20    6.30
  -4  -1  -1   54.09    7.00
   4  -1   1   42.20    6.80
   4   1   1   39.20    6.70
  -4   1  -1   42.90    6.40
   4   1   1   53.39    6.90
  -4   1  -1   49.30    7.00
   4   1   1   48.60    6.30
  -4   1  -1   45.70    6.60
   4   1   1   51.19    7.00
  -5  -1  -1    0.30    5.70
  -5  -1  -1    2.60    6.00
   5  -1   1    5.90    5.80
   5  -1   1   -2.30    6.30
   5  -1   1   -0.60    4.10
   5   1   1    8.50    6.00
  -5   1  -1    1.60    5.70
   5   1   1   -4.50    6.00
   5   1   1   -5.70    5.20
   6  -1   1   23.60    9.60
  -6  -1  -1   16.80    8.60
  -6  -1  -1   18.40    8.40
  -6  -1  -1   21.60    8.10
  -6   1  -1   16.10    7.40
  -6   1  -1    0.20    6.90
   6   1   1   15.80    6.60
   6   1   1   19.60    9.90
   7  -1   1  310.07   24.40
  -7  -1  -1  325.67   23.30
  -7  -1  -1  291.77   23.90
  -7  -1  -1  309.57   23.50
   7  -1   1  271.67   25.60
   7  -1   1  330.77   23.40
   7  -1   1  362.06   24.30
   7   1   1  302.97   24.10
  -7   1  -1  360.66   24.00
   7   1   1  360.26   24.20
   7   1   1  344.47   24.10
  -8  -1  -1   43.90   15.60
  -8  -1  -1   74.49   17.70
   8  -1   1   54.39   17.70
   8  -1   1   67.59   16.30
   8  -1   1   37.90   16.90
   8  -1   1   58.99   14.90
  -8  -1  -1   22.20   15.10
   8   1   1   39.10   15.20
  -8   1  -1   60.09   15.50
   8   1   1   45.50   16.70
   8   1   1   50.19   16.10
   8   1   1   67.99   15.50
  -8   1  -1   37.70   16.20
  -8   1  -1   65.19   15.70
   8  -2  -1    2.80   14.60
  -8  -2   1   -9.50   13.70
   8  -2  -1   26.40   13.90
   8  -2  -1   28.90   17.00
  -8  -2   1   -2.40   12.20
  -8   2   1  -22.10   14.10
  -8   2   1  -12.00   15.10
   8   2  -1   52.79   17.90
   8   2  -1    8.00   13.40
  -8   2   1    2.50   12.50
   8   2  -1  -13.40   10.50
   8   2  -1   -5.30   15.70
   7  -2  -1   44.70   11.80
   7  -2  -1   34.60   12.10
   7  -2  -1   25.70   11.50
  -7  -2   1   27.90   11.20
  -7  -2   1   52.29   12.70
  -7   2   1   25.50   11.80
   7   2  -1   37.10   12.00
   7   2  -1   34.90   13.40
   7   2  -1   56.49   12.30
   7   2  -1   24.40   12.60
  -7   2   1   49.80   11.40
  -7   2   1   50.89   11.40
   6  -2  -1   15.60    7.90
  -6  -2   1    8.90    6.40
  -6  -2   1    4.80    7.20
   6  -2  -1   22.70    9.00
  -6   2   1    3.60    7.00
  -6   2   1    8.90    8.30
   6   2  -1   15.90    8.60
   6   2  -1    3.20    7.40
   6   2  -1    3.40    8.30
   6   2  -1   13.40    9.20
  -6   2   1   23.80    7.90
  -5  -2   1   58.89    8.20
   5  -2  -1   58.29    9.40
  -5  -2   1   86.69   11.10
   5  -2  -1   79.19    9.20
   5  -2  -1  101.69   11.00
   5   2  -1   68.59    9.90
   5   2  -1   98.19   12.50
  -5   2   1   74.29    9.40
   5   2  -1   89.59    9.20
   5   2  -1   58.09    8.70
  -4  -2   1   88.59    9.30
  -4  -2   1   93.69    9.40
  -4  -2   1   72.99    7.70
   4  -2  -1   75.99    9.40
   4  -2  -1   85.69    9.40
   4  -2  -1   83.89    8.90
  -4   2   1   75.09    8.30
   4   2  -1   62.69    8.10
  -4   2   1   67.89    8.60
  -4   2   1   82.39    9.10
   4   2  -1   92.39    9.50
   4   2  -1   78.89    8.10
   4   2  -1   79.19    8.90
  -3  -2   1  224.18   11.80
   3  -2  -1  235.48   11.80
  -3  -2   1  227.48   11.40
  -3  -2   1  223.78   11.50
   3  -2  -1  224.58   12.00
  -3  -2   1  233.98   11.10
   3  -2  -1  223.08   11.40
  -3   2   1  209.58   11.20
   3   2  -1  209.18   11.80
   3   2  -1  222.08   11.30
  -3   2   1  226.58   11.30
   3   2  -1  200.28   11.80
   3   2  -1  212.18   11.50
  -3   2   1  216.88   11.20
  -2  -2   1   34.30    4.60
  -2  -2   1   46.20    4.60
   2  -2  -1   33.60    4.40
   2  -2  -1   32.10    4.30
  -2  -2   1   38.20    5.10
  -2  -2   1   37.90    5.30
   2  -2  -1   43.70    4.70
  -2   2   1   44.00    5.30
   2   2  -1   42.70    5.20
   2   2  -1   43.90    5.80
   2   2  -1   39.70    4.90
  -2   2   1   37.10    4.60
   2   2  -1   27.50    4.40
  -2   2   1   34.00    4.80
   1  -2  -1  560.94   17.80
   1  -2  -1  548.65   17.90
  -1  -2   1  536.65   18.00
  -1  -2   1  548.75   18.10
  -1  -2   1  517.75   16.70
   1   2  -1  532.35   17.00
   1   2  -1  539.35   18.20
  -1   2   1  543.05   16.50
  -1   2   1  555.24   17.60
   1   2  -1  541.35   18.20
  -1   2   1  535.95   17.40
   0  -2   1 1700.23   47.00
   0  -2   1 1693.83   45.60
   0  -2  -1 1667.23   46.60
   0  -2  -1 1678.83   46.70
   0  -2   1 1665.63   46.90
   0  -2  -1 1739.43   46.90
   0   2   1 1701.33   46.50
   0   2   1 1695.23   46.50
   0   2  -1 1689.63   46.90
   0   2   1 1684.13   46.80
   0   2  -1 1712.13   47.00
  -1  -2  -1 4736.03  124.49
  -1  -2  -1 4750.02  124.49
   1  -2   1 4793.12  124.79
  -1  -2  -1 4910.01  124.79
   1  -2   1 4834.62  124.69
   1   2   1 4861.31  124.59
   1   2   1 4637.44  122.29
   1   2   1 4620.44  124.29
  -1   2  -1 4633.84  124.49
   1   2   1 4677.93  124.49
  -1   2  -1 4833.12  124.79
  -2  -2  -1 1060.09   30.30
   2  -2   1 1013.70   31.70
  -2  -2  -1 1059.69   31.90
   2  -2   1 1040.60   31.80
  -2  -2  -1 1001.10   31.70
  -2  -2  -1 1008.50   31.80
  -2   2  -1 1067.49   32.20
   2   2   1 1075.39   32.20
  -2   2  -1 1058.29   31.30
  -2   2  -1 1012.40   31.80
   2   2   1 1041.30   30.20
   2   2   1 1053.89   32.00
   2   2   1  981.80   31.70
  -3  -2  -1  208.88   12.20
  -3  -2  -1  232.18   12.40
  -3  -2  -1  234.68   11.80
   3  -2   1  216.88   12.40
  -3  -2  -1  222.78   11.00
   3  -2   1  229.28   12.60
   3   2   1  230.78   12.50
  -3   2  -1  222.98   11.30
   3   2   1  228.28   12.30
  -3   2  -1  244.48   12.10
  -3   2  -1  221.88   11.50
   3   2   1  222.88   12.50
   3   2   1  223.48   10.90
   4  -2   1   26.30    6.10
  -4  -2  -1   33.90    6.10
  -4  -2  -1   28.50    6.50
  -4  -2  -1   27.20    5.70
  -4   2  -1   29.50    6.20
  -4   2  -1   20.40    6.00
   4   2   1   21.10    5.80
  -4   2  -1   25.40    6.30
   4   2   1   29.20    5.50
   4   2   1   25.30    6.00
  -5  -2  -1   12.40    6.10
  -5  -2  -1    7.60    6.90
   5  -2   1   -3.90    6.50
   5  -2   1   11.40    6.50
   5  -2   1    5.60    4.80
  -5  -2  -1   10.60    6.50
   5   2   1   -3.40    4.80
  -5   2  -1    8.40    5.10
  -5   2  -1    2.90    6.20
  -5   2  -1    9.20    6.10
   5   2   1    7.90    6.90
   5   2   1    3.00    6.00
  -6  -2  -1   13.70    7.90
   6  -2   1   -2.10    5.70
  -6  -2  -1   11.80    8.70
   6  -2   1    0.10    8.30
  -6  -2  -1   13.00    8.50
   6   2   1    3.80    6.60
  -6   2  -1    8.70   13.60
   6   2   1    0.30    7.70
   6   2   1    2.20   12.60
   7  -2   1   21.50   11.80
   7  -2   1   27.30   11.60
  -7  -2  -1   48.00   12.70
   7  -2   1   33.10   13.40
  -7  -2  -1   37.20   12.50
  -7  -2  -1   64.39   12.90
   7   2   1   47.40   11.50
   7   2   1   27.90   13.70
   7   2   1   39.80   12.60
  -7   2  -1   39.80   12.90
  -7   2  -1   46.20   12.90
  -7   2  -1   44.90   12.10
   7   2   1   25.10   12.00
   8  -2   1    8.50   16.90
   8  -2   1   16.20   15.70
  -8  -2  -1  -21.70   15.90
  -8  -2  -1    0.90   15.00
   8  -2   1   29.80   16.60
  -8  -2  -1   15.20   15.20
  -8   2  -1   18.60   15.30
  -8   2  -1   15.00   16.60
   8   2   1  -15.80   15.50
   8   2   1   13.70   15.70
   8   2   1   59.09   18.90
  -8   2  -1   11.30   15.30
   8   2   1  -12.10   15.40
  -7  -3   1   24.50   11.80
   7  -3  -1    6.50   12.40
  -7  -3   1   19.90   11.30
  -7  -3   1   16.20   12.00
   7  -3  -1   17.20   12.70
   7   3  -1   11.30   11.80
   7   3  -1    4.90   12.30
  -7   3   1   34.70   13.60
   7   3  -1   20.20   11.30
  -7   3   1   23.20   12.70
   7   3  -1   19.50   14.10
  -6  -3   1  318.57   21.20
   6  -3  -1  353.86   23.30
  -6  -3   1  298.77   18.90
   6  -3  -1  327.17   23.20
  -6  -3   1  321.27   22.20
  -6   3   1  325.67   21.30
   6   3  -1  314.27   27.70
   6   3  -1  324.47   23.00
   6   3  -1  351.16   21.40
  -5  -3   1   13.00    7.40
  -5  -3   1    7.60    7.20
   5  -3  -1    7.70    7.00
  -5  -3   1   11.30    6.10
   5   3  -1    4.10    7.00
   5   3  -1   13.20    6.90
   5   3  -1   11.50    6.50
  -5   3   1   18.80    7.20
  -5   3   1   14.60    7.00
   5   3  -1    7.20    7.10
  -4  -3   1    3.00    5.60
  -4  -3   1    2.60    5.30
  -4  -3   1   24.10    5.20
   4  -3  -1   -1.10    5.60
  -4   3   1   -4.90    4.60
  -4   3   1    7.20    5.00
   4   3  -1    4.30    5.80
   4   3  -1    6.00    5.60
  -4   3   1    5.50    4.90
   3  -3  -1  232.18   13.40
   3  -3  -1  241.68   12.60
  -3  -3   1  225.68   13.40
  -3  -3   1  233.98   12.30
  -3  -3   1  231.08   13.30
  -3   3   1  230.98   12.00
   3   3  -1  234.98   12.80
   3   3  -1  240.48   12.90
   3   3  -1  237.48   13.10
  -3   3   1  223.88   12.30
  -3   3   1  238.38   13.10
   3   3  -1  224.98   12.20
  -2  -3   1  668.73   23.70
  -2  -3   1  690.83   22.80
   2  -3  -1  702.23   24.00
   2  -3  -1  688.13   24.00
  -2  -3   1  642.64   23.80
  -2   3   1  671.73   22.20
   2   3  -1  670.93   24.00
  -2   3   1  694.03   23.60
   2   3  -1  678.43   22.70
   2   3  -1  696.93   24.30
  -2   3   1  688.23   23.50
   2   3  -1  661.23   22.90
  -1  -3   1   10.70    3.80
   1  -3  -1    8.70    3.80
   1  -3  -1    8.40    3.20
  -1  -3   1    9.90    3.90
  -1  -3   1    8.80    3.10
   1  -3  -1    9.80    3.90
   1   3  -1    9.50    3.30
  -1   3   1    9.60    3.50
  -1   3   1    6.50    3.50
   1   3  -1    3.50    3.60
   1   3  -1    8.00    3.30
   0  -3  -1   51.49    6.30
   0  -3   1   48.00    6.40
   0  -3   1   57.79    6.70
   0  -3  -1   53.99    6.50
   0  -3   1   60.89    5.30
   0  -3  -1   38.40    5.20
   0   3   1   56.49    6.30
   0   3  -1   59.09    6.80
   0   3  -1   63.59    6.90
   0   3   1   52.39    6.30
   0   3   1   48.60    6.40
  -1  -3  -1  170.38    9.80
   1  -3   1  167.68   10.20
   1  -3   1  179.98    9.80
  -1  -3  -1  167.98   10.10
  -1  -3  -1  175.98   10.40
   1   3   1  166.88    9.80
  -1   3  -1  165.98   10.20
   1   3   1  175.38    7.70
   1   3   1  186.48   10.20
  -1   3  -1  182.08   10.30
   1   3   1  179.28   10.20
   2  -3   1  606.24   22.80
  -2  -3  -1  617.94   22.70
  -2  -3  -1  609.74   22.20
   2  -3   1  598.94   22.40
  -2  -3  -1  625.84   22.20
   2   3   1  614.84   22.20
   2   3   1  594.74   22.20
  -2   3  -1  620.04   21.40
   2   3   1  627.74   20.10
  -2   3  -1  604.04   22.40
   2   3   1  585.04   22.40
  -2   3  -1  609.44   22.60
  -3  -3  -1   -3.40    4.20
   3  -3   1   -4.60    4.00
  -3  -3  -1   -4.90    4.10
  -3  -3  -1    3.00    4.30
  -3  -3  -1    0.30    3.50
   3  -3   1    3.00    5.00
   3   3   1    0.40    3.60
  -3   3  -1    4.60    4.40
   3   3   1    4.00    5.10
  -3   3  -1    2.40    4.20
   3   3   1    5.30    4.70
  -3   3  -1   -6.50    4.10
   3   3   1   -7.50    4.40
  -4  -3  -1   -7.80    6.50
   4  -3   1   17.00    6.80
  -4  -3  -1    7.10    5.90
  -4  -3  -1   -2.90    4.70
  -4   3  -1   11.50    6.00
  -4   3  -1   11.10    4.70
   4   3   1    8.10    6.60
   4   3   1   17.60    5.30
   4   3   1    7.00    6.30
   5  -3   1   56.09    8.70
  -5  -3  -1   38.40    8.30
   5  -3   1   47.00   10.40
  -5  -3  -1   51.09    8.80
  -5  -3  -1   40.40   10.60
  -5   3  -1   49.99    8.80
   5   3   1   43.20    8.40
  -5   3  -1   57.59    9.70
  -5   3  -1   48.00   10.80
   5   3   1   40.30    9.70
  -6  -3  -1   29.00    9.70
  -6  -3  -1   35.00    8.90
   6  -3   1   47.80   10.90
   6   3   1   20.50   11.10
  -6   3  -1   35.40   10.40
   6   3   1   43.30   10.10
   6   3   1   21.50    9.90
   7  -3   1   22.90   13.80
  -7  -3  -1    3.30   12.00
   7  -3   1  -10.90   10.10
  -7  -3  -1    2.50   12.30
  -7  -3  -1   -3.70   12.20
   7   3   1   -6.00   11.80
  -7   3  -1   -1.30   12.20
   7   3   1    1.80   13.40
   7   3   1   -4.50   12.60
   7   3   1    7.80   11.60
  -7   3  -1   -4.00   12.00
  -7  -4   1   74.99   16.20
  -7  -4   1   41.80   15.10
  -7  -4   1   73.39   15.20
   7  -4  -1   62.89   17.10
   7  -4  -1   96.89   16.80
   7   4  -1   58.39   18.00
  -7   4   1  105.29   17.40
   7   4  -1   66.59   15.60
  -7   4   1   63.89   15.80
   7   4  -1   69.69   17.00
  -6  -4   1  101.89   13.00
   6  -4  -1   91.89   15.10
  -6  -4   1  100.89   13.40
   6  -4  -1   79.29   14.20
  -6   4   1   97.39   14.60
  -6   4   1  107.79   13.30
  -6   4   1   70.39   12.20
   6   4  -1   75.99   12.90
   6   4  -1   94.69   14.40
   6   4  -1   72.69   12.30
   6   4  -1   71.89   12.90
   5  -4  -1   -1.70    8.30
  -5  -4   1    9.80    8.60
   5  -4  -1   -5.20    7.90
  -5   4   1   19.40    8.90
   5   4  -1   -3.10    7.20
   5   4  -1    1.50    8.50
  -5   4   1   15.20    7.80
  -5   4   1    2.20    6.60
   5   4  -1   -2.40    7.90
   4  -4  -1   -1.20    6.90
   4  -4  -1   28.70    7.30
  -4  -4   1   -0.50    6.20
  -4  -4   1    3.50    6.50
   4   4  -1    6.20    5.50
  -4   4   1    4.00    6.20
  -4   4   1    3.10    5.40
   4   4  -1   14.90    7.40
  -3  -4   1   45.60    8.00
  -3  -4   1   62.19    7.70
   3  -4  -1   37.70    7.30
   3   4  -1   45.50    8.50
  -3   4   1   54.49    7.50
  -3   4   1   51.69    6.80
   3   4  -1   43.90    7.10
   3   4  -1   51.79    7.10
  -3   4   1   39.50    6.90
   2  -4  -1  109.49   10.10
  -2  -4   1   91.29   10.10
  -2  -4   1  111.29    9.10
  -2  -4   1  110.39   10.20
   2  -4  -1   97.59   10.30
   2   4  -1  104.59   10.40
  -2   4   1  104.79    9.70
   2   4  -1   98.99    9.80
   2   4  -1   90.29    8.40
  -2   4   1  117.19   10.50
  -2   4   1  109.39    8.20
   2   4  -1   99.19   10.70
   1  -4  -1   76.89    8.70
  -1  -4   1   66.19    7.30
  -1  -4   1   85.09    8.20
   1  -4  -1   59.69    8.40
   1  -4  -1   84.89    8.80
  -1  -4   1   55.39    6.90
  -1   4   1   71.99    8.60
   1   4  -1   71.09    7.60
   1   4  -1   54.89    7.50
  -1   4   1   61.49    7.90
   1   4  -1   67.39    9.10
   0  -4   1    0.30    3.10
   0  -4  -1    0.70    3.80
   0  -4  -1   -2.20    4.10
   0  -4   1    3.40    4.10
   0  -4   1   -5.10    3.90
   0  -4  -1   -2.30    4.10
   0   4  -1    1.70    3.30
   0   4   1   -2.40    4.30
   0   4   1    6.30    4.20
   0   4  -1   -0.40    4.40
  -1  -4  -1 1886.91   56.59
   1  -4   1 1912.31   56.69
  -1  -4  -1 1932.01   55.99
   1  -4   1 1867.41   56.49
  -1  -4  -1 1976.50   57.09
   1  -4   1 1938.51   54.89
  -1   4  -1 1912.31   56.69
   1   4   1 1996.40   56.59
   1   4   1 1813.92   55.99
   1   4   1 1859.91   55.89
   1   4   1 1890.01   52.59
  -1   4  -1 1873.61   56.59
  -2  -4  -1   41.30    6.30
   2  -4   1   57.09    7.40
   2  -4   1   46.20    6.80
  -2  -4  -1   47.10    7.00
   2   4   1   43.40    5.40
  -2   4  -1   54.89    7.40
   2   4   1   46.60    7.20
  -2   4  -1   43.30    6.80
   2   4   1   45.40    7.10
   2   4   1   47.00    6.70
  -3  -4  -1    7.70    5.90
  -3  -4  -1   14.30    5.20
   3  -4   1    6.20    6.30
  -3   4  -1    7.70    5.90
   3   4   1   12.90    4.50
   3   4   1    8.00    5.30
  -3   4  -1   10.30    5.30
   3   4   1    8.60    6.40
  -4  -4  -1   76.69    9.90
  -4  -4  -1   81.79    9.60
   4  -4   1   71.39    9.90
  -4  -4  -1   89.89   10.20
  -4   4  -1   71.39    9.50
   4   4   1   67.79    9.00
   4   4   1   60.39   10.20
  -4   4  -1   75.69   10.20
  -4   4  -1   74.29    9.80
  -5  -4  -1   28.40    9.60
  -5  -4  -1   39.60    8.70
   5  -4   1   27.20    8.50
  -5  -4  -1   39.40    9.70
   5   4   1   13.70    8.90
  -5   4  -1   37.00    9.10
  -5   4  -1   23.20    8.70
   5   4   1   38.50    8.50
  -5   4  -1   35.40   11.00
   5   4   1   28.50   10.10
  -6  -4  -1   19.70   11.60
  -6  -4  -1   -9.80    9.20
   6  -4   1    0.50   11.60
  -6  -4  -1    5.20   10.00
   6  -4   1   21.80   11.30
   6   4   1   25.00   13.00
  -6   4  -1   19.20   10.90
  -6   4  -1    8.30   11.10
  -6   4  -1   -3.80   10.90
   6   4   1   10.50   11.90
   6   4   1   23.70   10.40
   7  -4   1    7.00   13.30
  -7  -4  -1   -0.50   14.80
  -7  -4  -1   10.00   13.80
   7  -4   1  -29.60   14.80
  -7  -4  -1   -7.00   13.60
  -7   4  -1   25.70   14.20
   7   4   1    4.00   12.40
   7   4   1   -2.80   16.10
  -7   4  -1   11.10   15.50
   7   4   1  -17.60   15.10
   7   4   1   14.90   14.00
  -7   4  -1   -2.40   13.80
   6  -5  -1   62.39   16.10
  -6  -5   1   67.99   15.10
  -6  -5   1   81.19   14.80
   6  -5  -1   90.59   14.60
   6   5  -1   58.19   16.20
   6   5  -1   89.29   16.00
  -6   5   1   69.19   13.00
  -6   5   1   67.89   15.20
   6   5  -1   74.59   14.60
   6   5  -1   60.59   15.30
   5  -5  -1   92.49   13.60
  -5  -5   1   91.59   13.40
   5  -5  -1   68.69   13.50
  -5  -5   1   85.89   13.50
  -5   5   1  102.19   14.10
   5   5  -1   85.79   13.60
   5   5  -1  115.59   13.70
  -5   5   1   93.69   13.30
   5   5  -1   89.99   13.50
  -5   5   1   86.99   12.40
   4  -5  -1  -11.70    8.30
   4  -5  -1    1.30    8.40
  -4  -5   1   -1.00    6.90
  -4  -5   1    1.90    8.30
  -4   5   1   -0.50    7.30
  -4   5   1   -4.00    7.80
   4   5  -1   -1.50    7.90
   4   5  -1    1.40    8.00
   4   5  -1   -2.70    6.70
  -4   5   1    2.70    6.60
  -3  -5   1    8.80    6.80
   3  -5  -1    9.30    7.20
  -3  -5   1    6.90    6.50
   3   5  -1    2.40    7.50
  -3   5   1   12.80    7.00
  -3   5   1    2.70    6.30
  -3   5   1   13.10    5.60
   3   5  -1   12.50    7.10
   2  -5  -1   -8.00    5.30
  -2  -5   1    5.40    5.80
  -2  -5   1    1.70    6.30
   2  -5  -1    0.50    6.30
   2  -5  -1   -5.20    4.70
  -2  -5   1    1.30    5.00
   2   5  -1    3.70    6.10
  -2   5   1   -5.70    5.70
  -2   5   1    0.60    4.30
   2   5  -1    8.00    5.30
   2   5  -1    6.00    6.50
   2   5  -1   10.90    7.20
  -1  -5   1  118.59    9.30
   1  -5  -1   82.19   11.60
  -1  -5   1   93.19   11.70
  -1  -5   1   87.39   10.40
   1   5  -1   86.99   10.30
  -1   5   1   90.39   10.70
   1   5  -1   83.79   11.50
   0  -5   1   30.10    6.90
   0  -5  -1   32.90    6.70
   0  -5  -1   32.60    7.30
   0  -5   1   34.20    6.10
   0   5  -1   19.60    6.70
   0   5   1   30.30    6.90
   1  -5   1    7.80    5.00
  -1  -5  -1    1.50    5.90
   1  -5   1    0.00    4.70
  -1   5  -1    6.30    4.80
   1   5   1    5.10    3.90
   1   5   1    6.10    6.10
   1   5   1   -2.20    5.40
   2  -5   1   47.60    8.00
   2  -5   1   40.00    7.30
  -2  -5  -1   49.20    7.60
  -2  -5  -1   41.20    8.10
   2  -5   1   62.29    9.00
   2   5   1   43.80    5.90
   2   5   1   44.10    8.70
   2   5   1   44.70    8.30
   2   5   1   46.70    8.20
  -2   5  -1   46.00    7.50
  -2   5  -1   35.50    8.10
   3  -5   1  137.39   15.40
  -3  -5  -1  123.69   14.50
  -3  -5  -1  160.18   14.70
  -3  -5  -1  154.18   17.20
  -3   5  -1  125.99   12.80
  -3   5  -1  137.19   14.80
   3   5   1  148.29   11.60
   3   5   1  127.19   14.70
  -3   5  -1  128.89   14.60
   3   5   1  124.89   14.70
   4  -5   1   32.90    9.70
  -4  -5  -1   44.90   11.80
  -4  -5  -1   35.50    8.70
  -4   5  -1   13.80    9.20
   4   5   1   17.60    7.60
   4   5   1   22.40    9.60
  -4   5  -1   18.80   10.20
  -4   5  -1   14.90    8.20
   5  -5   1   50.39   12.30
  -5  -5  -1   65.39   13.50
  -5  -5  -1   75.79   13.00
  -5  -5  -1   57.49   12.30
   5  -5   1   49.70   16.20
   5   5   1   72.89   13.10
   5   5   1   68.79   12.40
  -5   5  -1   50.59   12.50
   5   5   1   44.50   10.50
   5   5   1   62.59   13.10
  -6  -5  -1  127.79   17.30
   6  -5   1  103.89   16.50
  -6  -5  -1  143.39   18.40
   6  -5   1  119.19   19.30
   6   5   1  159.58   19.60
   6   5   1  180.58   20.50
  -6   5  -1  146.19   19.20
  -6   5  -1  128.69   16.80
   6   5   1  141.19   18.70
  -6   5  -1   96.09   16.70
   6   5   1  189.28   25.70
  -6  -6   1  -13.10   16.70
   6  -6  -1   -8.10   17.20
  -6  -6   1  -17.70   15.20
   6  -6  -1    9.80   15.30
  -6   6   1  -10.70   15.90
   6   6  -1  -13.90   16.30
  -6   6   1   -2.60   15.10
   6   6  -1    2.30   16.70
  -6   6   1    2.10   13.70
   6   6  -1    8.20   14.70
  -5  -6   1    7.30   13.70
  -5  -6   1   52.39   13.60
   5  -6  -1   37.90   12.10
   5  -6  -1   65.79   15.30
  -5  -6   1   51.69   14.40
  -5   6   1   41.00   12.40
   5   6  -1   49.90   14.10
  -5   6   1   27.90   11.50
   5   6  -1   43.10   12.20
   5   6  -1   28.90   14.30
   5   6  -1   37.10   11.80
  -5   6   1   10.10   13.20
   4  -6  -1   20.40   11.70
  -4  -6   1   -7.00   10.60
   4  -6  -1    2.70   11.00
  -4  -6   1   14.90    9.20
  -4  -6   1   10.10   10.00
  -4   6   1   -4.30    7.90
   4   6  -1    8.00   11.10
   4   6  -1    3.40    9.30
  -4   6   1   13.70   11.10
  -4   6   1    6.60   10.60
   4   6  -1    5.40    9.90
   4   6  -1    0.00   11.00
   3  -6  -1   -6.20    9.20
  -3  -6   1   -2.10    8.60
  -3  -6   1    8.00    7.90
   3  -6  -1   -5.80    9.30
   3  -6  -1    3.30    9.20
   3   6  -1   -3.80    8.30
   3   6  -1   -4.90    8.10
  -3   6   1    6.30    8.50
   3   6  -1    1.20    9.50
  -3   6   1    5.70    6.80
  -2  -6   1   -0.60    5.90
  -2  -6   1    8.20    8.00
   2  -6  -1    2.10    7.90
   2  -6  -1   -5.50    8.00
   2  -6  -1   -7.90    8.30
   2   6  -1   -3.80    7.60
  -2   6   1   -5.30    8.40
  -2   6   1  -14.70   13.70
  -2   6   1    4.20    5.70
   2   6  -1    1.80    7.90
   1  -6  -1   42.50    9.40
   1  -6  -1   28.90   10.00
   1  -6  -1   55.79    9.40
  -1  -6   1   45.40   10.20
   1   6  -1   57.69   10.20
  -1   6   1   54.29    9.80
  -1   6   1   48.40    9.60
   1   6  -1   48.70   12.10
   0  -6   1    0.90    7.80
   0  -6  -1    8.90    7.00
   0  -6  -1    5.30    9.90
   0  -6  -1   14.50    8.00
   0   6  -1   -4.50    7.80
   0   6   1    0.90    6.50
   0   6  -1    8.40    7.90
   0   6   1    2.10    7.10
  -1  -6  -1   40.90    9.20
   1   6   1   30.10    9.50
  -1   6  -1   34.20    9.50
   1   6   1   34.70    6.40
  -1   6  -1   33.70    9.20
   1   6   1   31.70    8.50
   2  -6   1   55.19    9.70
  -2  -6  -1   84.39   11.10
  -2  -6  -1   70.09   10.90
   2  -6   1   98.99   12.50
   2   6   1   68.39   11.70
  -2   6  -1   64.59   13.60
   2   6   1   66.69   11.00
   2   6   1   63.59    8.10
  -2   6  -1   55.69   10.90
   3  -6   1   25.80   10.00
   3  -6   1   23.80   10.60
  -3  -6  -1   13.60    9.30
   3   6   1   15.20   10.30
   3   6   1   21.50    9.20
  -3   6  -1   19.60   10.10
  -4  -6  -1   56.09   12.60
  -4  -6  -1   52.99   13.10
  -4  -6  -1   66.59   13.70
   4  -6   1   81.29   14.10
  -4   6  -1   26.50   11.70
   4   6   1   58.29   10.20
   4   6   1   78.99   14.00
   4   6   1   57.99   13.70
  -4   6  -1   57.39   13.20
   4   6   1   48.10   12.90
  -5  -6  -1    5.80   13.40
  -5  -6  -1    9.40   14.20
  -5  -6  -1   -3.20   12.20
   5  -6   1   11.30   14.50
   5   6   1   44.00   15.40
   5   6   1    6.30   12.90
   5   6   1   -7.60   13.10
  -5   6  -1   26.70   14.70
   5   6   1  -18.50   11.50
  -5   6  -1  -12.50   11.70
  -5   6  -1    3.20   10.20
   4  -7  -1   27.10   15.80
  -4  -7   1   26.20   14.80
   4  -7  -1   48.80   14.70
  -4  -7   1   28.00   15.00
   4  -7  -1   33.10   16.20
  -4  -7   1   52.19   14.70
   4   7  -1   33.40   13.20
   4   7  -1   20.10   15.50
   4   7  -1   20.20   15.70
  -4   7   1   26.10   17.10
   4   7  -1   42.70   15.40
  -4   7   1   33.10   13.60
  -3  -7   1   -3.80   11.10
   3  -7  -1   -2.60   12.00
   3  -7  -1   -0.20   13.20
  -3  -7   1   -1.10   12.20
  -3  -7   1   17.10   11.70
   3  -7  -1    1.50   10.90
  -3   7   1   -8.80   11.00
  -3   7   1   -1.80   16.50
   3   7  -1  -22.20   11.10
   3   7  -1   16.70   12.80
   3   7  -1   -0.10   10.80
   3   7  -1  -12.40   12.90
  -3   7   1   18.90   13.80
  -2  -7   1    7.60   10.90
   2  -7  -1  -10.60   10.90
   2  -7  -1   18.40   11.00
   2  -7  -1   -4.40   11.20
  -2  -7   1    3.90   11.10
  -2  -7   1   10.80    9.70
   2   7  -1   -6.30    9.80
   2   7  -1    4.90    9.10
   2   7  -1   -0.60    8.70
  -2   7   1   -9.50   11.20
  -2   7   1   -3.90    6.90
   2   7  -1   14.70    9.20
  -1  -7   1   81.79   13.40
  -1  -7   1  109.99   14.60
  -1  -7   1   99.39   13.60
   1  -7  -1   99.19   13.30
   1  -7  -1   85.69   13.90
   1  -7  -1   86.89   14.00
   1   7  -1   67.29   12.40
   1   7  -1  103.49   14.70
   1   7  -1   67.29   10.20
  -1   7   1   83.59   13.90
   0  -7   1    8.60    9.30
   0  -7   1    0.30    9.50
   0  -7   1   24.60   12.80
   0  -7  -1   -1.60    9.20
   0  -7  -1   15.60   10.90
   0   7  -1   27.90   11.60
   0   7   1   25.60   11.10
   0   7  -1   21.10   10.80
   1  -7   1    0.50    9.80
  -1  -7  -1    6.60   11.10
   1  -7   1  -19.40    8.10
  -1  -7  -1   -4.10   10.50
  -1   7  -1  -18.80   11.20
  -1   7  -1    8.50   10.30
   1   7   1   -8.20    9.00
   1   7   1    7.30   12.40
   1   7   1    2.80    6.60
   2  -7   1  -10.30    8.00
  -2  -7  -1   14.40   10.50
  -2  -7  -1    5.00   11.40
   2  -7   1  -14.80    9.90
  -2  -7  -1   -3.80   10.50
  -2   7  -1    0.20   12.00
  -2   7  -1    3.20   11.50
   2   7   1   -3.20   11.40
   2   7   1  -15.90   11.00
   2   7   1    0.50   11.00
  -2   7  -1    3.80    8.00
   3  -7   1  112.59   14.90
   3  -7   1  108.59   16.70
  -3  -7  -1  143.09   16.30
  -3  -7  -1   85.99   16.30
   3  -7   1  110.49   16.40
  -3  -7  -1   96.59   16.30
   3   7   1  116.39   16.20
   3   7   1   95.99   15.20
  -3   7  -1  127.39   17.20
  -3   7  -1   74.49   15.20
   3   7   1  104.69   15.10
   4  -7   1   66.59   17.60
   4  -7   1   86.69   17.50
  -4  -7  -1   79.89   16.70
  -4  -7  -1   43.60   15.50
   4  -7   1   40.50   14.90
  -4  -7  -1   42.50   14.10
   4   7   1   37.50   16.60
   4   7   1   30.90   15.70
   4   7   1   84.09   17.80
   4   7   1   43.50   11.80
  -4   7  -1   45.20   15.30
  -4   7  -1   44.50   13.00
  -4   7  -1   15.00   16.00
  -3  -8   1   -9.40   18.40
  -3  -8   1   52.99   16.90
   3  -8  -1   46.80   18.60
   3  -8  -1   -2.50   16.70
  -3  -8   1   22.60   16.20
   3   8  -1   36.80   17.10
  -3   8   1   31.90   17.30
   3   8  -1   47.70   15.60
   3   8  -1   62.99   19.80
  -3   8   1   69.79   21.00
   3   8  -1   -7.40   19.70
   2  -8  -1   22.90   16.50
  -2  -8   1   26.50   15.70
   2  -8  -1   17.70   15.10
   2  -8  -1   18.40   16.30
  -2  -8   1   16.90   17.00
  -2  -8   1   25.10   13.90
  -2   8   1    0.40   14.20
  -2   8   1  -11.60   15.90
   2   8  -1   16.20   11.80
   2   8  -1   13.20   15.40
   2   8  -1  -21.60   16.00
   1  -8  -1   -6.40   13.40
  -1  -8   1    6.20   14.50
  -1  -8   1    7.40   15.10
  -1  -8   1   -9.90   13.90
   1  -8  -1   -6.20   13.40
   1  -8  -1   -3.30   15.10
  -1   8   1   -7.70    8.20
  -1   8   1   -7.70   13.00
   1   8  -1    6.40   13.60
  -1   8   1   10.60   15.40
   1   8  -1    4.20   14.90
   1   8  -1  -14.40   18.10
   0  -8   1    3.30   13.70
   0  -8  -1   34.20   15.70
   0  -8  -1   46.60   15.50
   0  -8   1   45.60   14.90
   0  -8  -1   15.20   15.80
   0  -8   1   21.10   14.30
   0   8   1    9.50   14.80
   0   8  -1   10.90   15.30
   0   8  -1    9.20   13.40
   0   8   1    3.80   13.60
   1  -8   1   22.60   14.50
   1  -8   1   11.30   15.50
  -1  -8  -1   28.80   15.60
   1  -8   1   -3.50   13.70
  -1  -8  -1   20.80   16.30
  -1  -8  -1   13.80   16.00
  -1   8  -1   11.80   13.70
   1   8   1   26.10   14.20
   1   8   1   17.60   14.90
  -1   8  -1   13.20   14.60
  -2  -8  -1    6.90   15.60
   2  -8   1    1.70   15.20
   2  -8   1  -13.20   14.00
   2  -8   1   42.80   17.70
  -2  -8  -1    8.60   16.10
  -2  -8  -1    3.60   15.40
   2   8   1   -6.30   16.60
   2   8   1  -21.90   14.80
   2   8   1  -10.50   10.00
  -2   8  -1   -7.30   15.40
  -2   8  -1  -14.90   16.90
   8   0  -2   45.30   15.10
  -8   0   2   24.70   11.50
   8   0  -2   24.90   14.50
   8   0  -2   24.70   15.90
  -8   0   2   56.99   13.70
   8   0  -2   23.10   14.70
  -8   0   2    3.60   13.00
   7   0  -2   10.50   10.80
   7   0  -2    1.40    9.40
  -7   0   2    8.60   10.40
  -7   0   2   13.40   11.70
   7   0  -2    1.00   10.00
   7   0  -2   -0.30    9.70
   6   0  -2  344.57   20.00
   6   0  -2  299.67   20.30
  -6   0   2  335.37   18.30
   6   0  -2  285.47   23.40
   6   0  -2  347.77   20.00
  -5   0   2    3.60    4.30
  -5   0   2   -1.80    4.40
   5   0  -2   -2.60    4.70
  -5   0   2    1.50    4.70
   4   0  -2    1.20    3.80
  -4   0   2    5.40    3.60
  -4   0   2   -2.40    4.20
  -4   0   2    3.30    3.40
   4   0  -2    0.40    3.70
   4   0  -2   -0.90    3.80
  -3   0   2   -1.00    2.40
   3   0  -2   -2.60    2.70
  -3   0   2    3.70    2.60
   3   0  -2   -1.50    3.00
  -3   0   2    0.50    2.50
  -2   0   2  650.43   19.10
   2   0  -2  642.34   20.30
  -2   0   2  644.64   20.10
   2   0  -2  634.94   19.50
   2   0  -2  640.64   19.30
  -2   0   2  654.53   18.90
   1   0  -2    5.50    1.00
   1   0  -2    6.70    1.70
   1   0  -2    4.10    1.00
  -1   0   2    4.70    1.90
   0   0   2 1129.59   29.90
   0   0  -2 1133.69   29.90
   1   0   2    0.90    1.80
  -1   0  -2    0.20    1.60
  -1   0  -2    0.00    1.80
   1   0   2    0.20    1.80
  -1   0  -2    1.60    1.70
  -1   0  -2    1.90    1.70
   1   0   2    1.70    1.70
   2   0   2   -0.50    2.40
   2   0   2    1.90    2.30
   2   0   2    2.90    2.50
  -2   0  -2   -3.30    2.30
  -2   0  -2   -3.60    2.20
  -2   0  -2   -2.40    2.00
   2   0   2    1.80    2.40
   3   0   2    4.20    3.40
   3   0   2    3.30    3.00
  -3   0  -2    6.30    3.70
   3   0   2    2.80    2.70
  -3   0  -2    2.40    3.10
   3   0   2    3.00    2.70
   4   0   2  628.94   24.60
   4   0   2  645.84   24.50
   4   0   2  666.83   24.00
   4   0   2  640.34   24.10
  -4   0  -2  633.34   23.70
  -4   0  -2  612.44   24.00
  -4   0  -2  666.93   24.30
  -5   0  -2    3.30    6.00
   5   0   2    0.60    5.80
  -5   0  -2   -3.40    5.30
   5   0   2   -7.80    5.50
   5   0   2   -8.30    5.30
  -5   0  -2   -8.20    5.60
  -6   0  -2   62.09   11.00
  -6   0  -2   98.39   12.00
   6   0   2   59.19   10.20
   7   0   2    9.30    9.30
  -7   0  -2   -0.40   10.70
  -7   0  -2   14.80   10.60
   7   0   2   -8.10    9.30
   7   0   2  -10.70   10.20
  -7   0  -2  -20.10    8.70
   7   0   2   -7.90    8.70
   8   0   2   20.80   14.90
  -8   0  -2    2.90   15.10
   8   0   2   39.60   18.20
  -8   0  -2    7.60   14.90
   8   0   2   12.60   16.20
   8   0   2   34.90   15.20
  -8   0  -2   23.20   15.30
   8  -1  -2  -16.70   13.50
   8  -1  -2  -30.00   14.40
  -8  -1   2   17.10   12.60
   8  -1  -2   10.30   14.00
  -8  -1   2  -18.00   12.30
   8  -1  -2    3.70   13.80
  -8   1   2    3.00   14.80
   8   1  -2   15.40   14.70
   8   1  -2  -16.80   14.00
   8   1  -2   19.40   13.10
   8   1  -2   -1.10   15.00
  -8   1   2  -16.40   12.70
   7  -1  -2   14.10   10.40
   7  -1  -2   -0.20   10.60
   7  -1  -2   12.30    9.60
  -7  -1   2    3.80    9.90
  -7  -1   2   -0.30   10.80
  -7  -1   2    8.50    9.20
   7   1  -2   17.90    8.20
  -7   1   2   -0.10   10.20
  -7   1   2    3.40    8.60
   7   1  -2   -5.50   11.00
   7   1  -2   11.80   11.50
   7   1  -2   15.20   10.40
  -6  -1   2    2.20    6.80
  -6  -1   2   -1.60    9.50
   6  -1  -2   -3.10    7.10
   6  -1  -2   12.20    7.80
  -6  -1   2    0.10    6.60
   6   1  -2    0.60    7.20
  -6   1   2    4.80    7.30
   6   1  -2    4.10    6.10
   6   1  -2   10.40    8.30
  -6   1   2    3.00    6.40
  -5  -1   2    4.20    4.50
   5  -1  -2   -1.10    5.40
  -5  -1   2    0.80    4.90
  -5  -1   2    1.00    5.10
  -5   1   2   -3.70    5.50
  -5   1   2   -1.50    4.50
   5   1  -2   -2.80    5.70
   5   1  -2    2.30    6.10
  -5   1   2    3.20    4.80
  -4  -1   2  240.08   13.40
   4  -1  -2  233.28   13.10
  -4  -1   2  243.58   12.50
   4  -1  -2  256.07   12.70
   4  -1  -2  243.78   12.90
  -4  -1   2  253.67   12.70
  -4   1   2  242.08   12.00
   4   1  -2  263.37   13.70
   4   1  -2  245.68   13.70
   4   1  -2  236.98   13.10
   4   1  -2  249.97   13.70
  -4   1   2  263.67   12.90
  -4   1   2  249.08   13.40
   3  -1  -2   18.60    3.50
  -3  -1   2   18.90    3.70
  -3  -1   2   21.60    3.80
   3  -1  -2   21.30    4.00
   3  -1  -2   18.50    4.00
  -3  -1   2   10.00    3.50
   3   1  -2   14.30    3.90
   3   1  -2   19.10    3.90
   3   1  -2   16.50    3.90
  -3   1   2   23.90    4.20
   3   1  -2   24.60    4.40
  -3   1   2   18.80    3.50
  -3   1   2   18.50    3.40
   2  -1  -2    4.00    2.10
  -2  -1   2   10.40    2.40
   2  -1  -2    4.30    2.40
  -2  -1   2    5.60    2.30
  -2  -1   2    5.30    2.20
   2  -1  -2    0.50    2.00
  -2   1   2    8.10    2.50
   2   1  -2    3.30    2.30
   2   1  -2    4.60    2.20
   2   1  -2    6.50    2.40
   2   1  -2    5.60    2.40
  -2   1   2    6.10    2.10
  -1  -1   2   12.40    2.10
   1  -1  -2   10.20    1.70
   1  -1  -2   20.20    2.70
   1  -1  -2   12.90    1.90
  -1  -1   2   11.40    2.10
   1   1  -2   12.70    1.80
  -1   1   2   14.00    1.70
  -1   1   2   11.80    1.90
   1   1  -2   12.70    2.30
  -1   1   2   12.00    1.50
   1   1  -2    9.50    2.10
   1   1  -2   12.30    2.60
   0  -1   2  367.26   11.40
   0  -1  -2  366.16   12.10
   0  -1  -2  348.97   10.90
   0  -1   2  362.56   11.30
   0  -1  -2  362.66   10.90
   0   1  -2  367.46   11.60
   0   1   2  340.27   10.50
   0   1   2  355.36   10.60
   0   1  -2  364.16   11.60
   0   1   2  358.86   12.20
   1  -1   2  265.67    9.90
   1  -1   2  256.67    9.80
  -1  -1  -2  257.07   10.10
  -1  -1  -2  249.28    8.40
  -1  -1  -2  254.37    9.70
  -1  -1  -2  258.47    9.80
   1   1   2  268.07   10.30
  -1   1  -2  249.58   10.00
   1   1   2  269.67    8.50
   1   1   2  250.37    9.60
  -1   1  -2  259.87   10.00
   2  -1   2  215.88   10.30
  -2  -1  -2  237.28   10.80
   2  -1   2  223.28   10.50
  -2  -1  -2  229.28    9.30
  -2  -1  -2  244.08   10.80
  -2  -1  -2  241.98   10.60
  -2   1  -2  219.68    9.80
   2   1   2  231.18   10.30
   2   1   2  241.08   10.70
  -2   1  -2  211.08   10.30
   2   1   2  239.88   10.50
   2   1   2  227.28    9.30
  -2   1  -2  224.58   10.70
  -3  -1  -2   33.60    4.70
  -3  -1  -2   35.40    5.30
   3  -1   2   36.40    5.50
  -3  -1  -2   38.90    5.50
   3  -1   2   36.10    4.80
   3  -1   2   36.20    5.40
  -3  -1  -2   36.10    5.30
   3   1   2   35.50    4.90
   3   1   2   32.50    4.90
  -3   1  -2   29.90    5.00
  -3   1  -2   37.50    5.40
   3   1   2   36.60    5.30
   3   1   2   38.30    5.00
  -3   1  -2   33.60    5.30
  -4  -1  -2   15.70    5.50
   4  -1   2   13.90    4.70
  -4  -1  -2   21.70    5.80
   4  -1   2   15.30    5.20
  -4  -1  -2   19.80    4.40
   4  -1   2   14.90    4.50
   4  -1   2   21.00    5.30
   4   1   2   19.60    5.30
  -4   1  -2   18.90    5.40
   4   1   2   14.40    5.50
  -4   1  -2   19.00    5.50
   4   1   2   15.80    4.80
  -4   1  -2   16.40    5.10
   4   1   2   21.70    5.30
  -5  -1  -2    4.10    6.20
   5  -1   2   -5.30    5.80
   5  -1   2    4.50    5.70
   5  -1   2    7.30    6.80
  -5  -1  -2    5.10    6.00
  -5  -1  -2    2.10    6.00
   5  -1   2    0.90    5.10
   5   1   2   -0.10    4.90
  -5   1  -2    4.80    4.70
   5   1   2    0.00    5.40
   5   1   2   -4.00    6.20
  -5   1  -2   -2.80    5.50
   6  -1   2  338.17   20.70
  -6  -1  -2  308.37   19.70
  -6  -1  -2  332.77   20.90
   6  -1   2  309.97   20.40
  -6  -1  -2  288.97   20.70
   6  -1   2  303.37   19.70
   6   1   2  296.67   20.10
   6   1   2  245.88   20.50
  -6   1  -2  287.67   22.30
  -6   1  -2  295.77   20.30
  -7  -1  -2   25.60   10.80
   7  -1   2   19.70    8.50
  -7  -1  -2   15.90   11.10
   7  -1   2   13.20    9.60
   7  -1   2   11.40   10.50
   7  -1   2    0.60    8.80
  -7  -1  -2    3.60   10.40
   7   1   2    7.70   10.80
  -7   1  -2    4.60    8.40
  -7   1  -2   -4.50   10.60
   7   1   2    3.50   11.30
   7   1   2  -15.50   11.10
   7   1   2   -1.20   11.70
  -7   1  -2   10.50   11.30
  -8  -1  -2   -0.20   15.30
  -8  -1  -2   10.20   15.90
   8  -1   2    9.10   16.30
   8  -1   2    9.10   15.50
   8  -1   2   -5.30   11.40
  -8  -1  -2   18.20   15.70
  -8   1  -2  -18.00   14.10
   8   1   2  -10.10   13.40
  -8   1  -2   -2.90   15.70
   8   1   2   -3.40   15.40
   8   1   2   16.70   17.50
   8   1   2   11.90   14.50
  -8   1  -2   -7.80   13.90
   8  -2  -2  -18.40   16.50
  -8  -2   2   -8.50   15.90
   8  -2  -2  -14.40   15.00
   8  -2  -2   -8.00   13.60
  -8  -2   2    3.60   12.90
  -8  -2   2   14.80   12.80
   8   2  -2    7.40   15.20
  -8   2   2    6.50   13.00
  -8   2   2    6.10   14.50
  -8   2   2   13.80   15.20
   8   2  -2   14.60   15.00
   8   2  -2    9.80   17.50
   8   2  -2    4.50   13.10
  -7  -2   2    7.00    9.90
  -7  -2   2    5.00    9.50
   7  -2  -2    2.60    9.60
   7  -2  -2  -12.30    9.60
  -7  -2   2   -3.50   10.50
   7  -2  -2   -6.90   11.40
   7   2  -2   17.30   12.30
   7   2  -2   16.90   10.10
  -7   2   2    2.80    8.10
   7   2  -2    5.10   12.00
   7   2  -2   -7.10    7.80
  -7   2   2  -15.90    8.10
  -6  -2   2  401.86   21.30
  -6  -2   2  393.66   23.00
  -6  -2   2  384.76   21.40
   6  -2  -2  378.66   22.80
   6  -2  -2  396.96   23.20
   6  -2  -2  415.56   25.40
  -6   2   2  379.06   22.50
   6   2  -2  450.85   23.70
  -6   2   2  396.16   20.40
   6   2  -2  423.56   23.80
  -6   2   2  411.66   20.70
   6   2  -2  404.36   20.90
  -5  -2   2    0.10    5.60
  -5  -2   2   10.50    5.30
   5  -2  -2    2.30    6.60
   5  -2  -2    4.70    3.90
   5   2  -2   -9.80    5.20
   5   2  -2   -7.70    5.70
  -5   2   2   -2.70    4.80
   5   2  -2   -3.10    5.90
   5   2  -2    2.80    6.40
  -5   2   2  -15.60    5.50
  -5   2   2    2.80    5.80
  -4  -2   2   44.40    6.40
  -4  -2   2   36.40    6.70
   4  -2  -2   42.70    6.30
   4  -2  -2   33.40    6.20
  -4  -2   2   37.40    6.10
   4   2  -2   40.60    6.60
  -4   2   2   42.70    6.10
   4   2  -2   30.70    6.10
   4   2  -2   40.30    6.70
   4   2  -2   39.40    6.60
  -4   2   2   34.20    6.30
  -3  -2   2  710.23   24.50
   3  -2  -2  721.33   24.10
   3  -2  -2  708.53   24.50
  -3  -2   2  738.13   24.60
   3  -2  -2  752.42   24.80
  -3  -2   2  734.23   24.70
   3   2  -2  704.23   24.70
   3   2  -2  694.83   24.10
  -3   2   2  733.03   23.70
  -3   2   2  701.63   23.50
  -3   2   2  725.63   24.00
   3   2  -2  739.43   25.20
   3   2  -2  702.63   25.00
   2  -2  -2   98.29    6.90
  -2  -2   2   99.19    7.10
  -2  -2   2  100.99    6.30
   2  -2  -2  107.29    6.30
  -2  -2   2   89.69    6.90
   2  -2  -2   98.99    7.20
  -2   2   2  103.39    6.50
   2   2  -2  104.59    7.60
   2   2  -2   95.99    6.60
   2   2  -2  110.49    7.50
  -2   2   2  110.69    6.40
   2   2  -2  100.59    7.40
  -2   2   2  112.69    6.80
  -1  -2   2  353.66   13.10
  -1  -2   2  375.06   13.30
   1  -2  -2  351.56   12.80
  -1  -2   2  368.26   11.70
   1  -2  -2  359.86   12.80
  -1   2   2  358.06   12.40
  -1   2   2  354.56   12.40
   1   2  -2  359.46   13.50
  -1   2   2  361.26   11.40
   1   2  -2  351.26   11.70
   1   2  -2  354.36   13.40
   0  -2   2    2.20    2.30
   0  -2   2    0.60    2.40
   0  -2  -2    1.70    2.20
   0  -2   2    9.00    1.80
   0  -2  -2    2.90    2.20
   0  -2  -2    0.30    2.10
   0   2  -2    2.40    2.50
   0   2   2    1.60    2.20
   0   2   2    2.70    2.10
   0   2  -2    1.70    2.60
   0   2   2    3.20    2.00
   1  -2   2  952.20   28.20
  -1  -2  -2  916.11   28.40
   1  -2   2  933.71   28.10
  -1  -2  -2  911.61   25.30
  -1  -2  -2  899.51   27.80
  -1  -2  -2  924.51   28.00
   1   2   2  934.11   28.40
   1   2   2  929.21   25.30
   1   2   2  932.41   27.70
  -1   2  -2  915.71   28.20
   1   2   2  926.11   27.70
  -1   2  -2  909.81   28.40
   2  -2   2   30.60    4.70
  -2  -2  -2   34.20    5.00
  -2  -2  -2   34.10    5.00
   2  -2   2   34.80    4.90
  -2  -2  -2   33.90    4.50
  -2  -2  -2   29.20    4.20
   2   2   2   35.10    4.10
   2   2   2   32.40    4.80
  -2   2  -2   31.30    4.90
   2   2   2   28.30    4.50
   2   2   2   26.40    4.80
  -2   2  -2   41.60    5.40
  -2   2  -2   37.50    4.70
   3  -2   2  135.99   10.10
  -3  -2  -2  138.69   10.20
  -3  -2  -2  121.89    9.70
   3  -2   2  108.59    9.90
  -3  -2  -2  134.69    8.30
  -3  -2  -2  122.19   10.00
  -3   2  -2  129.39    9.60
   3   2   2  134.09   10.10
   3   2   2  105.49    9.30
  -3   2  -2  130.19   10.00
   3   2   2  122.09    8.00
   3   2   2  140.19   10.10
  -3   2  -2  120.09    9.40
   4  -2   2  462.15   21.60
  -4  -2  -2  503.15   20.00
  -4  -2  -2  511.55   22.10
   4  -2   2  522.25   22.40
  -4  -2  -2  446.16   21.60
  -4  -2  -2  488.85   21.20
  -4   2  -2  509.75   21.80
   4   2   2  514.65   22.10
   4   2   2  500.85   21.90
   4   2   2  538.55   20.20
  -4   2  -2  539.35   21.30
  -4   2  -2  509.85   21.40
  -5  -2  -2   63.49    9.70
   5  -2   2   70.49   10.10
   5  -2   2   60.39    9.00
  -5  -2  -2   64.29    8.80
  -5  -2  -2   50.99    8.80
  -5   2  -2   70.89    9.80
   5   2   2   46.50    8.70
  -5   2  -2   53.29    8.30
  -5   2  -2   89.49   12.40
   5   2   2   54.39    9.60
   5   2   2   93.49   12.90
  -6  -2  -2   26.90    9.40
   6  -2   2   23.20    9.50
  -6  -2  -2   28.80    9.50
  -6   2  -2   16.20    9.10
   6   2   2   23.70    7.60
   7  -2   2   13.10    9.50
  -7  -2  -2    7.20   11.70
   7  -2   2   16.60   12.40
  -7  -2  -2   24.80   12.30
   7  -2   2   17.80   12.70
  -7  -2  -2   18.90   12.40
   7   2   2   15.50   13.10
   7   2   2  -11.30   12.00
   7   2   2   41.00   12.20
  -7   2  -2   13.30   11.80
   7   2   2   -1.70   11.20
  -7   2  -2   11.40    9.10
  -7   2  -2   18.20   11.90
  -8  -2  -2   -1.90   16.20
   8  -2   2   21.50   17.20
   8  -2   2   22.20   17.90
  -8  -2  -2   -7.40   16.40
   8  -2   2   31.20   16.90
  -8  -2  -2    3.10   16.90
   8   2   2   42.50   20.10
   8   2   2   -3.20   19.40
   8   2   2   23.70   15.90
   8   2   2   -8.10   16.10
  -8   2  -2   15.20   20.30
  -8   2  -2   -2.90   16.10
  -8   2  -2   22.20   16.40
   7  -3  -2  116.69   15.70
  -7  -3   2   95.59   15.50
   7  -3  -2  107.89   16.60
   7  -3  -2  126.29   16.50
  -7  -3   2  105.59   15.00
   7   3  -2   82.19   15.70
   7   3  -2  125.89   17.10
  -7   3   2  119.49   14.60
   7   3  -2   87.99   14.50
  -7   3   2  119.89   15.80
  -7   3   2  103.89   16.10
  -6  -3   2   -3.70    9.00
   6  -3  -2    3.70    9.60
   6  -3  -2   -7.10    7.70
   6  -3  -2   -4.40    7.50
  -6  -3   2    3.70    7.90
   6   3  -2    9.90    9.20
   6   3  -2    5.90    9.50
  -6   3   2    5.80    8.10
   6   3  -2    0.80    9.40
   6   3  -2   -9.10    6.40
   5  -3  -2    2.50    7.20
   5  -3  -2    8.10    6.30
   5  -3  -2    3.30    6.80
  -5  -3   2   -0.30    6.50
  -5  -3   2   -7.40    8.00
  -5  -3   2   13.10    6.10
   5   3  -2    6.40    6.30
   5   3  -2   -1.50    6.80
   5   3  -2    1.20    6.80
  -5   3   2    1.50    6.30
  -5   3   2    8.40    6.00
   5   3  -2    5.70    6.90
   4  -3  -2   24.90    5.60
  -4  -3   2   10.30    5.90
  -4  -3   2   12.80    6.00
   4  -3  -2   23.80    6.50
   4   3  -2   13.30    6.10
   4   3  -2   16.80    5.80
  -4   3   2   17.20    5.20
  -4   3   2   12.90    5.30
  -4   3   2   15.30    5.40
  -3  -3   2  511.55   20.50
  -3  -3   2  515.75   20.30
   3  -3  -2  481.25   20.30
   3  -3  -2  517.35   20.40
  -3  -3   2  506.65   19.30
  -3   3   2  507.85   19.30
  -3   3   2  515.15   19.10
   3   3  -2  478.15   20.80
   3   3  -2  509.55   20.80
   3   3  -2  518.45   20.20
   3   3  -2  507.35   19.40
  -3   3   2  502.05   19.20
   2  -3  -2   11.10    4.10
  -2  -3   2   20.70    4.80
   2  -3  -2   21.50    4.30
  -2  -3   2   28.30    4.30
  -2  -3   2   21.50    4.70
  -2   3   2   24.70    4.50
   2   3  -2   21.60    5.00
   2   3  -2   23.40    4.60
   2   3  -2   16.10    3.90
  -2   3   2   26.60    3.90
  -2   3   2   22.50    4.20
   2   3  -2   16.10    4.90
  -1  -3   2  565.44   18.20
   1  -3  -2  600.34   20.70
   1  -3  -2  530.55   19.70
   1  -3  -2  541.85   19.70
  -1  -3   2  555.44   20.30
  -1  -3   2  564.04   20.30
  -1   3   2  578.54   19.50
  -1   3   2  570.44   17.40
   1   3  -2  573.14   18.40
   1   3  -2  538.95   20.40
   1   3  -2  586.74   20.90
  -1   3   2  559.84   19.40
   0  -3  -2   57.39    6.50
   0  -3  -2   56.59    6.70
   0  -3   2   58.59    6.00
   0  -3  -2   56.29    5.90
   0  -3   2   63.49    6.90
   0  -3   2   58.39    5.10
   0   3   2   61.39    7.10
   0   3   2   57.99    6.10
   0   3   2   57.29    6.10
   0   3  -2   69.29    7.20
   0   3  -2   58.19    7.00
  -1  -3  -2  594.04   21.80
  -1  -3  -2  610.94   21.50
  -1  -3  -2  634.34   22.00
   1  -3   2  620.34   21.70
   1  -3   2  608.54   22.10
  -1   3  -2  612.24   22.20
   1   3   2  605.84   21.60
   1   3   2  598.94   21.30
   1   3   2  626.64   21.50
  -1   3  -2  610.44   21.70
   1   3   2  614.44   18.20
   2  -3   2  224.08   12.60
  -2  -3  -2  213.28   12.60
  -2  -3  -2  236.18   12.80
  -2  -3  -2  240.58   12.70
   2  -3   2  228.78   12.70
   2   3   2  248.18   10.00
   2   3   2  246.88   12.70
  -2   3  -2  242.88   13.10
   2   3   2  233.58   12.50
  -2   3  -2  217.58   12.90
   2   3   2  216.28   12.80
   3  -3   2    2.50    5.00
   3  -3   2    4.90    3.60
  -3  -3  -2    3.10    3.60
  -3  -3  -2    1.10    4.90
  -3  -3  -2   -3.30    3.30
  -3  -3  -2    1.10    4.60
   3   3   2    7.40    4.60
   3   3   2    3.60    3.30
  -3   3  -2    0.30    4.30
  -3   3  -2    3.60    3.60
   3   3   2    2.40    5.00
  -3   3  -2    0.40    4.70
   3   3   2    2.10    3.80
  -4  -3  -2  197.28   12.50
  -4  -3  -2  185.18   14.60
  -4  -3  -2  227.38   14.40
   4  -3   2  211.88   14.10
  -4  -3  -2  204.38   14.80
   4  -3   2  188.58   14.40
   4   3   2  229.78   12.60
   4   3   2  211.68   13.30
   4   3   2  208.88   15.60
  -4   3  -2  234.48   15.50
   4   3   2  213.08   14.00
  -4   3  -2  249.68   14.80
  -4   3  -2  195.38   12.90
   5  -3   2  152.58   21.50
  -5  -3  -2  191.18   16.50
  -5  -3  -2  183.28   14.20
  -5  -3  -2  174.08   19.20
  -5  -3  -2  191.58   16.00
  -5   3  -2  177.58   14.30
  -5   3  -2  151.88   15.70
   5   3   2  152.68   16.50
   5   3   2  176.08   16.10
  -5   3  -2  163.78   13.50
   6  -3   2  189.98   19.60
  -6  -3  -2  118.59   14.80
  -6  -3  -2  168.78   19.20
  -6  -3  -2  185.98   17.30
   6   3   2  161.78   15.40
   6   3   2  178.38   20.70
   6   3   2  151.28   19.40
  -6   3  -2  159.28   17.90
   7  -3   2   16.90   14.00
  -7  -3  -2    0.50   12.60
  -7  -3  -2   -5.00   12.00
  -7  -3  -2   -3.20   13.40
   7  -3   2   -8.30   11.30
   7   3   2    9.60   12.70
  -7   3  -2    5.70   13.00
   7   3   2   -8.50    9.70
   7   3   2  -33.10   12.70
  -7   3  -2    3.50   12.80
   7   3   2   20.80   13.10
  -7  -4   2    2.70   13.30
  -7  -4   2   17.30   14.30
   7  -4  -2   14.40   15.50
   7  -4  -2   13.70   14.80
  -7  -4   2   19.30   13.70
  -7   4   2   29.70   14.50
  -7   4   2    2.80   12.40
   7   4  -2  -15.00   12.60
   7   4  -2  -21.30   15.70
   7   4  -2    4.10   14.10
   6  -4  -2   68.79   14.00
  -6  -4   2   78.49   12.30
   6  -4  -2   45.70   11.50
  -6   4   2   40.60   12.00
   6   4  -2   51.79   12.50
   6   4  -2   62.09   12.90
   6   4  -2   58.59   12.50
  -6   4   2   57.69   15.60
   6   4  -2   51.49   11.90
  -5  -4   2   42.20   10.10
  -5  -4   2   61.59   10.60
   5  -4  -2   45.60   10.50
  -5   4   2   39.80    8.60
   5   4  -2   38.60   10.50
   5   4  -2   51.69   10.10
  -5   4   2   59.79    9.10
   5   4  -2   61.49   10.90
   5   4  -2   28.70   11.20
   4  -4  -2    7.30    6.60
  -4  -4   2    7.80    6.90
   4  -4  -2    5.60    6.50
  -4  -4   2    5.40    6.50
  -4   4   2    1.00    5.40
   4   4  -2   12.70    6.60
   4   4  -2    1.30    6.30
  -4   4   2   11.40    5.90
   4   4  -2    6.90    6.60
  -4   4   2   20.20    5.60
   3  -4  -2  757.42   29.60
   3  -4  -2  828.12   29.20
  -3  -4   2  736.33   29.30
  -3  -4   2  795.72   28.00
   3   4  -2  846.72   28.90
  -3   4   2  764.92   27.10
   3   4  -2  837.02   29.70
   3   4  -2  791.72   28.10
  -3   4   2  781.82   28.00
  -3   4   2  799.92   28.60
   3   4  -2  816.62   30.90
   2  -4  -2  112.69   10.20
   2  -4  -2   90.09   10.20
  -2  -4   2   92.09   10.00
  -2  -4   2  115.69    9.90
  -2  -4   2   88.59    8.10
  -2   4   2   96.59    9.30
   2   4  -2   96.29    9.00
   2   4  -2   98.49   10.80
   2   4  -2  103.29    9.40
  -2   4   2   98.19    7.40
  -2   4   2   98.19    9.30
   2   4  -2  114.99   10.60
  -1  -4   2    3.40    3.50
   1  -4  -2    3.40    4.40
  -1  -4   2   -0.10    3.90
  -1  -4   2    5.30    4.60
   1  -4  -2   -3.90    4.10
   1  -4  -2   -1.30    4.30
   1   4  -2    2.20    4.60
  -1   4   2    1.70    2.40
  -1   4   2    2.00    4.10
   1   4  -2    6.20    4.00
  -1   4   2    0.50    3.80
   1   4  -2    3.90    3.80
   0  -4  -2    3.00    4.70
   0  -4  -2    5.90    4.60
   0  -4   2    3.60    4.60
   0  -4   2    5.90    3.40
   0  -4  -2    1.60    3.30
   0  -4   2    0.40    4.30
   0   4  -2    5.30    3.40
   0   4   2    4.70    4.20
   0   4   2    1.90    3.70
   0   4  -2    2.80    4.60
   1  -4   2 1972.20   57.39
   1  -4   2 2146.69   60.59
  -1  -4  -2 2051.89   59.89
  -1  -4  -2 2042.50   59.99
  -1  -4  -2 1998.10   59.69
   1  -4   2 1971.50   59.99
   1   4   2 2041.50   55.09
  -1   4  -2 2066.69   60.49
   1   4   2 2081.49   59.59
   1   4   2 2017.90   59.39
   1   4   2 2035.80   60.09
  -1   4  -2 2008.60   60.19
   2  -4   2  436.16   20.80
   2  -4   2  530.25   20.40
  -2  -4  -2  455.95   20.40
  -2  -4  -2  518.55   20.10
  -2  -4  -2  432.96   20.60
  -2   4  -2  547.15   20.70
  -2   4  -2  471.05   21.00
   2   4   2  450.95   20.70
   2   4   2  467.95   19.70
   2   4   2  420.26   19.90
   2   4   2  448.76   16.50
  -3  -4  -2  250.27   15.90
   3  -4   2  239.48   14.70
  -3  -4  -2  283.57   15.60
  -3  -4  -2  241.18   16.10
   3  -4   2  277.37   17.10
  -3   4  -2  294.37   16.00
   3   4   2  276.77   16.60
   3   4   2  228.48   16.10
   3   4   2  265.07   12.60
  -3   4  -2  239.08   14.90
  -3   4  -2  260.07   14.20
  -4  -4  -2   16.00    6.10
  -4  -4  -2    2.00    5.30
   4  -4   2    9.10    6.70
  -4  -4  -2   14.80    6.20
  -4   4  -2    4.80    6.90
   4   4   2    0.10    7.10
   4   4   2   26.50   15.00
  -4   4  -2    9.00    7.40
   4   4   2   16.30    9.80
   4   4   2    7.70    5.50
   5  -4   2   41.30    9.80
  -5  -4  -2   31.20   10.10
  -5  -4  -2   34.30    8.40
  -5  -4  -2   29.10    9.70
   5   4   2   22.40   10.80
   5   4   2   27.60    7.90
   5   4   2   53.09   11.10
  -5   4  -2   28.50    9.90
   6  -4   2   11.10   11.40
  -6  -4  -2   -4.10    9.80
  -6  -4  -2   -1.80   10.50
  -6  -4  -2    7.80    9.80
   6  -4   2   -0.10   12.00
  -6   4  -2   24.80   12.50
   6   4   2   15.50   12.10
  -6   4  -2    7.60   11.40
  -6   4  -2   13.10    9.20
   6   4   2   -0.80   12.30
   6   4   2   -0.60    9.90
   7  -4   2   28.80   14.70
  -7  -4  -2   19.90   14.00
   7  -4   2   32.00   16.90
  -7  -4  -2    8.10   15.10
  -7  -4  -2   39.40   16.40
  -7   4  -2   43.40   17.10
   7   4   2   20.60   14.60
  -7   4  -2   12.90   11.90
   7   4   2   20.70   17.40
   7   4   2   -3.20   16.10
  -7   4  -2   17.10   15.10
   7   4   2   11.30   14.50
  -6  -5   2   -4.10   11.50
  -6  -5   2    9.00   11.90
   6  -5  -2  -14.90   13.70
   6  -5  -2    9.60   12.90
   6   5  -2  -11.10   12.50
   6   5  -2    7.00   14.50
  -6   5   2    8.00   10.70
   6   5  -2    5.60   13.20
   6   5  -2    6.30   12.50
  -6   5   2  -11.80   12.20
   5  -5  -2   40.40   12.10
   5  -5  -2    8.90    9.40
  -5  -5   2   31.20   11.00
   5   5  -2   40.90   11.10
   5   5  -2   34.30   12.00
   5   5  -2   46.80   11.20
   5   5  -2   32.10   11.90
  -5   5   2   31.80    9.70
  -5   5   2   37.60   11.30
  -4  -5   2  122.89   14.30
   4  -5  -2   98.89   12.70
  -4  -5   2   87.29   11.70
  -4   5   2  103.99   14.70
   4   5  -2  113.89   12.50
   4   5  -2  131.89   16.30
   4   5  -2  108.69   12.10
  -4   5   2  127.59   15.30
  -4   5   2  106.59   12.70
  -3  -5   2  167.88   15.50
   3  -5  -2  167.78   15.40
  -3  -5   2  162.28   15.20
   3   5  -2  193.68   15.40
  -3   5   2  164.08   13.60
  -3   5   2  218.08   14.50
  -3   5   2  159.58   12.60
   3   5  -2  180.78   16.20
   3   5  -2  188.28   21.90
  -2  -5   2  134.99   13.20
   2  -5  -2  140.49   13.90
   2  -5  -2  118.99   12.60
   2  -5  -2  147.59   13.40
  -2  -5   2  131.89   11.60
  -2  -5   2  131.49   13.60
   2   5  -2  128.99   11.50
  -2   5   2  146.59   10.20
   2   5  -2  158.38   14.10
  -2   5   2  141.09   13.10
  -2   5   2  140.49   11.70
   2   5  -2  128.29   14.10
  -1  -5   2  150.08   10.50
   1  -5  -2  138.09   13.00
  -1  -5   2  154.68   13.70
   1  -5  -2  144.09   11.60
  -1   5   2  141.59   11.90
   1   5  -2  127.29   13.30
   1   5  -2  147.39   13.30
  -1   5   2  135.69    8.70
   0  -5  -2   61.39    8.50
   0  -5   2   62.99    7.30
   0  -5   2   60.69    9.00
   0  -5  -2   39.10    7.70
   0   5  -2   58.09    8.70
   0   5   2   60.19    8.10
   1  -5   2   29.90    7.70
  -1  -5  -2   26.00    7.40
   1  -5   2   33.50    7.50
   1  -5   2   26.70    6.10
   1   5   2   30.90    4.50
  -1   5  -2   24.00    6.90
   1   5   2   26.30    7.40
  -1   5  -2   34.70    7.60
   1   5   2   16.60    6.30
  -2  -5  -2  441.96   21.10
   2  -5   2  448.66   22.10
  -2  -5  -2  406.06   21.10
   2  -5   2  437.06   19.60
  -2  -5  -2  410.76   21.40
   2  -5   2  413.76   20.80
  -2   5  -2  412.46   21.50
  -2   5  -2  432.56   21.70
   2   5   2  424.56   16.60
   2   5   2  418.06   21.30
   2   5   2  418.06   21.20
   2   5   2  433.16   22.20
   3  -5   2  114.09   13.40
  -3  -5  -2  138.59   14.60
  -3  -5  -2  153.78   14.90
   3   5   2  141.59   10.10
  -3   5  -2  154.38   15.40
  -3   5  -2  129.29   13.40
   3   5   2  160.08   15.50
   3   5   2  144.89   18.50
  -3   5  -2  133.39   15.90
  -4  -5  -2   15.50    9.50
  -4  -5  -2   -0.90    6.40
   4  -5   2    3.70    8.10
  -4   5  -2   -1.90    6.60
  -4   5  -2   13.80    7.90
   4   5   2    4.40    9.40
   4   5   2    8.10    9.40
  -5  -5  -2  204.18   20.80
  -5  -5  -2  155.88   20.30
  -5  -5  -2  176.98   21.30
   5  -5   2  165.28   17.50
  -5   5  -2  169.88   20.70
   5   5   2  190.18   21.60
  -5   5  -2  184.08   21.10
  -5   5  -2  167.78   19.30
   5   5   2  177.08   17.40
   5   5   2  190.08   22.60
   5   5   2  220.58   21.10
  -6  -5  -2    7.20   14.60
  -6  -5  -2   33.40   15.10
   6  -5   2   52.69   15.30
   6  -5   2   39.40   15.90
  -6  -5  -2   46.90   14.90
  -6   5  -2   28.40   14.20
   6   5   2   25.40   14.60
   6   5   2   36.70   14.60
  -6   5  -2   13.50   12.80
   6   5   2   34.80   12.90
  -6   5  -2   45.20   15.20
  -6  -6   2  -17.50   15.00
   6  -6  -2  -23.20   17.90
   6  -6  -2   39.50   17.50
   6   6  -2   -3.30   15.00
  -6   6   2  -11.20   13.80
   6   6  -2    7.40   16.30
  -6   6   2  -18.10   13.00
   6   6  -2    5.20   17.20
  -6   6   2   13.00   16.70
   5  -6  -2   20.10   12.80
  -5  -6   2   20.10   11.70
  -5  -6   2   11.70   12.10
   5  -6  -2    9.60   13.50
  -5  -6   2    1.50   12.70
   5   6  -2   15.70   13.80
   5   6  -2   28.00   12.80
   5   6  -2   11.30   13.50
   5   6  -2   -0.30   11.80
  -5   6   2   27.30   13.50
  -4  -6   2   34.80   10.60
  -4  -6   2   32.90   11.40
   4  -6  -2   43.70   12.30
   4  -6  -2   33.80   12.10
  -4  -6   2   34.50   11.00
   4   6  -2   14.20   12.10
   4   6  -2   30.00   11.40
   4   6  -2   36.30   11.80
  -4   6   2   31.40   12.70
  -4   6   2   27.30    9.80
   4   6  -2   24.80   11.60
  -4   6   2   31.80   11.10
   3  -6  -2   11.20    9.10
   3  -6  -2   29.30   10.40
  -3  -6   2   31.60    9.10
  -3  -6   2    9.70    9.40
   3  -6  -2   36.10   10.40
   3   6  -2   24.50    9.80
   3   6  -2    5.80   10.00
  -3   6   2   29.40    7.50
  -3   6   2   30.20   11.10
   3   6  -2   17.20    8.30
  -2  -6   2   37.20    9.70
  -2  -6   2   32.90    9.00
   2  -6  -2   47.50   11.90
   2  -6  -2   36.40    9.50
   2  -6  -2   35.20    8.40
   2   6  -2   45.70    9.10
  -2   6   2   36.90    9.10
  -2   6   2   59.19    7.80
   2   6  -2   34.50   10.30
  -2   6   2   55.19   10.70
   2   6  -2   43.90    9.20
  -1  -6   2   72.69   11.20
   1  -6  -2   86.79   11.80
   1  -6  -2  112.09   14.20
   1  -6  -2   61.29   10.90
  -1  -6   2   43.30   14.80
  -1   6   2   87.59    9.10
  -1   6   2   65.99   10.40
  -1   6   2   79.89   10.50
   0  -6  -2   38.00    9.20
   0  -6  -2   61.89    9.80
   0  -6  -2   40.40    9.20
   0  -6   2   57.69    8.60
   0  -6   2   36.10   10.70
   0  -6   2   49.70   10.10
   0   6   2   44.60    9.00
   0   6  -2   32.60   13.50
   0   6   2   56.49   10.00
  -1  -6  -2  151.58   15.10
  -1  -6  -2   74.39   20.50
   1  -6   2  126.39   22.00
  -1  -6  -2  135.69   15.70
   1   6   2  112.79    9.70
  -1   6  -2  133.39   15.90
   1   6   2  119.39   14.90
   2  -6   2  784.42   33.50
  -2  -6  -2  822.72   34.40
   2  -6   2  899.41   29.90
  -2  -6  -2  757.62   32.10
   2   6   2  741.73   33.30
   2   6   2  776.32   26.70
  -2   6  -2  710.23   33.30
  -2   6  -2  733.83   37.70
   2   6   2  754.22   32.70
  -3  -6  -2  155.18   15.30
   3  -6   2  132.79   16.00
   3  -6   2  142.79   18.00
  -3  -6  -2  121.89   14.50
   3   6   2  128.19   16.90
  -3   6  -2  110.29   14.10
  -3   6  -2   90.19   11.80
   3   6   2  145.39   19.50
   3   6   2  109.79   11.60
  -4  -6  -2   19.70   11.30
  -4  -6  -2   15.90   11.90
   4  -6   2   -1.20   12.20
  -4  -6  -2   14.30   11.70
   4  -6   2   10.80    9.10
  -4   6  -2   15.80   12.00
  -4   6  -2   20.10   11.20
   4   6   2    8.70   12.20
   4   6   2    7.30   11.00
   4   6   2   22.90   12.10
  -5  -6  -2   35.80   14.00
   5  -6   2   36.00   15.90
   5  -6   2   15.60   14.00
  -5  -6  -2   32.70   13.80
  -5  -6  -2   28.00   13.90
  -5   6  -2   31.90   14.50
  -5   6  -2   18.30   12.60
  -5   6  -2   18.80   14.80
   5   6   2   11.20   14.90
   5   6   2   25.60   15.60
   5   6   2   38.40   15.30
   5   6   2   32.60   10.90
   4  -7  -2   16.60   15.80
   4  -7  -2   17.50   15.20
  -4  -7   2   26.50   14.40
   4  -7  -2   18.30   15.40
  -4  -7   2  -14.50   13.10
  -4  -7   2   22.80   15.20
   4   7  -2   35.90   15.10
  -4   7   2   18.70   12.70
   4   7  -2   -3.20   15.10
   4   7  -2   19.60   13.40
  -4   7   2    9.70   16.00
  -4   7   2   -5.30   10.60
   4   7  -2   18.70   13.90
  -3  -7   2   19.50   12.60
   3  -7  -2  -18.10   12.30
   3  -7  -2    6.40   12.50
  -3  -7   2   11.70   12.90
   3  -7  -2   12.90   12.90
   3   7  -2  -10.20   11.10
   3   7  -2   24.40   13.00
  -3   7   2   10.10   13.80
   3   7  -2   18.20   12.40
  -3   7   2   15.90    8.40
   3   7  -2   10.60   14.30
  -2  -7   2   22.20   11.10
  -2  -7   2   12.60   11.30
   2  -7  -2   28.40   12.10
   2  -7  -2   18.00    9.10
  -2  -7   2   49.60   10.20
   2  -7  -2   21.40    9.60
  -2   7   2   42.00   12.90
   2   7  -2   27.50   12.60
   2   7  -2    2.60   10.70
   2   7  -2   34.10   11.30
  -2   7   2   34.00    7.70
   1  -7  -2   45.30   10.80
  -1  -7   2    4.20   10.10
   1  -7  -2   45.70   12.00
  -1  -7   2   37.70   11.00
  -1  -7   2   30.80   10.90
   1  -7  -2   32.50   11.80
  -1   7   2   20.00   12.50
  -1   7   2   31.60   11.60
   1   7  -2   32.80   11.70
  -1   7   2   35.40    7.00
   1   7  -2   19.30   11.50
   0  -7  -2   -4.50   10.30
   0  -7  -2    2.30    9.50
   0  -7   2   -1.80   10.40
   0  -7  -2  -10.60    8.90
   0  -7   2   -2.50    8.60
   0  -7   2   -8.70   10.20
   0   7   2    7.20   10.60
   0   7  -2   -7.80    9.90
   0   7  -2   -2.60    9.50
  -1  -7  -2   13.10   10.90
   1  -7   2   22.80   11.00
   1  -7   2    8.20    8.70
   1  -7   2    3.40   10.00
  -1  -7  -2   15.10   11.60
  -1  -7  -2   24.00   11.70
  -1   7  -2    9.30   11.00
   1   7   2   17.00   11.00
  -1   7  -2   12.50   11.20
   1   7   2   12.10    6.20
  -2  -7  -2   39.90   12.70
   2  -7   2   16.80   12.10
  -2  -7  -2   21.50   12.90
   2  -7   2   39.60   10.30
   2  -7   2   51.89   13.70
  -2  -7  -2   60.19   13.00
   2   7   2   37.40   11.70
  -2   7  -2   31.00   11.00
   2   7   2   33.10   13.40
  -2   7  -2   36.00   12.90
   2   7   2   17.10    7.60
   2   7   2   65.39   14.10
   3  -7   2   34.90   14.60
   3  -7   2   26.70   12.50
  -3  -7  -2   36.90   14.40
   3  -7   2   62.79   12.60
  -3  -7  -2   44.80   13.70
  -3  -7  -2   35.70   14.30
   3   7   2   33.60   13.90
  -3   7  -2   54.79   14.90
  -3   7  -2   44.40   14.20
   3   7   2   45.50   13.50
  -3   7  -2   31.30   11.40
   3   7   2   48.70   14.60
   4  -7   2  -24.60   15.60
   4  -7   2   18.30   15.80
   4  -7   2   17.50   12.80
  -4  -7  -2   11.10   13.90
  -4  -7  -2    2.00   15.50
  -4  -7  -2  -16.40   15.60
  -4   7  -2  -21.00   15.10
   4   7   2   13.20   14.50
   4   7   2  -14.40   15.20
   4   7   2   -0.30   10.00
   4   7   2   -4.70   14.90
  -4   7  -2    7.80   15.00
  -4   7  -2   -0.30   12.00
   2  -8  -2  -26.60   14.10
  -2  -8   2   16.70   13.50
   2  -8  -2    7.90   15.40
   2  -8  -2   35.90   17.10
  -2  -8   2  -12.50   15.00
  -2  -8   2   25.20   16.70
   2   8  -2   18.90   14.70
  -2   8   2   18.10   17.60
  -2   8   2   31.90   14.50
  -2   8   2    8.80    9.50
   2   8  -2   26.90   16.50
   2   8  -2   19.50   17.60
   1  -8  -2   34.80   16.60
  -1  -8   2   46.10   15.20
   1  -8  -2   67.39   16.20
   1  -8  -2   27.10   13.80
  -1  -8   2   39.10   13.60
  -1  -8   2   47.90   17.00
  -1   8   2   26.90   15.80
   1   8  -2   53.99   17.20
   1   8  -2   51.69   13.90
  -1   8   2   41.60    9.00
   1   8  -2   15.90   14.90
  -1   8   2   25.80   13.40
   0  -8  -2   -5.70   14.70
   0  -8   2    6.00   13.90
   0  -8   2    6.80   15.10
   0  -8   2    1.20   12.70
   0  -8  -2    5.30   15.10
   0  -8  -2   32.30   15.10
   0   8  -2    8.50   14.60
   0   8   2   13.30   14.00
   0   8   2  -15.10   14.10
   0   8  -2   32.40   16.30
   1  -8   2  -15.20   14.80
  -1  -8  -2   17.70   15.20
  -1  -8  -2   11.50   16.40
  -1  -8  -2    5.40   15.30
   1  -8   2    5.70   15.10
   1  -8   2   18.80   12.80
  -1   8  -2   24.40   14.80
   1   8   2    1.20   15.00
   1   8   2   21.50   14.00
  -1   8  -2    8.20   16.40
  -2  -8  -2   26.10   18.50
  -2  -8  -2   29.00   16.80
   2  -8   2   44.10   13.70
  -2  -8  -2   37.50   16.20
   2  -8   2   33.80   14.60
   2  -8   2   13.40   16.70
  -2   8  -2   11.60   16.30
   2   8   2   28.10   16.20
  -2   8  -2   28.80   12.00
  -2   8  -2   12.40   15.70
   2   8   2   13.60    9.00
   2   8   2   37.70   16.50
  -8   0   3  -16.80   14.50
  -8   0   3   -2.20   11.70
   8   0  -3  -10.70   15.10
  -8   0   3    5.40   12.00
   8   0  -3    2.20   13.90
   8   0  -3    7.60   15.50
   8   0  -3   -2.60   13.50
  -7   0   3    6.60    7.80
   7   0  -3   21.80   10.30
   7   0  -3   -1.40   10.50
   7   0  -3    0.60    9.80
   7   0  -3   12.60   11.40
  -7   0   3   15.50    8.30
  -6   0   3    3.30    5.80
   6   0  -3    0.70    6.50
  -5   0   3 1570.84   47.30
  -5   0   3 1535.35   46.80
   5   0  -3 1595.64   49.40
   5   0  -3 1561.14   48.60
   5   0  -3 1583.34   49.30
  -5   0   3 1525.15   49.30
  -4   0   3    0.60    3.30
   4   0  -3    4.90    3.70
   4   0  -3    2.20    3.90
  -4   0   3    1.80    3.20
  -4   0   3    6.90    4.50
   4   0  -3   -7.90    3.80
   3   0  -3  524.55   18.70
  -3   0   3  553.24   19.50
  -3   0   3  564.64   17.70
   3   0  -3  553.94   19.90
   3   0  -3  570.64   18.80
  -3   0   3  561.54   17.90
  -2   0   3    0.80    1.20
   2   0  -3    0.90    2.50
   2   0  -3   -1.60    1.60
   2   0  -3   -2.60    1.70
  -2   0   3    1.90    2.60
  -2   0   3    0.20    1.10
   1   0  -3   37.70    3.70
   0   0   3    0.80    1.50
   0   0  -3    1.30    1.40
   0   0  -3   -0.40    0.70
   0   0  -3    0.30    0.70
  -1   0  -3  999.90   28.30
   1   0   3 1025.00   28.00
  -1   0  -3  994.50   28.20
   1   0   3  998.50   28.00
   1   0   3  968.00   28.20
  -1   0  -3 1004.90   28.30
  -2   0  -3    1.20    2.60
   2   0   3   -1.80    2.40
   2   0   3    0.30    2.20
   2   0   3   -1.10    2.30
  -2   0  -3    2.90    2.30
  -2   0  -3   -2.50    2.40
  -2   0  -3    2.10    2.60
  -3   0  -3    9.10    3.70
   3   0   3    9.10    3.50
  -3   0  -3   10.50    4.10
   3   0   3    8.30    4.20
  -3   0  -3   13.70    3.70
   3   0   3   15.10    4.10
   3   0   3   10.30    3.90
   4   0   3    3.80    4.90
  -4   0  -3    3.90    4.90
   4   0   3    2.30    5.00
   4   0   3   -0.90    3.30
  -4   0  -3   -5.80    4.00
   4   0   3   -4.20    4.20
   5   0   3  133.79   13.70
   5   0   3  129.79   12.70
   5   0   3  135.19   13.80
   5   0   3  170.28   13.40
  -5   0  -3  145.39   13.60
  -5   0  -3  163.58   14.20
  -5   0  -3  158.38   14.30
  -6   0  -3    1.10    7.70
  -6   0  -3   -2.30    9.10
   6   0   3    3.90    7.50
   6   0   3    6.20   10.50
  -6   0  -3   19.10    8.50
   6   0   3    7.70    8.10
   7   0   3   -9.50   10.50
  -7   0  -3   -0.30    8.80
  -7   0  -3   -0.70   11.00
   7   0   3    4.40   12.20
   7   0   3  -16.10   10.60
   7   0   3  -16.20   10.10
  -7   0  -3    4.40   11.40
  -8   0  -3    1.20   15.40
   8   0   3  -24.80   16.70
  -8   0  -3   19.10   16.90
  -8   0  -3  -13.40   15.80
   8   0   3   -0.20   15.20
   8   0   3   12.40   14.10
   8   0   3    4.60   17.40
   8  -1  -3    4.00   15.60
  -8  -1   3   65.29   14.40
  -8  -1   3   51.09   13.40
   8  -1  -3   64.69   13.90
   8  -1  -3   45.80   15.50
   8  -1  -3   40.40   16.00
   8   1  -3   37.70   14.20
   8   1  -3   33.30   15.10
  -8   1   3    6.30   15.20
  -8   1   3   28.90   12.80
   8   1  -3   47.60   13.40
   8   1  -3   49.80   16.70
  -8   1   3   41.90   12.60
  -7  -1   3    9.50    9.70
   7  -1  -3   -4.10    9.40
  -7  -1   3   -1.20   11.20
   7  -1  -3   11.60   10.30
  -7  -1   3   11.40    8.70
   7  -1  -3    6.30   10.70
  -7   1   3    9.80    8.50
   7   1  -3   10.30   10.20
  -7   1   3   17.30    8.60
   7   1  -3   -4.30    9.90
   7   1  -3   -1.90   10.70
   7   1  -3    3.20   11.50
  -7   1   3   13.90    8.30
  -6  -1   3   67.99    9.50
   6  -1  -3   94.79   13.20
   6  -1  -3   64.89   12.60
  -6   1   3   71.19    9.10
  -6   1   3   93.49   11.90
   6   1  -3   81.09   10.80
   6   1  -3   70.89    9.90
  -6   1   3   81.39    9.50
   6   1  -3   61.79   10.90
   6   1  -3   78.79   11.50
  -5  -1   3   -2.10    4.60
  -5  -1   3    1.70    4.50
   5  -1  -3    4.90    5.40
  -5  -1   3    7.20    4.80
   5   1  -3    7.20    6.20
  -5   1   3    2.50    4.50
  -5   1   3    0.60    4.50
  -5   1   3   -9.00    4.30
   5   1  -3   -7.80    5.70
   5   1  -3   -4.00    5.50
   4  -1  -3    8.10    4.40
   4  -1  -3    2.40    3.70
  -4  -1   3    7.70    4.00
  -4  -1   3    4.40    3.90
  -4  -1   3    6.50    3.60
   4  -1  -3    8.00    4.80
   4   1  -3    6.80    3.70
   4   1  -3    4.50    4.10
  -4   1   3    5.10    3.50
   4   1  -3   16.40    4.60
   4   1  -3    7.90    4.50
  -4   1   3   10.80    3.50
  -4   1   3    6.60    4.50
  -3  -1   3    1.30    3.50
  -3  -1   3    2.10    2.50
   3  -1  -3    2.30    3.10
   3  -1  -3    7.00    3.00
   3  -1  -3    0.40    2.80
  -3  -1   3    1.00    2.60
  -3   1   3    4.30    3.20
   3   1  -3   -0.30    2.90
  -3   1   3    0.80    2.20
   3   1  -3   -0.10    2.80
   3   1  -3    2.20    3.00
  -3   1   3    5.00    2.50
   2  -1  -3  337.97   12.30
   2  -1  -3  318.47   11.20
  -2  -1   3  318.47   12.60
  -2  -1   3  321.97   11.20
  -2  -1   3  326.07   11.20
   2  -1  -3  321.27   11.30
   2   1  -3  341.37   12.90
   2   1  -3  320.87   11.80
  -2   1   3  333.27   10.10
  -2   1   3  325.47   12.00
   2   1  -3  326.77   12.00
  -2   1   3  322.57   10.00
  -1  -1   3  574.24   16.40
   1  -1  -3  577.14   16.70
   1  -1  -3  570.44   15.90
   1  -1  -3  574.54   15.90
  -1  -1   3  576.34   16.40
   1   1  -3  570.34   17.10
  -1   1   3  572.44   16.80
   1   1  -3  588.24   17.10
   0  -1  -3  202.78    6.90
   0  -1  -3  204.58    6.90
   0  -1   3  208.58    7.40
   0  -1  -3  199.48    8.60
   0  -1   3  194.08    7.30
   0   1  -3  204.68    7.80
   0   1   3  199.18    5.80
   0   1   3  195.68    8.60
   0   1  -3  205.78    7.80
  -1  -1  -3   22.00    3.10
   1  -1   3   19.90    2.90
  -1  -1  -3   16.30    2.80
  -1  -1  -3   23.00    2.60
   1  -1   3   21.70    3.10
  -1  -1  -3   21.30    2.90
   1  -1   3   17.40    2.30
  -1   1  -3   19.90    3.10
  -1   1  -3   22.10    3.10
   1   1   3   17.50    3.00
   1   1   3   19.00    2.70
   1   1   3   17.00    2.50
  -2  -1  -3   19.30    3.80
   2  -1   3   19.30    3.90
  -2  -1  -3   23.30    4.30
   2  -1   3   19.00    3.80
   2  -1   3   18.40    3.30
  -2  -1  -3   17.30    3.80
  -2  -1  -3   17.60    2.90
   2   1   3   17.60    3.40
   2   1   3   18.90    3.50
   2   1   3   21.10    3.60
  -2   1  -3   19.60    3.90
  -2   1  -3   17.90    3.60
  -2   1  -3   17.90    3.30
   2   1   3   20.60    3.20
  -3  -1  -3   41.40    5.80
  -3  -1  -3   46.60    6.10
  -3  -1  -3   50.09    6.10
   3  -1   3   56.49    7.20
   3  -1   3   39.40    5.40
   3  -1   3   34.00    5.60
  -3  -1  -3   36.00    5.60
  -3   1  -3   37.90    5.10
   3   1   3   36.70    5.60
   3   1   3   38.90    5.30
   3   1   3   35.40    5.50
  -3   1  -3   39.30    5.90
  -3   1  -3   33.00    5.50
   3   1   3   40.80    5.10
  -4  -1  -3  101.49   10.60
   4  -1   3  107.99   11.00
  -4  -1  -3  117.39    9.80
   4  -1   3  107.39   10.20
   4  -1   3  114.79    9.30
  -4  -1  -3  144.69    9.70
  -4   1  -3  120.09    9.80
   4   1   3  105.59   10.40
   4   1   3  115.69   11.30
   4   1   3  106.69    9.70
   4   1   3  110.09   10.30
  -4   1  -3  112.89   10.40
   5  -1   3  221.08   16.40
   5  -1   3  242.08   16.20
   5  -1   3  242.18   16.30
  -5  -1  -3  231.68   15.20
  -5  -1  -3  217.38   16.60
  -5  -1  -3  232.58   16.30
  -5   1  -3  218.08   16.40
   5   1   3  248.08   15.90
  -5   1  -3  236.28   14.40
   5   1   3  235.08   16.70
   5   1   3  237.78   15.60
  -5   1  -3  212.08   16.10
   6  -1   3   89.69   12.90
   6  -1   3   79.99   12.20
  -6  -1  -3  134.89   15.40
  -6  -1  -3  113.59   15.30
   6   1   3  128.59   15.30
  -6   1  -3   89.89   12.50
  -6   1  -3  101.59   12.60
  -7  -1  -3  429.96   28.70
   7  -1   3  448.66   28.40
   7  -1   3  407.56   28.10
   7  -1   3  411.36   28.10
  -7  -1  -3  406.46   27.80
  -7  -1  -3  395.06   26.50
  -7   1  -3  440.16   27.40
   7   1   3  433.66   26.50
   7   1   3  424.46   28.00
   7   1   3  392.06   24.50
  -7   1  -3  433.36   27.90
  -7   1  -3  423.56   27.10
   7   1   3  400.86   28.80
  -8  -1  -3   35.50   17.10
   8  -1   3   32.00   15.20
  -8  -1  -3   39.70   17.00
  -8  -1  -3   34.80   17.80
   8  -1   3   32.70   17.50
   8  -1   3   -3.10   13.00
   8   1   3   30.40   19.10
   8   1   3   30.40   16.90
   8   1   3   40.30   17.30
  -8   1  -3   21.10   16.30
   8   1   3   43.70   16.20
  -8   1  -3    6.10   17.10
  -8   1  -3   15.00   16.20
   8  -2  -3   41.80   16.20
  -8  -2   3   61.09   18.20
   8  -2  -3   12.30   16.90
   8  -2  -3   28.20   12.50
  -8  -2   3   29.60   13.20
  -8  -2   3   40.50   14.80
  -8   2   3   15.60   14.70
  -8   2   3   36.50   17.00
  -8   2   3   24.50   12.20
   8   2  -3   18.80   14.50
   8   2  -3   29.40   16.00
   8   2  -3   21.30   15.00
   8   2  -3   42.80   18.40
   7  -2  -3   -6.00   10.30
  -7  -2   3    3.90    9.40
  -7  -2   3    0.00   10.40
   7  -2  -3    3.30   10.50
  -7  -2   3    7.00   11.50
   7  -2  -3   16.50   10.60
   7   2  -3   -6.30   11.30
  -7   2   3   10.50   10.00
   7   2  -3   -7.60    9.30
   7   2  -3   -5.80   11.40
  -7   2   3    2.80    8.90
  -7   2   3   -4.60    8.40
   7   2  -3  -18.10   11.50
  -6  -2   3  -18.50    7.80
   6  -2  -3   -3.50    8.20
  -6  -2   3   18.60    7.00
  -6  -2   3   -4.70    7.10
   6  -2  -3   -5.00    7.20
   6  -2  -3   10.80    9.30
  -6   2   3   10.70    8.50
   6   2  -3  -10.00    8.00
   6   2  -3   20.10    9.30
   6   2  -3    5.00    7.70
  -6   2   3    5.60    6.40
  -5  -2   3  257.27   15.70
   5  -2  -3  274.47   15.60
  -5  -2   3  239.78   15.20
   5  -2  -3  270.37   16.80
  -5   2   3  261.77   14.20
   5   2  -3  260.87   16.50
   5   2  -3  258.67   16.50
   5   2  -3  299.57   16.00
  -5   2   3  257.67   15.10
   5   2  -3  250.57   16.60
  -5   2   3  265.07   15.00
  -4  -2   3  991.60   32.80
  -4  -2   3  997.10   32.60
   4  -2  -3 1034.40   33.30
   4  -2  -3  985.60   33.30
  -4  -2   3  958.20   34.00
   4  -2  -3 1014.60   33.30
   4   2  -3  996.60   33.80
   4   2  -3 1009.50   34.10
   4   2  -3 1015.00   33.50
   4   2  -3 1079.19   33.90
  -4   2   3 1005.90   31.60
  -4   2   3  980.70   33.20
  -3  -2   3   45.40    6.00
   3  -2  -3   51.09    6.80
  -3  -2   3   45.80    6.30
   3  -2  -3   38.60    5.10
   3  -2  -3   57.09    6.30
  -3  -2   3   33.60    5.60
   3   2  -3   39.80    5.20
  -3   2   3   48.40    5.40
   3   2  -3   38.00    5.80
  -3   2   3   48.00    5.80
   3   2  -3   40.60    5.50
  -3   2   3   53.79    6.40
   3   2  -3   36.10    5.30
   2  -2  -3  732.83   23.80
  -2  -2   3  783.02   24.30
  -2  -2   3  805.02   24.50
   2  -2  -3  753.92   23.30
   2  -2  -3  771.02   24.10
  -2   2   3  769.52   23.50
   2   2  -3  758.72   23.30
   2   2  -3  805.92   25.20
   2   2  -3  756.62   24.80
  -2   2   3  781.12   22.90
   2   2  -3  795.72   25.20
  -2   2   3  764.02   22.80
  -1  -2   3    0.10    2.20
   1  -2  -3    3.80    3.20
   1  -2  -3    0.00    2.00
  -1  -2   3    0.30    1.30
  -1  -2   3   -1.50    2.10
   1  -2  -3   -1.40    1.90
   1  -2  -3    0.10    1.30
   1   2  -3    0.10    2.50
   1   2  -3    0.40    1.50
  -1   2   3    1.90    1.60
  -1   2   3    1.10    1.40
   1   2  -3    1.00    2.50
  -1   2   3   -1.40    1.50
   0  -2   3 2300.17   61.49
   0  -2   3 2319.67   64.29
   0  -2  -3 2435.86   63.99
   0  -2  -3 2423.56   65.49
   0  -2   3 2403.26   64.39
   0  -2  -3 2307.87   63.69
   0   2  -3 2436.06   64.89
   0   2  -3 2367.56   64.69
   0   2   3 2350.26   63.19
   0   2   3 2444.66   65.69
   0   2   3 2422.86   63.29
   1  -2   3   16.80    3.50
  -1  -2  -3   18.60    2.40
   1  -2   3   16.40    3.60
  -1  -2  -3   12.90    3.20
  -1  -2  -3   11.50    3.30
  -1  -2  -3   14.90    3.30
   1   2   3   15.70    1.80
   1   2   3   14.70    3.20
  -1   2  -3   17.10    3.30
   1   2   3   13.30    3.10
   1   2   3   13.10    3.70
  -1   2  -3   16.60    3.80
  -2  -2  -3  910.71   29.50
  -2  -2  -3  933.11   29.70
  -2  -2  -3  951.90   30.10
  -2  -2  -3  892.81   26.80
   2  -2   3  926.51   29.60
   2  -2   3  919.51   29.70
   2   2   3  894.01   29.90
   2   2   3  910.81   28.90
   2   2   3  960.70   27.00
   2   2   3  911.51   29.20
  -2   2  -3  908.11   29.80
  -2   2  -3  944.51   30.00
  -3  -2  -3  178.28   10.80
   3  -2   3  175.18   11.80
  -3  -2  -3  171.88   11.70
  -3  -2  -3  179.08    9.60
   3  -2   3  186.18   11.60
  -3  -2  -3  177.68   11.70
  -3   2  -3  159.48   11.00
  -3   2  -3  189.68   11.60
  -3   2  -3  190.88   12.20
   3   2   3  183.78   11.20
   3   2   3  183.78   11.50
   3   2   3  165.98    9.40
   4  -2   3   54.89    8.40
  -4  -2  -3   51.99    7.40
  -4  -2  -3   64.09    7.30
  -4   2  -3   59.19    8.30
   4   2   3   56.59    8.40
  -4   2  -3   61.99    8.00
   4   2   3   68.69    8.30
   4   2   3   75.79   10.50
  -5  -2  -3   38.20    7.60
   5  -2   3   29.30    7.70
   5  -2   3   33.40    8.10
  -5  -2  -3   21.00    8.10
   5   2   3   26.10    9.90
  -5   2  -3   28.20    8.00
   5   2   3   41.90    8.40
  -6  -2  -3    7.20    7.30
  -6  -2  -3   -3.80    7.30
   6  -2   3    7.00    6.80
   6   2   3   17.00    8.90
  -6   2  -3    5.90    9.20
  -7  -2  -3    2.40   12.70
  -7  -2  -3   -6.30   11.00
   7  -2   3    3.20   13.10
  -7  -2  -3   24.00   12.20
   7  -2   3    7.90   11.10
   7  -2   3   -2.40   10.80
   7   2   3   -1.80   11.70
  -7   2  -3   12.20   12.20
   7   2   3   -8.00   11.80
  -7   2  -3   14.20   12.20
   7   2   3    0.10   13.00
   7   2   3    0.10   10.20
   7  -3  -3  301.37   24.50
  -7  -3   3  377.06   25.50
   7  -3  -3  325.87   26.60
  -7  -3   3  332.47   27.00
   7  -3  -3  307.47   26.80
  -7   3   3  326.77   26.20
   7   3  -3  326.17   26.60
  -7   3   3  305.87   24.10
   7   3  -3  333.27   24.40
   7   3  -3  329.07   25.80
   6  -3  -3   83.49   11.60
   6  -3  -3   87.99   12.20
  -6  -3   3   64.29   10.30
  -6  -3   3  115.99   15.90
   6  -3  -3   78.99   12.30
   6   3  -3   98.59   12.50
   6   3  -3   76.09   13.00
   6   3  -3   59.29   11.60
   6   3  -3   82.19   12.30
  -6   3   3   71.49   10.10
  -5  -3   3    1.70    5.70
   5  -3  -3   -2.00    6.30
   5  -3  -3   -0.40    6.90
   5  -3  -3    1.60    5.80
  -5  -3   3    4.00    6.50
  -5   3   3    4.90    6.70
   5   3  -3   17.40    7.60
   5   3  -3    6.70    6.60
   5   3  -3    2.50    7.50
  -5   3   3    0.00    5.70
   5   3  -3   11.50    8.50
   4  -3  -3    0.70    5.20
  -4  -3   3    2.30    5.20
   4  -3  -3   -1.10    4.40
  -4  -3   3    3.40    4.80
   4  -3  -3   -2.60    5.20
   4   3  -3   -4.10    4.80
  -4   3   3    0.50    4.50
  -4   3   3    1.20    4.10
   4   3  -3    2.20    5.50
  -4   3   3    3.70    4.60
  -3  -3   3  242.58   13.20
  -3  -3   3  264.47   13.40
   3  -3  -3  245.28   11.90
   3  -3  -3  245.38   13.40
   3  -3  -3  253.17   13.70
  -3   3   3  256.37   12.00
   3   3  -3  236.98   13.50
  -3   3   3  246.38   12.40
   3   3  -3  246.48   12.30
   3   3  -3  232.98   14.30
   3   3  -3  247.58   13.80
  -3   3   3  250.27   12.30
  -2  -3   3   23.10    4.80
   2  -3  -3   19.90    4.20
  -2  -3   3   22.90    3.80
   2  -3  -3   22.00    4.60
  -2  -3   3   26.30    4.70
   2   3  -3   23.20    5.10
   2   3  -3   16.30    4.50
   2   3  -3   24.30    3.80
  -2   3   3   24.10    4.00
   2   3  -3   21.50    4.90
  -2   3   3   22.60    3.90
  -2   3   3   19.10    3.20
   1  -3  -3  735.53   26.00
   1  -3  -3  757.62   24.60
   1  -3  -3  739.23   24.60
  -1  -3   3  752.72   25.10
  -1  -3   3  723.73   22.10
  -1  -3   3  761.22   25.10
  -1   3   3  776.12   23.80
  -1   3   3  793.42   23.80
   1   3  -3  762.02   25.80
   1   3  -3  744.63   22.40
  -1   3   3  750.82   21.50
   1   3  -3  719.93   25.40
   0  -3  -3   11.00    3.70
   0  -3   3    5.00    2.10
   0  -3   3   15.80    4.20
   0  -3   3   11.30    3.60
   0  -3  -3   12.80    3.50
   0  -3  -3    7.60    4.20
   0   3   3    5.50    4.30
   0   3   3    7.50    3.10
   0   3  -3   10.40    4.20
   0   3  -3   10.20    4.10
   0   3   3   13.90    3.50
  -1  -3  -3    1.20    3.20
   1  -3   3    2.00    2.80
   1  -3   3    2.60    3.30
  -1  -3  -3    2.70    3.60
  -1  -3  -3    4.80    3.70
   1   3   3    0.10    3.10
  -1   3  -3    5.60    3.30
   1   3   3    0.20    4.00
   1   3   3   -0.40    3.20
  -1   3  -3    5.20    3.20
   1   3   3    2.40    1.50
  -2  -3  -3   14.10    4.80
  -2  -3  -3   19.50    3.20
  -2  -3  -3   10.80    4.70
   2  -3   3   16.20    5.00
   2  -3   3   19.90    4.30
  -2  -3  -3   14.90    4.50
   2   3   3   14.20    4.70
   2   3   3    4.30    4.70
   2   3   3    8.80    4.00
  -2   3  -3   17.40    5.10
   2   3   3   14.90    2.80
  -2   3  -3   13.80    5.10
  -3   3  -3   17.80    5.70
  -4  -3  -3  184.78   14.50
  -4  -3  -3  170.98   11.80
   4  -3   3  154.98   13.20
  -4  -3  -3  148.89   13.60
   4  -3   3  146.59   14.10
  -4  -3  -3  171.28   14.50
   4   3   3  148.89   12.70
  -4   3  -3  153.58   14.00
   4   3   3  151.98   10.80
   4   3   3  173.98   14.50
  -4   3  -3  157.28   13.70
  -4   3  -3  131.49   13.30
  -5  -3  -3   -0.60    8.90
  -5  -3  -3    9.40    6.60
  -5  -3  -3   -4.80    9.10
   5  -3   3   -5.20    8.10
  -5   3  -3    5.70    8.00
   5   3   3    4.40    9.40
  -5   3  -3  -11.20   12.50
   5   3   3   -3.90    7.70
   6  -3   3   78.69   13.30
  -6  -3  -3   65.89   13.00
  -6  -3  -3   67.59   11.30
   6  -3   3   30.00   12.30
  -6  -3  -3   49.60   12.40
  -6   3  -3   76.89   13.20
   6   3   3  122.59   17.10
   6   3   3   74.29   12.80
  -6   3  -3   88.19   12.50
   6   3   3  112.99   21.20
   6   3   3   89.59   14.80
  -7  -3  -3    6.50   12.30
   7  -3   3   20.10   14.90
  -7  -3  -3   -1.60   13.90
  -7  -3  -3   -3.30   12.10
   7  -3   3    7.10   11.80
   7  -3   3    0.00   12.70
  -7   3  -3    1.30   10.10
   7   3   3  -16.00   12.20
   7   3   3   24.50   15.00
   7   3   3   11.20   13.70
  -7   3  -3   -4.70   13.00
   7   3   3   12.20   15.30
  -7   3  -3    5.70   14.40
   7  -4  -3   11.10   13.60
  -7  -4   3   -6.60   12.30
  -7  -4   3   -6.80   12.20
   7  -4  -3    6.60   15.10
  -7   4   3    8.20   12.30
   7   4  -3   37.50   14.80
   7   4  -3   -0.20   13.50
   7   4  -3   16.40   16.80
  -7   4   3    8.60   12.90
   7   4  -3  -26.50   13.80
  -7   4   3    7.90   11.00
   6  -4  -3  108.19   14.40
   6  -4  -3   74.29   13.00
  -6  -4   3   75.39   12.50
  -6  -4   3   91.09   14.60
   6   4  -3   81.49   11.60
  -6   4   3  109.29   12.90
   6   4  -3   92.09   14.20
   6   4  -3   68.49   12.50
   6   4  -3   68.79   13.40
  -5  -4   3   15.00    9.40
  -5  -4   3    6.20    7.30
   5  -4  -3    1.20    8.60
   5  -4  -3   15.30    8.00
  -5   4   3   15.20    7.10
   5   4  -3   18.00    8.30
  -5   4   3   16.90    7.50
   5   4  -3   14.40    8.70
   5   4  -3   11.30    9.90
   5   4  -3   24.70    8.90
  -5   4   3    0.80    7.40
  -4  -4   3   51.79    8.80
   4  -4  -3   48.30    8.30
  -4  -4   3   55.89    8.70
   4  -4  -3   48.00    8.50
   4   4  -3   61.59    9.60
  -4   4   3   69.69    8.40
   4   4  -3   56.89    9.30
   4   4  -3   61.49    8.80
  -4   4   3   56.29    7.70
  -4   4   3   55.89    7.90
  -3  -4   3  212.28   14.00
   3  -4  -3  189.28   14.00
   3  -4  -3  246.58   13.20
  -3  -4   3  202.98   12.40
  -3  -4   3  183.98   13.10
  -3   4   3  198.98   13.00
  -3   4   3  219.98   12.70
   3   4  -3  195.38   12.90
  -3   4   3  204.58   11.90
   3   4  -3  189.08   14.60
   2  -4  -3  148.19   11.50
  -2  -4   3  142.69    9.10
   2  -4  -3  143.69   11.00
  -2  -4   3  145.29   11.20
  -2  -4   3  141.79   11.40
   2   4  -3  150.18   10.70
  -2   4   3  127.39    9.70
  -2   4   3  147.49   10.50
   2   4  -3  157.88   12.30
   2   4  -3  154.68   10.00
  -2   4   3  135.39    8.30
   2   4  -3  142.49    9.70
   1  -4  -3  148.09   11.10
   1  -4  -3  188.38   12.40
  -1  -4   3  176.68   11.70
   1  -4  -3  160.78   11.20
  -1  -4   3  148.99   11.40
  -1  -4   3  167.88    9.20
   1   4  -3  178.88   12.30
   1   4  -3  169.68   11.20
  -1   4   3  184.58   10.90
   1   4  -3  171.78    9.40
  -1   4   3  174.78   10.50
  -1   4   3  168.68    7.80
   0  -4  -3  694.03   25.40
   0  -4   3  713.03   25.60
   0  -4  -3  672.13   25.00
   0  -4   3  689.23   25.40
   0  -4   3  691.23   22.10
   0  -4  -3  681.13   25.10
   0   4   3  708.63   24.20
   0   4  -3  668.93   25.60
   0   4   3  672.73   24.20
   0   4  -3  669.03   25.50
   1  -4   3  262.97   14.90
   1  -4   3  248.28   14.90
  -1  -4  -3  272.37   15.20
  -1  -4  -3  269.07   14.90
  -1  -4  -3  263.67   14.80
   1  -4   3  276.17   12.30
   1   4   3  283.27   14.30
   1   4   3  277.77   14.10
   1   4   3  252.47   14.20
  -1   4  -3  266.67   15.40
  -1   4  -3  278.47   15.50
   1   4   3  284.27    9.80
   2  -4   3   20.80    6.10
  -2  -4  -3   10.00    6.00
  -2  -4  -3   12.50    5.70
   2   4   3   11.90    6.40
   2   4   3   11.20    5.30
   2   4   3   12.10    5.40
  -2   4  -3   16.90    6.40
   2   4   3   17.20    3.40
  -3  -4  -3    6.80    6.20
  -3  -4  -3   11.10    5.60
  -3  -4  -3    9.70    5.60
   3  -4   3   17.00    5.50
   3  -4   3   11.30    7.10
   3   4   3   13.40    7.20
  -3   4  -3   -3.20    6.40
   3   4   3   13.00    4.30
   3   4   3    9.90    6.10
  -3   4  -3   12.10    5.20
  -3   4  -3   16.80    6.50
  -4  -4  -3  413.56   18.70
  -4  -4  -3  419.36   21.10
   4  -4   3  366.26   22.40
   4  -4   3  422.36   22.50
  -4  -4  -3  398.56   23.10
   4   4   3  420.66   18.40
  -4   4  -3  459.35   23.20
   4   4   3  373.36   23.00
  -4   4  -3  386.26   21.80
  -4   4  -3  379.36   20.90
   4   4   3  442.76   22.50
  -5  -4  -3   78.99   12.50
   5  -4   3   78.19   12.20
  -5  -4  -3   63.69    9.60
  -5  -4  -3   89.39   13.10
   5   4   3   89.99   10.00
  -5   4  -3   87.39   11.60
   5   4   3   77.79   13.20
  -6  -4  -3   26.90   10.40
   6  -4   3   -5.90   11.10
  -6  -4  -3    9.20   12.40
  -6  -4  -3    8.40   11.60
   6  -4   3    8.20   13.20
  -6   4  -3    0.90   11.40
   6   4   3    5.00   11.10
  -6   4  -3  -11.50   10.90
   6   4   3   12.30   12.90
   6   4   3   15.00   10.40
  -6   4  -3    5.20   12.60
   6   4   3    9.50   12.70
  -7  -4  -3   31.80   15.30
   7  -4   3   31.10   15.60
   7  -4   3  -17.40   16.50
  -7  -4  -3    5.00   16.60
  -7  -4  -3   -3.90   14.10
   7   4   3  -16.10   13.90
   7   4   3    6.20   19.00
  -7   4  -3   28.20   15.10
  -7   4  -3   19.70   16.70
  -7   4  -3   21.80   17.10
   7   4   3  -25.30   16.70
   7   4   3   -5.50   14.10
   6  -5  -3   13.80   13.40
  -6  -5   3    5.70   12.30
   6  -5  -3  -13.20   12.50
  -6  -5   3   -0.40   11.40
   6   5  -3   -2.30   10.20
   6   5  -3   -4.20   11.10
  -6   5   3   25.70   14.40
  -6   5   3   12.00   10.60
   6   5  -3    1.60   14.70
  -6   5   3    8.50   11.30
   6   5  -3   -2.20   12.60
   5  -5  -3    5.30   10.70
  -5  -5   3   16.90   10.00
   5  -5  -3    0.00    8.70
  -5   5   3   17.70    9.60
   5   5  -3    2.70    8.00
  -5   5   3   23.60    9.30
   5   5  -3   21.40    9.70
  -5   5   3   25.50    9.10
   5   5  -3   19.00   10.10
   5   5  -3    2.60    9.30
  -4  -5   3   18.60    9.80
  -4  -5   3    6.20    8.40
   4  -5  -3   15.60    9.10
   4   5  -3   20.20    9.10
   4   5  -3   18.70    9.40
   4   5  -3   14.30    8.80
  -4   5   3   15.90    7.20
   4   5  -3   23.70   10.10
  -4   5   3   20.90    6.80
   3  -5  -3   30.10    8.40
  -3  -5   3   36.80    7.90
  -3  -5   3   48.70    7.00
   3  -5  -3   39.00    8.60
  -3  -5   3   26.90    8.00
   3   5  -3   35.40    8.90
  -3   5   3   25.50    7.00
   3   5  -3   34.00    7.60
  -3   5   3   37.40    6.30
   3   5  -3   28.00    9.50
   3   5  -3   26.80    8.00
   2  -5  -3   66.59   10.00
   2  -5  -3   58.19    8.70
  -2  -5   3   61.39    7.20
  -2  -5   3   62.49    9.20
  -2  -5   3   60.09    8.90
  -2   5   3   63.19    7.40
  -2   5   3   74.09    9.10
   2   5  -3   63.39    9.60
  -2   5   3   57.79    8.00
   2   5  -3   53.09    9.30
   2   5  -3   38.10    8.00
   2   5  -3   66.69    9.00
  -1  -5   3   -0.70    5.90
  -1  -5   3    5.00    4.20
   1  -5  -3    6.20    5.60
   1   5  -3    2.80    6.50
  -1   5   3   -0.10    5.10
  -1   5   3    5.50    5.10
  -1   5   3   -1.90    2.90
   1   5  -3    4.90    5.00
   0  -5  -3   16.70    5.20
   0  -5  -3    2.40    6.00
   0  -5   3    0.20    3.90
   0  -5   3   -3.00    5.70
   0   5  -3  -10.60    6.00
   0   5  -3   -3.60    6.00
   0   5   3   -8.40    4.70
  -1  -5  -3   51.89    8.20
  -1  -5  -3   53.89    8.70
   1  -5   3   54.89    6.80
   1  -5   3   50.19    8.90
  -1  -5  -3   57.19    8.50
   1  -5   3   57.49    8.10
  -1   5  -3   87.69   11.50
   1   5   3   52.39    9.30
   1   5   3   65.59    5.80
   1   5   3   39.70    7.50
  -1   5  -3   49.99    8.80
  -2  -5  -3  127.29   14.50
  -2  -5  -3  145.29   14.10
  -2  -5  -3  127.79   13.70
   2  -5   3  130.99   13.50
   2  -5   3  123.99   14.00
  -2   5  -3  112.49   14.10
   2   5   3  125.39    8.40
   2   5   3  124.29   12.70
   2   5   3  123.19   13.10
   2   5   3  124.89   13.10
  -2   5  -3  120.19   16.60
  -3  -5  -3  -13.40   12.90
  -3  -5  -3   -0.80    5.70
   3  -5   3    2.10    8.30
   3   5   3    2.90    4.70
   3   5   3   -3.40   13.50
  -3   5  -3   10.70    8.40
   3   5   3    6.70    7.20
   3   5   3    2.10    8.30
   4  -5   3   16.60    8.70
  -4  -5  -3   -5.70    8.40
  -4  -5  -3    9.30    9.60
   4   5   3   11.60   10.00
   4   5   3    5.50    8.90
   4   5   3   11.10    6.20
  -4   5  -3   -6.10    9.30
  -5  -5  -3  -10.40    8.40
   5  -5   3  -20.40   10.80
  -5  -5  -3    6.80    8.50
   5  -5   3   -5.40   11.00
  -5  -5  -3   -5.00   10.80
  -5   5  -3    8.10   10.90
   5   5   3    2.30   11.60
   5   5   3   -7.70    7.40
   5   5   3   -1.50   11.10
   5   5   3   16.50   10.90
  -5   5  -3  -14.40   11.30
  -5   5  -3    7.40   10.80
  -6  -5  -3  -31.00   14.70
   6  -5   3  -22.90   13.70
   6  -5   3   -1.70   16.20
  -6  -5  -3  -20.20   14.40
  -6  -5  -3   10.70   14.70
  -6   5  -3  -15.80   10.00
   6   5   3   -1.70   15.20
   6   5   3   -5.20   11.90
  -6   5  -3   29.90   15.00
   6   5   3    5.10   14.90
  -6   5  -3   12.80   13.60
  -5  -6   3   62.19   14.70
   5  -6  -3   77.49   15.90
   5  -6  -3   75.59   15.70
  -5  -6   3   84.19   15.20
   5   6  -3   86.69   16.30
   5   6  -3   85.69   15.00
  -5   6   3   82.09   13.20
   5   6  -3   62.09   16.50
  -5   6   3  100.49   16.70
   5   6  -3   63.69   13.60
   4  -6  -3   -2.90   10.80
   4  -6  -3   14.80   10.90
  -4  -6   3   -3.40   11.40
  -4  -6   3   -6.00    9.90
  -4  -6   3   13.20    8.80
   4  -6  -3    3.50    9.10
  -4   6   3    0.60   10.60
   4   6  -3    0.90   12.40
   4   6  -3   -9.90   10.60
   4   6  -3   15.80   12.40
  -4   6   3    4.30    8.00
   4   6  -3   25.80   12.00
  -4   6   3   -3.60   11.20
  -3  -6   3   18.20    8.90
   3  -6  -3    7.60    9.30
   3  -6  -3   12.00    8.50
   3  -6  -3   -0.90    9.50
   3   6  -3   -2.10   10.10
   3   6  -3   -0.10    7.90
   3   6  -3   -0.90    9.30
  -3   6   3   -9.70    5.70
  -3   6   3   14.10    8.00
  -3   6   3    6.90    9.60
   2  -6  -3   68.99   12.30
   2  -6  -3   85.89   11.90
  -2  -6   3   77.59   11.30
  -2  -6   3   82.69    9.60
  -2  -6   3   82.19   12.10
   2   6  -3   99.09   11.50
  -2   6   3   86.89    9.80
  -2   6   3   81.59   10.60
   2   6  -3   83.49   10.40
   2   6  -3  106.79   13.40
  -2   6   3  107.69   15.10
   1  -6  -3   85.89   11.60
  -1  -6   3   79.79    9.40
   1  -6  -3  106.49   12.30
  -1  -6   3   95.99   12.20
   1  -6  -3  117.89   14.80
  -1   6   3   97.59   11.20
  -1   6   3   83.69    8.60
  -1   6   3  116.69   13.00
   1   6  -3   84.99   12.30
   0  -6  -3   16.60    8.50
   0  -6   3   13.80    8.60
   0  -6   3   18.50    6.50
   0  -6  -3   12.70    8.50
   0  -6  -3   18.20    8.10
   0   6   3   25.20    7.90
   0   6   3   23.20    8.20
   0   6  -3    2.50    9.00
  -1  -6  -3    8.70    8.80
   1  -6   3    9.80    9.00
  -1  -6  -3   -5.10    6.80
  -1  -6  -3   19.80    7.70
   1  -6   3   21.00    6.40
   1  -6   3   11.50    9.00
   1   6   3   -6.90    8.90
   1   6   3    0.90    7.40
   1   6   3   10.90    4.10
  -1   6  -3    3.20    8.80
   1   6   3    5.10    7.20
   2  -6   3    8.90    7.10
  -2  -6  -3    5.60    7.20
  -2  -6  -3    6.50    8.70
  -2  -6  -3   -1.40    8.80
   2   6   3    5.70    8.80
   2   6   3    0.30    9.70
  -2   6  -3    0.90    9.10
   2   6   3    6.90    4.60
  -3  -6  -3   16.20   10.10
   3  -6   3   20.90   11.30
   3  -6   3   32.10   11.10
  -3  -6  -3   31.40   11.80
   3   6   3   33.80   10.70
  -3   6  -3   16.90   11.30
  -3   6  -3    8.00   10.70
   3   6   3   18.70    6.20
   3   6   3   10.70   11.30
   4  -6   3    8.90   11.90
   4  -6   3   22.00   12.30
  -4  -6  -3   -6.20   10.40
  -4  -6  -3    3.20   11.10
  -4  -6  -3   -4.50   10.90
  -4   6  -3   15.80   12.30
   4   6   3   -7.70   11.50
   4   6   3   -9.70   11.60
   4   6   3    0.40   11.70
  -4   6  -3    3.60   10.40
  -4   6  -3   12.30   12.60
   5  -6   3   67.59   17.30
   5  -6   3   77.09   17.90
  -5  -6  -3   72.19   16.60
  -5  -6  -3   64.79   17.20
  -5  -6  -3   50.09   16.40
   5   6   3  122.49   18.70
   5   6   3   81.09   16.30
  -5   6  -3   76.09   17.00
  -5   6  -3   69.19   15.60
   5   6   3   49.99   17.00
   5   6   3   92.99   12.00
  -5   6  -3   91.39   17.60
   4  -7  -3   32.30   16.40
  -4  -7   3   -4.20   12.70
  -4  -7   3   24.90   13.10
  -4  -7   3    9.50   14.80
   4  -7  -3  -11.40   15.70
   4  -7  -3    0.60   16.00
   4   7  -3   11.70   15.60
  -4   7   3    8.20   10.00
   4   7  -3  -23.80   14.00
   4   7  -3  -20.90   11.80
  -4   7   3   23.50   15.50
   4   7  -3   32.90   14.60
  -3  -7   3    8.70   12.80
  -3  -7   3   -6.10   12.20
  -3  -7   3   15.90    9.80
   3  -7  -3    3.50   12.60
   3  -7  -3    8.80   10.50
  -3   7   3    8.60   12.00
  -3   7   3   -1.50    7.90
   3   7  -3   10.40   11.30
   3   7  -3    0.90   13.80
   3   7  -3   19.50   12.60
  -3   7   3   -0.80   10.60
  -2  -7   3   22.90   10.20
   2  -7  -3    2.70   11.40
  -2  -7   3   -7.50    8.10
  -2  -7   3    0.90   10.40
   2  -7  -3   21.30   11.70
   2  -7  -3   14.00   11.10
  -2   7   3    5.40    6.40
   2   7  -3  -10.30    9.10
   2   7  -3   -6.00   11.10
   2   7  -3   17.30   11.10
  -2   7   3   18.40   10.60
  -2   7   3   12.20   11.90
  -1  -7   3   14.90   10.20
   1  -7  -3   -3.80   10.90
   1  -7  -3   17.50   10.50
   1  -7  -3   -4.10   11.40
  -1  -7   3    0.90   10.70
   1   7  -3    3.40   16.00
  -1   7   3    8.70    5.70
   1   7  -3    0.90   11.40
  -1   7   3    2.70   11.00
  -1   7   3   20.20    9.40
   0  -7  -3   79.49   14.70
   0  -7   3   52.69   12.70
   0  -7  -3   59.69   12.90
   0  -7   3   49.20   12.20
   0  -7  -3   71.29   13.70
   0   7   3   62.39   11.80
   0   7   3   71.99    9.20
   0   7   3   65.49   12.70
   0   7  -3   59.59   14.10
   1  -7   3   12.70   11.40
   1  -7   3   12.20   12.00
  -1  -7  -3   18.30   10.90
  -1  -7  -3   11.90   11.70
  -1  -7  -3   19.50   10.40
   1   7   3   13.70    5.40
  -1   7  -3   -5.70   11.90
   1   7   3   -0.10   11.20
  -1   7  -3    7.20   11.50
  -2  -7  -3  244.08   25.10
   2  -7   3  237.38   23.40
   2  -7   3  223.78   24.80
  -2  -7  -3  286.07   24.50
  -2  -7  -3  291.57   24.60
   2  -7   3  275.47   20.50
  -2   7  -3  259.97   25.30
  -2   7  -3  218.18   23.60
   2   7   3  228.18   13.90
   2   7   3  231.08   22.00
   2   7   3  233.58   22.80
   2   7   3  227.28   25.50
   3  -7   3   81.69   16.40
   3  -7   3  115.09   17.30
   3  -7   3  113.79   17.50
  -3  -7  -3   95.79   16.30
  -3  -7  -3   72.29   13.60
  -3  -7  -3   74.99   16.20
   3   7   3  100.69   13.30
  -3   7  -3  127.69   17.90
   3   7   3   74.29   14.90
  -3   7  -3   82.39   17.00
   3   7   3   49.70   13.30
   3   7   3   77.49   15.10
  -3   7  -3   95.69   13.70
  -4  -7  -3   -3.40   15.50
   4  -7   3   21.40   16.10
   4  -7   3    9.80   14.40
   4  -7   3    9.60   17.70
  -4  -7  -3   18.30   17.00
  -4  -7  -3   16.70   14.90
   4   7   3    1.70   15.90
  -4   7  -3   25.30   12.60
  -4   7  -3   -0.80   14.80
   4   7   3   -4.00   17.50
   4   7   3   26.90   14.90
  -4   7  -3  -14.90   16.20
  -2  -8   3    7.30   15.30
   2  -8  -3   -1.60   16.20
   2  -8  -3   10.80   14.30
   2  -8  -3   31.90   16.10
  -2  -8   3    6.40   16.00
  -2  -8   3   16.80   15.60
  -2   8   3    8.40   16.40
   2   8  -3   29.40   17.90
   2   8  -3   13.70   17.60
   2   8  -3    6.90   15.00
  -2   8   3   21.90   13.40
  -2   8   3    6.20    8.60
  -1  -8   3   -0.70   12.30
   1  -8  -3   -6.20   14.80
  -1  -8   3   -6.20   14.90
   1  -8  -3   19.90   16.70
  -1  -8   3   -2.10   15.00
   1  -8  -3  -14.40   14.30
  -1   8   3   -4.80    7.00
  -1   8   3   -5.90   12.40
  -1   8   3  -18.10   14.80
   1   8  -3   -3.00   14.80
   1   8  -3    2.10   15.20
   0  -8  -3   25.10   12.20
   0  -8  -3   26.50   16.20
   0  -8   3    0.00   12.70
   0  -8   3   -2.00   15.50
   0  -8  -3    1.50   15.00
   0  -8   3    5.90   15.50
   0   8  -3   -9.50   14.60
   0   8   3   -6.30   15.60
   0   8   3   -5.00    6.40
   0   8  -3    3.90   13.90
   0   8   3   -3.00    6.70
   0   8   3    2.70   12.20
   1  -8   3  -14.50   16.50
  -1  -8  -3  -19.90   11.00
  -1  -8  -3   -5.80   14.20
  -1  -8  -3  -19.50   16.70
   1  -8   3   -9.50   14.80
   1   8   3   -6.10   14.60
   1   8   3   10.70    6.90
  -1   8  -3  -11.60   15.40
  -1   8  -3    7.40   16.80
   1   8   3  -18.00   13.00
   2  -8   3    7.10   18.30
   2  -8   3   -8.00   13.10
  -2  -8  -3   -7.30   15.10
  -2  -8  -3   26.50   17.80
   2  -8   3   -1.50   16.40
  -2  -8  -3  -32.10   18.10
  -2   8  -3  -12.00   15.70
  -2   8  -3   41.00   18.90
   2   8   3  -13.70   14.80
   2   8   3   -6.70    7.00
   2   8   3   -9.00   15.80
   8   0  -4   -7.00   15.00
   8   0  -4   10.30   14.10
   8   0  -4    9.80   13.60
   8   0  -4   -9.10   15.50
  -8   0   4   11.80   12.00
   7   0  -4    1.90    9.50
   7   0  -4   -2.40   10.70
   7   0  -4   -5.40   10.70
   7   0  -4    5.30    9.80
  -7   0   4    2.90    7.40
  -7   0   4    8.30   10.80
  -6   0   4   76.99    9.00
   6   0  -4   88.09   10.90
   6   0  -4   71.09   13.40
  -6   0   4   73.79   11.40
  -6   0   4   91.89   11.20
  -5   0   4    3.60    4.60
   5   0  -4   -1.20    5.30
   5   0  -4    2.00    6.00
   5   0  -4    1.50    5.10
  -5   0   4    5.90    4.20
  -5   0   4    1.80    3.90
   4   0  -4  143.59   10.30
   4   0  -4  156.88   10.30
  -4   0   4  168.38    8.60
  -4   0   4  150.18    8.30
  -4   0   4  158.58   11.40
  -3   0   4    4.20    3.60
   3   0  -4    0.00    3.40
   3   0  -4    2.60    2.60
   3   0  -4   -1.60    2.60
  -3   0   4    0.30    1.70
  -3   0   4   -0.40    1.70
   2   0  -4 7150.68  186.28
  -2   0   4 7350.86  188.98
   2   0  -4 7494.65  189.08
   2   0  -4 7184.68  186.38
   1   0  -4   -1.40    1.60
   0   0   4  517.75   15.80
   0   0  -4  510.85   15.70
   0   0  -4  518.15   14.20
   0   0  -4  531.95   14.30
   1   0   4   -1.60    2.00
  -1   0  -4   -2.80    1.90
  -1   0  -4    1.40    1.90
   1   0   4   -0.60    1.60
  -1   0  -4   -0.30    1.80
   1   0   4    0.20    1.60
   2   0   4  412.96   14.90
  -2   0  -4  408.36   15.30
  -2   0  -4  381.46   14.40
   2   0   4  385.96   14.90
  -2   0  -4  390.66   15.10
   2   0   4  381.56   14.70
  -2   0  -4  395.16   14.90
  -3   0  -4   -5.60    3.60
   3   0   4   -1.20    3.10
  -3   0  -4    1.70    3.40
   3   0   4    2.00    3.90
  -3   0  -4   -2.50    3.60
   3   0   4    4.60    3.90
   4   0   4  470.95   21.00
  -4   0  -4  472.65   20.10
   4   0   4  467.05   20.30
  -4   0  -4  468.75   20.20
   4   0   4  535.25   20.80
  -5   0  -4   15.00    7.00
   5   0   4    6.00    7.20
   5   0   4    7.50    6.20
  -5   0  -4   -0.10    7.50
   5   0   4   -0.30    4.20
  -5   0  -4    3.40    4.80
   5   0   4    3.40    6.40
  -6   0  -4    6.60    9.40
   6   0   4    5.70    6.30
  -6   0  -4    8.50    8.00
   6   0   4   -2.00    5.90
  -7   0  -4  -27.50   11.50
   7   0   4   -3.70    9.20
  -7   0  -4  -11.20   11.20
  -7   0  -4  -20.00   11.00
   7   0   4    5.10    9.80
   7   0   4  -12.60   11.70
  -8   0  -4    5.80   18.20
  -8   0  -4   25.90   17.90
  -8   0  -4   -0.60   17.10
   8   0   4   34.60   19.60
   8   0   4   -4.20   14.80
   8   0   4   35.60   14.90
   8  -1  -4   -8.70   13.60
  -8  -1   4  -12.30   11.40
   8  -1  -4    8.60   13.90
   8  -1  -4   42.10   16.10
  -8  -1   4   14.40   11.80
  -8  -1   4    1.70   15.80
   8   1  -4   -1.70   13.90
  -8   1   4   29.30   16.70
   8   1  -4  -13.60   14.20
  -8   1   4   22.80   13.20
   8   1  -4    6.30   15.90
   8   1  -4   24.80   14.00
  -8   1   4   24.10   17.90
   7  -1  -4  278.97   21.90
   7  -1  -4  264.57   23.90
   7  -1  -4  279.97   22.40
  -7  -1   4  292.27   19.20
  -7  -1   4  274.77   19.10
   7   1  -4  296.77   22.80
   7   1  -4  345.77   24.70
   7   1  -4  289.17   23.30
  -7   1   4  260.07   19.30
  -7   1   4  285.97   18.40
   7   1  -4  281.57   22.60
  -6  -1   4 2001.10   60.59
   6  -1  -4 2077.49   63.79
  -6  -1   4 2176.88   60.99
   6  -1  -4 1867.91   80.09
  -6   1   4 2163.88   60.49
  -6   1   4 2019.10   63.79
   6   1  -4 1960.40   65.39
   6   1  -4 1980.60   64.49
   6   1  -4 2076.99   64.89
   6   1  -4 2055.39   64.09
  -6   1   4 2068.59   60.09
   5  -1  -4  366.36   18.40
  -5  -1   4  390.16   19.80
  -5  -1   4  362.56   16.40
   5  -1  -4  369.46   18.40
  -5  -1   4  371.06   16.70
   5  -1  -4  352.26   18.20
  -5   1   4  379.06   15.90
   5   1  -4  371.26   19.00
   5   1  -4  341.77   18.00
   5   1  -4  368.56   18.80
  -5   1   4  373.76   19.20
  -5   1   4  387.56   15.90
  -4  -1   4   99.89   10.00
  -4  -1   4   92.59    7.60
   4  -1  -4   92.59    8.30
   4  -1  -4   91.99    9.10
  -4  -1   4  103.99    8.00
   4  -1  -4  131.49   10.00
   4   1  -4   97.99    8.70
   4   1  -4   98.79    8.50
  -4   1   4   96.59    6.90
   4   1  -4   93.69    9.10
  -4   1   4   99.29    6.90
  -4   1   4   95.29    9.30
  -3  -1   4   25.70    5.20
   3  -1  -4   28.40    4.70
  -3  -1   4   35.00    4.50
   3  -1  -4   29.00    4.10
  -3  -1   4   28.90    3.60
   3  -1  -4   31.70    4.10
  -3   1   4   35.90    3.50
   3   1  -4   24.20    4.20
  -3   1   4   36.80    3.30
   3   1  -4   29.00    4.60
   3   1  -4   29.40    5.30
  -3   1   4   37.60    4.90
   2  -1  -4 2021.90   54.39
  -2  -1   4 2034.50   53.89
   2  -1  -4 2062.69   56.19
   2  -1  -4 2037.40   54.49
   2   1  -4 2024.70   57.39
   2   1  -4 2095.89   55.59
  -2   1   4 2065.79   56.19
   2   1  -4 2096.09   55.49
   1  -1  -4  506.25   15.30
   1  -1  -4  574.84   16.80
  -1  -1   4  574.74   14.90
   1  -1  -4  572.04   14.80
   1   1  -4  569.84   16.70
   1   1  -4  557.54   16.70
   0  -1   4 2698.23   70.59
   0  -1   4 2758.32   71.69
   0  -1  -4 2710.23   71.49
   0  -1  -4 2843.82   74.19
   0  -1   4 2737.73   71.69
   0   1  -4 2712.93   70.59
   0   1  -4 2758.62   72.59
   0   1   4 2799.92   74.19
   0   1  -4 2858.01   72.69
   1  -1   4  111.19    6.10
  -1  -1  -4  114.49    7.20
   1  -1   4   97.69    5.30
  -1  -1  -4  104.99    6.30
   1  -1   4  107.79    6.00
  -1  -1  -4   98.59    5.00
  -1   1  -4  108.39    6.50
  -1   1  -4  104.59    6.60
   1   1   4   98.49    5.50
   1   1   4  107.09    5.50
   1   1   4   95.89    7.00
   2  -1   4   18.30    3.90
  -2  -1  -4   20.50    3.20
  -2  -1  -4   17.90    4.20
  -2  -1  -4   22.90    4.10
  -2  -1  -4   25.10    4.50
   2  -1   4   21.30    3.90
   2  -1   4   20.30    3.60
   2   1   4   24.90    4.50
   2   1   4   23.50    3.80
   2   1   4   26.20    4.00
  -2   1  -4   19.30    4.00
  -2   1  -4   23.10    4.20
  -3  -1  -4  179.68   10.80
  -3  -1  -4  188.38   10.10
   3  -1   4  186.18   10.80
  -3  -1  -4  185.88   11.50
  -3  -1  -4  177.68   11.30
   3  -1   4  192.48   11.60
   3  -1   4  169.78   11.10
   3   1   4  189.58   11.10
   3   1   4  185.58   11.10
  -3   1  -4  205.18   12.00
   3   1   4  195.48   10.30
  -3   1  -4  197.28   11.00
   3   1   4  188.98   11.80
  -3   1  -4  191.18   10.60
  -4  -1  -4    1.60    4.60
   4  -1   4    7.30    5.00
  -4  -1  -4    0.30    5.20
   4  -1   4    3.80    5.20
   4   1   4   -3.40    5.00
   4   1   4    2.30    5.10
   4   1   4   -0.30    4.30
  -4   1  -4   -1.50    4.60
  -4   1  -4    6.00    4.80
   5  -1   4   43.10    8.50
   5  -1   4   47.20    7.80
  -5  -1  -4   46.40    7.90
   5  -1   4   32.30    8.60
  -5  -1  -4   40.80    8.30
  -5   1  -4   51.49   10.50
  -5   1  -4   27.60    8.30
   5   1   4   43.50    7.80
   5   1   4   51.59    8.40
   5   1   4   45.80    7.90
   5   1   4   43.80   10.30
  -6  -1  -4   -2.30    8.30
  -6  -1  -4    2.70    8.60
   6  -1   4   -7.00    7.70
   6   1   4   -0.30    9.50
  -6   1  -4   -8.10    6.40
  -6   1  -4   12.00    6.70
   6   1   4    0.90    7.70
  -7  -1  -4   67.89   15.00
   7  -1   4   42.40   13.30
  -7  -1  -4   61.19   14.60
   7  -1   4   47.10   13.60
  -7  -1  -4   54.99   13.70
   7  -1   4   65.59   14.00
   7   1   4   70.49   13.30
   7   1   4   58.09   14.40
  -7   1  -4   65.99   14.60
   7   1   4   56.19   12.40
   7   1   4   68.19   14.00
  -7   1  -4   47.90   13.40
  -7   1  -4   67.39   14.40
  -8  -2   4   -2.70   12.70
   8  -2  -4  -10.40   14.80
   8  -2  -4   14.70   15.50
  -8  -2   4   -3.40   11.90
   8  -2  -4   -1.90   15.80
  -8   2   4   -3.30   15.20
   8   2  -4   -4.20   15.70
   8   2  -4    7.60   16.20
   8   2  -4    3.30   12.40
   8   2  -4   35.40   16.40
   7  -2  -4    4.40   10.90
  -7  -2   4  -10.00   10.40
   7  -2  -4   -2.70   10.90
  -7  -2   4    2.00    8.30
   7  -2  -4    4.80   10.20
  -7  -2   4   -9.00    9.40
   7   2  -4   17.80    9.00
   7   2  -4   23.10   12.20
   7   2  -4   14.80   11.90
  -7   2   4   -0.40   10.00
  -6  -2   4  171.28   15.40
   6  -2  -4  183.28   19.50
   6  -2  -4  171.28   17.20
   6  -2  -4  186.98   16.30
  -6   2   4  184.28   13.40
   6   2  -4  146.19   16.50
  -6   2   4  228.08   14.40
   6   2  -4  176.68   20.00
   6   2  -4  150.88   16.90
  -6   2   4  159.08   17.00
   6   2  -4  157.98   17.40
   5  -2  -4  225.78   15.90
  -5  -2   4  223.98   13.20
   5  -2  -4  159.18   13.50
  -5  -2   4  216.88   13.70
   5  -2  -4  220.28   14.40
  -5   2   4  205.68   12.10
  -5   2   4  219.58   12.60
   5   2  -4  198.38   15.30
   5   2  -4  211.98   15.80
  -5   2   4  217.68   15.40
   5   2  -4  217.08   15.80
   4  -2  -4  255.27   13.50
  -4  -2   4  282.47   13.60
  -4  -2   4  270.97   13.40
   4  -2  -4  267.27   14.40
   4  -2  -4  256.97   13.80
  -4  -2   4  252.37   15.20
   4   2  -4  253.67   14.50
  -4   2   4  274.67   11.70
  -4   2   4  269.67   14.20
   4   2  -4  278.17   14.50
  -4   2   4  260.87   11.80
   4   2  -4  256.27   13.90
  -3  -2   4  707.33   22.90
   3  -2  -4  696.23   23.40
   3  -2  -4  684.93   23.40
   3  -2  -4  684.53   23.10
  -3  -2   4  703.33   22.90
  -3   2   4  678.73   20.70
   3   2  -4  694.93   25.00
   3   2  -4  667.13   22.90
  -3   2   4  702.03   23.40
   3   2  -4  711.93   24.40
   3   2  -4  712.53   24.00
  -3   2   4  703.73   21.00
  -2  -2   4  674.43   20.70
   2  -2  -4  620.74   20.30
   2  -2  -4  648.24   20.00
   2  -2  -4  640.74   20.40
  -2  -2   4  614.74   20.30
   2   2  -4  629.64   21.60
  -2   2   4  626.74   17.90
   2   2  -4  624.64   22.40
  -2   2   4  643.44   20.10
   2   2  -4  648.84   21.50
   2   2  -4  660.93   19.80
   1  -2  -4 1701.43   43.50
   1  -2  -4 1621.84   44.80
  -1  -2   4 1649.63   45.30
  -1  -2   4 1615.54   45.30
   1  -2  -4 1662.33   47.80
   1  -2  -4 1658.83   44.80
   1   2  -4 1674.13   43.00
  -1   2   4 1595.44   42.60
   1   2  -4 1652.83   46.30
  -1   2   4 1634.74   42.70
   1   2  -4 1631.84   46.20
  -1   2   4 1622.94   43.50
   0  -2  -4   62.29    5.20
   0  -2  -4   57.99    5.10
   0  -2   4   55.29    5.00
   0  -2  -4   61.39    5.70
   0  -2   4   62.49    5.20
   0   2  -4   64.59    6.10
   0   2  -4   55.69    6.10
   0   2   4   57.99    5.90
   0   2   4   58.39    4.10
  -1  -2  -4  566.24   19.00
  -1  -2  -4  552.84   15.70
   1  -2   4  542.05   19.10
  -1  -2  -4  550.14   19.00
   1  -2   4  573.04   19.30
  -1  -2  -4  566.64   20.40
   1   2   4  561.64   18.20
   1   2   4  541.75   20.10
  -1   2  -4  564.74   19.70
  -1   2  -4  580.44   20.10
  -2  -2  -4   20.00    3.00
  -2  -2  -4   26.30    4.60
   2  -2   4   21.50    4.60
   2  -2   4   17.20    4.40
  -2  -2  -4   13.60    4.00
  -2  -2  -4   15.10    4.40
   2   2   4   22.40    4.60
   2   2   4   20.70    4.30
  -2   2  -4   13.80    4.50
  -2   2  -4   17.30    4.90
   2   2   4   18.90    4.00
   2   2   4   18.70    3.10
  -3  -2  -4  387.96   17.40
   3  -2   4  385.86   16.90
  -3  -2  -4  330.07   16.80
  -3  -2  -4  348.47   16.90
  -3  -2  -4  344.47   14.30
   3  -2   4  333.77   16.40
  -3   2  -4  353.06   17.10
   3   2   4  342.67   16.00
   3   2   4  343.67   17.10
  -3   2  -4  351.46   16.90
   3   2   4  340.87   14.10
   3   2   4  356.86   16.20
  -3   2  -4  315.97   15.40
  -4  -2  -4    1.10    6.20
   4  -2   4   -0.30    4.30
  -4  -2  -4   -0.10    4.60
   4  -2   4   -3.70    4.10
   4   2   4   -4.10    5.70
  -4   2  -4   -4.70    3.90
   4   2   4   -5.50    5.30
  -4   2  -4   -1.80    5.70
   4   2   4   -3.80    4.20
   5  -2   4  335.17   19.10
   5  -2   4  295.37   19.30
   5  -2   4  288.57   20.00
  -5  -2  -4  335.67   21.30
  -5  -2  -4  303.47   17.50
  -5   2  -4  328.07   20.90
   5   2   4  352.66   19.70
  -5   2  -4  333.17   22.90
   6  -2   4   73.29   12.60
  -6  -2  -4   58.69   10.90
   6  -2   4   42.90   11.00
  -6  -2  -4   76.19   11.30
   6   2   4   92.89   18.50
   6   2   4   70.99   12.10
  -6   2  -4   84.69   12.90
  -7  -2  -4  -14.10   11.10
   7  -2   4   12.20   12.90
   7  -2   4  -11.50   12.40
  -7  -2  -4    2.30   13.80
   7  -2   4    2.80   13.90
  -7  -2  -4   -1.60    9.70
  -7   2  -4   -3.00   12.80
  -7   2  -4   -5.70   13.00
   7   2   4   31.80   13.50
   7   2   4    0.30   12.80
   7   2   4   -9.80   12.70
   7   2   4   -1.10   12.10
   7  -3  -4  303.07   26.40
  -7  -3   4  310.87   23.30
   7  -3  -4  329.67   26.10
  -7  -3   4  299.57   22.80
  -7  -3   4  292.97   24.20
   7  -3  -4  297.57   21.20
  -7   3   4  304.57   21.00
   7   3  -4  326.87   26.40
  -7   3   4  278.67   24.90
  -7   3   4  328.17   22.00
   7   3  -4  333.37   26.30
   7   3  -4  296.17   26.90
  -6  -3   4   14.50    8.20
   6  -3  -4   20.10    9.20
  -6  -3   4   29.20    8.50
   6  -3  -4   19.00    8.50
  -6  -3   4   -2.80    9.90
   6  -3  -4    7.90    9.40
   6   3  -4   15.20    9.80
   6   3  -4   19.90    8.10
   6   3  -4   25.40    9.70
   6   3  -4   14.40   10.30
  -6   3   4   14.90    7.10
   5  -3  -4  352.46   19.90
  -5  -3   4  334.97   19.10
   5  -3  -4  384.36   20.60
   5  -3  -4  344.07   18.90
  -5   3   4  375.06   19.70
   5   3  -4  289.27   26.10
   5   3  -4  381.26   20.60
  -5   3   4  368.26   17.20
  -5   3   4  368.56   16.70
   5   3  -4  340.57   19.40
   5   3  -4  384.36   20.60
   4  -3  -4  169.18   12.80
   4  -3  -4  194.28   13.40
  -4  -3   4  190.08   12.60
  -4  -3   4  206.18   12.60
   4  -3  -4  200.28   12.70
   4   3  -4  181.88   14.20
  -4   3   4  204.08   12.80
  -4   3   4  196.38   11.10
   4   3  -4  189.48   14.20
   4   3  -4  208.18   12.80
   3  -3  -4   84.19    9.20
   3  -3  -4   77.29    9.00
  -3  -3   4   87.89    8.30
  -3  -3   4   83.29    8.50
   3  -3  -4   86.39    7.50
  -3   3   4   77.09    6.90
   3   3  -4   80.19   10.30
  -3   3   4   90.09    7.30
   3   3  -4   79.79    8.90
  -3   3   4   84.79    7.50
   3   3  -4   84.39    7.60
   2  -3  -4   27.20    4.50
  -2  -3   4   31.80    5.10
  -2  -3   4   24.80    4.60
   2  -3  -4   26.40    4.60
   2   3  -4   26.10    5.40
  -2   3   4   23.70    3.70
   2   3  -4   24.70    3.70
   2   3  -4   20.80    5.10
   2   3  -4   25.40    5.40
  -2   3   4   26.70    3.60
  -2   3   4   29.70    3.80
  -1  -3   4  298.77    9.90
   1  -3  -4  275.67   12.70
  -1  -3   4  302.27   13.10
  -1  -3   4  289.07   12.70
   1  -3  -4  283.37   13.70
   1  -3  -4  277.47   12.50
   1   3  -4  296.27   13.70
  -1   3   4  286.97    9.30
   1   3  -4  280.47    9.90
   1   3  -4  278.17   13.40
  -1   3   4  278.97   11.10
  -1   3   4  275.17   11.10
   0  -3  -4   39.30    6.00
   0  -3  -4   39.70    5.10
   0  -3   4   35.70    5.10
   0  -3  -4   49.99    6.50
   0  -3   4   37.40    5.10
   0  -3   4   36.20    3.50
   0   3   4   43.30    5.30
   0   3   4   40.60    5.30
   0   3  -4   55.19    7.00
   0   3  -4   36.80    5.50
   0   3   4   40.30    6.30
   1  -3   4   46.00    6.00
  -1  -3  -4   67.29    7.40
   1  -3   4   57.49    7.50
  -1  -3  -4   43.40    6.60
  -1  -3  -4   44.60    5.80
  -1   3  -4   59.49    7.80
   1   3   4   58.59    2.90
   1   3   4   65.59    6.50
   1   3   4   74.59    8.70
  -1   3  -4   55.99    7.60
   1   3   4   69.69    6.30
  -2  -3  -4  119.59    6.50
  -2  -3  -4  113.99   10.40
  -2  -3  -4  114.29   10.00
   2  -3   4  119.59   10.30
  -2  -3  -4  120.49   10.10
   2  -3   4  103.59    9.80
   2   3   4  122.59    6.60
  -2   3  -4  122.09   10.50
   2   3   4  116.39    9.00
   2   3   4  119.79   10.90
  -2   3  -4  130.39   10.60
   2   3   4  133.69    9.60
  -3  -3  -4   40.10    7.20
   3  -3   4   42.50    6.70
  -3  -3  -4   37.50    6.80
  -3  -3  -4   33.70    4.70
   3   3   4   44.90    5.40
  -3   3  -4   36.20    6.20
   3   3   4   45.70    8.00
  -3   3  -4   40.40    7.60
   3   3   4   41.40    6.80
  -4  -3  -4  101.19   13.20
  -4  -3  -4  110.79   10.60
   4  -3   4  121.29   14.10
   4  -3   4  112.39   13.00
  -4  -3  -4  120.89   13.90
  -4  -3  -4  100.09   13.80
   4   3   4  118.39   10.00
   4   3   4  116.79   13.30
   4   3   4  132.19   11.90
   4   3   4  115.29   13.90
  -4   3  -4  119.29   13.20
  -4   3  -4  115.29   13.30
  -4   3  -4  122.29   11.20
  -5  -3  -4  158.98   14.30
  -5  -3  -4  144.19   16.90
   5  -3   4  114.99   16.10
  -5  -3  -4  153.38   16.40
   5   3   4  113.29   15.80
  -5   3  -4  149.88   17.20
   5   3   4  103.39   14.60
  -6  -3  -4   -6.00   11.90
   6  -3   4   -7.50   10.80
  -6  -3  -4   -0.90    8.90
  -6  -3  -4   -9.30   10.70
   6  -3   4   -9.70   10.10
  -6   3  -4    0.00   11.30
  -6   3  -4  -15.20   10.90
   6   3   4   -3.10   10.80
   6   3   4    2.70    9.70
   6   3   4   11.00   12.40
   6   3   4   -4.10   15.90
  -7  -3  -4   59.79   13.70
  -7  -3  -4   39.70   16.80
   7  -3   4   70.89   14.90
   7  -3   4   42.00   16.50
  -7  -3  -4   81.09   15.20
   7  -3   4   72.09   15.50
  -7   3  -4   62.49   13.30
   7   3   4   93.59   16.40
   7   3   4   47.70   16.80
  -7   3  -4   61.09   16.60
   7   3   4   54.49   18.30
   7   3   4   81.79   15.60
  -7   3  -4   60.69   16.00
  -7  -4   4  -17.00   12.40
   7  -4  -4   24.40   13.40
   7  -4  -4    7.90   15.20
  -7  -4   4    9.50   13.40
  -7   4   4    1.00   11.90
  -7   4   4    6.60   10.70
   7   4  -4    2.00   14.30
   7   4  -4   12.20   11.40
  -7   4   4    5.70   14.10
   7   4  -4  -20.60   14.10
   7   4  -4  -33.50   15.30
   6  -4  -4   90.19   14.30
  -6  -4   4   89.39   12.70
  -6  -4   4   75.19   12.90
   6  -4  -4   94.19   13.70
   6   4  -4  100.89   14.30
   6   4  -4   86.09   14.40
   6   4  -4   93.29   15.10
  -6   4   4   67.59   10.10
   6   4  -4   83.99   12.90
  -5  -4   4    3.60    6.90
   5  -4  -4   -2.30    7.80
   5  -4  -4   -5.10    8.30
  -5  -4   4    7.20    8.00
   5   4  -4  -11.40    7.70
  -5   4   4   19.40    7.00
   5   4  -4   10.30    9.00
   5   4  -4    4.50    7.40
  -5   4   4   -0.40    7.00
   5   4  -4   -0.60    8.90
   4  -4  -4  651.63   28.10
   4  -4  -4  820.42   28.50
  -4  -4   4  688.13   27.60
  -4  -4   4  765.52   26.80
   4   4  -4  695.63   28.40
  -4   4   4  640.84   26.20
  -4   4   4  707.53   25.60
   4   4  -4  668.33   28.70
   4   4  -4  660.93   26.20
  -4   4   4  646.94   24.80
  -3  -4   4   57.49    8.10
   3  -4  -4   59.79    7.80
   3  -4  -4   56.79    7.70
   3   4  -4   89.69    9.60
   3   4  -4   52.09    8.80
  -3   4   4   66.19    8.90
  -3   4   4   61.39    7.30
  -3   4   4   56.69    7.90
   2  -4  -4  147.79   11.40
  -2  -4   4  157.88    9.20
  -2  -4   4  151.78   11.20
  -2  -4   4  167.78   12.20
   2  -4  -4  151.68   11.60
   2   4  -4  152.08   12.70
  -2   4   4  147.79    8.20
  -2   4   4  147.79    9.50
  -2   4   4  146.99    9.90
   2   4  -4  148.39    9.50
  -1  -4   4   23.20    3.50
  -1  -4   4   23.20    5.50
   1  -4  -4   19.60    5.20
  -1  -4   4   22.10    5.20
   1  -4  -4   10.80    5.00
  -1   4   4   20.30    4.40
  -1   4   4   16.80    2.60
  -1   4   4   20.00    4.30
   1   4  -4   12.90    5.80
   1   4  -4   22.20    5.90
   0  -4  -4  377.56   17.00
   0  -4   4  402.76   13.50
   0  -4   4  373.76   17.30
   0  -4  -4  365.16   16.70
   0  -4   4  358.26   17.00
   0  -4  -4  372.06   18.10
   0   4  -4  359.26   17.70
   0   4  -4  333.27   17.30
   0   4   4  373.16   15.90
   0   4   4  337.17   15.10
   1  -4   4  209.18   10.00
  -1  -4  -4  198.48   13.20
  -1  -4  -4  186.68   12.40
  -1  -4  -4  235.98   12.60
   1  -4   4  196.08   13.40
   1  -4   4  206.98   13.30
   1   4   4  181.98   14.10
   1   4   4  186.48   11.70
   1   4   4  199.58    6.70
   1   4   4  214.88   12.50
  -1   4  -4  200.78   13.80
  -2  -4  -4    7.10    5.40
   2  -4   4    2.60    5.70
   2   4   4    8.90    5.10
   2   4   4    4.10    2.70
   2   4   4   -0.80    5.70
  -2   4  -4   -0.60    5.90
   2   4   4    4.10    4.70
  -3  -4  -4   47.30    9.00
  -3  -4  -4   54.59    9.20
  -3  -4  -4   62.39    9.40
   3  -4   4   63.09    8.80
   3  -4   4   46.80    9.00
   3   4   4   52.29    8.20
  -3   4  -4   44.30    9.20
   3   4   4   58.49    9.80
  -3   4  -4   54.99    9.30
  -3   4  -4   55.79    8.90
   3   4   4   59.89    7.30
   4  -4   4   36.50    9.70
  -4  -4  -4   35.10   10.90
  -4  -4  -4   18.60   10.10
  -4  -4  -4   26.50    6.50
   4   4   4   35.70   10.20
   4   4   4   17.90    6.10
  -4   4  -4   26.70    9.60
  -4   4  -4   22.00    7.00
   5  -4   4   20.10   10.60
  -5  -4  -4   55.59    9.40
  -5  -4  -4   38.80    9.10
  -5  -4  -4   37.30   11.30
   5  -4   4   31.30   10.70
  -5   4  -4   17.90   10.40
  -5   4  -4   30.20    8.20
  -5   4  -4   35.30   10.60
   5   4   4   32.10   11.90
   5   4   4   32.10    9.90
  -6  -4  -4   57.69   15.40
  -6  -4  -4   37.10   13.60
  -6  -4  -4   46.00   13.40
  -6  -4  -4   45.70   11.40
   6  -4   4   54.69   12.30
   6  -4   4   40.80   13.50
  -6   4  -4   34.80   13.10
  -6   4  -4   38.20   14.50
  -6   4  -4   46.80   14.40
   6   4   4   51.39   15.40
   6   4   4   48.60   13.60
   6   4   4   51.89   12.50
   6   4   4   58.09   13.50
   7  -4   4   32.00   16.80
  -7  -4  -4   10.10   15.60
   7  -4   4   21.80   15.90
  -7  -4  -4    6.90   24.10
   7  -4   4   13.60   17.40
  -7  -4  -4   34.30   18.70
  -7   4  -4   22.80   19.20
  -7   4  -4   16.70   16.60
   7   4   4   22.40   18.90
   7   4   4   27.80   16.60
   7   4   4   -1.40   15.50
  -7   4  -4   76.69   18.00
   6  -5  -4   20.40   13.90
   6  -5  -4   22.70   14.50
  -6  -5   4   -8.40   12.00
  -6  -5   4   16.80   11.80
   6   5  -4   16.50   13.80
   6   5  -4   20.20   15.60
   6   5  -4   22.80   13.00
  -6   5   4   37.80   12.00
   6   5  -4   25.60   13.10
  -6   5   4   10.30   11.60
  -5  -5   4    3.70    9.90
   5  -5  -4    1.60   10.70
   5  -5  -4    3.60    9.60
  -5  -5   4    6.10    9.40
  -5   5   4    7.00    9.70
   5   5  -4  -15.30   11.50
   5   5  -4  -10.90   10.20
   5   5  -4   -1.20   10.70
  -5   5   4    5.40    7.50
   4  -5  -4  182.18   18.40
   4  -5  -4  237.88   19.00
  -4  -5   4  194.28   17.40
   4   5  -4  232.78   17.60
   4   5  -4  246.68   19.60
   4   5  -4  220.08   20.10
   4   5  -4  221.18   19.20
  -4   5   4  233.78   15.80
  -4   5   4  239.08   15.80
  -3  -5   4   44.30    9.10
  -3  -5   4   39.90    8.40
   3  -5  -4   36.60    8.90
   3  -5  -4   47.80    8.70
   3  -5  -4   34.30   17.30
  -3  -5   4   48.10    7.20
   3   5  -4   52.99   10.10
   3   5  -4   57.29    9.40
  -3   5   4   62.19    8.50
   3   5  -4   50.69    9.20
   3   5  -4   61.59    8.40
  -3   5   4   50.39    7.60
  -3   5   4   58.59    7.10
   2  -5  -4    4.70    7.60
  -2  -5   4   21.60    5.00
   2  -5  -4   13.60    7.20
  -2  -5   4   16.70    6.60
  -2  -5   4   15.00    6.90
   2   5  -4   12.60    8.50
  -2   5   4   19.70    4.20
  -2   5   4   19.30    5.60
   2   5  -4   19.40    5.80
   2   5  -4    8.70    7.30
  -2   5   4   20.40    6.50
   2   5  -4   22.40    6.60
  -1  -5   4    8.40    6.50
  -1  -5   4   10.30    4.30
   1  -5  -4   12.00    7.00
   1  -5  -4   15.70    6.90
   1   5  -4    3.10    7.10
   1   5  -4   12.40    6.50
  -1   5   4   15.40    5.40
  -1   5   4   12.80    3.00
  -1   5   4    9.30    5.90
   0  -5  -4   61.59    9.30
   0  -5  -4   70.69    8.70
   0  -5   4   53.99    8.70
   0  -5   4   57.39    7.90
   0  -5  -4   55.49    8.30
   0   5   4   57.69    4.00
   0   5  -4   57.39    8.30
   0   5   4   75.19    9.60
   0   5   4   76.99    9.40
   0   5   4   59.89    4.20
   0   5  -4   68.69    9.30
  -1  -5  -4  174.28   14.40
   1  -5   4  146.69   13.40
  -1  -5  -4  151.28   14.30
   1  -5   4  136.59   10.00
  -1  -5  -4  127.99   12.40
   1  -5   4  125.79   12.00
   1   5   4  152.18   13.30
   1   5   4  114.39   11.70
  -1   5  -4  169.28   15.00
  -1   5  -4  115.49   13.70
   1   5   4  140.89    6.70
  -2  -5  -4   45.80    8.40
   2  -5   4   29.30    8.10
  -2  -5  -4   23.80    8.50
   2  -5   4   24.30   10.00
   2   5   4   43.00    5.50
   2   5   4   35.90    8.00
  -2   5  -4   41.20    8.80
   2   5   4   30.30    6.90
  -3  -5  -4   39.30   11.40
  -3  -5  -4   53.49   10.70
  -3  -5  -4   62.99   11.10
   3  -5   4   56.79   11.50
   3  -5   4   52.49   10.80
   3   5   4   47.60    6.00
   3   5   4   59.09   11.00
  -3   5  -4   43.20   10.40
   3   5   4   37.30    9.20
   3   5   4   45.80   11.30
  -3   5  -4   54.99    8.60
   4  -5   4   11.80    9.30
  -4  -5  -4   17.60   10.70
  -4  -5  -4   20.00   10.60
  -4  -5  -4   18.50   17.10
   4  -5   4   -1.40   10.20
  -4   5  -4   23.00   11.10
   4   5   4   22.20    6.70
   4   5   4   20.60    9.40
   4   5   4   30.90   11.00
  -5  -5  -4   -6.60   11.10
  -5  -5  -4    9.10   11.50
  -5  -5  -4   16.10   12.90
   5  -5   4  -21.10   12.20
   5  -5   4   28.10   12.70
   5   5   4  -16.70    8.50
  -5   5  -4    5.10   12.70
   5   5   4    3.50   11.90
   5   5   4   10.30   10.20
  -5   5  -4   12.10   12.00
  -5   5  -4   -7.20   12.20
  -6  -5  -4   -1.30   11.40
   6  -5   4    1.30   14.30
  -6  -5  -4    1.90   16.40
  -6  -5  -4   10.80   14.20
  -6  -5  -4   34.60   15.70
   6  -5   4    0.80   15.90
   6   5   4   -1.50   13.90
  -6   5  -4  -10.00   14.20
   6   5   4  -20.60   14.40
  -6   5  -4    0.50   16.00
  -6   5  -4   12.90   11.90
   6   5   4    4.60   17.30
   6   5   4    8.60   12.60
   5  -6  -4   23.00   13.90
  -5  -6   4    4.70   12.60
   5  -6  -4   15.60   14.00
  -5  -6   4   -4.70   12.00
   5   6  -4   35.30   14.70
  -5   6   4   -2.30   11.30
   5   6  -4   -2.20   15.50
   5   6  -4   -6.80   13.70
  -5   6   4   -3.70   10.50
  -5   6   4    5.20   12.10
   5   6  -4    0.40   12.10
   4  -6  -4   82.99   13.30
  -4  -6   4   75.29   12.90
   4  -6  -4   66.49   13.40
   4  -6  -4   99.39   13.90
  -4   6   4   78.79   12.60
   4   6  -4   77.59   14.20
   4   6  -4   53.79   11.80
   4   6  -4   90.19   14.10
   4   6  -4   47.90   14.80
  -4   6   4   75.09   10.90
  -4   6   4   64.89   11.40
   3  -6  -4  163.88   19.40
  -3  -6   4  157.68   17.60
   3  -6  -4  144.09   18.00
   3  -6  -4  167.98   18.40
  -3  -6   4  142.39   17.90
   3   6  -4  141.69   15.50
  -3   6   4  140.89   12.30
   3   6  -4  122.99   15.10
   3   6  -4  177.08   16.70
   3   6  -4  108.29   15.20
  -3   6   4  139.89   15.40
  -3   6   4  142.59   14.70
  -2  -6   4   -3.40    9.60
   2  -6  -4    6.70    9.70
  -2  -6   4    7.90    6.20
  -2  -6   4    0.80    8.80
   2  -6  -4   20.80    9.30
   2   6  -4   25.40   10.70
   2   6  -4   -6.80    9.40
  -2   6   4   14.40    7.10
   2   6  -4    2.70    8.80
  -2   6   4   13.10    4.70
  -1  -6   4   30.40   16.00
   1  -6  -4   10.80    9.10
  -1  -6   4    5.90    5.90
   1  -6  -4   24.40    8.30
  -1  -6   4    1.10    7.80
   1  -6  -4   21.50    9.10
  -1   6   4   17.10    4.00
   1   6  -4   17.00    8.20
  -1   6   4   10.30    7.20
   0  -6   4   25.70    6.40
   0  -6  -4   10.20    9.30
   0  -6  -4   12.50    9.10
   0  -6  -4   10.20    8.00
   0  -6   4   15.00    8.80
   0   6   4   22.30    3.50
   0   6   4   19.40    3.20
   0   6  -4   30.00    9.20
   0   6   4   22.40    7.90
   0   6   4   23.70    8.10
   1  -6   4   -0.60    8.90
  -1  -6  -4    6.90    6.70
   1  -6   4   13.70    8.30
  -1  -6  -4   22.10    8.10
   1  -6   4   -0.90    5.70
  -1  -6  -4    4.00    8.30
   1   6   4    1.20    7.90
   1   6   4   12.90    3.00
   1   6   4    1.60    9.90
   1   6   4   17.30    7.60
  -1   6  -4   10.90    8.90
  -2  -6  -4   84.09   12.80
  -2  -6  -4   61.49   11.80
   2  -6   4  122.59   16.70
  -2  -6  -4   63.59   12.60
   2   6   4   59.99   10.80
  -2   6  -4   75.89   12.00
   2   6   4   96.39   14.10
   2   6   4   56.09   13.30
   2   6   4   70.49    7.50
  -3  -6  -4   96.99   14.70
  -3  -6  -4   91.69   14.40
  -3  -6  -4  108.89   15.40
   3  -6   4  154.58   19.50
   3  -6   4  138.49   16.00
   3   6   4  130.49   18.20
  -3   6  -4   61.79   14.10
   3   6   4  122.39   10.40
   3   6   4   98.09   15.10
  -3   6  -4  107.29   15.10
   4  -6   4   14.10   13.40
  -4  -6  -4   22.90   13.00
  -4  -6  -4   10.80   12.40
  -4  -6  -4   -5.70   12.20
   4  -6   4    9.80   12.60
   4   6   4    0.00   12.20
   4   6   4  -21.70   10.80
   4   6   4   -5.10   13.40
  -4   6  -4   21.80   13.20
   4   6   4   11.90    7.10
  -4   6  -4   15.30   12.40
  -4   6  -4    7.40   11.60
  -5  -6  -4   15.50   15.90
   5  -6   4   25.60   15.70
  -5  -6  -4    7.20   16.30
  -5  -6  -4   18.00   16.40
   5  -6   4   29.20   16.30
  -5   6  -4    8.20   16.60
  -5   6  -4   16.20   14.70
  -5   6  -4    5.10   16.40
   5   6   4   13.20   15.10
   5   6   4   36.80   10.40
   5   6   4    0.50   17.30
  -4  -7   4    0.60   13.90
  -4  -7   4   39.80   15.90
   4  -7  -4   45.30   14.20
   4  -7  -4   38.00   16.40
   4  -7  -4   18.00   16.10
  -4   7   4   43.90   13.00
  -4   7   4   46.20   11.20
   4   7  -4   58.39   17.30
   4   7  -4   51.89   18.60
   4   7  -4   72.49   18.50
  -4   7   4   43.90   15.30
   4   7  -4   30.70   14.40
   3  -7  -4   12.20   13.00
  -3  -7   4   -1.20   12.30
   3  -7  -4   12.90   13.20
   3  -7  -4   22.50   14.60
  -3  -7   4    9.80   12.60
  -3  -7   4    0.80    9.70
   3   7  -4   -6.30   10.60
  -3   7   4    9.70    7.70
   3   7  -4  -23.00   13.20
  -3   7   4    6.20   10.80
   3   7  -4   17.60   13.40
  -2  -7   4   30.10   12.00
  -2  -7   4   64.99   13.30
   2  -7  -4   33.90   12.60
   2  -7  -4   59.39   14.00
   2  -7  -4   18.70   12.50
   2   7  -4   45.20   14.40
  -2   7   4   32.90    6.60
  -2   7   4   16.80   19.80
   2   7  -4   21.60   13.80
   2   7  -4   45.10   12.80
   1  -7  -4   27.00   12.20
  -1  -7   4   20.60   10.90
   1  -7  -4   23.00   12.20
  -1  -7   4   21.30   10.00
   1  -7  -4   27.10   12.30
  -1   7   4   33.60   11.80
   1   7  -4   39.80   10.80
  -1   7   4   35.00    5.40
   1   7  -4   -2.20   11.20
  -1   7   4   36.00   21.40
   0  -7  -4   14.70   12.20
   0  -7  -4    0.60   10.80
   0  -7  -4   -0.80   11.50
   0  -7   4   -3.20   10.70
   0  -7   4   20.30   12.00
   0   7   4    4.80    3.70
   0   7   4   -1.20    3.70
   0   7  -4    0.50   11.70
   0   7  -4   25.80   12.90
   0   7   4  -14.90    8.80
   0   7   4   -2.30   11.20
   1  -7   4   -3.90   11.40
  -1  -7  -4    3.10    9.70
  -1  -7  -4  -12.20   10.90
  -1  -7  -4   30.60   12.20
   1  -7   4  -10.00   11.90
   1   7   4    8.10    3.70
   1   7   4   -0.50   11.20
  -1   7  -4    3.00   12.40
  -1   7  -4   14.50   12.60
   1   7   4   26.10   11.50
  -2  -7  -4   52.79   14.70
  -2  -7  -4   31.80   14.20
   2  -7   4   31.50    9.20
   2  -7   4   52.49   14.00
   2  -7   4   28.70   12.40
  -2  -7  -4   58.19   13.60
  -2   7  -4   14.50   14.10
   2   7   4   21.00   11.60
   2   7   4   24.80   13.20
   2   7   4   15.50   14.80
   2   7   4   39.90    5.50
  -2   7  -4   20.90   12.90
   3  -7   4   25.60   14.80
   3  -7   4    2.90   11.50
   3  -7   4    0.30   14.60
  -3  -7  -4  -18.20   14.20
  -3  -7  -4   20.00   14.20
  -3  -7  -4   33.00   15.30
   3   7   4  -17.90   12.60
  -3   7  -4   10.30   11.10
   3   7   4   17.50   13.30
   3   7   4   11.30    6.30
  -3   7  -4    9.40   14.90
  -3   7  -4   -1.60   15.60
   3   7   4   25.90   16.20
   4  -7   4   20.90   16.20
  -4  -7  -4   23.90   19.00
   4  -7   4    6.70   17.00
   4  -7   4   35.70   17.50
  -4  -7  -4   31.50   17.60
  -4  -7  -4   17.60   17.20
   4   7   4   49.90   18.10
  -4   7  -4   11.20   17.80
  -4   7  -4    7.30   13.30
   4   7   4   24.80   15.60
  -4   7  -4   22.10   18.30
   4   7   4   32.80   19.60
  -2  -8   4   -1.20   11.10
  -2  -8   4   15.60   15.80
   2  -8  -4   20.10   17.00
  -2  -8   4  -15.90   16.00
   2  -8  -4    6.20   17.00
   2  -8  -4   18.00   17.00
   2   8  -4   -4.90   17.00
   2   8  -4   -4.30   18.90
  -2   8   4   -2.10   16.40
   2   8  -4  -39.40   15.40
  -2   8   4   -9.10   14.70
  -2   8   4   13.80    7.50
  -1  -8   4    7.50   15.20
   1  -8  -4  -14.60   16.50
   1  -8  -4  -17.50   15.30
   1  -8  -4   -8.00   16.00
  -1  -8   4  -23.60   11.10
  -1  -8   4  -17.10   15.40
  -1   8   4   -1.10    5.80
  -1   8   4    8.10   15.60
  -1   8   4   -2.40   12.80
  -1   8   4    4.50    5.70
   1   8  -4  -12.80   11.90
   1   8  -4    9.70   17.50
   0  -8   4   -3.60   13.80
   0  -8  -4   42.60   16.30
   0  -8  -4   -4.10   15.00
   0  -8   4   -0.80   11.70
   0  -8  -4    3.90   16.80
   0  -8   4  -23.40   14.10
   0   8   4   -1.10    4.50
   0   8   4   10.70    4.90
   0   8   4   23.80   12.50
   0   8  -4    0.40   12.90
   0   8   4    8.10   15.50
   0   8  -4    7.40   15.20
  -1  -8  -4   49.80   18.50
   1  -8   4   34.60   12.50
  -1  -8  -4   53.39   19.30
  -1  -8  -4   26.40   15.70
   1  -8   4    5.50   16.20
   1  -8   4   38.10   17.20
  -1   8  -4   48.10   17.30
   1   8   4   29.10    4.90
   1   8   4   26.70    4.40
   1   8   4   25.90   15.50
   1   8   4   13.20   14.40
  -1   8  -4   53.99   17.00
  -8   0   5  -17.60    9.40
   8   0  -5    7.00   12.10
   8   0  -5  -20.00   13.90
  -8   0   5  -18.40    9.60
  -8   0   5   -9.40   15.20
   8   0  -5    2.20   15.70
   8   0  -5  -18.70   15.10
   7   0  -5    3.60   10.60
  -7   0   5   -4.90    6.90
  -7   0   5  -17.20    9.90
   7   0  -5  -19.40   10.40
   7   0  -5   -4.60    9.50
  -6   0   5   -7.20    4.70
   6   0  -5   -2.60    7.50
  -6   0   5   -6.10    6.80
   6   0  -5    9.70    6.50
   6   0  -5    4.70    6.70
  -6   0   5   -0.70    5.10
  -5   0   5 1346.17   38.70
   5   0  -5 1368.56   42.60
   5   0  -5 1349.16   42.80
  -5   0   5 1256.47   43.70
   5   0  -5 1292.47   43.70
  -5   0   5 1314.37   38.40
  -4   0   5    1.80    2.10
   4   0  -5   -6.60    4.50
  -4   0   5    1.70    4.80
  -4   0   5    0.10    2.10
   4   0  -5   -0.80    3.90
   3   0  -5  128.39    9.30
   3   0  -5  134.39    7.20
   3   0  -5  125.49    7.50
  -3   0   5  127.89    9.20
   2   0  -5   -2.40    1.90
   2   0  -5   -0.40    1.40
   2   0  -5   -1.20    1.30
   1   0  -5 1165.48   32.60
   1   0  -5 1134.49   33.00
   0   0  -5    0.00    1.90
   0   0   5    0.90    1.90
   0   0  -5   -0.20    1.20
   0   0  -5    0.50    1.10
  -1   0  -5 2300.07   62.49
   1   0   5 2293.07   62.79
   1   0   5 2304.37   61.29
   1   0   5 2300.57   61.29
  -1   0  -5 2355.96   62.69
  -1   0  -5 2407.76   62.99
  -2   0  -5    2.10    2.90
  -2   0  -5   -0.40    2.90
   2   0   5   -2.00    2.60
  -2   0  -5    0.60    2.70
   2   0   5   -1.90    2.60
  -2   0  -5   -1.40    2.80
   2   0   5   -1.90    2.50
   3   0   5  459.75   17.80
  -3   0  -5  426.06   18.40
  -3   0  -5  419.86   17.30
  -3   0  -5  428.36   18.60
   3   0   5  415.86   17.80
   3   0   5  436.16   18.00
  -4   0  -5    0.60    4.70
   4   0   5   -8.40    5.20
   4   0   5    0.10    5.40
  -4   0  -5   -4.70    5.50
   5   0   5   16.90    7.80
  -5   0  -5   15.40    6.20
   5   0   5   20.00    6.80
   5   0   5   15.60    7.20
  -5   0  -5   23.10    7.60
  -6   0  -5    4.40    9.10
   6   0   5    0.60    8.20
  -6   0  -5   -2.80    8.80
   7   0   5  107.19   15.60
   7   0   5   76.49   15.50
   7   0   5  105.39   16.60
  -7   0  -5   76.59   15.10
  -7   0  -5   73.19   16.30
  -7   0  -5   72.79   15.70
  -8  -1   5    5.40   11.00
   8  -1  -5   -0.40   15.10
  -8  -1   5  -12.20   11.90
  -8  -1   5  -10.50   10.40
   8  -1  -5  -31.90   14.60
   8  -1  -5    9.30   14.10
  -8   1   5   11.90   16.70
  -8   1   5   -7.40    9.30
   8   1  -5   -1.40   14.70
   8   1  -5    6.80   14.90
   8   1  -5    6.70   17.00
   8   1  -5  -23.60   13.90
  -7  -1   5   -6.90    7.40
   7  -1  -5   23.40   11.80
   7  -1  -5    4.50    9.40
   7  -1  -5    1.70   10.50
  -7  -1   5   -2.30   11.00
  -7   1   5    2.10    7.00
  -7   1   5   27.30    7.80
   7   1  -5    7.00   10.00
   7   1  -5   -2.70   11.30
  -7   1   5   21.20   10.70
   7   1  -5    0.40    8.50
   7   1  -5   -7.10   10.40
  -6  -1   5   20.90    6.30
   6  -1  -5   32.70    8.30
  -6  -1   5   15.40    6.30
   6  -1  -5   22.90    9.10
  -6   1   5   40.50    6.60
   6   1  -5   41.20   11.40
   6   1  -5   18.50    9.10
   6   1  -5   35.70    8.30
  -6   1   5   34.20    5.90
  -6   1   5   21.30    9.30
  -5  -1   5  193.88   15.20
  -5  -1   5  183.38   11.00
  -5  -1   5  173.58   10.90
   5  -1  -5  212.28   14.10
   5  -1  -5  204.38   12.90
   5  -1  -5  189.68   13.40
  -5   1   5  177.88    9.50
   5   1  -5  189.38   14.70
  -5   1   5  181.48    9.80
  -5   1   5  179.28   14.50
   5   1  -5  169.58   14.60
  -4  -1   5   94.79    6.90
   4  -1  -5  100.09    8.40
  -4  -1   5  114.29    7.20
  -4  -1   5   97.79   10.50
   4  -1  -5   89.79    8.50
   4  -1  -5  122.99   10.00
  -4   1   5   93.39    5.10
   4   1  -5  100.49    9.50
   4   1  -5   71.79    9.10
  -4   1   5  107.59    5.30
   4   1  -5  108.19    8.70
  -4   1   5   96.39    8.40
  -3  -1   5  320.77   10.50
   3  -1  -5  318.57   12.40
   3  -1  -5  323.37   12.60
   3  -1  -5  327.07   14.20
  -3  -1   5  334.47   10.70
   3   1  -5  332.07   13.50
   3   1  -5  312.67   14.30
   3   1  -5  340.07   13.30
  -3   1   5  346.87   14.30
   2  -1  -5    5.30    1.70
   2  -1  -5    5.30    2.80
   2   1  -5    2.20    2.20
   2   1  -5    2.50    2.20
  -2   1   5    1.40    2.60
   2   1  -5    3.30    2.80
   1  -1  -5  155.38    8.70
   1  -1  -5  153.88    7.00
   1   1  -5  155.98    6.60
   1   1  -5  157.98    6.60
   0  -1   5   71.69    3.40
   0  -1  -5   69.69    6.00
   0  -1  -5   68.49    3.80
   0  -1  -5   67.09    3.80
   0  -1   5   66.79    3.40
   0  -1   5   68.59    3.30
   0   1  -5   73.49    4.90
   0   1  -5   65.69    3.40
   0   1   5   62.09    6.00
   0   1  -5   65.69    4.80
  -1  -1  -5 1368.56   38.60
   1  -1   5 1348.97   38.30
   1  -1   5 1376.46   37.70
  -1  -1  -5 1376.76   40.20
  -1  -1  -5 1373.46   38.70
   1  -1   5 1422.06   38.40
  -1   1  -5 1401.96   39.50
   1   1   5 1355.16   37.30
  -1   1  -5 1318.87   39.10
   1   1   5 1373.06   40.10
  -2  -1  -5   31.50    5.20
  -2  -1  -5   30.40    5.00
   2  -1   5   34.20    4.40
   2  -1   5   30.30    4.30
   2  -1   5   33.00    4.70
  -2  -1  -5   35.90    4.60
   2   1   5   31.60    4.60
   2   1   5   36.00    5.30
  -2   1  -5   32.10    5.10
   2   1   5   31.30    4.30
  -2   1  -5   34.90    4.80
  -3  -1  -5    4.40    4.70
   3  -1   5   14.60    4.30
  -3  -1  -5    6.80    4.80
  -3  -1  -5    5.00    3.60
  -3  -1  -5    7.30    4.80
   3  -1   5    8.80    4.30
   3  -1   5   11.70    4.50
   3   1   5   16.00    4.90
   3   1   5   14.00    4.30
  -3   1  -5   10.10    4.70
   3   1   5   13.20    4.50
  -3   1  -5   19.20    4.90
  -3   1  -5   10.60    4.90
  -4  -1  -5   52.49    7.40
   4  -1   5   33.70    6.70
  -4  -1  -5   40.00    7.30
  -4  -1  -5   32.30    6.30
   4  -1   5   24.20    7.00
   4   1   5   50.89    6.30
   4   1   5   34.40    7.30
   4   1   5   27.80    6.50
  -4   1  -5   27.00    7.30
  -4   1  -5   31.90    7.00
  -5  -1  -5  376.76   23.30
   5  -1   5  391.26   21.60
  -5  -1  -5  443.96   22.80
  -5  -1  -5  379.66   19.80
   5  -1   5  386.86   21.00
   5   1   5  426.56   21.00
  -5   1  -5  363.66   21.50
   5   1   5  397.86   21.50
  -5   1  -5  399.06   22.60
   5   1   5  390.86   22.60
  -6  -1  -5   48.30   11.00
  -6  -1  -5   62.09   12.00
   6  -1   5   59.59   11.70
   6   1   5   18.60   11.00
  -6   1  -5   45.30   10.20
   6   1   5   46.60    9.60
  -6   1  -5   52.29   12.00
   7  -1   5   33.70   13.50
   7  -1   5   51.99   14.00
  -7  -1  -5   42.20   14.40
   7  -1   5   44.00   12.40
  -7  -1  -5    2.90   12.40
  -7  -1  -5   52.29   14.00
   7   1   5   26.90   12.90
   7   1   5   28.70   14.60
  -7   1  -5    4.80   12.90
  -7   1  -5   20.80   13.20
  -7   1  -5   34.20   13.50
   7   1   5   34.00   13.50
   8  -2  -5   20.00   16.00
   8  -2  -5  -26.80   15.80
   8  -2  -5   22.00   16.20
  -8  -2   5  -13.10   15.80
  -8  -2   5    2.70   19.00
   8   2  -5   32.10   17.90
   8   2  -5   25.70   16.30
   8   2  -5  -22.30   15.60
  -8   2   5    9.20   12.40
  -8   2   5   19.20   10.10
   8   2  -5    1.60   17.00
   7  -2  -5   -6.30   11.00
   7  -2  -5    1.50   10.50
  -7  -2   5   -1.20    8.60
  -7  -2   5   29.30   13.10
  -7  -2   5  -11.20    8.70
   7  -2  -5   -2.30    9.60
   7   2  -5   -9.50   11.00
  -7   2   5   10.30   10.50
   7   2  -5   -0.10   11.60
  -7   2   5    3.90    7.30
   7   2  -5    4.90   11.30
   6  -2  -5   17.10    9.20
   6  -2  -5   13.60    7.90
   6  -2  -5    5.40    8.70
  -6  -2   5    8.70    6.80
   6   2  -5    0.80    8.20
   6   2  -5   -9.80    8.90
  -6   2   5   14.60    6.00
  -6   2   5   16.00    5.40
   6   2  -5   11.20    9.00
  -6   2   5    7.10    8.40
   6   2  -5   10.80    9.60
   5  -2  -5  425.96   20.50
  -5  -2   5  427.76   18.50
  -5  -2   5  435.76   18.50
   5  -2  -5  464.45   21.30
  -5   2   5  433.36   16.20
  -5   2   5  417.16   16.20
   5   2  -5  413.26   21.70
   5   2  -5  488.65   21.00
  -5   2   5  418.26   21.00
   5   2  -5  453.05   22.40
   5   2  -5  453.45   21.70
  -4  -2   5  228.28   11.90
   4  -2  -5  237.48   13.30
  -4  -2   5  244.58   12.00
   4  -2  -5  249.88   13.40
   4  -2  -5  252.17   13.60
  -4   2   5  228.98    9.20
  -4   2   5  254.17   13.80
   4   2  -5  224.68   13.70
  -4   2   5  246.78    9.40
   4   2  -5  230.08   13.10
   4   2  -5  233.88   13.30
  -3  -2   5   22.90    3.90
   3  -2  -5   31.10    4.40
   3  -2  -5   23.70    4.30
  -3  -2   5   22.80    3.80
   3  -2  -5   25.20    4.20
   3   2  -5   25.10    4.90
   3   2  -5   13.70    4.30
   3   2  -5   26.60    4.50
   3   2  -5   21.50    4.80
  -3   2   5   28.90    5.00
   2  -2  -5   75.59    5.60
   2  -2  -5   81.69    5.80
   2  -2  -5   65.49    5.70
  -2  -2   5   80.49    5.60
  -2  -2   5   84.49    5.70
   2   2  -5   80.49    6.90
   2   2  -5   79.59    5.20
   2   2  -5   87.09    7.30
   2   2  -5   84.09    6.80
  -2   2   5   70.59    5.80
   1  -2  -5 1696.03   46.40
   1  -2  -5 1729.43   50.19
  -1  -2   5 1714.63   46.80
   1  -2  -5 1698.23   45.50
   1  -2  -5 1761.62   46.50
  -1  -2   5 1750.12   46.80
   1   2  -5 1721.33   43.80
   1   2  -5 1635.84   48.00
   1   2  -5 1744.53   48.40
   0  -2  -5    9.10    3.80
   0  -2   5    6.80    2.60
   0  -2  -5    7.20    0.90
   0  -2  -5    7.90    2.60
   0  -2  -5    3.00    2.30
   0  -2   5   11.40    2.80
   0   2  -5    7.30    3.20
   0   2   5    7.20    1.70
   0   2   5    7.70    3.90
   0   2  -5   10.30    3.30
   0   2   5   10.30    1.30
   1  -2   5  133.59    6.00
   1  -2   5  125.89    8.20
  -1  -2  -5  125.99    8.60
  -1  -2  -5  139.69    8.30
  -1  -2  -5  131.89    8.30
   1  -2   5  123.09    8.00
  -1  -2  -5  132.59    5.30
   1   2   5  129.79    7.10
   1   2   5  132.49    7.00
  -1   2  -5  139.19    9.40
  -1   2  -5  121.99    8.70
   1   2   5  129.89    8.60
  -2  -2  -5  562.84   21.10
   2  -2   5  556.74   20.80
  -2  -2  -5  551.94   18.10
  -2  -2  -5  561.64   21.00
   2  -2   5  561.04   20.90
   2  -2   5  571.34   19.10
  -2  -2  -5  586.14   22.10
   2   2   5  570.94   22.20
  -2   2  -5  586.14   22.10
   2   2   5  571.34   20.00
   2   2   5  589.14   20.10
  -2   2  -5  569.84   21.80
   3  -2   5    4.60    4.70
   3  -2   5    0.50    3.70
   3  -2   5    1.70    4.90
  -3  -2  -5   -0.10    4.70
  -3  -2  -5    6.40    3.40
  -3  -2  -5    2.40    4.60
  -3   2  -5    4.50    4.70
   3   2   5    3.30    4.20
   3   2   5    3.60    3.20
  -3   2  -5    6.70    4.60
   3   2   5    2.00    4.30
  -3   2  -5    1.00    3.70
   3   2   5    6.00    5.40
  -4  -2  -5  249.58   16.40
   4  -2   5  266.87   16.40
  -4  -2  -5  266.37   16.20
  -4  -2  -5  260.27   13.90
  -4  -2  -5  261.27   17.40
   4  -2   5  269.57   16.10
   4  -2   5  236.98   14.30
   4   2   5  229.58   15.50
  -4   2  -5  251.07   16.70
   4   2   5  260.97   16.40
  -4   2  -5  252.67   16.20
  -4   2  -5  230.58   16.40
   4   2   5  260.67   14.50
  -5  -2  -5    3.40    6.70
  -5  -2  -5   -3.00    9.40
   5  -2   5    2.20    7.90
  -5  -2  -5   -4.40    8.90
   5  -2   5    3.00    7.10
   5  -2   5   16.10    9.70
  -5   2  -5    3.60    6.20
   5   2   5    5.50    6.60
   5   2   5   -4.40   10.00
  -5   2  -5    5.90    8.40
   6  -2   5   16.40   11.00
  -6  -2  -5    1.10    9.10
  -6  -2  -5   -9.10    7.70
   6  -2   5   -4.70    9.90
   6   2   5    1.80    9.80
   6   2   5   -0.30   10.20
   6   2   5   16.50   10.10
   6   2   5    7.80   11.90
  -6   2  -5    6.90   10.50
  -6   2  -5    6.60   10.40
   7  -2   5   -0.70   13.40
  -7  -2  -5   15.60   10.80
  -7  -2  -5   -8.30   12.20
  -7  -2  -5  -20.20   13.70
   7  -2   5   -6.00   14.70
   7  -2   5   31.00   14.40
  -7   2  -5   -4.70   14.10
   7   2   5   -9.90   14.40
   7   2   5    4.10   12.70
   7   2   5  -16.00   11.70
   7   2   5   21.80   13.40
  -7   2  -5   10.00   13.50
  -7  -3   5   15.80   12.50
   7  -3  -5   21.00   13.40
   7  -3  -5   29.70   12.50
   7  -3  -5   35.40   13.80
  -7   3   5   30.20   13.50
   7   3  -5   13.60   13.30
   7   3  -5   36.60   13.30
   7   3  -5   13.40   14.00
  -7   3   5   16.60    8.40
   7   3  -5    8.60   13.30
   6  -3  -5    9.90    9.60
   6  -3  -5   20.20    8.80
  -6  -3   5   -2.30    7.70
  -6  -3   5  -12.40    6.50
   6   3  -5  -22.70    9.60
   6   3  -5    8.00    9.20
   6   3  -5    3.70    9.20
  -6   3   5  -10.40    6.00
   6   3  -5    6.70    9.30
  -6   3   5    5.10    5.90
  -5  -3   5  395.56   19.70
   5  -3  -5  399.66   22.00
  -5  -3   5  504.55   19.10
   5  -3  -5  425.96   20.60
   5   3  -5  435.26   23.30
   5   3  -5  420.06   20.90
  -5   3   5  401.96   16.60
   5   3  -5  326.07   32.10
   5   3  -5  423.66   21.90
  -5   3   5  427.16   16.70
  -5   3   5  392.66   20.70
  -4  -3   5   11.00    5.10
   4  -3  -5   17.60    5.60
   4  -3  -5   24.70    6.00
   4  -3  -5    2.80    5.00
  -4  -3   5   10.50    5.30
  -4   3   5   17.60    4.00
   4   3  -5    5.70    6.10
   4   3  -5   15.20    5.70
   4   3  -5    8.40    6.20
  -4   3   5   13.50    5.60
  -4   3   5   12.20    3.50
   3  -3  -5   35.00    5.60
   3  -3  -5   49.10    6.40
   3  -3  -5   61.19    7.40
  -3  -3   5   58.19    7.90
  -3  -3   5   55.89    7.60
   3   3  -5   56.39    7.20
  -3   3   5   55.19    5.00
   3   3  -5   59.99    6.90
  -3   3   5   50.89    5.80
   3   3  -5   39.40    6.80
   2  -3  -5   10.70    2.80
  -2  -3   5    6.80    3.60
  -2  -3   5   12.30    4.00
   2  -3  -5    6.90    3.40
   2  -3  -5    7.50    5.20
   2  -3  -5    9.60    3.60
  -2   3   5    8.70    2.20
   2   3  -5   10.90    4.60
  -2   3   5    3.90    2.60
   2   3  -5    9.50    4.90
   2   3  -5    3.10    4.10
   2   3  -5    4.00    2.70
  -2   3   5    8.20    2.00
  -1  -3   5   49.50    6.00
   1  -3  -5   46.50    6.80
   1  -3  -5   52.59    6.40
   1  -3  -5   59.99    6.80
  -1  -3   5   56.09    6.40
   1   3  -5   36.70    5.80
  -1   3   5   43.30    3.90
   1   3  -5   56.49    7.70
  -1   3   5   50.59    4.20
  -1   3   5   50.29    3.20
   0  -3  -5    2.00    3.30
   0  -3   5    3.00    3.40
   0  -3  -5   -1.90    4.30
   0  -3   5    3.40    3.30
   0  -3   5    2.70    1.00
   0  -3  -5    3.40    3.40
   0   3  -5   -2.20    3.20
   0   3  -5   -1.80    3.60
   0   3   5    3.20    2.50
   0   3   5   -4.00    4.10
   0   3   5    3.00    2.40
   1  -3   5  815.32   27.60
  -1  -3  -5  800.12   28.90
   1  -3   5  808.42   27.50
  -1  -3  -5  838.42   27.50
  -1  -3  -5  799.12   27.10
  -1   3  -5  811.82   28.30
  -1   3  -5  812.62   28.50
   1   3   5  832.22   28.90
   1   3   5  794.02   25.70
   2  -3   5   84.89    9.20
  -2  -3  -5   69.09    8.90
   2  -3   5   80.09    9.40
  -2  -3  -5   65.89    5.20
  -2  -3  -5   75.79    9.00
  -2   3  -5   55.69    7.80
   2   3   5   86.89   10.60
  -2   3  -5   86.59   10.00
   2   3   5   81.99    8.10
  -3  -3  -5  110.99   12.00
   3  -3   5  104.69   11.50
  -3  -3  -5   95.09    7.90
  -3  -3  -5   91.09    9.60
   3   3   5  102.49   10.30
   3   3   5  112.49    8.30
   3   3   5  109.89   13.00
  -3   3  -5   94.49   12.20
  -3   3  -5   96.09    9.80
   3   3   5   88.69    9.80
  -4  -3  -5    4.50    6.70
  -4  -3  -5   14.70    6.30
   4  -3   5   13.30    7.80
  -4  -3  -5   16.50    5.40
   4  -3   5   15.60    6.20
   4  -3   5   23.70    7.00
  -4  -3  -5   18.20    7.60
   4   3   5    5.60    5.50
  -4   3  -5    8.60    7.30
   4   3   5   22.00    6.80
  -4   3  -5    6.30    7.80
   4   3   5    8.60    7.20
   5  -3   5   -9.40    7.30
   5  -3   5    8.90    8.60
  -5  -3  -5   -9.10    8.30
  -5  -3  -5   -7.50    6.20
  -5  -3  -5   10.50    7.10
   5   3   5   -5.00    8.00
   5   3   5    8.50    9.00
  -5   3  -5   -3.90    8.90
   6  -3   5   84.49   14.20
  -6  -3  -5   51.59   14.00
  -6  -3  -5   98.79   15.00
  -6  -3  -5   96.89   12.50
   6  -3   5   91.09   14.40
   6   3   5  133.79   18.50
  -6   3  -5   58.19   12.80
   6   3   5   90.69   15.00
   6   3   5   77.59   12.90
   6   3   5  146.69   18.50
  -6   3  -5  155.68   20.90
  -6   3  -5   72.29   15.40
  -7  -3  -5   20.40   16.80
  -7  -3  -5  -15.80   13.20
   7  -3   5  -10.10   15.90
   7  -3   5   11.70   14.20
   7  -3   5   28.10   15.30
  -7  -3  -5   25.20   15.70
  -7   3  -5   25.20   15.10
   7   3   5   11.30   18.10
   7   3   5   -1.80   14.70
  -7   3  -5   -2.40   16.40
   7   3   5   -5.00   14.70
   7   3   5  -25.60   13.40
  -7   3  -5    3.10   15.80
   7  -4  -5   17.80   15.00
   7  -4  -5   -7.90   14.30
  -7  -4   5  -15.80   11.80
   7   4  -5   -4.40   13.60
   7   4  -5   17.50   15.30
  -7   4   5  -21.60   13.20
   7   4  -5  -16.80   15.90
  -7   4   5    1.20    9.00
   7   4  -5  -14.90   14.20
   6  -4  -5   -4.00    8.90
   6  -4  -5    6.60   11.00
  -6  -4   5   -5.90    8.50
   6  -4  -5    4.20   10.70
   6   4  -5   -3.00   10.80
  -6   4   5   -4.10    7.80
   6   4  -5   15.20   11.90
   6   4  -5    0.90   11.20
   6   4  -5    8.50   12.30
  -6   4   5   -0.30    6.70
  -5  -4   5   17.80    8.00
   5  -4  -5    2.30    6.80
   5  -4  -5    3.10    7.90
  -5  -4   5   19.80    7.70
   5  -4  -5   14.70    8.50
  -5   4   5   12.60    7.50
   5   4  -5   19.50    9.80
   5   4  -5    8.30    8.50
  -5   4   5    6.10    5.50
   5   4  -5   10.40    9.90
   5   4  -5    0.30    8.10
  -5   4   5    3.30    6.20
   4  -4  -5    0.30    6.60
  -4  -4   5    8.50    6.70
   4   4  -5    6.70    7.40
   4   4  -5    0.10    5.40
  -4   4   5    9.00    5.90
  -4   4   5    0.70    4.80
   4   4  -5   10.50    6.40
  -3  -4   5   -1.70    4.90
  -3  -4   5   -2.00    5.00
   3  -4  -5    5.10    5.60
   3  -4  -5   -0.10    5.10
  -3   4   5    2.30    3.70
   3   4  -5   -4.70    4.40
  -3   4   5   -1.60    3.90
   3   4  -5    2.70    6.10
   3   4  -5    6.70    6.50
  -3   4   5    3.10    3.80
  -2  -4   5  117.49   10.80
   2  -4  -5  101.19   10.70
   2  -4  -5  109.59    9.90
  -2  -4   5  108.19   10.00
   2  -4  -5  106.79    9.90
   2   4  -5   96.09   11.10
  -2   4   5  102.99    6.90
   2   4  -5  127.09    9.80
  -2   4   5  103.49    7.60
  -2   4   5  106.49    7.90
   2   4  -5  102.39    7.60
  -1  -4   5   50.89    6.90
  -1  -4   5   71.49    8.70
  -1  -4   5   63.09    4.90
   1  -4  -5   48.40    6.80
   1  -4  -5   65.09    9.00
   1   4  -5   65.09    8.20
  -1   4   5   65.69    3.30
  -1   4   5   58.09    6.80
   1   4  -5   77.59    9.90
  -1   4   5   70.19    7.10
   0  -4   5  488.85   15.00
   0  -4   5  466.85   20.00
   0  -4   5  472.95   19.90
   0  -4  -5  465.75   19.50
   0  -4  -5  443.36   19.30
   0   4   5  455.25   17.60
   0   4   5  473.45   17.90
   0   4  -5  467.95   20.70
   0   4  -5  499.45   20.60
   1  -4   5  130.99    7.70
  -1  -4  -5  137.29   11.80
   1  -4   5  115.49   11.10
  -1  -4  -5  139.99   11.30
   1  -4   5  118.19   11.30
  -1  -4  -5  154.58   12.20
  -1   4  -5  125.19   10.70
   1   4   5  122.99    9.70
   1   4   5  139.29   13.10
   1   4   5  129.09   10.20
  -2  -4  -5    3.70    4.70
   2  -4   5    5.80    5.90
  -2  -4  -5   -1.60    5.90
  -2   4  -5    4.40    6.70
   2   4   5    4.30    2.40
   2   4   5   11.80    5.60
   2   4   5    5.70    5.00
  -2   4  -5   -5.80    6.10
   2   4   5    7.10    5.40
   3  -4   5  842.12   32.30
  -3  -4  -5  877.61   33.40
  -3  -4  -5  819.52   25.90
   3  -4   5  787.12   32.30
  -3  -4  -5  889.91   32.80
  -3  -4  -5  766.22   35.70
   3   4   5  843.02   26.10
  -3   4  -5  869.61   33.80
  -3   4  -5  713.33   36.40
   3   4   5  711.33   37.90
   3   4   5  819.22   30.80
  -4  -4  -5  287.37   15.00
   4  -4   5  319.17   20.80
  -4  -4  -5  316.07   20.70
  -4  -4  -5  271.87   20.30
  -4  -4  -5  289.87   18.50
   4  -4   5  309.57   20.30
   4   4   5  290.67   32.60
   4   4   5  303.67   15.60
   4   4   5  257.17   18.50
  -4   4  -5  318.07   21.60
   5  -4   5    8.10    9.30
   5  -4   5   -4.10   10.80
  -5  -4  -5    2.90    7.70
  -5  -4  -5   13.80   10.70
  -5  -4  -5    9.50    9.90
  -5  -4  -5   10.00   11.20
  -5   4  -5   16.40   11.50
   5   4   5   -4.70    8.80
   5   4   5  -34.20   18.30
  -5   4  -5    2.30    7.80
  -5   4  -5    4.70    9.40
  -6  -4  -5   31.10   15.00
  -6  -4  -5   39.50   12.10
   6  -4   5   24.80   14.90
  -6  -4  -5   50.29   14.90
   6  -4   5   44.50   12.70
   6  -4   5   34.40   14.30
  -6  -4  -5   33.80   11.20
   6   4   5   39.40   13.80
   6   4   5   64.59   13.70
  -6   4  -5   33.30   14.40
  -6   4  -5   11.60   11.20
   6   4   5   52.69   13.80
   6   4   5   29.20   16.10
  -6   4  -5   35.90   14.30
   6  -5  -5   35.30   15.30
  -6  -5   5   72.39   13.60
   6  -5  -5   55.99   15.20
   6   5  -5   49.40   13.90
   6   5  -5   26.60   14.00
  -6   5   5   56.19    9.70
  -6   5   5   45.90   13.10
   6   5  -5    7.50   15.90
   5  -5  -5    3.90   10.10
   5  -5  -5    8.90   10.60
  -5  -5   5   12.70   10.70
  -5  -5   5    3.70   10.00
   5   5  -5    8.20   11.90
   5   5  -5   25.60   12.00
  -5   5   5   19.80   16.80
   5   5  -5   15.00   12.20
   5   5  -5   15.40   10.20
  -4  -5   5   17.70    8.40
   4  -5  -5   43.50   10.50
  -4  -5   5   48.50    9.90
   4  -5  -5   34.70   10.20
   4   5  -5   22.50   10.60
  -4   5   5   29.70    7.00
   4   5  -5   33.20    9.80
   4   5  -5   34.70   10.40
   4   5  -5   28.00    8.00
  -4   5   5   36.20    7.60
  -4   5   5   26.90    6.80
   3  -5  -5  128.69   13.80
  -3  -5   5  112.29   13.70
   3  -5  -5  125.59   14.10
   3  -5  -5  148.09   14.30
  -3  -5   5  120.59   13.80
   3   5  -5  146.19   19.20
  -3   5   5  126.49   11.10
  -3   5   5  131.09   11.50
  -3   5   5  120.99   10.30
   3   5  -5  119.39   15.70
   3   5  -5  124.59   16.40
   3   5  -5  122.89   11.80
   2  -5  -5   -1.40    7.50
  -2  -5   5    0.00    6.20
  -2  -5   5    5.40    4.00
   2  -5  -5   -7.40    5.90
  -2   5   5    3.60    5.20
   2   5  -5   12.20    7.80
  -2   5   5   -1.20    4.50
   2   5  -5   10.60    7.20
   2   5  -5   -4.20    4.30
  -2   5   5    2.80    3.20
  -1  -5   5   13.80    3.80
  -1  -5   5   11.00    6.40
   1  -5  -5   11.20    6.50
   1  -5  -5   14.90    7.00
  -1   5   5   10.70    2.00
   1   5  -5   26.60    8.30
  -1   5   5    5.80    4.80
   1   5  -5    0.20    6.40
  -1   5   5   15.50    5.60
   0  -5   5    4.30    3.40
   0  -5   5  -10.60    6.10
   0  -5  -5    3.20    6.40
   0  -5  -5   -2.50    6.70
   0   5   5    2.80    5.10
   0   5   5   -3.90    4.50
   0   5  -5  -12.90    6.40
   0   5  -5    9.20    7.50
   1  -5   5   -2.30    3.70
  -1  -5  -5   -0.80    6.20
   1  -5   5    1.90    6.30
   1  -5   5    2.50    7.00
  -1  -5  -5   -8.40    6.00
  -1  -5  -5   -8.30    6.70
  -1   5  -5    5.90    7.40
   1   5   5    0.80    5.50
   2  -5   5   67.99   10.20
  -2  -5  -5   50.29   10.00
  -2  -5  -5   78.39   10.50
  -2  -5  -5   81.79   19.40
   2   5   5   65.49    5.10
   2   5   5   55.19    9.30
   2   5   5   66.69    9.10
  -2   5  -5   61.49   11.70
  -3  -5  -5   19.50    9.80
   3  -5   5   25.00    9.20
  -3  -5  -5   24.00    8.90
  -3  -5  -5   23.10    9.00
   3  -5   5   25.00    9.80
   3   5   5   39.90    9.30
   3   5   5   16.70    4.70
   3   5   5   11.50   10.20
   3   5   5   18.40    8.80
  -3   5  -5   15.50   10.00
  -4  -5  -5  152.88   19.80
   4  -5   5  154.38   19.00
   4  -5   5  144.29   19.50
  -4  -5  -5  147.39   19.60
  -4  -5  -5  134.59   16.20
  -4   5  -5  178.98   20.50
  -4   5  -5  184.08   19.20
   4   5   5  136.99   12.80
   4   5   5  138.19   16.70
   4   5   5  129.99   17.20
  -5  -5  -5   19.30   12.70
  -5  -5  -5   28.90   12.70
   5  -5   5    6.20   12.80
  -5  -5  -5   16.80   11.10
   5  -5   5    1.30   12.40
  -5   5  -5   20.80   13.50
   5   5   5   -6.70   10.90
   5   5   5   14.40   13.60
   5   5   5   -9.20   11.90
  -5   5  -5   19.20   13.30
  -5   5  -5    6.30   13.30
  -6  -5  -5   16.90   15.30
  -6  -5  -5   -5.70   11.90
   6  -5   5   54.59   19.00
  -6  -5  -5  -20.50   17.20
  -6  -5  -5   -5.30   16.50
   6  -5   5   -1.10   15.50
   6   5   5   -6.50   18.80
   6   5   5  -10.80   15.80
   6   5   5  -11.70   14.40
   6   5   5   11.20   13.20
  -6   5  -5    3.30   18.20
  -6   5  -5   19.60   13.10
  -6   5  -5    9.60   17.30
   5  -6  -5  -17.80   13.70
  -5  -6   5   -3.40   12.80
   5  -6  -5   -7.10   13.40
  -5  -6   5   -5.40   11.80
  -5   6   5   -2.10    9.00
  -5   6   5    4.50   10.80
   5   6  -5  -18.10   12.50
   5   6  -5   34.90   15.60
   5   6  -5   -9.40   14.30
   5   6  -5   -3.30   15.50
   4  -6  -5    1.70   12.00
   4  -6  -5   -1.70   10.60
   4  -6  -5   -4.40   10.80
  -4  -6   5   -4.20   10.40
  -4   6   5   -1.90    7.80
   4   6  -5    0.60    9.40
   4   6  -5   13.80    9.70
   4   6  -5   12.20   12.00
  -4   6   5   -5.40    7.50
   4   6  -5  -14.40   12.00
   3  -6  -5  174.28   21.10
  -3  -6   5  218.48   19.00
  -3  -6   5  183.18   14.10
  -3  -6   5  141.79   18.00
   3  -6  -5  165.78   19.10
   3  -6  -5  179.98   19.00
   3   6  -5  146.09   20.80
   3   6  -5  187.88   21.30
  -3   6   5  195.38   13.20
  -3   6   5  183.08   15.20
   3   6  -5  201.88   20.20
   3   6  -5  177.88   15.80
   2  -6  -5   19.20    9.90
  -2  -6   5   12.10    6.10
   2  -6  -5    9.70    9.10
  -2  -6   5   19.00    9.20
   2   6  -5   20.70    9.30
  -2   6   5    9.20    6.80
   2   6  -5    8.60    9.60
   2   6  -5   11.20    8.20
  -2   6   5   22.40    4.60
   1  -6  -5  281.67   20.50
  -1  -6   5  232.58   19.30
   1  -6  -5  264.47   20.20
  -1  -6   5  266.77   13.70
   1  -6  -5  225.28   19.20
   1   6  -5  290.37   21.10
  -1   6   5  254.47    8.90
   1   6  -5  284.67   21.80
  -1   6   5  240.28   16.60
   0  -6  -5  129.69   17.50
   0  -6  -5   70.89   11.50
   0  -6   5   79.19   11.50
   0  -6   5   93.19   10.40
   0  -6   5   66.19   20.60
   0   6  -5   86.19   13.30
   0   6   5   98.19   12.50
   0   6  -5   97.49   13.30
  -1  -6  -5   -1.80    8.80
   1  -6   5   -6.60    5.30
  -1  -6  -5    0.60    9.00
   1  -6   5    3.20    9.10
   1  -6   5   -8.10    8.10
  -1  -6  -5    0.20    8.40
  -1   6  -5   -4.10    7.00
   1   6   5   -2.80    7.50
   1   6   5    0.90    7.10
   1   6   5   -0.60   10.10
  -2  -6  -5  282.97   22.20
   2  -6   5  304.87   16.70
   2  -6   5  274.57   22.20
  -2  -6  -5  292.57   22.90
  -2  -6  -5  289.87   21.40
  -2   6  -5  264.37   19.50
   2   6   5  264.77   19.50
   2   6   5  260.77    9.40
   2   6   5  250.57   23.30
  -3  -6  -5  544.45   31.60
  -3  -6  -5  545.35   31.10
   3  -6   5  587.64   31.20
   3  -6   5  617.94   31.00
  -3  -6  -5  603.64   31.80
   3   6   5  606.94   34.10
   3   6   5  624.24   29.70
   3   6   5  585.94   33.50
   3   6   5  560.34   19.90
  -3   6  -5  555.44   32.20
  -4  -6  -5    5.50   13.50
  -4  -6  -5   -9.60   13.10
   4  -6   5   13.10   12.90
  -4  -6  -5   -6.40   13.30
   4  -6   5    3.60   13.90
   4   6   5   12.60   12.70
  -4   6  -5    8.30   12.60
   4   6   5   13.80   11.20
  -4   6  -5   -4.30   11.90
  -4   6  -5   -8.50   12.20
   4   6   5  -12.50    6.60
  -5  -6  -5    2.00   16.60
   5  -6   5   34.60   18.50
   5  -6   5   20.80   16.30
  -5  -6  -5   33.40   17.20
  -5  -6  -5    7.10   16.30
   5   6   5   20.70   16.40
   5   6   5   11.80   17.80
  -5   6  -5   -2.80   15.60
  -5   6  -5   18.90   17.40
  -5   6  -5   21.30   17.80
  -4  -7   5   27.90   15.10
   4  -7  -5    4.30   16.20
   4  -7  -5   -8.00   15.90
  -4  -7   5  -15.80   14.70
   4  -7  -5   -1.60   17.10
  -4   7   5   -2.50   12.30
   4   7  -5  -36.70   15.70
   4   7  -5    7.30   18.50
  -4   7   5   -6.20    9.40
  -4   7   5   -6.10   11.00
   4   7  -5  -23.20   16.30
   3  -7  -5   75.39   15.80
  -3  -7   5  106.49   16.30
   3  -7  -5  104.19   17.40
   3  -7  -5  102.09   17.90
  -3  -7   5  122.09   17.30
  -3   7   5  112.89   13.20
  -3   7   5  105.29   13.50
   3   7  -5   79.89   16.40
  -3   7   5  152.68   15.60
   3   7  -5   98.79   18.50
   3   7  -5  129.59   18.40
   2  -7  -5    3.90   12.70
  -2  -7   5   12.90   11.70
   2  -7  -5   -5.20   11.90
  -2  -7   5    9.60   11.40
  -2  -7   5    7.40    7.40
   2  -7  -5   -3.30   11.70
   2   7  -5   -2.60   13.60
   2   7  -5    2.00   14.30
  -2   7   5   -4.20    9.30
  -2   7   5   -2.60    4.80
  -2   7   5    6.20   10.50
   2   7  -5    6.60   11.70
   1  -7  -5   -1.40   11.00
  -1  -7   5    7.40   11.00
  -1  -7   5   -7.00   11.10
   1  -7  -5   30.70   12.40
   1  -7  -5   18.70   11.30
  -1  -7   5   -9.30    6.70
   1   7  -5    6.30   12.10
  -1   7   5   -0.10    2.30
  -1   7   5   -6.80   10.30
  -1   7   5    0.10    8.60
   1   7  -5    5.20   12.80
  -1   7   5    6.60    2.80
   0  -7   5   22.00   12.30
   0  -7  -5   14.90   10.10
   0  -7  -5   14.80   11.70
   0  -7   5    9.20   11.60
   0  -7  -5   11.90   12.10
   0  -7   5   -5.40    7.30
   0   7  -5  -15.10   12.90
   0   7  -5   34.10   13.60
   0   7   5   23.60   12.80
  -1  -7  -5   23.60   12.30
  -1  -7  -5   -3.70   12.00
   1  -7   5    5.60    7.70
   1  -7   5   -7.70   11.80
   1  -7   5   -0.80   12.20
  -1  -7  -5    0.40   11.80
   1   7   5   -5.50   11.10
   1   7   5   10.20   10.20
  -1   7  -5   -3.20   11.60
  -1   7  -5    2.70   13.30
   2  -7   5   66.19   14.90
  -2  -7  -5   19.90   14.80
   2  -7   5   29.70   13.90
  -2  -7  -5   62.99   14.60
  -2  -7  -5   61.49   15.60
   2   7   5   53.89   17.30
   2   7   5   63.89   14.30
  -2   7  -5   49.10   15.80
  -2   7  -5   38.70   15.70
  -3  -7  -5   51.39   16.20
   3  -7   5   37.30   15.90
  -3  -7  -5   34.30   15.70
   3  -7   5   67.59   16.00
  -3  -7  -5   48.60   16.90
   3  -7   5   79.29   12.80
   3   7   5   30.80   15.60
  -3   7  -5   37.90   17.10
   3   7   5   49.60    5.70
  -3   7  -5   34.50   13.90
   3   7   5   35.20   18.40
   3   7   5   33.00   13.70
  -3   7  -5   23.00   17.70
  -1  -8   5   26.90   16.10
   1  -8  -5   24.70   16.70
  -1  -8   5   24.20   16.50
   1  -8  -5   34.50   16.80
   1  -8  -5   36.30   18.40
   1   8  -5   -5.80   21.30
   1   8  -5   55.69   17.10
  -1   8   5   29.70   15.20
   0  -8  -5   10.80   16.90
   0  -8  -5   18.40   15.40
   0  -8   5  -21.10   15.60
   0  -8   5   -6.70   16.00
   0  -8  -5   47.50   18.50
   0   8   5  -28.80   13.50
   0   8  -5   22.00   16.90
   0   8  -5  -37.00   17.70
   0   8   5  -10.20   19.70
  -1  -8  -5    8.50   16.20
   1  -8   5    1.70   15.40
  -1  -8  -5   33.10   19.40
  -1  -8  -5  -39.00   16.70
   1  -8   5   -8.50   15.60
   1   8   5    3.90   15.90
  -1   8  -5   42.50   18.60
   1   8   5   -3.60   14.00
   8   0  -6    8.50   14.90
  -8   0   6   12.90   17.70
   8   0  -6   33.90   17.40
   8   0  -6    5.30   17.20
  -8   0   6   14.20    8.30
   8   0  -6    5.00   12.00
  -7   0   6   -7.80    8.40
   7   0  -6    7.10   12.40
  -7   0   6    6.90    6.40
   7   0  -6    6.00   11.10
   7   0  -6  -10.90    9.80
  -7   0   6    1.10    6.00
  -6   0   6    0.50    4.20
   6   0  -6    4.80    8.70
   6   0  -6   -6.10    7.80
   6   0  -6    5.90    6.90
  -6   0   6    5.90    3.90
   5   0  -6   -5.40    5.50
  -5   0   6    5.90    6.40
  -5   0   6    0.60    2.10
  -5   0   6   -0.10    1.90
   5   0  -6   -1.90    6.70
  -4   0   6   41.80    7.30
   4   0  -6   56.79    7.60
   4   0  -6   51.79    7.00
   3   0  -6    5.40    2.50
   3   0  -6    2.80    3.90
   3   0  -6   -1.50    2.30
  -3   0   6   -3.90    3.70
   2   0  -6  689.23   18.90
   2   0  -6  706.93   19.00
   2   0  -6  677.83   23.20
   1   0  -6    1.00    2.10
   0   0  -6   25.90    2.90
   0   0  -6   24.20    3.00
   0   0   6   21.30    3.40
   0   0  -6   22.20    3.10
  -1   0  -6   -2.40    2.20
  -1   0  -6   -0.80    2.60
   1   0   6    0.40    2.60
  -1   0  -6    0.50    2.50
   1   0   6   -2.60    1.40
   1   0   6   -0.30    1.50
   2   0   6    5.40    3.50
  -2   0  -6    7.20    3.80
  -2   0  -6    7.50    3.90
  -2   0  -6    5.80    3.50
   2   0   6    8.30    3.20
  -2   0  -6    6.30    3.50
   2   0   6    9.20    3.20
  -3   0  -6   -1.40    3.60
   3   0   6   -5.30    3.90
   3   0   6   -2.20    3.90
  -3   0  -6   -3.60    4.20
   3   0   6    0.80    3.90
  -3   0  -6    5.00    4.80
  -3   0  -6   -2.70    4.40
  -4   0  -6  908.71   32.50
   4   0   6  923.61   33.20
  -4   0  -6  946.91   34.30
   4   0   6  923.31   32.90
  -4   0  -6  948.81   33.80
   5   0   6    5.90    7.90
   5   0   6    6.60    6.70
   5   0   6    7.50    8.70
   6   0   6    1.30    9.00
  -6   0  -6  -10.10    9.30
   6   0   6   -0.50    7.30
  -6   0  -6   15.80   10.00
   7   0   6  -13.60   11.70
   7   0   6   13.40   14.60
  -7   0  -6   -4.10   13.00
  -7   0  -6   36.10   14.20
   7   0   6    9.50   13.00
  -7   0  -6   29.40   13.90
   8  -1  -6   19.80   16.70
   8  -1  -6  -10.40   14.30
   8  -1  -6   37.40   16.60
  -8  -1   6  -26.90   19.40
  -8  -1   6    7.30    9.70
   8   1  -6    0.70   15.30
  -8   1   6    1.90    7.70
   8   1  -6   20.90   15.00
   8   1  -6  -10.80   16.20
  -8   1   6   26.00   17.50
  -8   1   6   -3.30    8.50
   8   1  -6    4.30   15.80
   7  -1  -6   54.39   12.90
  -7  -1   6   40.00   13.40
  -7  -1   6   47.30    8.40
  -7  -1   6   63.49    8.90
   7  -1  -6   34.40   12.80
   7  -1  -6   51.99   11.50
  -7   1   6   44.60    6.60
   7   1  -6   35.20   12.80
  -7   1   6   45.40    6.80
  -7   1   6   46.40   11.30
   7   1  -6   50.29   13.10
   7   1  -6   34.40   12.20
   7   1  -6   71.69   13.30
   6  -1  -6    4.30    7.00
  -6  -1   6    4.20    4.80
   6  -1  -6    4.90    8.30
  -6  -1   6    0.70    4.80
   6  -1  -6    3.60    8.30
   6   1  -6    1.70    8.30
  -6   1   6   -2.00    3.60
   6   1  -6    3.10    9.10
  -6   1   6    5.30    3.30
   5  -1  -6    2.80    5.30
  -5  -1   6   -0.80    3.20
   5  -1  -6    2.00    6.50
   5  -1  -6    0.10    5.40
  -5  -1   6   -0.10    3.20
   5   1  -6    7.70    5.70
  -5   1   6    3.20    6.20
   5   1  -6   -3.10    5.70
   5   1  -6   11.10    5.80
   4  -1  -6   50.79    6.00
   4  -1  -6   52.49    7.30
  -4  -1   6   54.89    3.60
   4  -1  -6   59.49    7.70
  -4  -1   6   53.49    3.80
  -4  -1   6   50.59    8.00
   4   1  -6   60.29    7.70
  -4   1   6   40.20    6.90
   4   1  -6   46.20    7.50
   4   1  -6   55.39    7.70
   3  -1  -6   95.79    8.40
   3  -1  -6  105.49    6.60
   3  -1  -6  101.49    6.40
   3   1  -6  103.59    7.50
   3   1  -6  116.89    9.80
   3   1  -6  107.79    7.30
  -3   1   6   96.89    8.70
   2  -1  -6  659.83   21.60
   2  -1  -6  658.73   18.10
   2   1  -6  641.34   19.90
   2   1  -6  643.84   22.80
   2   1  -6  669.73   20.00
   1  -1  -6    0.70    2.10
   1  -1  -6    5.20    3.20
   1   1  -6   -0.70    1.70
   1   1  -6   -1.20    1.80
   1   1  -6   -0.20    1.70
   0  -1  -6    2.00    1.60
   0  -1  -6    4.90    3.20
   0  -1  -6    3.90    1.60
   0   1  -6   -0.60    2.10
   0   1  -6    0.40    1.50
   0   1   6   -0.70    2.90
   0   1  -6    3.10    2.20
   1  -1   6    0.00    2.20
  -1  -1  -6    5.30    3.50
   1  -1   6    0.00    2.10
  -1  -1  -6   -0.60    2.50
  -1  -1  -6    2.20    2.70
   1  -1   6   -2.20    2.00
   1   1   6    1.20    3.40
  -1   1  -6   -0.10    2.80
   1   1   6   -1.20    1.40
   1   1   6    1.20    1.40
  -1   1  -6   -0.60    2.00
  -1   1  -6   -5.70    2.60
  -2  -1  -6  704.13   22.90
  -2  -1  -6  729.53   24.70
   2  -1   6  724.83   23.90
   2  -1   6  716.83   23.30
  -2  -1  -6  706.43   25.00
   2  -1   6  712.03   23.50
   2   1   6  699.73   22.90
  -2   1  -6  705.03   24.80
   2   1   6  710.03   22.90
   2   1   6  695.23   25.00
  -2   1  -6  712.63   24.60
   3  -1   6  195.58   12.40
   3  -1   6  204.18   11.90
  -3  -1  -6  211.18   13.20
  -3  -1  -6  198.28   11.20
   3  -1   6  207.08   12.60
  -3  -1  -6  213.58   13.20
  -3   1  -6  188.58   12.90
  -3   1  -6  204.48   12.70
   3   1   6  211.98   13.50
  -3   1  -6  229.98   13.70
   3   1   6  204.78   12.00
   3   1   6  204.18   12.00
   4  -1   6    9.00    6.30
   4  -1   6   19.10    5.90
  -4  -1  -6   35.50    7.20
   4  -1   6   34.60    6.90
  -4  -1  -6   20.50    7.40
  -4  -1  -6   21.80    6.00
  -4  -1  -6   16.20    7.30
  -4   1  -6   25.70    7.00
  -4   1  -6   26.00    6.90
   4   1   6   17.80    5.90
   4   1   6   25.90    6.50
  -4   1  -6   16.50    6.20
  -5  -1  -6   76.19   11.60
  -5  -1  -6   92.49   11.10
   5  -1   6   89.89   12.90
  -5  -1  -6   75.79   14.10
   5  -1   6   97.59   14.00
   5  -1   6   96.19   11.60
  -5   1  -6   73.39   11.80
   5   1   6  117.19   15.40
   5   1   6   71.09   12.70
   5   1   6   61.09   10.20
  -5   1  -6  112.79   14.90
  -5   1  -6   72.09   11.60
  -6  -1  -6   14.10   10.10
  -6  -1  -6   28.80   12.60
   6  -1   6    6.30   11.60
   6  -1   6   34.20   10.80
  -6  -1  -6   30.60   10.20
  -6   1  -6   32.70   10.40
  -6   1  -6   27.50   11.60
   6   1   6   11.30    9.30
   6   1   6   15.60    9.00
   7  -1   6   21.70   13.60
  -7  -1  -6  -10.30   12.80
   7  -1   6  -15.60   12.80
  -7  -1  -6   11.80   15.60
   7  -1   6    9.90   14.40
  -7  -1  -6   26.00   15.70
   7   1   6    1.60   13.90
   7   1   6  -11.20   11.00
  -7   1  -6    4.60   15.00
   7   1   6    7.40   12.10
  -7   1  -6   -3.90   11.30
  -7   1  -6    3.80   10.90
   7  -2  -6   16.50   11.60
   7  -2  -6   15.00   11.50
  -7  -2   6   21.50    8.70
   7  -2  -6   30.20   11.70
  -7  -2   6    8.30   10.20
  -7   2   6    6.90    4.80
  -7   2   6   20.60   11.70
   7   2  -6   26.50   12.80
  -7   2   6   22.40    6.00
   7   2  -6    8.70   12.00
   7   2  -6   34.70   13.20
   6  -2  -6   14.30    9.10
  -6  -2   6   -1.50    5.80
   6  -2  -6    9.60    9.90
   6  -2  -6   -1.10    7.50
  -6  -2   6   -4.40    5.60
  -6   2   6  -11.20   10.00
   6   2  -6    0.00    9.40
  -6   2   6    2.10    3.00
  -6   2   6    3.10    4.00
   6   2  -6    0.10    7.90
   6   2  -6    5.90    8.90
   6   2  -6   -1.90    8.60
   5  -2  -6  307.17   18.00
   5  -2  -6  310.87   17.10
  -5  -2   6  305.77   14.20
   5  -2  -6  296.77   17.80
  -5  -2   6  331.67   14.50
   5   2  -6  326.67   18.40
   5   2  -6  306.57   17.60
  -5   2   6  323.47   18.30
   5   2  -6  312.97   17.30
  -4  -2   6   66.79    6.60
  -4  -2   6   59.59    6.50
   4  -2  -6   74.39    8.50
   4  -2  -6   67.19    8.50
   4  -2  -6   57.39    7.50
   4   2  -6   69.59    9.80
   4   2  -6   67.19    8.50
  -4   2   6   68.19    9.00
   4   2  -6   78.19    9.00
   4   2  -6   74.79    9.60
  -3  -2   6  153.18    7.50
   3  -2  -6  174.58    9.50
  -3  -2   6  164.78    7.70
   3  -2  -6  166.28   10.20
   3  -2  -6  174.08    9.20
   3   2  -6  159.88   10.50
   3   2  -6  197.18   11.90
  -3   2   6  155.68    9.60
   3   2  -6  174.78    9.30
   3   2  -6  162.58   10.20
  -2  -2   6   -0.40    1.60
   2  -2  -6   -0.70    2.10
  -2  -2   6   -1.40    1.70
   2  -2  -6   -3.60    2.10
   2  -2  -6    0.70    2.70
   2   2  -6   -1.00    2.00
   2   2  -6   -0.40    3.20
   2   2  -6   -1.40    4.10
  -2   2   6    1.00    2.60
   2   2  -6    2.80    3.50
   1  -2  -6  106.09    5.70
  -1  -2   6   97.39    5.30
   1  -2  -6  113.39    5.40
   1  -2  -6  110.89    5.80
   1  -2  -6  102.59    9.10
  -1  -2   6  109.19    5.30
   1   2  -6   97.19    7.20
   1   2  -6  108.19    7.50
   0  -2  -6  296.17   11.20
   0  -2   6  305.77   11.10
   0  -2  -6  294.87    8.90
   0  -2  -6  295.07   14.10
   0  -2  -6  273.77   11.00
   0  -2   6  280.47   11.00
   0   2  -6  275.97   12.20
   0   2   6  291.77   13.60
   0   2  -6  278.47   12.60
   1  -2   6    6.60    3.30
   1  -2   6    1.90    1.80
  -1  -2  -6    6.00    1.80
   1  -2   6    7.20    3.40
  -1  -2  -6    0.70    4.00
  -1  -2  -6    6.10    3.30
  -1  -2  -6    6.30    3.30
   1   2   6    2.30    2.00
   1   2   6    3.90    4.20
   1   2   6    4.80    2.30
  -1   2  -6    6.00    3.80
  -1   2  -6    5.70    3.70
   2  -2   6   46.50    6.00
  -2  -2  -6   56.49    7.20
  -2  -2  -6   65.59    5.40
  -2  -2  -6   54.99    7.70
  -2  -2  -6   46.40    6.20
   2  -2   6   51.19    6.10
   2  -2   6   67.39    8.20
  -2   2  -6   44.00    6.70
   2   2   6   57.49    6.70
  -2   2  -6   61.89    8.40
   2   2   6   43.40    6.90
   2   2   6   53.79    6.60
   3  -2   6  205.48   11.80
   3  -2   6  202.28   13.30
  -3  -2  -6  211.18   13.90
   3  -2   6  239.58   13.70
  -3  -2  -6  208.68   11.20
  -3  -2  -6  266.57   14.20
  -3   2  -6  201.68   13.90
   3   2   6  222.38   15.10
   3   2   6  209.08   12.50
   3   2   6  198.98   12.70
  -3   2  -6  203.68   13.80
  -4  -2  -6  776.92   30.70
  -4  -2  -6  736.43   30.50
  -4  -2  -6  827.82   31.50
   4  -2   6  753.02   29.40
  -4  -2  -6  757.82   27.00
   4  -2   6  775.12   28.60
   4  -2   6  738.33   29.70
  -4   2  -6  711.43   33.10
   4   2   6  762.42   29.30
   4   2   6  730.23   31.50
  -4   2  -6  784.72   30.50
  -4   2  -6  698.53   33.70
   4   2   6  786.92   28.70
  -5  -2  -6   12.20    7.10
   5  -2   6    1.00    7.30
  -5  -2  -6    6.70    8.60
  -5  -2  -6   12.50    9.80
  -5  -2  -6    8.50    7.20
   5  -2   6    9.70    8.20
   5  -2   6    6.10    9.00
  -5   2  -6   -2.30    9.00
  -5   2  -6   -5.30    6.10
   5   2   6    6.60    8.00
   5   2   6   -0.50    7.40
   6  -2   6   22.10   11.10
  -6  -2  -6   21.50   12.70
  -6  -2  -6   13.30   12.90
  -6  -2  -6   17.30   10.30
   6  -2   6   21.20   11.20
   6   2   6   31.10   10.80
  -6   2  -6   12.80    9.30
  -6   2  -6   -4.00   11.10
   6   2   6   17.60   10.80
  -6   2  -6    2.70   11.40
   6   2   6   -0.30   10.90
   7  -2   6   54.09   15.70
  -7  -2  -6   25.20   14.30
   7  -2   6   51.39   14.40
   7  -2   6   26.60   15.90
  -7  -2  -6   36.00   16.50
  -7  -2  -6   22.00   15.50
  -7   2  -6   32.40   12.30
   7   2   6   26.50   16.30
   7   2   6   41.10   16.50
   7   2   6   26.40   13.60
  -7   2  -6   59.69   13.80
   7  -3  -6   45.40   13.10
  -7  -3   6   52.39   10.90
  -7  -3   6   61.29   11.50
   7  -3  -6   45.30   14.60
   7  -3  -6   34.00   15.00
  -7   3   6   41.70    6.00
   7   3  -6   40.90   15.30
  -7   3   6   59.39    7.90
   7   3  -6   43.90   14.00
   7   3  -6   40.30   12.60
   7   3  -6   45.90   14.50
  -7   3   6   53.89   14.90
   6  -3  -6   53.99   11.10
  -6  -3   6   71.89    9.80
   6  -3  -6  100.79   12.70
   6  -3  -6   85.99   20.30
  -6   3   6   76.89    8.60
   6   3  -6   81.49   12.60
  -6   3   6   48.20    6.70
   6   3  -6   46.60   11.90
   6   3  -6   80.09   12.90
   6   3  -6   71.99   13.40
  -5  -3   6  191.78   13.70
   5  -3  -6  212.18   15.50
  -5  -3   6  203.68   13.50
   5  -3  -6  198.58   15.60
   5   3  -6  180.48   19.20
  -5   3   6  201.38   15.60
  -5   3   6  215.28    8.10
   5   3  -6  242.48   18.60
   5   3  -6  194.18   16.10
   5   3  -6  221.08   16.70
   4  -3  -6   -3.10    4.90
   4  -3  -6   -7.50    4.70
   4  -3  -6    6.90    5.60
  -4  -3   6   -4.50    4.20
  -4  -3   6    3.10    4.50
  -4   3   6    2.70    5.30
   4   3  -6   -0.40    6.30
   4   3  -6   -4.80    4.70
   4   3  -6    9.20    6.80
  -3  -3   6  538.85   19.50
   3  -3  -6  538.85   20.30
   3  -3  -6  518.15   20.30
   3  -3  -6  539.15   19.60
  -3  -3   6  546.55   19.60
   3   3  -6  569.14   22.20
   3   3  -6  541.05   22.60
   3   3  -6  545.75   22.70
   3   3  -6  523.25   18.70
  -3   3   6  523.75   19.20
   2  -3  -6   94.89    7.80
   2  -3  -6   80.59    6.00
   2  -3  -6   82.19    7.60
  -2  -3   6   85.29    7.30
  -2  -3   6   74.59    7.40
   2   3  -6   75.59    8.60
  -2   3   6   87.09    6.10
   2   3  -6   87.09    5.40
   2   3  -6   90.59    9.00
   1  -3  -6   14.70    3.90
  -1  -3   6   17.30    4.00
  -1  -3   6   21.20    4.00
   1  -3  -6   20.50    4.10
   1  -3  -6   19.50    5.60
   1   3  -6   13.70    4.60
   1   3  -6   16.40    4.80
   0  -3  -6   52.89    6.90
   0  -3   6   31.20    5.00
   0  -3  -6   34.70    5.00
   0  -3   6   43.50    5.50
   0  -3  -6   25.60    6.10
   0   3  -6   33.10    5.70
   0   3   6   35.60    3.80
   0   3  -6   33.50    5.80
   0   3   6   36.00    3.70
   0   3   6   31.80    6.70
   1  -3   6  267.77   13.70
  -1  -3  -6  268.27   13.30
   1  -3   6  281.67   14.00
  -1  -3  -6  254.17   13.50
   1  -3   6  274.57    9.50
  -1  -3  -6  279.57   14.60
  -1   3  -6  256.97   14.50
   1   3   6  280.57   14.90
   1   3   6  267.27   11.40
  -1   3  -6  284.27   14.90
   1   3   6  276.47   11.70
  -2  -3  -6   22.10    5.90
   2  -3   6   19.90    5.60
  -2  -3  -6   20.70    5.70
   2  -3   6   24.50    6.10
   2  -3   6   23.40    3.80
  -2  -3  -6   18.60    3.00
   2   3   6   22.00    4.90
   2   3   6   18.10    5.60
   2   3   6   17.10    4.70
  -2   3  -6   23.30    6.50
   3  -3   6   29.10    5.60
  -3  -3  -6   20.00    7.50
  -3  -3  -6   21.50    4.60
  -3  -3  -6   23.40    7.30
   3  -3   6   21.90    7.20
   3   3   6   35.60    6.60
  -3   3  -6   19.90    7.60
   3   3   6   26.50    6.70
   3   3   6   28.20    6.30
  -3   3  -6   29.90    8.00
  -4  -3  -6  365.86   17.10
  -4  -3  -6  350.76   19.90
  -4  -3  -6  341.07   21.80
   4  -3   6  368.46   20.90
   4  -3   6  368.36   18.10
   4  -3   6  327.97   23.80
   4   3   6  376.26   21.00
  -4   3  -6  364.96   21.80
   4   3   6  396.06   19.80
   5  -3   6   49.30   11.10
  -5  -3  -6   53.59   11.90
  -5  -3  -6   61.89    9.10
  -5  -3  -6   46.90   11.40
  -5  -3  -6   48.00   12.30
  -5   3  -6   87.59   12.70
   5   3   6   40.40    9.40
   5   3   6   47.80   10.80
  -6  -3  -6  102.99   15.50
   6  -3   6  101.19   14.40
   6  -3   6   49.70   13.00
  -6  -3  -6   78.59   15.10
  -6  -3  -6   88.29   12.90
   6  -3   6   66.59   15.00
  -6   3  -6   71.69   12.90
   6   3   6  125.19   14.60
   6   3   6   76.79   13.70
  -6   3  -6   82.09   13.30
   6   3   6   60.89   16.10
  -6   3  -6   91.09   15.70
   6   3   6   70.19   14.30
   7  -3   6    9.20   17.00
  -7  -3  -6  -13.20   17.70
   7  -3   6    0.10   14.90
   7  -3   6  -19.70   15.90
  -7  -3  -6   -5.70   14.30
   7   3   6  -13.10   14.70
  -7   3  -6   -3.60   13.20
   7   3   6   -2.70   16.00
   7  -4  -6   10.30   15.90
  -7  -4   6    5.40   16.70
   7  -4  -6   15.90   13.60
   7  -4  -6    6.00   16.10
  -7  -4   6   36.50   17.20
   7   4  -6   31.20   17.80
  -7   4   6   21.10    6.30
   7   4  -6   -0.40   15.60
   7   4  -6   16.80   15.00
   7   4  -6   53.69   15.50
  -7   4   6   22.90   15.20
  -7   4   6   36.40    7.80
   6  -4  -6   56.19   12.00
  -6  -4   6   30.30   10.50
   6  -4  -6   18.50   12.20
  -6  -4   6   26.30    9.30
   6  -4  -6   40.80   12.50
  -6   4   6   46.00    6.80
   6   4  -6   28.80   13.90
   6   4  -6   50.59   13.20
   6   4  -6   32.60   13.80
  -6   4   6   16.30    5.10
   6   4  -6   31.30   10.80
  -5  -4   6  155.68   15.00
   5  -4  -6  159.68   17.70
   5  -4  -6  150.28   14.00
   5  -4  -6  132.59   17.20
  -5   4   6  168.68   16.50
   5   4  -6  113.79   14.70
   5   4  -6  186.88   17.80
   5   4  -6  163.08   16.00
  -5   4   6  143.19    9.10
   5   4  -6  118.79   14.80
  -5   4   6  127.39    8.50
  -4  -4   6  346.27   18.50
   4  -4  -6  348.57   20.20
   4  -4  -6  373.36   17.40
  -4   4   6  346.77   12.60
   4   4  -6  357.16   17.50
   4   4  -6  358.86   20.30
   4   4  -6  381.16   20.30
   4   4  -6  347.97   21.90
  -4   4   6  331.67   12.30
  -4   4   6  362.66   18.00
   3  -4  -6   39.00    9.50
  -3  -4   6   50.69    7.00
  -3  -4   6   49.70    7.10
   3  -4  -6   50.89    7.30
   3  -4  -6   47.90    7.30
   3   4  -6   34.50    7.40
   3   4  -6   55.79    6.40
  -3   4   6   62.59    7.80
   3   4  -6   50.39    8.60
  -3   4   6   54.19    5.00
   2  -4  -6   24.00    7.40
  -2  -4   6   38.00    6.30
  -2  -4   6   34.00    6.20
   2  -4  -6   35.10    6.10
  -2   4   6   32.30    3.80
   2   4  -6   35.60    7.00
  -2   4   6   28.70    3.40
  -2   4   6   31.80    4.40
   2   4  -6   42.30    5.70
  -1  -4   6  948.01   31.80
   1  -4  -6  930.91   31.50
  -1  -4   6  933.41   31.80
   1  -4  -6  922.11   34.70
   1  -4  -6  967.10   32.10
   1   4  -6 1091.79   33.80
  -1   4   6  932.61   27.80
  -1   4   6  963.30   27.90
   1   4  -6  890.11   33.10
   0  -4  -6   11.10    5.10
   0  -4  -6   21.90    5.20
   0  -4  -6    5.30    4.80
   0  -4   6    6.20    5.30
   0  -4   6   10.70    1.50
   0  -4   6    8.80    5.00
   0   4   6   10.10    3.70
   0   4   6    7.20    3.50
   0   4  -6    8.20    5.60
   1  -4   6   84.29    6.00
  -1  -4  -6   88.99   10.60
  -1  -4  -6   89.89   10.10
  -1  -4  -6   75.09    9.70
   1  -4   6   78.89   10.30
  -1   4  -6   85.29   11.80
  -1   4  -6   76.69    9.90
   1   4   6   84.19    8.60
   1   4   6   81.19   10.60
  -2  -4  -6    4.90    5.50
   2  -4   6    5.00    6.40
  -2  -4  -6    1.50    6.30
   2   4   6    5.10    5.50
  -2   4  -6    2.70    6.00
   2   4   6   -0.40    5.10
  -2   4  -6    5.50    6.90
   3  -4   6  149.49   16.30
  -3  -4  -6  174.58   15.90
  -3  -4  -6  180.38   16.30
  -3  -4  -6  175.68   10.00
   3  -4   6  162.68   15.70
  -3   4  -6  143.79   16.70
  -3   4  -6  175.78   17.20
   3   4   6  184.38   13.90
   4  -4   6  148.89   17.30
   4  -4   6  104.99   13.60
  -4  -4  -6  106.59   13.80
  -4  -4  -6  130.19   11.70
  -4  -4  -6  113.19   14.30
   4  -4   6  139.99   12.70
  -4  -4  -6   96.89   13.10
   4   4   6  114.69   14.40
   4   4   6  132.89   11.70
  -4   4  -6  100.39   14.20
  -5  -4  -6   74.39   14.80
   5  -4   6   52.49   10.10
  -5  -4  -6   55.99    9.50
  -5  -4  -6   56.39   11.20
   5  -4   6   52.39   12.30
  -5  -4  -6   40.50   12.70
   5  -4   6   46.40   12.20
  -5   4  -6   42.80   12.60
  -5   4  -6   43.40   12.60
   5   4   6   42.30   10.90
  -5   4  -6   18.10   11.70
   5   4   6   22.30   13.30
  -6  -4  -6   20.90   14.90
   6  -4   6    0.80   12.10
   6  -4   6  -10.70   14.20
  -6  -4  -6  -17.60   15.00
  -6  -4  -6   13.70   11.60
   6  -4   6   12.70   13.70
  -6  -4  -6  -18.60   11.20
  -6   4  -6   15.30   15.20
  -6   4  -6    6.10   15.40
  -6   4  -6  -12.50   10.70
   6   4   6    2.80   14.10
   6   4   6   -5.70   12.30
   6   4   6  -22.60   16.20
   6   4   6   11.40   13.70
  -6  -5   6   -4.60   12.00
   6  -5  -6    1.10   13.50
   6  -5  -6    3.80   14.30
  -6  -5   6   -5.30   11.70
   6   5  -6  -37.20   15.60
  -6   5   6    6.60    6.30
   6   5  -6  -12.40   11.70
   6   5  -6   16.20   14.80
   6   5  -6  -10.90   14.90
  -6   5   6    9.20    7.60
  -6   5   6   -3.60   12.80
  -5  -5   6  100.79   13.30
   5  -5  -6  111.99   14.70
   5  -5  -6  107.59   14.50
  -5   5   6  110.29   10.40
   5   5  -6  104.89   16.60
  -5   5   6  116.99   11.40
   5   5  -6  110.39   15.50
   5   5  -6   98.69   16.20
  -5   5   6  150.78   17.70
   5   5  -6   98.59   12.60
   4  -5  -6  180.98   19.60
  -4  -5   6  226.78   18.60
   4  -5  -6  238.18   19.40
   4  -5  -6  269.87   19.50
  -4  -5   6  250.37   17.90
   4   5  -6  227.18   21.30
  -4   5   6  225.98   12.70
   4   5  -6  253.27   17.10
   4   5  -6  281.07   20.80
   4   5  -6  250.67   21.10
  -4   5   6  229.08   15.30
   3  -5  -6   27.60    8.30
  -3  -5   6   25.60    7.00
  -3  -5   6   32.10    8.40
   3  -5  -6   27.40    8.10
   3  -5  -6   19.80    7.70
  -3   5   6   16.30    5.10
   3   5  -6   21.20    9.70
  -3   5   6   21.90    5.10
   3   5  -6   48.70   10.30
  -3   5   6   24.90    5.40
   3   5  -6   28.10    6.40
   2  -5  -6   -4.70    6.70
  -2  -5   6    1.40    6.00
   2  -5  -6    4.90    8.50
  -2   5   6   -2.70    3.90
  -2   5   6    2.00    2.90
  -2   5   6   -1.70    4.30
   2   5  -6    7.00    8.10
   2   5  -6    5.10    8.00
   1  -5  -6   44.20    8.30
  -1  -5   6   49.80    5.20
  -1  -5   6   47.70    8.40
   1  -5  -6   38.40    8.40
  -1   5   6   64.79    8.60
   1   5  -6   49.99   10.20
  -1   5   6   48.10    6.20
   0  -5  -6   18.40    7.60
   0  -5   6   24.70    3.40
   0  -5   6   23.30    7.50
   0  -5  -6   17.30    7.30
   0   5   6   26.20    5.90
   0   5  -6   39.40    9.00
   0   5  -6   25.20    9.40
   0   5   6   27.10    5.90
   1  -5   6  169.08   16.10
  -1  -5  -6  164.08   15.60
  -1  -5  -6  211.88   15.80
  -1  -5  -6  160.98   24.90
   1  -5   6  168.28   15.40
   1  -5   6  162.08    9.40
   1   5   6  171.88   13.10
  -1   5  -6  155.38   16.50
  -1   5  -6  190.68   16.60
   1   5   6  199.48   13.00
  -2  -5  -6  223.28   18.80
   2  -5   6  193.08   18.10
  -2  -5  -6  159.48   17.20
  -2  -5  -6  202.68   16.90
   2   5   6  226.68   15.30
  -2   5  -6  206.78   18.70
  -2   5  -6  208.08   18.50
   2   5   6  175.58   15.10
  -3  -5  -6   37.60    9.90
   3  -5   6   20.10   11.90
  -3  -5  -6   32.50   10.40
   3  -5   6   44.60   10.50
  -3  -5  -6   23.40   10.80
  -3   5  -6   43.30   11.40
   3   5   6   38.00    9.60
  -4  -5  -6   25.90   12.70
  -4  -5  -6   46.50   13.40
   4  -5   6   36.90   12.30
   4  -5   6   60.49   12.50
  -4  -5  -6   35.40   12.40
   4   5   6   44.10   14.20
   4   5   6   39.00   10.40
  -4   5  -6   44.10   13.50
  -4   5  -6   64.89   12.10
   4   5   6   39.30   11.20
   5  -5   6   19.70   14.50
  -5  -5  -6   18.40   13.60
   5  -5   6   16.20   14.10
  -5  -5  -6  -19.40   14.10
   5  -5   6   -5.10    9.30
  -5  -5  -6   16.00   14.70
   5   5   6    0.90   15.40
   5   5   6    1.50   12.80
  -5   5  -6   -1.00   14.00
  -5   5  -6  -18.00   13.50
   5   5   6   17.70   11.70
  -5   5  -6    4.10   13.50
   5  -6  -6   26.90   16.80
  -5  -6   6  -25.90   12.70
   5  -6  -6   20.50   14.50
   5  -6  -6   -6.10   14.80
   5   6  -6  -27.80   15.20
  -5   6   6   10.90    8.50
  -5   6   6   12.80   12.00
   5   6  -6    7.20   16.20
   5   6  -6   -6.70   16.60
   4  -6  -6   38.80   12.20
   4  -6  -6   49.70   13.50
  -4  -6   6   43.00   12.40
  -4  -6   6   25.00   11.60
   4  -6  -6   65.49   13.40
   4   6  -6   70.29   15.30
   4   6  -6   25.50   14.50
  -4   6   6   45.30    8.50
   4   6  -6   39.90   13.30
   4   6  -6   51.09   11.20
  -4   6   6   50.09    8.00
  -4   6   6   45.90    8.90
   3  -6  -6   95.59   13.60
   3  -6  -6   81.19   14.70
   3  -6  -6  107.99   14.70
  -3  -6   6  109.59   13.80
  -3  -6   6   93.19   13.60
   3   6  -6   95.99   14.90
   3   6  -6  113.49   15.60
  -3   6   6   93.39   13.10
   3   6  -6   94.59   10.20
  -3   6   6  103.19   12.20
  -3   6   6  120.59   10.40
   3   6  -6  120.89   15.30
   2  -6  -6   16.60    9.60
  -2  -6   6   31.40   10.10
   2  -6  -6   29.30    8.90
   2   6  -6   21.90   10.70
  -2   6   6   18.40    3.70
   2   6  -6   -9.20   10.30
   2   6  -6   19.20    8.90
  -2   6   6   13.70    6.80
  -2   6   6   13.30    6.30
  -1  -6   6   94.29   14.90
   1  -6  -6   69.49   14.40
  -1  -6   6  110.99    8.70
  -1  -6   6   73.89   11.90
   1  -6  -6   94.49   12.10
   1  -6  -6   90.69   13.20
  -1   6   6  107.09   12.70
   1   6  -6   85.19   13.00
  -1   6   6  117.89   12.40
   1   6  -6  115.19   14.90
   0  -6  -6  313.77   20.10
   0  -6  -6  253.47   20.40
   0  -6   6  225.28   19.60
   0  -6   6  280.77   12.50
   0   6  -6  269.07   21.60
   0   6  -6  270.37   21.90
   0   6   6  246.28   16.20
   0   6   6  200.28   15.70
   1  -6   6    9.20    5.30
  -1  -6  -6   -0.50   10.70
  -1  -6  -6   20.70   10.10
   1  -6   6    7.10   10.20
   1  -6   6    6.80    8.90
  -1  -6  -6   19.50    9.40
   1   6   6   37.30    8.60
  -1   6  -6   18.10   11.30
  -1   6  -6   22.90   10.30
   1   6   6   11.80    7.60
   1   6   6   16.60   11.00
  -2  -6  -6   22.30   11.70
   2  -6   6   66.49   12.70
  -2  -6  -6   38.40   12.00
   2  -6   6   46.50    7.50
  -2  -6  -6   35.50   11.40
  -2   6  -6   30.40   11.90
   2   6   6   29.80    9.90
  -2   6  -6   45.80   12.40
   2   6   6   39.50   10.30
   2   6   6   37.30   13.80
  -3  -6  -6   11.10   11.80
   3  -6   6   16.40   11.60
  -3  -6  -6   10.40   12.30
   3  -6   6   31.10   12.10
  -3  -6  -6   19.90   12.60
   3   6   6   26.40   13.90
  -3   6  -6   10.20   13.20
  -3   6  -6   26.60   12.30
   3   6   6   -4.70    9.90
   4  -6   6  -33.10   14.00
  -4  -6  -6   -9.10   13.80
  -4  -6  -6    0.80   13.10
  -4  -6  -6   13.90   14.40
   4  -6   6   37.90   14.40
   4   6   6    7.70   16.00
   4   6   6   11.20   13.00
  -4   6  -6    5.20   10.20
  -4   6  -6   -2.20   14.90
  -4   6  -6   -0.70   14.00
  -3  -7   6  136.89   17.10
   3  -7  -6  191.88   24.70
   3  -7  -6  132.19   19.60
  -3  -7   6  117.19   16.80
   3  -7  -6  167.98   20.20
  -3   7   6  130.89   14.70
   3   7  -6  129.59   19.30
   3   7  -6  158.28   20.20
   3   7  -6  180.88   21.60
  -3   7   6  169.78   12.40
  -3   7   6  176.18   17.90
  -2  -7   6   27.40   13.20
   2  -7  -6   46.20   13.60
   2  -7  -6   60.49   14.90
  -2  -7   6   35.90    7.60
  -2  -7   6   43.40   13.30
   2  -7  -6   44.70   14.60
   2   7  -6   30.30   15.10
   2   7  -6   41.50   16.00
  -2   7   6   52.09    5.10
   2   7  -6   61.89   15.00
  -2   7   6   31.10    9.60
   1  -7  -6   -9.20   13.10
   1  -7  -6   17.20   12.70
  -1  -7   6   -1.70    5.80
   1  -7  -6   -2.70   11.70
  -1  -7   6    0.40   12.10
  -1  -7   6   22.80   11.90
  -1   7   6   -9.00    9.20
  -1   7   6   11.70    9.20
   1   7  -6    9.10   12.80
   1   7  -6    0.50   12.60
   0  -7   6   42.80    7.40
   0  -7  -6   44.40   13.70
   0  -7  -6   38.60   13.50
   0  -7  -6    8.70   14.20
   0  -7   6   32.20   12.70
   0  -7   6   57.49   13.50
   0   7   6   38.90   11.00
   0   7  -6   12.00   12.30
   0   7  -6   40.40   15.50
   0   7   6   24.10   10.30
   1  -7   6    0.50   13.80
  -1  -7  -6   10.90   13.30
  -1  -7  -6   -3.20   14.50
  -1  -7  -6   30.60   14.70
   1  -7   6   15.00    7.30
   1  -7   6    8.30   12.70
  -1   7  -6   22.00   14.60
   1   7   6   16.50   10.40
  -1   7  -6   14.80   14.20
  -2  -7  -6  122.99   18.70
  -2  -7  -6  124.29   17.30
  -2  -7  -6  118.79   19.10
   2  -7   6  129.49   19.00
   2  -7   6  100.79   17.00
  -2   7  -6  152.58   19.90
   2   7   6  134.69   16.80
   2   7   6  123.89   19.90
  -2   7  -6   65.99   17.80
   3  -7   6  -14.00   10.10
   3  -7   6  -30.30   15.60
  -3  -7  -6   -1.20   16.40
  -3  -7  -6   -1.00   16.40
   3  -7   6  -19.50   16.40
  -3  -7  -6   31.50   16.70
   3   7   6   24.80   14.30
   3   7   6   -7.70   14.70
  -3   7  -6    7.40   17.20
   3   7   6    3.00   16.60
  -3   7  -6   -7.80   17.90
  -7   0   7    6.80    9.60
   7   0  -7  -10.70   12.20
   7   0  -7   22.00   11.50
   7   0  -7  -10.70   10.60
   6   0  -7  -14.00    6.80
   6   0  -7  -18.00    9.10
   6   0  -7    1.40    7.80
   5   0  -7   -2.60    6.90
   5   0  -7    4.30    5.60
   4   0  -7    0.60    3.60
   4   0  -7   -0.10    3.80
  -4   0   7   -1.30    5.30
   3   0  -7    6.70    2.70
   3   0  -7    9.30    4.40
   3   0  -7   10.00    2.70
   2   0  -7   -2.20    3.20
   2   0  -7    0.30    0.90
   2   0  -7   -1.50    1.00
   1   0  -7  366.86   13.90
   0   0  -7   -1.40    1.80
   0   0  -7    0.20    2.70
   0   0  -7    1.00    1.70
   0   0   7   -0.90    2.50
  -1   0  -7 2840.02   77.29
  -1   0  -7 2981.20   77.69
  -1   0  -7 2923.31   77.99
   1   0   7 2779.62   74.09
   1   0   7 2855.81   77.89
   2   0   7   -1.60    3.40
  -2   0  -7    2.50    3.90
   2   0   7    2.50    2.90
  -2   0  -7    3.70    4.00
   2   0   7   -2.90    2.80
  -2   0  -7    1.00    3.80
  -3   0  -7   -3.60    4.20
  -3   0  -7    3.30    5.10
   3   0   7    5.10    4.20
  -3   0  -7    2.50    5.20
  -3   0  -7    8.20    4.70
   3   0   7    0.20    4.30
   3   0   7   -0.90    4.00
   4   0   7    1.10    5.80
  -4   0  -7    4.20    6.60
  -4   0  -7    8.30    6.80
  -4   0  -7    1.10    6.10
   4   0   7    2.30    6.40
   5   0   7 1129.39   42.20
   5   0   7 1142.79   41.50
  -5   0  -7 1143.09   41.20
  -5   0  -7 1209.38   44.30
   6   0   7    5.40   12.40
  -6   0  -7    7.70   11.40
   6   0   7   -0.50   10.00
  -6   0  -7   -9.50    8.80
  -6   0  -7    3.30   10.80
   6   0   7  -16.20    9.20
   7   0   7   95.79   17.10
  -7   0  -7   75.09   17.60
   7   0   7   94.99   17.40
  -7   0  -7  104.79   16.60
   7   0   7   83.09   17.00
  -7   0  -7   75.99   18.50
  -7  -1   7   28.40    4.50
  -7  -1   7   41.20   14.40
   7  -1  -7   53.19   14.80
  -7  -1   7   40.20    5.60
   7  -1  -7   36.60   12.10
   7  -1  -7   58.29   12.90
   7   1  -7   33.30   11.20
   7   1  -7   57.59   13.60
   7   1  -7   45.70   13.80
  -7   1   7   36.90   11.30
   7   1  -7   61.39   13.90
  -6  -1   7   61.29   11.40
   6  -1  -7   60.69    9.90
   6  -1  -7   65.99   10.20
   6  -1  -7   66.09    9.90
  -6  -1   7   72.19    6.30
   6   1  -7   54.99   10.80
   6   1  -7   88.59   13.40
   5  -1  -7  323.37   17.20
   5  -1  -7  363.06   19.70
   5  -1  -7  370.06   17.60
  -5  -1   7  320.37   18.70
  -5   1   7  382.16   19.80
   5   1  -7  344.07   19.90
   5   1  -7  359.96   18.50
   5   1  -7  348.67   17.90
   4  -1  -7  186.88   10.80
   4  -1  -7  176.98   10.50
   4   1  -7  190.28   11.50
   4   1  -7  204.58   14.10
   4   1  -7  188.28   11.60
  -4   1   7  197.78   13.20
   3  -1  -7    2.90    2.50
   3  -1  -7    3.80    4.00
   3   1  -7    6.70    3.30
   3   1  -7   10.10    3.40
  -3   1   7    2.00    3.80
   2  -1  -7    3.50    3.10
   2  -1  -7    3.00    0.90
   2   1  -7    2.90    2.30
   2   1  -7    1.30    2.20
   2   1  -7   10.50    4.30
   1  -1  -7   20.00    3.60
   1  -1  -7   16.20    4.30
   1   1  -7   23.60    2.90
   1   1  -7   23.00    2.90
   1   1  -7   28.40    3.70
   0  -1  -7   32.20    3.70
   0  -1  -7   36.70    3.70
   0  -1  -7   40.40    5.10
   0   1  -7   34.10    3.70
   0   1   7   31.30    4.90
   0   1  -7   37.30    5.00
   0   1  -7   34.90    4.60
   1  -1   7   52.09    4.70
  -1  -1  -7   46.70    5.70
   1  -1   7   54.89    4.70
  -1  -1  -7   65.39    6.50
   1  -1   7   55.99    5.20
  -1  -1  -7   58.69    7.50
  -1   1  -7   51.19    6.50
  -1   1  -7   56.09    5.20
  -1   1  -7   42.30    5.40
   1   1   7   55.59    7.30
   2  -1   7  235.88   11.70
  -2  -1  -7  238.88   12.80
  -2  -1  -7  262.57   13.60
   2  -1   7  252.97   11.80
  -2  -1  -7  251.27   11.60
   2  -1   7  240.28   11.80
   2   1   7  244.28   13.30
  -2   1  -7  241.98   13.30
   2   1   7  230.78   10.80
   2   1   7  244.48   10.90
  -2   1  -7  263.87   13.40
  -3  -1  -7   80.59    9.00
   3  -1   7   84.59   10.00
  -3  -1  -7   81.19   10.50
   3  -1   7   73.09    9.20
   3  -1   7   94.49    9.70
   3   1   7   75.59    8.00
  -3   1  -7   77.99   10.00
   3   1   7   76.19    9.00
  -3   1  -7   77.49   10.50
   3   1   7   72.69    9.00
   4  -1   7  337.37   18.80
  -4  -1  -7  375.76   20.60
   4  -1   7  349.57   19.10
  -4  -1  -7  344.47   17.40
  -4  -1  -7  334.87   19.70
  -4  -1  -7  383.26   19.80
  -4   1  -7  361.96   19.60
   4   1   7  367.36   19.30
   4   1   7  355.56   18.50
  -4   1  -7  369.16   20.30
  -4   1  -7  319.07   22.10
   5  -1   7 1405.86   50.29
  -5  -1  -7 1548.84   52.89
  -5  -1  -7 1442.36   51.39
   5  -1   7 1540.35   52.79
  -5  -1  -7 1499.55   53.29
   5  -1   7 1369.16   50.49
  -5   1  -7 1497.35   50.69
  -5   1  -7 1510.05   52.39
  -5   1  -7 1484.15   51.89
   5   1   7 1597.64   57.89
   5   1   7 1437.26   49.30
   6  -1   7   53.29   12.50
  -6  -1  -7   66.39   13.80
   6  -1   7   57.99   12.60
  -6  -1  -7   72.59   13.90
  -6  -1  -7   53.19   11.70
   6  -1   7   42.30   12.70
  -6   1  -7   75.19   11.40
  -6   1  -7   95.59   15.10
   6   1   7   72.19   13.90
   6   1   7   76.79   12.40
  -7  -1  -7   -2.00   16.50
   7  -1   7   30.10   14.90
  -7  -1  -7    7.60   13.10
   7  -1   7    6.70   14.20
   7  -1   7  -15.00   15.40
  -7  -1  -7   23.90   15.80
  -7   1  -7   15.30   14.40
   7   1   7   38.40   16.20
   7   1   7   17.40   16.60
  -7   1  -7   36.70   17.50
   7   1   7   24.70   14.10
  -7   1  -7    1.10   15.40
   7  -2  -7   -6.10   12.10
  -7  -2   7    5.70    6.10
   7  -2  -7    1.70   11.30
   7  -2  -7    4.40   12.10
  -7  -2   7   10.30    6.70
   7   2  -7   10.70   13.00
  -7   2   7   -7.70   12.40
   7   2  -7   -4.10   12.90
   7   2  -7    9.30   13.00
  -6  -2   7   15.50    5.10
  -6  -2   7   25.10    5.10
   6  -2  -7   28.40    8.50
   6  -2  -7   48.10   10.90
   6   2  -7   34.10    9.60
   6   2  -7   26.10   10.10
   6   2  -7   18.50    9.90
   6   2  -7   23.70   11.20
  -5  -2   7    4.00    3.00
   5  -2  -7   14.60    7.00
   5  -2  -7    9.50    6.30
   5  -2  -7    6.80    6.60
  -5  -2   7    7.40    3.50
   5   2  -7    0.90    6.70
   5   2  -7   -4.70    8.10
   5   2  -7    4.40    6.50
   5   2  -7   19.40    7.10
  -5   2   7    8.50    7.10
  -4  -2   7   55.09    3.70
   4  -2  -7   49.10    6.40
   4  -2  -7   48.10    7.30
   4  -2  -7   59.49    8.30
   4   2  -7   53.49    7.00
  -4   2   7   50.19    7.60
   4   2  -7   45.50    7.50
   4   2  -7   51.89    7.30
   4   2  -7   53.39    7.00
   3  -2  -7   66.29    6.50
   3  -2  -7   64.29    8.10
   3  -2  -7   69.49    6.70
   3   2  -7   59.89    6.90
   3   2  -7   66.59    8.20
  -3   2   7   62.39    8.10
   3   2  -7   79.49    8.20
   3   2  -7   74.59    8.20
   2  -2  -7  431.46   14.50
   2  -2  -7  454.85   14.60
   2  -2  -7  463.55   16.10
   2  -2  -7  441.76   19.40
   2   2  -7  441.96   16.90
   2   2  -7  445.06   17.00
   2   2  -7  474.35   18.90
   2   2  -7  423.56   14.00
   1  -2  -7   71.69    5.00
   1  -2  -7   64.69    4.90
   1  -2  -7   63.99    8.40
   1  -2  -7   72.89    5.00
   1   2  -7   77.99    6.80
   1   2  -7   77.89    6.90
   0  -2  -7 1789.02   53.79
   0  -2   7 1839.62   48.90
   0  -2  -7 1796.02   49.90
   0  -2  -7 1844.62   49.99
   0  -2   7 1795.92   48.90
   0  -2  -7 1808.02   48.10
   0   2  -7 1830.72   51.89
   0   2   7 1880.91   54.29
   0   2  -7 1761.42   51.59
   1  -2   7  111.19    7.90
   1  -2   7  117.89    5.90
  -1  -2  -7  115.99    8.40
  -1  -2  -7  130.59    9.50
   1  -2   7  139.19    8.50
  -1  -2  -7  121.29    6.00
  -1  -2  -7  124.09    8.80
  -1   2  -7  125.29    9.30
   1   2   7  118.89    5.20
  -1   2  -7  120.79   10.10
   1   2   7  119.79   10.50
   1   2   7  120.39    5.20
   2  -2   7  226.98   12.00
  -2  -2  -7  237.48   13.40
  -2  -2  -7  207.88    9.80
  -2  -2  -7  210.88   12.70
   2  -2   7  216.68   10.30
   2  -2   7  207.38   12.10
  -2  -2  -7  199.48   12.20
  -2   2  -7  218.48   13.50
  -2   2  -7  214.08   13.30
   2   2   7  222.68   10.60
   2   2   7  208.28   10.60
   2   2   7  215.78   14.00
   3  -2   7   43.90    6.10
   3  -2   7   56.39    7.50
  -3  -2  -7   37.00    5.70
  -3  -2  -7   36.10    7.40
   3  -2   7   48.00    7.30
  -3  -2  -7   53.49    7.70
  -3   2  -7   38.60    7.50
   3   2   7   40.80    6.20
  -3   2  -7   41.10    7.20
   3   2   7   43.30    8.00
   3   2   7   45.40    6.90
  -4  -2  -7  152.68   17.30
   4  -2   7  132.59   12.10
  -4  -2  -7  142.29   15.00
  -4  -2  -7  136.89   15.10
  -4  -2  -7  123.39   11.90
   4  -2   7  165.48   13.90
   4  -2   7  144.89   14.90
   4   2   7  124.59   15.40
  -4   2  -7  137.19   14.90
   4   2   7  135.39   13.90
  -4   2  -7  115.19   13.40
  -4   2  -7  123.29   12.30
  -5  -2  -7  361.86   24.20
   5  -2   7  330.27   22.50
  -5  -2  -7  361.16   23.60
   5  -2   7  372.66   23.40
  -5  -2  -7  390.96   23.50
  -5  -2  -7  312.47   19.20
   5   2   7  315.27   21.70
  -5   2  -7  359.76   21.70
  -5   2  -7  355.06   24.00
  -5   2  -7  337.07   22.40
   5   2   7  342.37   25.20
   6  -2   7  112.29   14.90
   6  -2   7  186.88   22.80
  -6  -2  -7  134.29   18.50
  -6  -2  -7  157.58   19.10
   6  -2   7  167.28   22.90
  -6  -2  -7  180.88   18.90
  -6   2  -7  177.58   23.10
  -6   2  -7  207.58   24.00
   6   2   7  161.28   19.10
   6   2   7  211.98   22.00
   6   2   7  120.19   16.60
  -6   2  -7  176.98   18.80
   7  -2   7   -4.10   15.10
   7  -2   7    4.30   14.80
  -7  -2  -7   17.20   21.30
  -7  -2  -7   -1.70   17.50
  -7  -2  -7   -2.40   14.30
   7  -2   7    0.40   16.90
   7   2   7   -2.10   19.20
   7   2   7    6.50   13.80
  -7   2  -7   18.80   16.70
  -7   2  -7    2.20   16.40
   7   2   7   -5.50   15.60
   7  -3  -7  -28.50   13.20
  -7  -3   7   -5.80    8.50
   7  -3  -7  -10.70   13.40
   7  -3  -7    6.10   12.50
   7   3  -7   -0.80   13.60
   7   3  -7    4.50   14.50
   7   3  -7    6.60   14.60
   7   3  -7    9.60   14.40
  -7   3   7   20.70   13.20
  -6  -3   7   54.79    8.00
   6  -3  -7   67.19   11.80
  -6  -3   7   53.59    8.10
   6  -3  -7   62.49   12.60
   6  -3  -7   68.49   11.90
   6   3  -7   87.49   14.60
   6   3  -7   58.09   11.60
   6   3  -7   62.69   12.60
   6   3  -7   73.29   12.20
   5  -3  -7   -0.10    7.40
   5  -3  -7    5.40    7.30
  -5  -3   7    3.60    5.10
  -5  -3   7    9.50    5.30
   5   3  -7   -0.50    7.10
   5   3  -7    0.50    8.00
   5   3  -7   -5.40    8.90
  -5   3   7    0.10    7.20
   5   3  -7    3.30    7.60
  -4  -3   7   87.09    8.60
   4  -3  -7  101.49   11.10
   4  -3  -7   83.69   11.30
  -4  -3   7   91.89    8.30
   4  -3  -7   97.49   10.20
   4   3  -7   59.29   16.10
  -4   3   7   94.59   10.80
   4   3  -7   75.29    9.90
   4   3  -7   92.89   10.10
   3  -3  -7   60.29    8.30
   3  -3  -7   60.09    7.80
  -3  -3   7   61.69    6.60
   3  -3  -7   48.40    6.30
  -3  -3   7   64.29    6.50
   3   3  -7   54.79    8.90
   3   3  -7   65.29    8.40
  -3   3   7   74.29    7.50
   3   3  -7   48.00    7.80
   3   3  -7   56.19    6.70
   2  -3  -7   46.10    5.20
   2  -3  -7   31.90    4.90
   2  -3  -7   35.40    5.00
  -2  -3   7   35.20    4.40
   2  -3  -7   14.90    7.20
  -2  -3   7   42.10    5.70
   2   3  -7   44.50    3.60
   2   3  -7   45.90    6.80
   2   3  -7   37.70    6.40
   1  -3  -7   49.60    6.70
   1  -3  -7   50.39    6.70
  -1  -3   7   62.19    6.40
  -1  -3   7   53.29    6.40
   1   3  -7   50.29    6.50
   1   3  -7   46.30    6.50
   0  -3  -7   24.10    4.60
   0  -3   7   21.40    4.40
   0  -3   7   29.40    4.70
   0  -3  -7   20.40    4.40
   0   3  -7   16.30    5.50
   0   3  -7   18.50    5.50
   0   3   7   25.10    6.90
   1  -3   7  145.89    5.90
   1  -3   7  146.19   10.50
  -1  -3  -7  139.59   10.10
  -1  -3  -7  144.39   10.90
   1  -3   7  188.68   11.30
  -1   3  -7  142.59   11.80
   1   3   7  147.99   11.80
   1   3   7  153.18    7.80
  -1   3  -7  141.39   11.60
   1   3   7  159.18    7.90
   2  -3   7   95.59   10.70
  -2  -3  -7   85.39   10.20
   2  -3   7   87.99    7.10
  -2  -3  -7   58.19    8.00
  -2  -3  -7   73.69    9.50
  -2  -3  -7   81.29    5.60
   2  -3   7   91.29    9.80
   2   3   7   79.99    8.20
  -2   3  -7   72.89    9.20
   2   3   7   83.19   10.30
   2   3   7   77.59    8.30
  -3  -3  -7  484.85   22.80
   3  -3   7  440.96   21.50
  -3  -3  -7  463.45   22.70
   3  -3   7  448.76   18.70
  -3  -3  -7  449.06   22.90
  -3  -3  -7  442.66   17.10
  -3   3  -7  473.95   26.50
   3   3   7  455.15   19.90
   3   3   7  456.35   19.80
  -3   3  -7  491.45   24.00
  -4  -3  -7  214.48   19.40
  -4  -3  -7  218.08   18.90
  -4  -3  -7  219.58   13.40
   4  -3   7  212.88   15.60
   4  -3   7  228.38   17.80
   4   3   7  222.78   15.30
  -4   3  -7  217.18   22.60
   4   3   7  192.98   15.60
  -4   3  -7  210.28   18.50
  -4   3  -7  226.98   19.60
  -5  -3  -7    8.90   11.50
  -5  -3  -7   22.90   11.30
   5  -3   7   16.50   10.10
  -5  -3  -7   16.00    7.70
  -5  -3  -7   20.20   11.20
   5   3   7   37.20   11.90
   5   3   7   18.00   10.30
   5   3   7   15.40    9.00
  -5   3  -7   30.10   10.60
  -5   3  -7    5.50   10.20
  -5   3  -7   14.80   10.80
   6  -3   7   34.30   12.20
   6  -3   7   53.19   14.00
  -6  -3  -7   23.90   15.80
  -6  -3  -7   43.60   16.10
  -6  -3  -7   41.30   11.80
   6  -3   7   50.19   14.60
  -6  -3  -7   51.49   12.30
  -6   3  -7   26.30   14.20
   6   3   7   28.50   13.80
  -6   3  -7   41.20   14.60
  -6   3  -7   35.10   15.50
   6   3   7   42.60   16.30
   6   3   7   39.30   12.60
   6  -4  -7   13.80   11.40
  -6  -4   7   13.90    9.10
   6  -4  -7   -6.00   10.00
   6  -4  -7   -0.90   13.10
   6   4  -7  -15.00   13.30
   6   4  -7  -15.20   12.20
   6   4  -7   21.50   12.20
   6   4  -7    6.20   10.90
  -5  -4   7   -7.40    6.80
   5  -4  -7   -3.40    8.20
   5  -4  -7   15.40    7.60
   5  -4  -7   16.40    9.30
   5   4  -7   -5.50    9.50
   5   4  -7    9.90   11.00
  -5   4   7   10.50    8.10
   5   4  -7   -5.30    7.90
   5   4  -7    7.70    9.90
   4  -4  -7  185.88   13.30
  -4  -4   7  166.28   13.30
  -4  -4   7  170.18   13.20
   4  -4  -7  188.58   15.90
   4   4  -7  165.28   16.60
  -4   4   7  177.48   13.40
   4   4  -7  181.48   17.70
   4   4  -7  156.58   17.00
   4   4  -7  176.28   13.20
   3  -4  -7   28.70    6.40
  -3  -4   7   27.40    6.10
  -3  -4   7   27.00    6.10
   3  -4  -7   34.10    6.60
   3  -4  -7   21.90   15.30
   3   4  -7   29.00    8.00
   3   4  -7   26.90    8.00
   3   4  -7   25.30    4.90
  -3   4   7   17.90    4.80
   2  -4  -7   36.20    6.70
  -2  -4   7   38.80    6.30
  -2  -4   7   64.99    8.70
   2  -4  -7   51.19    7.10
   2  -4  -7   46.30    8.90
   2   4  -7   38.80    8.00
  -1  -4   7  196.18   12.40
   1  -4  -7  191.58   12.80
   1  -4  -7  208.58   13.20
  -1  -4   7  211.88   12.60
   1  -4  -7  193.28   15.60
   1   4  -7  187.78   14.50
   0  -4   7  193.48   13.10
   0  -4  -7  182.48   15.00
   0  -4  -7  169.78   12.80
   0  -4   7  171.38   12.70
   0  -4  -7  199.68   13.30
   0   4   7  184.58    8.60
   0   4   7  190.98    8.50
   0   4  -7  206.68   14.50
  -1  -4  -7  136.79   14.40
  -1  -4  -7  181.58   11.80
   1  -4   7  152.18    6.30
   1  -4   7  159.38   13.10
  -1  -4  -7  129.39   13.20
   1  -4   7  189.28   13.10
   1  -4   7  140.99    6.20
   1   4   7  133.19    9.50
   1   4   7  143.79   13.10
  -1   4  -7  149.29   14.40
   1   4   7  151.38    9.60
  -1   4  -7  152.98   13.90
  -2  -4  -7   30.90    8.10
   2  -4   7   29.50    4.50
  -2  -4  -7   35.60    9.00
   2  -4   7   33.10    7.70
  -2   4  -7   18.20    8.00
   2   4   7   21.20    8.40
   2   4   7   24.70    6.20
   2   4   7   24.50    5.80
   3  -4   7   48.30    6.80
   3  -4   7   41.40    9.40
  -3  -4  -7   76.29   11.20
  -3  -4  -7   70.29   11.50
  -3  -4  -7   58.39   10.40
   3  -4   7   57.39   10.20
  -3  -4  -7   56.49    7.10
  -3   4  -7   47.30   11.00
  -3   4  -7   40.20   10.20
   3   4   7   56.59    8.80
  -4  -4  -7  106.79   11.10
   4  -4   7  122.39   14.80
  -4  -4  -7   91.89   13.70
  -4  -4  -7   88.49   13.50
  -4  -4  -7  120.19   14.80
   4  -4   7  109.99   13.20
   4  -4   7   87.89   15.30
   4   4   7   86.89   12.10
   4   4   7   76.49   10.80
  -4   4  -7   83.39   13.50
  -4   4  -7  109.99   14.80
  -5  -4  -7   -0.50   12.50
   5  -4   7   -5.50    9.20
  -5  -4  -7   13.50    8.40
  -5  -4  -7    6.50   12.20
   5  -4   7   -2.70   11.50
  -5  -4  -7   -1.90   12.90
   5  -4   7    0.50   12.20
  -5   4  -7   17.90   13.40
  -5   4  -7   16.40   12.30
   5   4   7   -3.40   10.10
   5   4   7   13.40   13.20
  -5   4  -7   14.80   12.20
   6  -4   7   20.60   12.60
  -6  -4  -7    0.60   11.10
   6  -4   7  -10.60   14.40
   6  -4   7   -3.80   15.40
  -6  -4  -7    2.50   17.30
  -6  -4  -7    5.10   15.60
  -6  -4  -7   27.00   16.40
  -6   4  -7   -9.80   16.60
  -6   4  -7  -20.50   16.00
  -6   4  -7    7.50   17.40
   6   4   7    0.40   13.10
   6   4   7  -26.70   18.10
   6   4   7  -21.20   14.50
   6  -5  -7   10.20   15.00
   6  -5  -7  -16.60   15.00
   6   5  -7   26.70   15.90
   6   5  -7   23.30   16.40
   6   5  -7  -14.40   13.20
   6   5  -7   -8.10   17.10
   5  -5  -7  -17.70   11.20
   5  -5  -7   -9.10   11.40
  -5  -5   7   -1.80    9.50
  -5  -5   7   11.70    9.20
   5   5  -7  -15.40   12.10
   5   5  -7  -26.20   11.20
  -5   5   7   -4.90    8.70
   5   5  -7   16.70   13.20
   5   5  -7   15.60   10.10
   4  -5  -7    7.80    9.40
   4  -5  -7    4.10    9.20
   4  -5  -7   -9.60   11.30
  -4  -5   7   -9.60    8.00
  -4  -5   7    7.50    7.30
   4   5  -7  -13.40    9.00
   4   5  -7    0.10   10.70
   4   5  -7    0.40    7.10
  -4   5   7   -7.20    6.20
   4   5  -7    4.90   11.10
  -3  -5   7   20.80    7.80
   3  -5  -7   37.70    9.20
   3  -5  -7   31.00   11.00
   3  -5  -7   28.00    8.40
  -3   5   7   30.40    5.40
   3   5  -7   35.10   10.50
   3   5  -7   35.30   13.50
   3   5  -7   40.40    6.20
   3   5  -7   18.40   10.10
  -2  -5   7   14.20    7.30
   2  -5  -7    2.70    7.20
   2  -5  -7    1.50    8.50
  -2   5   7    8.40    3.00
   2   5  -7   18.70    9.50
   2   5  -7   13.30    8.90
  -2   5   7    8.60    2.40
  -1  -5   7  129.39   13.90
   1  -5  -7  118.69   13.40
   1  -5  -7  109.29   13.50
  -1   5   7  130.79    8.50
   1   5  -7  129.79   15.50
  -1   5   7  130.99    8.00
   1   5  -7  123.59   15.40
   0  -5  -7   11.90    8.90
   0  -5  -7    7.60    7.50
   0  -5   7   10.60    6.80
   0   5  -7    2.50    7.90
   0   5  -7    2.80    7.50
   0   5   7    7.70    4.40
  -1  -5  -7   -4.60    7.30
   1  -5   7   11.30    7.70
   1  -5   7   -2.60    7.60
   1  -5   7    1.10    2.60
  -1  -5  -7    0.00    8.50
   1   5   7    3.50    5.10
  -1   5  -7   -2.50    8.40
   2  -5   7    4.40    9.00
   2  -5   7   15.10    5.20
  -2  -5  -7   16.40    9.30
  -2  -5  -7   22.90   10.70
  -2  -5  -7   27.50    8.90
  -2   5  -7   12.30    9.70
  -2   5  -7   12.90   10.00
   2   5   7   18.60    7.10
  -3  -5  -7  166.18   19.60
  -3  -5  -7  191.38   21.10
  -3  -5  -7  177.68   20.10
   3  -5   7  215.58   19.90
   3   5   7  177.38   16.20
  -3   5  -7  211.38   22.30
   3   5   7  231.68   17.40
  -3   5  -7  176.48   20.90
  -4  -5  -7   13.10   12.90
  -4  -5  -7   18.60   11.30
   4  -5   7   36.20    9.30
  -4  -5  -7   27.70   13.10
   4  -5   7   44.00   13.40
   4  -5   7   40.90   12.70
  -4   5  -7   16.40   12.30
  -4   5  -7   28.20   12.60
   4   5   7    6.10   10.30
  -4   5  -7   26.20   14.10
   4   5   7   27.70   14.90
   4   5   7   35.80   10.90
   5  -5   7   -4.40   10.40
  -5  -5  -7   26.40   16.20
   5  -5   7    6.50   14.10
   5  -5   7  -19.70   14.50
  -5  -5  -7  -13.20   15.20
  -5  -5  -7    6.80   15.90
   5   5   7   -3.30   16.90
  -5   5  -7   -1.80   16.10
   5   5   7    6.60   12.70
  -5   5  -7   17.80   16.40
  -5   5  -7   17.90   14.80
   5   5   7   -5.90   13.50
   5  -6  -7   18.00   17.80
  -5  -6   7    7.30   14.70
  -5  -6   7    5.00   12.60
   5  -6  -7  -12.30   15.20
   5  -6  -7   13.90   15.60
  -5   6   7  -14.30   12.40
   5   6  -7    8.00   16.60
   5   6  -7   10.40   16.30
   5   6  -7   -0.50   12.60
   5   6  -7  -21.30   17.10
  -4  -6   7  232.48   22.40
   4  -6  -7  197.88   23.90
  -4  -6   7  210.98   20.90
   4  -6  -7  165.68   18.40
   4  -6  -7  214.58   22.20
  -4   6   7  217.88    9.20
   4   6  -7  163.68   20.20
   4   6  -7  247.38   25.10
  -4   6   7  227.68   15.90
   4   6  -7  235.78   19.10
   4   6  -7  191.98   21.20
   3  -6  -7   46.20   12.20
   3  -6  -7   11.70   10.70
   3  -6  -7   18.40   13.00
  -3   6   7   20.10    5.40
   3   6  -7   45.10   14.30
  -3   6   7    7.20    5.10
   3   6  -7   -1.40   12.20
   3   6  -7   15.20   12.90
  -3   6   7   18.70    4.70
   2  -6  -7   34.10   11.50
  -2  -6   7   24.70    9.80
   2  -6  -7   29.00   10.50
  -2   6   7   26.70    6.10
  -2   6   7   13.20    5.00
   2   6  -7   27.70   10.60
   2   6  -7   36.10   12.20
   2   6  -7   16.60   11.40
   1  -6  -7    0.80   10.80
  -1  -6   7   10.50    8.90
   1  -6  -7  -12.20    8.40
  -1   6   7    1.20    5.90
  -1   6   7    8.90    6.00
   1   6  -7  -15.70   10.10
   1   6  -7   -6.90   11.30
   0  -6  -7    0.40   11.60
   0  -6   7   23.00    3.20
   0  -6   7   33.70   20.10
   0  -6  -7   17.30   10.00
   0  -6   7   17.20    9.50
   0  -6  -7    8.10   11.30
   0   6   7   15.00    6.70
   0   6   7   29.50    7.70
   0   6  -7   31.80   10.80
   0   6  -7    4.90   11.50
   1  -6   7   22.30    4.80
  -1  -6  -7   45.90   12.60
   1  -6   7   10.20   10.10
  -1  -6  -7   13.30   10.20
  -1  -6  -7   23.60   10.60
   1  -6   7   31.80   11.50
   1   6   7   23.80    7.80
  -1   6  -7   25.90   11.50
  -1   6  -7   23.00   11.80
   2  -6   7   42.80    7.00
  -2  -6  -7   29.90   10.20
  -2  -6  -7   51.39   12.40
  -2  -6  -7   32.60   11.50
   2  -6   7   28.00   13.10
   2   6   7   27.60    9.50
  -2   6  -7   54.69   14.00
   2   6   7   15.30   13.80
  -2   6  -7   36.90   14.10
   3  -6   7   -3.40   12.70
  -3  -6  -7   21.50   13.50
   3  -6   7   -5.60   12.60
  -3  -6  -7    6.40   13.00
  -3  -6  -7    0.60   13.00
  -3   6  -7   -7.10   10.90
   3   6   7   -0.80   13.80
   3   6   7    5.70   10.50
  -3   6  -7    0.70   13.60
  -4  -6  -7   23.70   16.10
   4  -6   7   -6.80   14.90
  -4  -6  -7    2.40   16.50
  -4  -6  -7    7.40   15.80
   4  -6   7    3.60   15.20
   4   6   7   -1.00   12.30
  -4   6  -7   20.90   17.40
  -4   6  -7   -1.00   14.90
   4   6   7   21.60   13.00
   4   6   7  -12.40   17.90
  -4   6  -7   19.90   16.70
  -3  -7   7   -5.80   13.40
   3  -7  -7  -24.20   15.80
   3  -7  -7   28.80   15.20
   3  -7  -7   -1.30   12.50
  -3  -7   7   15.70   12.10
  -3   7   7   14.10    7.90
   3   7  -7  -11.30   15.30
  -3   7   7   -2.80    6.70
  -3   7   7   -0.50    4.80
   3   7  -7   -6.80   17.00
   3   7  -7    7.50   18.10
   2  -7  -7    1.90   13.50
   2  -7  -7    9.10   11.50
  -2  -7   7   19.10   12.20
   2  -7  -7   15.20   14.60
  -2  -7   7   19.60   12.80
  -2   7   7   19.00    7.90
   2   7  -7   -9.00   13.10
   2   7  -7   12.10   15.20
   2   7  -7    3.40   15.10
  -2   7   7   35.70    8.70
   1  -7  -7   19.90   13.40
  -1  -7   7   16.90   12.70
  -1  -7   7    0.10   12.50
   1  -7  -7    2.90   13.30
   1  -7  -7  -16.60   14.00
   1   7  -7   30.40   14.20
   1   7  -7   17.40   14.90
  -1   7   7    5.90    8.40
   0  -7   7   19.60   13.00
   0  -7  -7   22.20   13.20
   0  -7  -7   -4.50   14.10
   0  -7   7   33.90   13.90
   0  -7  -7   15.30   12.40
   0  -7   7   14.30    4.70
   0   7  -7    5.70   15.60
   0   7   7   15.80    9.40
   0   7  -7   26.10   15.70
   1  -7   7   44.30    7.00
   1  -7   7   44.80   16.60
   1  -7   7   46.90   14.70
  -1  -7  -7   55.39   15.80
  -1  -7  -7   46.70   15.60
  -1  -7  -7   75.69   17.90
   1   7   7   29.70   11.40
   1   7   7   40.40   11.30
  -1   7  -7   61.89   17.60
  -1   7  -7   51.19   16.90
   2  -7   7   16.30   16.00
  -2  -7  -7  -16.30   15.80
   2  -7   7  -16.80   15.50
   2  -7   7  -14.60    7.40
  -2  -7  -7  -15.30   14.30
  -2  -7  -7   -2.90   15.40
  -2   7  -7   -0.80   15.70
   2   7   7    4.40   17.10
   2   7   7    5.90   11.30
  -2   7  -7   22.80   13.30
   7   0  -8    1.50   11.90
   7   0  -8   -1.80   10.30
   7   0  -8   16.50   13.50
  -7   0   8   -1.00    9.80
   6   0  -8  237.38   16.50
   6   0  -8  187.48   17.90
   6   0  -8  190.68   19.90
   5   0  -8   -2.30    5.60
  -5   0   8   -4.30    7.00
   5   0  -8    1.70    7.60
   4   0  -8   46.00    5.70
   4   0  -8   43.30    5.40
   3   0  -8    0.80    4.50
   3   0  -8    0.20    2.30
   3   0  -8   -0.50    2.40
   2   0  -8    7.90    4.10
   2   0  -8    4.70    3.90
   1   0  -8    3.70    3.30
   0   0  -8  243.98    9.50
   0   0  -8  263.77   11.30
   0   0  -8  246.98    9.50
   1   0   8    0.40    3.10
  -1   0  -8    7.80    3.60
  -1   0  -8   -4.20    3.30
  -1   0  -8    3.00    3.30
  -2   0  -8  508.85   19.80
   2   0   8  507.95   17.10
  -2   0  -8  505.25   20.10
   2   0   8  490.65   19.60
   2   0   8  478.95   17.00
  -2   0  -8  517.05   20.40
  -3   0  -8   -5.40    5.00
  -3   0  -8   -5.40    5.40
   3   0   8    1.30    5.00
   3   0   8   -2.10    4.30
  -3   0  -8   -4.40    4.90
   3   0   8    3.90    4.30
  -4   0  -8  135.69   17.80
  -4   0  -8  189.68   16.40
   4   0   8  180.98   16.00
  -4   0  -8  166.78   14.30
   4   0   8  185.18   13.80
  -5   0  -8    0.20    8.10
  -5   0  -8    4.30   10.40
   5   0   8   10.90    7.80
   5   0   8    3.20    8.70
   6   0   8    6.10   10.40
  -6   0  -8   15.00   12.00
   6   0   8   12.10   11.70
  -6   0  -8   17.50   11.20
   6   0   8    9.20   10.80
  -6   0  -8    4.40   13.40
  -7   0  -8    8.30   15.90
   7  -1  -8   12.90   12.50
  -7  -1   8   24.80   11.30
   7  -1  -8    6.00   13.20
   7  -1  -8   30.40   12.30
   7   1  -8   34.60   14.00
  -7   1   8   35.20   13.50
   7   1  -8   42.10   14.30
   7   1  -8   25.70   11.70
   7   1  -8   41.80   12.90
   6  -1  -8  129.39   16.60
   6  -1  -8  137.39   17.30
   6   1  -8  146.29   18.70
   5  -1  -8   11.80    7.70
   5  -1  -8   -5.90    5.20
   5  -1  -8    2.00    5.90
   5   1  -8    9.50    6.20
   5   1  -8   -0.40    7.70
   5   1  -8    6.60    6.10
   4  -1  -8    2.50    3.90
   4  -1  -8    1.00    3.70
  -4   1   8    3.50    5.50
   4   1  -8   10.40    6.30
   4   1  -8   -3.20    4.20
   4   1  -8   -0.80    4.20
   3  -1  -8   82.39    8.90
   3  -1  -8   69.99    5.40
   3   1  -8   77.89    7.00
   3   1  -8   80.69    7.10
   2  -1  -8  676.43   23.10
   2  -1  -8  666.23   24.30
   2   1  -8  688.73   20.50
   2   1  -8  668.93   20.60
   2   1  -8  662.73   24.80
   1  -1  -8  196.28    9.70
   1  -1  -8  185.88   11.40
   1   1  -8  184.18    8.00
   1   1  -8  178.28    8.00
   1   1  -8  188.38    8.30
   0  -1  -8    2.10    2.10
   0  -1  -8    3.10    3.90
   0  -1  -8    1.90    2.10
   0   1   8   -0.80    3.70
   0   1  -8    3.80    2.90
   0   1  -8    3.20    2.80
   0   1  -8    1.40    2.10
  -1  -1  -8   17.60    4.00
   1  -1   8    9.40    2.00
  -1  -1  -8   11.70    4.30
  -1  -1  -8    7.90    3.50
   1  -1   8   12.20    3.30
   1  -1   8    8.60    1.70
  -1   1  -8   10.80    4.20
   1   1   8    9.60    4.60
  -1   1  -8    9.80    4.10
  -1   1  -8   10.30    3.10
  -2  -1  -8  231.28   13.50
  -2  -1  -8  207.98   12.10
   2  -1   8  217.78   11.00
  -2  -1  -8  199.68   12.60
  -2  -1  -8  221.78   11.60
   2  -1   8  215.88   11.50
   2  -1   8  218.78   11.00
   2   1   8  219.88    9.70
  -2   1  -8  217.08   12.90
   2   1   8  213.98    9.60
  -2   1  -8  199.88   12.40
   2   1   8  224.98   13.60
   3  -1   8   59.19    7.50
  -3  -1  -8   79.29    8.70
   3  -1   8   59.69    7.50
  -3  -1  -8   60.39    7.40
   3  -1   8   54.99    7.50
   3   1   8   67.29    8.40
  -3   1  -8   55.79    8.30
   3   1   8   72.99    9.10
   3   1   8   67.99    9.10
  -3   1  -8   47.60    8.20
   4  -1   8   74.69    9.70
  -4  -1  -8  105.69   14.60
   4  -1   8   95.89   12.00
  -4  -1  -8  103.79   14.00
  -4  -1  -8   97.29   11.30
  -4  -1  -8   81.09   10.30
  -4   1  -8   73.39   12.50
  -4   1  -8  100.99   13.50
  -4   1  -8   78.29   10.70
   4   1   8   84.99   11.40
  -5  -1  -8  132.79   15.20
  -5  -1  -8   96.79   13.70
   5  -1   8  139.59   16.00
  -5  -1  -8  168.88   18.70
   5  -1   8   97.79   13.40
  -5   1  -8  134.59   18.50
  -5   1  -8  132.19   17.10
  -5   1  -8  113.49   14.50
   5   1   8  144.79   15.20
  -6  -1  -8   78.79   13.50
  -6  -1  -8   86.99   16.60
   6  -1   8   84.49   14.90
  -6  -1  -8   67.59   15.70
   6  -1   8   92.19   14.50
   6  -1   8   87.19   14.10
  -6   1  -8   72.29   14.20
   6   1   8   99.29   13.90
  -6   1  -8   56.49   15.70
   6   1   8   39.00   13.20
   7  -2  -8  111.59   15.70
   7  -2  -8  153.28   19.40
   7  -2  -8   95.29   14.80
   7   2  -8  110.59   15.70
   7   2  -8  117.29   17.00
   7   2  -8  109.79   16.20
  -7   2   8  109.89   16.90
   6  -2  -8   22.30   11.20
   6  -2  -8   30.20    8.90
   6   2  -8   20.90   11.10
   6   2  -8   22.60   10.20
   6   2  -8   30.10   12.20
   6   2  -8    8.40    9.80
   5  -2  -8    5.50    6.90
   5  -2  -8    3.80    6.00
   5  -2  -8    6.40    6.60
   5   2  -8   -0.80    7.00
   5   2  -8   -0.80    7.10
   5   2  -8    7.80    7.30
  -5   2   8   -3.00    7.10
   5   2  -8   -0.70    8.60
   4  -2  -8    0.80    4.40
   4  -2  -8   11.70    4.80
  -4   2   8    6.30    5.40
   4   2  -8    4.00    5.60
   4   2  -8    5.60    5.10
   4   2  -8    8.40    5.70
   4   2  -8   20.00    7.60
   3  -2  -8   30.60    5.40
   3  -2  -8   24.60    3.90
   3  -2  -8   29.10    4.10
   3   2  -8   26.50    5.40
   3   2  -8   28.20    5.70
   3   2  -8   21.50    6.80
   3   2  -8   21.40    4.20
   2  -2  -8  121.49    6.20
   2  -2  -8  100.09   10.50
   2  -2  -8  103.79    5.90
   2  -2  -8  103.09    7.90
   2   2  -8  105.79    8.50
   2   2  -8   97.29    5.40
   2   2  -8  101.39    8.50
   1  -2  -8  372.66   12.10
   1  -2  -8  346.57   16.70
   1  -2  -8  341.17   11.90
   1  -2  -8  353.86   12.60
   1   2  -8  320.17   14.30
   1   2  -8  352.16   14.40
   0  -2  -8    4.60    2.90
   0  -2  -8    6.00    2.40
   0  -2  -8    1.10    2.90
   0  -2  -8    6.50    4.60
   0  -2   8    6.90    1.40
   0   2   8    8.70    5.30
   0   2  -8    6.80    4.20
   0   2  -8    2.50    3.90
   1  -2   8  287.67   11.70
  -1  -2  -8  275.07   10.60
   1  -2   8  266.97    9.90
  -1  -2  -8  256.17   12.90
  -1  -2  -8  277.57   15.30
   1  -2   8  264.57   11.50
  -1  -2  -8  277.67   12.80
  -1   2  -8  274.07   13.80
   1   2   8  270.57   15.40
  -1   2  -8  297.87   15.10
   2  -2   8    9.70    4.60
  -2  -2  -8    6.60    5.30
   2  -2   8    7.60    4.50
   2  -2   8   12.90    3.80
  -2  -2  -8   12.60    5.30
  -2  -2  -8   11.00    3.70
   2   2   8   16.20    6.40
  -2   2  -8   14.70    6.00
  -2   2  -8   10.10    5.80
   2   2   8   16.00    3.80
   2   2   8    6.20    3.40
   3  -2   8  539.45   21.20
   3  -2   8  580.64   23.00
  -3  -2  -8  520.85   20.30
  -3  -2  -8  542.25   24.90
   3  -2   8  525.45   22.80
  -3  -2  -8  565.04   24.20
  -3  -2  -8  508.65   24.40
   3   2   8  576.64   21.30
   3   2   8  563.34   21.40
   3   2   8  550.54   25.00
  -3   2  -8  515.55   24.30
  -3   2  -8  571.04   25.10
  -4  -2  -8    4.20    6.70
  -4  -2  -8   14.10    8.80
   4  -2   8   11.50    6.20
   4  -2   8    7.40    7.40
  -4  -2  -8    4.50    8.40
   4  -2   8   10.00    7.00
   4   2   8   29.40    9.20
  -4   2  -8   -4.00    8.20
  -4   2  -8   10.90   14.80
   4   2   8   14.20    7.20
  -4   2  -8   10.80    7.90
  -5  -2  -8    1.80    8.10
  -5  -2  -8   14.70   10.80
   5  -2   8   -5.70    9.20
  -5  -2  -8   11.10   11.00
   5  -2   8   26.40    9.60
   5  -2   8    5.10    9.20
  -5  -2  -8    3.30   10.20
   5   2   8    0.80   10.00
  -5   2  -8    3.90   10.10
  -5   2  -8   -8.90   10.40
   5   2   8   17.70   11.10
  -5   2  -8    7.20    8.30
  -6  -2  -8   20.20   12.20
  -6  -2  -8   -9.60   14.20
   6  -2   8   -8.90   11.90
   6  -2   8   17.00   11.80
  -6  -2  -8   22.00   11.50
   6  -2   8   27.30   13.20
  -6   2  -8   32.40   14.80
  -6   2  -8    6.60   13.60
   6   2   8    8.00   14.30
   6   2   8   28.30   11.40
   6   2   8    8.70   12.90
  -6   2  -8    7.10   13.90
   7  -3  -8   12.00   14.90
  -7  -3   8    7.30    5.70
   7  -3  -8   30.80   15.60
   7  -3  -8   34.80   15.20
  -7  -3   8   17.90    5.40
   7   3  -8   -0.50   14.50
   7   3  -8   55.29   17.50
   7   3  -8   16.10   15.30
   7   3  -8    0.30   15.50
  -7   3   8    4.20   14.70
   6  -3  -8   13.90   10.40
   6  -3  -8    2.80    9.70
  -6  -3   8   -0.20    3.90
  -6  -3   8   -0.80    4.60
   6  -3  -8   -0.70    9.90
   6   3  -8    5.10   10.90
   6   3  -8   22.40   10.90
   6   3  -8    3.00    9.30
  -5  -3   8   38.60    4.30
  -5  -3   8   39.50    5.10
   5  -3  -8   46.30    9.30
   5  -3  -8   46.70    9.50
   5   3  -8   37.90    8.20
  -5   3   8   53.59    9.90
   5   3  -8   55.29   10.70
   5   3  -8   45.40    9.90
   5   3  -8   46.20   10.10
   4  -3  -8   59.19    7.90
   4  -3  -8   65.09    7.90
   4  -3  -8   74.49    8.90
  -4  -3   8   61.59    4.80
   4   3  -8   49.00    8.80
   4   3  -8   54.29    7.30
  -4   3   8   73.19    8.70
   4   3  -8   50.09   10.60
   3  -3  -8   22.50    5.10
   3  -3  -8   14.10    4.70
  -3  -3   8   13.40    2.30
   3  -3  -8   12.60    4.70
   3  -3  -8   21.00    7.80
   3   3  -8   18.00    6.50
   3   3  -8   21.70    6.60
   3   3  -8   15.00    6.00
   3   3  -8   11.70    3.70
   2  -3  -8   -2.10    3.50
  -2  -3   8    1.40    2.00
   2  -3  -8   -1.50    3.00
   2  -3  -8    3.30    6.60
   2  -3  -8   -1.70    3.60
  -2  -3   8   -3.20    2.50
   2   3  -8   -2.20    4.80
   2   3  -8    2.10    5.00
   1  -3  -8   67.09    7.50
   1  -3  -8   73.79    7.40
  -1  -3   8   73.59    5.90
  -1  -3   8   69.09    6.00
   1  -3  -8   71.69    3.80
   1   3  -8   69.49    8.80
   1   3  -8   68.29    8.80
   0  -3   8  142.49    8.80
   0  -3  -8  185.48   12.40
   0  -3   8  132.29    8.80
   0  -3  -8  131.29    9.50
   0  -3  -8  142.29    9.50
   0   3  -8  147.99   12.20
   0   3  -8  140.39   11.10
   1  -3   8    4.80    2.20
  -1  -3  -8    5.60    4.70
  -1  -3  -8    4.70    4.80
  -1  -3  -8    4.50    6.20
   1  -3   8    0.30    3.90
   1  -3   8    9.80    4.70
  -1   3  -8   16.60    5.80
   1   3   8    6.90    5.40
   1   3   8    3.60    1.80
  -1   3  -8    0.10    5.00
  -2  -3  -8   -0.90    5.90
  -2  -3  -8    3.00    6.30
  -2  -3  -8    5.80    2.90
   2  -3   8    8.20    3.40
   2  -3   8    6.20    5.70
   2  -3   8   13.20    6.00
   2   3   8    7.50    4.00
  -2   3  -8    8.30    6.80
   2   3   8    8.30    4.00
   2   3   8    6.30    7.20
  -3  -3  -8   32.70    8.70
  -3  -3  -8   25.80    8.40
  -3  -3  -8   20.00    8.20
  -3  -3  -8   14.20    4.70
   3  -3   8   10.90    5.10
   3  -3   8   28.70    7.70
   3   3   8   27.60    5.90
  -3   3  -8   12.30    8.50
  -3   3  -8   22.90    8.60
   3   3   8   29.10    9.20
   3   3   8   23.50    6.10
  -4  -3  -8   26.40   10.60
  -4  -3  -8   20.70    9.90
  -4  -3  -8   23.50    6.60
  -4  -3  -8   30.90   10.40
   4  -3   8   15.30    7.00
   4  -3   8   28.70   10.00
   4   3   8   33.90    8.50
  -4   3  -8   30.60    8.10
   4   3   8   15.20    7.20
  -4   3  -8   17.70    8.80
  -4   3  -8   24.50   10.30
  -5  -3  -8   74.59   10.70
  -5  -3  -8   94.99   15.30
  -5  -3  -8   63.89   14.30
   5  -3   8   94.99   13.80
   5  -3   8   65.59   11.10
  -5  -3  -8   58.39   14.40
   5   3   8   74.59   12.50
  -5   3  -8   67.39   13.90
   5   3   8   59.59   14.80
  -5   3  -8   91.29   15.40
   5   3   8   76.49   11.50
  -5   3  -8   79.69   14.60
  -6  -3  -8  345.77   25.70
   6  -3   8  328.97   26.70
   6  -3   8  323.47   28.70
  -6  -3  -8  345.27   30.80
  -6  -3  -8  345.17   31.00
   6  -3   8  322.27   29.00
  -6  -3  -8  312.47   25.40
  -6   3  -8  364.96   31.20
  -6   3  -8  282.87   29.40
   6   3   8  330.27   27.40
   6   3   8  342.87   29.40
   6   3   8  355.76   26.30
  -6   3  -8  285.17   30.20
   6  -4  -8   -2.40   12.50
   6  -4  -8   14.00   12.00
   6  -4  -8    5.60   12.10
  -6  -4   8   -5.70    7.60
  -6  -4   8   -4.80    7.60
   6   4  -8  -11.80   13.80
   6   4  -8  -10.50   14.00
   6   4  -8   18.30   12.80
   5  -4  -8  127.29   16.00
   5  -4  -8  143.19   18.10
  -5  -4   8  145.89   12.80
   5  -4  -8  151.78   16.10
  -5  -4   8  137.09   12.80
   5   4  -8  161.78   21.50
   5   4  -8  160.78   16.10
   5   4  -8  145.19   16.60
  -5   4   8  163.88   17.00
   5   4  -8  139.99   18.60
   4  -4  -8   17.40   11.10
  -4  -4   8   19.00    5.70
   4  -4  -8   29.40    7.10
  -4  -4   8   12.50    5.40
   4  -4  -8   12.60    7.40
   4   4  -8   17.20    8.80
   4   4  -8   12.90   10.40
   4   4  -8   19.60    9.30
   4   4  -8   19.00    6.50
  -4   4   8   12.70    6.10
   3  -4  -8   20.00    6.70
  -3  -4   8   22.60    5.20
  -3  -4   8   23.30    5.50
   3  -4  -8   34.50    9.90
   3  -4  -8   41.90    7.20
   3   4  -8   33.20    8.00
   3   4  -8   33.80    4.70
   3   4  -8   21.20    8.30
  -3   4   8   23.10    4.80
   3   4  -8   26.10    9.10
  -2  -4   8  272.37   13.60
   2  -4  -8  263.97   15.00
   2  -4  -8  268.37   19.70
  -2  -4   8  261.47   13.50
   2  -4  -8  289.77   15.30
   2   4  -8  335.47   17.80
   2   4  -8  266.27   16.90
   1  -4  -8  371.46   21.70
  -1  -4   8  392.56   16.80
   1  -4  -8  372.86   17.50
  -1  -4   8  380.76   16.80
   1  -4  -8  416.66   18.10
   1   4  -8  393.96   20.10
   0  -4  -8   10.50    5.90
   0  -4   8   22.80    6.40
   0  -4   8   25.00    6.00
   0  -4  -8   13.30    8.00
   0  -4  -8   17.40    6.10
   0   4  -8   36.10    8.10
   1  -4   8    1.50    6.10
   1  -4   8   -1.20    5.50
  -1  -4  -8   -1.80    5.90
  -1  -4  -8    2.00    7.70
  -1   4  -8    5.50    7.40
  -1   4  -8   -7.00    6.90
   1   4   8   -1.60    3.10
   1   4   8   -2.10    3.20
   1   4   8    6.10    7.70
   2  -4   8  181.68    9.30
   2  -4   8  152.78   14.60
  -2  -4  -8  181.48   16.20
  -2  -4  -8  164.08   14.80
  -2  -4  -8  163.08   16.70
   2   4   8  166.08   17.60
   2   4   8  156.38   11.60
   2   4   8  194.38   12.00
  -2   4  -8  177.48   16.60
  -2   4  -8  173.68   17.00
   3  -4   8   39.50    9.80
  -3  -4  -8   48.90   10.30
   3  -4   8   33.80    6.50
  -3  -4  -8   36.10    4.70
  -3  -4  -8   27.20   10.80
   3  -4   8   34.00   10.10
  -3   4  -8   39.50   11.20
  -3   4  -8   40.90   12.30
   3   4   8   40.60    8.10
  -4  -4  -8   -8.40   10.50
  -4  -4  -8   -2.60    5.70
   4  -4   8  -10.00    7.20
   4  -4   8   10.50   10.70
  -4  -4  -8    1.10   10.90
  -4  -4  -8    0.10    9.90
   4   4   8  -13.20    8.60
  -4   4  -8  -14.60    9.80
  -4   4  -8  -13.60   10.20
   4   4   8    9.70    9.30
   4   4   8   -1.60    7.20
  -4   4  -8   -5.40   10.70
  -5  -4  -8   -1.50   14.00
  -5  -4  -8   50.39   14.20
   5  -4   8   18.10   10.10
   5  -4   8   -8.50   13.30
   5  -4   8    0.40   12.40
  -5  -4  -8   22.90   15.00
  -5  -4  -8   16.10    9.10
   5   4   8   12.40   10.30
   5   4   8   32.20   12.20
  -5   4  -8    7.50   13.20
  -5   4  -8   34.80   15.30
  -5   4  -8   10.60   13.50
   5  -5  -8  -10.70   11.10
   5  -5  -8    0.10   16.00
  -5  -5   8    3.00    9.30
   5  -5  -8   13.80   12.30
   5   5  -8   -4.10   13.40
   5   5  -8   10.20   14.80
   5   5  -8    0.40   13.30
   5   5  -8   12.30   10.10
  -5   5   8    5.10    9.50
  -4  -5   8   11.70    7.70
   4  -5  -8   13.40   13.10
   4  -5  -8    7.30    9.50
   4  -5  -8   17.30    9.40
   4   5  -8   15.50   11.00
   4   5  -8   11.80    7.30
   4   5  -8   10.10   11.50
  -4   5   8   10.10    6.90
   4   5  -8   23.00   12.00
   3  -5  -8    2.80    9.00
   3  -5  -8   24.10    9.20
  -3  -5   8    7.50    7.30
   3  -5  -8   -8.90   10.50
   3   5  -8    8.90    8.40
   3   5  -8   32.50   11.30
   3   5  -8   20.70   10.00
   2  -5  -8  -13.00    7.20
   2  -5  -8   -0.30    7.30
  -2  -5   8    7.80    6.80
   2   5  -8    2.80    8.90
   2   5  -8  -17.70   17.30
   1  -5  -8    0.70    6.90
  -1  -5   8   11.60    6.80
   1  -5  -8   13.70    7.50
   1   5  -8   16.70    8.90
   1   5  -8    3.10    9.10
   0  -5  -8    8.30    7.60
  -1  -5  -8    7.40    8.50
  -1  -5  -8   21.00    8.70
   1  -5   8    8.30    8.10
  -1  -5  -8   11.90    9.40
   1  -5   8   17.60    8.80
  -1   5  -8   19.80    8.90
   1   5   8   16.90    5.40
  -1   5  -8   19.30    9.30
   1   5   8   23.80    5.50
   2  -5   8    9.00    9.70
   2  -5   8    5.10    4.10
  -2  -5  -8   21.40   11.10
   2  -5   8   11.10    4.40
  -2  -5  -8   -1.60   10.00
  -2  -5  -8   -1.90    9.00
   2   5   8    6.30    6.30
  -2   5  -8    7.10    9.80
  -2   5  -8   -2.70    9.80
   2   5   8   28.20    6.50
  -3  -5  -8   16.50   11.90
  -3  -5  -8  -13.90   10.40
  -3  -5  -8   -4.00   11.40
   3  -5   8   -3.40    5.80
   3  -5   8   23.10   11.40
   3   5   8   12.90   10.30
   3   5   8   -0.10    8.30
  -3   5  -8    9.30   12.10
   3   5   8    3.60    7.80
  -3   5  -8    4.20    9.40
  -4  -5  -8   -7.10   13.50
   4  -5   8   -3.30    8.00
   4  -5   8    1.10   11.90
  -4  -5  -8    2.80   12.10
   4  -5   8   -4.70   12.30
  -4  -5  -8   25.50   13.80
   4   5   8   10.00   15.30
   4   5   8    1.70    9.90
  -4   5  -8   -0.40    9.80
   4   5   8   10.30   11.10
  -4   5  -8   22.70   14.60
  -5  -5  -8   -9.70   15.90
  -5  -5  -8   -7.60   17.20
   5  -5   8   10.50   17.00
   5  -5   8   13.10   15.40
  -5  -5  -8   12.10   15.70
   5  -5   8   18.60   11.30
   5   5   8   20.80   14.10
   5   5   8   26.70   13.00
  -5   5  -8  -13.30   17.70
   5   5   8   -6.30   21.30
  -5   5  -8    2.50   18.50
  -4  -6   8   18.40   16.30
   4  -6  -8  -11.40   12.60
   4  -6  -8  -13.60   11.60
  -4  -6   8  -11.00   10.40
   4  -6  -8   -6.70   14.20
   4   6  -8   25.40   15.50
   4   6  -8    6.60   15.20
  -4   6   8   -6.00    7.10
   4   6  -8   14.30    8.90
   4   6  -8   18.10   14.30
  -3  -6   8   77.09   12.50
  -3  -6   8   63.99   11.20
   3  -6  -8   84.79   16.40
   3  -6  -8   78.29   14.00
   3  -6  -8   69.39   12.90
   3   6  -8   56.49   14.90
   3   6  -8  100.69   17.40
   3   6  -8   80.09   15.30
  -2  -6   8   76.59   11.40
   2  -6  -8   75.69   15.40
   2  -6  -8   58.09   14.10
   2  -6  -8   58.39   12.20
  -2  -6   8   81.59   11.70
   2   6  -8   68.99   14.30
   2   6  -8   82.19   15.70
   2   6  -8   35.40   10.60
   1  -6  -8   -8.70   12.10
  -1  -6   8   -7.50    9.60
   1  -6  -8    0.00    9.40
  -1  -6   8    8.10    9.00
  -1   6   8   -1.30    3.40
   1   6  -8   -0.70   11.40
   1   6  -8   -0.80   12.10
   0  -6   8   47.30   11.40
   0  -6  -8   60.69   11.90
   0  -6  -8   42.00   11.50
   0  -6  -8   32.10   13.30
   0   6   8   39.40    6.40
   0   6  -8   52.79   12.50
   0   6  -8   55.39   12.80
   1  -6   8  -11.90   10.40
  -1  -6  -8  -16.50   10.20
  -1  -6  -8  -14.10   10.80
  -1  -6  -8    0.70   12.30
   1  -6   8    9.20   10.00
   1   6   8   -3.90    6.60
  -1   6  -8    0.70   11.80
  -1   6  -8    6.20   12.30
  -2  -6  -8    5.50   13.70
   2  -6   8    6.60    5.00
   2  -6   8   -0.40   12.70
  -2  -6  -8  -21.00   10.70
   2  -6   8    3.00    4.80
  -2  -6  -8   15.00   11.70
  -2   6  -8   13.00   11.70
   2   6   8    9.70    7.20
  -2   6  -8   -4.50   12.10
   2   6   8  -35.10   13.60
   2   6   8   -4.80    8.20
  -3  -6  -8  -13.10   12.90
   3  -6   8   -6.00    6.80
   3  -6   8   -8.00    7.70
   3  -6   8   23.70   15.40
  -3  -6  -8    7.70   15.00
   3  -6   8    8.20   13.50
  -3  -6  -8   11.80   14.50
  -3   6  -8  -26.80   15.80
  -3   6  -8    8.80   15.10
   3   6   8  -29.70   16.30
   2  -7  -8   13.20   17.00
  -2  -7   8   18.90   14.00
   2  -7  -8    0.60   15.40
   2  -7  -8   21.50   16.70
   2   7  -8   43.20   17.20
   2   7  -8    1.50   16.60
   2   7  -8   14.10   14.70
   1  -7  -8   18.00   13.70
   1  -7  -8    1.60   13.20
   1  -7  -8    7.70   11.90
  -1  -7   8   -2.20   12.50
   1   7  -8  -29.70   15.20
  -1   7   8    5.90    6.40
   1   7  -8    6.40   17.00
   0  -7  -8   -0.40   14.30
   0  -7  -8    3.90   15.50
   0  -7   8   -9.10   13.00
   0  -7  -8  -13.60   16.30
   0  -7   8    2.70   12.30
   0   7  -8    7.90   15.40
   0   7  -8   32.20   15.10
   0   7   8   -5.60    8.10
   1  -7   8   -5.30   15.40
  -1  -7  -8   13.70   13.70
  -1  -7  -8    6.90   14.60
  -1  -7  -8  -14.70   14.70
   1  -7   8   16.40   13.90
  -1   7  -8   24.80   17.50
  -1   7  -8   -0.90   14.70
   1   7   8    8.60    9.90
   2  -7   8   41.40    7.20
  -2  -7  -8   52.99   17.80
   2  -7   8   39.50   17.30
  -2  -7  -8   37.10   16.90
   2  -7   8    7.80   17.90
  -2  -7  -8   36.50   17.70
  -2   7  -8   43.40   19.30
  -7   0   9   67.89   13.90
   7   0  -9   65.69   13.00
   7   0  -9   69.29   15.10
   7   0  -9   82.09   16.20
   6   0  -9   25.20   10.90
   6   0  -9   -2.60    8.60
   5   0  -9   63.79    8.40
   5   0  -9   56.69   12.90
   4   0  -9    3.10    3.80
   4   0  -9    5.80    7.00
   4   0  -9   -3.00    3.90
   3   0  -9    8.40    2.70
   3   0  -9    6.80    2.80
   2   0  -9   -0.20    1.00
   2   0  -9   -9.60    3.60
   2   0  -9   -2.30    4.00
   1   0  -9 1042.30   31.60
   1   0  -9 1013.20   27.20
   1   0  -9 1001.70   27.10
   0   0  -9   -2.00    2.50
   0   0  -9    1.20    3.50
   0   0  -9    3.50    2.40
  -1   0  -9  425.16   16.70
   1   0   9  409.06   17.10
  -1   0  -9  415.16   16.50
  -1   0  -9  402.76   16.20
  -2   0  -9    3.80    4.80
  -2   0  -9   -8.20    4.90
   2   0   9   -2.00    2.60
   2   0   9    0.00    4.90
   2   0   9    2.40    2.60
  -2   0  -9    6.50    4.80
  -3   0  -9   11.90    6.10
   3   0   9   12.40    6.00
   3   0   9   12.60    4.70
   4   0   9   -3.30    7.30
   4   0   9    4.20    6.90
  -4   0  -9  -17.90    7.50
  -4   0  -9   -1.20    8.10
  -4   0  -9   -4.10    8.20
   5   0   9   13.00    9.20
  -5   0  -9    5.60   11.30
  -5   0  -9   -9.10    8.80
  -6   0  -9    9.60   13.80
   6   0   9   -6.70   12.70
  -6   0  -9   -0.70   12.10
   6   0   9   18.50   12.30
  -6   0  -9    3.00   13.80
   6   0   9  -10.20   12.40
   7  -1  -9  351.96   27.40
   7  -1  -9  396.36   28.60
   7  -1  -9  350.56   26.30
   7   1  -9  361.66   28.00
   7   1  -9  343.97   30.20
   7   1  -9  330.57   28.30
  -7   1   9  326.37   28.40
   7   1  -9  380.46   26.00
   6  -1  -9    5.30    8.90
   6  -1  -9   25.00   11.00
   6   1  -9   -6.40    7.40
  -6   1   9   -2.30    9.00
   6   1  -9   -8.30   10.00
   5  -1  -9    4.20    5.50
   5  -1  -9   -0.90    5.80
   5  -1  -9    7.70    8.20
   5   1  -9   -5.90    6.20
   5   1  -9   -1.20    6.40
   5   1  -9   -3.10    9.70
   4  -1  -9   18.50    4.70
   4  -1  -9   39.00    5.10
   4   1  -9   28.10    5.60
   4   1  -9   25.80    5.40
   4   1  -9   19.20    7.30
   3  -1  -9  150.88   11.10
   3  -1  -9  115.69    6.20
   3   1  -9  126.09    8.40
   3   1  -9  114.69   12.00
   3   1  -9  119.59    8.30
   2  -1  -9    3.10    4.10
   2  -1  -9    5.30    5.20
   2   1  -9   12.60    3.80
   2   1  -9    5.70    2.80
   2   1  -9    4.50    2.60
   1  -1  -9  257.07    7.40
   1  -1  -9  254.87   12.10
   1  -1  -9  251.57   13.30
   1   1  -9  266.87   10.50
   1   1  -9  255.87   10.40
   1   1  -9  254.37   10.50
   0  -1  -9   65.39    8.80
   0  -1  -9   52.99    5.30
   0  -1  -9   61.69    5.40
   0   1  -9   61.49    6.40
   0   1  -9   52.59    5.40
   0   1  -9   49.99    6.40
  -1  -1  -9  125.19    9.20
   1  -1   9  124.89    8.20
  -1  -1  -9  124.49    9.00
  -1  -1  -9  112.69   10.10
  -1   1  -9  123.49    9.60
  -1   1  -9  127.99    9.90
  -1   1  -9  131.89    8.10
   1   1   9  109.49   10.40
  -2  -1  -9    1.30    4.40
  -2  -1  -9   -2.00    4.10
   2  -1   9    4.50    3.90
   2  -1   9    3.70    3.50
  -2  -1  -9   -5.60    5.20
   2  -1   9    2.80    3.20
  -2   1  -9    6.00    5.20
   2   1   9    0.50    2.40
  -2   1  -9   -3.50    5.10
   2   1   9    0.70    2.00
   2   1   9    5.20    5.50
  -3  -1  -9    5.30    6.10
   3  -1   9   -7.30    4.80
  -3  -1  -9   -2.40    5.40
   3  -1   9   -1.90    4.80
   3  -1   9    2.10    5.10
   3   1   9   -3.90    4.10
   3   1   9   -1.00    5.70
  -3   1  -9   10.40    6.10
  -3   1  -9    6.00    7.00
   3   1   9   -3.00    4.40
  -4  -1  -9   -5.30    6.90
   4  -1   9    0.80    7.10
  -4  -1  -9   -2.20    9.80
   4  -1   9    1.30    6.60
  -4  -1  -9   -3.90    8.60
  -4  -1  -9   -6.80    6.30
  -4   1  -9    4.70    7.70
   4   1   9   -0.60    7.90
  -4   1  -9   -9.70    7.70
   4   1   9    2.70    6.60
  -5  -1  -9   13.30    9.20
   5  -1   9   11.60   10.00
  -5  -1  -9    4.00   11.20
   5  -1   9   -1.60    8.80
   5  -1   9    0.40   14.60
  -5  -1  -9    5.10   11.20
   5   1   9   -0.30    8.70
  -5   1  -9  -16.80   10.50
  -5   1  -9    1.50   11.10
  -5   1  -9   -3.30   10.00
   5   1   9   13.00   10.90
   6  -1   9   18.30   12.70
   6  -1   9    0.90   12.70
  -6  -1  -9  -11.00   14.70
   6  -1   9    9.10   12.20
  -6  -1  -9    6.10   12.70
  -6  -1  -9   -8.00   13.10
  -6   1  -9   12.50   12.10
   6   1   9  -18.30   13.90
   6   1   9   -3.30   11.80
  -6   1  -9   20.80   14.60
   6   1   9   -3.10   12.90
   7  -2  -9    7.80   13.90
   7  -2  -9   21.20   17.20
   7  -2  -9   -3.70   13.10
  -7   2   9   18.40   14.40
   7   2  -9    8.40   14.50
   7   2  -9   12.10   14.80
   7   2  -9   -4.40   15.90
   6  -2  -9   15.50    9.00
   6  -2  -9    3.50   10.70
   6   2  -9    0.30    9.30
   6   2  -9   11.80   11.90
   6   2  -9    0.70   10.60
   6   2  -9   -3.70   10.40
  -6   2   9    0.90   11.60
   5  -2  -9  173.68   13.90
   5  -2  -9  167.98   14.40
   5  -2  -9  196.38   17.70
   5   2  -9  165.38   16.00
   5   2  -9  149.69   12.50
   5   2  -9  169.98   15.10
   5   2  -9  151.68   15.40
   4  -2  -9   21.60    5.20
   4  -2  -9   16.30    4.90
   4   2  -9   26.30    6.10
   4   2  -9   24.70    8.50
   4   2  -9   16.20    6.30
   4   2  -9   22.90    6.30
   3  -2  -9   19.60    5.60
   3  -2  -9   17.10    6.50
   3  -2  -9   14.10    3.50
   3  -2  -9   13.30    3.50
   3   2  -9    7.50    5.30
   3   2  -9    8.60    4.90
   3   2  -9    5.00    4.70
   3   2  -9    6.90    3.90
   2  -2  -9    2.50    2.30
   2  -2  -9    1.60    2.20
   2  -2  -9    0.80    3.70
   2   2  -9    0.20    2.30
   2   2  -9   -3.00    5.90
   2   2  -9    1.40    2.20
   2   2  -9    1.90    4.00
   2   2  -9    8.70    4.30
   1  -2  -9  352.96   12.20
   1  -2  -9  338.77   13.20
   1  -2  -9  365.76   17.30
   1  -2  -9  337.97   12.00
   1   2  -9  343.27   14.80
   1   2  -9  360.66   15.10
   0  -2  -9   73.19    6.60
   0  -2  -9   79.59    6.00
   0  -2  -9   69.09    6.60
   0   2  -9   68.49    8.40
   0   2  -9   62.29    8.50
  -1  -2  -9  238.68   12.70
  -1  -2  -9  236.28   10.30
   1  -2   9  246.28    9.90
   1  -2   9  241.88    9.40
  -1  -2  -9  239.08   12.40
   1  -2   9  242.48    9.80
   1   2   9  224.88   15.50
  -1   2  -9  233.98   14.20
  -1   2  -9  224.68   14.50
  -2  -2  -9  128.19   12.80
  -2  -2  -9  130.89   11.20
  -2  -2  -9  129.39    8.80
   2  -2   9  131.79   10.30
   2  -2   9  119.89   10.10
   2  -2   9  125.29    9.10
  -2  -2  -9  142.09   11.90
  -2   2  -9  141.79   12.90
   2   2   9  146.29   14.20
   2   2   9  139.09    6.80
   2   2   9  133.29    6.80
   3  -2   9   12.90    5.60
   3  -2   9   12.10    6.40
  -3  -2  -9   15.40    7.70
  -3  -2  -9    0.50    4.80
  -3  -2  -9    9.50    7.90
  -3  -2  -9    3.30    7.90
   3  -2   9    9.60    6.30
   3   2   9   13.20    5.20
  -3   2  -9    9.80    8.00
   3   2   9    3.20    4.70
   4  -2   9    6.20    7.10
   4  -2   9   -5.20    7.80
  -4  -2  -9    9.80    9.30
  -4  -2  -9    0.10    9.70
   4  -2   9  -12.10    7.10
  -4  -2  -9   10.10    9.20
  -4  -2  -9    3.70    7.10
   4   2   9   -6.70    6.80
  -4   2  -9    7.40    8.20
  -4   2  -9   14.50    9.70
  -4   2  -9    6.70    9.50
   5  -2   9   12.90   10.20
  -5  -2  -9    1.60   11.80
   5  -2   9    7.80    9.00
  -5  -2  -9   12.60   13.10
   5  -2   9    4.10   10.10
  -5  -2  -9   10.60   11.90
   5   2   9   -7.10   10.40
  -5   2  -9   -3.50   10.90
  -5   2  -9  -19.90   11.30
  -5   2  -9    9.10   11.70
   6  -2   9   12.30   14.30
  -6  -2  -9   12.30   12.40
   6  -2   9   -0.10   12.40
  -6  -2  -9   11.50   17.10
   6  -2   9    7.70   13.20
  -6  -2  -9  -28.90   15.90
   6   2   9  -12.60   12.60
  -6   2  -9   14.80   13.90
   6   2   9  -14.10   14.30
   6   2   9    6.50   12.10
  -6   2  -9   -5.70   15.70
  -6   2  -9   13.00   14.30
   6  -3  -9   11.40   11.50
   6  -3  -9   12.10   12.60
   6  -3  -9   34.60   11.90
   6   3  -9   45.70   14.90
   6   3  -9   19.70   12.40
   6   3  -9   33.90   12.60
   5  -3  -9   49.20   10.30
   5  -3  -9   23.80    8.70
   5   3  -9   53.99   12.60
   5   3  -9   25.20    8.50
   5   3  -9   31.70    9.60
   5   3  -9   30.00   10.40
  -5   3   9   17.00    8.90
   4  -3  -9  138.69   12.90
   4  -3  -9  117.79   12.00
   4  -3  -9  122.39   12.30
   4   3  -9  118.79   15.30
   4   3  -9   92.29   13.50
   4   3  -9  135.09   14.10
   4   3  -9  126.59   10.80
   3  -3  -9   45.90    8.50
   3  -3  -9   40.30    6.40
   3  -3  -9   30.80    5.70
   3  -3  -9   46.70    6.10
   3   3  -9   37.50    7.20
   3   3  -9   41.40   10.00
   3   3  -9   48.60    5.70
   3   3  -9   43.00    7.60
   2  -3  -9  218.38   11.30
   2  -3  -9  227.28   11.40
   2  -3  -9  214.08   10.10
   2  -3  -9  234.18   16.80
   2   3  -9  206.18   13.90
   2   3  -9  207.68   13.90
   1  -3  -9  278.97   13.20
   1  -3  -9  302.87    9.60
   1  -3  -9  303.37   17.80
   1  -3  -9  301.87   13.50
   1   3  -9  292.97   15.30
   1   3  -9  273.87   15.30
   0  -3   9   -1.00    2.90
   0  -3  -9   -1.20    4.10
   0  -3  -9   -3.40    4.30
   0  -3   9    0.20    3.00
   0  -3  -9   12.40    6.90
   0   3  -9    5.30    5.60
   0   3  -9    4.20    5.70
  -1  -3  -9   28.50    7.80
  -1  -3  -9   27.10    2.30
   1  -3   9   35.90    5.90
  -1  -3  -9   16.50    5.70
  -1  -3  -9   20.40    6.00
   1  -3   9   26.10    5.20
   1   3   9   37.60    7.40
  -1   3  -9   21.30    6.70
  -2  -3  -9    9.10    6.70
   2  -3   9   17.40    6.30
   2  -3   9    8.40    5.70
   2  -3   9    6.10    3.60
  -2  -3  -9    8.70    3.30
  -2  -3  -9   16.50    7.80
   2   3   9   15.10    3.70
   2   3   9   12.90    8.40
  -2   3  -9   29.40    8.10
   2   3   9    6.20    3.40
  -2   3  -9    5.40    7.40
  -3  -3  -9  -10.80    7.40
   3  -3   9   -2.50    4.70
  -3  -3  -9    2.20    4.50
  -3  -3  -9    7.30    8.70
   3  -3   9   -1.00    7.00
  -3  -3  -9   -9.10    7.90
   3   3   9   -1.40    4.90
   3   3   9   -2.90    5.30
  -3   3  -9   -9.70    7.70
  -4  -3  -9    3.50   10.90
   4  -3   9    6.00    7.00
  -4  -3  -9   -0.10   10.10
   4  -3   9   22.80   11.90
  -4  -3  -9    8.80    6.80
  -4  -3  -9    0.40   10.90
   4   3   9   15.50   12.30
  -4   3  -9   24.50   10.50
  -4   3  -9  -10.20    9.50
   4   3   9   20.90    8.40
  -4   3  -9   34.60   11.60
  -5  -3  -9   16.70   13.40
   5  -3   9   -2.00   12.80
   5  -3   9   19.00    9.50
  -5  -3  -9   14.40   14.30
   5  -3   9   -1.20   12.80
  -5  -3  -9   49.50   14.30
  -5  -3  -9   12.70    9.90
  -5   3  -9   12.00   14.00
  -5   3  -9   19.20   13.20
   5   3   9    6.50   10.40
  -5   3  -9   -1.00   12.80
   5   3   9   19.40   14.30
   5   3   9   16.40    9.50
   6  -4  -9   40.40   12.90
   6  -4  -9   19.20   13.50
   6  -4  -9   26.50   12.40
   6   4  -9   65.29   17.30
   6   4  -9   18.70   13.90
   6   4  -9   37.70   16.00
   6   4  -9   37.80   14.40
   5  -4  -9   10.90    9.20
   5  -4  -9    8.20    9.80
   5  -4  -9   10.60    9.80
  -5  -4   9   13.70    3.70
  -5   4   9   24.20    9.30
   5   4  -9    7.20    8.40
   5   4  -9   -1.50   12.60
   5   4  -9   27.70   12.60
   5   4  -9    9.80   12.10
   4  -4  -9   15.60    6.90
   4  -4  -9    7.90   11.50
  -4  -4   9    3.80    3.00
  -4  -4   9   11.70    3.80
   4  -4  -9   12.20    7.80
  -4   4   9    7.50    6.50
   4   4  -9   14.10   10.00
   4   4  -9   14.30   11.10
   4   4  -9    3.80    5.50
   4   4  -9   16.40   10.50
   3  -4  -9    2.00    6.50
  -3  -4   9    2.60    3.80
   3  -4  -9   20.00    9.40
   3  -4  -9   -1.80    5.80
  -3  -4   9    7.30    3.50
   3  -4  -9    1.30    4.60
   3   4  -9    3.60    8.50
   3   4  -9   -1.10    6.70
  -2  -4   9   74.29    7.40
   2  -4  -9   69.09    8.20
   2  -4  -9   90.49   10.60
   2  -4  -9   54.29   11.40
  -2  -4   9   77.09    7.60
   2   4  -9   65.89    9.80
  -1  -4   9    2.70    4.20
  -1  -4   9    1.80    4.10
   1  -4  -9    1.40    5.80
   1  -4  -9    7.30   11.40
   1  -4  -9    1.50    5.30
   1   4  -9    0.10    7.10
   0  -4  -9   21.60    6.70
   0  -4   9   15.20    5.40
   0  -4   9   21.70    5.80
   0  -4  -9   31.40    7.20
   0   4  -9   31.90    8.40
   0   4  -9   28.70    7.60
   1  -4   9   42.00    7.40
  -1  -4  -9   30.50    8.00
   1  -4   9   51.09    8.20
  -1  -4  -9   41.50   10.50
  -1   4  -9   28.90    9.00
   1   4   9   23.80   10.10
  -1   4  -9   40.90    9.60
   2  -4   9  330.47   19.20
  -2  -4  -9  377.26   23.70
   2  -4   9  337.47   12.70
  -2  -4  -9  369.06   20.80
  -2   4  -9  312.27   22.00
   2   4   9  350.66   14.80
   2   4   9  351.66   15.00
  -3  -4  -9   11.50   11.20
   3  -4   9   11.10    8.60
  -3  -4  -9   18.00    9.80
   3  -4   9   12.10    5.60
  -3  -4  -9    9.70    9.80
  -3  -4  -9   12.20    4.00
   3  -4   9   -3.30    9.60
  -3   4  -9    2.90   10.70
  -3   4  -9    0.50   10.30
   3   4   9   20.80    6.40
   3   4   9    8.60   11.20
   3   4   9   13.00    6.90
  -4  -4  -9   33.60   13.10
   4  -4   9   15.20    8.10
   4  -4   9   15.10   11.90
  -4  -4  -9   19.20    6.50
  -4  -4  -9   18.60   12.70
  -4  -4  -9   19.30   12.10
   4   4   9   28.70   13.70
   4   4   9   23.10    9.00
  -4   4  -9    1.40   13.00
  -4   4  -9   19.20   13.00
   4   4   9   10.20    9.60
  -4   4  -9    4.80   10.10
  -5  -4  -9   36.80   17.00
  -5  -4  -9    4.00   16.00
  -5  -4  -9    4.10    9.20
   5  -4   9   12.30   13.60
   5  -4   9   -2.60   10.10
  -5  -4  -9    5.40   16.10
   5  -4   9   28.20   16.70
   5   4   9    2.60   10.80
  -5   4  -9   14.70   14.60
  -5   4  -9  -12.60   16.10
  -5   4  -9  -23.40   15.30
   5   4   9  -19.20   17.00
  -5  -5   9    9.50    7.80
   5  -5  -9   23.80   13.30
  -5  -5   9   20.50    7.80
   5  -5  -9   14.30   17.00
   5  -5  -9   14.10   12.00
   5   5  -9   30.60   15.00
   5   5  -9   34.30   15.30
   5   5  -9   28.60   10.30
  -5   5   9   29.20   10.80
   5   5  -9   29.20   14.40
   4  -5  -9   15.40   10.60
  -4  -5   9    0.30    6.80
  -4  -5   9   -5.20    6.60
   4  -5  -9    1.10   10.30
   4  -5  -9   -8.40    9.80
   4   5  -9  -13.30   12.30
   4   5  -9   10.30    6.50
   4   5  -9   -7.20    9.80
   4   5  -9    3.90   12.20
   3  -5  -9  610.54   27.70
  -3  -5   9  558.64   23.20
   3  -5  -9  564.04   31.10
  -3  -5   9  619.94   23.90
   3  -5  -9  620.34   33.10
   3   5  -9  620.34   32.70
   3   5  -9  615.14   30.40
   3   5  -9  669.13   32.70
   2  -5  -9   43.00    9.30
  -2  -5   9   52.89    7.60
   2  -5  -9   71.39   13.00
  -2  -5   9   38.90    7.70
   2   5  -9   61.39   11.70
   2   5  -9   29.70   12.00
   1  -5  -9   -8.20    7.00
  -1  -5   9    3.00    6.70
   1  -5  -9    6.50    8.10
   1   5  -9   -5.90    8.90
   0  -5  -9   58.19    9.90
   0  -5  -9   53.89   12.10
   0  -5   9   35.60    8.20
   0  -5  -9   30.40    9.50
   0   5  -9   29.90   10.40
   0   5  -9   35.90   10.70
  -1  -5  -9   13.70    9.00
  -1  -5  -9   26.00    9.70
   1  -5   9   20.60    8.30
   1  -5   9   21.40    9.50
  -1  -5  -9   17.00   11.50
  -1   5  -9   33.50   10.80
   1   5   9   12.70   11.60
   1   5   9    8.10    3.40
  -1   5  -9    7.00   10.40
   1   5   9   16.30    4.00
   2  -5   9   48.40    5.40
  -2  -5  -9   36.10   11.40
  -2  -5  -9   39.80   13.00
   2  -5   9   43.60   12.40
   2  -5   9   43.90    5.40
  -2  -5  -9   27.80   11.70
   2   5   9   41.80    7.10
   2   5   9   33.10    6.70
  -2   5  -9   29.20   11.10
   2   5   9   63.39   12.00
  -2   5  -9   26.50   12.70
  -3  -5  -9    7.40   11.90
   3  -5   9   -1.70   12.00
  -3  -5  -9   11.90   10.20
   3  -5   9   14.60    6.30
  -3  -5  -9   13.80   13.00
  -3   5  -9   -0.80   13.70
   3   5   9    9.10   10.80
  -3   5  -9   34.30   14.40
   3   5   9   -7.80    8.50
   4  -5   9   17.60    9.10
  -4  -5  -9   70.29   16.50
  -4  -5  -9   31.70   15.30
   4  -5   9   21.70   14.00
   4  -5   9   32.90   15.00
  -4  -5  -9    7.00   14.40
  -4   5  -9    4.20   15.30
  -4   5  -9   61.99   16.80
  -4   5  -9   24.20   14.90
   4   5   9   11.00   16.90
   4  -6  -9  -26.80   16.60
   4  -6  -9   18.20   14.40
  -4  -6   9   25.10    9.90
  -4  -6   9   32.30   11.20
   4  -6  -9   10.20   15.30
   4   6  -9   27.10   16.90
   4   6  -9   12.30   15.50
   4   6  -9   20.20   15.90
   3  -6  -9  182.88   21.60
   3  -6  -9  180.18   23.50
   3  -6  -9  151.68   17.10
  -3  -6   9  174.88   18.60
  -3  -6   9  165.38   19.30
   3   6  -9  205.98   27.20
   3   6  -9  149.19   19.40
   3   6  -9  173.48   20.70
  -2  -6   9   64.49   11.30
  -2  -6   9   70.99   10.90
   2  -6  -9   82.69   15.40
   2  -6  -9   62.09   12.10
   2  -6  -9   22.60   14.10
   2   6  -9   59.39   12.90
   2   6  -9   91.09   16.30
   2   6  -9   47.30   14.30
  -1  -6   9   30.60    9.50
   1  -6  -9    7.70   11.10
  -1  -6   9   19.70    9.90
   1  -6  -9    4.40   11.20
   1  -6  -9    8.90   13.20
   1   6  -9  -18.90   12.00
   1   6  -9   14.00   13.80
   0  -6  -9  104.49   15.20
   0  -6  -9   57.29   13.10
   0  -6  -9   66.69   12.80
   0  -6   9   85.09   13.20
   0   6  -9   60.39   15.00
   0   6  -9  114.49   16.60
   1  -6   9  169.38   20.60
  -1  -6  -9   98.49   15.20
  -1  -6  -9  137.89   16.80
  -1  -6  -9  129.19   16.50
   1  -6   9  166.18   17.50
   1   6   9  125.39   11.40
  -1   6  -9  126.79   17.60
   1   6   9  149.19   12.20
  -1   6  -9  125.19   17.30
  -2  -6  -9    1.40   13.70
   2  -6   9  -29.90   13.90
  -2  -6  -9   -5.10   14.20
  -2  -6  -9   13.40   13.30
  -2   6  -9   23.00   15.10
   2   6   9  -21.40   11.70
  -2   6  -9    5.60   15.10
   2   6   9   11.50    8.30
   2   6   9   -8.80    7.70
  -3  -6  -9    9.70   16.30
   3  -6   9   29.80   17.40
   3  -6   9   40.40    7.90
  -3  -6  -9   37.40   18.00
   3  -6   9   51.79   15.10
   3  -6   9   37.70    7.60
  -3  -6  -9   31.90   17.20
  -3   6  -9   33.10   17.50
  -3   6  -9   59.39   18.90
   3   6   9   17.30   10.20
   3   6   9   43.70   11.70
   3   6   9    8.40   19.80
   1  -7  -9   22.40   18.50
   1  -7  -9    1.70   14.80
   1  -7  -9    6.00   15.40
  -1  -7   9    7.60   13.90
   1   7  -9   -6.00   17.60
   1   7  -9   -6.00   16.20
   0  -7  -9   -7.30   17.10
   0  -7  -9    0.40   13.40
   0  -7  -9   -4.60   14.90
   0  -7   9    3.50   14.70
   0  -7   9   -4.00   13.10
   0   7   9    5.60    5.00
   0   7   9    4.00    5.80
   0   7  -9   -7.20   18.40
   0   7  -9    5.90   16.30
   7   0 -10   22.00   12.50
   7   0 -10    3.60   16.20
   7   0 -10   -8.20   13.20
   6   0 -10   14.30    9.50
   6   0 -10   45.60   13.50
   5   0 -10    8.40    6.60
   5   0 -10   10.80    9.50
   4   0 -10  445.76   17.40
   4   0 -10  469.05   22.90
   4   0 -10  468.95   17.30
   3   0 -10   -0.20    2.60
   3   0 -10    0.10    2.60
   3   0 -10   -8.20    5.30
   2   0 -10    4.30    4.90
   2   0 -10    6.70    1.50
   2   0 -10    4.00    1.40
   1   0 -10    0.90    4.10
   1   0 -10    1.90    2.00
   1   0 -10   -0.70    1.80
   0   0 -10  377.96   14.00
   0   0 -10  369.56   13.90
   0   0 -10  365.36   15.80
  -1   0 -10   -3.50    4.50
  -1   0 -10   -3.80    4.00
   1   0  10  -10.50    4.00
  -1   0 -10    4.20    4.50
   2   0  10   35.00    6.50
  -2   0 -10   51.09    8.00
  -2   0 -10   39.00    7.20
  -2   0 -10   29.70    6.90
   3   0  10    7.90    6.60
  -3   0 -10  -12.10    6.60
   3   0  10    0.90    4.60
  -3   0 -10   -7.80    5.90
  -3   0 -10    4.20    7.30
   3   0  10   -3.50    4.60
   4   0  10   60.09    8.90
  -4   0 -10   79.29   11.80
  -4   0 -10   59.49   11.80
   4   0  10   39.30    9.20
  -4   0 -10   57.89   10.10
   4   0  10   42.60   12.00
  -5   0 -10   16.70   13.60
   5   0  10   -1.70    8.60
   5   0  10   13.90   16.40
   5   0  10  -16.30   12.10
  -5   0 -10    3.00   10.40
  -6   0 -10    0.20   14.10
   6   0  10    9.80   14.00
   6   0  10   14.60   14.80
  -6   0 -10   17.90   17.20
   6   0  10   25.20   13.10
  -6   0 -10   19.30   15.80
   6  -1 -10   -5.70   11.80
   6  -1 -10    5.60    9.10
   6   1 -10   19.30   12.90
   6   1 -10    9.40   15.60
   6   1 -10    3.10    8.70
   5  -1 -10    6.80   16.30
   5  -1 -10    7.70    6.00
   5  -1 -10    6.30    6.30
   5   1 -10    3.90    6.80
   5   1 -10    4.10    9.70
   5   1 -10    0.20    6.60
   4  -1 -10    0.20    4.10
   4  -1 -10    5.20    3.90
   4  -1 -10   -1.80    7.00
   4   1 -10    6.90    4.80
   4   1 -10    8.60    5.10
   3  -1 -10   -0.50    2.20
   3   1 -10   -9.80    4.40
   3   1 -10    0.50    3.50
   3   1 -10   -4.60    3.50
   2  -1 -10   87.39   10.00
   2  -1 -10  107.69    9.20
   2   1 -10   82.79    6.50
   2   1 -10   92.39    6.80
   2   1 -10  101.19    8.10
   1  -1 -10   13.60    4.90
   1  -1 -10   14.50    2.00
   1  -1 -10   14.30    2.00
   1  -1 -10   16.50    5.60
   1   1 -10   15.50    3.50
   1   1 -10   19.10    3.70
   1   1 -10   17.20    3.70
   0  -1 -10  367.76   16.80
   0  -1 -10  365.46   13.60
   0  -1 -10  365.66   13.40
   0   1 -10  346.87   13.50
   0   1 -10  340.07   14.50
   0   1 -10  367.76   15.10
  -1  -1 -10  145.99   11.50
  -1  -1 -10  123.69    9.80
   1  -1  10  128.49    9.00
  -1  -1 -10  120.39   10.60
  -1   1 -10  155.48   11.20
   1   1  10  136.89   12.60
  -1   1 -10  128.29   10.50
  -1   1 -10  127.19    9.10
   2  -1  10   28.50    6.00
   2  -1  10   31.30    3.90
  -2  -1 -10   18.50    5.90
   2  -1  10   23.80    3.40
  -2  -1 -10   19.60    5.90
  -2  -1 -10   28.70    6.90
   2   1  10   21.10    6.90
  -2   1 -10   21.20    7.00
   3  -1  10   29.70    6.40
  -3  -1 -10   13.30    7.70
   3  -1  10   17.20    6.60
  -3  -1 -10   21.80    6.50
  -3  -1 -10   21.70    8.10
   3  -1  10   25.70    5.70
  -3   1 -10   24.90    9.60
   3   1  10   16.70    7.80
  -3   1 -10   20.10    7.90
   3   1  10   14.00    4.60
  -3   1 -10    8.50    9.30
   3   1  10   23.40    4.80
   4  -1  10    0.50    7.10
  -4  -1 -10    1.40    9.10
  -4  -1 -10   23.20   10.60
   4  -1  10   20.10    8.10
  -4  -1 -10   11.10    8.30
  -4  -1 -10    6.20    8.90
  -4   1 -10    9.50    9.40
  -4   1 -10   10.90    8.60
  -4   1 -10   -7.60    9.50
   4   1  10   -0.70    6.70
   4   1  10    1.30    8.90
  -5  -1 -10   16.20   13.30
  -5  -1 -10   35.40   14.00
  -5  -1 -10   28.20   10.50
   5  -1  10   41.20   16.70
   5  -1  10   33.60   10.90
  -5   1 -10   19.40   10.70
   5   1  10   33.60   12.70
  -5   1 -10   37.20   13.40
  -5   1 -10   29.20   12.80
   5   1  10   28.70   11.20
   5   1  10   48.30   10.80
  -6  -1 -10   -0.60   17.50
   6  -1  10    3.20   14.30
   6  -1  10   -2.50   12.80
  -6  -1 -10  -11.20   13.70
  -6  -1 -10    7.50   17.60
   6  -1  10    7.40   13.70
   6   1  10   -8.70   12.50
  -6   1 -10    0.70   15.20
   6   1  10    4.30   15.70
  -6   1 -10   -3.50   16.50
   6   1  10    0.00   14.10
   6  -2 -10  109.79   15.30
   6  -2 -10  129.09   16.90
   6   2 -10   86.69   20.80
   6   2 -10   69.39   12.50
   6   2 -10   73.99   13.70
   6   2 -10   60.49   15.70
   5  -2 -10   -5.10    6.70
   5  -2 -10   -6.70    9.20
   5  -2 -10    2.20    6.40
   5   2 -10   -5.60    8.00
   5   2 -10    0.80    7.50
   5   2 -10   13.60   11.40
   4  -2 -10   29.10    5.60
   4  -2 -10   29.50    5.50
   4   2 -10   33.10    7.50
   4   2 -10   28.10    6.40
   4   2 -10   30.00    9.80
   4   2 -10   36.40    7.10
   3  -2 -10   97.99   11.30
   3  -2 -10  103.39   13.40
   3  -2 -10   95.19    7.30
   3  -2 -10  110.39    7.40
   3   2 -10   96.99   13.10
   3   2 -10   90.19   10.30
   3   2 -10  109.79   11.00
   3   2 -10   91.59    8.10
   2  -2 -10  170.68    7.50
   2  -2 -10  163.18    7.50
   2  -2 -10  187.18   11.20
   2   2 -10  164.08    7.00
   2   2 -10  178.48   11.40
   2   2 -10  170.98    6.70
   2   2 -10  170.18   10.90
   2   2 -10  169.08   12.90
   1  -2 -10  167.08    9.50
   1  -2 -10  157.08    8.00
   1  -2 -10  154.98    7.90
   1   2 -10  167.48   11.00
   1   2 -10  161.68   11.20
   0  -2 -10  202.38   10.70
   0  -2 -10  222.78   10.30
   0  -2 -10  240.18   11.10
   0   2 -10  219.38   13.20
   0   2 -10  198.68   12.80
   1  -2  10   40.70    5.10
  -1  -2 -10   40.70    6.60
  -1  -2 -10   47.00    5.30
  -1  -2 -10   39.40    6.00
  -1   2 -10   42.10    8.00
   1   2  10   39.60    8.20
  -1   2 -10   49.99    7.70
   2  -2  10   26.70    5.10
  -2  -2 -10   23.80    7.30
   2  -2  10   25.30    5.10
  -2  -2 -10   26.80    7.00
  -2  -2 -10   32.20    5.30
   2  -2  10   27.90    5.00
   2   2  10   17.10    7.90
  -2   2 -10   16.60    7.20
   3  -2  10   21.50    6.80
   3  -2  10   39.70    7.60
   3  -2  10   17.30    6.20
  -3  -2 -10   22.10    6.30
  -3  -2 -10   38.40    9.70
   3   2  10   16.80    9.30
   3   2  10   23.70    5.00
  -3   2 -10   30.10    9.90
   3   2  10   25.30    5.50
  -3   2 -10   26.30    9.40
  -4  -2 -10   82.49   13.40
   4  -2  10  117.39   13.00
   4  -2  10   89.19   11.40
  -4  -2 -10  101.89   10.90
  -4  -2 -10  102.59   14.90
   4  -2  10   78.19   10.80
  -4  -2 -10  114.19   14.10
  -4   2 -10   63.89   13.00
   4   2  10   96.49   13.30
   4   2  10  135.59   12.40
  -4   2 -10   91.29   14.20
  -4   2 -10   73.39   12.30
  -5  -2 -10   19.80   15.30
   5  -2  10    9.80   10.90
  -5  -2 -10   22.00   10.90
  -5  -2 -10   27.10   13.60
   5  -2  10   17.00   11.90
   5  -2  10   26.70   10.50
  -5  -2 -10    8.30   13.50
   5   2  10   32.10   10.30
  -5   2 -10   34.60   15.00
   5   2  10   44.50   13.80
   5   2  10   23.50   13.60
  -5   2 -10   11.20   14.00
  -5   2 -10   18.10   11.80
   6  -3 -10   15.60   11.90
   6  -3 -10    9.80   11.30
   6  -3 -10   16.40   13.00
  -6   3  10    9.60   11.80
   6   3 -10  -33.00   13.60
   6   3 -10   10.50   11.90
   6   3 -10   -0.10   12.70
   6   3 -10    9.90   13.50
   5  -3 -10   32.40    8.80
   5  -3 -10   51.89   11.70
   5   3 -10   22.60    8.70
   5   3 -10   25.10   10.40
   5   3 -10   31.40   11.10
   5   3 -10   16.50   10.00
   4  -3 -10   19.60   10.90
   3  -3 -10   47.00    6.50
   3  -3 -10   55.69    6.40
   3  -3 -10   30.70   11.80
   3  -3 -10   52.79    6.90
   3   3 -10   50.19   11.10
   3   3 -10   50.19    8.50
   3   3 -10   49.40    4.70
   3   3 -10   48.30    4.80
   2  -3 -10  219.78   17.60
   2  -3 -10  241.48   12.20
   2  -3 -10  222.18   11.60
   2  -3 -10  233.98   11.10
   2   3 -10  243.58   16.30
   2   3 -10  249.08   15.40
   2   3 -10  234.48   15.10
   1  -3 -10   73.59    8.70
   1  -3 -10   67.59    8.30
   1  -3 -10   70.69    5.00
   1  -3 -10   60.19   10.30
   1   3 -10   68.19    8.70
   1   3 -10   51.99    8.10
   0  -3 -10   11.10    5.10
   0  -3 -10    4.20    7.50
   0  -3 -10    3.30    4.70
   0   3 -10   -2.80    6.00
  -1  -3 -10   96.79   11.40
  -1  -3 -10   72.19    8.50
   1  -3  10   82.59    8.30
  -1  -3 -10   77.29   10.00
  -1  -3 -10   73.39    4.20
   1  -3  10   88.49    8.10
  -1  -3 -10   74.19    4.30
   1   3  10   59.69   10.70
  -1   3 -10   71.19    9.60
  -2  -3 -10   15.20    3.80
  -2  -3 -10    4.80    7.50
  -2  -3 -10   16.30    7.30
   2  -3  10   10.40    5.80
   2  -3  10    7.20    3.70
   2  -3  10   -1.80    6.10
  -2   3 -10   -1.60    7.90
   2   3  10    7.10    7.00
  -2   3 -10   29.70    8.80
  -3  -3 -10   65.99   11.90
  -3  -3 -10   65.29   11.50
  -3  -3 -10   54.99    7.00
   3  -3  10   46.00    7.10
  -3  -3 -10   53.59   12.30
   3  -3  10   53.19    9.50
   3   3  10   68.29    9.30
  -3   3 -10   46.70   11.20
  -3   3 -10   64.29   12.10
   3   3  10   49.60    6.70
  -4  -3 -10   29.60    8.20
  -4  -3 -10   30.00   11.80
   4  -3  10   32.70   14.00
   4  -3  10   25.90    8.50
  -4  -3 -10   50.99   14.10
  -4  -3 -10   19.40   12.40
  -4   3 -10    9.50   11.30
   4   3  10   29.40   10.70
   4   3  10   41.10    9.00
  -4   3 -10   25.30   12.20
  -4   3 -10   29.90   12.90
  -5  -3 -10   48.30   17.80
  -5  -3 -10   36.70   11.50
  -5  -3 -10   35.60   16.30
  -5  -3 -10   53.19   17.20
   5  -3  10   28.80   16.20
   5  -3  10   49.00   12.20
   5  -3  10   17.60   14.50
  -5   3 -10   76.99   16.90
   5   3  10   27.60   16.20
   5   3  10   42.90   18.40
  -5   3 -10   24.70   16.40
  -5   3 -10   19.70   15.80
   5  -4 -10  105.29   13.30
   5  -4 -10   84.79   14.80
   5  -4 -10   96.89   13.00
   5  -4 -10   99.19   12.10
   5   4 -10   91.29   14.60
   5   4 -10  110.99   14.40
   5   4 -10   63.99   14.10
   5   4 -10  109.09   14.40
   4  -4 -10    2.60    8.10
   4  -4 -10  -17.20   12.00
   4  -4 -10   14.60    7.20
   4   4 -10    0.00    9.70
   4   4 -10   -5.30    5.10
   4   4 -10    1.70    9.20
   3  -4 -10   20.50    7.10
   3  -4 -10   25.00    7.40
   3  -4 -10   29.00   12.00
   3  -4 -10   26.10    5.50
   3   4 -10   14.30    8.60
   3   4 -10   25.30    9.90
   3   4 -10   19.00    9.10
   2  -4 -10  409.46   24.60
   2  -4 -10  421.86   19.40
   2  -4 -10  382.86   18.40
   2   4 -10  408.36   24.00
   2   4 -10  386.86   23.20
   1  -4 -10   12.50   13.40
   1  -4 -10   24.40    7.00
  -1  -4  10   21.30    3.90
   1  -4 -10   18.80    6.50
  -1  -4  10   21.00    3.60
   1   4 -10   34.60    8.70
   1   4 -10   19.80    8.60
   0  -4  10   38.20    5.70
   0  -4 -10   54.69   11.60
   0  -4 -10   64.69    9.30
   0  -4  10   45.40    6.00
   0  -4 -10   51.19    8.50
   0   4 -10   55.39   10.30
  -1  -4 -10    1.40    9.50
   1  -4  10   -7.00    6.20
   1  -4  10   -8.50    5.50
  -1   4 -10    1.90    8.60
  -1   4 -10    4.00    8.40
  -2  -4 -10   48.80   11.70
   2  -4  10   44.40    9.00
  -2  -4 -10   40.80   10.40
  -2  -4 -10   37.40   10.30
   2  -4  10   52.39    4.60
  -2   4 -10   40.50   11.10
   2   4  10   47.10   10.60
   2   4  10   48.50    4.90
  -2   4 -10   37.20   11.90
   3  -4  10   -0.10   10.10
  -3  -4 -10   -0.50   10.20
  -3  -4 -10    7.40   11.30
  -3  -4 -10   10.40    3.70
   3  -4  10   16.70    9.60
  -3  -4 -10   22.20   12.10
   3  -4  10   12.40    5.70
  -3   4 -10   20.50   12.00
   3   4  10    8.70    6.40
   3   4  10   12.40    6.40
  -3   4 -10   28.10   13.20
   3   4  10    8.40   12.10
   4  -4  10    3.00   12.30
  -4  -4 -10   -3.90    6.40
   4  -4  10    5.80    8.30
  -4  -4 -10   13.20   12.80
  -4  -4 -10    6.90   14.20
  -4  -4 -10   -7.40   13.50
   4   4  10   21.00    8.20
  -4   4 -10  -22.00   11.90
   4   4  10   -0.30    9.30
   4   4  10  -18.00   15.20
  -4   4 -10   20.30   14.80
  -4   4 -10   25.30   14.50
   4  -5 -10   15.30   10.90
   4  -5 -10    6.90   11.20
   4  -5 -10   28.40   16.60
  -4  -5  10    9.60    4.20
   4   5 -10   22.80   14.80
   4   5 -10    5.80   13.00
   4   5 -10   19.10   15.20
   3  -5 -10   52.49   11.40
  -3  -5  10   43.90    5.80
   3  -5 -10   53.69   14.40
  -3  -5  10   40.10    6.10
   3   5 -10   58.79   14.00
   3   5 -10   42.40   14.10
   3   5 -10   49.30   13.60
  -2  -5  10    5.90    5.70
   2  -5 -10   10.00    8.50
   2  -5 -10    6.70   12.70
  -2  -5  10    8.20    5.90
   2   5 -10    6.20   10.90
   2   5 -10    4.00   12.10
  -1  -5  10  112.69   12.60
   1  -5 -10  135.99   16.50
  -1  -5  10  113.69   11.80
   1  -5 -10  158.38   19.90
   1   5 -10  121.59   15.90
   1   5 -10  110.39   14.20
   0  -5  10  122.89   13.30
   0  -5 -10  129.59   16.90
   0  -5 -10   89.69   12.30
   0   5 -10   97.59   14.00
   0   5 -10   93.69   14.20
  -1  -5 -10   -7.30    8.80
  -1  -5 -10    6.00   12.80
   1  -5  10    0.40    8.20
  -1  -5 -10    6.30   11.30
  -1   5 -10   -9.50   10.90
  -2  -5 -10  -11.50   10.80
   2  -5  10   22.70   11.60
  -2  -5 -10  -11.80   12.50
  -2  -5 -10    0.70   10.60
   2  -5  10   17.80   10.30
   2   5  10   32.30   13.90
   2   5  10    5.70    4.80
   2   5  10   -0.60    4.20
  -2   5 -10  -26.40   12.10
  -2   5 -10   -8.10   12.80
  -3  -5 -10   42.70   14.70
  -3  -5 -10   58.89   14.30
   3  -5  10   43.20   20.50
   3  -5  10   37.70    6.50
  -3  -5 -10   47.80   16.60
   3  -5  10   25.10   14.10
   3   5  10   36.00    8.90
  -3   5 -10   21.40   15.60
  -3   5 -10   40.50   15.70
   3   5  10   32.80   13.40
  -3  -6  10   33.30    9.80
   3  -6 -10   39.90   14.90
  -3  -6  10   31.90    9.70
   3  -6 -10   42.40   14.20
   3  -6 -10   25.20   13.70
   3   6 -10   11.30   12.40
   3   6 -10   84.09   19.30
   3   6 -10   15.90   16.10
   2  -6 -10  107.49   16.10
   2  -6 -10   85.39   14.70
  -2  -6  10   60.99   10.90
   2  -6 -10   96.29   17.30
   2   6 -10   69.99   16.60
   2   6 -10  126.59   20.00
   2   6 -10   92.39   16.80
  -1  -6  10   -1.20    9.80
   1  -6 -10   12.90   11.40
   1  -6 -10   23.40   15.00
   1  -6 -10   16.50   11.90
  -1  -6  10    4.80    8.70
   1   6 -10   29.70   15.80
   1   6 -10   -1.00   13.70
   0  -6 -10   -3.40   14.10
   0  -6  10    8.80   10.70
   0  -6  10   -1.90    9.70
   0  -6 -10  -11.40   11.90
   0  -6 -10   -0.10   12.50
   0   6 -10   -0.60   13.80
   0   6 -10   -3.60   13.70
   1  -6  10   12.40   12.90
  -1  -6 -10   -8.40   12.70
   1  -6  10   -6.20   11.20
  -1  -6 -10   15.30   13.70
  -1  -6 -10  -23.20   15.40
  -1   6 -10   -9.30   12.90
  -1   6 -10   -2.30   14.00
  -2  -6 -10    9.20   16.50
  -2  -6 -10    4.80   14.40
   2  -6  10   15.00   15.90
  -2  -6 -10  -26.10   14.70
  -2   6 -10   15.90   16.80
   2   6  10    0.30    6.90
   2   6  10    2.00    6.90
   2   6  10  -14.90   18.00
  -2   6 -10   43.50   18.10
   6   0 -11   -8.30    9.80
   6   0 -11    2.40   14.00
   5   0 -11   33.10   11.80
   5   0 -11   21.50    7.30
   4   0 -11   21.30   11.20
   4   0 -11   -0.40    4.40
   4   0 -11    3.00    4.30
   3   0 -11  153.78   13.10
   3   0 -11  108.39    6.60
   3   0 -11  118.59   13.70
   3   0 -11  111.19    6.60
   2   0 -11    5.60    5.80
   2   0 -11    1.70    1.80
   2   0 -11    1.30    1.80
   1   0 -11 2783.32   72.69
   1   0 -11 2703.23   72.49
   1   0 -11 2793.72   76.89
   0   0 -11   -5.90    4.40
   0   0 -11    2.50    3.60
   0   0 -11   -3.50    3.80
  -1   0 -11   20.90    5.70
   1   0  11   18.00    5.90
  -1   0 -11   19.70    6.40
  -1   0 -11   28.40    6.10
   2   0  11    8.30    6.30
  -2   0 -11   -8.70    5.80
  -2   0 -11   -6.90    6.20
  -3   0 -11  897.21   33.50
  -3   0 -11  854.71   38.20
   3   0  11  854.41   33.00
  -3   0 -11  870.51   34.30
  -3   0 -11  863.91   36.80
   4   0  11   -4.00    8.40
  -4   0 -11   17.30   11.20
  -4   0 -11    7.30   10.10
   4   0  11    4.80    7.20
  -4   0 -11   -4.30    9.10
   5   0  11  173.98   20.50
  -5   0 -11  205.38   26.20
  -5   0 -11  168.58   21.70
   5   0  11  174.78   22.20
   5   0  11  200.98   20.00
   6  -1 -11  136.39   17.20
   6  -1 -11   82.59   12.20
   6   1 -11   88.89   16.10
   6   1 -11   96.89   12.30
   6   1 -11   82.79   12.80
   5  -1 -11  108.89   12.90
   5  -1 -11  160.18   19.90
   5  -1 -11   91.59   12.60
   5   1 -11  119.09   13.70
   5   1 -11  114.19   15.40
   5   1 -11  100.49   11.00
   4  -1 -11   27.70    8.70
   4  -1 -11   31.30    5.20
   4  -1 -11   48.40    9.90
   4  -1 -11   33.00    5.10
   4   1 -11   37.20    6.20
   4   1 -11   25.70    6.30
   4   1 -11   23.60    9.70
   3  -1 -11    4.70    2.30
   3   1 -11   12.40    4.30
   3   1 -11    4.90    7.20
   3   1 -11    7.70    4.30
   3   1 -11   11.00    5.70
   2  -1 -11  177.78   12.70
   2   1 -11  169.38    9.00
   2   1 -11  157.28   13.90
   2   1 -11  171.98   10.70
   2   1 -11  164.08    9.10
   1  -1 -11  481.35   20.60
   1  -1 -11  479.75   14.50
   1  -1 -11  479.05   14.60
   1  -1 -11  445.06   19.30
   1   1 -11  487.75   17.30
   1   1 -11  485.55   17.00
   1   1 -11  476.85   17.00
   0  -1 -11  439.56   20.00
   0  -1 -11  412.06   15.70
   0  -1 -11  407.56   15.50
   0   1 -11  413.66   16.90
   0   1 -11  401.36   15.50
   0   1 -11  428.86   17.40
   1  -1  11   20.20    4.90
  -1  -1 -11   33.80    6.40
  -1  -1 -11   11.30    5.10
  -1   1 -11   11.70    5.70
  -1   1 -11   16.10    6.10
   1   1  11   12.30    6.50
  -1   1 -11   10.90    4.70
  -2  -1 -11   64.29    8.20
   2  -1  11   66.39    7.90
   2   1  11   66.19    9.70
  -2   1 -11   68.89    9.50
  -3  -1 -11   59.99   10.50
  -3  -1 -11   63.29   11.70
  -3  -1 -11   53.59    9.20
   3  -1  11   53.19    6.70
   3  -1  11   63.69    7.30
   3  -1  11   55.99    8.90
  -3   1 -11   62.59   10.90
   3   1  11   56.09   12.70
   3   1  11   70.19    7.20
  -3   1 -11   63.19   10.70
   3   1  11   54.89    6.30
  -3   1 -11   86.59   11.80
  -4  -1 -11   -5.80   11.60
  -4  -1 -11    7.90   11.00
   4  -1  11    3.00    9.50
   4  -1  11    4.50    7.70
  -4  -1 -11    5.00   10.40
  -4  -1 -11   -2.70    9.60
  -4   1 -11    8.50   11.20
   4   1  11    3.20    6.80
  -4   1 -11   13.40   11.40
  -4   1 -11   -5.20   10.00
   4   1  11   11.30    6.60
  -5  -1 -11   43.00   15.20
  -5  -1 -11   56.29   15.50
  -5  -1 -11   61.39   13.30
   5   1  11   70.29   11.10
  -5   1 -11   29.00   15.70
   5   1  11   69.39   12.50
   5   1  11   71.49   15.90
  -5   1 -11   30.20   14.20
  -5   1 -11   46.50   14.20
   6  -2 -11   -0.20   14.50
   6   2 -11   16.20   12.30
   6   2 -11   -7.90   11.80
   6   2 -11   -8.60   11.40
   5  -2 -11   -8.40    6.70
   5  -2 -11   -5.50    6.90
   5  -2 -11   19.00   16.50
   5   2 -11   -6.50    8.10
   5   2 -11   -4.90   12.40
   5   2 -11    5.90    8.90
   4  -2 -11  174.98   11.30
   4  -2 -11  171.08   18.00
   4  -2 -11  161.48   10.90
   4   2 -11  137.09   13.30
   4   2 -11  162.08   14.50
   4   2 -11  152.28   12.40
   4   2 -11  155.28   18.70
   3  -2 -11   46.70    6.30
   3  -2 -11   24.70    8.90
   3  -2 -11   44.60    7.80
   3  -2 -11   50.99    6.20
   3   2 -11   43.00    5.80
   3   2 -11   49.50    8.80
   3   2 -11   55.99    7.30
   3   2 -11   51.69    7.30
   3   2 -11   47.90    7.30
   2  -2 -11  642.94   19.20
   2  -2 -11  654.73   23.30
   2  -2 -11  689.93   28.30
   2  -2 -11  620.14   19.10
   2   2 -11  603.04   17.70
   2   2 -11  641.64   23.20
   2   2 -11  658.03   23.50
   2   2 -11  649.83   17.60
   1  -2 -11  628.04   26.50
   1  -2 -11  641.54   20.10
   1  -2 -11  654.63   22.00
   1  -2 -11  637.34   20.10
   1   2 -11  626.14   23.30
   1   2 -11  633.34   23.60
   0  -2 -11  117.29    9.00
   0  -2 -11  133.09   14.30
   0  -2 -11  130.09    9.60
   0  -2 -11  140.99   10.00
   0   2 -11  125.39   11.70
   0   2 -11  150.28   12.80
  -1  -2 -11    5.80    5.80
  -1  -2 -11    7.80    4.40
  -1  -2 -11    4.00    5.40
  -1  -2 -11    9.80    7.20
   1   2  11    6.40    7.40
  -1   2 -11    7.90    6.20
  -2  -2 -11  162.38   16.00
   2  -2  11  166.08    9.10
  -2  -2 -11  138.49   11.30
   2  -2  11  146.19    8.30
  -2  -2 -11  130.49   13.30
   2  -2  11  157.08   10.80
   2   2  11  148.19   16.20
  -2   2 -11  161.68   15.20
  -2   2 -11  162.48   17.50
  -3  -2 -11  133.89   12.90
  -3  -2 -11  151.88   18.20
   3  -2  11  132.29   12.30
  -3  -2 -11  152.18   17.60
  -3  -2 -11  167.98   18.40
   3  -2  11  129.69   13.00
   3  -2  11  129.49   12.80
  -3   2 -11  134.29   17.30
   3   2  11  138.29    7.60
  -3   2 -11  137.19   17.40
   3   2  11  121.39    7.30
  -4  -2 -11  192.08   21.60
   4  -2  11  190.98   17.90
  -4  -2 -11  158.48   17.00
  -4  -2 -11  195.78   22.90
   4  -2  11  179.88   17.80
  -4  -2 -11  165.78   23.00
   4  -2  11  183.58   18.30
  -4   2 -11  199.78   22.90
  -4   2 -11  210.38   24.10
   4   2  11  168.98   18.30
   4   2  11  174.88   14.20
  -4   2 -11  115.89   16.10
   4   2  11  166.58   14.70
   5  -2  11    7.60   11.80
  -5  -2 -11   -5.80   17.40
  -5  -2 -11    1.70   15.20
  -5  -2 -11   13.80   12.20
  -5  -2 -11   30.70   15.80
   5  -2  11   26.80   14.10
   5   2  11    8.00   15.10
  -5   2 -11   38.70   17.80
   5   2  11   17.80   11.10
   5   2  11   -0.10   10.20
  -5   2 -11   29.40   14.80
  -5   2 -11    1.70   15.00
   5  -3 -11    9.80   13.80
   5  -3 -11    7.00    8.70
   5  -3 -11    5.50   11.60
   5   3 -11   -0.50   12.80
   5   3 -11   14.40    8.40
   5   3 -11   -1.70   10.40
   5   3 -11   -0.50   11.20
   4  -3 -11   46.90    7.50
   4  -3 -11   41.80    7.60
   4  -3 -11   41.60   13.20
   4   3 -11   41.10    6.30
   4   3 -11   45.80   10.80
   4   3 -11   50.59   11.30
   3  -3 -11    0.50    5.70
   3  -3 -11   -8.50    4.80
   3  -3 -11    1.50    4.80
   3  -3 -11   -2.70   10.00
   3   3 -11   19.40   10.60
   3   3 -11   10.70    7.60
   2  -3 -11  244.18   11.80
   2  -3 -11  233.58   12.20
   2  -3 -11  256.17   12.70
   2  -3 -11  225.48   23.20
   2   3 -11  233.68   15.80
   2   3 -11  248.28   16.70
   2   3 -11  302.97   20.50
   1  -3 -11   28.10   10.70
   1  -3 -11   22.20    5.40
   1  -3 -11   28.00    5.50
   1  -3 -11   23.80    3.50
   1   3 -11   18.40    7.00
   0  -3 -11  360.76   10.80
   0  -3 -11  355.66   17.00
   0  -3 -11  372.26   17.20
   0  -3 -11  379.46   10.90
   0  -3 -11  358.36   25.10
   0   3 -11  365.66   19.30
  -1  -3 -11  535.95   23.20
  -1  -3 -11  518.95   15.60
  -1  -3 -11  491.25   22.30
  -1  -3 -11  521.55   29.20
  -1  -3 -11  512.05   15.50
  -1   3 -11  543.15   27.90
  -1   3 -11  570.54   25.40
   1   3  11  508.05   27.00
  -2  -3 -11    1.60    3.90
  -2  -3 -11   -3.70    7.60
  -2  -3 -11  -14.10    9.30
   2  -3  11    1.40    5.50
  -2  -3 -11    8.10    8.60
   2  -3  11    4.60    3.70
   2  -3  11    0.70    5.80
  -2   3 -11    2.30   14.20
  -2   3 -11    3.60    9.20
   3  -3  11   17.80    6.70
  -3  -3 -11    5.40   10.90
   3  -3  11   27.50    8.40
  -3  -3 -11   15.00    6.10
  -3  -3 -11   10.10   10.20
  -3  -3 -11   24.00   10.90
   3   3  11   15.20   11.00
  -3   3 -11   30.80   11.80
   3   3  11   11.70    4.00
   3   3  11   15.60    3.70
  -3   3 -11   15.00   11.20
   4  -3  11    9.50    9.00
   4  -3  11    6.50   11.80
  -4  -3 -11    8.20    8.30
  -4  -3 -11   39.20   15.40
  -4  -3 -11    2.90   13.40
  -4  -3 -11   17.20   13.00
   4  -3  11    5.80   11.00
  -4   3 -11   -2.50   13.10
   4   3  11   10.00   14.50
  -4   3 -11    6.30   14.00
   4   3  11    1.60    7.70
  -4   3 -11   18.00   13.80
   5  -4 -11   25.60   17.40
   5  -4 -11   19.10   11.00
   5  -4 -11  -11.10   10.40
   5  -4 -11   15.60   10.40
   5   4 -11    1.80    8.20
   5   4 -11    8.20   14.40
   5   4 -11   -1.10   14.30
   5   4 -11  -20.50   13.20
   4  -4 -11    5.40    8.60
   4  -4 -11   10.60   10.90
   4  -4 -11   -5.60    7.30
   4   4 -11  -26.00   10.70
   4   4 -11  -16.90   13.40
   4   4 -11   14.40   10.50
   3  -4 -11  215.78   12.10
   3  -4 -11  195.98   15.70
   3  -4 -11  196.78   18.80
   3  -4 -11  177.38   15.70
   3   4 -11  196.08   21.00
   3   4 -11  215.38   19.40
   3   4 -11  204.18   18.50
   2  -4 -11   34.20   12.40
   2  -4 -11   44.70    8.30
   2  -4 -11   29.90    7.40
   2   4 -11   34.60    9.80
   2   4 -11   46.20   10.40
   2   4 -11   22.30   10.10
   1  -4 -11    9.00    6.60
   1  -4 -11   -5.30   10.20
   1  -4 -11    0.50    6.50
   1   4 -11  -14.60    9.40
   1   4 -11    5.80    8.90
   0  -4 -11   15.50    7.10
   0  -4  11    4.20    3.30
   0  -4  11   -0.90    2.90
   0  -4 -11   -7.40    9.90
   0   4 -11    4.00    9.10
   0   4 -11    4.50    8.50
  -1  -4 -11   24.30   11.10
   1  -4  11   -0.80    5.20
   1  -4  11    5.90    5.80
  -1  -4 -11    6.90    8.30
  -1  -4 -11    5.40    8.10
  -1   4 -11    1.40   10.70
  -1   4 -11    1.20    9.20
   1   4  11   18.20   11.60
  -2  -4 -11   49.90   11.50
  -2  -4 -11   56.39   19.60
   2  -4  11   31.20    8.30
  -2  -4 -11   47.90   13.10
  -2   4 -11   17.70   11.70
   2   4  11   37.70   12.50
  -2   4 -11   64.29   13.60
  -3  -4 -11   51.89   13.80
   3  -4  11    4.10    9.40
  -3  -4 -11    8.20   13.40
   3  -4  11    3.50    5.80
  -3  -4 -11   15.00   11.90
   3  -4  11   50.59   12.00
  -3  -4 -11   16.40    3.40
  -3   4 -11    0.30   12.70
  -3   4 -11   17.70   13.60
   3   4  11    9.10    4.30
   3   4  11   33.80   14.10
   3   4  11   12.20    5.10
  -4  -4 -11   13.80   17.00
   4  -4  11   -8.80   14.10
   4  -4  11    1.50    8.80
   4  -4  11   14.50   15.50
  -4  -4 -11   15.00   15.60
  -4  -4 -11   50.29   19.20
  -4  -4 -11   10.90    6.90
  -4   4 -11   14.10   15.40
   4   4  11   31.00   18.20
  -4   4 -11    4.10   17.20
   4   4  11   30.00    9.60
  -4   4 -11   15.60   15.80
   4   4  11  -15.50    8.70
   4  -5 -11   -3.10   11.20
   4  -5 -11   31.10   17.70
   4  -5 -11    3.60   12.40
   4   5 -11  -24.80   13.80
   4   5 -11   23.90   17.20
   3  -5 -11   21.40   15.30
   3  -5 -11   12.70   10.50
   3   5 -11   24.50   14.80
   3   5 -11    0.00   12.10
   3   5 -11   21.60   14.60
   2  -5 -11   31.60   10.40
   2  -5 -11   46.90   14.70
   2   5 -11   30.10   11.20
   2   5 -11   -2.20   13.80
   2   5 -11    5.80   11.80
   1  -5 -11   25.00   13.60
   1  -5 -11   37.50   10.30
  -1  -5  11   25.20    5.40
  -1  -5  11   27.70    5.50
   1   5 -11   13.40   11.50
   1   5 -11   33.80   14.10
   0  -5 -11  -14.10    9.40
   0  -5 -11   -6.90    9.50
   0  -5 -11   11.70   10.40
   0  -5  11   -2.40    6.50
   0  -5  11   -6.90    6.60
   0   5 -11   -1.80   11.30
   0   5 -11   -3.40   11.50
  -1  -5 -11  287.67   23.40
   1  -5  11  280.37   18.50
  -1  -5 -11  299.77   23.60
  -1  -5 -11  271.07   26.40
  -1   5 -11  199.08   26.90
  -1   5 -11  277.57   26.30
  -2  -5 -11  123.59   17.70
  -2  -5 -11  101.19   14.80
  -2  -5 -11  110.69   15.30
   2  -5  11  150.68   19.20
   2  -5  11  129.79   14.90
  -2   5 -11  108.19   17.70
  -2   5 -11   93.49   17.00
   2   5  11  102.39   18.90
   3  -5  11    0.10    3.90
  -3  -5 -11   14.50   16.80
   3  -5  11   17.00   12.70
  -3  -5 -11  -34.20   15.90
   3  -5  11   44.30   15.80
  -3  -5 -11   -4.10   14.20
   3  -5  11    8.50    4.70
  -3   5 -11   20.30   17.70
   3   5  11   -2.30    5.50
   3   5  11  -18.00   17.40
   3   5  11   -4.90    6.30
  -3   5 -11    2.90   17.10
  -1  -6  11   15.30    9.30
   1  -6 -11   13.50   12.90
   1  -6 -11   -4.40   13.50
   1  -6 -11   -2.00   16.60
   1   6 -11   15.80   15.40
   1   6 -11   14.30   17.50
   0  -6 -11   16.60   13.30
   0  -6  11   25.70   10.60
   0  -6  11   12.40    9.70
   0  -6 -11   55.29   17.70
   0  -6 -11    8.30   15.10
   0   6 -11   17.00   15.80
   0   6 -11   28.80   17.40
  -1  -6 -11   -6.30   15.60
  -1  -6 -11  -21.20   14.50
  -1   6 -11  -15.60   16.30
  -1   6 -11   11.50   15.90
   5   0 -12    9.30    7.20
   5   0 -12    5.20   11.30
   4   0 -12  107.49    9.40
   4   0 -12  113.39    9.50
   4   0 -12  118.19   14.60
   3   0 -12   -1.90    7.10
   3   0 -12    1.10    3.00
   3   0 -12    4.20    3.00
   3   0 -12    0.90    7.70
   2   0 -12  145.89   14.70
   2   0 -12  150.78   13.00
   2   0 -12  162.88    6.90
   2   0 -12  172.48    6.90
   1   0 -12    4.90    3.20
   1   0 -12   13.60    5.90
   0   0 -12  150.68   12.10
   0   0 -12  188.18   11.20
   0   0 -12  184.08   10.90
  -1   0 -12    1.20    5.50
  -1   0 -12    1.40    6.10
   1   0  12   -3.30    5.90
  -1   0 -12   -4.70    6.10
   2   0  12   31.00    8.10
  -2   0 -12   26.30    8.00
  -3   0 -12   -5.60    9.40
  -3   0 -12   12.00    9.30
  -3   0 -12  -16.70    9.60
   3   0  12   -3.70    8.80
  -3   0 -12  -12.70    7.90
   4   0  12    5.20    7.40
  -4   0 -12   37.60   13.70
   4   0  12    9.50    7.10
  -4   0 -12   10.60   12.10
  -4   0 -12   16.30   10.70
  -5   0 -12  -11.70   16.20
  -5   0 -12   -1.70   13.70
   5   0  12    0.30   11.10
   5   0  12   -6.10   12.90
   5   0  12    5.30   10.40
   6  -1 -12    0.30   15.90
   6   1 -12    9.90   15.70
   5  -1 -12   -2.00    6.70
   5  -1 -12    0.60    6.70
   5  -1 -12  -20.30   11.30
   5   1 -12   13.40   13.10
   5   1 -12   12.70    7.80
   5   1 -12    7.20    8.10
   4  -1 -12   37.80    5.50
   4  -1 -12   61.89    8.10
   4  -1 -12   54.39   11.40
   4  -1 -12   59.89   12.00
   4   1 -12   69.09    9.80
   4   1 -12   38.60   11.40
   4   1 -12   48.70    7.00
   4   1 -12   47.10    7.10
   3  -1 -12   44.30    4.20
   3  -1 -12   62.99    9.30
   3  -1 -12   47.40    9.90
   3   1 -12   44.60    5.80
   3   1 -12   57.29    7.80
   3   1 -12   59.49   10.50
   3   1 -12   49.10    5.90
   2   1 -12    2.40    8.00
   2   1 -12    0.40    3.90
   2   1 -12    3.60    5.20
   2   1 -12   -0.60    3.80
   1  -1 -12    2.60    5.50
   1  -1 -12    2.00    2.80
   1  -1 -12   10.00    3.10
   1   1 -12    9.70    4.30
   1   1 -12   16.60    4.60
   1   1 -12   10.30    4.50
   0  -1 -12  285.07   13.10
   0  -1 -12  289.47   13.50
   0   1 -12  273.37   14.60
   0   1 -12  283.17   15.20
   0   1 -12  279.27   13.00
  -1  -1 -12  117.39   11.80
  -1  -1 -12  151.78   13.20
  -1   1 -12  110.89   12.50
   1   1  12  117.69   13.50
  -1   1 -12  146.39   13.70
  -1   1 -12  125.99   10.90
  -2  -1 -12  133.89   13.60
   2  -1  12  138.69   12.90
  -2  -1 -12  158.28   15.30
  -2   1 -12  148.19   16.50
   2   1  12  144.89   15.70
   3  -1  12   46.90    6.30
  -3  -1 -12   41.20   12.50
   3  -1  12   52.39    9.70
   3  -1  12   40.80    4.70
  -3  -1 -12   37.20    9.70
  -3   1 -12   37.60   11.40
   3   1  12   47.40   10.90
  -3   1 -12   33.60   17.60
  -3   1 -12   42.00   10.70
  -4  -1 -12   21.20   12.50
  -4  -1 -12   -1.70   10.20
   4  -1  12   29.70    8.70
  -4  -1 -12   31.10   14.60
   4  -1  12    9.90   10.60
  -4  -1 -12   34.60   13.60
   4  -1  12   15.10    8.00
   4   1  12    1.40    5.80
  -4   1 -12  -12.20   12.90
  -4   1 -12   12.20   11.90
   4   1  12    8.20    6.50
  -4   1 -12   31.70   13.30
   4   1  12   23.40   12.30
   5  -2 -12   38.80   14.50
   5  -2 -12    7.60    7.60
   5  -2 -12   12.60   11.90
   5  -2 -12   11.40    7.80
   5   2 -12  -28.20   13.60
   5   2 -12    4.50   10.80
   5   2 -12   15.50    9.30
   4  -2 -12    6.00    9.30
   4  -2 -12   13.10    5.10
   4  -2 -12   15.50    5.60
   4  -2 -12    7.30   11.70
   4   2 -12   16.00   11.40
   4   2 -12    4.30    6.50
   4   2 -12    1.70    7.60
   4   2 -12   21.80    7.20
   4   2 -12   19.50    7.30
   3  -2 -12   10.50    3.60
   3  -2 -12   14.50    3.80
   3   2 -12   14.60    6.30
   3   2 -12   17.10    8.90
   3   2 -12   26.60    7.10
   3   2 -12    8.80    4.30
   3   2 -12   11.70    4.70
   2  -2 -12   -1.20    2.90
   2  -2 -12   -1.60    2.70
   2  -2 -12    7.00    8.60
   2   2 -12   -4.20    5.30
   2   2 -12   -4.20    5.40
   2   2 -12    0.70    8.70
   1  -2 -12   62.19    9.50
   1  -2 -12   74.59    7.10
   1  -2 -12   79.19    7.30
   1  -2 -12   77.99    9.40
   1   2 -12   64.29    7.90
   1   2 -12   79.69   11.10
   0  -2 -12  408.36   21.70
   0  -2 -12  413.26   17.10
   0  -2 -12  405.76   16.90
   0  -2 -12  410.16   17.50
   0   2 -12  421.16   20.20
   0   2 -12  393.16   19.40
  -1  -2 -12   31.30    6.00
  -1  -2 -12   26.80    8.70
  -1  -2 -12   21.70    6.70
  -1  -2 -12   31.00    7.50
   1   2  12   28.30    9.20
  -1   2 -12   28.20    8.30
   2  -2  12    7.00    5.10
  -2  -2 -12   -0.20    7.70
  -2  -2 -12    4.20    6.00
  -2  -2 -12   10.20    9.60
  -2   2 -12   -1.60    8.40
  -2   2 -12    2.20    9.30
   2   2  12   -3.30    9.30
   3  -2  12    5.20    5.20
   3  -2  12   -8.70    5.90
  -3  -2 -12   -3.70   10.50
   3  -2  12   -5.60    6.80
  -3  -2 -12    5.00    7.50
  -3  -2 -12   12.50   10.40
  -3   2 -12   -8.70   10.70
   3   2  12    0.60   10.90
  -3   2 -12   -6.50   11.90
  -4  -2 -12   31.30   10.50
  -4  -2 -12   26.30   16.60
  -4  -2 -12   23.30   13.60
   4  -2  12   26.90   10.60
  -4  -2 -12   47.90   15.00
   4  -2  12   36.50   10.00
   4   2  12   13.10    5.50
  -4   2 -12   10.20   15.50
   4   2  12   23.50   14.00
  -4   2 -12   34.20   14.50
  -4   2 -12   54.09   14.10
   4   2  12   27.10    6.50
   5  -3 -12   -2.20   15.10
   5  -3 -12    0.70    8.90
   5  -3 -12  -38.10   14.90
   5   3 -12    8.00    8.40
   5   3 -12   -0.20   12.00
   5   3 -12   -3.60   15.30
   4  -3 -12   15.50    6.90
   4  -3 -12   33.80    7.40
   4  -3 -12   35.20   13.30
   4   3 -12   24.90    5.60
   4   3 -12   12.10   10.60
   4   3 -12   21.70    4.90
   4   3 -12   11.60   10.10
   3  -3 -12   58.39    8.20
   3  -3 -12   49.60   12.30
   3  -3 -12   53.79    6.80
   3  -3 -12   49.99    6.90
   3   3 -12   60.59   13.00
   3   3 -12   40.70    9.30
   2  -3 -12   -3.10    5.00
   2  -3 -12    2.20    4.70
   2  -3 -12   -3.00    9.80
   2  -3 -12    3.50    5.00
   2   3 -12   -1.80    7.30
   2   3 -12    2.10   10.70
   1  -3 -12   -1.50    3.40
   1  -3 -12   -2.10    4.90
   1  -3 -12    0.90    5.30
   1  -3 -12   10.30    9.40
   1   3 -12   -4.80    7.00
   0  -3 -12    6.70    2.90
   0  -3 -12   13.10    6.40
   0  -3 -12    9.70    2.70
   0  -3 -12   26.80   10.10
   0  -3 -12   13.90    6.40
   0   3 -12   16.30    8.50
  -1  -3 -12   47.30   11.70
  -1  -3 -12   52.19    9.10
  -1  -3 -12   55.09    5.60
  -1  -3 -12   61.29    5.80
  -1   3 -12   65.39   12.00
  -1   3 -12   66.89   11.20
  -2  -3 -12   -1.40    9.90
  -2  -3 -12   -1.00    4.50
   2  -3  12    2.00    3.80
  -2  -3 -12    3.20    9.00
   2  -3  12    5.30    4.90
  -2  -3 -12   -0.20   11.00
  -2   3 -12    6.60   10.70
   2   3  12   22.60   11.50
  -2   3 -12   -2.80    9.90
  -3  -3 -12   -5.10   13.40
  -3  -3 -12   11.30   12.00
   3  -3  12    5.90    6.60
  -3  -3 -12   11.80   15.40
   3  -3  12    8.10    7.60
   3  -3  12   30.90    8.20
  -3  -3 -12    6.50    6.70
  -3   3 -12  -12.30   12.50
   3   3  12   13.40   13.50
  -3   3 -12   -4.40   11.80
  -4  -3 -12   60.29   10.80
   4  -3  12   63.69   13.20
   4  -3  12   50.19   12.50
  -4  -3 -12   65.99   19.30
  -4  -3 -12   86.19   18.30
   4  -3  12   51.59   11.30
  -4  -3 -12   46.70   15.80
  -4   3 -12   42.50   17.40
  -4   3 -12   42.10   16.50
   4   3  12   49.10    6.80
   4   3  12   42.40    7.40
  -4   3 -12   58.89   17.60
   4   3  12   37.50   16.20
   4  -4 -12    4.10   15.80
   4  -4 -12    7.50    8.10
   4  -4 -12   -6.00    9.10
   4   4 -12   23.80   12.80
   4   4 -12    9.90   12.60
   4   4 -12    1.10   14.60
   3  -4 -12   12.80    7.90
   3  -4 -12   48.70   15.00
   3  -4 -12   26.10    5.80
   3  -4 -12   19.70    8.30
   3   4 -12   27.80   14.50
   3   4 -12    4.70   17.10
   3   4 -12   22.20   10.90
   2  -4 -12    4.30   11.00
   2  -4 -12   11.10    7.80
   2  -4 -12    7.20    7.00
   2   4 -12    6.40    9.60
   2   4 -12    6.70   12.20
   2   4 -12    1.10   10.70
   1  -4 -12   14.90    7.50
   1  -4 -12   21.90   11.30
   1  -4 -12   25.00    8.10
   1   4 -12   11.70   10.40
   1   4 -12    3.30    9.70
   0  -4 -12  214.38   17.30
   0  -4 -12  221.58   19.00
   0   4 -12  165.08   19.10
   1  -4  12    4.10    3.40
   1  -4  12   -1.40    4.00
  -1  -4 -12    5.30    9.90
  -1  -4 -12    4.00    9.90
  -1  -4 -12   10.80   11.50
  -1   4 -12   14.10   11.90
  -1   4 -12   -0.50   11.60
  -2  -4 -12   13.60   11.30
   2  -4  12   12.60    8.10
   2  -4  12    0.40    6.90
  -2  -4 -12    9.00   11.60
  -2  -4 -12   11.50   13.20
   2   4  12    2.70   13.50
  -2   4 -12    9.50   12.80
  -2   4 -12    0.90   12.80
  -3  -4 -12   25.10   15.90
   3  -4  12   -7.90    9.80
   3  -4  12   -0.50   10.90
  -3  -4 -12   23.10   15.70
  -3  -4 -12   -4.70   13.20
   3  -4  12    5.90    5.00
  -3   4 -12   -5.40   15.30
  -3   4 -12   -0.10   15.00
   3   4  12  -17.40   16.30
   3  -5 -12   -5.30   11.20
   3  -5 -12   27.60   16.20
   3  -5 -12   11.00   11.30
   3   5 -12   44.50   17.10
   3   5 -12   28.00   15.00
   3   5 -12  -12.50   13.00
   2  -5 -12    2.00   10.50
   2  -5 -12   10.00   12.20
   2   5 -12  -15.10   13.10
   2   5 -12   15.80   15.70
   2   5 -12  -20.30   14.80
   1  -5 -12    7.90   10.90
   1  -5 -12   14.20   15.70
   1  -5 -12   19.70   11.30
   1   5 -12   25.00   14.00
   1   5 -12    5.40   13.10
   0  -5 -12   19.70   11.70
   0  -5 -12   22.40   11.60
   0  -5 -12    6.00   13.80
   0  -5  12   30.40    5.40
   0  -5  12   12.40    4.50
   0   5 -12   18.30   13.90
   0   5 -12    0.70   13.30
   1  -5  12    6.50    8.00
  -1  -5 -12    8.10   13.40
  -1  -5 -12   18.20   12.80
  -1  -5 -12    7.00   14.70
   1  -5  12   12.60    8.20
  -1   5 -12   10.00   15.40
  -1   5 -12   26.00   14.50
  -2  -5 -12   48.20   15.20
   2  -5  12   48.90   11.00
  -2  -5 -12   77.89   18.90
  -2  -5 -12   70.29   17.20
   2   5  12   37.70   19.20
  -2   5 -12   51.09   18.50
  -2   5 -12   41.60   16.90
   5   0 -13   11.20   13.40
   4   0 -13  -12.70    4.80
   4   0 -13  -14.40   10.60
   4   0 -13    9.40    9.80
   4   0 -13   -8.40    4.70
   3   0 -13    3.20    3.20
   3   0 -13    4.70    3.30
   2   0 -13    0.90    6.70
   2   0 -13    2.10    2.90
   2   0 -13   19.20    8.30
   2   0 -13    0.80    2.80
   1   0 -13    7.30    4.00
   1   0 -13   17.40    7.70
   1   0 -13    6.00    3.90
   1   0 -13    6.80    6.40
   0   0 -13   -3.30    6.10
   0   0 -13   -1.60    5.30
   0   0 -13    3.90    5.20
  -1   0 -13    2.60    6.60
  -1   0 -13   23.40    7.40
  -1   0 -13    9.10    6.80
  -2   0 -13   -9.30    8.90
  -2   0 -13    2.20    9.50
   2   0  13   11.40    8.40
  -3   0 -13   34.30   12.20
  -3   0 -13   33.00   10.80
   3   0  13   13.30    9.60
  -3   0 -13   -7.60    9.80
  -4   0 -13    0.60   14.10
   4   0  13    3.50    4.40
  -4   0 -13   -2.40   12.00
   5  -1 -13   25.10   14.30
   5  -1 -13   14.00   14.40
   5  -1 -13   25.70    8.00
   5  -1 -13   46.00    7.90
   5   1 -13   41.50    9.20
   5   1 -13   24.30   15.90
   5   1 -13   36.10    9.50
   5   1 -13   21.20   11.40
   4  -1 -13   12.50   11.60
   4  -1 -13   -2.40    4.40
   4  -1 -13    5.90    4.50
   4  -1 -13    2.90   18.70
   4   1 -13    3.50    6.50
   4   1 -13    5.30   11.40
   4   1 -13    1.30    6.10
   3  -1 -13   16.50    2.40
   3  -1 -13   14.30    9.90
   3  -1 -13    5.10    9.40
   3   1 -13   16.00    7.30
   3   1 -13   15.70    5.30
   3   1 -13    8.40   10.30
   3   1 -13   18.30    5.30
   2   1 -13    6.10    5.10
   2   1 -13    2.40    9.10
   1  -1 -13   47.60    7.70
   1  -1 -13   30.00    4.50
   1  -1 -13   32.00    4.50
   1   1 -13   37.90    5.90
   1   1 -13   44.10    5.70
   1   1 -13   37.10    6.20
   0  -1 -13   20.00    5.50
   0  -1 -13   24.50    5.90
   0   1 -13   35.30    7.40
   0   1 -13   14.00    5.20
   0   1 -13   20.10    6.40
  -2  -1 -13   14.00    8.80
   2  -1  13    4.80    6.90
  -2  -1 -13   21.80    9.60
  -2  -1 -13    3.20    8.10
  -2   1 -13    7.90    9.60
   2   1  13    9.20    9.20
  -2   1 -13   -7.80    8.70
   3  -1  13   12.60    9.00
  -3  -1 -13    1.20   11.90
  -3  -1 -13   -4.50   11.40
  -3   1 -13   12.20   12.10
  -3   1 -13  -10.40   12.30
  -3   1 -13   -0.60   10.60
   4  -1  13    6.20    6.10
  -4  -1 -13   18.40   15.70
   4  -1  13   13.10   12.30
  -4  -1 -13    1.10   14.50
   4  -1  13   -5.30    7.10
  -4  -1 -13    6.80   14.00
  -4  -1 -13   -9.30   11.40
   4   1  13  -12.70   13.00
  -4   1 -13    9.40   14.30
  -4   1 -13  -15.20   13.60
  -4   1 -13   -3.40   15.40
   5  -2 -13   -7.20   14.50
   5  -2 -13    2.00    8.10
   5  -2 -13  -12.40    7.70
   5  -2 -13   -4.00   13.70
   5   2 -13   -6.70   15.70
   5   2 -13   -6.10    9.60
   4  -2 -13   -9.60    5.30
   4  -2 -13    2.20    5.20
   4  -2 -13    7.00   13.30
   4  -2 -13   14.50   10.90
   4   2 -13    4.20    6.60
   4   2 -13   15.60   13.30
   4   2 -13    8.90    7.60
   4   2 -13    7.10    7.80
   4   2 -13    5.40    8.30
   3  -2 -13   14.00   11.10
   3  -2 -13   24.70    4.00
   3  -2 -13   23.20    3.90
   3   2 -13   11.80    7.10
   3   2 -13   16.90    4.20
   3   2 -13   29.80   12.00
   3   2 -13   23.50    7.60
   3   2 -13   18.30    4.10
   2  -2 -13   15.80    7.50
   2  -2 -13   28.70   18.20
   2  -2 -13   20.70    3.80
   2  -2 -13   20.60    3.70
   2   2 -13   19.30    6.70
   2   2 -13   22.90    7.30
   2   2 -13   27.30   10.90
   1  -2 -13   65.09   12.40
   1  -2 -13   84.09   10.90
   1  -2 -13   61.79    8.10
   1  -2 -13   58.79    7.90
   1   2 -13   53.49    8.40
   1   2 -13   67.39    8.80
   0  -2 -13   97.09   13.00
   0  -2 -13   87.19   11.20
   0  -2 -13   82.89   11.00
   0  -2 -13  103.39   11.60
   0   2 -13  108.39   14.00
  -1  -2 -13   -0.20    6.00
  -1  -2 -13  -19.20   10.60
  -1  -2 -13    9.80    8.20
  -1  -2 -13   -0.70    7.60
  -1   2 -13    4.60    9.10
  -1   2 -13   -3.20    8.30
  -2  -2 -13   45.20   12.20
  -2  -2 -13   28.70   15.10
  -2  -2 -13   32.60   11.40
   2  -2  13   35.80    6.70
  -2  -2 -13   36.30    7.90
  -2   2 -13   30.20   11.30
  -3  -2 -13    4.90   11.80
  -3  -2 -13   18.00   13.20
  -3  -2 -13   -4.60   13.20
   3  -2  13   15.20    8.40
  -3  -2 -13   -1.30    8.60
  -3   2 -13    3.40   12.80
  -3   2 -13    3.10   13.80
   3   2  13   19.40   13.10
   4  -3 -13   68.69   16.60
   4  -3 -13   56.39    8.50
   4  -3 -13   75.89    8.80
   4   3 -13   75.39   12.50
   4   3 -13   92.59   13.60
   4   3 -13   43.50   13.50
   3  -3 -13   -5.00   12.50
   3  -3 -13    2.10    5.80
   3  -3 -13    1.80    5.60
   3  -3 -13   -9.30    7.10
   3   3 -13    6.50    9.30
   3   3 -13   -6.70   11.90
   2  -3 -13   17.10   11.50
   2  -3 -13   18.10    5.70
   2  -3 -13   12.20    5.70
   2  -3 -13   16.10    5.80
   2   3 -13   25.20    9.00
   2   3 -13   -0.90   11.60
   0  -3 -13   11.30    7.30
   0  -3 -13   -6.00   10.50
   0  -3 -13    3.60    3.20
   0  -3 -13   -1.40    7.10
   0  -3 -13    5.20    3.50
   0   3 -13    1.60   14.00
   0   3 -13   -3.40    8.70
  -1  -3 -13   46.90    4.70
  -1  -3 -13   59.09   10.10
  -1  -3 -13   45.80    6.10
  -1  -3 -13   56.69   12.50
  -1   3 -13   58.09   12.40
  -2  -3 -13   30.60   13.50
  -2  -3 -13   15.40    5.60
  -2  -3 -13   12.30   11.20
  -2  -3 -13   36.50   13.00
  -2   3 -13   36.90   13.10
  -2   3 -13   37.20   13.80
   2   3  13   42.40   14.10
  -3  -3 -13   42.10   13.80
   3  -3  13   42.60    7.90
   3  -3  13   20.20    6.20
  -3  -3 -13   39.60    8.10
   3  -3  13   35.30    7.40
  -3  -3 -13   49.10   16.40
  -3  -3 -13   49.70   16.70
   3   3  13   45.30   15.70
  -3   3 -13   12.90   14.40
  -3   3 -13   61.09   17.20
   3  -4 -13   22.40   15.60
   3  -4 -13   -1.60    8.50
   3  -4 -13    1.90    5.40
   3  -4 -13   -6.20    8.50
   3   4 -13  -28.50   15.30
   3   4 -13   -0.60   11.30
   3   4 -13    1.20   13.50
   2  -4 -13   23.50   14.30
   2  -4 -13   17.10    8.00
   2   4 -13   15.90   14.70
   2   4 -13    4.60   10.80
   1  -4 -13   -3.30   14.20
   1  -4 -13   10.00    8.40
   1  -4 -13    7.60    8.10
   1   4 -13   -4.10   11.20
   0  -4 -13  256.87   26.00
   0  -4 -13  280.97   20.30
   0   4 -13  244.58   25.80
   0   4 -13  270.87   24.10
  -1  -4 -13  100.99   13.60
  -1  -4 -13   71.59   15.80
  -1  -4 -13   93.39   14.40
  -1   4 -13  147.29   18.00
  -1   4 -13   86.59   15.10
   2  -4  13   11.50    6.20
  -2  -4 -13   31.20   15.50
  -2  -4 -13   10.00   13.20
  -2  -4 -13   11.90   14.80
   2  -4  13    7.10    5.50
  -2   4 -13   23.00   16.00
  -2   4 -13   39.50   16.70
   2   4  13   16.00   16.90
   4   0 -14   38.80    6.30
   4   0 -14   42.10   11.80
   4   0 -14   39.20    6.20
   4   0 -14   53.39   14.90
   3   0 -14   -2.40   10.30
   3   0 -14    2.90    3.70
   3   0 -14    0.10    3.50
   2   0 -14   54.59    6.90
   2   0 -14   34.80    4.40
   2   0 -14   -4.90   19.60
   1   0 -14   -4.80    4.50
   1   0 -14    2.70    4.70
   1   0 -14    8.90    7.30
   1   0 -14    9.00    8.90
   0   0 -14  187.18   15.40
   0   0 -14  157.18   13.10
   0   0 -14  146.89   13.20
  -1   0 -14   -1.40    7.90
  -2   0 -14   -5.80   10.20
  -2   0 -14   23.40   11.00
   2   0  14   -0.50    9.60
  -2   0 -14   10.40   10.50
   3   0  14   18.20   12.00
  -3   0 -14   -1.10   11.40
  -3   0 -14   -6.60   11.80
  -3   0 -14   -4.30   13.40
   4  -1 -14    1.80    4.60
   4  -1 -14   28.30   13.40
   4  -1 -14    8.70    4.80
   4  -1 -14   18.40   13.30
   4   1 -14   -5.30    6.80
   4   1 -14    7.20    6.90
   4   1 -14    9.60   13.80
   3  -1 -14    3.80   11.70
   3  -1 -14    1.70   10.90
   3   1 -14   15.70    6.10
   3   1 -14   15.90    5.90
   3   1 -14    9.70   12.50
   3   1 -14   -0.20    7.50
   2  -1 -14   29.60    9.40
   2  -1 -14   41.80   10.40
   2  -1 -14   41.50    4.60
   2   1 -14   33.00    6.10
   2   1 -14   19.60    5.80
   2   1 -14   21.40    6.50
   2   1 -14   44.10   11.80
   1  -1 -14    1.00    4.50
   1  -1 -14    6.80    7.80
   1   1 -14    7.90    5.40
   1   1 -14    6.90    5.80
   1   1 -14    1.10    6.00
   0  -1 -14  170.28   15.00
   0  -1 -14  162.38   13.60
   0  -1 -14  148.39   17.00
   0   1 -14  139.09   11.40
   0   1 -14  130.59   15.10
   0   1 -14  149.29   14.20
  -2  -1 -14   11.50   11.00
   2  -1  14   16.00    8.30
  -2  -1 -14    9.70   13.10
  -2  -1 -14    4.90   10.40
  -2   1 -14    3.60   10.10
   2   1  14   20.90   10.80
  -2   1 -14  -11.40   15.70
  -3  -1 -14  -21.50   12.60
  -3  -1 -14    8.50   11.00
  -3  -1 -14    5.40   14.50
  -3  -1 -14   10.40   14.40
   3  -1  14    9.20   10.60
  -3   1 -14   -5.70   14.40
   3   1  14    9.30   12.20
  -3   1 -14  -10.50   13.70
  -3   1 -14   15.70   14.00
   4  -2 -14   -0.20    5.40
   4  -2 -14   -2.60   13.70
   4  -2 -14  -37.70   19.40
   4  -2 -14    9.30    5.40
   4   2 -14    1.70   15.40
   4   2 -14    3.40    7.50
   4   2 -14   -3.70    6.70
   4   2 -14   -9.10    9.30
   3  -2 -14   39.70    4.70
   3  -2 -14   -5.40   13.00
   3  -2 -14   50.99   10.30
   3  -2 -14   37.80    4.20
   3   2 -14   31.30    8.90
   3   2 -14   20.00   14.20
   3   2 -14   38.40    8.80
   2  -2 -14   -9.90   11.10
   2  -2 -14    9.00    3.70
   2  -2 -14    8.60    3.90
   2   2 -14  -19.20   11.90
   2   2 -14  -14.80    7.30
   2   2 -14    8.50    7.40
   1  -2 -14   65.69   12.00
   1  -2 -14   59.49    6.60
   1  -2 -14   52.39    8.50
   1  -2 -14   94.99   10.00
   1   2 -14   61.29    9.70
   1   2 -14   74.89    9.80
   0  -2 -14   12.50    7.40
   0  -2 -14    2.10    6.70
   0  -2 -14   10.00    7.00
   0  -2 -14   20.30   10.40
   0   2 -14   -1.10    9.00
  -1  -2 -14   38.60   12.30
  -1  -2 -14   45.40    8.50
  -1  -2 -14   27.50    9.40
  -1   2 -14   45.40   11.70
  -1   2 -14   36.20   11.10
  -2  -2 -14    1.80   12.20
  -2  -2 -14   13.20    8.60
  -2  -2 -14   20.60   13.00
  -2  -2 -14   15.10   11.50
   2   2  14    9.70   13.20
  -2   2 -14   -4.40   11.70
  -2   2 -14   -2.80   13.50
   3  -3 -14   16.70    6.70
   3  -3 -14   17.30    8.70
   3  -3 -14    7.60   14.40
   3   3 -14   15.10   16.00
   3   3 -14   14.90   11.30
   2  -3 -14   35.80    6.70
   2  -3 -14   23.30    6.90
   2  -3 -14   38.70   13.80
   2  -3 -14   22.40    7.00
   2   3 -14   16.20   14.50
   1  -3 -14   18.60   13.00
   1  -3 -14   30.00    7.50
   1  -3 -14   23.60    7.20
   1  -3 -14   18.40    5.30
   1   3 -14   38.30   16.80
   1   3 -14   30.50   10.10
   0  -3 -14   13.40    4.30
   0  -3 -14   13.70   12.80
   0  -3 -14    2.70    9.10
   0  -3 -14   14.80    8.60
   0   3 -14    6.90   10.60
   0   3 -14   27.10   11.70
  -1  -3 -14   11.80   13.30
  -1  -3 -14    4.20   10.50
  -1  -3 -14    4.30    3.80
  -1  -3 -14   10.90    4.40
  -1   3 -14   23.90   13.30
  -1   3 -14   17.20   12.30
  -2  -3 -14   29.10   17.10
  -2  -3 -14    2.80   15.00
  -2  -3 -14    7.10   11.90
  -2  -3 -14    7.30    6.30
  -2   3 -14   31.80   15.00
   2   3  14   28.30   16.00
  -2   3 -14   55.19   16.30
   1   4 -14   23.90   13.80
   0  -4 -14  -30.30   15.40
   0  -4 -14    4.70   11.10
   0   4 -14  -23.70   13.80
   0   4 -14   27.10   14.80
   3   0 -15  123.69    8.30
   3   0 -15  145.79   17.00
   3   0 -15   99.29    7.90
   2   0 -15   -6.80   11.40
   2   0 -15   -4.40    4.30
   2   0 -15   -0.60    4.30
   1   0 -15  -10.90   11.10
   1   0 -15    4.00    5.80
   1   0 -15  -10.40    5.70
   0   0 -15   -1.40    7.60
   0   0 -15   -3.20    7.50
  -1   0 -15   -3.60    9.50
  -2   0 -15   -9.50   11.80
  -2   0 -15   13.90   12.30
  -2   0 -15    0.80   12.50
   3  -1 -15  336.27   23.90
   3  -1 -15  355.46   31.70
   3   1 -15  361.86   16.90
   3   1 -15  287.77   30.10
   3   1 -15  353.76   19.00
   3   1 -15  323.97   16.50
   2  -1 -15  116.59   14.90
   2  -1 -15  117.49    6.80
   2  -1 -15  100.89   13.50
   2  -1 -15  118.29    6.50
   2   1 -15  115.29   12.60
   2   1 -15  160.18   17.90
   2   1 -15  117.49   12.10
   2   1 -15  112.49   12.10
   1  -1 -15  153.78   11.90
   1  -1 -15  170.38   18.80
   1  -1 -15  219.08   18.90
   1   1 -15  163.18   15.10
   1   1 -15  170.98   14.60
   1   1 -15  174.98   18.60
   1   1 -15  183.18   12.10
   0  -1 -15   31.90   10.40
   0  -1 -15    2.50   10.00
   0  -1 -15   10.80    7.70
   0   1 -15   16.30    8.80
  -1  -1 -15    5.00   20.20
  -1   1 -15    2.90   12.10
  -1   1 -15   24.50   11.90
  -2  -1 -15  -10.50   11.00
  -2   1 -15   -1.00   14.20
   2  -2 -15    7.80   14.70
   2  -2 -15    8.40    4.60
   2  -2 -15    2.90    4.20
   2   2 -15    8.00    8.90
   2   2 -15    1.50    9.00
   2   2 -15   -7.30   14.70
   1  -2 -15    3.00    6.00
   1  -2 -15   -2.30    6.40
   1  -2 -15    0.10   11.50
   1   2 -15    3.30    9.60
   0  -2 -15    6.70    8.20
   0  -2 -15   11.60   13.00
   0  -2 -15    9.70    8.20
   0  -2 -15  -10.70    8.60
   0   2 -15    4.90   10.20
  -1  -2 -15   19.10    9.10
  -1  -2 -15   19.50   13.00
  -1  -2 -15   35.10   14.80
  -1   2 -15   25.20   12.20
   0   0   0    0.00    0.00


_computing_structure_solution     'SHELXT 2018/2 (Sheldrick, 2018)'
_computing_structure_solution     'SHELXT 2018/2 (Sheldrick, 2018)'
;
loop_
_space_group_symop_operation_xyz
'x, y, z'
'-x+1/2, y+1/2, -z+1/2'
'-x, -y, -z'
'x-1/2, -y-1/2, z-1/2'
loop_
_atom_site_label
_atom_site_type_symbol
_atom_site_fract_x
_atom_site_fract_y
_atom_site_fract_z
_atom_site_U_iso_or_equiv
_atom_site_adp_type
_atom_site_occupancy
_atom_site_site_symmetry_order
_atom_site_calc_flag
_atom_site_refinement_flags_posn
_atom_site_refinement_flags_adp
_atom_site_refinement_flags_occupancy
_atom_site_disorder_assembly
_atom_site_disorder_group
C1 C 0.7052(3) 0.2517(3) 0.19376(14) 0.0182(4) Uani 1 1 d . . . . .
C2 C 0.5748(3) 0.2754(3) 0.28316(13) 0.0165(4) Uani 1 1 d . . . . .
C3 C 0.3854(3) 0.3507(3) 0.27058(13) 0.0176(4) Uani 1 1 d . . . . .
C4 C 0.2684(3) 0.3694(3) 0.35407(14) 0.0188(4) Uani 1 1 d . . . . .
H4 H 0.138722 0.420521 0.342231 0.023 Uiso 1 1 calc R U . . .
C5 C 0.5192(3) 0.2450(3) 0.46777(13) 0.0195(4) Uani 1 1 d . . . . .
H5 H 0.567202 0.206882 0.536910 0.023 Uiso 1 1 calc R U . . .
C6 C 0.6397(3) 0.2259(3) 0.38566(14) 0.0181(4) Uani 1 1 d . . . . .
F1 F 0.82217(16) 0.15257(17) 0.40713(8) 0.0279(3) Uani 1 1 d . . . . .
F2 F 0.31187(15) 0.41032(17) 0.17503(8) 0.0257(3) Uani 1 1 d . . . . .
N1 N 0.3367(2) 0.3161(2) 0.45141(11) 0.0188(4) Uani 1 1 d . . . . .
O1 O 0.61250(19) 0.1734(2) 0.10957(9) 0.0232(4) Uani 1 1 d . . . . .
H1 H 0.697(4) 0.168(4) 0.050(2) 0.082(10) Uiso 1 1 d . . . . .
O2 O 0.8764(2) 0.3024(2) 0.20209(10) 0.0273(4) Uani 1 1 d . . . . .
loop_
_atom_site_aniso_label
_atom_site_aniso_U_11
_atom_site_aniso_U_22
_atom_site_aniso_U_33
_atom_site_aniso_U_23
_atom_site_aniso_U_13
_atom_site_aniso_U_12
C1 0.0187(11) 0.0203(10) 0.0157(9) 0.0032(7) 0.0027(7) 0.0010(7)
C2 0.0168(11) 0.0152(9) 0.0180(10) -0.0020(7) 0.0045(7) -0.0021(7)
C3 0.0193(10) 0.0193(10) 0.0138(9) 0.0022(7) -0.0016(7) -0.0012(7)
C4 0.0156(10) 0.0202(10) 0.0211(9) -0.0010(7) 0.0036(7) 0.0023(7)
C5 0.0228(11) 0.0216(10) 0.0141(9) -0.0006(7) 0.0002(8) -0.0004(8)
C6 0.0143(10) 0.0207(10) 0.0190(10) -0.0004(7) -0.0004(7) 0.0024(7)
F1 0.0192(7) 0.0417(8) 0.0225(6) 0.0029(5) 0.0004(5) 0.0084(5)
F2 0.0231(6) 0.0378(7) 0.0162(6) 0.0058(4) 0.0007(4) 0.0043(5)
N1 0.0184(9) 0.0223(9) 0.0163(8) -0.0005(7) 0.0044(6) -0.0010(7)
O1 0.0218(8) 0.0332(8) 0.0154(7) -0.0037(6) 0.0067(5) -0.0073(6)
O2 0.0178(8) 0.0419(9) 0.0228(7) -0.0019(6) 0.0047(5) -0.0049(6)
loop_
_atom_type_symbol
_atom_type_description
_atom_type_scat_dispersion_real
_atom_type_scat_dispersion_imag
_atom_type_scat_source
C C 0.0033 0.0016 'International Tables Vol C Tables 4.2.6.8 and 6.1.1.4'
H H 0.0000 0.0000 'International Tables Vol C Tables 4.2.6.8 and 6.1.1.4'
F F 0.0171 0.0103 'International Tables Vol C Tables 4.2.6.8 and 6.1.1.4'
O O 0.0106 0.0060 'International Tables Vol C Tables 4.2.6.8 and 6.1.1.4'
N N 0.0061 0.0033 'International Tables Vol C Tables 4.2.6.8 and 6.1.1.4'
loop_
_geom_angle_atom_site_label_1
_geom_angle_atom_site_label_2
_geom_angle_atom_site_label_3
_geom_angle
_geom_angle_site_symmetry_1
_geom_angle_site_symmetry_3
O1 C1 C2 112.73(16) . .
O2 C1 C2 121.53(16) . .
O2 C1 O1 125.73(16) . .
C3 C2 C1 123.46(15) . .
C6 C2 C1 121.46(16) . .
C6 C2 C3 115.07(16) . .
C4 C3 C2 122.21(16) . .
F2 C3 C2 119.65(15) . .
F2 C3 C4 118.14(16) . .
C3 C4 H4 119.8 . .
N1 C4 C3 120.43(17) . .
N1 C4 H4 119.8 . .
C6 C5 H5 119.4 . .
N1 C5 H5 119.4 . .
N1 C5 C6 121.10(16) . .
C5 C6 C2 121.56(17) . .
F1 C6 C2 120.12(16) . .
F1 C6 C5 118.30(15) . .
C5 N1 C4 119.60(15) . .
C1 O1 H1 111.8(16) . .
loop_
_geom_bond_atom_site_label_1
_geom_bond_atom_site_label_2
_geom_bond_distance
_geom_bond_site_symmetry_2
C1 C2 1.505(2) .
C1 O1 1.313(2) .
C1 O2 1.212(2) .
C2 C3 1.386(2) .
C2 C6 1.385(2) .
C3 C4 1.383(2) .
C3 F2 1.3408(19) .
C4 H4 0.9500 .
C4 N1 1.338(2) .
C5 H5 0.9500 .
C5 C6 1.384(2) .
C5 N1 1.335(2) .
C6 F1 1.347(2) .
O1 H1 0.99(3) .
loop_
_geom_torsion_atom_site_label_1
_geom_torsion_atom_site_label_2
_geom_torsion_atom_site_label_3
_geom_torsion_atom_site_label_4
_geom_torsion
_geom_torsion_site_symmetry_1
_geom_torsion_site_symmetry_2
_geom_torsion_site_symmetry_3
_geom_torsion_site_symmetry_4
C1 C2 C3 C4 179.52(16) . . . .
C1 C2 C3 F2 -1.4(3) . . . .
C1 C2 C6 C5 -179.10(17) . . . .
C1 C2 C6 F1 -0.8(3) . . . .
C2 C3 C4 N1 0.6(3) . . . .
C3 C2 C6 C5 2.2(3) . . . .
C3 C2 C6 F1 -179.54(16) . . . .
C3 C4 N1 C5 0.2(3) . . . .
C6 C2 C3 C4 -1.8(3) . . . .
C6 C2 C3 F2 177.35(15) . . . .
C6 C5 N1 C4 0.2(3) . . . .
F2 C3 C4 N1 -178.49(15) . . . .
N1 C5 C6 C2 -1.5(3) . . . .
N1 C5 C6 F1 -179.79(16) . . . .
O1 C1 C2 C3 -45.7(2) . . . .
O1 C1 C2 C6 135.67(17) . . . .
O2 C1 C2 C3 134.0(2) . . . .
O2 C1 C2 C6 -44.6(3) . . . .
