#------------------------------------------------------------------------------
#$Date: 2022-04-04 11:44:34 +0300 (Mon, 04 Apr 2022) $
#$Revision: 274311 $
#$URL: file:///home/coder/svn-repositories/cod/cif/8/10/50/8105009.cif $
#------------------------------------------------------------------------------
#
# This file is available in the Crystallography Open Database (COD),
# http://www.crystallography.net/
#
# All data on this site have been placed in the public domain by the
# contributors.
#
data_8105009
loop_
_publ_author_name
'Li, Shu-Jing'
'Li, Ke'
'Li, Yi-Wen'
_publ_section_title
;
 The crystal structure of 2-bromoisophthalic acid, C8H5BrO4
;
_journal_issue                   1
_journal_name_full
'Zeitschrift f\"ur Kristallographie - New Crystal Structures'
_journal_page_first              41
_journal_page_last               42
_journal_paper_doi               10.1515/ncrs-2019-0457
_journal_volume                  235
_journal_year                    2019
_chemical_formula_moiety         'C8 H5 Br O4'
_chemical_formula_sum            'C8 H5 Br O4'
_chemical_formula_weight         245.03
_space_group_crystal_system      triclinic
_space_group_IT_number           2
_space_group_name_Hall           '-P 1'
_space_group_name_H-M_alt        'P -1'
_symmetry_Int_Tables_number      2
_atom_sites_solution_primary     dual
_cell_angle_alpha                81.004(3)
_cell_angle_beta                 78.897(3)
_cell_angle_gamma                72.829(3)
_cell_formula_units_Z            2
_cell_length_a                   4.8161(3)
_cell_length_b                   7.3727(5)
_cell_length_c                   12.1230(7)
_cell_measurement_reflns_used    5132
_cell_measurement_temperature    150(2)
_cell_measurement_theta_max      26.409
_cell_measurement_theta_min      2.909
_cell_volume                     401.30(4)
_computing_cell_refinement       'SAINT v8.37A (Bruker, 2015) [1]'
_computing_data_reduction        'SAINT v8.37A (Bruker, 2015) [1]'
_computing_molecular_graphics    'Olex2 (Dolomanov et al., 2009) [4]'
_computing_publication_material  'Olex2 (Dolomanov et al., 2009) [4]'
_computing_structure_refinement  'olex2.refine (Bourhis et al., 2015) [3]'
_computing_structure_solution    'ShelXT (Sheldrick, 2015) [2]'
_diffrn_ambient_temperature      150.0
_diffrn_measured_fraction_theta_full 0.9976
_diffrn_measured_fraction_theta_max 0.9976
_diffrn_measurement_device       'Bruker APEX-II diffractometer'
_diffrn_measurement_device_type  'Bruker APEX-II CCD'
_diffrn_measurement_method       '\f and \w scans'
_diffrn_radiation_monochromator  graphite
_diffrn_radiation_type           'Mo K\a'
_diffrn_radiation_wavelength     0.71073
_diffrn_reflns_av_R_equivalents  0.0337
_diffrn_reflns_av_unetI/netI     0.0242
_diffrn_reflns_limit_h_max       6
_diffrn_reflns_limit_h_min       -6
_diffrn_reflns_limit_k_max       9
_diffrn_reflns_limit_k_min       -9
_diffrn_reflns_limit_l_max       15
_diffrn_reflns_limit_l_min       -15
_diffrn_reflns_number            8569
_diffrn_reflns_theta_full        26.4488
_diffrn_reflns_theta_max         26.45
_diffrn_reflns_theta_min         2.91
_exptl_absorpt_coefficient_mu    5.096
_exptl_absorpt_correction_T_max  0.7454
_exptl_absorpt_correction_T_min  0.5541
_exptl_absorpt_correction_type   multi-scan
_exptl_absorpt_process_details
;
SADABS-2016/2 (Bruker,2016/2) was used for absorption correction.
wR2(int) was 0.0770 before and 0.0487 after correction.
The Ratio of minimum to maximum transmission is 0.7434.
The \l/2 correction factor is Not present.
;
_exptl_crystal_colour            colorless
_exptl_crystal_density_diffrn    2.0277
_exptl_crystal_description       block
_exptl_crystal_F_000             239.6058
_exptl_crystal_size_max          0.3
_exptl_crystal_size_mid          0.25
_exptl_crystal_size_min          0.1
_refine_diff_density_max         0.4098
_refine_diff_density_min         -0.3863
_refine_diff_density_rms         0.0964
_refine_ls_d_res_high            0.7979
_refine_ls_d_res_low             7.0043
_refine_ls_goodness_of_fit_ref   1.0379
_refine_ls_hydrogen_treatment    mixed
_refine_ls_matrix_type           full
_refine_ls_number_constraints    10
_refine_ls_number_parameters     120
_refine_ls_number_reflns         1646
_refine_ls_number_restraints     0
_refine_ls_restrained_S_all      1.0379
_refine_ls_R_factor_all          0.0252
_refine_ls_R_factor_gt           0.0201
_refine_ls_shift/su_max          0.0000
_refine_ls_shift/su_mean         0.0000
_refine_ls_structure_factor_coef Fsqd
_refine_ls_weighting_details
'w=1/[\s^2^(Fo^2^)+(0.0216P)^2^+0.2977P] where P=(Fo^2^+2Fc^2^)/3'
_refine_ls_weighting_scheme      calc
_refine_ls_wR_factor_gt          0.0459
_refine_ls_wR_factor_ref         0.0479
_reflns_Friedel_coverage         0.0
_reflns_limit_h_max              6
_reflns_limit_h_min              -5
_reflns_limit_k_max              9
_reflns_limit_k_min              -8
_reflns_limit_l_max              15
_reflns_limit_l_min              0
_reflns_number_gt                1490
_reflns_number_total             1646
_reflns_threshold_expression     I>=2u(I)
_iucr_refine_instructions_details
;
TITL 1_a.res in P-1
CELL 0.71073 4.8161 7.3727 12.123 81.004 78.897 72.829
ZERR 2 0.0003 0.0005 0.0007 0.003 0.003 0.003
LATT 1
SFAC C H N O Br
UNIT 8 8 8 8 8

L.S. 10
PLAN  20
SIZE 0.3 0.25 0.1
TEMP -123.15
ACTA 
BOND $H
FMAP 2
AFIX 
WGHT 0.021613 0.297665
FVAR 1.033708
REM <olex2.extras>
REM <HklSrc "%.\\1.hkl">
REM </olex2.extras>

Br1   5     0.76797  0.08612  0.82304  11.00000  0.03297  0.01061  0.02011 =
 -0.00284 -0.01580  0.00080 
C1    1     0.59746  0.49594  0.79963  11.00000  0.01158  0.01285  0.01004 =
 -0.00221 -0.00146 -0.00320 
C2    1     0.59923  0.33203  0.75373  11.00000  0.00974  0.01227  0.01206 =
 -0.00231 -0.00184 -0.00081 
C3    1     0.44364  0.35036  0.66412  11.00000  0.01306  0.01423  0.01117 =
 -0.00384 -0.00233 -0.00374 
C4    1     0.27174  0.52964  0.62740  11.00000  0.01350  0.01737  0.01298 =
 -0.00258 -0.00448 -0.00255 
AFIX 43
H4    2     0.16096  0.54138  0.56848  11.00000 -1.20000 
AFIX 0
C5    1     0.25967  0.69108  0.67535  11.00000  0.01780  0.01188  0.01799 =
 -0.00167 -0.00619 -0.00040 
AFIX 43
H5    2     0.13813  0.81208  0.65085  11.00000 -1.20000 
AFIX 0
C6    1     0.42651  0.67403  0.75926  11.00000  0.01782  0.01135  0.01601 =
 -0.00364 -0.00348 -0.00329 
AFIX 43
H6    2     0.42505  0.78521  0.79004  11.00000 -1.20000 
AFIX 0
C7    1     0.77643  0.49193  0.88843  11.00000  0.01458  0.01328  0.01233 =
 -0.00298 -0.00169 -0.00608 
C8    1     0.46422  0.18828  0.59985  11.00000  0.01644  0.01312  0.01187 =
 -0.00186 -0.00464 -0.00433 
O1    4     0.68058  0.64755  0.94095  11.00000  0.02226  0.01630  0.01998 =
 -0.00869 -0.01130 -0.00064 
AFIX 147
H1    2     0.79170  0.64243  0.98760  11.00000 -1.50000 
AFIX 0
O2    4     0.99230  0.36288  0.90761  11.00000  0.01609  0.01990  0.02064 =
 -0.00888 -0.00808  0.00029 
O3    4     0.68131  0.05371  0.58514  11.00000  0.01911  0.01709  0.02134 =
 -0.00904 -0.00977  0.00053 
O4    4     0.22595  0.21318  0.55388  11.00000  0.01612  0.02040  0.02682 =
 -0.01251 -0.01127 -0.00130 
AFIX 147
H4a   2     0.25063  0.12309  0.51511  11.00000 -1.50000 
AFIX 0
HKLF 4

END
Q9 1 0.9169 0.1282 0.7824 11 0.05 0.37
Q10 1 0.4544 0.2701 0.6372 11 0.05 0.37
Q11 1 0.6823 0.4861 0.8422 11 0.05 0.36
Q14 1 0.5466 0.3382 0.6959 11 0.05 0.35
Q19 1 0.5939 0.4117 0.7786 11 0.05 0.3
Q44 1 0.4603 0.9397 0.93 11 0.05 0.24
Q47 1 0.2856 0.2524 0.4766 11 0.05 0.24
Q48 1 0.384 0.4422 0.6491 11 0.05 0.23
Q49 1 0.4048 0.6034 0.9396 11 0.05 0.23
Q50 1 0.6396 0.8347 1.0394 11 0.05 0.23
Q51 1 0.3345 0.8436 0.8547 11 0.05 0.23
Q52 1 0.3941 0.6735 0.6974 11 0.05 0.23
Q53 1 0.3176 0.6195 0.637 11 0.05 0.22
Q54 1 0.4516 0.5657 0.8031 11 0.05 0.21
Q55 1 0.5448 0.7036 0.8915 11 0.05 0.21
Q56 1 0.1873 0.8037 0.5781 11 0.05 0.21
Q57 1 0.462 0.1157 0.4007 11 0.05 0.2
Q58 1 0.2368 0.192 0.3937 11 0.05 0.19
Q59 1 -0.0106 0.5501 0.5741 11 0.05 0.19
Q60 1 1.275 0.3509 0.8611 11 0.05 0.19
Q2 1 0.6 0.416667 0.775 11 0.05 0.41
Q1 1 0.933333 0.125 0.775 11 0.05 0.41
Q7 1 0.533333 0.333333 0.7 11 0.05 0.38
Q8 1 0.666667 0.458333 0.85 11 0.05 0.38
Q13 1 0.466667 0.291667 0.625 11 0.05 0.36
Q16 1 0.333333 0.625 0.625 11 0.05 0.33
Q18 1 0 0.541667 0.575 11 0.05 0.31
Q20 1 0.266667 0.25 0.475 11 0.05 0.3
Q23 1 0.333333 0.458333 0.65 11 0.05 0.29
Q26 1 0.8 0.25 0.65 11 0.05 0.29
Q27 1 0.866667 0.083333 0.875 11 0.05 0.29
Q29 1 0.466667 -0.041667 0.925 11 0.05 0.28
Q30 1 0.6 0 0.6 11 0.05 0.28
Q35 1 0 0.625 0.725 11 0.05 0.26
Q37 1 1 0.291667 0.875 11 0.05 0.26
Q36 1 0.333333 0.833333 0.85 11 0.05 0.26
Q43 1 0.4 0.666667 0.7 11 0.05 0.25
Q41 1 0.266667 1.083333 0.75 11 0.05 0.25
Q42 1 0.133333 0.75 0.85 11 0.05 0.25
Q46 1 -0.2 0.5 0.6 11 0.05 0.24

  REM The information below was added by Olex2.
  REM
  REM R1 = 0.0201 for 1490 Fo > 4sig(Fo) and 0.0252 for all 1646 data
  REM 120 parameters refined using 0 restraints
  REM Highest difference peak 0.4098, deepest hole -0.3863
  REM Mean Shift 0.0000, Max Shift 0.0000.

  REM +++ Tabular Listing of Refinement Information +++
  REM R1_all = 0.0252
  REM R1_gt = 0.0201
  REM wR_ref = 0.0479
  REM GOOF = 1.0379
  REM Shift_max = 0.0000
  REM Shift_mean = 0.0000
  REM Reflections_all = 1646
  REM Reflections_gt = 1490
  REM Parameters = 120
  REM Hole = -0.3863
  REM Peak = 0.4098
  REM Flack = n/a
;
_cod_data_source_file            suppl_ncrs-2019-0457_suppl.cif
_cod_data_source_block           1
_cod_database_code               8105009
_olex2_refinement_description
;
1. Fixed Uiso
 At 1.2 times of:
  All C(H) groups
 At 1.5 times of:
  All O(H) groups
2.a Aromatic/amide H refined with riding coordinates:
 C4(H4), C5(H5), C6(H6)
2.b Idealised tetrahedral OH refined as rotating group:
 O1(H1), O4(H4a)
;
_iucr_refine_fcf_details
;
data_1
_computing_structure_refinement   'olex2.refine (Bourhis et al., 2015)'
_shelx_refln_list_code            4
loop_
  _space_group_symop_id
  _space_group_symop_operation_xyz
  1  x,y,z
  2  -x,-y,-z

_space_group_crystal_system       triclinic
_space_group_IT_number            2
_space_group_name_H-M_alt         'P -1'
_space_group_name_Hall            '-P 1'
_symmetry_space_group_name_H-M    'P -1'
_symmetry_space_group_name_Hall   '-P 1'
_symmetry_Int_Tables_number       2
_cell_length_a                    4.8161(3)
_cell_length_b                    7.3727(5)
_cell_length_c                    12.1230(7)
_cell_angle_alpha                 81.004(3)
_cell_angle_beta                  78.897(3)
_cell_angle_gamma                 72.829(3)
_cell_volume                      401.30(4)
loop_
  _refln_index_h
  _refln_index_k
  _refln_index_l
  _refln_F_squared_calc
  _refln_F_squared_meas
  _refln_F_squared_sigma
  _refln_F_squared_weight
  _refln_observed_status
-5 -6 1 35.237 30.126 7.173 126.111 o
-5 -6 2 34.230 25.853 8.110 103.376 o
-5 -5 1 183.868 191.703 10.330 43.786 o
-5 -5 2 20.689 16.475 5.906 191.533 o
-5 -5 3 37.824 30.728 8.921 86.130 o
-5 -5 4 85.124 66.155 20.869 16.918 o
-5 -4 1 36.802 42.043 8.080 100.892 o
-5 -4 2 121.838 120.718 10.079 54.025 o
-5 -4 3 19.447 16.014 6.727 153.657 o
-5 -4 4 86.042 68.406 8.812 74.761 o
-5 -4 5 65.087 69.390 10.152 62.544 o
-5 -3 1 70.134 51.194 8.178 89.025 o
-5 -3 2 341.147 341.594 12.459 25.107 o
-5 -3 3 13.406 10.020 7.013 147.685 o
-5 -3 4 13.336 12.980 8.105 112.109 o
-5 -3 5 133.064 119.215 12.693 37.740 o
-5 -2 1 422.561 445.669 13.422 19.798 o
-5 -2 2 99.547 97.580 7.397 88.083 o
-5 -2 3 66.575 66.910 7.089 108.250 o
-5 -2 4 0.248 0.782 6.463 186.486 o
-5 -2 5 58.175 56.510 7.042 114.416 o
-5 -1 1 167.508 186.530 9.075 52.718 o
-5 -1 2 53.819 32.706 6.602 133.497 o
-5 -1 3 144.558 139.585 8.259 64.965 o
-5 -1 4 19.042 22.277 7.411 127.879 o
-5 -1 5 16.942 26.198 6.635 155.731 o
-5 0 1 122.138 109.834 7.888 75.239 o
-5 0 2 87.731 86.397 7.526 90.674 o
-5 0 3 320.687 298.461 12.434 26.606 o
-5 0 4 38.601 25.620 7.039 129.589 o
-5 0 5 20.963 16.541 6.848 147.786 o
-5 1 1 114.445 102.778 7.014 88.990 o
-5 1 2 222.611 224.337 8.864 46.437 o
-5 1 3 0.328 -2.474 5.264 281.302 o
-5 1 4 43.408 44.679 9.847 70.454 o
-5 2 1 98.781 93.252 7.122 93.064 o
-5 2 2 134.800 122.066 10.232 51.571 o
-4 -7 1 24.568 22.592 7.371 126.626 o
-4 -7 2 226.129 243.609 10.369 38.742 o
-4 -7 3 1.722 3.747 6.824 165.274 o
-4 -6 1 71.196 79.080 6.276 122.264 o
-4 -6 2 388.491 387.168 12.607 22.664 o
-4 -6 3 71.538 67.893 7.184 104.400 o
-4 -6 4 88.659 80.534 8.181 81.430 o
-4 -6 5 145.581 133.675 10.616 47.583 o
-4 -5 1 10.133 10.991 6.110 192.992 o
-4 -5 2 135.768 136.947 16.309 24.794 o
-4 -5 3 335.156 363.329 13.890 22.267 o
-4 -5 4 107.589 102.260 8.198 75.188 o
-4 -5 5 19.031 9.808 4.801 279.856 o
-4 -5 6 294.462 309.441 15.534 20.988 o
-4 -5 7 6.077 6.259 8.453 106.598 o
-4 -4 1 559.857 595.090 17.941 12.122 o
-4 -4 2 8.536 6.982 5.419 245.873 o
-4 -4 3 282.596 283.493 10.147 34.798 o
-4 -4 4 2.510 4.490 7.524 135.758 o
-4 -4 5 7.544 7.178 6.553 172.983 o
-4 -4 6 187.824 182.832 11.041 40.384 o
-4 -4 7 8.437 14.133 7.254 140.157 o
-4 -4 8 80.564 77.777 7.254 98.555 o
-4 -3 1 137.153 135.037 8.348 65.669 o
-4 -3 2 151.004 157.463 10.049 49.602 o
-4 -3 3 296.774 297.187 11.118 30.865 o
-4 -3 4 184.809 188.369 9.067 50.829 o
-4 -3 5 5.717 0.101 6.691 170.187 o
-4 -3 6 2.341 6.763 6.919 159.444 o
-4 -3 7 153.254 151.588 9.056 56.480 o
-4 -3 8 77.068 62.772 7.101 105.043 o
-4 -2 1 509.388 505.527 14.819 15.900 o
-4 -2 2 108.760 111.932 8.184 74.204 o
-4 -2 3 9.313 12.967 4.707 308.343 o
-4 -2 4 483.948 507.791 12.328 18.993 o
-4 -2 5 162.902 179.297 10.509 44.961 o
-4 -2 6 347.102 317.048 16.625 18.180 o
-4 -2 7 149.070 147.314 8.717 59.889 o
-4 -2 8 19.244 -5.216 7.000 147.715 o
-4 -2 9 4.216 -6.861 9.012 95.225 o
-4 -1 1 338.229 325.021 13.397 23.615 o
-4 -1 2 619.086 652.611 13.843 13.836 o
-4 -1 3 177.973 185.533 8.608 54.632 o
-4 -1 4 67.296 62.907 5.732 143.430 o
-4 -1 5 328.622 369.200 10.785 28.640 o
-4 -1 6 66.858 54.684 8.094 90.817 o
-4 -1 7 89.252 95.377 10.519 55.138 o
-4 -1 8 180.972 176.608 12.855 33.432 o
-4 -1 9 0.267 -22.299 11.339 60.752 o
-4 0 1 1.987 -7.811 5.377 266.602 o
-4 0 2 319.178 318.331 11.322 28.875 o
-4 0 3 15.043 21.471 5.669 208.978 o
-4 0 4 59.155 54.883 5.496 159.630 o
-4 0 5 215.565 218.937 8.933 47.007 o
-4 0 6 105.335 112.955 7.302 86.000 o
-4 0 7 8.691 6.012 7.941 119.462 o
-4 0 8 81.305 84.422 11.542 48.566 o
-4 0 9 18.529 21.299 10.347 69.136 o
-4 1 1 485.928 475.893 15.244 16.117 o
-4 1 2 344.894 323.124 11.015 28.407 o
-4 1 3 168.750 168.877 9.955 48.042 o
-4 1 4 1.397 -3.378 5.662 241.662 o
-4 1 5 297.137 305.658 11.944 28.520 o
-4 1 6 87.460 98.910 6.158 113.272 o
-4 1 7 28.393 21.933 8.399 99.313 o
-4 1 8 63.773 87.166 8.411 82.738 o
-4 2 1 349.176 352.658 11.844 25.883 o
-4 2 2 133.873 120.558 7.118 80.540 o
-4 2 3 302.208 313.718 10.729 31.262 o
-4 2 4 406.758 412.265 11.726 23.180 o
-4 2 5 6.813 0.521 6.533 177.203 o
-4 2 6 362.785 347.233 15.587 19.099 o
-4 2 7 45.876 55.812 8.064 96.709 o
-4 3 1 923.091 901.106 16.308 8.400 o
-4 3 2 233.426 230.688 9.172 43.754 o
-4 3 3 80.017 79.462 8.736 75.824 o
-4 3 4 46.664 48.882 6.219 145.131 o
-4 3 5 110.505 112.552 9.351 61.862 o
-4 3 6 283.735 287.932 13.383 25.880 o
-4 4 1 28.207 26.457 6.645 148.190 o
-4 4 2 226.057 221.809 10.155 40.371 o
-4 4 3 5.065 6.015 6.304 188.923 o
-4 4 4 149.392 151.075 10.414 47.766 o
-3 -8 1 68.646 73.641 6.583 117.374 o
-3 -8 2 27.159 27.075 7.718 114.941 o
-3 -8 3 263.801 275.301 16.334 20.567 o
-3 -7 1 348.715 354.982 11.816 25.916 o
-3 -7 2 68.707 55.837 7.332 104.371 o
-3 -7 3 208.717 218.434 9.909 42.870 o
-3 -7 4 20.824 8.320 6.174 180.868 o
-3 -7 5 4.362 -1.441 6.664 172.598 o
-3 -7 6 115.121 117.318 9.221 62.127 o
-3 -6 1 671.680 689.472 13.874 12.838 o
-3 -6 2 116.483 129.319 8.870 64.346 o
-3 -6 3 310.012 302.753 12.568 26.606 o
-3 -6 4 373.279 407.459 14.418 19.959 o
-3 -6 5 35.698 34.663 7.844 107.577 o
-3 -6 6 243.915 246.331 13.338 28.035 o
-3 -6 7 202.305 187.241 10.344 42.493 o
-3 -5 1 400.222 404.369 10.162 26.209 o
-3 -5 2 1011.810 1047.480 16.089 7.420 o
-3 -5 3 2.714 0.984 6.237 197.610 o
-3 -5 4 455.722 472.256 16.058 15.802 o
-3 -5 5 302.245 307.137 11.480 29.444 o
-3 -5 6 3.246 2.294 6.069 207.253 o
-3 -5 7 92.243 93.661 8.029 81.329 o
-3 -5 8 3.777 -6.960 7.332 143.332 o
-3 -5 9 9.267 -0.130 8.146 114.553 o
-3 -4 1 89.490 90.625 7.757 86.165 o
-3 -4 2 249.026 246.546 7.254 50.323 o
-3 -4 3 24.320 24.297 5.200 226.137 o
-3 -4 4 27.982 27.279 5.687 190.782 o
-3 -4 5 180.465 179.464 6.511 70.290 o
-3 -4 6 1.288 4.152 3.909 489.852 o
-3 -4 7 528.690 521.887 11.458 18.720 o
-3 -4 8 321.300 341.431 14.018 22.689 o
-3 -4 9 10.143 6.076 4.797 304.473 o
-3 -4 10 144.602 154.169 11.597 41.413 o
-3 -3 1 0.792 3.081 4.903 318.859 o
-3 -3 2 1521.760 1548.170 26.402 3.478 o
-3 -3 3 279.554 297.762 8.266 40.816 o
-3 -3 4 11.470 12.332 5.870 205.508 o
-3 -3 5 824.652 816.466 18.154 8.782 o
-3 -3 6 697.332 769.949 26.246 6.814 o
-3 -3 7 8.039 -0.983 7.061 151.830 o
-3 -3 8 210.882 248.284 14.223 26.752 o
-3 -3 9 63.164 80.282 6.193 127.954 o
-3 -3 10 1.551 0.856 6.336 192.770 o
-3 -2 1 1211.190 1211.780 18.985 5.556 o
-3 -2 2 510.411 507.869 11.414 19.378 o
-3 -2 3 678.458 691.974 12.751 13.386 o
-3 -2 4 12.354 13.122 4.153 370.826 o
-3 -2 5 178.391 177.468 10.939 41.681 o
-3 -2 6 14.964 26.213 8.648 97.052 o
-3 -2 7 75.388 73.790 7.682 93.118 o
-3 -2 8 31.079 34.502 5.996 169.770 o
-3 -2 9 199.134 234.856 14.330 27.042 o
-3 -2 10 12.297 18.644 5.762 207.863 o
-3 -2 11 17.685 8.739 6.274 178.245 o
-3 -1 1 1570.290 1560.250 23.497 3.609 o
-3 -1 2 1.217 0.422 3.410 655.857 o
-3 -1 3 428.118 426.574 10.749 23.806 o
-3 -1 4 1395.370 1451.160 22.693 4.179 o
-3 -1 5 3.609 3.689 3.171 701.402 o
-3 -1 6 1153.400 1129.760 25.987 4.796 o
-3 -1 7 5.494 7.374 12.681 48.046 o
-3 -1 8 98.331 95.875 6.018 112.143 o
-3 -1 9 426.444 431.512 11.339 22.874 o
-3 -1 10 30.964 25.934 5.656 190.067 o
-3 -1 11 72.095 54.630 6.272 127.846 o
-3 0 1 395.437 400.217 13.169 21.395 o
-3 0 2 290.103 296.169 9.321 36.566 o
-3 0 3 159.335 171.863 20.396 16.377 o
-3 0 4 355.279 362.010 9.789 29.831 o
-3 0 5 96.033 97.094 6.029 112.621 o
-3 0 6 414.571 419.760 9.766 26.026 o
-3 0 7 312.803 320.596 14.628 22.054 o
-3 0 8 82.406 86.982 10.093 60.046 o
-3 0 9 78.107 78.850 6.399 116.379 o
-3 0 10 82.539 78.509 5.072 147.507 o
-3 0 11 2.310 -0.080 3.805 523.231 o
-3 1 1 1571.770 1720.140 44.274 2.129 o
-3 1 2 333.499 358.582 33.284 6.181 o
-3 1 3 43.427 50.849 8.522 89.536 o
-3 1 4 252.102 250.691 11.447 33.180 o
-3 1 5 413.663 449.068 12.062 21.907 o
-3 1 6 13.919 11.073 5.920 200.428 o
-3 1 7 316.341 332.103 9.030 34.641 o
-3 1 8 293.725 315.078 13.128 25.690 o
-3 1 9 78.870 66.132 6.415 118.464 o
-3 1 10 478.628 470.115 11.000 21.213 o
-3 1 11 1.839 6.276 7.830 125.435 o
-3 2 1 195.438 169.697 6.773 66.330 o
-3 2 2 1104.080 1162.930 19.078 6.066 o
-3 2 3 428.806 415.915 13.702 19.620 o
-3 2 4 298.056 302.251 9.649 34.864 o
-3 2 5 902.336 1033.430 56.263 2.022 o
-3 2 6 100.657 106.164 7.207 89.453 o
-3 2 7 34.494 37.593 6.397 150.014 o
-3 2 8 79.207 86.631 7.891 87.114 o
-3 2 9 46.923 37.776 5.908 159.917 o
-3 2 10 74.908 58.319 9.429 69.891 o
-3 3 1 18.910 16.762 4.151 342.675 o
-3 3 2 146.296 146.910 6.697 79.343 o
-3 3 3 328.805 321.734 9.670 32.497 o
-3 3 4 12.248 11.109 4.783 295.155 o
-3 3 5 386.568 375.693 12.767 22.619 o
-3 3 6 20.067 13.858 5.228 237.908 o
-3 3 7 96.859 83.776 6.790 100.657 o
-3 3 8 174.203 160.961 9.640 49.792 o
-3 3 9 156.828 152.322 7.929 64.920 o
-3 4 1 190.229 171.859 7.936 58.482 o
-3 4 2 407.782 418.237 15.910 17.190 o
-3 4 3 232.679 261.642 10.297 38.006 o
-3 4 4 427.473 407.620 11.736 22.602 o
-3 4 5 223.341 247.972 13.307 28.829 o
-3 4 6 1222.060 1246.140 25.425 4.545 o
-3 4 7 80.333 75.214 8.171 83.974 o
-3 4 8 316.528 312.286 11.641 28.343 o
-3 5 1 674.991 695.797 14.385 12.460 o
-3 5 2 0.677 -4.945 5.657 243.191 o
-3 5 3 162.590 171.757 8.198 60.420 o
-3 5 4 265.090 286.650 16.778 19.674 o
-3 5 5 10.185 18.461 9.078 90.504 o
-3 5 6 31.853 23.118 6.449 154.445 o
-3 6 1 698.941 705.638 17.741 10.376 o
-3 6 2 114.620 115.631 9.064 63.768 o
-3 6 3 104.096 110.428 8.283 74.075 o
-2 -8 1 362.836 373.760 11.912 24.908 o
-2 -8 2 619.266 612.955 17.237 11.862 o
-2 -8 3 19.793 27.449 7.442 125.480 o
-2 -8 4 578.679 571.711 22.144 9.564 o
-2 -8 5 102.780 118.638 10.481 52.984 o
-2 -7 1 103.018 93.500 6.052 110.048 o
-2 -7 2 34.729 36.978 5.465 190.526 o
-2 -7 3 191.320 203.847 11.401 37.930 o
-2 -7 4 9.999 16.603 6.647 163.171 o
-2 -7 5 647.414 653.194 16.089 12.039 o
-2 -7 6 28.453 25.976 7.500 120.520 o
-2 -7 7 52.311 42.703 8.359 91.263 o
-2 -6 1 6.235 6.810 4.028 430.400 o
-2 -6 2 1786.790 1724.200 121.666 0.466 o
-2 -6 3 301.997 315.445 9.800 33.806 o
-2 -6 4 0.148 -0.243 5.608 248.256 o
-2 -6 5 387.577 390.433 15.379 18.488 o
-2 -6 6 87.142 72.754 7.942 86.108 o
-2 -6 7 49.395 35.436 7.859 102.794 o
-2 -6 8 196.888 195.354 10.381 42.414 o
-2 -6 9 52.297 47.703 8.935 81.269 o
-2 -5 1 1129.610 1190.270 30.551 4.128 o
-2 -5 2 338.997 347.136 8.845 33.324 o
-2 -5 3 373.477 379.923 11.002 26.156 o
-2 -5 4 230.850 232.931 11.337 35.122 o
-2 -5 5 175.069 163.577 9.981 47.564 o
-2 -5 6 481.317 503.299 13.107 18.224 o
-2 -5 7 46.906 55.635 6.536 133.100 o
-2 -5 8 32.840 32.600 7.211 125.516 o
-2 -5 9 421.866 441.654 14.715 18.180 o
-2 -5 10 20.179 6.656 7.742 120.742 o
-2 -4 1 1466.400 1467.210 18.247 4.404 o
-2 -4 2 33.283 29.891 4.055 294.921 o
-2 -4 3 493.219 508.836 13.065 17.959 o
-2 -4 4 434.349 462.175 10.346 23.606 o
-2 -4 5 31.572 31.134 6.170 163.198 o
-2 -4 6 1613.610 1616.660 36.012 2.609 o
-2 -4 7 5.592 7.841 6.934 156.319 o
-2 -4 8 26.560 24.329 5.750 190.332 o
-2 -4 9 409.436 427.011 13.324 20.471 o
-2 -4 10 189.598 209.121 10.595 41.433 o
-2 -4 11 73.478 71.150 8.341 83.418 o
-2 -3 1 2033.750 2087.350 27.025 2.363 o
-2 -3 2 255.896 246.815 6.620 52.457 o
-2 -3 3 1236.480 1291.490 19.997 5.179 o
-2 -3 4 1449.530 1482.150 22.812 4.005 o
-2 -3 5 1153.320 1228.480 20.075 5.572 o
-2 -3 6 211.794 214.817 6.432 62.083 o
-2 -3 7 562.623 595.738 11.984 16.693 o
-2 -3 8 118.249 116.787 5.606 107.102 o
-2 -3 9 87.417 90.522 5.769 123.526 o
-2 -3 10 255.864 268.596 9.192 40.378 o
-2 -3 11 69.895 50.184 5.736 145.709 o
-2 -3 12 110.587 92.944 6.756 95.381 o
-2 -2 1 1444.560 1453.260 21.084 4.215 o
-2 -2 2 922.910 854.638 15.329 8.866 o
-2 -2 3 178.179 164.658 5.663 79.853 o
-2 -2 4 70.437 85.530 4.578 169.555 o
-2 -2 5 601.848 598.843 11.552 16.248 o
-2 -2 6 7.979 5.522 5.297 258.636 o
-2 -2 7 851.752 848.259 14.138 9.879 o
-2 -2 8 46.591 45.688 4.327 233.221 o
-2 -2 9 0.942 -3.371 4.328 412.979 o
-2 -2 10 573.888 568.838 17.707 12.271 o
-2 -2 11 177.353 168.530 9.312 51.126 o
-2 -2 12 83.834 74.251 5.693 131.430 o
-2 -1 1 149.233 136.988 5.191 97.690 o
-2 -1 2 3899.410 3969.060 54.078 0.693 o
-2 -1 3 444.989 413.006 8.014 27.747 o
-2 -1 4 2809.550 2976.950 41.458 1.220 o
-2 -1 5 674.552 657.852 15.884 11.831 o
-2 -1 6 14.707 12.519 3.807 416.831 o
-2 -1 7 323.747 327.043 7.953 37.345 o
-2 -1 8 573.001 589.823 12.063 16.481 o
-2 -1 9 1.221 6.166 4.448 378.558 o
-2 -1 10 205.504 209.465 9.091 47.590 o
-2 -1 11 163.037 168.982 8.517 58.150 o
-2 -1 12 26.855 26.631 12.581 46.908 o
-2 -1 13 7.528 18.717 17.407 25.503 o
-2 0 1 7.529 5.514 2.666 852.107 o
-2 0 2 183.130 166.242 6.389 72.103 o
-2 0 3 800.713 817.737 16.301 9.653 o
-2 0 4 182.006 201.137 5.401 76.746 o
-2 0 5 1808.510 1847.450 26.823 2.779 o
-2 0 6 962.067 933.529 38.846 3.526 o
-2 0 7 24.083 22.975 4.840 254.134 o
-2 0 8 607.531 603.054 12.102 15.678 o
-2 0 9 338.681 355.724 15.912 19.008 o
-2 0 10 3.963 -0.640 6.724 169.855 o
-2 0 11 236.177 243.776 10.984 35.791 o
-2 0 12 3.817 3.314 6.666 171.623 o
-2 0 13 119.914 100.997 11.900 43.062 o
-2 1 1 479.738 442.537 9.562 23.497 o
-2 1 2 381.089 372.321 8.797 30.435 o
-2 1 3 1307.640 1284.850 22.039 4.701 o
-2 1 4 1765.030 1763.900 29.264 2.755 o
-2 1 5 328.687 350.066 12.142 26.041 o
-2 1 6 415.263 419.541 9.357 26.697 o
-2 1 7 34.410 30.135 4.015 295.483 o
-2 1 8 537.796 544.943 15.411 14.617 o
-2 1 9 244.914 250.048 6.819 52.682 o
-2 1 10 6.269 1.009 7.239 145.367 o
-2 1 11 131.595 122.174 8.754 63.750 o
-2 1 12 428.268 437.342 14.058 18.925 o
-2 2 1 3180.930 3272.040 41.321 1.045 o
-2 2 2 71.032 82.648 3.833 197.291 o
-2 2 3 301.840 296.901 7.508 41.606 o
-2 2 4 1002.250 1004.950 18.289 7.083 o
-2 2 5 57.493 54.987 4.579 198.660 o
-2 2 6 386.942 403.391 10.528 26.084 o
-2 2 7 622.335 635.528 16.361 12.253 o
-2 2 8 94.810 100.661 5.415 125.035 o
-2 2 9 994.316 964.612 17.189 7.505 o
-2 2 10 34.238 40.408 7.058 127.597 o
-2 2 11 7.901 10.488 7.091 147.636 o
-2 2 12 305.396 302.390 14.385 22.927 o
-2 3 1 1236.890 1251.960 19.378 5.332 o
-2 3 2 463.445 453.794 9.457 24.016 o
-2 3 3 13.229 10.223 3.354 522.447 o
-2 3 4 583.410 584.847 10.498 17.629 o
-2 3 5 109.231 102.463 4.646 132.949 o
-2 3 6 470.412 484.453 10.814 21.480 o
-2 3 7 286.849 283.671 8.801 38.937 o
-2 3 8 110.376 109.677 6.120 102.941 o
-2 3 9 456.214 463.389 14.062 18.068 o
-2 3 10 250.974 240.311 8.810 43.447 o
-2 3 11 89.570 76.384 10.247 58.426 o
-2 3 12 27.159 30.612 8.408 98.291 o
-2 4 1 641.444 657.620 11.437 15.062 o
-2 4 2 858.273 855.312 16.352 9.025 o
-2 4 3 15.493 10.682 3.749 427.425 o
-2 4 4 2197.850 2216.570 29.874 2.047 o
-2 4 5 1400.810 1402.920 20.845 4.417 o
-2 4 6 118.930 123.533 6.130 97.413 o
-2 4 7 132.278 114.453 6.985 83.261 o
-2 4 8 400.440 428.778 15.718 17.460 o
-2 4 9 0.461 -0.179 4.513 381.980 o
-2 4 10 251.766 233.472 8.769 43.846 o
-2 4 11 12.514 12.097 10.415 69.634 o
-2 5 1 115.707 106.656 6.744 91.976 o
-2 5 2 466.649 480.795 12.980 18.940 o
-2 5 3 436.869 437.909 12.564 20.711 o
-2 5 4 174.404 158.966 7.954 61.516 o
-2 5 5 349.688 340.364 11.344 27.136 o
-2 5 6 348.365 342.283 17.038 17.388 o
-2 5 7 207.039 207.500 8.781 49.196 o
-2 5 8 381.781 370.485 10.257 27.468 o
-2 5 9 30.873 22.827 5.500 200.301 o
-2 6 1 2.875 0.268 4.353 399.793 o
-2 6 2 206.399 246.844 16.264 22.166 o
-2 6 3 560.230 532.615 26.910 7.587 o
-2 6 4 27.318 36.392 11.328 56.711 o
-2 6 5 429.870 428.784 14.004 19.053 o
-2 6 6 134.150 136.013 7.600 73.465 o
-2 6 7 5.308 3.255 5.610 237.788 o
-2 6 8 299.891 287.078 11.603 29.662 o
-2 7 1 416.946 413.083 14.963 18.244 o
-2 7 2 54.706 67.330 6.719 121.528 o
-2 7 3 515.478 529.384 14.987 15.449 o
-2 7 4 99.797 99.752 7.356 88.340 o
-1 -8 1 205.348 189.936 6.773 62.919 o
-1 -8 2 386.049 364.776 13.397 21.744 o
-1 -8 3 685.758 698.168 14.057 12.497 o
-1 -8 4 147.071 128.622 8.794 60.780 o
-1 -8 5 103.595 95.855 7.448 86.532 o
-1 -7 1 1291.580 1286.090 18.954 5.140 o
-1 -7 2 413.851 450.417 22.807 10.679 o
-1 -7 3 683.535 721.275 21.648 8.661 o
-1 -7 4 273.809 269.843 10.860 33.431 o
-1 -7 5 17.679 13.153 5.445 225.963 o
-1 -7 6 367.992 383.549 12.572 23.384 o
-1 -7 7 302.650 266.543 10.756 32.336 o
-1 -6 1 680.524 672.530 10.478 14.850 o
-1 -6 2 142.536 125.394 5.247 101.476 o
-1 -6 3 56.833 51.051 6.137 141.023 o
-1 -6 4 507.953 525.830 12.585 17.975 o
-1 -6 5 128.334 128.403 6.180 92.924 o
-1 -6 6 152.484 157.632 7.131 72.448 o
-1 -6 7 277.259 291.524 11.881 29.797 o
-1 -6 8 23.105 16.364 6.193 174.559 o
-1 -6 9 110.657 106.566 12.943 38.000 o
-1 -5 1 580.152 573.126 10.577 17.767 o
-1 -5 2 817.250 870.742 15.915 9.442 o
-1 -5 3 3.095 7.266 3.106 710.880 o
-1 -5 4 1070.740 1069.690 16.577 6.924 o
-1 -5 5 817.194 864.922 22.544 7.232 o
-1 -5 6 1.286 3.034 7.867 125.146 o
-1 -5 7 814.500 807.160 17.230 9.230 o
-1 -5 8 331.261 334.614 10.680 29.531 o
-1 -5 9 8.970 5.934 5.689 224.810 o
-1 -5 10 208.150 227.461 15.477 24.049 o
-1 -5 11 82.570 77.561 9.972 61.736 o
-1 -4 1 1024.010 1032.480 12.381 8.213 o
-1 -4 2 1691.110 1701.230 21.038 3.415 o
-1 -4 3 793.036 789.737 12.331 11.479 o
-1 -4 4 360.041 381.137 8.084 32.893 o
-1 -4 5 697.176 680.168 11.667 13.822 o
-1 -4 6 24.488 26.955 6.940 139.554 o
-1 -4 7 56.535 52.474 5.775 152.612 o
-1 -4 8 840.253 823.194 16.019 9.410 o
-1 -4 9 4.761 -0.133 5.965 213.927 o
-1 -4 10 156.312 135.374 8.675 60.050 o
-1 -4 11 102.506 101.738 8.815 69.140 o
-1 -4 12 213.893 193.620 11.043 38.370 o
-1 -3 1 12.867 9.568 1.918 1078.440 o
-1 -3 2 1172.170 1144.240 15.644 6.392 o
-1 -3 3 1735.020 1769.550 23.302 3.141 o
-1 -3 4 887.910 917.735 13.522 9.453 o
-1 -3 5 3002.090 3093.180 39.607 1.155 o
-1 -3 6 708.673 728.226 11.933 13.151 o
-1 -3 7 13.939 12.822 4.108 372.062 o
-1 -3 8 436.413 421.208 12.175 21.495 o
-1 -3 9 292.787 281.561 12.306 28.262 o
-1 -3 10 239.209 243.244 10.976 35.664 o
-1 -3 11 373.711 393.309 13.383 21.717 o
-1 -3 12 4.546 10.490 6.162 195.680 o
-1 -3 13 137.825 127.278 15.319 27.604 o
-1 -2 1 5895.290 5436.710 81.210 0.330 o
-1 -2 2 3.396 5.471 2.029 1463.380 o
-1 -2 3 56.805 50.257 2.620 318.720 o
-1 -2 4 1379.300 1405.580 20.274 4.532 o
-1 -2 5 883.655 879.977 13.800 9.566 o
-1 -2 6 509.125 498.592 9.342 21.877 o
-1 -2 7 47.970 43.704 3.791 267.246 o
-1 -2 8 413.634 411.089 8.485 28.471 o
-1 -2 9 1963.530 1974.290 29.942 2.375 o
-1 -2 10 6.566 12.091 4.809 304.527 o
-1 -2 11 179.869 185.192 13.973 29.517 o
-1 -2 12 424.208 426.614 12.678 21.027 o
-1 -2 13 20.793 7.601 9.280 85.755 o
-1 -1 1 3482.760 3414.180 45.772 0.896 o
-1 -1 2 8417.980 8287.280 212.770 0.097 o
-1 -1 3 948.998 952.963 12.738 9.013 o
-1 -1 4 1913.420 1839.760 21.685 2.895 o
-1 -1 5 195.871 191.972 3.808 86.723 o
-1 -1 6 2456.560 2570.940 30.174 1.714 o
-1 -1 7 364.939 355.620 7.746 34.145 o
-1 -1 8 186.531 177.828 5.721 75.765 o
-1 -1 9 428.888 412.666 9.100 26.702 o
-1 -1 10 285.756 282.308 7.770 42.717 o
-1 -1 11 1.369 3.173 6.100 206.732 o
-1 -1 12 322.296 330.899 11.338 28.443 o
-1 -1 13 169.857 166.738 9.957 48.026 o
-1 -1 14 132.890 90.389 13.353 35.483 o
-1 0 1 5277.860 4859.700 72.507 0.409 o
-1 0 2 10440.300 9247.490 137.111 0.113 o
-1 0 3 286.657 298.976 6.598 46.082 o
-1 0 4 2761.610 2786.230 42.962 1.250 o
-1 0 5 1210.570 1215.040 20.283 5.358 o
-1 0 6 771.166 776.831 11.443 12.206 o
-1 0 7 876.108 865.564 12.718 10.055 o
-1 0 8 358.623 341.254 9.494 30.848 o
-1 0 9 532.744 541.217 11.528 18.331 o
-1 0 10 373.109 362.579 10.992 26.519 o
-1 0 11 44.206 41.756 6.400 142.713 o
-1 0 12 135.421 143.386 12.424 38.235 o
-1 0 13 296.892 283.442 12.801 26.868 o
-1 0 14 14.829 10.544 7.259 137.663 o
-1 1 1 1387.850 1406.320 19.704 4.567 o
-1 1 2 2724.510 2562.110 34.942 1.462 o
-1 1 3 186.758 193.133 4.487 84.003 o
-1 1 4 455.172 454.549 7.918 26.506 o
-1 1 5 1130.270 1075.020 16.131 6.687 o
-1 1 6 27.678 28.587 1.911 632.973 o
-1 1 7 461.948 440.991 10.146 23.322 o
-1 1 8 269.822 262.392 8.562 41.948 o
-1 1 9 42.947 37.070 4.386 242.521 o
-1 1 10 1333.930 1329.950 33.043 3.371 o
-1 1 11 246.588 241.666 10.586 36.686 o
-1 1 12 1.050 3.345 5.636 241.862 o
-1 1 13 207.575 213.727 12.061 34.214 o
-1 1 14 337.769 313.899 14.802 21.230 o
-1 2 1 12.510 17.064 1.610 1139.320 o
-1 2 2 295.966 259.175 4.534 54.795 o
-1 2 3 646.541 676.014 10.787 15.233 o
-1 2 4 519.325 525.190 9.046 21.472 o
-1 2 5 2293.730 2311.690 32.376 1.859 o
-1 2 6 1211.490 1234.980 17.079 5.792 o
-1 2 7 983.580 997.379 14.448 8.148 o
-1 2 8 1482.290 1458.230 25.259 3.735 o
-1 2 9 222.122 221.240 7.958 51.290 o
-1 2 10 67.931 68.230 5.962 134.814 o
-1 2 11 589.610 606.736 15.052 13.726 o
-1 2 12 27.238 32.133 6.118 168.358 o
-1 2 13 420.535 419.481 12.887 20.914 o
-1 3 1 4.754 6.151 1.933 1473.580 o
-1 3 2 711.346 706.005 9.706 14.455 o
-1 3 3 3503.100 3524.370 40.769 0.923 o
-1 3 4 14.685 12.693 2.167 871.960 o
-1 3 5 463.834 446.049 8.684 25.235 o
-1 3 6 317.714 292.974 8.115 38.550 o
-1 3 7 160.507 164.868 6.187 79.138 o
-1 3 8 893.143 886.325 13.752 9.471 o
-1 3 9 303.094 295.014 16.987 18.600 o
-1 3 10 2.618 9.102 4.949 301.371 o
-1 3 11 425.962 426.112 19.974 12.798 o
-1 3 12 375.657 369.151 11.589 25.156 o
-1 3 13 7.857 -0.498 6.231 193.420 o
-1 4 1 563.985 546.343 7.966 20.833 o
-1 4 2 214.783 215.037 5.682 66.329 o
-1 4 3 1805.290 1823.780 22.413 3.035 o
-1 4 4 584.790 577.741 9.745 18.309 o
-1 4 5 461.326 473.839 8.669 24.813 o
-1 4 6 586.149 598.230 9.730 18.045 o
-1 4 7 868.054 867.589 12.771 10.105 o
-1 4 8 355.510 364.095 8.747 32.134 o
-1 4 9 184.820 186.346 6.802 66.515 o
-1 4 10 8.605 8.145 7.861 121.439 o
-1 4 11 50.156 61.426 11.101 55.561 o
-1 4 12 446.476 446.776 12.687 20.190 o
-1 5 1 1253.890 1265.540 17.035 5.567 o
-1 5 2 1400.440 1419.250 18.614 4.625 o
-1 5 3 19.423 15.122 3.469 445.501 o
-1 5 4 2696.090 2809.070 36.547 1.385 o
-1 5 5 112.936 109.049 4.541 130.946 o
-1 5 6 317.368 328.243 7.151 40.110 o
-1 5 7 428.045 448.362 10.676 23.556 o
-1 5 8 19.953 25.640 4.207 319.877 o
-1 5 9 1332.510 1296.520 19.805 4.884 o
-1 5 10 163.859 169.847 7.189 68.602 o
-1 5 11 6.424 5.626 5.583 236.636 o
-1 6 1 792.829 810.561 12.873 11.140 o
-1 6 2 17.095 14.624 4.311 331.758 o
-1 6 3 110.868 100.083 5.159 122.253 o
-1 6 4 700.963 728.882 14.679 11.794 o
-1 6 5 328.870 324.819 9.814 32.037 o
-1 6 6 87.167 84.058 4.907 146.930 o
-1 6 7 575.353 590.386 16.431 13.022 o
-1 6 8 411.071 409.383 12.916 21.249 o
-1 6 9 144.440 141.931 6.021 88.168 o
-1 6 10 166.050 155.549 6.573 75.187 o
-1 7 1 434.036 426.869 11.791 22.040 o
-1 7 2 896.290 922.870 15.044 8.895 o
-1 7 3 200.245 209.529 12.837 31.944 o
-1 7 4 340.232 359.469 9.030 32.443 o
-1 7 5 723.629 757.283 14.228 11.604 o
-1 7 6 11.828 12.555 4.757 297.199 o
-1 7 7 224.873 237.897 8.639 46.679 o
-1 7 8 605.836 642.637 14.530 13.624 o
-1 8 1 11.645 18.929 6.557 165.272 o
-1 8 2 638.669 634.322 14.781 13.071 o
-1 8 3 416.077 408.622 16.638 16.285 o
-1 8 4 36.394 20.944 5.653 187.327 o
0 -8 1 788.704 792.089 17.392 9.426 o
0 -8 2 626.374 641.174 11.746 15.261 o
0 -8 3 1.380 -1.887 4.500 380.707 o
0 -8 4 381.099 371.260 11.877 24.404 o
0 -7 1 18.011 24.855 6.948 143.359 o
0 -7 2 606.803 589.585 15.091 13.581 o
0 -7 3 304.316 286.017 10.022 33.864 o
0 -7 4 2.171 8.940 5.040 292.327 o
0 -7 5 737.073 745.769 14.359 11.454 o
0 -7 6 15.147 9.839 5.702 213.629 o
0 -7 7 307.559 289.521 15.286 21.357 o
0 -6 1 273.283 277.433 7.751 44.130 o
0 -6 2 774.348 793.621 18.838 8.961 o
0 -6 3 539.640 550.652 12.339 17.294 o
0 -6 4 53.473 46.627 5.570 164.537 o
0 -6 5 530.655 553.874 11.241 18.516 o
0 -6 6 657.092 635.947 12.357 14.375 o
0 -6 7 19.459 15.594 5.181 241.106 o
0 -6 8 576.104 584.819 13.237 15.499 o
0 -6 9 465.360 449.845 14.689 17.301 o
0 -5 1 1137.110 1151.970 16.861 6.335 o
0 -5 2 412.228 422.899 8.737 27.824 o
0 -5 3 924.387 957.161 17.881 7.762 o
0 -5 4 619.633 646.558 11.747 15.331 o
0 -5 5 407.462 379.750 8.769 28.995 o
0 -5 6 1088.990 1122.220 23.394 5.426 o
0 -5 7 140.615 135.763 6.903 79.691 o
0 -5 8 35.175 30.056 5.505 191.589 o
0 -5 9 445.325 448.448 12.206 20.842 o
0 -5 10 10.735 14.006 6.096 191.774 o
0 -5 11 121.600 122.131 9.696 56.957 o
0 -4 1 3124.120 3157.020 36.941 1.134 o
0 -4 2 169.306 161.689 4.710 92.129 o
0 -4 3 420.548 394.431 7.228 30.757 o
0 -4 4 1184.260 1150.310 16.758 6.140 o
0 -4 5 373.827 434.549 27.295 8.359 o
0 -4 6 718.958 736.402 13.952 11.916 o
0 -4 7 262.145 268.955 10.867 34.054 o
0 -4 8 5.254 1.021 6.117 202.578 o
0 -4 9 612.239 618.530 13.897 14.149 o
0 -4 10 619.060 629.029 13.523 14.231 o
0 -4 11 2.652 6.931 5.814 223.076 o
0 -4 12 911.355 842.524 17.313 8.377 o
0 -3 1 1389.530 1456.720 17.680 4.696 o
0 -3 2 2229.820 2357.160 27.770 2.025 o
0 -3 3 870.840 952.971 13.580 9.430 o
0 -3 4 2340.950 2444.920 28.962 1.869 o
0 -3 5 267.426 238.740 6.137 53.712 o
0 -3 6 421.747 432.822 14.517 18.520 o
0 -3 7 1413.740 1451.990 20.576 4.345 o
0 -3 8 255.536 250.570 8.416 44.273 o
0 -3 9 603.637 584.710 11.502 16.390 o
0 -3 10 106.140 93.482 6.696 97.643 o
0 -3 11 0.939 2.519 5.058 300.253 o
0 -3 12 6.026 0.594 5.729 229.258 o
0 -3 13 355.208 354.091 18.326 15.620 o
0 -2 1 957.266 970.275 11.806 9.112 o
0 -2 2 1264.980 1274.420 16.605 5.564 o
0 -2 3 1524.950 1569.210 20.328 3.949 o
0 -2 4 993.688 1021.040 12.852 8.372 o
0 -2 5 1403.780 1442.160 19.277 4.515 o
0 -2 6 5.283 5.590 2.401 1058.750 o
0 -2 7 1348.220 1368.340 20.999 4.592 o
0 -2 8 1302.620 1295.770 20.276 4.921 o
0 -2 9 3.264 5.849 3.454 593.390 o
0 -2 10 1232.970 1254.160 34.548 3.426 o
0 -2 11 487.953 481.350 16.565 14.766 o
0 -2 12 39.740 52.042 7.983 100.606 o
0 -2 13 442.580 436.981 17.748 14.555 o
0 -2 14 20.106 20.911 6.536 159.539 o
0 -1 1 2459.580 2368.420 28.982 1.809 o
0 -1 2 530.032 528.344 6.607 23.522 o
0 -1 3 5003.310 4778.950 53.782 0.498 o
0 -1 4 1574.280 1584.150 18.653 3.947 o
0 -1 5 3168.420 3173.950 36.446 1.122 o
0 -1 6 1423.140 1388.590 16.930 4.772 o
0 -1 7 126.879 142.314 3.952 123.913 o
0 -1 8 1462.350 1486.950 19.890 4.239 o
0 -1 9 277.072 282.583 6.555 48.138 o
0 -1 10 328.557 327.403 9.964 31.600 o
0 -1 11 409.211 419.375 11.695 23.043 o
0 -1 12 14.782 16.736 4.948 267.682 o
0 -1 13 383.047 369.521 11.623 24.831 o
0 -1 14 187.291 177.497 10.489 43.262 o
0 0 2 1443.930 1480.960 25.508 3.766 o
0 0 3 2378.400 2287.730 25.896 1.981 o
0 0 4 1144.530 1176.690 13.820 6.746 o
0 0 5 1877.430 1909.620 23.994 2.788 o
0 0 6 184.444 168.027 3.565 96.537 o
0 0 7 69.411 82.761 3.566 209.755 o
0 0 8 1485.970 1502.580 22.025 3.970 o
0 0 9 301.226 277.815 8.545 38.958 o
0 0 10 12.394 10.186 2.962 635.060 o
0 0 11 484.720 473.960 9.487 22.892 o
0 0 12 555.520 551.377 11.518 17.717 o
0 0 13 67.848 65.792 5.150 160.701 o
0 0 14 634.146 639.165 15.506 12.633 o
0 1 0 52.406 56.718 1.220 414.088 o
0 1 1 848.925 850.932 9.827 11.380 o
0 1 2 14.536 17.371 1.428 1156.120 o
0 1 3 1365.840 1347.050 22.938 4.355 o
0 1 4 3150.470 3031.130 52.164 0.957 o
0 1 5 1321.760 1373.760 17.571 5.058 o
0 1 6 958.236 951.866 12.827 8.919 o
0 1 7 1342.630 1352.700 17.864 4.990 o
0 1 8 603.270 589.116 9.337 18.059 o
0 1 9 1987.120 1981.780 32.035 2.260 o
0 1 10 101.481 93.587 4.121 153.307 o
0 1 11 148.596 155.067 5.756 88.177 o
0 1 12 1101.240 1115.390 18.383 6.310 o
0 1 13 112.462 117.801 8.161 73.233 o
0 1 14 105.801 98.719 6.957 92.812 o
0 2 0 410.971 420.657 5.282 33.779 o
0 2 1 5333.330 4821.080 50.694 0.472 o
0 2 2 28.464 30.361 2.060 587.533 o
0 2 3 699.148 729.901 8.999 14.822 o
0 2 4 6316.770 5825.460 70.652 0.319 o
0 2 5 181.098 206.494 3.991 87.659 o
0 2 6 1902.570 1938.070 26.811 2.604 o
0 2 7 1735.740 1675.210 21.725 3.315 o
0 2 8 428.600 430.525 8.357 27.546 o
0 2 9 1214.860 1227.790 18.809 5.538 o
0 2 10 127.944 131.515 6.036 94.528 o
0 2 11 36.948 43.478 4.920 213.711 o
0 2 12 66.034 67.776 5.347 154.771 o
0 2 13 9.165 6.444 4.860 299.266 o
0 2 14 20.960 17.680 5.725 201.023 o
0 3 0 168.007 185.589 3.535 99.711 o
0 3 1 4676.380 4514.090 47.926 0.572 o
0 3 2 1405.490 1403.920 15.686 4.926 o
0 3 3 99.036 115.354 2.739 178.809 o
0 3 4 860.094 803.728 9.590 11.611 o
0 3 5 2775.860 2888.820 31.171 1.419 o
0 3 6 16.793 17.491 2.030 838.120 o
0 3 7 591.584 587.079 9.681 18.088 o
0 3 8 185.192 185.582 5.486 77.137 o
0 3 9 469.745 448.654 8.828 24.754 o
0 3 10 1181.030 1192.430 18.721 5.750 o
0 3 11 370.610 357.941 8.933 31.062 o
0 3 12 1097.170 1087.200 19.955 6.092 o
0 3 13 928.732 944.387 19.341 7.375 o
0 3 14 5.177 4.661 5.288 265.252 o
0 4 0 757.700 755.349 9.694 13.315 o
0 4 1 57.653 53.990 2.393 325.459 o
0 4 2 1559.380 1578.400 17.965 4.041 o
0 4 3 36.109 24.806 1.867 574.451 o
0 4 4 1112.730 1146.600 13.526 7.055 o
0 4 5 1091.340 1094.250 13.042 7.424 o
0 4 6 0.891 -0.548 1.963 1938.230 o
0 4 7 815.502 811.370 11.088 11.578 o
0 4 8 1071.140 1100.430 16.790 6.799 o
0 4 9 17.948 11.899 5.997 191.381 o
0 4 10 395.998 408.451 10.049 26.498 o
0 4 11 292.627 292.786 9.409 36.233 o
0 4 12 4.977 2.897 4.782 323.582 o
0 4 13 301.542 311.335 13.430 24.848 o
0 5 0 1801.440 1797.650 26.339 2.848 o
0 5 1 67.290 60.439 3.733 221.629 o
0 5 2 2535.780 2555.650 26.856 1.738 o
0 5 3 1247.760 1253.450 14.246 5.991 o
0 5 4 212.062 202.043 4.858 73.666 o
0 5 5 470.988 495.440 7.981 24.921 o
0 5 6 728.728 737.801 12.334 12.602 o
0 5 7 537.706 508.254 9.945 20.234 o
0 5 8 1059.340 1084.190 27.280 4.901 o
0 5 9 48.820 51.873 3.670 265.188 o
0 5 10 120.325 114.455 6.626 91.202 o
0 5 11 518.571 526.137 14.545 15.834 o
0 5 12 126.250 117.035 6.035 97.461 o
0 5 13 115.507 93.144 7.186 87.551 o
0 6 0 146.770 156.113 6.487 80.402 o
0 6 1 7.686 7.490 2.891 733.309 o
0 6 2 25.759 26.801 3.125 437.597 o
0 6 3 2333.340 2400.780 25.874 1.972 o
0 6 4 37.717 40.103 3.183 350.561 o
0 6 5 578.380 595.959 9.809 18.191 o
0 6 6 1401.020 1448.110 25.773 3.862 o
0 6 7 355.786 330.196 7.943 35.075 o
0 6 8 493.681 505.067 9.753 21.779 o
0 6 9 498.763 480.264 14.076 17.058 o
0 6 10 4.812 10.913 5.214 267.218 o
0 6 11 565.621 555.840 12.005 17.016 o
0 7 0 2036.540 2037.790 28.148 2.342 o
0 7 1 830.079 826.813 14.074 10.203 o
0 7 2 24.962 23.548 4.327 297.216 o
0 7 3 991.937 1018.170 16.127 7.618 o
0 7 4 453.236 472.483 10.195 23.020 o
0 7 5 15.584 12.942 3.517 463.823 o
0 7 6 293.674 310.537 7.986 40.133 o
0 7 7 278.224 285.954 7.457 44.394 o
0 7 8 358.510 354.578 9.970 29.452 o
0 7 9 208.266 219.690 7.739 54.257 o
0 7 10 159.387 152.194 6.878 74.031 o
0 8 0 139.806 137.292 9.236 57.588 o
0 8 1 305.801 319.595 9.323 34.835 o
0 8 2 118.295 120.308 5.555 107.226 o
0 8 3 117.128 131.541 5.713 102.980 o
0 8 4 538.181 529.161 10.384 19.491 o
0 8 5 8.211 14.650 4.287 363.211 o
0 8 6 36.407 20.348 4.412 267.949 o
0 8 7 853.455 878.396 13.679 9.885 o
1 -8 0 565.032 569.106 12.915 16.104 o
1 -8 1 205.711 171.031 7.900 56.702 o
1 -8 2 56.158 61.456 7.092 113.075 o
1 -7 0 110.793 104.985 6.260 101.317 o
1 -7 1 1132.140 1164.840 17.843 6.158 o
1 -7 2 144.298 133.922 6.345 85.447 o
1 -7 3 167.271 169.510 7.144 68.404 o
1 -7 4 374.864 376.858 10.790 26.572 o
1 -7 5 0.511 -2.529 5.552 252.654 o
1 -7 6 516.242 529.188 13.244 17.101 o
1 -6 0 0.066 2.420 4.020 475.962 o
1 -6 1 872.394 866.701 17.953 8.354 o
1 -6 2 228.397 223.459 8.718 46.648 o
1 -6 3 31.718 33.346 5.316 203.768 o
1 -6 4 1332.360 1338.120 21.186 4.658 o
1 -6 5 1012.490 971.480 15.855 7.701 o
1 -6 6 230.193 212.332 8.576 47.709 o
1 -6 7 638.676 632.914 13.218 14.114 o
1 -6 8 183.735 167.567 7.724 61.236 o
1 -6 9 89.710 88.177 7.296 93.576 o
1 -5 0 482.246 475.766 8.778 23.851 o
1 -5 1 597.911 586.415 11.131 16.783 o
1 -5 2 1250.980 1215.870 21.734 5.013 o
1 -5 3 215.130 220.637 11.733 34.848 o
1 -5 4 310.442 312.539 8.881 36.057 o
1 -5 5 575.172 603.706 15.721 13.452 o
1 -5 6 56.339 52.454 4.788 191.861 o
1 -5 7 278.323 288.134 8.729 39.655 o
1 -5 8 561.606 552.708 11.785 17.328 o
1 -5 9 3.603 3.274 5.942 214.936 o
1 -5 10 585.352 581.878 14.859 14.102 o
1 -4 0 2383.890 2437.080 27.315 1.881 o
1 -4 1 60.153 53.410 3.673 241.985 o
1 -4 2 804.922 757.820 11.915 11.701 o
1 -4 3 1678.720 1639.460 32.156 2.765 o
1 -4 4 31.452 22.137 4.022 312.666 o
1 -4 5 1168.780 1166.680 16.141 6.274 o
1 -4 6 204.141 193.972 8.749 50.375 o
1 -4 7 172.443 166.588 7.550 64.407 o
1 -4 8 1231.450 1230.590 19.541 5.366 o
1 -4 9 164.866 158.784 8.607 57.910 o
1 -4 10 576.159 576.107 13.150 15.645 o
1 -4 11 812.671 832.209 23.885 6.929 o
1 -4 12 91.140 80.398 8.343 78.736 o
1 -3 0 3722.000 3836.480 41.315 0.829 o
1 -3 1 26.397 16.123 1.949 718.070 o
1 -3 2 751.882 806.821 11.024 12.445 o
1 -3 3 539.798 505.371 7.956 22.267 o
1 -3 4 80.198 77.809 3.397 205.008 o
1 -3 5 2198.990 2235.880 29.547 2.048 o
1 -3 6 1280.930 1344.860 19.232 5.043 o
1 -3 7 35.651 28.618 4.784 234.499 o
1 -3 8 344.112 364.254 10.755 28.149 o
1 -3 9 396.849 425.519 11.368 23.871 o
1 -3 10 393.060 394.665 12.593 22.447 o
1 -3 11 323.733 324.362 11.208 28.829 o
1 -3 12 306.559 299.711 12.097 27.891 o
1 -3 13 90.404 71.236 9.147 69.789 o
1 -2 0 1413.180 1390.160 15.590 4.933 o
1 -2 1 4515.830 4545.960 48.289 0.590 o
1 -2 2 3.010 0.386 1.574 2508.010 o
1 -2 3 2911.520 3069.870 38.526 1.208 o
1 -2 4 3185.770 3288.880 41.309 1.041 o
1 -2 5 146.888 141.234 4.729 103.708 o
1 -2 6 842.559 838.069 12.687 10.535 o
1 -2 7 1198.490 1212.060 18.983 5.604 o
1 -2 8 1006.540 1016.420 16.876 7.360 o
1 -2 9 1536.240 1564.750 27.067 3.385 o
1 -2 10 18.199 22.051 4.906 260.055 o
1 -2 11 234.544 222.038 11.132 35.962 o
1 -2 12 635.822 638.528 14.233 13.438 o
1 -2 13 6.829 8.460 6.156 194.775 o
1 -2 14 147.767 136.368 8.023 66.844 o
1 -1 0 245.786 245.180 4.202 65.706 o
1 -1 1 2944.620 2923.450 35.489 1.268 o
1 -1 2 89.440 97.654 2.542 206.340 o
1 -1 3 418.519 378.940 6.620 32.394 o
1 -1 4 4272.790 4192.120 56.530 0.607 o
1 -1 5 288.840 299.258 6.149 47.434 o
1 -1 6 786.530 795.936 12.687 11.370 o
1 -1 7 1731.270 1801.780 25.958 2.966 o
1 -1 8 176.846 157.870 6.373 74.448 o
1 -1 9 928.989 921.274 15.369 8.560 o
1 -1 10 362.217 350.710 8.936 31.698 o
1 -1 11 7.493 6.082 4.304 378.555 o
1 -1 12 956.389 982.511 17.297 7.650 o
1 -1 13 274.528 281.908 8.705 40.264 o
1 -1 14 3.565 11.022 5.862 215.946 o
1 0 0 995.375 1022.930 16.073 7.596 o
1 0 1 925.508 909.408 14.283 8.947 o
1 0 2 4678.390 4244.050 63.130 0.523 o
1 0 3 136.383 132.492 3.287 131.246 o
1 0 4 1256.460 1325.190 20.659 4.970 o
1 0 5 13.095 15.595 1.745 1073.180 o
1 0 6 304.024 311.910 6.018 45.584 o
1 0 7 740.360 682.682 10.948 13.533 o
1 0 8 1109.120 1140.460 17.147 6.443 o
1 0 9 772.961 806.964 13.146 11.266 o
1 0 10 1360.640 1388.970 19.170 4.730 o
1 0 11 508.011 513.730 9.445 21.560 o
1 0 12 378.116 366.681 9.512 29.229 o
1 0 13 509.285 551.841 13.782 16.494 o
1 0 14 43.592 38.993 5.703 170.365 o
1 0 15 33.076 26.578 14.880 33.819 o
1 1 0 1578.590 1649.120 23.174 3.531 o
1 1 1 1016.190 1024.230 12.861 8.195 o
1 1 2 2104.330 2004.680 26.821 2.340 o
1 1 3 254.987 252.653 5.213 58.740 o
1 1 4 3804.970 3715.670 66.502 0.640 o
1 1 5 5892.110 5765.940 96.861 0.288 o
1 1 6 344.772 365.688 5.802 39.836 o
1 1 7 1547.080 1631.610 20.980 3.778 o
1 1 8 1841.370 1796.190 21.379 3.054 o
1 1 9 0.194 -0.509 1.883 2181.170 o
1 1 10 475.443 477.714 9.803 22.731 o
1 1 11 529.512 520.127 8.848 21.444 o
1 1 12 18.394 15.529 4.061 358.071 o
1 1 13 891.738 854.244 15.544 9.040 o
1 1 14 252.426 241.925 9.189 41.679 o
1 1 15 9.852 -6.805 6.638 169.739 o
1 2 0 2912.170 2800.010 31.834 1.364 o
1 2 1 60.545 68.478 1.516 340.148 o
1 2 2 2152.270 2060.750 33.070 2.041 o
1 2 3 4714.020 4805.470 113.784 0.314 o
1 2 4 234.321 248.930 6.308 56.740 o
1 2 5 904.203 827.877 10.576 10.644 o
1 2 6 1380.200 1366.080 17.294 4.908 o
1 2 7 51.018 50.541 2.867 318.074 o
1 2 8 1383.090 1386.910 18.086 4.781 o
1 2 9 166.924 164.604 4.239 97.286 o
1 2 10 22.319 21.599 1.855 763.149 o
1 2 11 365.670 362.706 7.471 34.501 o
1 2 12 206.350 197.734 6.583 63.402 o
1 2 13 463.614 473.857 11.043 21.536 o
1 2 14 376.603 364.553 10.082 28.170 o
1 2 15 2.342 0.788 4.676 348.720 o
1 3 0 3203.350 3169.020 33.952 1.139 o
1 3 1 309.487 328.916 4.116 49.574 o
1 3 2 248.787 308.058 5.115 55.900 o
1 3 3 6510.160 6364.810 66.846 0.302 o
1 3 4 668.864 685.457 9.296 15.641 o
1 3 5 594.964 622.031 11.376 16.293 o
1 3 6 588.702 584.021 11.025 17.086 o
1 3 7 234.914 239.386 4.427 67.320 o
1 3 8 1902.230 1878.380 21.889 2.874 o
1 3 9 1368.730 1372.140 16.547 5.015 o
1 3 10 388.262 385.140 6.057 35.202 o
1 3 11 1902.910 1880.700 27.064 2.627 o
1 3 12 314.788 306.094 7.650 39.706 o
1 3 13 8.344 6.782 4.234 385.185 o
1 3 14 346.492 345.766 9.328 31.754 o
1 4 0 2014.160 2018.750 22.486 2.602 o
1 4 1 430.323 397.539 5.456 33.004 o
1 4 2 7.827 11.026 1.471 1612.000 o
1 4 3 550.393 497.515 6.635 23.313 o
1 4 4 507.147 489.978 6.292 25.512 o
1 4 5 488.839 481.997 7.014 25.653 o
1 4 6 1795.880 1730.750 22.244 3.134 o
1 4 7 1668.700 1699.220 27.861 3.014 o
1 4 8 139.570 133.138 5.700 95.038 o
1 4 9 558.607 556.830 11.845 17.294 o
1 4 10 1385.430 1355.450 18.309 4.799 o
1 4 11 3.966 2.105 2.000 1562.140 o
1 4 12 761.346 745.893 11.930 12.315 o
1 4 13 20.266 20.453 2.532 617.499 o
1 4 14 174.618 182.347 6.155 74.214 o
1 5 0 874.594 872.225 11.086 10.565 o
1 5 1 2038.230 2115.620 23.791 2.465 o
1 5 2 397.359 419.624 6.244 33.110 o
1 5 3 369.054 365.074 6.045 37.358 o
1 5 4 3028.060 3103.690 36.198 1.189 o
1 5 5 134.569 142.357 3.518 126.046 o
1 5 6 151.318 143.972 3.126 121.269 o
1 5 7 826.763 848.664 13.303 10.416 o
1 5 8 2.842 2.659 4.808 326.314 o
1 5 9 480.631 509.839 15.582 15.595 o
1 5 10 440.032 444.461 13.268 19.608 o
1 5 11 0.884 0.878 4.753 341.937 o
1 5 12 743.509 760.000 18.048 9.638 o
1 5 13 155.708 142.175 13.764 31.877 o
1 6 0 856.016 872.560 11.759 10.539 o
1 6 1 767.406 764.418 10.568 12.723 o
1 6 2 1328.860 1340.000 15.321 5.349 o
1 6 3 19.767 18.331 2.691 593.855 o
1 6 4 1011.640 1027.240 12.881 8.212 o
1 6 5 1003.950 1009.030 19.627 6.754 o
1 6 6 12.428 10.594 2.144 955.211 o
1 6 7 1585.900 1497.670 26.729 3.384 o
1 6 8 390.867 398.607 8.156 30.530 o
1 6 9 244.770 266.483 21.500 13.783 o
1 6 10 308.040 343.591 13.373 24.278 o
1 6 11 164.919 150.390 9.979 49.083 o
1 6 12 219.302 222.024 20.416 15.474 o
1 7 0 30.783 29.487 3.818 324.977 o
1 7 1 26.534 22.020 3.531 386.651 o
1 7 2 1012.080 1018.920 13.815 8.028 o
1 7 3 384.895 394.132 8.180 30.921 o
1 7 4 80.118 76.229 3.819 190.825 o
1 7 5 394.124 407.959 8.802 28.896 o
1 7 6 53.517 54.466 3.500 263.744 o
1 7 7 235.737 253.650 9.273 42.188 o
1 7 8 643.692 652.103 15.953 12.169 o
1 7 9 17.706 10.756 8.207 108.460 o
1 7 10 393.774 410.952 15.748 17.700 o
1 7 11 652.357 622.891 25.976 7.380 o
1 8 0 290.750 289.193 7.736 42.106 o
1 8 1 120.188 104.239 5.297 114.218 o
1 8 2 419.871 429.127 8.815 27.211 o
1 8 3 390.836 389.729 9.168 28.782 o
1 8 4 22.528 20.555 3.949 350.025 o
1 8 5 703.823 724.105 13.168 12.588 o
1 8 6 780.077 784.340 13.434 11.189 o
1 8 7 78.235 67.011 6.231 122.872 o
1 8 8 482.783 464.052 10.938 21.259 o
1 8 9 299.994 321.147 19.540 15.107 o
1 9 0 506.129 507.528 11.613 19.268 o
1 9 1 196.793 181.040 6.919 64.035 o
1 9 2 166.289 142.416 6.779 74.570 o
1 9 3 701.971 672.848 12.197 13.504 o
1 9 4 6.388 -2.317 4.941 304.198 o
2 -7 0 652.068 686.350 15.542 12.121 o
2 -7 1 34.886 39.322 6.992 129.511 o
2 -7 2 232.682 229.255 9.667 41.695 o
2 -7 3 552.339 548.241 18.108 12.331 o
2 -6 0 737.436 761.836 18.434 9.513 o
2 -6 1 98.220 101.909 6.516 101.900 o
2 -6 2 313.626 306.785 9.269 34.904 o
2 -6 3 1154.410 1121.660 17.480 6.218 o
2 -6 4 160.400 143.781 6.971 73.796 o
2 -6 5 593.358 545.224 12.741 15.952 o
2 -6 6 435.894 455.211 12.617 20.442 o
2 -6 7 193.992 158.769 13.377 31.418 o
2 -5 0 1184.060 1161.480 19.886 5.613 o
2 -5 1 969.860 1011.370 20.394 6.732 o
2 -5 2 52.691 46.698 5.503 167.768 o
2 -5 3 63.631 72.885 6.511 121.463 o
2 -5 4 1086.670 1068.260 21.230 5.930 o
2 -5 5 40.326 53.368 5.593 171.687 o
2 -5 6 508.145 503.965 11.811 19.045 o
2 -5 7 265.595 254.429 9.878 37.647 o
2 -5 8 229.711 240.642 10.324 38.783 o
2 -5 9 776.843 768.287 16.099 10.156 o
2 -4 0 33.810 33.235 3.726 320.030 o
2 -4 1 1123.140 1087.390 18.288 6.292 o
2 -4 2 31.624 41.112 5.215 205.031 o
2 -4 3 466.055 415.928 9.133 25.087 o
2 -4 4 1324.520 1354.970 21.805 4.584 o
2 -4 5 24.213 27.124 4.172 310.110 o
2 -4 6 618.479 612.172 11.881 15.563 o
2 -4 7 635.369 628.074 15.244 12.854 o
2 -4 8 111.527 101.418 7.003 90.127 o
2 -4 9 917.761 908.532 16.456 8.368 o
2 -4 10 491.292 484.019 12.869 18.483 o
2 -4 11 2.295 8.068 7.333 141.982 o
2 -3 0 3.977 11.120 3.055 694.962 o
2 -3 1 647.510 627.888 13.998 13.504 o
2 -3 2 964.436 971.912 17.554 7.567 o
2 -3 3 1.807 3.205 3.203 714.186 o
2 -3 4 1451.150 1501.840 25.346 3.746 o
2 -3 5 879.372 887.144 15.213 9.115 o
2 -3 6 10.026 10.300 3.975 414.292 o
2 -3 7 599.967 596.763 19.001 11.055 o
2 -3 8 1732.590 1734.950 30.620 2.735 o
2 -3 9 40.840 45.086 6.658 135.320 o
2 -3 10 646.185 635.791 14.488 13.151 o
2 -3 11 31.621 35.867 7.211 125.342 o
2 -3 12 46.792 39.861 7.307 115.662 o
2 -2 0 927.925 985.102 14.061 8.697 o
2 -2 1 1235.830 1330.010 18.102 5.371 o
2 -2 2 2827.630 2866.910 36.391 1.316 o
2 -2 3 1244.410 1251.750 17.236 5.604 o
2 -2 4 284.274 264.166 5.940 50.775 o
2 -2 5 1883.810 1842.490 27.923 2.631 o
2 -2 6 2.237 7.255 3.406 611.782 o
2 -2 7 960.266 971.677 16.473 7.874 o
2 -2 8 31.547 33.783 5.025 221.023 o
2 -2 9 18.316 17.294 5.846 196.940 o
2 -2 10 661.328 696.099 22.299 8.596 o
2 -2 11 675.385 686.613 16.471 11.344 o
2 -2 12 0.788 4.754 7.146 151.173 o
2 -2 13 433.502 424.116 13.938 19.111 o
2 -1 0 1736.660 1737.090 24.684 3.082 o
2 -1 1 356.808 385.308 6.543 36.425 o
2 -1 2 227.784 202.873 5.403 66.774 o
2 -1 3 1605.630 1606.870 20.959 3.682 o
2 -1 4 438.814 436.418 7.251 28.668 o
2 -1 5 978.055 993.949 15.593 7.913 o
2 -1 6 2091.930 2139.280 30.631 2.146 o
2 -1 7 75.045 79.666 7.600 93.809 o
2 -1 8 2592.210 2629.290 37.478 1.461 o
2 -1 9 754.293 757.567 14.015 11.361 o
2 -1 10 129.718 131.840 6.099 93.068 o
2 -1 11 883.377 902.519 18.282 8.065 o
2 -1 12 135.178 137.435 7.557 73.583 o
2 -1 13 192.240 215.657 8.811 50.134 o
2 -1 14 509.472 500.999 13.505 17.246 o
2 0 0 3559.730 3441.950 52.613 0.814 o
2 0 1 110.282 96.309 4.198 143.975 o
2 0 2 25.123 24.642 2.958 474.376 o
2 0 3 2671.280 2662.460 40.868 1.350 o
2 0 4 310.073 296.943 6.701 43.522 o
2 0 5 130.956 95.573 4.451 126.214 o
2 0 6 1613.320 1670.770 23.968 3.390 o
2 0 7 267.717 259.738 6.396 51.199 o
2 0 8 1606.020 1661.590 27.158 3.184 o
2 0 9 700.772 709.769 12.394 13.145 o
2 0 10 78.729 81.504 4.629 162.461 o
2 0 11 779.387 815.872 13.436 11.024 o
2 0 12 235.847 250.253 8.604 45.242 o
2 0 13 0.692 -2.848 4.136 453.176 o
2 0 14 219.568 234.190 8.868 46.243 o
2 1 0 1580.880 1572.180 22.408 3.660 o
2 1 1 485.149 476.511 8.117 24.567 o
2 1 2 10.830 14.507 1.327 1442.580 o
2 1 3 5846.490 5783.230 77.200 0.332 o
2 1 4 2201.870 2227.260 27.827 2.104 o
2 1 5 749.705 846.375 12.745 11.478 o
2 1 6 668.567 649.436 10.360 15.344 o
2 1 7 2281.220 2369.330 32.890 1.833 o
2 1 8 80.659 81.700 4.204 174.221 o
2 1 9 372.210 391.076 8.079 31.914 o
2 1 10 604.762 591.283 9.880 17.575 o
2 1 11 273.316 261.377 7.296 46.713 o
2 1 12 1740.600 1711.890 23.372 3.175 o
2 1 13 2.849 3.549 3.893 486.065 o
2 1 14 146.301 134.872 11.605 41.881 o
2 2 0 725.344 712.347 11.297 13.356 o
2 2 1 3358.830 3303.630 40.907 0.992 o
2 2 2 2198.320 2194.380 27.489 2.133 o
2 2 3 100.166 135.103 2.858 165.246 o
2 2 4 2200.360 2190.820 29.885 2.055 o
2 2 5 165.993 181.939 3.989 96.931 o
2 2 6 70.894 62.916 3.644 218.485 o
2 2 7 1839.130 1818.470 49.954 1.695 o
2 2 8 1.788 -1.399 2.660 1051.830 o
2 2 9 963.293 982.173 16.652 7.775 o
2 2 10 746.529 781.964 28.459 5.991 o
2 2 11 192.632 189.982 6.640 66.033 o
2 2 12 825.650 863.054 15.889 9.414 o
2 2 13 210.093 209.519 7.643 55.233 o
2 2 14 14.399 9.379 3.511 482.537 o
2 2 15 499.427 526.357 26.672 7.946 o
2 3 0 528.329 566.018 8.881 20.753 o
2 3 1 549.806 542.332 8.254 21.064 o
2 3 2 1354.710 1346.370 19.236 4.805 o
2 3 3 36.602 42.363 3.381 331.273 o
2 3 4 1988.550 1964.220 24.587 2.582 o
2 3 5 928.741 924.721 15.994 8.370 o
2 3 6 57.083 54.673 2.173 340.406 o
2 3 7 2451.350 2399.150 43.716 1.446 o
2 3 8 310.649 303.078 5.698 46.367 o
2 3 9 868.301 859.941 13.397 9.929 o
2 3 10 253.270 247.054 4.175 64.219 o
2 3 11 767.262 772.144 10.262 12.803 o
2 3 12 264.446 260.898 6.119 52.733 o
2 3 13 767.521 753.301 10.115 12.999 o
2 3 14 56.302 52.906 7.237 111.274 o
2 4 0 20.005 17.162 2.544 634.541 o
2 4 1 15.505 21.702 2.252 748.029 o
2 4 2 1132.360 1100.840 13.934 7.002 o
2 4 3 687.948 727.686 9.775 14.635 o
2 4 4 957.334 928.205 10.300 9.675 o
2 4 5 1497.680 1514.300 24.983 3.674 o
2 4 6 524.598 527.242 11.084 19.140 o
2 4 7 137.570 134.773 6.443 85.965 o
2 4 8 3700.680 3665.530 56.822 0.731 o
2 4 9 557.986 556.560 12.411 16.798 o
2 4 10 677.796 662.152 14.324 12.671 o
2 4 11 478.013 481.368 11.958 19.891 o
2 4 12 0.995 -0.934 4.467 387.815 o
2 4 13 468.046 469.438 12.211 19.980 o
2 4 14 107.184 102.744 9.627 60.404 o
2 5 0 1044.780 1074.720 26.358 5.113 o
2 5 1 6.353 5.869 2.867 775.034 o
2 5 2 1582.660 1635.790 23.477 3.514 o
2 5 3 1850.030 1862.820 21.091 3.002 o
2 5 4 60.210 61.107 2.747 286.582 o
2 5 5 341.800 339.110 8.544 34.160 o
2 5 6 811.830 846.802 16.211 9.475 o
2 5 7 47.723 44.897 4.770 207.286 o
2 5 8 215.741 209.148 13.116 30.418 o
2 5 9 56.319 54.655 5.591 158.472 o
2 5 10 202.653 183.622 8.689 51.431 o
2 5 11 813.811 807.785 19.067 8.559 o
2 5 12 261.187 277.076 10.617 34.698 o
2 5 13 218.319 214.671 10.187 41.039 o
2 6 0 1140.470 1140.140 18.563 6.051 o
2 6 1 435.074 436.362 9.577 25.211 o
2 6 2 8.175 7.291 3.643 499.355 o
2 6 3 1104.040 1069.650 18.504 6.378 o
2 6 4 35.931 35.915 3.451 336.775 o
2 6 5 523.160 494.612 7.269 23.754 o
2 6 6 1325.950 1328.010 27.111 4.003 o
2 6 7 12.443 14.950 5.611 220.009 o
2 6 8 435.742 475.547 27.768 7.823 o
2 6 9 960.570 1073.870 88.159 0.916 o
2 6 10 191.801 177.792 19.091 17.900 o
2 6 11 407.967 427.469 19.361 13.509 o
2 6 12 564.207 627.884 19.649 10.847 o
2 7 0 161.648 171.519 8.235 60.285 o
2 7 1 711.108 705.137 15.459 11.409 o
2 7 2 85.882 90.018 4.468 157.888 o
2 7 3 599.002 612.391 10.668 16.857 o
2 7 4 538.245 548.121 10.250 19.378 o
2 7 5 167.262 142.995 4.773 95.295 o
2 7 6 636.844 629.576 26.219 7.342 o
2 7 7 794.925 776.268 32.188 5.004 o
2 7 8 118.593 115.705 9.254 61.470 o
2 7 9 509.331 529.994 20.679 11.072 o
2 7 10 382.436 391.768 15.522 18.380 o
2 7 11 144.963 135.072 24.756 11.761 o
2 8 0 20.580 11.020 5.318 232.532 o
2 8 1 315.777 310.612 10.158 32.191 o
2 8 2 232.322 230.202 8.977 44.758 o
2 8 3 236.114 229.533 7.507 51.564 o
2 8 4 735.611 720.024 13.989 11.798 o
2 8 5 83.639 86.676 4.184 169.687 o
2 8 6 141.926 138.233 4.467 109.936 o
2 8 7 798.403 797.039 21.492 7.839 o
2 8 8 26.844 26.174 9.335 81.908 o
2 8 9 78.007 89.263 12.329 43.543 o
2 9 0 11.217 11.128 6.415 175.436 o
2 9 1 246.697 236.469 10.419 37.456 o
2 9 2 415.242 391.696 12.913 21.378 o
2 9 3 83.659 76.055 5.414 138.225 o
2 9 4 138.543 128.411 10.847 46.954 o
2 9 5 360.175 344.025 10.260 28.977 o
3 -6 0 5.131 5.638 7.466 136.289 o
3 -6 1 184.557 151.228 9.673 49.069 o
3 -6 2 440.404 479.607 15.914 16.135 o
3 -6 3 0.041 7.803 8.790 100.113 o
3 -5 0 298.082 326.276 12.213 27.432 o
3 -5 1 7.938 1.251 6.224 193.169 o
3 -5 2 640.022 643.904 15.824 12.337 o
3 -5 3 470.914 455.186 13.891 18.052 o
3 -5 4 262.033 245.597 11.448 32.810 o
3 -5 5 251.767 256.403 11.941 31.515 o
3 -5 6 32.567 34.272 7.563 115.639 o
3 -5 7 338.428 364.094 15.546 19.477 o
3 -4 0 354.326 356.723 11.200 26.939 o
3 -4 1 177.848 165.888 9.509 49.994 o
3 -4 2 162.754 152.364 8.396 60.221 o
3 -4 3 723.259 790.463 18.173 9.624 o
3 -4 4 55.854 37.830 6.643 129.974 o
3 -4 5 587.041 567.479 11.927 16.539 o
3 -4 6 899.108 913.373 20.861 7.196 o
3 -4 7 1.153 3.350 4.662 350.481 o
3 -4 8 1040.740 1104.930 18.855 6.519 o
3 -4 9 63.323 53.109 8.069 92.348 o
3 -3 0 1934.160 1848.200 26.010 2.658 o
3 -3 1 363.249 347.451 10.148 29.006 o
3 -3 2 3.252 -2.486 6.945 159.884 o
3 -3 3 1433.520 1471.200 30.683 3.327 o
3 -3 4 449.576 464.112 18.261 13.826 o
3 -3 5 208.902 210.881 10.497 40.470 o
3 -3 6 622.502 620.843 11.822 15.456 o
3 -3 7 381.914 386.524 9.559 28.499 o
3 -3 8 613.707 594.609 13.041 14.937 o
3 -3 9 364.247 366.710 10.184 28.452 o
3 -3 10 79.053 57.796 8.615 79.684 o
3 -3 11 324.750 341.591 14.331 22.032 o
3 -2 0 796.226 809.282 13.028 11.046 o
3 -2 1 620.939 656.073 17.461 11.489 o
3 -2 2 83.142 84.202 5.748 127.787 o
3 -2 3 701.620 700.791 15.061 11.744 o
3 -2 4 704.164 701.610 18.598 9.938 o
3 -2 5 325.464 309.114 10.962 29.683 o
3 -2 6 20.093 18.421 7.298 131.887 o
3 -2 7 492.316 485.970 17.742 13.638 o
3 -2 8 45.947 47.836 6.054 151.639 o
3 -2 9 1084.090 1108.630 19.218 6.243 o
3 -2 10 140.601 129.623 7.320 75.785 o
3 -2 11 39.922 36.658 7.362 117.584 o
3 -2 12 893.834 877.416 18.839 7.909 o
3 -1 0 3.507 3.489 2.835 860.061 o
3 -1 1 783.190 733.923 15.065 10.707 o
3 -1 2 108.201 97.374 6.470 100.044 o
3 -1 3 9.544 7.024 3.869 444.116 o
3 -1 4 2764.440 2814.660 40.130 1.291 o
3 -1 5 235.435 236.472 7.602 50.762 o
3 -1 6 1803.200 1774.470 23.955 2.993 o
3 -1 7 2122.170 2144.860 28.515 2.191 o
3 -1 8 182.531 188.392 9.735 47.190 o
3 -1 9 448.821 430.898 12.293 20.864 o
3 -1 10 476.225 490.366 12.128 19.619 o
3 -1 11 99.216 87.498 6.513 104.136 o
3 -1 12 393.255 410.369 13.859 20.288 o
3 -1 13 68.568 43.580 7.776 97.572 o
3 0 0 1.586 1.358 3.578 589.481 o
3 0 1 963.122 948.918 17.512 7.654 o
3 0 2 2052.890 2117.750 34.223 2.057 o
3 0 3 108.875 117.067 7.123 87.035 o
3 0 4 713.241 678.163 16.945 10.765 o
3 0 5 1338.190 1308.780 42.046 2.616 o
3 0 6 69.109 58.947 4.435 189.423 o
3 0 7 291.495 291.245 7.889 41.423 o
3 0 8 589.086 606.336 13.244 15.093 o
3 0 9 183.783 185.366 8.278 56.114 o
3 0 10 526.514 547.159 12.162 17.776 o
3 0 11 332.650 341.362 10.245 30.354 o
3 0 12 106.159 113.045 6.832 92.524 o
3 0 13 827.294 827.016 15.333 9.756 o
3 1 0 589.254 604.926 11.117 16.782 o
3 1 1 35.750 35.799 3.372 345.492 o
3 1 2 1355.540 1373.430 18.508 4.842 o
3 1 3 16.841 12.506 2.905 595.119 o
3 1 4 85.134 74.054 3.868 184.734 o
3 1 5 1137.990 1136.430 17.554 6.246 o
3 1 6 512.778 546.914 8.723 21.679 o
3 1 7 510.551 503.860 8.457 22.747 o
3 1 8 1293.610 1256.030 17.470 5.377 o
3 1 9 126.354 123.154 6.029 96.498 o
3 1 10 1038.200 995.220 15.254 7.608 o
3 1 11 473.439 500.641 10.013 22.160 o
3 1 12 3.725 2.039 4.356 392.214 o
3 1 13 470.090 476.086 10.675 21.792 o
3 1 14 563.923 558.582 12.051 16.981 o
3 2 0 748.378 714.715 12.472 12.427 o
3 2 1 1115.710 1153.370 17.868 6.253 o
3 2 2 685.371 677.469 10.354 14.795 o
3 2 3 2417.610 2491.050 31.687 1.730 o
3 2 4 4.530 5.547 2.533 991.824 o
3 2 5 361.966 348.606 7.253 35.725 o
3 2 6 935.375 918.298 12.917 9.222 o
3 2 7 332.037 334.712 6.335 40.911 o
3 2 8 702.097 710.240 12.476 13.078 o
3 2 9 873.761 886.652 20.139 7.608 o
3 2 10 3.652 -1.160 2.900 855.239 o
3 2 11 1250.700 1260.100 17.837 5.481 o
3 2 12 354.121 332.407 10.318 29.385 o
3 2 13 30.710 27.904 6.091 168.506 o
3 2 14 365.667 385.036 15.791 18.395 o
3 3 0 360.352 374.664 8.389 32.379 o
3 3 1 60.590 52.972 3.211 267.945 o
3 3 2 64.753 57.110 3.091 261.531 o
3 3 3 2053.560 1981.090 25.632 2.454 o
3 3 4 7.176 4.696 2.076 1256.290 o
3 3 5 214.951 217.127 4.821 71.581 o
3 3 6 2009.960 2008.120 28.114 2.386 o
3 3 7 204.467 199.616 4.564 77.804 o
3 3 8 180.020 178.388 4.346 89.454 o
3 3 9 398.157 419.933 6.985 31.734 o
3 3 10 221.699 224.273 5.520 65.195 o
3 3 11 833.165 794.496 16.355 9.461 o
3 3 12 217.237 214.416 5.907 64.508 o
3 3 13 30.439 31.609 2.945 427.116 o
3 3 14 310.488 299.523 7.107 42.053 o
3 4 0 581.935 587.073 10.320 17.786 o
3 4 1 1246.370 1239.410 20.246 5.199 o
3 4 2 459.501 454.459 8.239 25.869 o
3 4 3 1122.150 1103.120 16.913 6.513 o
3 4 4 873.176 846.325 15.062 9.381 o
3 4 5 423.939 411.604 11.995 22.252 o
3 4 6 1326.950 1342.710 19.210 4.900 o
3 4 7 2213.810 2258.380 40.935 1.677 o
3 4 8 786.967 768.864 21.692 7.910 o
3 4 9 297.002 301.297 17.220 18.302 o
3 4 10 615.893 614.448 19.800 10.389 o
3 4 11 63.987 61.030 9.982 64.986 o
3 4 12 597.788 635.414 21.702 9.453 o
3 4 13 7.481 12.037 9.033 92.691 o
3 5 0 109.003 114.489 5.023 122.172 o
3 5 1 295.142 286.859 7.339 43.215 o
3 5 2 907.104 897.291 13.936 9.249 o
3 5 3 69.752 64.859 3.945 205.594 o
3 5 4 792.088 786.561 13.214 11.138 o
3 5 5 27.856 26.133 1.997 627.341 o
3 5 6 115.730 110.836 3.649 146.451 o
3 5 7 504.692 504.136 14.284 16.517 o
3 5 8 73.552 68.418 6.596 116.104 o
3 5 9 254.012 245.449 11.268 33.798 o
3 5 10 883.673 895.412 25.564 6.078 o
3 5 11 33.005 29.040 6.681 143.285 o
3 5 12 791.951 879.193 59.123 1.927 o
3 5 13 549.152 580.130 54.129 2.410 o
3 6 0 227.800 227.445 8.436 47.896 o
3 6 1 124.574 122.914 6.083 96.341 o
3 6 2 418.298 402.835 10.370 25.188 o
3 6 3 1.897 -1.524 2.897 891.174 o
3 6 4 652.029 608.054 11.212 15.467 o
3 6 5 307.470 303.757 5.738 46.546 o
3 6 6 20.603 16.151 2.195 731.587 o
3 6 7 1449.530 1475.650 35.916 2.876 o
3 6 8 894.711 920.145 22.029 6.884 o
3 6 9 7.746 -1.666 6.507 178.029 o
3 6 10 413.359 407.396 14.622 18.815 o
3 6 11 627.239 661.577 19.477 10.281 o
3 6 12 129.050 124.239 10.966 47.138 o
3 7 0 147.543 146.490 7.233 73.550 o
3 7 1 30.386 34.600 4.978 225.101 o
3 7 2 791.342 816.386 15.778 9.945 o
3 7 3 765.319 751.445 13.902 11.325 o
3 7 4 45.597 43.758 3.769 273.773 o
3 7 5 1133.060 1113.410 24.378 5.133 o
3 7 6 229.924 234.284 9.784 41.214 o
3 7 7 40.686 39.094 9.007 83.273 o
3 7 8 298.292 296.042 14.461 23.047 o
3 7 9 10.753 0.461 8.745 99.306 o
3 7 10 41.068 32.093 8.501 92.720 o
3 7 11 399.107 394.490 17.322 15.876 o
3 8 0 310.556 314.946 10.518 31.384 o
3 8 1 120.593 117.943 6.279 95.585 o
3 8 2 194.564 199.320 12.652 33.050 o
3 8 3 102.780 104.911 7.329 87.289 o
3 8 4 26.320 17.794 4.036 332.016 o
3 8 5 183.327 198.362 6.087 71.245 o
3 8 6 382.830 300.897 25.858 9.375 o
3 8 7 0.051 11.198 19.980 19.519 o
3 8 8 341.674 383.464 33.597 6.040 o
3 8 9 341.962 315.445 29.947 7.458 o
3 9 3 377.040 417.163 36.124 5.236 o
4 -4 0 2.513 4.944 7.046 154.303 o
4 -4 1 159.717 157.235 11.309 41.789 o
4 -4 2 235.726 223.305 14.875 24.787 o
4 -4 3 83.929 74.923 8.090 84.392 o
4 -4 4 714.061 708.871 17.862 10.173 o
4 -4 5 175.597 170.425 9.995 47.135 o
4 -4 6 210.796 193.311 11.813 35.489 o
4 -3 0 17.167 18.065 4.756 279.440 o
4 -3 1 193.410 182.082 10.489 42.637 o
4 -3 2 819.191 800.622 17.346 9.176 o
4 -3 3 40.858 41.118 9.043 82.469 o
4 -3 4 106.537 104.901 7.725 80.999 o
4 -3 5 276.372 275.772 12.034 29.751 o
4 -3 6 12.585 2.877 6.857 156.764 o
4 -3 7 557.328 584.369 15.991 13.611 o
4 -3 8 396.383 428.093 14.976 18.483 o
4 -2 0 65.547 67.450 5.548 148.765 o
4 -2 1 5.815 5.319 6.249 191.754 o
4 -2 2 299.650 294.248 14.371 23.213 o
4 -2 3 58.234 62.898 7.153 110.626 o
4 -2 4 46.146 57.974 7.766 102.298 o
4 -2 5 327.992 314.987 11.111 29.079 o
4 -2 6 521.787 514.057 13.781 16.612 o
4 -2 7 311.412 326.059 12.142 27.104 o
4 -2 8 415.784 435.011 14.871 18.170 o
4 -2 9 67.751 49.989 7.595 100.341 o
4 -2 10 139.718 153.494 9.217 56.772 o
4 -1 0 313.715 300.365 8.984 35.935 o
4 -1 1 141.244 135.126 5.133 101.696 o
4 -1 2 468.490 474.018 13.494 18.368 o
4 -1 3 1857.470 1850.140 35.326 2.293 o
4 -1 4 560.055 575.694 21.633 9.948 o
4 -1 5 477.698 470.190 15.666 15.871 o
4 -1 6 484.864 500.353 16.665 14.586 o
4 -1 7 6.700 -5.328 5.924 214.495 o
4 -1 8 599.891 588.462 15.547 13.355 o
4 -1 9 322.995 322.933 12.930 25.041 o
4 -1 10 2.446 8.585 6.969 156.559 o
4 -1 11 143.144 130.850 8.381 64.764 o
4 0 0 1005.320 1021.940 20.599 6.498 o
4 0 1 125.912 118.311 5.106 111.780 o
4 0 2 110.941 119.104 8.156 73.455 o
4 0 3 1119.500 1130.360 25.086 5.032 o
4 0 4 891.670 930.465 26.567 5.757 o
4 0 5 37.657 45.118 6.411 145.249 o
4 0 6 600.363 629.294 20.268 10.199 o
4 0 7 172.598 178.167 9.540 49.723 o
4 0 8 351.732 344.105 24.261 10.426 o
4 0 9 253.380 271.676 10.045 37.283 o
4 0 10 61.953 59.431 5.718 148.458 o
4 0 11 860.025 889.152 15.041 9.320 o
4 0 12 628.321 648.636 12.960 14.327 o
4 1 0 142.607 129.488 7.323 75.355 o
4 1 1 103.623 98.111 6.224 105.769 o
4 1 2 247.953 239.136 9.249 41.895 o
4 1 3 217.386 217.536 8.771 47.724 o
4 1 4 361.912 381.605 10.939 26.691 o
4 1 5 112.379 100.219 5.453 115.828 o
4 1 6 630.588 627.284 12.854 14.533 o
4 1 7 1207.020 1176.800 19.672 5.532 o
4 1 8 186.851 161.011 8.729 54.230 o
4 1 9 438.364 424.451 12.262 21.272 o
4 1 10 463.733 485.004 9.008 24.055 o
4 1 11 0.796 3.238 3.347 668.748 o
4 1 12 502.561 500.709 12.111 18.886 o
4 2 0 32.561 36.756 5.186 208.167 o
4 2 1 1317.680 1351.290 24.376 4.306 o
4 2 2 217.415 212.208 6.336 61.981 o
4 2 3 82.970 85.215 3.852 181.580 o
4 2 4 889.125 881.878 15.353 9.014 o
4 2 5 222.620 217.458 7.562 53.622 o
4 2 6 2.490 5.946 3.892 481.171 o
4 2 7 886.345 879.223 19.196 7.841 o
4 2 8 405.783 383.047 9.560 27.515 o
4 2 9 316.052 299.794 7.048 41.738 o
4 2 10 807.601 806.007 13.195 10.874 o
4 2 11 82.598 83.946 4.799 153.289 o
4 2 12 234.137 257.585 11.916 32.377 o
4 2 13 321.208 345.385 14.744 21.348 o
4 3 0 180.735 187.684 7.950 58.602 o
4 3 1 79.711 72.026 4.609 166.285 o
4 3 2 487.585 489.448 9.487 22.541 o
4 3 3 28.804 23.320 3.252 412.412 o
4 3 4 450.711 454.407 10.081 23.568 o
4 3 5 891.616 890.703 15.143 9.026 o
4 3 6 10.807 9.006 3.441 523.429 o
4 3 7 308.694 318.292 8.077 38.395 o
4 3 8 360.939 372.817 8.936 31.174 o
4 3 9 0.114 -1.367 3.006 862.427 o
4 3 10 223.298 239.345 7.441 52.850 o
4 3 11 274.746 274.597 15.033 22.782 o
4 3 12 149.012 148.695 6.391 81.804 o
4 3 13 522.955 529.081 17.032 13.587 o
4 4 0 436.731 439.325 12.315 21.042 o
4 4 1 3.428 4.649 4.057 443.784 o
4 4 2 1135.470 1125.750 18.420 6.128 o
4 4 3 541.493 527.620 9.902 19.909 o
4 4 4 4.797 7.042 3.099 693.430 o
4 4 5 992.334 983.175 16.132 7.723 o
4 4 6 6.201 6.641 4.659 330.849 o
4 4 7 307.615 294.382 7.541 41.113 o
4 4 8 398.019 398.056 14.781 19.015 o
4 4 9 217.104 211.560 5.548 67.078 o
4 4 10 452.495 455.436 15.087 17.037 o
4 4 11 473.956 438.554 26.849 8.155 o
4 4 12 28.833 17.068 8.801 91.758 o
4 5 0 123.960 132.354 6.237 92.871 o
4 5 1 316.187 309.384 8.596 36.622 o
4 5 2 266.764 258.570 7.589 46.307 o
4 5 3 33.569 23.061 4.709 247.736 o
4 5 4 210.922 216.180 9.198 46.227 o
4 5 5 25.425 24.645 4.012 327.227 o
4 5 6 1832.680 1784.430 40.275 2.110 o
4 5 7 8.081 6.381 2.517 908.550 o
4 5 8 360.158 404.320 30.962 6.879 o
4 5 9 420.544 452.256 17.744 14.744 o
4 5 10 14.375 19.361 11.277 59.170 o
4 5 11 723.793 772.117 27.959 6.213 o
4 5 12 282.849 303.008 21.286 13.509 o
4 6 0 71.626 89.892 9.426 68.069 o
4 6 1 272.389 279.596 10.085 35.718 o
4 6 2 22.535 22.248 4.500 287.684 o
4 6 3 702.274 702.396 13.453 12.595 o
4 6 4 5.421 5.965 3.521 555.021 o
4 6 5 70.458 73.503 4.074 194.081 o
4 6 6 800.152 785.960 18.664 8.873 o
4 6 7 57.054 62.741 5.700 151.268 o
4 6 8 42.017 50.119 12.208 47.856 o
4 6 9 588.605 605.086 21.691 9.621 o
4 6 10 231.852 245.735 16.583 21.033 o
4 6 11 92.273 94.200 9.671 62.408 o
4 7 0 87.895 91.996 6.479 108.117 o
4 7 1 520.446 522.058 12.283 18.058 o
4 7 2 162.604 137.979 8.631 59.383 o
4 7 3 555.441 558.877 12.745 16.527 o
4 7 4 300.510 299.282 9.119 36.422 o
4 7 5 287.745 270.197 8.008 42.204 o
4 7 6 84.734 91.910 3.219 196.142 o
4 7 7 240.278 210.030 35.511 5.770 o
4 7 8 2.062 2.680 11.337 60.477 o
4 7 9 60.431 49.106 9.288 74.680 o
4 8 0 5.295 7.400 7.422 137.368 o
4 8 1 5.814 3.602 5.747 226.127 o
4 8 2 233.739 234.772 9.457 42.307 o
4 8 3 10.805 1.267 4.855 302.091 o
4 8 4 144.844 150.152 8.788 59.691 o
4 8 5 64.681 64.947 6.263 129.249 o
4 8 6 111.186 118.211 8.002 75.246 o
5 -2 0 8.440 1.088 10.880 65.019 o
5 -2 1 86.450 100.918 8.893 70.940 o
5 -2 2 21.601 13.788 7.687 120.385 o
5 -2 3 168.721 159.545 9.785 49.492 o
5 -2 4 324.022 310.831 14.412 22.289 o
5 -2 5 17.531 17.030 7.992 112.944 o
5 -1 0 33.661 25.926 4.356 272.487 o
5 -1 1 667.971 653.099 16.809 11.403 o
5 -1 2 57.688 47.087 7.437 107.339 o
5 -1 3 38.823 31.742 7.263 121.671 o
5 -1 4 60.528 74.619 9.297 72.461 o
5 -1 5 176.795 175.737 15.928 24.362 o
5 -1 6 16.291 3.590 7.481 131.069 o
5 -1 7 398.045 394.489 14.404 19.576 o
5 -1 8 20.694 8.096 8.236 107.229 o
5 0 0 207.253 194.686 7.075 60.222 o
5 0 1 21.396 6.022 6.336 173.229 o
5 0 2 1167.410 1190.930 27.715 4.432 o
5 0 3 95.351 93.813 7.367 90.131 o
5 0 4 293.537 297.252 11.825 29.139 o
5 0 5 246.191 252.950 12.217 31.004 o
5 0 6 15.445 13.353 6.116 186.528 o
5 0 7 218.730 216.042 9.664 43.314 o
5 0 8 203.898 218.340 14.779 25.969 o
5 0 9 109.951 117.039 7.945 76.275 o
5 1 0 32.251 29.502 6.913 135.716 o
5 1 1 40.952 33.431 4.484 242.347 o
5 1 2 124.488 126.523 8.408 67.792 o
5 1 3 8.343 3.238 5.459 245.756 o
5 1 4 38.726 45.827 6.987 126.377 o
5 1 5 428.976 442.024 14.230 18.641 o
5 1 6 160.518 163.651 9.552 51.572 o
5 1 7 203.629 207.672 10.048 43.031 o
5 1 8 473.101 505.971 13.849 17.547 o
5 1 9 385.440 377.517 13.467 21.482 o
5 1 10 18.793 9.062 6.264 177.674 o
5 2 0 51.637 56.116 13.027 41.821 o
5 2 1 30.762 30.326 4.623 252.700 o
5 2 2 238.262 240.661 8.966 43.837 o
5 2 3 723.102 725.968 17.373 10.252 o
5 2 4 148.577 155.370 11.346 42.408 o
5 2 5 28.341 35.300 5.996 171.673 o
5 2 6 973.652 955.675 18.015 7.442 o
5 2 7 2.559 5.217 5.351 263.393 o
5 2 8 182.681 177.891 9.838 47.074 o
5 2 9 119.810 110.571 6.998 86.738 o
5 2 10 9.869 16.277 6.157 188.060 o
5 3 0 175.716 169.547 11.851 37.890 o
5 3 1 330.474 316.381 10.118 31.391 o
5 3 2 19.887 10.310 4.485 309.883 o
5 3 3 323.104 331.165 12.081 26.715 o
5 3 4 7.266 15.366 9.223 88.726 o
5 3 5 0.455 15.293 5.855 217.683 o
5 3 6 237.227 258.657 10.803 35.954 o
5 3 7 127.695 119.019 7.429 78.447 o
5 3 8 19.509 30.445 11.813 53.269 o
5 3 9 418.127 427.623 14.099 19.195 o
5 3 10 89.524 84.791 6.552 107.450 o
5 4 0 108.932 108.301 9.320 62.644 o
5 4 1 215.033 222.665 11.266 36.548 o
5 4 2 86.436 72.289 5.335 139.779 o
5 4 3 235.065 225.793 8.873 45.192 o
5 4 4 143.180 146.447 8.676 61.076 o
5 4 5 12.669 8.154 4.693 307.599 o
5 4 6 196.440 217.907 10.309 41.959 o
5 4 7 320.393 315.761 11.269 29.008 o
5 4 8 29.293 23.737 5.411 206.723 o
5 4 9 194.300 198.541 11.464 37.646 o
5 4 10 499.033 466.529 14.961 16.263 o
5 5 0 29.795 22.380 5.879 181.543 o
5 5 1 14.388 20.737 5.367 230.889 o
5 5 2 223.346 212.152 9.742 42.744 o
5 5 3 38.923 30.568 6.520 145.034 o
5 5 4 846.403 861.783 16.029 9.203 o
5 5 5 292.444 280.861 13.291 25.921 o
5 5 6 78.029 64.404 7.153 103.407 o
5 5 7 324.837 313.204 25.684 9.727 o
5 5 8 160.245 159.479 8.212 61.518 o
5 5 9 17.475 19.312 4.704 282.466 o
5 6 0 74.483 69.780 7.094 104.863 o
5 6 1 289.867 289.093 10.134 34.261 o
5 6 2 68.943 70.780 5.830 137.209 o
5 6 3 1.267 -4.505 4.715 347.489 o
5 6 4 8.782 2.087 4.553 344.217 o
5 6 5 197.523 207.169 7.577 57.464 o
5 6 6 47.759 47.769 6.376 139.688 o
5 6 7 181.718 182.458 7.435 62.558 o
5 6 8 207.716 193.465 10.327 41.944 o
5 7 1 3.762 -11.794 8.860 98.609 o
5 7 2 256.632 273.306 11.691 31.656 o
5 7 3 143.276 123.894 6.593 84.086 o
5 7 4 11.994 4.424 5.083 272.301 o
5 7 5 289.564 305.667 11.851 29.064 o
6 2 2 202.269 200.800 14.116 28.075 o
6 2 3 1.550 7.780 9.740 81.436 o
6 3 2 17.460 11.895 10.590 66.840 o
6 3 3 3.258 5.428 7.718 128.614 o
6 3 4 4.322 0.165 9.607 83.874 o
;
loop_
_space_group_symop_id
_space_group_symop_operation_xyz
1 x,y,z
2 -x,-y,-z
loop_
_atom_site_label
_atom_site_type_symbol
_atom_site_fract_x
_atom_site_fract_y
_atom_site_fract_z
_atom_site_U_iso_or_equiv
_atom_site_adp_type
_atom_site_occupancy
_atom_site_refinement_flags_posn
Br1 Br 0.76797(5) 0.08612(3) 0.823044(18) 0.02095(8) Uani 1.000000 .
C1 C 0.5975(4) 0.4959(3) 0.79963(16) 0.0114(4) Uani 1.000000 .
C2 C 0.5992(4) 0.3320(3) 0.75373(16) 0.0117(4) Uani 1.000000 .
C3 C 0.4436(4) 0.3504(3) 0.66412(17) 0.0125(4) Uani 1.000000 .
C4 C 0.2717(4) 0.5296(3) 0.62740(17) 0.0145(4) Uani 1.000000 .
H4 H 0.1610(4) 0.5414(3) 0.56848(17) 0.0174(5) Uiso 1.000000 R
C5 C 0.2597(5) 0.6911(3) 0.67535(18) 0.0162(4) Uani 1.000000 .
H5 H 0.1381(5) 0.8121(3) 0.65085(18) 0.0194(5) Uiso 1.000000 R
C6 C 0.4265(5) 0.6740(3) 0.75926(17) 0.0148(4) Uani 1.000000 .
H6 H 0.4250(5) 0.7852(3) 0.79004(17) 0.0178(5) Uiso 1.000000 R
C7 C 0.7764(4) 0.4919(3) 0.88843(17) 0.0128(4) Uani 1.000000 .
C8 C 0.4642(5) 0.1883(3) 0.59985(17) 0.0133(4) Uani 1.000000 .
O1 O 0.6806(3) 0.6476(2) 0.94095(13) 0.0187(3) Uani 1.000000 .
H1 H 0.792(3) 0.6424(18) 0.9876(17) 0.0280(5) Uiso 1.000000 GR
O2 O 0.9923(3) 0.3629(2) 0.90761(13) 0.0185(3) Uani 1.000000 .
O3 O 0.6813(3) 0.0537(2) 0.58514(13) 0.0187(3) Uani 1.000000 .
O4 O 0.2260(3) 0.2132(2) 0.55388(13) 0.0197(3) Uani 1.000000 .
H4a H 0.251(2) 0.123(2) 0.5151(19) 0.0295(5) Uiso 1.000000 GR
loop_
_atom_site_aniso_label
_atom_site_aniso_U_11
_atom_site_aniso_U_22
_atom_site_aniso_U_33
_atom_site_aniso_U_12
_atom_site_aniso_U_13
_atom_site_aniso_U_23
Br1 0.03297(14) 0.01061(11) 0.02011(12) 0.00080(8) -0.01580(9) -0.00284(8)
C1 0.0116(10) 0.0129(9) 0.0100(9) -0.0032(8) -0.0015(7) -0.0022(7)
C2 0.0097(9) 0.0123(9) 0.0121(9) -0.0008(7) -0.0018(8) -0.0023(7)
C3 0.0131(10) 0.0142(9) 0.0112(9) -0.0037(8) -0.0023(8) -0.0038(8)
C4 0.0135(10) 0.0174(10) 0.0130(10) -0.0025(8) -0.0045(8) -0.0026(8)
C5 0.0178(11) 0.0119(9) 0.0180(10) -0.0004(8) -0.0062(8) -0.0017(8)
C6 0.0178(11) 0.0114(9) 0.0160(10) -0.0033(8) -0.0035(8) -0.0036(8)
C7 0.0146(10) 0.0133(9) 0.0123(9) -0.0061(8) -0.0017(8) -0.0030(7)
C8 0.0164(10) 0.0131(9) 0.0119(9) -0.0043(8) -0.0046(8) -0.0019(8)
O1 0.0223(8) 0.0163(7) 0.0200(8) -0.0006(6) -0.0113(6) -0.0087(6)
O2 0.0161(8) 0.0199(7) 0.0206(8) 0.0003(6) -0.0081(6) -0.0089(6)
O3 0.0191(8) 0.0171(7) 0.0213(8) 0.0005(6) -0.0098(6) -0.0090(6)
O4 0.0161(8) 0.0204(8) 0.0268(9) -0.0013(6) -0.0113(6) -0.0125(7)
loop_
_atom_type_symbol
_atom_type_scat_dispersion_real
_atom_type_scat_dispersion_imag
_atom_type_scat_Cromer_Mann_a1
_atom_type_scat_Cromer_Mann_a2
_atom_type_scat_Cromer_Mann_a3
_atom_type_scat_Cromer_Mann_a4
_atom_type_scat_Cromer_Mann_b1
_atom_type_scat_Cromer_Mann_b2
_atom_type_scat_Cromer_Mann_b3
_atom_type_scat_Cromer_Mann_b4
_atom_type_scat_Cromer_Mann_c
_atom_type_scat_source
_atom_type_scat_dispersion_source
H 0.00000 0.00000 0.49300 0.32291 0.14019 0.04081 10.51090 26.12570 3.14236
57.79970 0.0030380000826
'International Tables Volume C Table 6.1.1.4 (pp. 500-502)'
'Henke, Gullikson and Davis, At. Data and Nucl. Data Tables, 1993, 54, 2'
C 0.00347 0.00161 2.31000 1.02000 1.58860 0.86500 20.84390 10.20750 0.56870
51.65120 0.215599998832
'International Tables Volume C Table 6.1.1.4 (pp. 500-502)'
'Henke, Gullikson and Davis, At. Data and Nucl. Data Tables, 1993, 54, 2'
Br -0.28346 2.55990 17.17890 5.23580 5.63770 3.98510 2.17230 16.57960 0.26090
41.43280 2.95569992065
'International Tables Volume C Table 6.1.1.4 (pp. 500-502)'
'Henke, Gullikson and Davis, At. Data and Nucl. Data Tables, 1993, 54, 2'
O 0.01158 0.00611 3.04850 2.28680 1.54630 0.86700 13.27710 5.70110 0.32390
32.90890 0.250800013542
'International Tables Volume C Table 6.1.1.4 (pp. 500-502)'
'Henke, Gullikson and Davis, At. Data and Nucl. Data Tables, 1993, 54, 2'
loop_
_geom_angle_atom_site_label_1
_geom_angle_atom_site_label_2
_geom_angle_atom_site_label_3
_geom_angle
_geom_angle_site_symmetry_1
_geom_angle_site_symmetry_3
C6 C1 C2 119.20(18) . .
C7 C1 C2 123.37(17) . .
C7 C1 C6 117.40(17) . .
C1 C2 Br1 120.56(14) . .
C3 C2 Br1 119.35(14) . .
C3 C2 C1 119.65(17) . .
C4 C3 C2 119.43(17) . .
C8 C3 C2 123.48(17) . .
C8 C3 C4 116.99(17) . .
H4 C4 C3 119.44(11) . .
C5 C4 C3 121.13(18) . .
C5 C4 H4 119.44(12) . .
H5 C5 C4 120.38(12) . .
C6 C5 C4 119.25(18) . .
C6 C5 H5 120.38(11) . .
C5 C6 C1 121.17(18) . .
H6 C6 C1 119.42(11) . .
H6 C6 C5 119.42(11) . .
O1 C7 C1 112.36(17) . .
O2 C7 C1 123.97(17) . .
O2 C7 O1 123.63(18) . .
O3 C8 C3 124.25(18) . .
O4 C8 C3 112.42(17) . .
O4 C8 O3 123.19(18) . .
H1 O1 C7 109.5 . .
H4a O4 C8 109.5 . .
loop_
_geom_bond_atom_site_label_1
_geom_bond_atom_site_label_2
_geom_bond_distance
_geom_bond_site_symmetry_2
Br1 C2 1.8895(19) .
C1 C2 1.404(3) .
C1 C6 1.399(3) .
C1 C7 1.495(3) .
C2 C3 1.403(3) .
C3 C4 1.394(3) .
C3 C8 1.496(3) .
C4 H4 0.9500 .
C4 C5 1.386(3) .
C5 H5 0.9500 .
C5 C6 1.382(3) .
C6 H6 0.9500 .
C7 O1 1.318(2) .
C7 O2 1.217(2) .
C8 O3 1.217(2) .
C8 O4 1.323(2) .
O1 H1 0.8400 .
O4 H4a 0.8400 .
loop_
_refln_index_h
_refln_index_k
_refln_index_l
_refln_F_squared_meas
_refln_F_squared_sigma
-1 0 0 1050.39 34.3
-1 0 0 1074.79 34.3
1 0 0 1101.19 34.4
1 0 0 1141.99 34.4
-2 0 0 3748.32 112.39
-2 0 0 3693.63 112.49
2 0 0 3640.04 112.39
2 0 0 3627.04 112.49
-3 0 0 -5.5 7.5
-3 0 0 11.3 7.6
3 0 0 -3.2 7.8
3 0 0 3.2 7.7
-4 0 0 1076.09 43.6
-4 0 0 1095.99 44.1
4 0 0 1093.09 43.9
4 0 0 1102.99 44.5
-5 0 0 229.18 27
-5 0 0 206.68 11.2
-5 0 0 224.68 22.6
-5 0 0 213.28 22.4
5 0 0 208.88 22.6
5 0 0 170.68 21.1
5 -1 0 24.8 17.2
5 -1 0 36.5 18.7
5 -1 0 40.5 18.7
-5 1 0 15.2 18.1
-5 1 0 35.9 17.6
-5 1 0 24.7 5.7
4 -1 0 310.47 24.3
4 -1 0 314.87 36.2
-4 1 0 342.77 25.5
-4 1 0 306.27 24.4
-4 1 0 322.77 13.9
3 -1 0 5.8 8.9
-3 1 0 5.3 3.8
-3 1 0 5.3 8.8
-3 1 0 -3.2 8.4
2 -1 0 1868.51 59.69
2 -1 0 1900.21 59.89
-2 1 0 1794.82 56.29
-2 1 0 1896.01 59.69
-2 1 0 1824.52 59.59
1 -1 0 266.77 11.1
1 -1 0 253.97 11.1
1 -1 0 258.77 11.2
-1 1 0 287.97 11.3
-1 1 0 252.97 11
-1 1 0 252.77 9.3
0 -1 0 63.99 3.4
0 -1 0 55.09 3.3
0 -1 0 56.29 4
0 -1 0 65.79 3.3
0 1 0 61.79 3.3
0 1 0 56.69 3.3
0 1 0 59.49 3.4
0 1 0 63.59 3.9
-1 -1 0 1799.42 53.79
-1 -1 0 1672.23 53.69
-1 -1 0 1837.32 53.39
1 1 0 1768.42 53.79
1 1 0 1723.13 53.79
-2 -1 0 1700.63 53.79
-2 -1 0 1704.03 53.89
-2 -1 0 1686.63 52.39
2 1 0 1651.13 53.79
2 1 0 1655.53 53.89
-3 -1 0 640.94 27
-3 -1 0 640.04 27.1
-3 -1 0 662.93 24.7
3 1 0 631.44 27.3
3 1 0 652.03 27
-4 -1 0 133.99 14.5
-4 -1 0 126.99 17.3
4 1 0 150.28 16
4 1 0 139.39 15.2
-5 -1 0 34.8 12.8
-5 -1 0 17.8 14.9
5 1 0 38.6 15.4
5 1 0 35 16.9
5 -2 0 29.3 20.1
5 -2 0 -20 18.9
5 -2 0 32.2 18
-5 2 0 -19 18.1
-5 2 0 -14.6 17.7
4 -2 0 90.39 15.9
4 -2 0 84.69 15.7
-4 2 0 56.09 15.3
-4 2 0 63.79 15.8
-4 2 0 67.99 7.5
3 -2 0 864.91 35.5
3 -2 0 860.01 36.4
3 -2 0 903.71 34.7
-3 2 0 867.41 35.4
-3 2 0 862.41 35.3
-3 2 0 838.02 29.1
2 -2 0 1040.7 37.3
2 -2 0 1070.39 37.9
2 -2 0 1075.19 37.6
-2 2 0 1050.59 37.2
-2 2 0 1035.6 37.4
-2 2 0 1044.6 33.9
1 -2 0 1461.75 45.9
1 -2 0 1515.35 48
1 -2 0 1500.45 47.3
1 -2 0 1473.35 47.4
-1 2 0 1486.35 47.5
-1 2 0 1470.55 45.9
-1 2 0 1465.25 47.2
-1 2 0 1512.45 47.9
0 -2 0 457.15 16.9
0 -2 0 458.35 15.7
0 -2 0 445.56 15.6
0 -2 0 447.06 15.8
0 2 0 455.55 16.8
0 2 0 444.76 15.7
0 2 0 441.46 15.6
0 2 0 447.36 15.8
-1 -2 0 2977.2 89.99
-1 -2 0 3125.89 90.49
-1 -2 0 2930.11 89.89
1 2 0 2987.8 90.99
1 2 0 3108.39 88.69
1 2 0 2933.01 89.99
1 2 0 2860.51 89.99
-2 -2 0 742.63 26.9
-2 -2 0 786.22 26.3
-2 -2 0 761.82 27.2
2 2 0 735.63 27.3
2 2 0 775.72 27.3
-3 -2 0 765.12 30.3
-3 -2 0 764.12 30
-3 -2 0 734.53 27.8
3 2 0 769.02 30.6
3 2 0 789.62 30.6
-4 -2 0 32.4 11.2
-4 -2 0 41.2 9.8
4 2 0 23.1 11.7
4 2 0 52.69 11.7
-5 -2 0 -1.2 18
-5 -2 0 68.39 13.9
-5 -2 0 73.19 16.9
5 2 0 73.59 16.2
4 -3 0 30.4 16.4
4 -3 0 20.5 14.2
4 -3 0 0.4 14.7
-4 3 0 23.3 15.3
-4 3 0 9.2 15.3
-4 3 0 25.7 7.7
3 -3 0 1861.91 73.59
3 -3 0 1985.1 67.99
3 -3 0 2000.8 68.79
-3 3 0 1974.6 62.59
-3 3 0 1953.7 68.49
-3 3 0 2049.09 68.39
2 -3 0 11.6 8.7
2 -3 0 18.3 8.1
2 -3 0 10.6 8.1
-2 3 0 11.3 5.6
-2 3 0 8.2 7.4
1 -3 0 4200.28 125.19
1 -3 0 4053.89 123.49
1 -3 0 4064.69 124.79
1 -3 0 4095.79 126.09
-1 3 0 4177.68 125.89
-1 3 0 4003 123.59
-1 3 0 4033.8 124.79
-1 3 0 4162.78 125.19
0 -3 0 194.38 10
0 -3 0 191.78 10.2
0 -3 0 199.08 12.2
0 -3 0 202.58 10.6
0 3 0 200.58 10.5
0 3 0 191.58 10.2
0 3 0 208.18 10.4
0 3 0 198.48 12
-1 -3 0 3375.06 102.69
-1 -3 0 3425.46 102.39
-1 -3 0 3418.26 100.49
-1 -3 0 3385.46 102.59
-1 -3 0 3329.57 103.79
1 3 0 3356.76 102.39
1 3 0 3443.46 104.09
1 3 0 3351.76 102.59
-2 -3 0 599.14 22.7
-2 -3 0 621.54 22.9
-2 -3 0 602.44 23.1
2 3 0 602.74 24.5
2 3 0 590.54 23
2 3 0 611.54 23.4
-3 -3 0 371.96 19.5
-3 -3 0 395.36 20.7
-3 -3 0 390.86 19.1
3 3 0 398.46 21.5
3 3 0 439.36 19.7
-4 -3 0 195.18 16.2
-4 -3 0 179.68 18.7
-4 -3 0 188.38 20.3
4 3 0 213.58 20.3
4 3 0 226.18 20.7
-5 -3 0 121.59 16.9
-5 -3 0 207.48 20.8
-5 -3 0 190.68 20.8
-5 -3 0 196.88 16.3
5 3 0 206.18 21.8
5 3 0 147.39 18.9
4 -4 0 4.7 16.7
4 -4 0 4 15.6
4 -4 0 1.9 18.2
-4 4 0 13.9 16.7
-4 4 0 1.6 17.3
3 -4 0 386.16 26.6
3 -4 0 356.06 25.4
-3 4 0 352.86 20
-3 4 0 396.36 26.6
-3 4 0 427.26 26.7
2 -4 0 32.1 10
2 -4 0 22.2 9.9
2 -4 0 27.1 11.4
-2 4 0 34 7.7
-2 4 0 46.2 10.3
-2 4 0 44.5 10.6
1 -4 0 2572.14 80.89
1 -4 0 2581.04 82.59
1 -4 0 2641.64 82.49
1 -4 0 2612.44 84.39
-1 4 0 2580.74 82.59
-1 4 0 2626.84 83.99
-1 4 0 2644.84 82.49
-1 4 0 2574.24 81.19
0 -4 0 796.72 28.8
0 -4 0 806.82 31.2
0 -4 0 810.02 28.6
0 -4 0 825.92 28.7
0 4 0 804.72 28.7
0 4 0 797.52 28.8
0 4 0 825.72 31.1
0 4 0 790.52 28.9
-1 -4 0 2170.98 67.79
-1 -4 0 2177.18 67.99
-1 -4 0 2115.79 67.09
-1 -4 0 2183.88 69.79
-1 -4 0 2030.5 66.19
1 4 0 2165.58 67.49
1 4 0 2188.38 69.79
1 4 0 2223.48 67.79
-2 -4 0 19.2 6.6
-2 -4 0 20.5 6.3
-2 -4 0 21.7 6.7
2 4 0 20.3 6.3
2 4 0 9.8 7.9
2 4 0 16.4 6.5
-3 -4 0 622.44 25.8
-3 -4 0 623.14 27.1
-3 -4 0 619.14 26.3
-3 -4 0 596.34 26.4
3 4 0 602.44 25.7
3 4 0 606.14 27.2
3 4 0 722.13 28.9
-4 -4 0 461.85 25.2
-4 -4 0 465.75 27
-4 -4 0 480.95 25.3
4 4 0 468.15 28.1
-5 -4 0 100.49 15.1
-5 -4 0 113.49 17.9
5 4 0 136.99 19.7
3 -5 0 342.77 27.2
3 -5 0 311.97 28.9
3 -5 0 378.16 33.6
-3 5 0 364.16 28.7
-3 5 0 347.87 28.6
2 -5 0 1258.37 50.09
-2 5 0 1286.27 47.9
-2 5 0 1219.58 47.2
-2 5 0 1242.28 44
-2 5 0 1194.78 49.1
1 -5 0 528.05 23.9
1 -5 0 485.45 27.2
1 -5 0 523.55 25
-1 5 0 514.95 23.8
-1 5 0 497.85 23.9
-1 5 0 487.65 26.1
-1 5 0 510.95 24.4
0 -5 0 1937.81 65.49
0 -5 0 1987.2 62.19
0 -5 0 1887.61 62.09
0 -5 0 1885.11 62.59
0 5 0 1904.01 62.49
-1 -5 0 899.81 36.4
-1 -5 0 924.11 33.6
-1 -5 0 936.91 33
-1 -5 0 986.4 33.6
-1 -5 0 948.51 30
1 5 0 955.4 33.9
1 5 0 904.61 33.3
1 5 0 878.01 35.4
-2 -5 0 1124.79 39.6
2 5 0 1113.79 40.3
2 5 0 1209.68 42.7
-3 -5 0 110.09 12.7
-3 -5 0 128.99 14
-3 -5 0 108.49 11.6
3 5 0 122.09 12.6
3 5 0 124.79 13.4
3 5 0 145.19 15.6
-4 -5 0 168.08 16.9
-4 -5 0 127.59 15.9
-4 -5 0 127.09 14.8
4 5 0 151.98 18.6
4 5 0 132.99 15.7
4 5 0 140.49 16.8
-5 -5 0 43.2 16.8
-5 -5 0 22 14.7
-5 -5 0 23.2 13
5 5 0 30.8 15
5 5 0 15.4 17.5
5 5 0 8.2 16.8
3 -6 0 7.1 17.3
3 -6 0 -19.4 20.6
3 -6 0 7.8 16.6
-3 6 0 24.5 17.8
-3 6 0 6.5 17.6
2 -6 0 777.52 41.5
2 -6 0 843.82 37.5
-2 6 0 792.62 39
-2 6 0 832.82 39.9
1 -6 0 -6.9 8.7
1 -6 0 -2.2 14.8
1 -6 0 -1.3 9.7
-1 6 0 16.9 12.4
-1 6 0 9.5 10.5
-1 6 0 2.6 9.9
0 -6 0 155.98 16.5
0 -6 0 173.48 15.8
0 -6 0 144.89 19.3
0 6 0 150.08 15.2
0 6 0 170.68 19.1
0 6 0 195.78 17.2
-1 -6 0 952.3 30.9
-1 -6 0 941.31 34.9
-1 -6 0 895.71 39.5
-1 -6 0 941.31 35.9
-1 -6 0 964.7 36
1 6 0 952.4 35.8
1 6 0 909.21 34.8
1 6 0 874.81 38.6
-2 -6 0 1216.58 42.8
-2 -6 0 1216.68 44.6
2 6 0 1205.78 47.5
2 6 0 1246.88 44
2 6 0 1203.38 43.3
-3 -6 0 257.17 19.7
-3 -6 0 234.48 19.9
-3 -6 0 232.48 17.9
3 6 0 224.78 20.7
3 6 0 270.37 23.9
-4 -6 0 118.49 14.8
-4 -6 0 122.29 15
-4 -6 0 87.49 15.1
4 6 0 59.49 13.7
4 6 0 87.79 17.9
4 6 0 62.99 15
-5 -6 0 88.39 17.4
-5 -6 0 77.39 19.5
-5 -6 0 67.79 16.6
5 6 0 69.29 17.3
5 6 0 72.79 20.2
5 6 0 64.19 22.1
2 -7 0 760.22 40.9
2 -7 0 768.02 39.3
2 -7 0 689.23 44.4
-2 7 0 770.82 41.7
-2 7 0 688.93 39.2
-2 7 0 710.33 39.3
1 -7 0 96.09 19
1 -7 0 95.79 15.3
1 -7 0 115.09 14.4
-1 7 0 112.69 18.4
-1 7 0 111.39 16.1
-1 7 0 131.89 16.5
0 -7 0 2174.78 73.09
0 -7 0 2161.78 70.89
0 -7 0 2179.08 73.19
0 7 0 2102.69 76.99
0 7 0 2235.88 74.19
0 7 0 2202.48 74.09
-1 -7 0 28.6 11.4
-1 -7 0 25.7 7
-1 -7 0 45.1 10.5
1 7 0 31.9 10.5
1 7 0 27.2 13.6
1 7 0 28.2 10.9
-2 -7 0 179.18 16.9
-2 -7 0 154.08 16.3
2 7 0 171.28 19.5
2 7 0 216.28 19
2 7 0 192.98 19.1
-3 -7 0 153.08 17.4
-3 -7 0 150.48 18.2
3 7 0 145.49 15
3 7 0 173.78 20.1
3 7 0 163.88 16.9
-4 -7 0 120.79 18.5
-4 -7 0 90.39 16.9
-4 -7 0 85.59 14.6
4 7 0 95.89 15.5
4 7 0 84.49 17.2
4 7 0 116.19 21.3
1 -8 0 606.34 34
1 -8 0 604.84 32.5
1 -8 0 642.34 37.1
1 -8 0 621.94 45
-1 8 0 546.75 35.2
-1 8 0 587.04 39.4
-1 8 0 643.84 36.1
0 -8 0 162.28 17.8
0 -8 0 134.69 16.8
0 -8 0 139.79 17.6
0 -8 0 110.59 20.9
0 8 0 132.99 17.6
0 8 0 207.98 23.7
0 8 0 123.09 20.7
-1 -8 0 299.87 22.7
-1 -8 0 323.67 24.5
-1 -8 0 316.67 16.1
-1 -8 0 301.57 25.7
-1 -8 0 275.67 30.1
1 8 0 330.77 23.9
1 8 0 291.07 24.6
1 8 0 302.27 29.5
-2 -8 0 24.5 13.7
-2 -8 0 3.9 10.7
2 8 0 25.8 12.1
2 8 0 8.8 17
2 8 0 -2.7 12.3
-3 -8 0 329.37 24.2
-3 -8 0 351.96 29
-3 -8 0 328.97 27.7
3 8 0 340.07 25.4
3 8 0 359.56 28.7
3 8 0 297.37 32.4
-4 -8 0 1.3 13.8
-4 -8 0 28.6 17.4
-4 -8 0 -25.1 16.8
4 8 0 30.5 18.4
4 8 0 -5.7 20.6
4 8 0 17.8 14.4
-1 -9 0 570.04 34.1
-1 -9 0 514.55 22.3
-1 -9 0 565.64 36.4
-1 -9 0 542.15 43.2
1 9 0 523.55 35.6
1 9 0 557.84 40
1 9 0 557.14 33
-2 -9 0 33.2 16.2
-2 -9 0 2.1 12.8
2 9 0 -1.5 20.4
2 9 0 5.1 15.8
2 9 0 19.5 14.2
3 8 -1 73.69 15.8
3 8 -1 104.49 21.6
3 8 -1 60.29 17.7
-3 -8 1 69.19 17.9
-3 -8 1 80.19 15
-3 -8 1 81.49 17.4
2 8 -1 396.06 28.6
2 8 -1 389.96 33
2 8 -1 376.96 27.2
-2 -8 1 428.76 26.2
-2 -8 1 395.36 28.6
1 8 -1 218.68 23.3
1 8 -1 213.68 23.8
1 8 -1 200.68 23.2
-1 -8 1 250.07 23.3
-1 -8 1 183.78 11
-1 -8 1 202.58 24.3
-1 -8 1 197.48 23.4
0 8 -1 914.41 41.2
0 8 -1 789.42 40.1
0 8 -1 770.32 44
0 -8 1 827.92 45
0 -8 1 897.71 39.1
0 -8 1 793.42 33.1
0 -8 1 911.51 41.3
0 -8 1 850.81 38.3
-1 8 -1 201.18 22.1
-1 8 -1 166.98 24.1
-1 8 -1 178.28 21.5
1 -8 1 213.68 25
1 -8 1 176.08 21.4
1 -8 1 163.48 26.2
1 -8 1 173.18 18.7
4 7 -1 37.9 14.3
4 7 -1 32 19
4 7 -1 1.3 15.8
-4 -7 1 41.7 16.1
-4 -7 1 7.4 16.4
3 7 -1 395.56 28.5
3 7 -1 335.77 24.1
3 7 -1 381.46 30.9
-3 -7 1 350.86 24.7
-3 -7 1 447.06 28
-3 -7 1 368.06 26.6
2 7 -1 100.99 13.6
2 7 -1 99.69 14.5
2 7 -1 86.79 17.2
-2 -7 1 93.79 14.7
-2 -7 1 109.49 13.2
1 7 -1 1399.76 54.69
1 7 -1 1352.16 50.69
1 7 -1 1362.36 50.79
-1 -7 1 1360.76 49.8
-1 -7 1 1373.16 43.2
-1 -7 1 1400.36 50.79
0 7 -1 6.5 11.5
0 7 -1 17.1 11.9
0 7 -1 44.7 15.3
0 -7 1 13.9 11.4
0 -7 1 51.39 10.2
0 -7 1 12.1 8.9
-1 7 -1 1249.88 50.39
-1 7 -1 1195.18 52.49
-1 7 -1 1258.67 50.49
1 -7 1 1222.28 49.9
1 -7 1 1187.68 53.69
1 -7 1 1295.97 47.4
1 -7 1 1277.17 49.5
-2 7 -1 51.99 19.2
-2 7 -1 50.89 18.2
-2 7 -1 49.99 17.7
2 -7 1 25.9 17.3
2 -7 1 27.7 21
2 -7 1 44.7 17.2
5 6 -1 34.3 24.4
5 6 -1 39.9 17.7
5 6 -1 9.8 19.5
-5 -6 1 30.1 17.7
-5 -6 1 53.09 17.3
-5 -6 1 23.2 18.3
4 6 -1 89.59 15.5
4 6 -1 57.79 17.6
4 6 -1 52.39 16.1
-4 -6 1 88.29 16.1
-4 -6 1 98.89 16.4
-4 -6 1 92.39 15.6
3 6 -1 740.93 32.8
3 6 -1 728.03 37.5
3 6 -1 728.93 33.7
-3 -6 1 822.62 38.2
-3 -6 1 729.53 32.6
-3 -6 1 651.63 38.8
2 6 -1 5.4 9.3
2 6 -1 4 12
2 6 -1 2 8.6
-2 -6 1 13.7 9
-2 -6 1 11.1 10.2
1 6 -1 687.33 30.2
1 6 -1 729.63 33.4
1 6 -1 699.43 30.5
-1 -6 1 737.23 29.9
-1 -6 1 702.83 30.1
-1 -6 1 731.33 33.5
-1 -6 1 733.43 23.6
0 6 -1 303.57 23.1
0 6 -1 292.17 20.5
0 6 -1 312.67 20.8
0 -6 1 285.17 19.6
0 -6 1 291.77 18.7
0 -6 1 295.77 19.8
-1 6 -1 933.81 38.6
-1 6 -1 958.5 41.3
-1 6 -1 917.11 39
1 -6 1 901.81 35.3
-2 6 -1 110.49 17.6
-2 6 -1 87.09 16.4
-2 6 -1 102.29 16.3
2 -6 1 117.89 16.8
2 -6 1 130.69 16.8
2 -6 1 89.99 18.8
-3 6 -1 162.68 22.2
-3 6 -1 177.68 23.4
3 -6 1 150.98 21.9
3 -6 1 153.98 26
3 -6 1 159.98 22.7
5 5 -1 161.98 23.6
5 5 -1 195.48 24.4
5 5 -1 185.88 21.2
-5 -5 1 223.48 23.7
-5 -5 1 235.28 23.7
-5 -5 1 174.78 21.6
-5 -5 1 243.78 25.6
4 5 -1 1.2 12
4 5 -1 35 14.8
4 5 -1 2.3 12.5
-4 -5 1 28 12.5
-4 -5 1 19.6 12
-4 -5 1 -8.5 10.7
3 5 -1 454.35 26.5
3 5 -1 437.56 25
3 5 -1 437.36 24
-3 -5 1 417.26 22.7
-3 -5 1 418.36 23.7
2 5 -1 1206.58 44.8
2 5 -1 1200.78 46.6
2 5 -1 1331.77 44.1
-2 -5 1 1362.46 44.4
-2 -5 1 1232.28 44.1
1 5 -1 634.74 25.5
-1 -5 1 568.34 21.7
-1 -5 1 633.74 25.1
-1 -5 1 606.54 25.5
-1 -5 1 631.84 28.2
0 5 -1 1230.48 42.8
0 5 -1 1227.58 43.1
0 5 -1 1323.37 45.4
0 -5 1 1255.37 45.6
0 -5 1 1106.89 41.7
0 -5 1 1268.27 43.4
0 -5 1 1204.08 42.7
-1 5 -1 603.14 29.6
-1 5 -1 657.93 28.5
-1 5 -1 579.44 27.4
1 -5 1 668.13 28.7
1 -5 1 615.04 27.4
1 -5 1 631.14 30.8
-2 5 -1 1107.09 43.1
-2 5 -1 1082.79 43.4
-2 5 -1 1065.89 44.8
2 -5 1 1064.89 43.1
-3 5 -1 3.4 14.8
-3 5 -1 15.2 14.5
3 -5 1 -17.6 13.9
3 -5 1 -0.8 14.6
3 -5 1 8.4 17.1
-5 -4 1 50.49 15.9
-5 -4 1 44.4 16.8
-5 -4 1 40.7 13
4 4 -1 615.44 32.8
-4 -4 1 610.64 30.5
-4 -4 1 671.53 29.1
3 4 -1 82.79 12.8
3 4 -1 65.59 10.8
3 4 -1 101.39 12.2
-3 -4 1 81.29 11.4
-3 -4 1 117.19 14.1
-3 -4 1 122.29 12.7
2 4 -1 1552.84 51.99
2 4 -1 1564.54 53.89
2 4 -1 1586.44 52.59
2 4 -1 1605.14 47.5
-2 -4 1 1563.14 52.39
-2 -4 1 1533.35 51.69
-2 -4 1 1560.04 51.79
1 4 -1 1070.29 37.5
1 4 -1 1102.99 37.8
1 4 -1 1098.79 39.5
-1 -4 1 1077.19 37.8
-1 -4 1 1087.09 37.2
-1 -4 1 1171.38 39.8
-1 -4 1 1134.89 33.4
-1 -4 1 1074.79 37.5
0 4 -1 3417.46 104.09
0 4 -1 3299.27 105.69
0 4 -1 3347.96 104.09
0 -4 1 3484.65 104.29
0 -4 1 3373.16 103.79
0 -4 1 3300.77 105.69
0 -4 1 3379.26 103.49
-1 4 -1 61.79 9
1 -4 1 50.99 7.5
1 -4 1 56.09 8.7
1 -4 1 55.19 10.4
1 -4 1 61.79 9
-2 4 -1 1161.98 43.6
-2 4 -1 1180.08 43.4
2 -4 1 1162.98 42.7
2 -4 1 1135.09 43.6
2 -4 1 1168.88 45.3
-3 4 -1 164.48 18
-3 4 -1 161.68 17.5
3 -4 1 184.58 21.8
3 -4 1 211.98 24.9
-4 4 -1 181.68 21.8
-4 4 -1 141.49 21.4
4 -4 1 126.49 21.2
4 -4 1 190.98 21.6
4 -4 1 184.18 23.8
5 3 -1 73.09 18.8
5 3 -1 44.7 16.3
-5 -3 1 29.9 12.2
-5 -3 1 41.3 16.8
-5 -3 1 75.49 15.5
4 3 -1 137.79 16
-4 -3 1 148.89 16
-4 -3 1 145.49 14.5
3 3 -1 -7.7 8.1
-3 -3 1 -4.3 7.9
-3 -3 1 10.8 6.9
-3 -3 1 13.5 8.3
2 3 -1 2299.07 71.69
2 3 -1 2179.08 70.69
2 3 -1 2231.38 70.99
-2 -3 1 2158.28 70.59
-2 -3 1 2304.27 69.99
-2 -3 1 2202.98 70.49
1 3 -1 4.3 4.6
1 3 -1 9.6 5.7
1 3 -1 11.3 4.9
-1 -3 1 14.2 5.8
-1 -3 1 10.6 4.7
-1 -3 1 12.2 4.8
0 3 -1 1549.14 49.8
0 3 -1 1571.24 50.99
0 3 -1 1539.75 49.6
0 -3 1 1596.34 49.3
0 -3 1 1544.55 49.5
0 -3 1 1553.44 50.99
0 -3 1 1539.95 49.8
-1 3 -1 16.9 6
-1 3 -1 23.5 6.4
-1 3 -1 18.1 5
-1 3 -1 13.7 7
1 -3 1 10.8 5.9
1 -3 1 13.1 6.8
1 -3 1 20.5 4.9
1 -3 1 16.7 6.2
-2 3 -1 656.33 27.6
-2 3 -1 638.94 24.1
-2 3 -1 767.22 27.9
2 -3 1 645.54 29
2 -3 1 660.03 28
2 -3 1 649.43 27.5
-3 3 -1 344.87 23.3
-3 3 -1 417.76 24.5
-3 3 -1 375.36 17.1
3 -3 1 311.67 30.7
3 -3 1 366.06 23.7
3 -3 1 374.96 24.7
-4 3 -1 236.78 27.6
-4 3 -1 161.58 19.9
4 -3 1 215.78 26
4 -3 1 188.78 21.8
4 -3 1 184.68 21
5 2 -1 502.75 32.3
5 2 -1 459.95 33.7
-5 -2 1 439.56 44.4
-5 -2 1 489.25 25.7
-5 -2 1 459.55 31.6
4 2 -1 563.74 29.2
4 2 -1 511.75 29.5
-4 -2 1 541.45 24.5
3 2 -1 1254.87 46.5
3 2 -1 1313.27 45.9
-3 -2 1 1337.97 46.1
-3 -2 1 1301.87 42.9
-3 -2 1 1261.07 45.7
2 2 -1 1525.05 50.69
2 2 -1 1591.34 51.09
-2 -2 1 1555.24 50.69
-2 -2 1 1587.34 49
-2 -2 1 1499.95 50.49
1 2 -1 5748.23 173.48
1 2 -1 5895.41 173.88
1 2 -1 5773.52 173.48
-1 -2 1 5818.72 173.38
0 2 -1 1064.49 34.1
0 2 -1 1010.1 33.3
0 2 -1 1058.79 33.2
0 -2 1 1034.3 32.8
0 -2 1 999.6 33
0 -2 1 1032.6 34
0 -2 1 1055.79 33.3
-1 2 -1 4902.51 146.19
-1 2 -1 4803.22 144.69
-1 2 -1 4935.11 146.29
-1 2 -1 5038.6 146.99
1 -2 1 4693.93 146.09
1 -2 1 4950.7 146.89
1 -2 1 4657.43 144.39
1 -2 1 4863.91 146.09
-2 2 -1 1433.26 47.9
-2 2 -1 1395.06 44.3
-2 2 -1 1421.46 48.1
2 -2 1 1425.76 47.8
2 -2 1 1411.66 47.9
2 -2 1 1443.96 48.7
-3 2 -1 658.23 23.9
-3 2 -1 763.12 30.2
-3 2 -1 683.33 30.4
3 -2 1 765.82 30.1
3 -2 1 678.03 31
3 -2 1 661.13 30.7
-4 2 -1 11.6 13.5
-4 2 -1 12.7 14
4 -2 1 -10.7 13.1
4 -2 1 9.7 12.9
-5 2 -1 118.59 21.9
-5 2 -1 72.79 20.9
5 -2 1 134.89 22.3
5 -2 1 108.19 21.9
5 -2 1 89.69 19.6
5 1 -1 247.38 27.9
5 1 -1 205.28 22.7
-5 -1 1 175.78 20.8
-5 -1 1 183.68 21.6
-5 -1 1 195.98 18.4
4 1 -1 314.87 23.3
4 1 -1 369.36 25.3
-4 -1 1 323.07 23.9
-4 -1 1 367.76 19.5
3 1 -1 1635.94 56.69
3 1 -1 1666.33 57.09
-3 -1 1 1663.63 53.59
-3 -1 1 1628.14 56.59
-3 -1 1 1738.73 56.99
2 1 -1 160.98 11.5
2 1 -1 138.39 11
-2 -1 1 145.99 10.9
-2 -1 1 139.29 11
1 1 -1 3637.04 109.69
1 1 -1 3706.33 109.69
-1 -1 1 3484.55 109.49
-1 -1 1 3795.12 108.39
-1 -1 1 3600.24 109.59
0 1 -1 2563.74 75.79
0 1 -1 2541.95 75.79
0 1 -1 2559.84 76.09
0 -1 1 2517.35 75.99
0 -1 1 2490.85 75.79
0 -1 1 2509.45 75.69
-1 1 -1 3194.88 94.39
-1 1 -1 3200.98 94.29
-1 1 -1 2956.9 92.59
1 -1 1 3210.38 94.69
1 -1 1 3169.88 94.39
1 -1 1 2959.7 92.59
1 -1 1 3162.28 94.29
-2 1 -1 428.96 18
-2 1 -1 400.16 13.8
-2 1 -1 419.26 18.1
2 -1 1 407.06 17.8
2 -1 1 404.36 18.2
2 -1 1 417.36 18.6
-3 1 -1 768.92 31.8
-3 1 -1 793.52 25
-3 1 -1 815.02 31.7
3 -1 1 819.92 32.2
3 -1 1 714.33 30.6
-4 1 -1 146.79 15.8
-4 1 -1 147.29 16.7
-4 1 -1 147.29 8
4 -1 1 148.89 16.7
4 -1 1 146.99 19.7
4 -1 1 115.09 16.1
-5 1 -1 710.53 41.5
-5 1 -1 673.63 38.9
5 -1 1 698.23 41.3
5 -1 1 734.03 40.8
5 -1 1 674.63 38.6
5 0 -1 113.49 20.2
5 0 -1 129.59 20
-5 0 1 118.99 15.8
-5 0 1 103.09 19.1
-5 0 1 118.69 20.5
4 0 -1 -14.3 10.7
4 0 -1 -3.2 12
-4 0 1 -14.4 11.7
-4 0 1 -0.8 11.7
3 0 -1 391.16 21.9
3 0 -1 412.66 22.5
-3 0 1 433.36 22.1
-3 0 1 467.95 22.6
2 0 -1 7.2 5.8
2 0 -1 8.4 5.8
-2 0 1 6.6 5.6
-2 0 1 1.5 5.6
1 0 -1 5076.69 154.88
1 0 -1 5246.77 154.98
-1 0 1 5336.57 155.08
-1 0 1 5103.09 154.88
-1 0 -1 949.4 30.4
-1 0 -1 973.8 30.6
1 0 1 981.5 30.6
1 0 1 981.8 30.5
-2 0 -1 93.99 9
-2 0 -1 104.29 8.8
2 0 1 108.59 8.9
2 0 1 103.49 9.2
-3 0 -1 1005.8 37.3
-3 0 -1 1039.3 37.4
3 0 1 977.5 37.4
3 0 1 1031.2 37.6
-4 0 -1 130.69 6.7
-4 0 -1 119.19 14.6
4 0 1 130.19 14.6
4 0 1 103.89 14.8
-5 0 -1 26.1 17
-5 0 -1 0.2 13.8
-5 0 -1 2.9 15.1
5 0 1 -1.4 15.4
5 0 1 7 14.9
5 -1 -1 127.29 21.8
5 -1 -1 117.29 20.1
5 -1 -1 106.49 20.7
-5 1 1 86.49 20.8
-5 1 1 84.89 20.5
-5 1 1 114.99 12.7
4 -1 -1 551.04 29.3
4 -1 -1 394.06 32.5
4 -1 -1 511.15 31.1
-4 1 1 548.05 31
-4 1 1 516.95 29.6
-4 1 1 497.55 20.1
3 -1 -1 1912.71 62.09
3 -1 -1 1739.83 62.29
-3 1 1 1919.71 62.19
-3 1 1 1764.82 62.09
2 -1 -1 496.95 20.6
2 -1 -1 443.96 20.2
-2 1 1 483.15 20.4
-2 1 1 465.35 20.1
1 -1 -1 1496.15 47.1
1 -1 -1 1493.35 47.1
1 -1 -1 1517.15 46.9
-1 1 1 1496.35 47.1
-1 1 1 1510.25 47.2
0 -1 -1 918.91 27.9
0 -1 -1 897.01 27.5
0 -1 -1 923.31 28.1
0 1 1 916.91 27.5
0 1 1 919.31 28.1
0 1 1 892.61 27.5
0 1 1 896.61 27.9
-1 -1 -1 1099.99 33.7
-1 -1 -1 1082.69 33.1
-1 -1 -1 1073.79 33.6
-1 -1 -1 1170.68 34.2
1 1 1 1077.69 33.7
1 1 1 1057.39 33.7
-2 -1 -1 511.25 19.3
-2 -1 -1 509.75 19.7
-2 -1 -1 513.95 18.9
2 1 1 488.25 19.6
2 1 1 520.95 19.5
-3 -1 -1 36.4 7.6
-3 -1 -1 37.4 7.8
-3 -1 -1 42.2 8.4
3 1 1 37.8 8.5
3 1 1 37.5 8.1
-4 -1 -1 101.89 13.7
-4 -1 -1 116.19 12.7
4 1 1 93.99 13.8
4 1 1 102.79 13.1
-5 -1 -1 41.6 16.2
-5 -1 -1 28.6 4.1
-5 -1 -1 46 13.9
-5 -1 -1 51.69 15.2
5 1 1 43.8 15.1
5 1 1 52.69 16.2
5 -2 -1 116.29 23
5 -2 -1 100.99 21.6
5 -2 -1 62.29 21.5
-5 2 1 124.79 22.8
-5 2 1 79.49 21.7
-5 2 1 98.19 10.2
4 -2 -1 425.36 28.1
4 -2 -1 374.46 28.3
-4 2 1 399.56 28.6
-4 2 1 342.17 27.5
-4 2 1 358.56 17.9
3 -2 -1 196.38 18.4
3 -2 -1 195.78 19.2
-3 2 1 164.98 17.9
-3 2 1 158.68 17.9
-3 2 1 183.78 11.8
2 -2 -1 3476.35 108.69
2 -2 -1 3541.75 108.69
2 -2 -1 3530.25 108.79
-2 2 1 3420.16 105.59
-2 2 1 3446.06 108.39
-2 2 1 3563.84 108.89
1 -2 -1 19.5 4.7
1 -2 -1 15.6 4.7
1 -2 -1 16.5 4.9
-1 2 1 23.3 4.8
-1 2 1 15.4 3.7
-1 2 1 21.8 5
-1 2 1 13.6 4.5
0 -2 -1 5227.18 154.08
0 -2 -1 5104.79 152.78
0 -2 -1 5240.78 152.88
0 -2 -1 5101.79 153.18
0 2 1 5050.39 152.78
0 2 1 5297.67 153.98
0 2 1 5147.98 153.18
0 2 1 5032.9 152.88
-1 -2 -1 72.99 4.9
-1 -2 -1 70.79 7.2
-1 -2 -1 73.59 5.4
-1 -2 -1 72.19 4.4
-1 -2 -1 78.89 4.5
1 2 1 78.29 4.7
1 2 1 69.39 5
1 2 1 69.49 6.7
1 2 1 71.79 4.9
1 2 1 67.49 5.3
-2 -2 -1 3593.04 107.29
-2 -2 -1 3604.44 107.29
-2 -2 -1 3454.35 107.19
-2 -2 -1 3471.45 105.89
2 2 1 3530.75 107.49
2 2 1 3522.95 107.29
-3 -2 -1 1243.18 42.7
-3 -2 -1 1247.68 41.9
-3 -2 -1 1228.88 42.9
3 2 1 1233.98 43.3
3 2 1 1207.08 42.7
-4 -2 -1 1471.65 52.59
-4 -2 -1 1451.75 50.69
4 2 1 1397.96 52.49
4 2 1 1451.85 52.69
-5 -2 -1 41.1 6.9
-5 -2 -1 32.9 12.9
-5 -2 -1 13.6 14.3
5 2 1 29.6 14.6
5 2 1 16.8 15.1
4 -3 -1 968.9 44.5
4 -3 -1 983.2 45.7
4 -3 -1 1000 45.6
-4 3 1 914.51 44.4
-4 3 1 972.8 35.1
-4 3 1 929.61 44.3
3 -3 -1 13.9 10.8
3 -3 -1 14.4 11.3
-3 3 1 19 7.2
-3 3 1 19.6 11.6
-3 3 1 22.3 11.4
2 -3 -1 1321.47 47.5
2 -3 -1 1334.97 46.9
2 -3 -1 1351.46 46.8
-2 3 1 1356.76 46.8
-2 3 1 1324.87 43.8
1 -3 -1 8 5.6
1 -3 -1 6.9 6.1
1 -3 -1 9.2 5.5
-1 3 1 5.2 5.4
-1 3 1 5.4 5.9
-1 3 1 5.2 5.4
-1 3 1 6.2 4.7
0 -3 -1 5025.9 146.29
0 -3 -1 4833.02 144.39
0 -3 -1 4790.82 144.29
0 -3 -1 4725.83 144.59
0 3 1 4886.11 145.89
0 3 1 4742.23 144.39
0 3 1 4806.22 144.29
0 3 1 4771.02 144.69
-1 -3 -1 354.16 12.5
-1 -3 -1 344.77 15.7
-1 -3 -1 344.57 13.5
-1 -3 -1 345.87 13.1
-1 -3 -1 339.77 14.2
1 3 1 365.16 14.4
1 3 1 391.16 14.3
1 3 1 350.56 15.6
1 3 1 341.77 13.3
1 3 1 333.57 13.5
-2 -3 -1 579.94 21.3
-2 -3 -1 588.84 21.7
-2 -3 -1 566.34 21
-2 -3 -1 588.64 22.4
2 3 1 578.74 21.5
2 3 1 575.34 21.8
-3 -3 -1 73.29 9.4
-3 -3 -1 57.39 7.1
-3 -3 -1 51.89 8.5
-3 -3 -1 57.79 8.8
3 3 1 41.8 8.6
3 3 1 50.99 8.6
-4 -3 -1 88.29 11.7
-4 -3 -1 75.39 8.5
-4 -3 -1 69.29 12.1
4 3 1 77.89 12.6
4 3 1 71.99 12
-5 -3 -1 338.47 18.8
-5 -3 -1 353.06 23.5
-5 -3 -1 321.17 26.7
5 3 1 291.07 29
5 3 1 366.76 27.5
4 -4 -1 40.8 18.2
4 -4 -1 40 17.2
4 -4 -1 -8.6 18
-4 4 1 41 18.6
-4 4 1 36.1 11.1
-4 4 1 14.7 17.6
3 -4 -1 181.98 22.1
3 -4 -1 175.38 18.2
-3 4 1 193.98 21.7
-3 4 1 160.18 18
-3 4 1 200.58 16.6
2 -4 -1 705.63 30.3
2 -4 -1 754.92 32.4
2 -4 -1 703.73 30.3
-2 4 1 677.03 26.8
-2 4 1 688.43 30.1
-2 4 1 695.23 30.6
1 -4 -1 596.14 26.3
1 -4 -1 607.94 24.2
1 -4 -1 584.14 23.8
1 -4 -1 571.84 22.5
-1 4 1 591.84 25.6
-1 4 1 580.84 24.1
-1 4 1 563.04 22.8
-1 4 1 579.44 24
0 -4 -1 61.39 8.9
0 -4 -1 49.9 6.4
0 -4 -1 63.49 7.3
0 -4 -1 56.89 6.8
0 4 1 61.09 7.3
0 4 1 52.69 8.4
0 4 1 60.89 6.9
0 4 1 54.69 6.8
-1 -4 -1 411.46 20.1
-1 -4 -1 438.66 16.6
-1 -4 -1 429.56 17.2
-1 -4 -1 417.86 15.5
-1 -4 -1 424.06 18
1 4 1 433.36 16.9
1 4 1 425.86 18
1 4 1 427.06 19.6
1 4 1 411.36 16.9
-2 -4 -1 23.1 7.4
-2 -4 -1 20.3 5.9
-2 -4 -1 20.3 6.6
-2 -4 -1 25.6 5.6
2 4 1 20.2 8.1
2 4 1 25.3 6.1
2 4 1 24.3 5.9
-3 -4 -1 1350.66 46.3
-3 -4 -1 1341.67 44.8
-3 -4 -1 1349.47 46.1
-3 -4 -1 1378.76 45.4
3 4 1 1339.37 46.6
3 4 1 1172.18 44.6
-4 -4 -1 -2.1 9.8
-4 -4 -1 -4.1 10.2
-4 -4 -1 5.5 9.5
-4 -4 -1 12.9 8.5
4 4 1 11.8 11
-5 -4 -1 253.67 23.7
-5 -4 -1 232.88 25.9
5 4 1 224.98 22.2
5 4 1 239.38 25
3 -5 -1 683.93 37.4
3 -5 -1 746.33 37.3
3 -5 -1 774.02 42.2
-3 5 1 783.52 38.8
-3 5 1 719.53 33.3
-3 5 1 761.22 38.6
2 -5 -1 104.89 16.5
-2 5 1 117.59 12.7
-2 5 1 117.59 14.6
-2 5 1 111.79 14.6
1 -5 -1 1390.36 47.6
1 -5 -1 1366.06 47.9
1 -5 -1 1332.57 50.79
-1 5 1 1341.47 49.3
-1 5 1 1341.27 46.5
-1 5 1 1331.87 47.4
-1 5 1 1358.36 48
0 -5 -1 67.19 8.5
0 -5 -1 63.59 8.1
0 -5 -1 65.99 11.4
0 5 1 64.09 8.3
0 5 1 62.19 9.3
-1 -5 -1 2269.77 74.79
-1 -5 -1 2259.17 70.79
-1 -5 -1 2282.37 69.59
-1 -5 -1 2314.87 72.19
-1 -5 -1 2174.78 71.29
1 5 1 2343.87 74.59
1 5 1 2242.48 71.39
1 5 1 2196.98 71.09
-2 -5 -1 9 6.6
-2 -5 -1 6.9 5.6
2 5 1 3.5 5.9
2 5 1 5.9 6.6
-3 -5 -1 290.87 19.8
-3 -5 -1 303.87 19.1
-3 -5 -1 318.47 17.5
3 5 1 310.87 19.3
3 5 1 295.27 18.4
3 5 1 318.07 22
-4 -5 -1 316.77 21.8
-4 -5 -1 312.67 23.5
-4 -5 -1 293.87 19.8
-4 -5 -1 345.97 22.9
4 5 1 323.17 24
4 5 1 366.56 22.7
4 5 1 360.86 26.7
-5 -5 -1 20.5 14.3
-5 -5 -1 27.6 14.2
-5 -5 -1 22 12.3
-5 -5 -1 18.1 14.9
5 5 1 20.5 13.5
5 5 1 24.4 15.9
3 -6 -1 759.42 46.5
3 -6 -1 778.82 41.1
3 -6 -1 690.53 41.4
-3 6 1 760.82 42.1
-3 6 1 774.72 41.5
2 -6 -1 -5.4 10.1
2 -6 -1 -1.3 12.3
2 -6 -1 18 14.9
-2 6 1 -16 12.7
-2 6 1 0.7 12.9
-2 6 1 5.9 11.8
-2 6 1 3.9 13
1 -6 -1 834.42 39.3
1 -6 -1 874.81 35
1 -6 -1 897.31 34.2
-1 6 1 846.02 35
-1 6 1 878.81 36
-1 6 1 852.81 41.5
-1 6 1 864.51 35.4
0 -6 -1 8.2 8.5
0 -6 -1 5.9 8
0 -6 -1 14.6 9.4
0 -6 -1 6.7 8.8
0 -6 -1 0.1 17.4
0 6 1 3.9 8.1
0 6 1 12.7 8.2
0 6 1 11.8 10.5
0 6 1 4.9 10.8
-1 -6 -1 845.52 28.7
-1 -6 -1 808.52 30.5
-1 -6 -1 836.52 36.1
-1 -6 -1 775.82 32.2
-1 -6 -1 805.92 31.6
1 6 1 821.82 31.7
1 6 1 809.32 31.2
1 6 1 827.02 35.4
-2 -6 -1 466.75 21.2
-2 -6 -1 483.75 23.6
2 6 1 470.55 22.4
2 6 1 439.56 21.4
2 6 1 475.55 27.2
-3 -6 -1 135.29 14
-3 -6 -1 148.79 14.8
3 6 1 110.39 13.1
3 6 1 130.19 16.8
3 6 1 130.39 14.7
-4 -6 -1 311.27 24.2
-4 -6 -1 304.47 22.2
4 6 1 294.57 22.6
4 6 1 276.17 27.3
4 6 1 300.07 25.2
-5 -6 -1 326.27 29.7
-5 -6 -1 292.27 26.8
-5 -6 -1 280.87 26.7
-5 -6 -1 313.37 26.9
5 6 1 338.87 31.3
5 6 1 287.07 27.4
5 6 1 334.67 34
2 -7 -1 446.36 33.2
2 -7 -1 450.45 49.6
2 -7 -1 477.45 37.7
-2 7 1 436.26 32.1
-2 7 1 405.06 32.9
1 -7 -1 463.25 34.6
1 -7 -1 448.26 27.9
1 -7 -1 359.66 24.6
1 -7 -1 472.35 26
-1 7 1 514.65 31.7
-1 7 1 470.45 29.3
-1 7 1 471.65 27.1
0 -7 -1 875.91 35.1
0 -7 -1 899.11 36.8
0 -7 -1 847.32 35.4
0 7 1 921.71 37.1
0 7 1 882.31 36.9
0 7 1 873.51 40.4
-1 -7 -1 25.2 10.1
-1 -7 -1 17.9 10.7
-1 -7 -1 12.6 8.6
-1 -7 -1 25 7.9
1 7 1 30.6 10.5
1 7 1 23 13
1 7 1 33 11.8
-2 -7 -1 761.42 33.4
-2 -7 -1 752.22 30.3
2 7 1 748.43 32.4
2 7 1 752.02 37.1
-3 -7 -1 37.5 10.3
-3 -7 -1 30.7 12.7
3 7 1 17.5 14.8
3 7 1 32.9 11.8
3 7 1 52.09 11.2
-4 -7 -1 565.14 32.9
-4 -7 -1 542.05 29
-4 -7 -1 571.04 32.6
4 7 1 547.15 32.9
4 7 1 541.35 36.8
4 7 1 575.84 30.3
-5 -7 -1 -9.6 14.4
5 7 1 -19.2 20.5
5 7 1 -10.8 15.9
1 -8 -1 36.2 14.8
1 -8 -1 34.5 20.7
1 -8 -1 14.7 16.1
-1 8 1 -0.1 18.9
-1 8 1 28 16.1
-1 8 1 4.9 18.4
0 -8 -1 294.67 22.1
0 -8 -1 353.06 26.5
0 -8 -1 354.56 25.3
0 -8 -1 295.37 31.7
0 -8 -1 366.56 24.6
0 8 1 393.06 30.7
0 8 1 329.57 26.5
0 8 1 336.77 26.3
-1 -8 -1 74.19 15.2
-1 -8 -1 108.59 14.6
-1 -8 -1 107.19 11.2
-1 -8 -1 144.79 20.9
-1 -8 -1 114.29 13.3
1 8 1 118.29 15.5
1 8 1 89.39 18.6
1 8 1 121.79 14.2
-2 -8 -1 349.07 21.7
-2 -8 -1 349.17 25
2 8 1 335.27 24.6
2 8 1 304.97 22.4
2 8 1 309.17 29.9
-3 -8 -1 104.79 13.6
-3 -8 -1 123.39 17.7
-3 -8 -1 113.99 16.3
3 8 1 137.79 15
3 8 1 135.99 21.6
3 8 1 143.39 17.5
-4 -8 -1 -16.5 15.4
-4 -8 -1 12.2 12.8
-4 -8 -1 -2.2 15.4
4 8 1 -0.5 13.2
4 8 1 21 20.3
4 8 1 12.7 16.2
-1 -9 -1 179.78 18
-1 -9 -1 202.38 28
-1 -9 -1 187.08 21.3
-1 -9 -1 182.48 20
-1 -9 -1 212.88 17.1
1 9 1 219.58 24.4
1 9 1 187.38 20.1
1 9 1 163.68 24.6
-2 -9 -1 269.77 23.4
-2 -9 -1 229.48 23
2 9 1 278.07 27
2 9 1 260.37 28.2
2 9 1 225.48 24.1
3 8 -2 46.9 18.9
3 8 -2 21.6 15.1
3 8 -2 -5 19.6
-3 -8 2 34.4 17.6
-3 -8 2 46.7 18.6
2 8 -2 662.23 34.9
2 8 -2 659.93 40.3
2 8 -2 694.03 38.2
-2 -8 2 605.94 34.8
1 8 -2 306.87 27.8
1 8 -2 421.26 30.7
1 8 -2 385.86 32.7
-1 -8 2 332.77 33.1
-1 -8 2 411.56 27.9
-1 -8 2 398.56 30.5
-1 -8 2 429.36 27.6
0 8 -2 669.33 40.5
0 8 -2 703.93 37.2
0 8 -2 637.74 35.7
0 -8 2 738.43 35.1
0 -8 2 703.93 38
0 -8 2 691.33 34.5
0 -8 2 688.23 41.4
0 -8 2 655.43 27.7
-1 8 -2 54.19 19.6
-1 8 -2 54.09 21.7
-1 8 -2 44.7 18.5
1 -8 2 76.99 16.9
1 -8 2 82.69 22.7
1 -8 2 92.79 27.7
1 -8 2 51.69 18.2
4 7 -2 273.27 28.5
4 7 -2 279.47 32.8
4 7 -2 249.48 26.9
-4 -7 2 244.98 22.7
-4 -7 2 268.87 25.1
-4 -7 2 253.07 30.5
3 7 -2 76.99 14.8
3 7 -2 74.39 18.7
3 7 -2 41.2 15.5
-3 -7 2 49.5 15.6
-3 -7 2 42 14.8
2 7 -2 35.6 12.2
2 7 -2 54.59 14
2 7 -2 41.2 15.7
-2 -7 2 39.6 12
-2 -7 2 24.7 12.4
1 7 -2 446.26 26.6
1 7 -2 498.65 31.5
1 7 -2 436.66 27.1
-1 -7 2 424.66 26.2
-1 -7 2 571.34 26.2
0 7 -2 637.34 32.9
0 7 -2 651.13 31.8
0 7 -2 614.34 35.2
0 -7 2 615.34 29.8
-1 7 -2 137.89 17.6
-1 7 -2 126.19 20.4
-1 7 -2 140.79 18.1
1 -7 2 162.08 15.8
1 -7 2 134.99 20.6
1 -7 2 128.49 16.7
1 -7 2 154.38 17.9
-2 7 -2 271.47 31.9
-2 7 -2 244.08 24.6
-2 7 -2 273.57 29.7
2 -7 2 253.27 29
2 -7 2 225.28 28.1
2 -7 2 223.68 23
2 -7 2 233.18 28.2
5 6 -2 23.7 21.9
5 6 -2 33 18.5
5 6 -2 28 21.1
-5 -6 2 10.6 19.6
-5 -6 2 40.2 17
4 6 -2 403.66 30.7
4 6 -2 365.06 31.4
4 6 -2 448.46 30.2
-4 -6 2 427.26 30.8
-4 -6 2 412.06 27.9
3 6 -2 113.09 14.7
3 6 -2 142.99 18.4
3 6 -2 129.59 16.8
-3 -6 2 127.49 15.2
-3 -6 2 183.78 20
2 6 -2 1471.35 78.99
2 6 -2 1928.91 63.89
-2 -6 2 1936.41 62.49
1 6 -2 132.79 13.8
1 6 -2 113.19 13
1 6 -2 133.29 16.1
-1 -6 2 142.39 13.9
-1 -6 2 146.09 15.4
-1 -6 2 120.19 15.5
-1 -6 2 151.18 17.6
0 6 -2 840.12 35.1
0 -6 2 868.31 34.6
0 -6 2 834.42 34.9
-1 6 -2 230.78 21.8
-1 6 -2 209.58 23.5
-1 6 -2 230.18 21
1 -6 2 247.48 18.6
1 -6 2 259.57 20.2
-2 6 -2 320.27 28.3
-2 6 -2 290.17 27.6
-2 6 -2 333.47 27.2
2 -6 2 391.86 30.5
2 -6 2 327.17 21.1
2 -6 2 309.97 25.8
2 -6 2 320.57 26.2
-3 6 -2 482.85 36.2
-3 6 -2 503.75 37.2
3 -6 2 517.95 38.6
3 -6 2 483.75 41.3
3 -6 2 563.04 37.4
5 5 -2 20.4 18.7
5 5 -2 6.7 18.6
5 5 -2 35.5 17.7
-5 -5 2 3.3 14.3
-5 -5 2 12.9 17.1
-5 -5 2 13.6 19.6
-5 -5 2 30.1 13.8
4 5 -2 132.09 18.3
4 5 -2 182.48 22
4 5 -2 122.79 19
3 5 -2 1096.89 43.7
3 5 -2 1153.18 35.2
3 5 -2 1154.08 46.1
3 5 -2 1112.39 43.9
-3 -5 2 1084.29 42.5
-3 -5 2 1096.79 44.3
2 5 -2 364.36 21
2 5 -2 356.96 20.4
2 5 -2 357.86 22.8
-2 -5 2 385.06 20.9
-2 -5 2 386.56 20.8
1 5 -2 973.2 34.2
1 5 -2 981.1 36.8
1 5 -2 860.11 34.7
-1 -5 2 880.51 34.3
-1 -5 2 915.51 35.3
-1 -5 2 913.11 36.9
-1 -5 2 976.1 34.3
0 5 -2 433.56 24.3
0 5 -2 458.25 22.3
0 5 -2 472.95 22.2
0 -5 2 441.86 22.8
0 -5 2 464.75 24.3
0 -5 2 436.56 21.7
-1 5 -2 1280.47 46.9
-1 5 -2 1332.47 49.4
-1 5 -2 1350.96 47.7
1 -5 2 1348.27 47
1 -5 2 1175.48 53.49
1 -5 2 1264.17 50.99
-2 5 -2 52.79 13.3
-2 5 -2 39.9 13.4
-2 5 -2 38.6 13.6
2 -5 2 54.69 12.2
2 -5 2 56.59 13.4
-3 5 -2 716.63 37.5
-3 5 -2 679.23 37.3
3 -5 2 684.33 37.2
3 -5 2 660.33 36.3
3 -5 2 701.33 41.3
5 4 -2 132.19 21.9
-5 -4 2 141.69 20.3
-5 -4 2 118.19 15.6
4 4 -2 12.9 12.9
4 4 -2 -2.7 12.7
4 4 -2 17 12.6
-4 -4 2 3.9 9.4
3 4 -2 256.47 20.5
3 4 -2 240.88 20.4
3 4 -2 290.87 19.7
-3 -4 2 271.47 19.1
-3 -4 2 268.37 16.1
-3 -4 2 241.38 19.3
2 4 -2 23.3 8.4
2 4 -2 33.7 9.5
-2 -4 2 28.7 8.4
-2 -4 2 38.9 8.5
1 4 -2 1835.72 60.69
1 4 -2 1810.72 59.09
1 4 -2 1813.82 59.29
-1 -4 2 1806.42 60.29
-1 -4 2 1861.81 59.49
-1 -4 2 1823.12 58.89
-1 -4 2 1772.52 58.69
0 4 -2 172.68 13
0 4 -2 171.98 13.1
0 4 -2 206.38 15.1
0 -4 2 161.18 13.4
0 -4 2 154.48 11.6
0 -4 2 179.68 13.3
0 -4 2 166.18 14.6
-1 4 -2 780.62 31.2
-1 4 -2 820.02 31.2
1 -4 2 815.82 29.1
1 -4 2 784.62 31
1 -4 2 854.01 33.6
1 -4 2 804.82 31.5
-2 4 -2 27.4 10.3
-2 4 -2 27.8 10.9
2 -4 2 65.19 11.5
2 -4 2 42.4 7.1
2 -4 2 44.2 13.8
-3 4 -2 164.18 18.4
-3 4 -2 166.18 17.6
3 -4 2 160.88 17.8
3 -4 2 159.78 18
-4 4 -2 251.17 29.3
-4 4 -2 249.78 29.5
4 -4 2 189.58 22.5
4 -4 2 299.67 30.4
4 -4 2 213.48 25.4
5 3 -2 379.76 32.9
5 3 -2 327.87 29.8
-5 -3 2 380.86 31.9
-5 -3 2 368.46 23.3
-5 -3 2 365.96 36.1
4 3 -2 172.98 20.3
4 3 -2 183.78 22.2
-4 -3 2 156.48 15.4
3 3 -2 1679.13 57.99
-3 -3 2 1669.33 57.29
-3 -3 2 1660.53 53.89
-3 -3 2 1606.94 56.79
2 3 -2 270.97 16.8
2 3 -2 243.68 15.7
2 3 -2 254.97 15.4
-2 -3 2 278.57 15.8
-2 -3 2 268.87 15.5
1 3 -2 1257.77 41.6
1 3 -2 1269.27 41
1 3 -2 1220.68 40.8
-1 -3 2 1206.98 40.8
-1 -3 2 1185.08 41
-1 -3 2 1193.38 40.5
0 3 -2 2462.85 78.29
0 3 -2 2509.95 78.29
0 3 -2 2574.54 79.59
0 -3 2 2562.64 79.39
0 -3 2 2487.75 77.49
0 -3 2 2547.65 78.29
0 -3 2 2485.15 78.29
-1 3 -2 884.91 31.2
-1 3 -2 849.72 32.3
-1 3 -2 827.42 31.1
1 -3 2 881.21 32.4
1 -3 2 871.71 29.2
1 -3 2 848.52 31
1 -3 2 868.11 31.3
-2 3 -2 982.8 38
-2 3 -2 1138.69 38.5
2 -3 2 1062.29 39.9
2 -3 2 1014.7 38.4
2 -3 2 1011.2 34
2 -3 2 1017.7 38.2
-3 3 -2 -5 10.7
3 -3 2 -0.4 10.3
-4 3 -2 836.22 40.9
-4 3 -2 888.01 41.8
4 -3 2 828.82 42.3
4 -3 2 861.41 41.7
4 -3 2 860.41 40.6
5 2 -2 103.99 19
5 2 -2 116.29 20.3
-5 -2 2 98.99 19.9
-5 -2 2 99.09 18.9
-5 -2 2 103.29 13.5
4 2 -2 113.09 16.2
-4 -2 2 129.79 14
-4 -2 2 111.09 15.5
3 2 -2 523.15 26.3
-3 -2 2 549.45 25.6
-3 -2 2 559.04 21.2
-3 -2 2 528.75 25.6
2 2 -2 923.81 33.4
-2 -2 2 903.61 32.9
-2 -2 2 898.01 31.8
-2 -2 2 928.21 33
1 2 -2 5 4.1
1 2 -2 9.7 4.5
1 2 -2 6.3 4.6
-1 -2 2 2.7 4.2
0 2 -2 1330.77 43.3
0 2 -2 1400.16 44
0 2 -2 1349.56 43.2
0 -2 2 1378.46 43.8
0 -2 2 1365.86 43.2
0 -2 2 1345.27 43.3
-1 2 -2 0.5 4.8
-1 2 -2 0.3 4.7
-1 2 -2 -2.6 5.1
1 -2 2 1.3 4.7
1 -2 2 3.5 5.2
1 -2 2 -2.7 3.1
1 -2 2 4.5 5
-2 2 -2 3100.49 95.99
-2 2 -2 3102.89 95.79
2 -2 2 3053.69 96.49
2 -2 2 2977.3 91.89
2 -2 2 3048.09 95.89
2 -2 2 3101.39 95.69
-3 2 -2 101.49 12
3 -2 2 86.99 12.3
3 -2 2 72.99 12
3 -2 2 93.89 12.9
-4 2 -2 332.57 25.3
4 -2 2 280.17 24.8
4 -2 2 327.17 26
-5 2 -2 20.3 17.9
-5 2 -2 1.6 18.8
5 -2 2 12.1 18.5
5 -2 2 19.9 18.8
5 -2 2 19.3 17.9
5 1 -2 42.3 19
5 1 -2 22.4 16.2
-5 -1 2 48.9 12.4
-5 -1 2 21.7 16.6
-5 -1 2 29.9 17.2
4 1 -2 682.53 36.5
4 1 -2 695.83 34.8
-4 -1 2 676.43 27.8
-4 -1 2 708.33 34.4
-4 -1 2 729.73 34.2
3 1 -2 -1.4 8.3
-3 -1 2 3.8 5.5
-3 -1 2 -4.9 8.3
-3 -1 2 2.7 8.7
2 1 -2 4200.28 130.09
2 1 -2 4168.68 129.79
-2 -1 2 4335.37 126.69
-2 -1 2 4201.18 129.79
-2 -1 2 4290.57 129.79
1 1 -2 9822.72 260.67
1 1 -2 8528.95 261.97
-1 -1 2 8936.11 259.97
-1 -1 2 8301.37 261.77
-1 -1 2 8510.35 261.87
0 1 -2 544.35 18.9
0 1 -2 551.04 18.9
0 1 -2 541.95 18.8
0 -1 2 573.64 18.9
0 -1 2 562.94 18.9
0 -1 2 602.74 17.5
0 -1 2 564.04 19
-1 1 -2 107.39 7.3
-1 1 -2 102.49 7.1
1 -1 2 104.69 5
1 -1 2 107.49 7.5
1 -1 2 103.59 7.1
1 -1 2 100.09 7.2
-2 1 -2 201.78 12.5
-2 1 -2 220.18 12.9
2 -1 2 228.08 12.7
2 -1 2 218.08 13.3
2 -1 2 214.58 13.2
-3 1 -2 130.09 14.9
-3 1 -2 104.19 11.5
3 -1 2 91.29 11.1
3 -1 2 95.09 12
-4 1 -2 525.75 29
-4 1 -2 534.25 28.1
4 -1 2 473.65 29.2
4 -1 2 486.45 27.9
-5 1 -2 53.69 17.5
-5 1 -2 64.89 18.7
5 -1 2 53.79 17.8
5 -1 2 53.89 16.9
5 -1 2 22.8 18.1
5 0 -2 91.49 19.1
5 0 -2 83.19 20.1
-5 0 2 93.79 14.2
-5 0 2 113.59 19.6
-5 0 2 63.79 19.3
4 0 -2 306.27 29.5
-4 0 2 361.96 25.9
-4 0 2 343.57 25.3
-4 0 2 338.27 19.5
3 0 -2 314.07 20
3 0 -2 333.87 19.8
-3 0 2 312.67 20.3
-3 0 2 303.77 19.6
2 0 -2 187.38 13
2 0 -2 168.78 12.8
-2 0 2 190.38 12.9
-2 0 2 161.68 12.6
1 0 -2 9833.62 293.07
1 0 -2 9755.82 292.97
-1 0 2 9999 293.07
-1 0 2 9933.81 292.97
0 0 -2 1658.53 47.5
0 0 -2 1548.05 47.6
0 0 -2 1562.54 47.6
0 0 2 1472.75 46.8
0 0 2 1727.83 47.6
0 0 2 1541.05 47.6
0 0 2 1542.05 47.6
-1 0 -2 4617.54 134.99
-1 0 -2 4559.54 134.89
1 0 2 4488.45 134.89
1 0 2 4471.55 134.89
-2 0 -2 21.2 5.1
-2 0 -2 31.3 5.7
2 0 2 19.1 5.2
2 0 2 30.9 5.6
-3 0 -2 2206.28 72.69
-3 0 -2 2242.48 73.09
3 0 2 2313.87 73.49
3 0 2 2287.37 73.29
-4 0 -2 144.49 16.3
4 0 2 117.89 14.2
4 0 2 119.99 15
-5 0 -2 1231.58 50.19
-5 0 -2 1211.58 51.79
5 0 2 1326.77 52.89
5 0 2 1321.57 54.39
5 -1 -2 235.88 25.1
5 -1 -2 230.28 24.2
5 -1 -2 256.17 26.4
-5 1 2 242.68 25.5
-5 1 2 236.68 17.3
-5 1 2 240.78 25.5
4 -1 -2 368.26 25.5
4 -1 -2 309.27 25.9
4 -1 -2 354.56 27.3
-4 1 2 338.17 26.5
-4 1 2 350.46 26.5
3 -1 -2 444.46 21
3 -1 -2 319.97 22.1
-3 1 2 356.76 21.5
2 -1 -2 404.96 18.7
2 -1 -2 389.26 18.8
-2 1 2 393.96 18.8
-2 1 2 402.76 18.9
1 -1 -2 2758.12 83.69
1 -1 -2 2715.43 83.59
1 -1 -2 2754.82 82.89
-1 1 2 2716.23 83.69
-1 1 2 2743.23 83.59
0 -1 -2 27.7 3.1
0 -1 -2 16.7 1.9
0 -1 -2 18.2 2
0 -1 -2 21 5
0 1 2 13.4 1.9
0 1 2 22.7 2.7
0 1 2 15.5 2
-1 -1 -2 2066.69 63.79
-1 -1 -2 2265.57 65.09
1 1 2 2086.69 63.79
1 1 2 2135.39 63.89
1 1 2 2150.08 63.89
-2 -1 -2 15.8 4.3
-2 -1 -2 17.1 4.4
-2 -1 -2 15.6 2
-2 -1 -2 14.1 5.1
2 1 2 15.4 4.4
2 1 2 13.9 4.4
-3 -1 -2 1534.85 49.9
-3 -1 -2 1424.66 49.1
-3 -1 -2 1459.15 44.1
-3 -1 -2 1469.25 49.2
3 1 2 1467.25 49.5
3 1 2 1449.55 49.7
-4 -1 -2 268.17 19.1
-4 -1 -2 249.88 19.8
4 1 2 242.38 20.9
4 1 2 257.87 19.4
-5 -1 -2 131.49 17.2
-5 -1 -2 129.79 18.3
5 1 2 116.49 17.1
5 1 2 161.78 19.6
5 -2 -2 152.08 23.7
5 -2 -2 79.89 21.7
5 -2 -2 139.39 24.6
-5 2 2 93.39 23.1
-5 2 2 119.89 24
-5 2 2 148.39 16.9
4 -2 -2 123.59 18.2
4 -2 -2 121.69 17.9
-4 2 2 139.39 19.1
-4 2 2 136.99 13.9
-4 2 2 114.89 17.6
3 -2 -2 1193.88 46.7
3 -2 -2 1283.77 47.2
-3 2 2 1200.18 46.7
-3 2 2 1279.77 41.6
-3 2 2 1240.78 46.5
2 -2 -2 80.49 9.5
2 -2 -2 88.79 9.6
2 -2 -2 81.89 9.6
-2 2 2 79.89 9.6
-2 2 2 109.89 9.2
-2 2 2 78.09 9.7
1 -2 -2 269.37 13
1 -2 -2 275.87 12.9
1 -2 -2 265.67 12.8
-1 2 2 282.17 12.9
-1 2 2 289.87 12.9
-1 2 2 281.07 13.1
-1 2 2 273.67 12.2
0 -2 -2 28.5 3
0 -2 -2 43.2 3.8
0 -2 -2 26.9 4
0 2 2 30.4 3.8
0 2 2 24.3 3
0 2 2 34.6 3.9
0 2 2 37.6 4.2
-1 -2 -2 2326.37 67.79
-1 -2 -2 2146.99 65.49
-1 -2 -2 2375.56 66.59
-1 -2 -2 2229.48 66.49
1 2 2 1928.41 65.99
1 2 2 2217.68 67.39
1 2 2 2212.38 66.49
1 2 2 2134.09 65.39
-2 -2 -2 2446.36 72.99
-2 -2 -2 2373.66 70.99
-2 -2 -2 2335.87 71.89
-2 -2 -2 2317.57 71.89
2 2 2 2259.57 71.99
2 2 2 2329.67 71.99
-3 -2 -2 749.92 28.1
-3 -2 -2 698.33 24
-3 -2 -2 712.63 27.8
-3 -2 -2 748.03 27.8
3 2 2 729.03 28
3 2 2 711.63 27.7
-4 -2 -2 210.88 18.9
-4 -2 -2 230.18 18.8
-4 -2 -2 219.08 11
-4 -2 -2 244.48 19.3
4 2 2 235.28 19.2
4 2 2 233.48 19.9
-5 -2 -2 257.57 10.5
-5 -2 -2 241.38 22.1
5 2 2 240.98 24.4
5 2 2 291.17 27.2
-6 -2 -2 223.38 26.4
6 2 2 197.18 26.4
6 2 2 220.78 25.6
4 -3 -2 266.57 27.3
4 -3 -2 254.17 27.1
4 -3 -2 263.17 27.9
-4 3 2 258.17 27.9
-4 3 2 251.37 18.1
-4 3 2 187.48 21.9
3 -3 -2 134.89 15.7
3 -3 -2 159.68 16.2
3 -3 -2 183.58 20
-3 3 2 146.49 15.7
-3 3 2 162.38 14
2 -3 -2 478.55 23.3
2 -3 -2 480.35 23.5
2 -3 -2 455.45 22.7
-2 3 2 501.05 20.6
-2 3 2 502.75 23.3
1 -3 -2 756.12 27.3
1 -3 -2 738.73 28.3
1 -3 -2 761.32 27.5
-1 3 2 760.72 27.2
-1 3 2 769.52 28.1
-1 3 2 741.63 27.3
-1 3 2 751.82 26.5
0 -3 -2 1529.35 47.7
0 -3 -2 1503.15 46.7
0 -3 -2 1499.65 46.8
0 -3 -2 1515.55 48.8
0 3 2 1487.15 46.7
0 3 2 1473.95 48.3
0 3 2 1477.05 46.8
0 3 2 1514.95 47.6
-1 -3 -2 350.96 14.9
-1 -3 -2 348.77 13.8
-1 -3 -2 307.87 12
-1 -3 -2 335.47 12.8
1 3 2 318.07 12
1 3 2 317.97 13.5
1 3 2 315.67 14.7
1 3 2 340.07 11.9
-2 -3 -2 1393.76 45.5
-2 -3 -2 1428.36 45.3
-2 -3 -2 1489.25 47.4
-2 -3 -2 1464.55 45.8
2 3 2 1417.56 45.9
-3 -3 -2 62.69 8.1
-3 -3 -2 52.29 7.8
-3 -3 -2 60.79 6.8
-3 -3 -2 59.49 9.3
3 3 2 67.89 8.4
3 3 2 61.89 8.9
-4 -3 -2 472.65 25
-4 -3 -2 557.04 26.4
-4 -3 -2 523.85 25.7
-4 -3 -2 528.45 21
4 3 2 505.15 26.4
4 3 2 543.65 26
-5 -3 -2 7.6 13.3
-5 -3 -2 20.1 6.6
-5 -3 -2 16.7 12.9
-5 -3 -2 23.9 12.6
5 3 2 -8.8 12.1
5 3 2 -2.4 13.9
-6 -3 -2 26.4 20.3
-6 -3 -2 43 26.4
6 3 2 -21.5 18.9
6 3 2 12.5 18.2
4 -4 -2 287.67 31.5
4 -4 -2 267.07 30.2
4 -4 -2 238.68 25.4
-4 4 2 216.88 21.1
-4 4 2 236.78 24.5
-4 4 2 194.18 24.2
3 -4 -2 508.25 28.3
3 -4 -2 444.46 34.5
-3 4 2 413.46 22.7
-3 4 2 426.36 28
2 -4 -2 936.11 37.7
2 -4 -2 930.71 36.1
2 -4 -2 788.02 47.1
-2 4 2 892.81 33.8
-2 4 2 930.91 36.5
-2 4 2 945.41 36.1
1 -4 -2 243.18 14.9
1 -4 -2 236.68 16.8
1 -4 -2 202.58 14.1
-1 4 2 235.78 14
-1 4 2 233.48 14.3
-1 4 2 225.18 15.7
0 -4 -2 1670.53 53.29
0 -4 -2 1711.73 56.39
0 -4 -2 1661.83 53.49
0 -4 -2 1695.93 54.39
0 4 2 1711.13 55.59
0 4 2 1648.24 53.39
0 4 2 1689.63 53.69
0 4 2 1707.03 54.39
-1 -4 -2 9.2 3.7
-1 -4 -2 13.3 4.8
-1 -4 -2 15 5.7
-1 -4 -2 13.4 4.1
-1 -4 -2 15.1 6.6
1 4 2 7.9 4
1 4 2 12 6.3
1 4 2 12.7 4.2
1 4 2 9.5 5.7
-2 -4 -2 1191.08 39.7
-2 -4 -2 1226.68 41.2
-2 -4 -2 1158.68 38.6
-2 -4 -2 1132.49 37.8
2 4 2 1204.28 42
2 4 2 1157.08 38.2
2 4 2 1172.48 38.8
-3 -4 -2 475.75 21
-3 -4 -2 473.55 21.5
-3 -4 -2 495.35 20.9
-3 -4 -2 475.05 22.9
3 4 2 483.15 22.2
3 4 2 506.65 21.1
-4 -4 -2 1168.58 41.5
-4 -4 -2 1212.18 45
-4 -4 -2 1197.58 43.8
4 4 2 1206.78 45.3
4 4 2 1233.58 44.8
-5 -4 -2 70.69 10.3
-5 -4 -2 95.19 15.8
-5 -4 -2 78.09 15.3
-5 -4 -2 63.19 14.5
5 4 2 79.19 14.9
5 4 2 79.79 16.2
3 -5 -2 -10.4 13.6
3 -5 -2 -5.9 16
-3 5 2 -1 11.1
-3 5 2 3.3 14.6
-3 5 2 -13 13.8
2 -5 -2 528.45 31.5
-2 5 2 523.75 27.2
-2 5 2 513.65 25.6
-2 5 2 490.75 27.6
1 -5 -2 1477.25 54.79
1 -5 -2 1520.95 52.29
1 -5 -2 1482.85 51.69
-1 5 2 1496.85 52.39
-1 5 2 1600.74 53.89
-1 5 2 1533.35 52.19
-1 5 2 1499.75 51.39
0 -5 -2 2780.12 88.59
0 -5 -2 2489.95 85.49
0 -5 -2 2722.43 84.99
0 -5 -2 2763.12 86.19
0 -5 -2 2728.33 85.19
0 5 2 2820.12 85.49
0 5 2 2687.63 85.99
0 5 2 2690.53 87.59
0 5 2 2863.91 85.49
-1 -5 -2 446.76 18
-1 -5 -2 432.26 22.8
-1 -5 -2 429.46 18
-1 -5 -2 519.95 20.1
-1 -5 -2 440.06 18.7
1 5 2 428.46 18.5
1 5 2 430.06 18.3
1 5 2 460.35 22.5
1 5 2 445.36 20.4
-2 -5 -2 1767.62 56.19
-2 -5 -2 1693.43 55.09
-2 -5 -2 1812.42 57.39
2 5 2 1718.13 56.29
2 5 2 1748.03 55.59
-3 -5 -2 993.1 35.6
-3 -5 -2 958.2 37.7
-3 -5 -2 959.9 36.3
3 5 2 862.41 33.9
3 5 2 1009.2 39.7
3 5 2 975.8 36
-4 -5 -2 256.97 18.4
-4 -5 -2 298.57 19.8
-4 -5 -2 258.27 21.5
-4 -5 -2 277.07 21.1
4 5 2 277.77 22
4 5 2 292.17 24.6
4 5 2 273.47 25.2
-5 -5 -2 271.37 26
-5 -5 -2 205.78 22.6
-5 -5 -2 219.78 19
-5 -5 -2 211.28 25.2
5 5 2 226.18 26.3
3 -6 -2 90.89 20.4
3 -6 -2 84.49 19.6
3 -6 -2 121.19 24.4
-3 6 2 111.59 20.9
-3 6 2 148.09 16.4
-3 6 2 142.89 21.9
2 -6 -2 290.87 23.3
2 -6 -2 297.47 26
2 -6 -2 276.87 24.2
-2 6 2 183.78 23
-2 6 2 243.88 25
1 -6 -2 15.5 13.2
1 -6 -2 14.1 9.7
1 -6 -2 -2 12.1
-1 6 2 43.3 11.4
-1 6 2 3.4 10.3
-1 6 2 13 10
0 -6 -2 33.3 8.3
0 -6 -2 25.4 8.5
0 -6 -2 16.6 9.4
0 -6 -2 34.8 10.4
0 -6 -2 30.3 12.4
0 6 2 31.7 8.7
0 6 2 30.8 8.8
0 6 2 22 11.1
-1 -6 -2 1435.86 47.4
-1 -6 -2 1436.16 48.3
-1 -6 -2 1410.86 46.9
-1 -6 -2 1379.16 52.69
-1 -6 -2 1411.36 49.6
1 6 2 1587.84 47.8
1 6 2 1427.86 48.2
1 6 2 1399.66 52.49
1 6 2 1352.66 49.7
-2 -6 -2 5.4 9.1
-2 -6 -2 1.7 6.1
2 6 2 10.2 11
2 6 2 15.4 7.3
-3 -6 -2 427.16 20.3
-3 -6 -2 458.85 22.6
-3 -6 -2 453.95 23.1
3 6 2 416.96 22.6
3 6 2 352.46 30.7
3 6 2 428.46 21.1
-4 -6 -2 28.8 11.7
-4 -6 -2 18.3 10
-4 -6 -2 27.8 13.9
4 6 2 33.7 10.5
4 6 2 10.1 11.6
4 6 2 23.7 15.3
-5 -6 -2 72.79 15.3
-5 -6 -2 68.39 16
-5 -6 -2 70.09 14.9
-5 -6 -2 87.09 18.2
5 6 2 29.2 19.9
5 6 2 93.09 15.5
5 6 2 82.09 17.2
2 -7 -2 62.19 16.3
2 -7 -2 71.49 17.3
2 -7 -2 113.29 22.8
-2 7 2 67.99 16
-2 7 2 61.39 18
-2 7 2 51.49 17.2
1 -7 -2 978.5 41.2
1 -7 -2 972.2 41.7
1 -7 -2 993.4 46.2
-1 7 2 972.1 41.6
-1 7 2 967.9 45.2
-1 7 2 969.6 41.3
-1 7 2 1043.2 41.4
0 -7 -2 45.9 12
0 -7 -2 21.7 9.6
0 -7 -2 22.8 12.1
0 7 2 13.9 9.9
0 7 2 36.4 17.2
0 7 2 12.6 10.8
-1 -7 -2 1103.29 40.6
-1 -7 -2 1084.09 38.4
-1 -7 -2 1062.89 41.9
-1 -7 -2 1097.29 39.3
-1 -7 -2 1056.69 51.59
1 7 2 1111.09 40.7
1 7 2 1117.59 40.5
1 7 2 1053.49 44.8
-2 -7 -2 101.89 10.9
-2 -7 -2 94.39 13.4
-2 -7 -2 100.49 10.1
2 7 2 96.19 11.8
2 7 2 86.49 10.6
2 7 2 94.29 15.8
-3 -7 -2 878.31 37.8
-3 -7 -2 913.11 36.3
-3 -7 -2 881.41 33.4
3 7 2 934.81 42.2
3 7 2 822.42 36
3 7 2 814.32 34.3
-4 -7 -2 175.98 18.9
-4 -7 -2 130.39 16.8
4 7 2 169.58 22.2
4 7 2 134.29 14.5
4 7 2 136.09 16.9
-5 -7 -2 300.67 29.9
-5 -7 -2 353.66 27.2
-5 -7 -2 267.17 30.2
-5 -7 -2 265.07 29.2
5 7 2 299.47 27.9
5 7 2 313.87 35.4
5 7 2 229.18 24
1 -8 -2 601.34 38
1 -8 -2 686.03 43
1 -8 -2 686.73 37.9
-1 8 2 697.63 37.6
-1 8 2 697.43 36.6
-1 8 2 688.33 40
0 -8 -2 129.09 16.5
0 -8 -2 142.29 16.5
0 -8 -2 119.29 21.2
0 -8 -2 120.69 15.2
0 -8 -2 114.59 15.6
0 8 2 136.49 19.8
0 8 2 126.59 15.6
0 8 2 136.39 16.4
-1 -8 -2 439.46 22.6
-1 -8 -2 472.65 25.7
-1 -8 -2 481.35 34.2
-1 -8 -2 449.06 28.2
-1 -8 -2 449.86 24.1
1 8 2 405.86 31.1
1 8 2 487.85 26.8
1 8 2 473.95 25.5
-2 -8 -2 239.38 23
-2 -8 -2 220.28 18.3
2 8 2 240.18 21.4
2 8 2 273.97 19.7
2 8 2 256.07 28.5
-3 -8 -2 256.97 24.3
-3 -8 -2 207.98 18.6
3 8 2 181.68 19.1
3 8 2 181.48 22.8
3 8 2 236.38 23
-4 -8 -2 275.37 27.2
-4 -8 -2 262.77 22.2
-4 -8 -2 234.58 22.9
4 8 2 215.98 26.6
4 8 2 271.77 28.1
4 8 2 240.08 23.4
-1 -9 -2 154.88 18.3
-1 -9 -2 127.69 25.3
-1 -9 -2 142.99 16.1
-1 -9 -2 172.48 20.3
1 9 2 137.69 16.7
1 9 2 128.19 23.3
1 9 2 178.28 18.9
-2 -9 -2 388.66 31
-2 -9 -2 394.46 25.1
2 9 2 447.66 36.8
2 9 2 461.85 28.8
2 9 2 406.96 26.8
3 8 -3 250.27 24.4
3 8 -3 235.88 26.7
3 8 -3 352.76 36.5
-3 -8 3 314.77 30.9
-3 -8 3 303.47 29.5
-3 -8 3 337.67 34.7
2 8 -3 33.6 15.5
2 8 -3 51.79 19.5
-2 -8 3 31 14.6
-2 -8 3 5.9 15.2
1 8 -3 771.22 40.6
1 8 -3 767.42 43.3
1 8 -3 744.33 38.1
-1 -8 3 702.23 37.5
-1 -8 3 711.63 40.1
-1 -8 3 763.52 36.9
-1 -8 3 764.62 43.2
0 8 -3 3.5 15.1
0 8 -3 17.4 16.6
0 8 -3 -9.6 17.4
0 -8 3 -2.7 14.2
0 -8 3 -11 16.4
0 -8 3 -23.8 13.7
0 -8 3 11.6 8.2
0 -8 3 -12.4 18.1
4 7 -3 18.4 21.4
4 7 -3 12.1 17
4 7 -3 -3 18.6
-4 -7 3 13.8 16.6
-4 -7 3 -17.6 17.5
-4 -7 3 1.8 17.2
3 7 -3 209.68 24.4
3 7 -3 246.58 27.4
3 7 -3 234.98 25.8
-3 -7 3 220.88 24.9
-3 -7 3 256.97 27.6
-3 -7 3 233.38 26
2 7 -3 238.38 24.1
2 7 -3 191.68 21.7
2 7 -3 240.78 26.6
-2 -7 3 203.08 23.1
1 7 -3 729.33 35.5
1 7 -3 744.43 39.4
1 7 -3 753.82 36.1
-1 -7 3 737.73 38.8
-1 -7 3 901.31 34.5
-1 -7 3 708.53 34.8
0 7 -3 334.17 29.5
0 7 -3 292.47 25.6
0 7 -3 287.97 27.7
0 -7 3 336.17 25.4
0 -7 3 288.17 27.9
0 -7 3 291.37 22.9
-1 7 -3 230.18 25.3
-1 7 -3 157.18 19.6
-1 7 -3 183.48 22.1
1 -7 3 155.68 18.9
1 -7 3 186.58 19.2
1 -7 3 180.48 17
1 -7 3 181.18 22.5
-2 7 -3 592.94 38.9
-2 7 -3 596.74 37.8
-2 7 -3 547.75 39.9
2 -7 3 546.65 30.7
2 -7 3 670.73 37
2 -7 3 627.94 39.6
2 -7 3 476.35 41.7
4 6 -3 61.09 32
4 6 -3 70.29 19.7
4 6 -3 71.29 16.9
-4 -6 3 69.89 17.2
-4 -6 3 90.59 17.8
-4 -6 3 58.79 17.2
3 6 -3 351.26 26.1
3 6 -3 335.07 28
3 6 -3 308.77 27.5
-3 -6 3 292.97 26
2 6 -3 342.77 24.4
2 6 -3 324.67 22.5
2 6 -3 325.57 25.6
-2 -6 3 335.57 23
-2 -6 3 352.76 22.1
1 6 -3 57.39 12.1
-1 -6 3 54.99 11
-1 -6 3 64.79 13.9
-1 -6 3 25.6 18.3
0 6 -3 597.74 31.6
0 6 -3 598.34 29.4
0 6 -3 541.25 28.5
0 -6 3 593.64 31.6
0 -6 3 607.54 27.1
-1 6 -3 49.7 15
-1 6 -3 18 14.8
-1 6 -3 30.4 12.8
1 -6 3 35.8 10.8
1 -6 3 41.1 11.7
-2 6 -3 1273.97 52.49
-2 6 -3 1214.68 49.9
-2 6 -3 1185.08 50.39
2 -6 3 1175.88 43.4
2 -6 3 1125.49 52.29
2 -6 3 1253.27 49.6
2 -6 3 1155.58 49.7
-3 6 -3 8.1 18.2
-3 6 -3 54.79 20.1
3 -6 3 -16.2 22.5
3 -6 3 9.3 19.6
3 -6 3 -13.4 17.3
5 5 -3 3.4 19.7
5 5 -3 19.3 17.9
5 5 -3 27.4 20.3
-5 -5 3 68.09 20.5
-5 -5 3 44.5 19
4 5 -3 378.16 28.3
4 5 -3 413.86 32
4 5 -3 382.36 29.7
-4 -5 3 381.46 29.1
3 5 -3 -6.4 11.4
3 5 -3 6.3 12.5
3 5 -3 3.6 10.9
2 5 -3 409.86 23.2
2 5 -3 385.96 22.6
2 5 -3 412.96 25.3
-2 -5 3 415.86 23.2
1 5 -3 26.4 9.7
1 5 -3 7.1 9
1 5 -3 6.7 8.3
-1 -5 3 11.2 8.6
-1 -5 3 2.4 9.5
-1 -5 3 5.5 8.3
-1 -5 3 -3 8.4
0 5 -3 967.2 38.4
0 5 -3 1062.69 40.8
0 5 -3 975.6 38.5
0 -5 3 994.7 40.2
0 -5 3 999.4 38.2
0 -5 3 1132.39 36.9
0 -5 3 998.9 38.8
-1 5 -3 265.57 19.4
-1 5 -3 264.87 19.7
-1 5 -3 256.77 21.6
1 -5 3 240.48 21.5
1 -5 3 197.18 13.9
1 -5 3 190.78 23.5
-2 5 -3 69.29 14
-2 5 -3 70.29 14.3
-2 5 -3 75.09 15.8
2 -5 3 54.19 13.8
2 -5 3 104.79 14.6
-3 5 -3 450.75 31.8
-3 5 -3 492.95 33.4
3 -5 3 444.66 35
3 -5 3 501.55 32.7
3 -5 3 530.35 33.3
5 4 -3 20.5 17.3
5 4 -3 -3.7 18.1
-5 -4 3 22.7 18
-5 -4 3 22.6 17.8
-5 -4 3 21.2 12.2
4 4 -3 309.97 26.5
4 4 -3 246.38 25.4
4 4 -3 299.87 27.2
-4 -4 3 332.77 25.4
-4 -4 3 308.27 19.5
3 4 -3 28.1 11.5
3 4 -3 37 11.8
3 4 -3 14.1 10.5
-3 -4 3 25.6 10.8
2 4 -3 591.44 26.2
2 4 -3 539.55 25.1
-2 -4 3 522.65 25
-2 -4 3 519.95 24.9
1 4 -3 865.51 32.4
1 4 -3 828.32 33
1 4 -3 832.22 31.9
-1 -4 3 842.92 32.2
-1 -4 3 847.72 32.5
-1 -4 3 845.32 31.7
0 4 -3 424.06 21.9
0 4 -3 406.06 20
0 4 -3 406.16 20.2
0 -4 3 433.66 20.8
0 -4 3 405.46 19.7
0 -4 3 430.56 21.4
0 -4 3 442.36 19.4
-1 4 -3 1795.32 58.69
-1 4 -3 1512.25 59.29
1 -4 3 1776.62 58.69
1 -4 3 1742.03 56.29
1 -4 3 1828.12 60.49
1 -4 3 1818.92 59.09
-2 4 -3 472.95 24.3
-2 4 -3 463.25 25.2
2 -4 3 445.46 25.4
2 -4 3 456.55 24.4
2 -4 3 414.46 18.7
2 -4 3 421.56 29.6
-3 4 -3 837.22 39.6
-3 4 -3 862.51 38.6
3 -4 3 857.61 39.1
3 -4 3 820.52 38.1
-4 4 -3 58.09 18.7
-4 4 -3 92.99 19.6
4 -4 3 68.79 19
4 -4 3 92.29 21.5
4 -4 3 80.99 18.3
5 3 -3 -11.3 17.5
-5 -3 3 21.6 11.4
-5 -3 3 9.8 16.8
-5 -3 3 16.9 17.4
4 3 -3 326.77 27.1
-4 -3 3 287.17 29.5
-4 -3 3 327.47 24.6
-4 -3 3 318.17 18.5
3 3 -3 329.37 21.5
3 3 -3 306.97 21.5
-3 -3 3 313.77 15.9
-3 -3 3 307.27 20.8
-3 -3 3 335.17 21.2
2 3 -3 1384.06 47.7
2 3 -3 1366.56 47.8
2 3 -3 1421.76 48.1
-2 -3 3 1387.96 47.7
-2 -3 3 1337.87 47.6
1 3 -3 1898.31 61.09
1 3 -3 1866.21 61.09
1 3 -3 1925.71 61.09
-1 -3 3 1858.31 60.69
-1 -3 3 1922.61 60.89
-1 -3 3 1871.91 61.09
0 3 -3 1041.7 36.3
0 3 -3 1004 35.2
0 3 -3 1003.6 35.4
0 -3 3 981.9 35.7
0 -3 3 1037.8 35.5
0 -3 3 1038.4 35.2
-1 3 -3 521.15 22.5
-1 3 -3 547.15 22.7
-1 3 -3 558.04 24
1 -3 3 551.24 22.8
1 -3 3 517.55 20.1
1 -3 3 550.34 22.5
1 -3 3 540.05 23.5
-2 3 -3 1.4 8.3
2 -3 3 4.4 4.7
2 -3 3 -1.6 9
2 -3 3 8.6 8.7
-3 3 -3 1568.64 57.19
-3 3 -3 1544.45 56.49
3 -3 3 1602.14 56.69
-4 3 -3 9.4 14.8
-4 3 -3 58.49 16.7
4 -3 3 28 15.1
4 -3 3 49.99 16
4 -3 3 69.49 17.3
5 2 -3 73.99 19.3
5 2 -3 47 19.3
-5 -2 3 60.19 18.5
-5 -2 3 78.69 12.3
-5 -2 3 79.29 19.9
4 2 -3 20.3 13.1
4 2 -3 16.3 13.9
-4 -2 3 17 12.8
-4 -2 3 12.3 7.9
-4 -2 3 4.9 12.5
3 2 -3 709.23 32.3
3 2 -3 719.63 31.1
-3 -2 3 768.52 32.2
-3 -2 3 754.12 26.4
-3 -2 3 736.33 31.7
2 2 -3 174.48 13.6
-2 -2 3 169.08 9.5
-2 -2 3 169.68 13.4
-2 -2 3 195.58 13.8
1 2 -3 59.09 3.5
1 2 -3 48.1 6.1
1 2 -3 48.5 6.7
1 2 -3 47.3 6.6
-1 -2 3 48.3 6.5
0 2 -3 1690.73 53.29
0 2 -3 1665.23 53.39
0 2 -3 1683.83 53.09
0 -2 3 1663.33 52.99
0 -2 3 1682.53 53.29
0 -2 3 1674.73 53.19
-1 2 -3 3255.07 100.49
-1 2 -3 3200.48 100.69
-1 2 -3 3435.86 101.49
1 -2 3 3267.87 100.59
1 -2 3 3279.77 101.09
1 -2 3 3235.38 100.69
-2 2 -3 1364.56 45.7
-2 2 -3 1294.37 45.8
2 -2 3 1316.77 45.9
2 -2 3 1369.16 45.8
2 -2 3 1331.37 46.6
2 -2 3 1344.17 41.5
-3 2 -3 748.73 31.8
3 -2 3 774.22 31.8
3 -2 3 709.33 32.1
3 -2 3 760.12 33.1
-4 2 -3 55.19 14.5
-4 2 -3 91.09 17.5
4 -2 3 64.09 15.3
4 -2 3 55.69 14.4
-5 2 -3 145.69 21.8
-5 2 -3 175.48 24.5
5 -2 3 153.58 24.1
5 -2 3 170.98 23.7
5 -2 3 198.58 23.1
5 1 -3 128.49 20.8
5 1 -3 149.99 23
-5 -1 3 172.28 23.2
-5 -1 3 167.78 23
-5 -1 3 138.19 14.3
4 1 -3 182.58 27.5
4 1 -3 187.08 23.1
-4 -1 3 208.88 14.6
-4 -1 3 201.28 22.5
-4 -1 3 187.58 22.6
3 1 -3 443.96 24.8
-3 -1 3 467.75 18.2
-3 -1 3 476.75 24.4
-3 -1 3 420.96 24.2
2 1 -3 440.36 20.8
2 1 -3 440.26 20.6
-2 -1 3 448.56 20.4
-2 -1 3 451.75 15.5
-2 -1 3 415.96 20.4
1 1 -3 992.9 32.7
1 1 -3 989.2 34.1
1 1 -3 1029.9 34.3
1 1 -3 1027.2 30.9
-1 -1 3 1051.99 34.3
-1 -1 3 1016.5 34.2
0 1 -3 4991.7 151.98
0 1 -3 5100.49 152.48
0 1 -3 5090.99 152.38
0 -1 3 5455.35 150.98
0 -1 3 5077.89 151.88
0 -1 3 4942.41 152.28
0 -1 3 5048.59 152.38
-1 1 -3 388.86 15.7
-1 1 -3 409.06 15.8
1 -1 3 392.06 15.7
1 -1 3 420.26 16
1 -1 3 413.36 15.9
-2 1 -3 1731.63 55.39
-2 1 -3 1687.03 55.49
2 -1 3 1672.13 51.29
2 -1 3 1756.52 55.49
2 -1 3 1720.73 55.69
2 -1 3 1739.13 56.29
-3 1 -3 -5.6 8.2
-3 1 -3 15.7 8.4
3 -1 3 12.7 8.5
3 -1 3 7.6 8
-4 1 -3 1831.72 73.49
-4 1 -3 2065.19 69.59
4 -1 3 1995 69.39
4 -1 3 1987 69.09
-5 1 -3 17.5 16.2
-5 1 -3 14.2 17.4
5 -1 3 41.8 18.5
5 -1 3 36.5 17.5
5 -1 3 58.39 17.4
5 0 -3 351.06 34.1
5 0 -3 277.17 33.2
-5 0 3 316.57 21.7
-5 0 3 324.47 34.3
-5 0 3 321.77 32.9
4 0 -3 38.1 14.3
4 0 -3 15.2 15.8
-4 0 3 25.1 9
-4 0 3 12.5 12.9
3 0 -3 154.58 17.8
3 0 -3 218.98 16.4
-3 0 3 155.58 17.3
2 0 -3 838.42 32.5
2 0 -3 846.82 32.6
-2 0 3 901.91 32.7
-2 0 3 904.01 32.5
1 0 -3 322.07 14.1
1 0 -3 314.57 14.1
-1 0 3 314.77 14.1
-1 0 3 326.17 14.1
0 0 -3 2450.45 73.59
0 0 -3 2452.45 73.59
0 0 -3 2329.87 72.29
0 0 3 2345.17 72.29
0 0 3 2451.75 73.69
0 0 3 2422.46 73.59
0 0 3 2641.14 73.49
-1 0 -3 144.19 7.1
-1 0 -3 141.59 7
1 0 3 141.89 7
1 0 3 138.59 7
-2 0 -3 2890.31 87.29
-2 0 -3 2883.81 87.49
2 0 3 2763.72 87.19
2 0 3 2838.82 87.39
-3 0 -3 121.69 13.6
-3 0 -3 139.89 13.3
3 0 3 111.39 12.7
-4 0 -3 1220.28 46.1
4 0 3 1187.18 46.2
4 0 3 1215.78 47
-5 0 -3 98.39 17.7
-5 0 -3 111.69 17.3
-5 0 -3 98.49 18
5 0 3 112.39 18.6
5 0 3 73.69 16.6
5 -1 -3 -17.8 17.2
5 -1 -3 14.2 18.5
5 -1 -3 -4.5 19.6
-5 1 3 34.7 19.6
-5 1 3 -15.9 11.7
-5 1 3 -4.4 10.1
-5 1 3 -12.4 18.3
4 -1 -3 157.08 17.3
4 -1 -3 216.78 25.2
4 -1 -3 169.38 18.8
-4 1 3 206.68 23.8
-4 1 3 171.08 19.1
3 -1 -3 68.49 11.8
-3 1 3 53.09 11.4
-3 1 3 31.1 10.8
2 -1 -3 1339.97 46.9
2 -1 -3 1359.96 47.1
-2 1 3 1383.76 47
-2 1 3 1406.86 47.4
1 -1 -3 201.18 11.4
1 -1 -3 206.78 9.3
1 -1 -3 215.68 11
-1 1 3 212.28 11.5
-1 1 3 194.78 10.9
0 -1 -3 1525.95 43.7
0 -1 -3 1374.86 43.8
0 -1 -3 1391.66 42.9
0 -1 -3 1556.14 44.9
0 1 3 1412.56 42.9
0 1 3 1379.76 43.8
0 1 3 1421.16 43.9
-1 -1 -3 258.97 9.2
-1 -1 -3 294.47 10.6
-1 -1 -3 275.87 11
1 1 3 261.97 9.2
1 1 3 263.67 9.3
-2 -1 -3 6233.18 184.38
-2 -1 -3 6402.76 185.48
-2 -1 -3 6008.1 183.98
2 1 3 6203.38 184.28
2 1 3 6038.1 184.18
-3 -1 -3 23.9 8.2
-3 -1 -3 8.8 6.7
-3 -1 -3 5.1 6.3
3 1 3 14.5 6.8
3 1 3 17.2 7.1
-4 -1 -3 240.68 18.9
-4 -1 -3 226.18 18.9
4 1 3 227.48 18.3
4 1 3 235.18 18.9
-5 -1 -3 -8.2 10.8
-5 -1 -3 8.5 13.7
-5 -1 -3 -2.5 14.1
5 1 3 9.5 14.3
5 1 3 13 13.4
4 -2 -3 305.17 28.5
4 -2 -3 357.16 28.4
-4 2 3 336.47 19.4
-4 2 3 354.16 28.1
-4 2 3 314.17 28.7
3 -2 -3 444.56 24.3
-3 2 3 440.26 26.3
-3 2 3 448.16 25.6
2 -2 -3 327.97 17.7
2 -2 -3 330.27 18.1
2 -2 -3 305.57 17.9
-2 2 3 296.47 17.9
-2 2 3 323.37 18.1
1 -2 -3 708.93 25.2
1 -2 -3 751.32 26
1 -2 -3 703.23 25.9
-1 2 3 737.33 26.1
-1 2 3 709.93 25.7
0 -2 -3 773.32 24.7
0 -2 -3 823.62 26.9
0 -2 -3 770.52 25.6
0 2 3 787.32 26
0 2 3 779.92 25.4
0 2 3 766.62 25
0 2 3 761.92 24.7
-1 -2 -3 5317.37 153.58
-1 -2 -3 5201.18 153.08
1 2 3 4867.81 152.58
-2 -2 -3 139.49 7.4
-2 -2 -3 150.08 10.4
-2 -2 -3 141.29 7.7
-2 -2 -3 165.08 8.2
2 2 3 139.09 7.4
2 2 3 135.99 8.2
2 2 3 140.19 8.2
-3 -2 -3 2680.13 84.39
-3 -2 -3 2651.53 83.39
-3 -2 -3 2652.83 82.99
-3 -2 -3 2582.94 79.99
3 2 3 2746.23 83.59
3 2 3 2659.63 83.49
-4 -2 -3 70.49 11.5
-4 -2 -3 98.19 6.5
-4 -2 -3 95.49 11.7
-4 -2 -3 89.99 12.7
4 2 3 76.19 11.5
4 2 3 91.79 12.2
-5 -2 -3 787.92 36
-5 -2 -3 752.92 37.1
5 2 3 780.72 38
5 2 3 780.02 37.5
-6 -2 -3 2.3 19.7
-6 -2 -3 8.4 27.1
6 2 3 29.9 18.6
6 2 3 -9.2 20.4
4 -3 -3 94.09 18.5
4 -3 -3 65.39 18.3
4 -3 -3 129.59 19
-4 3 3 57.59 17.7
-4 3 3 77.89 18.9
-4 3 3 67.39 12
3 -3 -3 338.37 24.1
3 -3 -3 336.37 24.2
-3 3 3 328.17 24.9
-3 3 3 362.76 19.3
-3 3 3 338.77 24.7
2 -3 -3 13.9 8.7
2 -3 -3 16.3 8.8
2 -3 -3 7.6 8
-2 3 3 7.5 6.7
-2 3 3 10.7 8.5
1 -3 -3 3779.62 115.39
1 -3 -3 3788.62 115.89
1 -3 -3 3722.53 115.09
-1 3 3 3759.32 114.79
-1 3 3 3748.12 115.49
-1 3 3 3820.72 115.09
-1 3 3 3741.43 115.09
0 -3 -3 123.89 7.4
0 -3 -3 117.09 7.5
0 -3 -3 117.99 9.3
0 -3 -3 136.99 10.3
0 3 3 127.39 7.8
0 3 3 131.19 9.1
0 3 3 121.39 7.4
0 3 3 112.09 8.8
-1 -3 -3 7014.1 203.68
-1 -3 -3 6504.25 200.28
-1 -3 -3 6871.61 202.68
-1 -3 -3 6912.81 202.48
1 3 3 6603.24 200.58
1 3 3 6989.6 202.78
1 3 3 6916.11 203.38
1 3 3 6573.24 200.48
-2 -3 -3 36 5.3
-2 -3 -3 38.7 4.3
-2 -3 -3 61.99 7.4
2 3 3 48 4.9
2 3 3 46.1 5.6
-3 -3 -3 2101.29 65.49
-3 -3 -3 2023.4 68.49
-3 -3 -3 2190.18 67.09
-3 -3 -3 2166.98 67.09
3 3 3 2109.79 67.39
3 3 3 2098.69 67.09
-4 -3 -3 30.1 5.9
-4 -3 -3 19.8 9
-4 -3 -3 23.6 11.1
-4 -3 -3 18.8 9
4 3 3 28.3 9.8
4 3 3 20.4 9.6
-5 -3 -3 432.56 25.6
-5 -3 -3 327.37 25
-5 -3 -3 349.57 14.9
-5 -3 -3 311.57 25.3
5 3 3 350.16 26.1
5 3 3 336.17 26
-6 -3 -3 -0.5 17.6
-6 -3 -3 20.7 19.1
-6 -3 -3 5.3 18
6 3 3 16.3 17.2
6 3 3 -15.3 21
4 -4 -3 6.3 18.5
4 -4 -3 24.9 18.7
4 -4 -3 -12.3 16.3
-4 4 3 -14.4 17.5
-4 4 3 10.5 17.9
-4 4 3 20.9 12.8
3 -4 -3 292.07 24.1
3 -4 -3 280.37 26.5
-3 4 3 241.28 29.5
-3 4 3 283.47 20.3
-3 4 3 282.67 25.5
2 -4 -3 8.1 10.2
2 -4 -3 13.3 11.3
2 -4 -3 6.4 9.4
-2 4 3 11.4 9.7
-2 4 3 13.3 8.8
-2 4 3 16.2 10
1 -4 -3 1953.5 63.09
1 -4 -3 1950.5 64.99
1 -4 -3 1919.71 62.99
-1 4 3 1891.21 62.69
-1 4 3 1966.7 63.69
-1 4 3 1868.21 62.79
-1 4 3 2080.59 63.39
0 -4 -3 28.4 5.2
0 -4 -3 25.9 5.2
0 -4 -3 26.8 6.2
0 -4 -3 24.3 7.6
0 -4 -3 20.1 7.8
0 4 3 29.2 5.4
0 4 3 27.2 5.1
0 4 3 13.2 6.5
0 4 3 33 6.9
-1 -4 -3 524.55 20.9
-1 -4 -3 530.45 18.4
-1 -4 -3 526.25 20.3
-1 -4 -3 505.35 22.2
1 4 3 536.95 18.4
1 4 3 553.54 21
1 4 3 530.95 21.9
1 4 3 537.35 18.6
-2 -4 -3 773.42 29.8
-2 -4 -3 786.52 26.2
-2 -4 -3 760.52 27.8
2 4 3 797.62 28.2
2 4 3 751.12 26.4
2 4 3 807.02 30.4
2 4 3 771.42 25.7
-3 -4 -3 1189.68 40
-3 -4 -3 1204.88 42.7
-3 -4 -3 1183.48 39.8
-3 -4 -3 1169.78 39.4
3 4 3 1147.19 40.4
-4 -4 -3 557.14 27.7
-4 -4 -3 566.54 26.4
-4 -4 -3 562.04 23.3
-4 -4 -3 585.74 25.7
4 4 3 539.65 26.8
4 4 3 567.54 26.3
-5 -4 -3 235.88 15.9
-5 -4 -3 244.78 23.7
-5 -4 -3 259.07 23.4
5 4 3 241.78 24.7
5 4 3 229.68 22.8
3 -5 -3 176.48 26
3 -5 -3 170.88 22.2
3 -5 -3 172.68 20.1
-3 5 3 188.38 20.7
-3 5 3 175.88 20.4
-3 5 3 208.38 20.8
2 -5 -3 416.86 28
2 -5 -3 504.75 26.3
-2 5 3 470.15 26.7
-2 5 3 466.15 26.5
1 -5 -3 14.9 8.7
1 -5 -3 11.8 8.5
1 -5 -3 21.3 11.2
-1 5 3 24.2 9.4
-1 5 3 13.3 8.8
-1 5 3 13.3 8.6
0 -5 -3 1392.86 48.3
0 -5 -3 1360.86 44.5
0 -5 -3 1327.97 44.5
0 -5 -3 1179.18 45.1
0 -5 -3 1409.56 46.9
0 5 3 1324.77 47
0 5 3 1340.77 46
0 5 3 1362.06 44.8
0 5 3 1341.37 44.4
-1 -5 -3 366.56 16.2
-1 -5 -3 405.06 15.7
-1 -5 -3 376.16 21.8
-1 -5 -3 425.36 18.2
-1 -5 -3 380.56 17.5
1 5 3 404.06 16.4
1 5 3 370.16 20.5
1 5 3 363.46 18.7
1 5 3 396.76 16.1
-2 -5 -3 1973.5 62.49
-2 -5 -3 2052.19 64.39
-2 -5 -3 1994.5 62.29
-2 -5 -3 1983.6 66.39
2 5 3 1970.9 66.29
2 5 3 2052.29 64.49
2 5 3 1889.11 61.59
2 5 3 2006.1 62.59
-3 -5 -3 60.39 8.2
-3 -5 -3 66.29 7.5
-3 -5 -3 65.79 12.2
3 5 3 72.09 13.1
3 5 3 82.39 9.5
-4 -5 -3 28.2 9
-4 -5 -3 31.4 13
4 5 3 14.4 9.2
4 5 3 26.5 10.3
-5 -5 -3 24.7 15.9
-5 -5 -3 32.3 12.7
-5 -5 -3 48.4 13.5
5 5 3 20.4 14.2
3 -6 -3 111.29 34.4
3 -6 -3 138.29 24.1
3 -6 -3 111.29 19.9
-3 6 3 110.39 21.4
-3 6 3 116.79 20.7
-3 6 3 117.59 17.8
2 -6 -3 460.65 30.4
2 -6 -3 612.54 32.1
-2 6 3 569.64 32.3
-2 6 3 615.94 32.1
1 -6 -3 109.59 16.1
1 -6 -3 109.49 21.2
1 -6 -3 107.69 12.8
-1 6 3 108.19 15.2
-1 6 3 109.79 13.2
-1 6 3 93.79 13.8
-1 6 3 110.09 13.6
0 -6 -3 2636.84 81.89
0 -6 -3 2610.54 83.19
0 -6 -3 2516.15 85.89
0 -6 -3 2599.44 83.39
0 -6 -3 2529.45 81.29
0 6 3 2550.44 81.89
0 6 3 2503.65 84.49
0 6 3 2580.64 83.29
0 6 3 2550.44 81.49
-1 -6 -3 13.7 6.1
-1 -6 -3 20.6 11.5
-1 -6 -3 18.4 9.2
-1 -6 -3 26.6 7.2
-1 -6 -3 26.2 8.2
1 6 3 24.7 10.9
1 6 3 14.9 10.9
1 6 3 12.5 6.5
-2 -6 -3 1165.58 37.8
-2 -6 -3 1129.69 41.6
-2 -6 -3 1194.58 38.8
2 6 3 1018 37.8
2 6 3 1154.58 44.1
2 6 3 1184.18 39.4
-3 -6 -3 -6.1 11.8
-3 -6 -3 -1.1 7.5
-3 -6 -3 -12.3 5.8
-3 -6 -3 -2.7 9.2
3 6 3 10.3 6.9
3 6 3 2.5 7.7
-4 -6 -3 719.03 36.7
-4 -6 -3 752.02 33
-4 -6 -3 727.13 32.4
-4 -6 -3 806.62 30.8
4 6 3 722.03 31.7
4 6 3 812.22 39
4 6 3 706.73 33.2
-5 -6 -3 4.3 13.1
-5 -6 -3 7.8 15.8
-5 -6 -3 -11.8 11.9
-5 -6 -3 -20.5 11.4
5 6 3 -1.9 18
5 6 3 -0.3 14
5 6 3 -5 12.3
2 -7 -3 593.94 35.2
2 -7 -3 540.05 34
2 -7 -3 604.24 40
-2 7 3 578.34 34.5
-2 7 3 510.65 35.5
1 -7 -3 316.77 28.4
1 -7 -3 191.58 21.2
1 -7 -3 166.88 17.4
-1 7 3 220.88 19.7
-1 7 3 252.27 23.5
-1 7 3 210.98 21.6
-1 7 3 232.58 24.7
0 -7 -3 1057.89 42.6
0 -7 -3 1066.69 40.6
0 -7 -3 1048.5 42.7
0 7 3 1100.49 45
0 7 3 1096.29 40.9
0 7 3 1151.58 41.9
-1 -7 -3 401.56 29
-1 -7 -3 416.46 20.4
-1 -7 -3 448.66 25.3
-1 -7 -3 417.56 21.3
1 7 3 414.66 26.9
1 7 3 414.86 21.6
1 7 3 428.96 21.3
-2 -7 -3 644.74 25.5
-2 -7 -3 674.63 25.9
-2 -7 -3 618.54 30.2
2 7 3 656.33 26.3
2 7 3 665.03 35.1
2 7 3 661.13 27.6
-3 -7 -3 774.42 29.9
-3 -7 -3 798.02 35
3 7 3 816.12 33.3
3 7 3 817.62 30.8
3 7 3 813.72 39.5
-4 -7 -3 616.84 26.8
-4 -7 -3 553.14 32.2
4 7 3 600.74 27.8
4 7 3 596.24 31.1
4 7 3 607.54 37.6
-5 -7 -3 100.09 17.6
-5 -7 -3 125.49 22
-5 -7 -3 122.59 17.6
-5 -7 -3 145.39 16.3
5 7 3 171.78 25.5
5 7 3 134.49 19.1
5 7 3 127.59 16.7
1 -8 -3 530.85 40.1
1 -8 -3 388.76 31.5
1 -8 -3 389.76 33.2
-1 8 3 459.55 32.8
-1 8 3 408.16 33.3
-1 8 3 406.06 33.5
-1 8 3 470.55 31.6
0 -8 -3 139.29 15.4
0 -8 -3 133.09 17.7
0 -8 -3 155.08 21.6
0 -8 -3 130.09 15.2
0 8 3 154.58 16.2
0 8 3 134.69 16.6
0 8 3 125.19 19.2
0 8 3 151.88 18.9
-1 -8 -3 403.46 22.7
-1 -8 -3 435.66 34.7
-1 -8 -3 421.66 28.4
-1 -8 -3 418.66 23.2
1 8 3 393.46 29.5
1 8 3 422.66 24.5
1 8 3 422.96 24
-2 -8 -3 254.47 17.5
-2 -8 -3 260.27 23.8
-2 -8 -3 254.67 16.8
2 8 3 246.58 27.2
2 8 3 200.48 19.5
2 8 3 245.48 18.3
-3 -8 -3 105.99 11.3
-3 -8 -3 123.59 16.8
3 8 3 110.39 12.2
3 8 3 148.79 21.2
3 8 3 89.79 13.6
-4 -8 -3 -4.2 14.8
-4 -8 -3 1.2 12.8
-4 -8 -3 11.7 10
4 8 3 -35.7 18.5
4 8 3 9.3 13.9
4 8 3 9.9 10.9
-1 -9 -3 707.73 33.4
-1 -9 -3 698.53 32.3
-1 -9 -3 703.63 48.2
-1 -9 -3 756.82 39
-1 -9 -3 745.93 36.1
1 9 3 736.33 42.7
1 9 3 696.83 34.6
1 9 3 713.83 35.5
-2 -9 -3 90.89 18.4
-2 -9 -3 85.99 12.1
-2 -9 -3 77.99 11.8
2 9 3 70.59 12.8
2 9 3 63.39 21.1
2 9 3 90.09 14.8
3 9 3 445.76 38.6
2 8 -4 556.64 35.9
2 8 -4 627.14 40.8
2 8 -4 531.05 40.5
-2 -8 4 667.33 36
-2 -8 4 640.74 36.8
1 8 -4 143.89 21.4
1 8 -4 114.89 22.7
1 8 -4 129.09 20.1
-1 -8 4 105.99 22.9
-1 -8 4 160.88 19.9
-1 -8 4 167.08 20.2
-1 -8 4 98.19 20
0 8 -4 391.46 32.6
0 8 -4 405.76 33.9
0 8 -4 408.46 37
0 -8 4 373.16 28.9
0 -8 4 357.86 37.4
0 -8 4 427.46 32.8
0 -8 4 407.06 34.8
3 7 -4 -6.9 14.6
3 7 -4 -17.6 17.1
3 7 -4 19.8 17.1
-3 -7 4 16.6 16.5
-3 -7 4 25.7 15.3
-3 -7 4 16.1 16.9
2 7 -4 23.3 13.9
2 7 -4 15.5 16
-2 -7 4 17.6 13.5
-2 -7 4 14.3 13.8
1 7 -4 290.57 28.5
1 7 -4 282.57 26.1
-1 -7 4 260.07 23.7
-1 -7 4 286.17 28.1
-1 -7 4 317.37 24.4
0 7 -4 -1.3 13.9
0 7 -4 12 13.8
0 7 -4 39.1 16.6
0 -7 4 22.8 13.8
0 -7 4 -2.1 15
0 -7 4 -3.7 15.8
0 -7 4 3.2 12.2
-1 7 -4 419.16 33.6
-1 7 -4 414.76 32
-1 7 -4 400.56 30.5
1 -7 4 451.75 33.8
1 -7 4 379.66 31.8
1 -7 4 386.56 29.7
1 -7 4 379.86 25.1
4 6 -4 84.89 20.1
4 6 -4 65.89 18.3
4 6 -4 81.59 20.5
-4 -6 4 103.29 20.1
-4 -6 4 88.79 19
3 6 -4 410.96 32.2
3 6 -4 408.86 29.4
3 6 -4 461.75 31.7
-3 -6 4 455.65 30.2
2 6 -4 12.2 13.5
2 6 -4 -4.5 11.2
2 6 -4 1.3 12.1
-2 -6 4 -8 11.5
1 6 -4 569.74 29.7
1 6 -4 552.74 29.1
1 6 -4 554.64 31.8
-1 -6 4 557.14 30.7
-1 -6 4 573.34 29.3
0 6 -4 37.3 12.5
0 6 -4 58.89 15
0 6 -4 47.7 13
0 -6 4 52.29 14.2
0 -6 4 51.59 12.4
-1 6 -4 1445.26 54.59
-1 6 -4 1449.15 57.19
-1 6 -4 1384.46 54.49
1 -6 4 1445.26 57.09
1 -6 4 1465.75 55.29
1 -6 4 1389.76 54.29
-2 6 -4 138.59 21.3
-2 6 -4 173.08 20.7
-2 6 -4 132.89 19.1
2 -6 4 158.48 20.2
2 -6 4 133.89 21.8
2 -6 4 155.68 16.3
2 -6 4 170.08 20.3
-5 -5 4 70.69 22.3
4 5 -4 106.99 18.3
4 5 -4 95.39 19.5
4 5 -4 96.69 19.3
-4 -5 4 135.79 19.3
-4 -5 4 98.39 22.1
3 5 -4 512.35 30.2
3 5 -4 481.05 30
-3 -5 4 518.05 29
2 5 -4 255.17 21.4
2 5 -4 243.18 20.3
2 5 -4 248.68 21.3
1 5 -4 1111.49 44.2
1 5 -4 1147.29 43.3
1 5 -4 1103.79 42.8
-1 -5 4 1193.68 44
-1 -5 4 1136.09 43.4
-1 -5 4 1161.68 42.7
0 5 -4 726.13 32.8
0 5 -4 667.33 30.6
0 5 -4 691.13 30.6
0 -5 4 690.63 31.8
0 -5 4 702.83 28.5
0 -5 4 666.33 30.7
-1 5 -4 305.87 26.3
-1 5 -4 325.07 22.2
-1 5 -4 366.56 23
1 -5 4 332.77 21.7
1 -5 4 333.47 24.7
1 -5 4 329.07 22.5
-2 5 -4 1134.09 48.3
-2 5 -4 1152.38 46.1
-2 5 -4 1108.69 46.4
2 -5 4 1177.68 46.7
2 -5 4 1119.19 47
2 -5 4 956.3 51.79
2 -5 4 1235.68 40.1
-3 5 -4 252.77 28.7
-3 5 -4 280.97 28.1
3 -5 4 216.88 22.6
3 -5 4 308.47 30.9
3 -5 4 264.97 28.3
5 4 -4 54.39 22
5 4 -4 71.39 20.3
5 4 -4 80.09 21.4
-5 -4 4 78.69 21
-5 -4 4 76.59 20.7
4 4 -4 -23 13.8
4 4 -4 43.7 15
4 4 -4 -4.6 15
-4 -4 4 3 13.7
-4 -4 4 7.3 14
3 4 -4 35.6 12.5
3 4 -4 27.4 12.1
3 4 -4 42.9 12
-3 -4 4 9 11.6
2 4 -4 482.85 24.8
2 4 -4 490.15 25.5
2 4 -4 524.75 23.8
-2 -4 4 479.95 24.6
-2 -4 4 485.95 25
1 4 -4 402.56 21.6
1 4 -4 372.76 20.2
1 4 -4 423.76 21.2
-1 -4 4 402.66 21.6
-1 -4 4 445.36 21.8
-1 -4 4 394.56 20.7
0 4 -4 1315.27 43.6
0 4 -4 1196.38 43.5
0 4 -4 1177.58 44.5
0 -4 4 1201.88 44
0 -4 4 1228.68 43.5
0 -4 4 1243.38 44.1
-1 4 -4 25.6 9.2
1 -4 4 31 10.2
1 -4 4 19.4 9.5
1 -4 4 20.3 6.8
-2 4 -4 1428.66 53.09
-2 4 -4 1450.55 53.29
2 -4 4 1487.15 52.89
2 -4 4 1421.56 47.5
2 -4 4 1456.15 54.69
-3 4 -4 17.3 13.2
-3 4 -4 44 15.2
3 -4 4 46.5 14.2
3 -4 4 52.79 14.4
-4 4 -4 744.93 42
-4 4 -4 783.52 42.7
4 -4 4 780.92 44.7
4 -4 4 754.92 42.7
4 -4 4 724.13 41.5
5 3 -4 -1.4 18.6
-5 -3 4 22.9 10.7
-5 -3 4 32.1 18.8
-5 -3 4 -3.6 17.6
4 3 -4 202.58 21.2
-4 -3 4 199.38 23.8
-4 -3 4 212.88 15.8
-4 -3 4 180.88 19.4
3 3 -4 21.5 10.9
3 3 -4 17.4 11
-3 -3 4 0.9 10.7
2 3 -4 1631.44 54.79
2 3 -4 1559.84 53.79
2 3 -4 1582.54 54.79
-2 -3 4 1582.44 54.59
-2 -3 4 1561.44 54.59
1 3 -4 1008.9 35.6
1 3 -4 962.4 35.7
1 3 -4 971.2 35.2
-1 -3 4 973.3 35.7
-1 -3 4 951.5 34.5
-1 -3 4 1015.3 35.7
0 3 -4 2475.75 82.19
0 3 -4 2593.24 82.29
0 3 -4 2630.84 83.09
0 -3 4 2651.14 82.59
0 -3 4 2618.94 82.49
0 -3 4 2696.53 78.49
0 -3 4 2602.84 82.29
-1 3 -4 80.09 9.4
-1 3 -4 84.39 9.2
-1 3 -4 83.69 10.5
1 -3 4 91.49 9.4
1 -3 4 81.09 9.4
1 -3 4 83.79 9.5
1 -3 4 74.79 10
-2 3 -4 1626.14 55.09
-2 3 -4 1435.16 54.49
2 -3 4 1586.24 50.59
2 -3 4 1657.73 54.79
2 -3 4 1630.14 55.69
2 -3 4 1680.33 56.69
-3 3 -4 494.75 27.9
-3 3 -4 497.05 27.3
-4 3 -4 97.59 17.9
-4 3 -4 121.69 19
4 -3 4 94.29 19.2
4 -3 4 130.59 18
4 -3 4 106.69 18.3
5 2 -4 -17.7 16.1
5 2 -4 31.3 19.7
-5 -2 4 -13 18.4
-5 -2 4 0.9 9.9
-5 -2 4 7 17.6
4 2 -4 543.85 32.8
4 2 -4 561.34 32.2
-4 -2 4 575.94 32.4
-4 -2 4 543.95 32.6
-4 -2 4 513.25 22.5
3 2 -4 20.5 10.6
-3 -2 4 13.3 5.6
-3 -2 4 9.2 10
2 2 -4 89.99 10.6
2 2 -4 84.69 10.9
2 2 -4 104.99 12.1
-2 -2 4 93.69 10.6
-2 -2 4 83.49 10.7
1 2 -4 1543.35 49.7
1 2 -4 1557.74 45.6
1 2 -4 1463.65 49.6
1 2 -4 1474.55 48.3
-1 -2 4 1455.65 49.4
0 2 -4 1110.09 37.1
0 2 -4 1115.49 36.9
0 2 -4 1072.49 36.8
0 -2 4 1071.09 36.4
0 -2 4 1093.99 36.8
0 -2 4 1061.09 36.9
0 -2 4 1107.89 33.8
-1 2 -4 3436.46 107.79
-1 2 -4 3617.34 108.29
-1 2 -4 3538.55 108.39
1 -2 4 3480.15 108.09
1 -2 4 3576.64 108.09
1 -2 4 3429.46 108.09
-2 2 -4 268.77 16.7
-2 2 -4 278.47 16.8
2 -2 4 287.07 16.4
2 -2 4 286.87 17.1
2 -2 4 303.47 17.9
2 -2 4 275.97 11.6
-3 2 -4 709.73 32.2
3 -2 4 755.82 32
3 -2 4 807.12 33.2
3 -2 4 715.53 35.7
-4 2 -4 39.4 13.8
-4 2 -4 77.39 15.7
4 -2 4 70.09 14.6
4 -2 4 50.59 14.8
-5 2 -4 343.97 33
-5 2 -4 311.17 35.8
5 -2 4 316.17 36.7
5 -2 4 369.06 34.5
5 -2 4 310.27 32.7
5 1 -4 19.3 19.6
5 1 -4 -9.2 17.5
-5 -1 4 25 19.3
-5 -1 4 63.89 20.2
-5 -1 4 23.4 10.5
4 1 -4 80.89 15.5
4 1 -4 62.99 15.8
-4 -1 4 48 15.2
-4 -1 4 62.39 23.5
-4 -1 4 68.49 9
3 1 -4 1582.14 56.19
3 1 -4 1464.55 55.09
-3 -1 4 1588.04 55.69
-3 -1 4 1544.15 55.29
-3 -1 4 1566.24 49.7
2 1 -4 3068.69 100.19
2 1 -4 3215.28 100.39
-2 -1 4 3266.47 94.89
-2 -1 4 3151.38 99.99
-2 -1 4 3186.58 100.19
1 1 -4 1906.81 60.49
1 1 -4 1986.3 62.69
1 1 -4 2009.2 60.39
1 1 -4 1988.6 58.49
1 1 -4 1900.01 62.39
-1 -1 4 1974.6 62.49
-1 -1 4 1987.8 62.59
0 1 -4 1699.43 53.29
0 1 -4 1682.43 52.39
0 1 -4 1695.43 51.49
0 1 -4 1639.14 53.09
0 -1 4 1741.53 53.39
0 -1 4 1688.23 52.19
0 -1 4 1700.73 53.39
-1 1 -4 4421.56 134.89
-1 1 -4 4467.45 135.19
1 -1 4 4534.85 135.19
1 -1 4 4471.05 134.99
1 -1 4 4501.25 135.09
-2 1 -4 490.05 19.8
-2 1 -4 462.35 19.9
2 -1 4 450.25 20.6
2 -1 4 463.85 15.3
2 -1 4 485.75 20.4
2 -1 4 443.66 19.8
-3 1 -4 2997.1 95.69
-3 1 -4 2959.2 95.29
3 -1 4 2922.81 95.49
3 -1 4 3046.2 95.99
3 -1 4 3109.39 96.99
-4 1 -4 661.13 31.6
4 -1 4 564.34 30.3
4 -1 4 616.44 31.4
-5 1 -4 52.99 17
-5 1 -4 103.99 19.5
5 -1 4 77.09 19.1
5 -1 4 95.89 19.5
5 -1 4 50.19 16.9
5 0 -4 45.7 19.9
5 0 -4 30.8 21.1
-5 0 4 36.3 11.4
-5 0 4 23.6 19.9
-5 0 4 -5.9 19.3
4 0 -4 76.09 16
4 0 -4 54.49 15.5
-4 0 4 37.1 14.3
-4 0 4 58.69 9.1
-4 0 4 59.69 15.9
3 0 -4 394.26 24
-3 0 4 387.56 16.1
-3 0 4 382.66 23.6
-3 0 4 381.86 23.9
2 0 -4 219.78 15.6
2 0 -4 197.98 15.3
-2 0 4 213.88 8.7
-2 0 4 231.28 15.5
-2 0 4 211.78 15.3
1 0 -4 2901.71 91.69
1 0 -4 3042.8 91.89
-1 0 4 2944.21 91.69
-1 0 4 3016.5 91.99
0 0 -4 1273.57 39.8
0 0 -4 1264.17 39.7
0 0 -4 1229.68 37.8
0 0 -4 1335.47 39.4
0 0 4 1237.68 39.6
0 0 4 1210.28 37.7
0 0 4 1249.47 39.7
-1 0 -4 1455.85 44.3
-1 0 -4 1433.46 44.1
1 0 4 1371.56 44.1
1 0 4 1400.76 44.1
-2 0 -4 314.27 14.3
-2 0 -4 330.77 14.4
2 0 4 314.37 14.6
2 0 4 309.37 14
-3 0 -4 739.73 28.1
-3 0 -4 755.42 28.8
3 0 4 740.03 29
3 0 4 660.43 27.6
-4 0 -4 999.7 39.9
4 0 4 988.6 40.4
-5 0 -4 316.77 28.1
-5 0 -4 337.47 28
-5 0 -4 300.97 28.6
5 0 4 306.77 27.9
5 0 4 323.27 28.7
5 -1 -4 20.4 21.6
5 -1 -4 47.1 19.7
5 -1 -4 89.39 22.3
-5 1 4 -3.5 20.4
-5 1 4 53.89 13
-5 1 4 61.89 21.4
4 -1 -4 7.2 12.8
4 -1 -4 -11.5 13.1
4 -1 -4 -6.4 13.7
-4 1 4 -6.7 14.2
-4 1 4 -1.1 14
3 -1 -4 287.47 21.8
-3 1 4 247.58 20.7
-3 1 4 267.67 21.1
2 -1 -4 1960.7 62.79
2 -1 -4 1868.31 62.49
-2 1 4 1849.11 62.59
-2 1 4 1857.71 62.29
1 -1 -4 486.65 16.9
1 -1 -4 470.65 19.4
1 -1 -4 481.95 19.8
-1 1 4 502.25 19.3
-1 1 4 485.35 19.7
0 -1 -4 3416.66 96.49
0 -1 -4 3396.46 98.09
0 -1 -4 3262.17 97.09
0 1 4 3152.28 96.99
0 1 4 2975.3 95.19
0 1 4 3199.88 96.99
-1 -1 -4 4081.09 119.59
-1 -1 -4 3840.22 117.69
-1 -1 -4 4206.08 119.39
1 1 4 3860.91 117.69
1 1 4 3845.82 117.79
-2 -1 -4 2430.46 72.99
-2 -1 -4 2375.96 74.59
-2 -1 -4 2363.26 72.69
2 1 4 2293.87 70.99
2 1 4 2437.26 72.99
2 1 4 2377.86 72.89
-3 -1 -4 66.09 8.6
-3 -1 -4 84.89 10
-3 -1 -4 84.99 10.6
3 1 4 82.59 8.7
3 1 4 77.69 8.8
-4 -1 -4 372.86 24.8
-4 -1 -4 435.46 22.9
4 1 4 399.26 22.5
4 1 4 414.26 23.5
-5 -1 -4 40.9 16
-5 -1 -4 60.99 14.2
5 1 4 46.3 14.6
5 1 4 41.2 15.1
4 -2 -4 460.05 32
4 -2 -4 422.86 32.5
4 -2 -4 481.15 36.8
-4 2 4 435.86 32.1
-4 2 4 448.06 31.6
-4 2 4 416.26 24
3 -2 -4 302.67 23.4
3 -2 -4 340.67 21.9
3 -2 -4 314.67 22.4
-3 2 4 319.57 23.7
-3 2 4 333.07 24.1
2 -2 -4 1105.29 38.2
2 -2 -4 1073.19 39.9
2 -2 -4 1055.09 39.2
-2 2 4 1058.69 39.1
1 -2 -4 551.74 22
1 -2 -4 580.24 20.6
1 -2 -4 552.44 21.7
-1 2 4 552.34 21.5
-1 2 4 566.14 22.4
0 -2 -4 6101.59 184.58
0 -2 -4 6193.38 184.48
0 -2 -4 6510.05 186.68
0 2 4 6224.38 184.48
0 2 4 6053.09 184.78
0 2 4 6252.17 184.58
-1 -2 -4 267.27 12.1
-1 -2 -4 272.77 11.9
1 2 4 258.67 11.1
-2 -2 -4 2398.96 73.59
-2 -2 -4 2291.27 70.69
2 2 4 2355.16 71.09
2 2 4 2306.77 70.89
2 2 4 2354.36 70.89
-3 -2 -4 4.1 5.3
-3 -2 -4 4.3 8
-3 -2 -4 4.9 6
3 2 4 3.8 5.9
3 2 4 12.3 5.9
-4 -2 -4 948.01 37.9
-4 -2 -4 947.11 36.4
-4 -2 -4 936.71 36.1
4 2 4 926.71 36.8
4 2 4 952.8 36.3
-5 -2 -4 186.48 22.3
-5 -2 -4 136.99 18.6
-5 -2 -4 191.38 22.7
5 2 4 182.88 20.8
5 2 4 136.49 17.8
4 -3 -4 44.7 17.2
4 -3 -4 72.49 17.1
4 -3 -4 42.7 17.7
-4 3 4 63.29 18.4
-4 3 4 18 17.7
-4 3 4 56.69 12.4
3 -3 -4 14.5 11.9
3 -3 -4 6.9 12.1
-3 3 4 14 9.1
-3 3 4 20 13
-3 3 4 3.5 12.5
2 -3 -4 639.24 28.2
2 -3 -4 593.74 27.8
2 -3 -4 639.24 27.6
-2 3 4 618.74 28.4
-2 3 4 633.94 25.9
-2 3 4 621.04 27.2
1 -3 -4 14.5 6.4
1 -3 -4 11.8 6.3
1 -3 -4 13.2 6.2
-1 3 4 14.4 6.5
-1 3 4 10.7 5.8
-1 3 4 18.6 6.4
-1 3 4 12.3 5.5
0 -3 -4 854.71 28.2
0 -3 -4 861.01 29.7
0 -3 -4 833.52 27.9
0 -3 -4 853.41 31
0 3 4 896.81 29.9
0 3 4 854.11 29.2
0 3 4 863.81 28
0 3 4 854.41 28.4
-1 -3 -4 741.53 26.4
-1 -3 -4 739.13 25.8
1 3 4 718.73 25.8
1 3 4 747.03 25.6
1 3 4 721.93 21.9
1 3 4 730.43 21.9
-2 -3 -4 2163.08 67.19
-2 -3 -4 2070.69 62.89
-2 -3 -4 2039.4 62.99
-2 -3 -4 2091.09 64.99
2 3 4 2122.39 64.99
2 3 4 2111.39 63.39
-3 -3 -4 2.2 5.3
-3 -3 -4 8.8 5.1
-3 -3 -4 5 4.7
-3 -3 -4 1.9 8.1
3 3 4 4.4 5.4
3 3 4 6.6 5.4
-4 -3 -4 475.35 23.1
-4 -3 -4 482.45 25.9
-4 -3 -4 482.65 23.7
4 3 4 505.05 24.2
4 3 4 482.05 23.8
-5 -3 -4 52.79 11.4
-5 -3 -4 9.5 11.8
-5 -3 -4 -10.3 13.5
5 3 4 -9.1 12
5 3 4 13.4 13
-6 -3 -4 -5.6 17.8
6 3 4 -11.1 18.4
6 3 4 16.3 17.2
4 -4 -4 177.38 24.8
4 -4 -4 160.78 23.5
4 -4 -4 155.98 32.1
-4 4 4 142.39 23.3
-4 4 4 166.08 23.4
3 -4 -4 445.16 28.6
3 -4 -4 484.35 30.7
-3 4 4 396.06 24.1
-3 4 4 429.96 29.1
-3 4 4 434.56 29.2
2 -4 -4 2423.56 79.09
2 -4 -4 2287.27 77.99
2 -4 -4 2395.86 78.59
-2 4 4 2392.86 76.59
-2 4 4 2332.97 77.99
-2 4 4 2374.66 78.99
1 -4 -4 609.54 26.9
1 -4 -4 633.64 25.6
1 -4 -4 603.54 24.9
-1 4 4 637.14 25.6
-1 4 4 608.64 25.3
-1 4 4 610.54 24.9
0 -4 -4 1218.98 42.9
0 -4 -4 1191.38 39.7
0 -4 -4 1223.08 39.6
0 -4 -4 1214.48 42.5
0 4 4 1259.47 40.1
0 4 4 1212.98 41.5
0 4 4 1259.97 41.6
0 4 4 1218.78 39.6
-1 -4 -4 549.85 21.3
-1 -4 -4 530.85 20.8
-1 -4 -4 513.45 17.3
-1 -4 -4 499.95 17.1
1 4 4 526.75 21.1
1 4 4 530.25 17.5
1 4 4 522.75 21.8
1 4 4 525.05 17.6
-2 -4 -4 989.6 34.1
-2 -4 -4 971.1 30.8
-2 -4 -4 1013.1 34.1
-2 -4 -4 976.4 36.1
-2 -4 -4 974.3 30.5
2 4 4 1046.9 36.6
2 4 4 980.3 31
2 4 4 997.6 34.3
2 4 4 990.2 31.6
-3 -4 -4 888.31 31.7
-3 -4 -4 866.51 35
-3 -4 -4 924.01 30.9
3 4 4 927.91 31.6
-4 -4 -4 6.7 8.2
-4 -4 -4 5.9 10.9
-4 -4 -4 7.9 6.7
-4 -4 -4 4.4 7.7
4 4 4 16 8.6
4 4 4 4.4 8.1
-5 -4 -4 198.18 19.1
-5 -4 -4 176.88 21.2
-5 -4 -4 150.38 12.9
-5 -4 -4 125.89 18.6
5 4 4 138.79 15.9
5 4 4 148.59 16.5
3 -5 -4 294.47 29.1
3 -5 -4 389.46 31.1
3 -5 -4 268.07 27.4
-3 5 4 300.37 27.9
-3 5 4 266.17 28.2
2 -5 -4 170.78 20.1
-2 5 4 167.78 16.9
-2 5 4 173.48 15.7
-2 5 4 167.18 16.2
1 -5 -4 3027.2 97.79
1 -5 -4 3041.6 95.39
1 -5 -4 3021.4 95.09
-1 5 4 2958.8 94.79
-1 5 4 2894.61 95.29
-1 5 4 3061.99 95.69
0 -5 -4 208.18 17.1
0 -5 -4 214.28 16.8
0 -5 -4 211.98 13.3
0 -5 -4 214.08 13.2
0 5 4 228.48 13.8
0 5 4 216.98 16.7
0 5 4 219.68 15.8
0 5 4 211.38 13
-1 -5 -4 3364.06 102.89
-1 -5 -4 3292.17 104.89
-1 -5 -4 3270.87 100.19
1 5 4 3353.56 104.59
1 5 4 3284.67 100.29
1 5 4 3252.17 100.49
1 5 4 3400.36 103.39
-2 -5 -4 65.09 6.2
-2 -5 -4 72.89 7.2
-2 -5 -4 62.49 8.7
-2 -5 -4 64.79 11.4
2 5 4 59.29 6.7
2 5 4 71.89 8.1
2 5 4 54.89 9
-3 -5 -4 809.82 34.8
-3 -5 -4 828.12 29.4
3 5 4 865.41 36
3 5 4 820.82 30.2
3 5 4 873.31 29.3
-4 -5 -4 215.68 21.5
-4 -5 -4 208.28 16.7
-4 -5 -4 230.08 16.2
-4 -5 -4 280.87 15.9
4 5 4 213.88 16.7
4 5 4 205.08 17.5
-5 -5 -4 895.21 38.1
-5 -5 -4 948.61 34.3
-5 -5 -4 898.91 42
-5 -5 -4 957.7 38.4
5 5 4 886.01 40
2 -6 -4 30.1 13.4
-2 6 4 68.49 12.9
-2 6 4 1.8 13.1
-2 6 4 30.5 14.6
1 -6 -4 803.52 33.3
1 -6 -4 758.12 36.9
-1 6 4 773.22 32.6
-1 6 4 749.42 35
-1 6 4 807.92 38.6
0 -6 -4 45.3 12.4
0 -6 -4 47.3 8.5
0 -6 -4 46.1 8.4
0 -6 -4 35 12.2
0 6 4 46.6 10.7
0 6 4 38.3 8.6
0 6 4 42.1 8.3
0 6 4 34 10.9
-1 -6 -4 1091.99 40.6
-1 -6 -4 1025.2 36.2
-1 -6 -4 1104.79 37.1
-1 -6 -4 1100.49 43.5
-1 -6 -4 1118.39 39.8
1 6 4 1144.09 36.9
1 6 4 1105.09 37.3
1 6 4 1087.19 41.9
-2 -6 -4 32.2 10
-2 -6 -4 35.2 5.3
-2 -6 -4 32.1 8.3
-2 -6 -4 39.2 6.3
2 6 4 36 5.8
2 6 4 70.49 12.7
2 6 4 26.1 10.8
-3 -6 -4 684.93 25.2
-3 -6 -4 592.94 27.4
-3 -6 -4 668.83 29.2
-3 -6 -4 658.63 32.2
3 6 4 650.73 45.8
3 6 4 634.44 26.3
-4 -6 -4 10.1 7.4
-4 -6 -4 15.2 14.4
-4 -6 -4 0.6 12.9
-4 -6 -4 4.3 10.1
4 6 4 9.9 8
4 6 4 -4 9.3
4 6 4 9.5 14.8
-5 -6 -4 18.3 12.3
-5 -6 -4 -13.3 10.7
-5 -6 -4 6.6 27.9
-5 -6 -4 -0.9 10.7
5 6 4 15.2 11.5
5 6 4 -8.8 17.9
5 6 4 -0.7 12.7
2 -7 -4 61.09 17.9
2 -7 -4 113.99 18.3
2 -7 -4 110.19 22.1
-2 7 4 114.19 19.1
-2 7 4 112.69 19.8
-2 7 4 110.59 19.1
1 -7 -4 387.16 25.2
1 -7 -4 421.56 30.8
1 -7 -4 345.37 30.6
1 -7 -4 362.06 25.3
-1 7 4 416.26 29.1
-1 7 4 359.36 24.5
-1 7 4 383.76 28.5
-1 7 4 397.46 26.7
0 -7 -4 457.95 28.5
0 -7 -4 555.04 37.3
0 -7 -4 504.95 24.8
0 -7 -4 465.35 26.6
0 7 4 482.05 28.4
0 7 4 553.84 27.4
0 7 4 500.05 24.6
0 7 4 522.15 25.5
-1 -7 -4 82.49 12.3
-1 -7 -4 94.59 13.8
-1 -7 -4 90.29 16.3
-1 -7 -4 72.59 8.8
-1 -7 -4 67.19 9.5
1 7 4 83.89 9.7
1 7 4 89.09 10.1
-2 -7 -4 621.14 29.9
-2 -7 -4 543.25 24.9
2 7 4 598.74 23.4
2 7 4 566.64 28.6
2 7 4 599.04 24.8
2 7 4 582.94 32.8
-3 -7 -4 63.99 13.2
-3 -7 -4 52.49 9
-3 -7 -4 39.4 9.3
3 7 4 37.2 9.7
3 7 4 32.9 14.9
3 7 4 46.6 7.7
-4 -7 -4 326.27 21.1
-4 -7 -4 307.57 28.4
-4 -7 -4 323.57 25.4
4 7 4 261.37 32.1
4 7 4 339.77 19.6
4 7 4 311.77 22.8
-5 -7 -4 -1.6 12.9
-5 -7 -4 28 19.5
-5 -7 -4 18.7 14.3
-5 -7 -4 3.2 11
5 7 4 -13.7 11.9
5 7 4 17.1 14.1
5 7 4 -12.5 19.8
1 -8 -4 39.1 20.4
1 -8 -4 12.3 15
1 -8 -4 48.9 15.1
1 -8 -4 -13.9 20.9
-1 8 4 29.4 16.1
-1 8 4 2.5 18
-1 8 4 22.6 15.6
-1 8 4 28.9 18.8
0 -8 -4 540.45 28.7
0 -8 -4 602.54 29.5
0 -8 -4 535.75 30.6
0 -8 -4 560.44 39.2
0 8 4 584.24 29.2
0 8 4 575.54 33.5
0 8 4 537.75 34
0 8 4 572.24 30
-1 -8 -4 43.1 18.4
-1 -8 -4 28.8 12.2
-1 -8 -4 11.7 9.1
-1 -8 -4 27.3 13.5
1 8 4 30.3 14.6
1 8 4 19.1 10
1 8 4 18.5 10.1
1 8 4 8.2 15
-2 -8 -4 796.92 31.6
-2 -8 -4 777.42 36.1
2 8 4 766.62 30.3
2 8 4 768.22 32
2 8 4 718.13 39.5
-3 -8 -4 17.4 13.4
-3 -8 -4 15.5 9.4
-3 -8 -4 22.1 10
3 8 4 16 10.7
3 8 4 20.7 8.3
3 8 4 23.4 16.6
-4 -8 -4 158.98 19.4
4 8 4 183.18 24.2
4 8 4 148.99 17.4
4 8 4 158.98 16.5
-1 -9 -4 0.9 10.9
-1 -9 -4 19.8 13.3
-1 -9 -4 -13.3 13.3
-1 -9 -4 20.1 21.1
1 9 4 -18.6 17.8
1 9 4 -8.8 11.5
1 9 4 -11.5 11.5
-2 -9 -4 134.79 14.6
-2 -9 -4 121.09 19.4
2 9 4 169.78 18.9
2 9 4 101.89 14.4
2 9 4 166.68 23.9
2 8 -5 107.19 22.6
2 8 -5 118.79 24.8
2 8 -5 119.39 21.5
-2 -8 5 149.49 21.2
1 8 -5 99.19 20.3
1 8 -5 93.19 21
1 8 -5 133.99 23.9
-1 -8 5 111.29 19.3
-1 -8 5 89.09 19.7
-1 -8 5 107.89 23.2
-1 -8 5 65.89 21.2
3 7 -5 -1.2 19.3
3 7 -5 7.4 16.6
3 7 -5 -15.2 17.5
-3 -7 5 -2 15.8
-3 -7 5 0.4 18
-3 -7 5 1.1 18.1
2 7 -5 696.43 38.5
2 7 -5 670.23 40.1
2 7 -5 715.73 38.9
-2 -7 5 681.03 37.3
-2 -7 5 721.83 37.6
1 7 -5 35.1 15.8
1 7 -5 -14 15.8
1 7 -5 12.4 14.7
-1 -7 5 18.3 16.4
-1 -7 5 11.4 14.9
-1 -7 5 22.2 14.4
-1 -7 5 12.6 16.1
0 7 -5 796.82 43.4
0 7 -5 804.32 40.9
0 7 -5 784.12 39.9
0 -7 5 772.72 37.4
0 -7 5 786.82 39.5
0 -7 5 794.62 43.5
0 -7 5 840.32 40.6
-1 7 -5 -2.4 15.7
-1 7 -5 -22.7 17.8
-1 7 -5 16.9 16.2
1 -7 5 9.5 12.5
1 -7 5 -5.1 18.1
1 -7 5 -10.5 16.4
1 -7 5 -10 15.4
4 6 -5 116.49 23
4 6 -5 99.29 22.7
4 6 -5 140.99 22.1
-4 -6 5 182.58 22.6
-4 -6 5 144.79 23.3
3 6 -5 27.3 16.8
3 6 -5 36.3 15.9
3 6 -5 44.9 17.7
-3 -6 5 40.1 16.8
2 6 -5 412.76 27.8
2 6 -5 432.06 29.7
-2 -6 5 407.76 28
1 6 -5 104.39 15.7
1 6 -5 133.59 18.2
1 6 -5 127.99 19.8
-1 -6 5 140.89 15.8
-1 -6 5 123.09 17
-1 -6 5 180.58 20
-1 -6 5 142.89 17.3
0 6 -5 579.74 33.6
0 6 -5 559.54 31.5
0 6 -5 629.94 32.4
0 -6 5 615.14 29.9
0 -6 5 573.54 32.9
0 -6 5 584.84 30.9
0 -6 5 591.04 31.7
-1 6 -5 1034 44.9
-1 6 -5 1070.59 48.7
-1 6 -5 1041.1 44.8
1 -6 5 1032.1 45.4
1 -6 5 1044.7 44.3
1 -6 5 1050.29 40.6
1 -6 5 989.4 46.3
-2 6 -5 644.84 37
-2 6 -5 534.45 37.8
-2 6 -5 594.84 36.3
2 -6 5 591.04 36.7
2 -6 5 570.04 31.6
2 -6 5 596.14 39.5
2 -6 5 540.85 34.9
4 5 -5 6.1 6.9
4 5 -5 -13.3 16.9
4 5 -5 43.9 18.2
4 5 -5 11.5 16.8
-4 -5 5 8.7 16.8
-4 -5 5 14.8 17.2
3 5 -5 315.17 26.6
3 5 -5 302.77 30.1
3 5 -5 360.96 27.1
-3 -5 5 330.87 28
-3 -5 5 322.07 25.9
2 5 -5 204.88 22.2
2 5 -5 171.78 21
2 5 -5 137.99 19.2
-2 -5 5 178.78 17.1
1 5 -5 858.81 37.8
1 5 -5 922.81 38.2
1 5 -5 851.31 38.6
-1 -5 5 906.61 38.5
-1 -5 5 1064.49 37.2
-1 -5 5 898.61 38.8
0 5 -5 423.26 24.5
0 5 -5 398.46 25.6
0 5 -5 431.16 24.4
0 -5 5 384.96 23.4
0 -5 5 376.26 27.2
0 -5 5 383.96 27.8
0 -5 5 422.26 22.1
-1 5 -5 561.94 36.6
-1 5 -5 615.94 35.3
1 -5 5 689.23 31.2
1 -5 5 694.23 33.3
1 -5 5 647.94 31.3
1 -5 5 628.14 27
-2 5 -5 47.1 15.8
-2 5 -5 60.49 15
-2 5 -5 50.29 14.1
2 -5 5 50.99 14.6
2 -5 5 76.99 9.9
2 -5 5 34.7 14.3
2 -5 5 23 14.8
-3 5 -5 308.17 29.5
-3 5 -5 260.07 29.9
3 -5 5 276.77 28
3 -5 5 252.77 26.4
3 -5 5 269.67 29.3
5 4 -5 68.49 23.3
5 4 -5 70.09 22.6
5 4 -5 79.39 22.8
-5 -4 5 54.89 34.3
-5 -4 5 87.09 22.8
4 4 -5 11.4 16.4
4 4 -5 23.3 15.7
4 4 -5 10.8 15.9
-4 -4 5 -13.8 14.9
-4 -4 5 8 15.5
3 4 -5 196.48 20.4
3 4 -5 230.88 23.3
3 4 -5 192.28 11
3 4 -5 182.78 18.6
-3 -4 5 193.68 22
-3 -4 5 161.28 17.7
2 4 -5 38.6 11.5
2 4 -5 21.2 11
-2 -4 5 39.4 11.8
1 4 -5 707.43 31
1 4 -5 792.62 30.3
1 4 -5 720.23 30.8
-1 -4 5 726.63 29.8
-1 -4 5 721.33 31.2
-1 -4 5 682.13 30.2
0 4 -5 381.96 22.5
0 4 -5 513.75 23.8
0 -4 5 540.15 22.3
0 -4 5 438.86 23.6
0 -4 5 405.76 23
-1 4 -5 1214.38 45.5
-1 4 -5 1222.38 45.9
-1 4 -5 1322.07 47.6
1 -4 5 1226.48 42.7
1 -4 5 1249.77 46.7
1 -4 5 1279.47 45.7
1 -4 5 1213.28 45.8
-2 4 -5 30.7 12
-2 4 -5 16.3 11.7
2 -4 5 27.6 7.7
2 -4 5 33.7 12.2
2 -4 5 41.7 13.3
2 -4 5 26.2 12.1
-3 4 -5 622.64 33.1
-3 4 -5 609.74 35
3 -4 5 595.94 35.1
3 -4 5 630.54 33.6
3 -4 5 591.24 23.6
3 -4 5 600.54 32.7
-4 4 -5 169.58 23.1
-4 4 -5 175.28 24.2
4 -4 5 190.68 23
4 -4 5 183.88 23.7
4 -4 5 190.28 25.7
5 3 -5 114.49 23.8
-5 -3 5 145.49 23
-5 -3 5 115.89 23.7
4 3 -5 -0.4 14.4
4 3 -5 -4.1 14.3
-4 -3 5 6.7 14.4
-4 -3 5 -1.7 14.1
3 3 -5 841.12 38.7
3 3 -5 869.81 38.8
-3 -3 5 888.41 38.4
-3 -3 5 888.91 39.3
2 3 -5 1287.17 41
2 3 -5 1364.96 48.3
2 3 -5 1257.07 45.9
-2 -3 5 1289.87 47.7
-2 -3 5 1370.96 47.7
1 3 -5 3266.07 103.89
1 3 -5 3357.36 103.69
1 3 -5 3358.06 104.19
-1 -3 5 3261.07 102.39
-1 -3 5 3338.17 104.09
-1 -3 5 3248.18 103.79
0 3 -5 257.87 16.1
0 3 -5 271.87 16.3
0 3 -5 242.28 15.8
0 -3 5 263.77 16.1
0 -3 5 250.17 16.2
0 -3 5 243.08 15.9
-1 3 -5 2419.86 77.99
-1 3 -5 2399.66 76.99
-1 3 -5 2432.46 77.49
1 -3 5 2369.66 77.39
1 -3 5 2365.46 76.99
1 -3 5 2346.37 77.19
-2 3 -5 941.31 37.2
2 -3 5 960.3 38.6
2 -3 5 933.51 32.2
2 -3 5 962.5 37.5
2 -3 5 947.41 37.4
-3 3 -5 190.38 21.6
-3 3 -5 199.08 20.6
3 -3 5 235.88 11.8
3 -3 5 251.27 23.2
3 -3 5 185.88 26.3
3 -3 5 238.68 21
-4 3 -5 319.87 28.5
-4 3 -5 261.57 30.1
4 -3 5 296.87 28.2
4 -3 5 280.87 27.2
4 -3 5 306.67 30.1
5 2 -5 71.79 21.1
5 2 -5 65.49 21.8
-5 -2 5 52.39 21.5
-5 -2 5 53.39 10.6
-5 -2 5 72.09 21.1
4 2 -5 227.08 27.3
-4 -2 5 183.88 19.8
-4 -2 5 178.18 13.1
-4 -2 5 212.78 25.9
3 2 -5 190.28 21
-3 -2 5 194.48 19.7
-3 -2 5 183.68 20.1
2 2 -5 629.04 28
2 2 -5 625.84 25.7
2 2 -5 640.44 28.4
-2 -2 5 631.74 27.8
-2 -2 5 673.73 28.4
1 2 -5 932.01 34.2
1 2 -5 973 29.9
1 2 -5 944.21 34.6
1 2 -5 931.41 32.7
-1 -2 5 909.01 34.2
0 2 -5 1521.95 50.59
0 2 -5 1496.95 50.69
0 2 -5 1562.24 50.29
0 -2 5 1598.34 49.8
0 -2 5 1526.05 50.79
0 -2 5 1534.05 50.59
-1 2 -5 154.18 12.1
-1 2 -5 160.18 13.3
-1 2 -5 144.59 12.4
1 -2 5 143.19 12
1 -2 5 145.39 12.5
1 -2 5 157.38 12.1
-2 2 -5 2000.8 64.89
-2 2 -5 2014.4 64.59
2 -2 5 2010.8 64.99
2 -2 5 2002.7 65.39
2 -2 5 1755.82 63.89
2 -2 5 2002.6 60.49
-3 2 -5 334.27 21.9
3 -2 5 329.97 22
3 -2 5 296.97 33.5
3 -2 5 338.57 21.1
-4 2 -5 322.07 25.6
-4 2 -5 315.47 26.4
4 -2 5 353.06 27.3
4 -2 5 353.16 26
4 -2 5 337.07 27.6
-5 2 -5 2.2 18.4
-5 2 -5 24.6 19.3
5 -2 5 25 17.6
5 -2 5 5.7 21
5 -2 5 32.9 19.7
5 1 -5 26.3 20
5 1 -5 32.5 20.8
-5 -1 5 26.7 20.2
-5 -1 5 28 9.9
-5 -1 5 26.6 20.3
4 1 -5 428.56 30.2
4 1 -5 385.56 30.3
-4 -1 5 397.56 29.7
-4 -1 5 384.96 17.9
-4 -1 5 389.46 30.3
3 1 -5 -2.6 9.7
3 1 -5 0.1 11.2
-3 -1 5 3.2 10.6
-3 -1 5 4.5 4.4
-3 -1 5 14.7 11.2
2 1 -5 705.73 29.6
-2 -1 5 697.03 29.2
-2 -1 5 706.13 29.4
1 1 -5 187.98 13.1
1 1 -5 211.18 7.1
1 1 -5 207.68 13.8
1 1 -5 208.88 10.4
1 1 -5 204.18 10.4
-1 -1 5 195.78 13.6
-1 -1 5 200.78 13.4
0 1 -5 3419.96 103.69
0 1 -5 3378.86 103.79
0 1 -5 3385.96 102.39
0 1 -5 3422.36 101.89
0 -1 5 3366.96 102.09
0 -1 5 3391.56 103.79
0 -1 5 3373.96 103.69
-1 1 -5 323.37 15
-1 1 -5 312.67 14.8
1 -1 5 325.47 14.7
1 -1 5 317.67 14.2
1 -1 5 319.57 14.8
-2 1 -5 1068.89 37
-2 1 -5 1055.59 37.3
2 -1 5 1038.9 37.5
2 -1 5 1044.1 36.9
2 -1 5 1101.29 37.6
-3 1 -5 261.07 18.2
-3 1 -5 253.37 18.1
3 -1 5 250.27 18
3 -1 5 245.18 17.3
3 -1 5 253.97 19.4
4 -1 5 494.55 28.5
4 -1 5 508.75 31.1
4 -1 5 504.65 27.7
-5 1 -5 150.78 20.8
-5 1 -5 264.27 28.4
5 -1 5 165.58 22.9
5 -1 5 163.78 20.6
5 -1 5 198.28 22.5
5 0 -5 32.7 21.7
5 0 -5 6.7 20
-5 0 5 43.5 21.9
-5 0 5 2 20.6
-5 0 5 12 10.1
4 0 -5 224.48 25.7
4 0 -5 222.98 22.1
-4 0 5 199.78 21.6
-4 0 5 244.38 14.9
-4 0 5 264.37 26.6
3 0 -5 102.19 14.7
-3 0 5 105.79 14.5
-3 0 5 119.19 14.9
-3 0 5 94.89 9.9
2 0 -5 1927.61 65.59
2 0 -5 1989.1 65.99
-2 0 5 1917.71 65.69
-2 0 5 2026.4 58.69
-2 0 5 1991.9 65.49
1 0 -5 1267.37 43.4
1 0 -5 1305.67 42.8
-1 0 5 1308.57 43.5
-1 0 5 1310.77 43.7
0 0 -5 2036.3 63.29
0 0 -5 2084.59 62.89
0 0 -5 2071.09 63.39
0 0 5 2035.8 63.29
0 0 5 2036.5 63.29
0 0 5 1980.1 60.79
-1 0 -5 16.3 4.1
-1 0 -5 17.6 4.4
1 0 5 18.8 4.3
1 0 5 14.9 3.9
1 0 5 15.6 4.2
-2 0 -5 107.69 9.5
-2 0 -5 98.29 9.2
2 0 5 100.59 9.4
2 0 5 101.69 10
-3 0 -5 1465.95 48.2
-3 0 -5 1452.05 47.5
3 0 5 1422.86 47.8
3 0 5 1232.58 47.1
-4 0 -5 56.89 12
4 0 5 43.6 11.9
4 0 5 41.6 11.7
-5 0 -5 259.57 26.3
-5 0 -5 240.98 26.9
-5 0 -5 301.67 25.5
5 0 5 268.37 25.8
4 -1 -5 323.87 29
4 -1 -5 376.56 30.1
4 -1 -5 320.47 26
-4 1 5 332.97 28.8
-4 1 5 264.17 29.2
3 -1 -5 442.16 27.1
3 -1 -5 522.35 26.6
3 -1 -5 452.05 23.6
-3 1 5 480.65 27.6
-3 1 5 499.95 27.4
2 -1 -5 330.47 20
2 -1 -5 368.16 20.9
-2 1 5 407.16 19.8
-2 1 5 381.36 20.5
1 -1 -5 1145.49 39.2
1 -1 -5 1124.19 39.3
1 -1 -5 1144.09 35.9
-1 1 5 1152.78 39.1
-1 1 5 1177.08 39.6
0 -1 -5 1451.35 46.9
0 -1 -5 1452.95 46
0 -1 -5 1442.36 46
0 -1 -5 1536.65 45
0 1 5 1475.15 46.1
0 1 5 1440.76 46
-1 -1 -5 6250.07 183.98
-1 -1 -5 6571.44 183.88
-1 -1 -5 5900.31 182.28
1 1 5 6020.5 182.38
1 1 5 6026.9 182.38
-2 -1 -5 938.31 32.5
-2 -1 -5 889.61 30.1
-2 -1 -5 902.51 29.9
2 1 5 905.21 30.1
2 1 5 889.81 29.9
-3 -1 -5 1192.88 41.1
-3 -1 -5 1243.48 44
-3 -1 -5 1194.88 41.5
3 1 5 1224.58 41.7
3 1 5 1218.18 41.6
-4 -1 -5 116.19 15
-4 -1 -5 116.89 12.6
-4 -1 -5 91.29 12.5
4 1 5 104.29 12.9
4 1 5 105.69 12.6
-5 -1 -5 429.56 31.1
-5 -1 -5 476.35 29.7
5 1 5 499.95 30.2
5 1 5 475.65 30.7
4 -2 -5 11 16.5
4 -2 -5 18.6 16.3
4 -2 -5 -10.4 14.5
-4 2 5 -3.8 15.6
-4 2 5 -10.3 15.4
3 -2 -5 1030.5 42.2
3 -2 -5 1293.27 44.4
-3 2 5 1048.4 44.4
-3 2 5 1006.4 43.7
2 -2 -5 47.9 10.4
2 -2 -5 53.09 10.1
2 -2 -5 68.99 8.8
-2 2 5 56.29 10.1
1 -2 -5 2485.35 77.59
1 -2 -5 2523.95 78.09
1 -2 -5 2435.06 75.79
-1 2 5 2433.56 77.89
-1 2 5 2472.65 77.49
0 -2 -5 233.28 10.1
0 -2 -5 216.98 9.1
0 -2 -5 222.68 10
0 -2 -5 241.18 12.9
0 2 5 223.28 8.8
0 2 5 204.98 10.1
0 2 5 204.68 10.5
-1 -2 -5 915.01 30.2
-1 -2 -5 851.01 26.5
-1 -2 -5 919.61 30
-1 -2 -5 864.71 26.5
1 2 5 873.91 26.8
1 2 5 894.41 26.9
-2 -2 -5 195.58 8.5
-2 -2 -5 198.48 12.7
2 2 5 190.68 9.3
2 2 5 184.98 9.5
2 2 5 202.18 9
-3 -2 -5 387.26 17.1
-3 -2 -5 360.96 19.8
-3 -2 -5 386.96 16.6
3 2 5 374.16 17.1
3 2 5 347.67 16.6
-4 -2 -5 226.98 16.8
-4 -2 -5 228.08 20.4
-4 -2 -5 245.78 18.2
4 2 5 209.78 17.5
4 2 5 248.28 18
-5 -2 -5 58.79 13.7
-5 -2 -5 16.6 15
-5 -2 -5 42.2 13.7
5 2 5 21.6 13.2
5 2 5 39 13.7
4 -3 -5 156.78 19.4
4 -3 -5 99.19 20.5
4 -3 -5 116.09 21.1
-4 3 5 107.59 20.2
-4 3 5 94.79 20.4
3 -3 -5 419.86 27.2
3 -3 -5 401.36 26.7
-3 3 5 421.26 28.2
-3 3 5 358.66 27.1
2 -3 -5 117.59 12.8
2 -3 -5 102.99 11.4
2 -3 -5 107.19 12.3
-2 3 5 113.19 13.1
-2 3 5 108.49 11.3
-2 3 5 108.59 12.4
1 -3 -5 471.25 20.5
1 -3 -5 501.15 21.5
1 -3 -5 483.05 20.5
-1 3 5 458.85 20.5
-1 3 5 468.75 20.8
0 -3 -5 3014 93.59
0 -3 -5 3148.68 94.39
0 -3 -5 3039.9 93.09
0 -3 -5 3120.59 96.59
0 3 5 3070.89 93.79
0 3 5 3128.69 95.29
0 3 5 3060.59 93.79
0 3 5 3111.19 93.29
-1 -3 -5 645.94 24.6
-1 -3 -5 684.43 24.9
1 3 5 652.13 23.7
1 3 5 675.63 24.1
-2 -3 -5 961.3 29.4
-2 -3 -5 1069.49 35.5
-2 -3 -5 958.2 29.4
2 3 5 999.8 30.1
2 3 5 967 32.8
-3 -3 -5 241.78 16.9
-3 -3 -5 240.78 12.1
-3 -3 -5 217.38 11.6
3 3 5 234.38 12.9
3 3 5 230.48 12.3
3 3 5 231.98 11.7
-4 -3 -5 870.31 38.6
-4 -3 -5 985.3 35.2
-4 -3 -5 956.6 35.6
4 3 5 958.1 36
4 3 5 968.4 35.8
-5 -3 -5 37.4 10.4
-5 -3 -5 -0.4 14.4
-5 -3 -5 -2.9 11.2
5 3 5 21.1 12.2
5 3 5 17.1 12
3 -4 -5 304.67 27
3 -4 -5 315.87 26.3
3 -4 -5 226.88 21.4
-3 4 5 244.78 24.8
-3 4 5 251.47 29.2
-3 4 5 236.58 27.4
2 -4 -5 1532.65 54.49
2 -4 -5 1522.25 53.89
2 -4 -5 1509.75 54.09
-2 4 5 1533.75 53.89
-2 4 5 1413.16 55.89
-2 4 5 1469.25 55.19
1 -4 -5 523.25 22.4
1 -4 -5 499.05 23.9
1 -4 -5 496.45 22.7
-1 4 5 486.05 21.8
-1 4 5 504.35 23
-1 4 5 526.35 22.5
0 -4 -5 1204.88 42.3
0 -4 -5 1139.69 37.8
0 -4 -5 1168.28 38.4
0 -4 -5 1151.18 40.7
0 4 5 1163.68 40.4
0 4 5 1155.68 38.6
0 4 5 1148.59 37.9
0 4 5 1226.38 39.9
-1 -4 -5 516.25 21.5
-1 -4 -5 502.35 15.7
1 4 5 497.15 21.2
1 4 5 521.75 21.6
1 4 5 525.55 16.6
1 4 5 523.95 16.7
-2 -4 -5 1568.44 54.29
-2 -4 -5 1682.23 52.89
2 4 5 1591.94 52.19
2 4 5 1623.84 54.29
-3 -4 -5 442.56 16.4
-3 -4 -5 411.76 22.5
-3 -4 -5 446.26 19
-3 -4 -5 457.35 16.4
3 4 5 475.15 18.9
3 4 5 357.96 21
-4 -4 -5 1050.99 37.6
-4 -4 -5 1034.7 42.2
-4 -4 -5 1054.19 37.3
4 4 5 1086.09 38.3
4 4 5 1022.3 37.9
-5 -4 -5 5.9 11.2
-5 -4 -5 15.1 15.2
-5 -4 -5 4.8 9.1
5 4 5 4.5 11.5
5 4 5 15.8 11.3
3 -5 -5 70.89 17
3 -5 -5 9.2 15.3
3 -5 -5 -6.5 16
-3 5 5 25.5 14
-3 5 5 -5 16.1
-3 5 5 8 16
2 -5 -5 362.06 25
2 -5 -5 324.47 22.7
2 -5 -5 380.56 30.2
-2 5 5 412.06 26.9
-2 5 5 348.57 24.3
1 -5 -5 108.69 13.2
1 -5 -5 124.19 12.6
1 -5 -5 98.09 13.2
-1 5 5 125.69 14.1
-1 5 5 107.79 11.4
-1 5 5 125.19 13.4
-1 5 5 122.49 12.5
0 -5 -5 504.25 21.3
0 -5 -5 513.65 25.8
0 -5 -5 531.25 26
0 -5 -5 520.35 21
0 5 5 513.35 23.8
0 5 5 498.85 23.9
0 5 5 605.44 21.7
0 5 5 523.35 21
-1 -5 -5 145.59 13.5
-1 -5 -5 150.58 8.2
-1 -5 -5 144.09 8.2
1 5 5 152.68 8.9
1 5 5 146.79 13.8
1 5 5 163.18 8.9
1 5 5 159.68 14.1
-2 -5 -5 350.16 18.4
-2 -5 -5 322.87 20.6
2 5 5 369.76 18.7
2 5 5 357.06 12.8
2 5 5 416.16 19.9
2 5 5 358.06 12.3
-3 -5 -5 28.2 4.3
-3 -5 -5 26 11.3
-3 -5 -5 29.7 4.2
3 5 5 22.9 11.1
3 5 5 35.6 5.7
3 5 5 21.8 4.7
3 5 5 17.9 7.7
-4 -5 -5 33.1 7.5
-4 -5 -5 15.3 12.8
4 5 5 25.7 7.9
4 5 5 23.2 8.3
-5 -5 -5 261.57 27.3
-5 -5 -5 311.57 21.8
5 5 5 310.37 23
2 -6 -5 446.96 29.8
-2 6 5 490.15 29.6
-2 6 5 443.56 31.1
-2 6 5 447.56 29.3
1 -6 -5 324.07 27.1
1 -6 -5 353.56 22
-1 6 5 347.77 21.8
-1 6 5 343.67 23.9
-1 6 5 357.86 23.5
0 -6 -5 597.74 25.8
0 -6 -5 651.33 32.1
0 -6 -5 667.43 30.7
0 -6 -5 659.83 25.9
0 6 5 616.14 25.5
0 6 5 646.24 29.8
0 6 5 630.44 26.6
-1 -6 -5 1019.3 35.6
-1 -6 -5 1019.7 39.4
-1 -6 -5 1058.59 43
-1 -6 -5 1069.19 35.6
1 6 5 1061.79 35.9
1 6 5 1256.67 41.5
1 6 5 1059.49 40.5
-2 -6 -5 509.05 18.1
-2 -6 -5 535.75 25.2
-2 -6 -5 532.25 17.5
-2 -6 -5 517.05 23.7
2 6 5 536.15 19.5
2 6 5 530.95 18.7
2 6 5 546.35 26.6
-3 -6 -5 317.17 21.3
-3 -6 -5 324.87 13.3
-3 -6 -5 328.97 24.3
-3 -6 -5 337.77 12.7
3 6 5 330.07 13.9
3 6 5 294.67 15
3 6 5 335.17 28.5
-4 -6 -5 66.79 16.3
-4 -6 -5 67.39 8.4
-4 -6 -5 91.39 12.5
-4 -6 -5 75.89 8.4
4 6 5 91.99 17.5
4 6 5 65.19 13.3
4 6 5 87.99 9.2
-5 -6 -5 254.77 19.1
-5 -6 -5 202.88 28.3
-5 -6 -5 215.98 19.3
-5 -6 -5 224.88 20.2
5 6 5 221.48 25
5 6 5 204.58 20.3
5 6 5 199.58 21.8
1 -7 -5 843.32 36.3
1 -7 -5 786.22 36.1
-1 7 5 823.62 36.1
-1 7 5 785.72 38.8
-1 7 5 826.42 37.5
-1 7 5 780.02 39
0 -7 -5 15.8 14.6
0 -7 -5 22.7 9.3
0 -7 -5 3.1 8.8
0 -7 -5 17 14.1
0 7 5 26.4 12.5
0 7 5 5.9 9.3
0 7 5 19.1 9.2
0 7 5 3.9 12.1
-1 -7 -5 453.85 20.3
-1 -7 -5 423.16 28.5
-1 -7 -5 433.46 24.5
1 7 5 422.66 20.3
1 7 5 439.26 30.1
1 7 5 436.56 20.2
-2 -7 -5 158.78 11.4
-2 -7 -5 168.08 19.1
-2 -7 -5 144.59 9.6
-2 -7 -5 167.58 15.3
2 7 5 134.59 15.5
2 7 5 157.78 13.1
2 7 5 136.49 18.6
-3 -7 -5 1176.58 46.3
-3 -7 -5 1099.89 38.2
-3 -7 -5 1190.38 37.5
3 7 5 1117.89 40.3
3 7 5 1167.08 49.1
3 7 5 1341.07 38.8
-4 -7 -5 272.17 27.9
-4 -7 -5 269.77 14.9
-4 -7 -5 286.27 22.7
4 7 5 272.47 20.4
4 7 5 314.47 29.6
4 7 5 323.57 18.9
-5 -7 -5 366.96 22.1
-5 -7 -5 347.17 26.6
-5 -7 -5 285.47 31
5 7 5 315.27 38.3
5 7 5 327.17 22.7
5 7 5 270.67 24.1
0 -8 -5 26.1 11.1
0 -8 -5 1.1 10.6
0 -8 -5 10.6 15.2
0 -8 -5 33.3 19.4
0 8 5 23 15.6
0 8 5 10.6 10.7
0 8 5 13.9 12
0 8 5 15.7 16.1
-1 -8 -5 772.32 38.1
-1 -8 -5 697.73 33.6
-1 -8 -5 851.81 43
-1 -8 -5 797.12 31.7
1 8 5 774.62 31.4
1 8 5 804.12 40
1 8 5 717.83 31.5
1 8 5 805.52 38
-2 -8 -5 89.79 11.1
-2 -8 -5 91.09 13.5
-2 -8 -5 108.69 11.1
-2 -8 -5 95.29 16.5
2 8 5 75.09 17.9
2 8 5 88.39 9.5
2 8 5 88.69 12.2
2 8 5 87.39 16.4
-3 -8 -5 221.48 14.3
-3 -8 -5 200.18 12
-3 -8 -5 214.28 23.8
3 8 5 218.58 14.1
3 8 5 232.58 23.7
3 8 5 195.08 17.6
-4 -8 -5 46.9 9.6
-4 -8 -5 75.29 8
-4 -8 -5 83.19 17.5
4 8 5 54.59 11.9
4 8 5 80.29 9.5
4 8 5 47.5 20.5
-2 -9 -5 344.27 30.5
-2 -9 -5 349.57 19.4
-2 -9 -5 384.26 25
2 9 5 392.86 21.6
2 9 5 346.77 34.4
3 7 -6 133.79 22.8
3 7 -6 113.89 23.3
3 7 -6 130.59 24.4
-3 -7 6 159.08 24.1
-3 -7 6 77.29 32.3
-3 -7 6 100.09 21.1
2 7 -6 46.5 19.9
2 7 -6 20.4 17.7
2 7 -6 10 16.2
-2 -7 6 15.2 17.1
-2 -7 6 51.49 18.2
1 7 -6 434.16 33.5
1 7 -6 342.97 31.6
1 7 -6 349.37 32
-1 -7 6 429.06 34.2
-1 -7 6 431.46 29.8
-1 -7 6 415.36 33.4
-1 -7 6 442.16 31.3
0 7 -6 27.7 18.3
0 7 -6 19.6 15.7
0 7 -6 10.3 16.2
0 -7 6 6 16
0 -7 6 4.8 13.6
0 -7 6 14 17.6
0 -7 6 -6.3 16.8
-1 7 -6 567.84 37.5
-1 7 -6 524.85 39.6
-1 7 -6 561.74 37.3
1 -7 6 624.84 37
1 -7 6 578.34 40.2
1 -7 6 547.85 39.5
1 -7 6 543.05 32.7
3 6 -6 295.27 30.2
3 6 -6 213.88 23.6
3 6 -6 257.37 31
-3 -6 6 248.58 30.3
-3 -6 6 303.87 29.6
2 6 -6 73.99 16.6
2 6 -6 79.29 18.4
2 6 -6 71.89 16.4
-2 -6 6 84.99 16.7
1 6 -6 154.48 18
1 6 -6 170.38 20
1 6 -6 174.78 19.2
-1 -6 6 165.48 17.8
-1 -6 6 125.09 29.4
-1 -6 6 167.68 18.7
-1 -6 6 199.88 23.9
0 6 -6 661.33 36.7
0 6 -6 709.13 35.5
0 6 -6 709.83 35.4
0 -6 6 677.03 32.1
0 -6 6 674.43 34.8
0 -6 6 667.93 35.4
0 -6 6 652.63 35.2
-1 6 -6 230.58 25.8
-1 6 -6 197.48 21.2
-1 6 -6 215.68 23.4
1 -6 6 238.88 25.1
1 -6 6 231.28 26.2
1 -6 6 247.28 28.8
1 -6 6 234.88 21.8
-2 6 -6 513.55 34.7
-2 6 -6 450.05 34
2 -6 6 492.75 38
2 -6 6 523.15 34.1
2 -6 6 485.95 34.5
2 -6 6 462.05 26.6
4 5 -6 357.16 35.9
4 5 -6 282.07 33.4
4 5 -6 361.06 33.2
-4 -5 6 290.27 32.2
-4 -5 6 350.76 33.5
3 5 -6 17.2 14.9
3 5 -6 -5.5 14.3
3 5 -6 8.6 15
-3 -5 6 -18.5 13.8
-3 -5 6 12.3 14.6
2 5 -6 548.65 30.4
2 5 -6 499.75 31
2 5 -6 544.15 33.6
-2 -5 6 546.55 31.4
-2 -5 6 547.05 30.5
1 5 -6 33.9 13.5
1 5 -6 -10.8 12.4
-1 -5 6 -21.6 10.3
-1 -5 6 10 11.4
-1 -5 6 11 11.4
0 5 -6 1187.88 48.3
0 -5 6 1246.08 47.3
0 -5 6 1230.18 46.7
0 -5 6 1115.19 49.7
-1 5 -6 52.79 15.3
-1 5 -6 29.5 13.1
-1 5 -6 46 13.8
1 -5 6 43.5 14.5
1 -5 6 60.79 14.3
1 -5 6 64.29 10.8
1 -5 6 73.39 14.7
-2 5 -6 519.25 32.4
-2 5 -6 561.84 32.4
2 -5 6 521.85 32.6
2 -5 6 534.35 25.2
2 -5 6 566.44 32
2 -5 6 523.95 33.7
-3 5 -6 61.59 19.4
-3 5 -6 26.9 17.3
3 -5 6 30.9 16.4
3 -5 6 34.9 19.7
3 -5 6 30 18.2
4 4 -6 200.08 22.9
4 4 -6 175.58 23
4 4 -6 251.57 28.4
-4 -4 6 182.18 23
-4 -4 6 171.28 22.4
3 4 -6 -1.8 5.4
3 4 -6 5 13.2
3 4 -6 21.8 14.2
3 4 -6 7.9 12.5
-3 -4 6 -0.6 13
2 4 -6 1780.42 62.19
2 4 -6 1748.82 62.09
2 4 -6 1667.43 59.79
-2 -4 6 1583.34 63.49
-2 -4 6 1833.82 62.09
1 4 -6 28.9 10.2
1 4 -6 28.7 10.8
0 4 -6 787.52 33.3
0 4 -6 813.32 33.7
0 -4 6 766.12 33.5
0 -4 6 760.52 32.9
0 -4 6 805.22 33.3
-1 4 -6 239.68 19.3
-1 4 -6 162.78 19.4
-1 4 -6 216.38 19
1 -4 6 212.38 19.7
1 -4 6 213.78 19.5
1 -4 6 179.48 19.2
-2 4 -6 607.14 32.4
-2 4 -6 674.43 32.1
2 -4 6 685.83 32.2
2 -4 6 647.94 33.4
2 -4 6 640.24 26
2 -4 6 669.53 32.6
-3 4 -6 943.51 43.4
-3 4 -6 1023.9 45.3
3 -4 6 1029.9 44.5
3 -4 6 930.21 33.8
3 -4 6 912.61 45.2
3 -4 6 1031.6 43.8
-4 4 -6 157.38 25.4
-4 4 -6 210.78 25.5
4 -4 6 223.08 25.3
4 -4 6 220.18 24.8
4 3 -6 -7.7 17.4
4 3 -6 26.5 17.5
4 3 -6 -8.5 15.3
-4 -3 6 5.8 15.9
-4 -3 6 22 16.9
3 3 -6 724.03 37.9
3 3 -6 900.11 34.1
-3 -3 6 816.92 38.4
-3 -3 6 810.32 38.1
2 3 -6 242.48 11.1
2 3 -6 221.08 17.9
2 3 -6 209.38 20
2 3 -6 222.28 20.4
-2 -3 6 217.38 20.3
-2 -3 6 231.58 19.6
1 3 -6 761.52 32
1 3 -6 774.52 31.3
1 3 -6 760.82 31.7
-1 -3 6 853.61 31.5
-1 -3 6 752.32 31.6
-1 -3 6 758.52 29.5
0 3 -6 431.26 22.4
0 3 -6 450.25 22.9
0 3 -6 438.86 22.1
0 -3 6 436.86 21.4
0 -3 6 554.14 22.1
0 -3 6 438.76 22.3
-1 3 -6 1415.86 50.69
-1 3 -6 1447.56 50.69
-1 3 -6 1404.26 50.09
1 -3 6 1443.46 50.59
1 -3 6 1441.86 50.19
1 -3 6 1467.05 49.8
2 -3 6 9.9 6.1
2 -3 6 20.9 10.2
2 -3 6 7 9.9
2 -3 6 6.9 10.7
-3 3 -6 665.83 33.7
-3 3 -6 683.43 32.9
3 -3 6 666.13 35.4
3 -3 6 647.24 23.5
3 -3 6 686.03 32.8
3 -3 6 644.94 32.9
-4 3 -6 21.7 17.2
-4 3 -6 -12.3 15.2
4 -3 6 22 15.2
4 -3 6 1.3 17.3
4 -3 6 -15.5 15.3
4 2 -6 344.47 31.3
-4 -2 6 304.97 29.7
-4 -2 6 364.96 31.4
3 2 -6 48.1 9.5
3 2 -6 17.9 13.1
3 2 -6 11.7 12.3
-3 -2 6 10.5 11.9
2 2 -6 7.1 9.4
2 2 -6 -0.2 6.2
2 2 -6 -0.1 7.2
-2 -2 6 -8.9 9
-2 -2 6 34.4 9.9
1 2 -6 514.45 21.9
1 2 -6 526.15 18.9
1 2 -6 529.65 24.2
1 2 -6 567.64 24.1
-1 -2 6 530.75 24.1
0 2 -6 8.7 6.1
0 2 -6 12.8 6.6
0 2 -6 2.7 6.8
0 -2 6 3.6 5.2
0 -2 6 8.2 7.1
0 -2 6 0.4 6.5
-1 2 -6 846.62 32.8
-1 2 -6 937.61 33.9
-1 2 -6 929.21 33.6
1 -2 6 905.31 33.5
1 -2 6 863.41 32.5
1 -2 6 889.11 33
-2 2 -6 5.3 8.3
-2 2 -6 6.8 7.9
2 -2 6 4.5 8.2
2 -2 6 -1.5 8.7
2 -2 6 22.2 7.7
3 -2 6 40.2 11.8
3 -2 6 10.3 11.4
3 -2 6 16.5 3.9
-4 2 -6 527.95 31.1
-4 2 -6 532.25 33
4 -2 6 568.04 33.4
4 -2 6 556.94 32.5
4 -2 6 563.24 35
4 1 -6 57.39 17
4 1 -6 58.69 17.7
-4 -1 6 83.79 18.4
-4 -1 6 25.2 16.3
3 1 -6 1203.68 48.5
-3 -1 6 1229.38 48.2
-3 -1 6 1188.28 47.6
2 1 -6 14 9.1
2 1 -6 12.4 6.4
2 1 -6 21.7 9.8
-2 -1 6 6.8 8.6
1 1 -6 2707.93 84.29
1 1 -6 2797.22 87.29
1 1 -6 2757.02 81.19
1 1 -6 2709.73 86.89
1 1 -6 2726.43 83.89
-1 -1 6 2798.52 87.19
-1 -1 6 2733.53 86.99
0 1 -6 1468.25 48.6
0 1 -6 1451.85 46.8
0 1 -6 1510.95 46.8
0 1 -6 1516.15 48.9
0 -1 6 1498.35 48.9
0 -1 6 1497.65 48.9
0 -1 6 1444.66 46.4
-1 1 -6 880.51 30.7
-1 1 -6 823.42 30.1
1 -1 6 845.82 30.6
1 -1 6 842.72 29.7
1 -1 6 859.41 30.5
-2 1 -6 2312.27 73.29
-2 1 -6 2242.28 72.89
2 -1 6 2334.37 73.69
2 -1 6 2258.67 73.09
2 -1 6 2280.77 72.99
-3 1 -6 1908.01 64.39
-3 1 -6 1846.82 63.79
3 -1 6 1936.41 63.89
3 -1 6 1890.31 64.99
3 -1 6 1963.1 64.29
3 -1 6 1842.02 56.29
4 -1 6 535.95 29.8
4 -1 6 547.45 32.4
4 -1 6 521.35 30.5
-5 1 -6 -3.8 16.8
-5 1 -6 -9.5 15.3
5 -1 6 -14.8 18.1
5 -1 6 34 17.7
5 -1 6 14 15.6
4 0 -6 103.79 19.2
4 0 -6 105.69 19.4
-4 0 6 132.99 19.1
-4 0 6 136.59 19.7
-4 0 6 119.09 13.2
3 0 -6 423.86 27.8
3 0 -6 441.46 27.6
-3 0 6 464.95 27.7
-3 0 6 479.85 31.6
-3 0 6 444.66 15.3
2 0 -6 1091.69 38.9
2 0 -6 988.1 38.4
-2 0 6 852.61 37.3
-2 0 6 1036.6 38.6
1 0 -6 839.32 31.2
1 0 -6 834.92 31.1
1 0 -6 813.42 26.4
1 0 -6 851.41 30
-1 0 6 823.02 31
-1 0 6 822.12 31
0 0 -6 175.38 11.3
0 0 -6 199.78 8.5
0 0 -6 177.28 10.5
0 0 -6 178.28 10.6
0 0 6 164.28 11
0 0 6 172.98 6.9
-1 0 -6 327.97 14.3
-1 0 -6 333.37 14.7
1 0 6 346.17 14.7
1 0 6 325.67 13.6
1 0 6 334.07 14.7
-2 0 -6 1820.62 57.19
-2 0 -6 1767.42 57.19
2 0 6 1736.93 57.59
2 0 6 1843.02 57.39
2 0 6 1753.92 56.99
-3 0 -6 63.19 9.3
-3 0 -6 67.59 10.1
3 0 6 62.09 9.5
3 0 6 59.39 9.1
-4 0 -6 648.14 30.6
4 0 6 649.54 31.4
4 0 6 717.13 31.7
-5 0 -6 5.2 20.2
-5 0 -6 9.8 14.9
-5 0 -6 25.8 15.3
5 0 6 25.8 14.8
5 0 6 2.2 16.4
5 0 6 13.5 16
4 -1 -6 89.39 19
4 -1 -6 102.79 19.3
4 -1 -6 118.79 19.5
-4 1 6 126.29 19.6
-4 1 6 102.29 19.6
-4 1 6 100.49 10.1
3 -1 -6 14.8 9.4
-3 1 6 14.7 12.3
-3 1 6 5.3 11.9
2 -1 -6 425.76 23.4
2 -1 -6 445.66 19.1
2 -1 -6 437.66 23.8
-2 1 6 485.85 23.6
-2 1 6 443.76 23.1
1 -1 -6 27.9 7.2
1 -1 -6 38.1 7.7
1 -1 -6 26.3 3.4
1 -1 -6 29.4 8.5
-1 1 6 26.1 6.8
-1 1 6 36 4
-1 1 6 23.9 7.2
0 -1 -6 1045.1 32.1
0 -1 -6 1009.9 33.7
0 -1 -6 1000.1 33.7
0 -1 -6 1044 34.7
0 1 6 974.8 33.6
0 1 6 1024.1 33.8
-1 -1 -6 410.46 14.8
-1 -1 -6 389.36 14.6
-1 -1 -6 391.86 15.9
-1 -1 -6 382.16 16.5
1 1 6 388.06 14.8
1 1 6 379.66 14.8
-2 -1 -6 682.83 27
-2 -1 -6 711.73 24.4
-2 -1 -6 690.83 24.1
2 1 6 703.53 24.3
2 1 6 677.83 24.3
-3 -1 -6 570.04 27
-3 -1 -6 578.74 23.5
-3 -1 -6 605.04 24.1
3 1 6 575.34 18.4
3 1 6 570.64 23.5
3 1 6 607.04 23.3
-4 -1 -6 701.33 30.5
-4 -1 -6 664.63 29.1
-4 -1 -6 649.14 32.8
4 1 6 671.13 29.4
4 1 6 659.43 32.3
-5 -1 -6 181.68 18.4
-5 -1 -6 163.18 22
5 1 6 158.38 18.9
5 1 6 196.58 23.7
4 -2 -6 407.66 33.3
4 -2 -6 346.17 33.1
4 -2 -6 408.56 30.9
-4 2 6 321.37 31.9
-4 2 6 353.16 32.5
3 -2 -6 113.09 13.7
3 -2 -6 105.99 15.8
-3 2 6 122.49 16.4
-3 2 6 111.69 16.2
2 -2 -6 411.16 19.7
2 -2 -6 395.36 23.3
2 -2 -6 438.96 23.4
-2 2 6 458.05 23.7
-2 2 6 453.05 23.1
1 -2 -6 1297.37 44.6
1 -2 -6 1347.07 42
1 -2 -6 1315.27 47.2
1 -2 -6 1280.97 45
-1 2 6 1294.77 44.4
-1 2 6 1375.26 45.5
0 -2 -6 2003 63.89
0 -2 -6 2150.18 66.49
0 2 6 2012.3 63.99
0 2 6 2074.69 61.89
0 2 6 2113.09 64.29
-1 -2 -6 1439.96 44.1
-1 -2 -6 1437.96 44.3
-1 -2 -6 1446.06 46.9
-1 -2 -6 1499.75 47.8
1 2 6 1464.25 44.5
1 2 6 1473.05 44.4
-2 -2 -6 64.09 5.7
-2 -2 -6 58.59 7.1
-2 -2 -6 85.89 9.3
2 2 6 71.39 7.5
2 2 6 62.89 6
-3 -2 -6 971.4 37.5
-3 -2 -6 981.8 33.3
-3 -2 -6 982.6 33.9
3 2 6 984 33.7
3 2 6 969.8 31.3
3 2 6 997.6 34
-4 -2 -6 5.5 8.8
-4 -2 -6 1.8 12.2
-4 -2 -6 1.2 9.4
4 2 6 13.3 9
4 2 6 8.4 8.3
-5 -2 -6 1020.7 42.1
-5 -2 -6 1112.89 43.8
-5 -2 -6 986.6 45.3
5 2 6 983.1 41.8
5 2 6 994.2 42.5
4 -3 -6 281.37 33.8
4 -3 -6 330.87 33.8
-4 3 6 294.87 34.1
-4 3 6 300.27 35.1
-4 3 6 317.97 26.1
3 -3 -6 11.5 13.5
3 -3 -6 19.9 11.9
-3 3 6 11.6 10.6
-3 3 6 11.9 13.5
-3 3 6 19.5 14
2 -3 -6 538.45 24.3
2 -3 -6 512.95 26
2 -3 -6 490.95 26
-2 3 6 518.85 26.4
-2 3 6 521.95 26.7
1 -3 -6 326.47 17.1
1 -3 -6 275.57 20.8
1 -3 -6 323.87 16
1 -3 -6 323.97 17.4
-1 3 6 298.97 16
0 -3 -6 26.6 4.6
0 -3 -6 3.4 8.1
0 -3 -6 17 4.4
0 -3 -6 21.1 5
0 3 6 16.8 5.1
0 3 6 19.8 4.5
0 3 6 11.8 4.4
-1 -3 -6 627.44 23.9
-1 -3 -6 619.24 24.5
1 3 6 619.34 23.6
1 3 6 629.24 22.4
-2 -3 -6 55.59 8.7
-2 -3 -6 60.09 9.1
2 3 6 59.19 2.7
2 3 6 54.09 6.6
-3 -3 -6 2169.58 65.89
-3 -3 -6 2107.09 70.99
3 3 6 2162.18 66.39
3 3 6 2171.28 66.39
3 3 6 2111.49 66.59
-4 -3 -6 5.2 7.3
-4 -3 -6 5.8 7.9
-4 -3 -6 10.9 11.9
4 3 6 15.4 8.1
4 3 6 11.7 7.7
-5 -3 -6 321.87 20.6
-5 -3 -6 241.28 22.4
-5 -3 -6 273.67 26.2
5 3 6 272.27 22.8
5 3 6 248.38 22
3 -4 -6 1287.17 54.19
3 -4 -6 1336.07 54.39
3 -4 -6 1354.66 53.89
-3 4 6 1346.47 54.89
2 -4 -6 139.09 15.1
2 -4 -6 134.69 14.4
-2 4 6 124.89 14.3
-2 4 6 136.29 15.9
-2 4 6 125.89 13.8
1 -4 -6 629.34 27
1 -4 -6 602.54 31.5
1 -4 -6 669.43 27.4
1 -4 -6 667.73 26.5
-1 4 6 659.33 27.6
-1 4 6 596.74 25.9
-1 4 6 635.94 27.6
0 -4 -6 6.3 9.7
0 -4 -6 -0.5 4.3
0 -4 -6 1.3 6.4
0 4 6 -4.8 7.1
0 4 6 -1.1 5.6
0 4 6 0.5 4.5
0 4 6 -3.6 5.2
-1 -4 -6 1849.02 60.59
-1 -4 -6 1902.31 60.89
1 4 6 1784.52 54.79
1 4 6 1865.31 59.39
1 4 6 1872.81 60.09
1 4 6 1834.82 54.69
-2 -4 -6 575.74 25.1
-2 -4 -6 558.34 23.4
2 4 6 565.84 22.4
2 4 6 554.04 24.1
-3 -4 -6 1435.46 51.19
-3 -4 -6 1454.55 43.8
-3 -4 -6 1427.96 43.9
3 4 6 1422.26 44.6
3 4 6 1432.56 47.2
-4 -4 -6 -1.6 12.2
-4 -4 -6 4.7 6.5
-4 -4 -6 27.7 7.1
4 4 6 0.1 7.1
4 4 6 -4 6.5
-5 -4 -6 233.88 25.5
-5 -4 -6 226.78 21.1
5 4 6 249.78 21.7
5 4 6 220.68 20.7
3 -5 -6 14.3 18.1
3 -5 -6 -3.9 16.2
3 -5 -6 34.3 17.2
-3 5 6 18.8 16.9
-3 5 6 51.39 15.2
-3 5 6 27.5 18.3
2 -5 -6 406.76 25.4
2 -5 -6 341.57 27.1
2 -5 -6 317.77 24.2
-2 5 6 411.36 27.8
-2 5 6 342.47 24.9
1 -5 -6 379.06 21.1
1 -5 -6 337.87 26.6
1 -5 -6 352.66 23.2
1 -5 -6 338.67 20.8
-1 5 6 315.47 20.6
-1 5 6 347.37 20
-1 5 6 334.37 22.7
-1 5 6 382.16 20
0 -5 -6 791.32 28.1
0 -5 -6 794.52 32.6
0 -5 -6 750.02 33.8
0 -5 -6 807.82 28.8
0 5 6 780.12 28.1
0 5 6 648.34 39.9
0 5 6 794.82 30.7
0 5 6 845.72 28.8
-1 -5 -6 149.79 6.8
-1 -5 -6 143.09 14.6
-1 -5 -6 155.98 6.5
1 5 6 160.58 7.9
1 5 6 142.49 14.6
1 5 6 159.38 8.4
1 5 6 138.99 14.5
-2 -5 -6 880.21 35.7
-2 -5 -6 897.51 33.8
2 5 6 892.11 35.3
2 5 6 943.71 33.9
-3 -5 -6 112.59 14.6
3 5 6 120.29 6.4
3 5 6 130.29 14.8
3 5 6 129.89 12.8
3 5 6 112.09 6.2
-4 -5 -6 1906.41 59.79
-4 -5 -6 1732.63 67.19
-4 -5 -6 1982.9 59.99
4 5 6 1954.3 60.89
-5 -5 -6 65.89 11.5
-5 -5 -6 89.79 19
5 5 6 60.29 11.7
2 -6 -6 172.58 18.2
2 -6 -6 142.69 18.1
-2 6 6 100.99 18.2
-2 6 6 142.99 18.1
-2 6 6 148.69 18.2
1 -6 -6 75.69 15.6
1 -6 -6 88.89 19.8
1 -6 -6 87.09 12.7
-1 6 6 81.89 12
-1 6 6 76.89 12.7
-1 6 6 119.79 14.7
-1 6 6 90.09 13.2
0 -6 -6 1503.35 51.49
0 -6 -6 1453.95 56.99
0 -6 -6 1537.95 50.99
0 -6 -6 1510.35 56.49
0 6 6 1515.25 50.99
0 6 6 1764.52 54.19
0 6 6 1508.35 51.89
-1 -6 -6 13.2 4.8
-1 -6 -6 15.2 11.2
-1 -6 -6 7.2 4.3
1 6 6 13.4 10.3
1 6 6 12.5 5.3
1 6 6 10.3 5
-2 -6 -6 1388.56 49.3
2 6 6 1456.45 50.19
2 6 6 1411.26 51.09
-3 -6 -6 11.9 13.1
3 6 6 4.4 14.7
3 6 6 16.3 2.7
3 6 6 19.9 13.1
3 6 6 18.9 2.4
-4 -6 -6 851.31 27.9
-4 -6 -6 833.22 27.6
-4 -6 -6 753.62 39.4
4 6 6 873.41 29.2
4 6 6 792.62 29.7
4 6 6 922.31 41.3
-5 -6 -6 59.69 19.3
5 6 6 63.19 20.8
5 6 6 49.2 10.8
5 6 6 44.3 11.2
1 -7 -6 14.8 11.7
1 -7 -6 22.5 19.3
1 -7 -6 6.1 12.4
-1 7 6 32.9 13.7
-1 7 6 15.4 15.2
-1 7 6 2.1 11.9
-1 7 6 5.3 13.5
0 -7 -6 326.87 20.4
0 -7 -6 343.57 19.9
0 -7 -6 326.97 28.1
0 -7 -6 320.17 29.2
0 7 6 324.57 20.9
0 7 6 323.47 19.5
0 7 6 356.26 26.3
-1 -7 -6 50.69 7.4
-1 -7 -6 64.79 7.7
-1 -7 -6 63.09 14.6
1 7 6 60.59 13.5
1 7 6 57.69 9.4
1 7 6 55.59 8.2
-2 -7 -6 699.73 30.6
2 7 6 697.23 22.5
2 7 6 641.44 23
2 7 6 505.95 47.6
2 7 6 703.33 31.8
3 7 6 228.28 9.7
3 7 6 249.97 24
3 7 6 223.58 20.8
3 7 6 273.57 9.7
-4 -7 -6 112.89 15.9
-4 -7 -6 97.39 4.1
4 7 6 99.89 19.3
4 7 6 100.69 10
4 7 6 92.09 10.9
0 -8 -6 22.4 11.5
0 -8 -6 29.9 18.4
0 -8 -6 26.8 17.9
0 -8 -6 12.6 10.9
0 8 6 34.9 17.1
0 8 6 17.2 10.8
0 8 6 18 12.1
0 8 6 22 15.6
-1 -8 -6 803.32 31.4
-1 -8 -6 851.11 38.7
-1 -8 -6 847.82 32.1
1 8 6 836.92 39.7
1 8 6 857.11 40
1 8 6 842.42 32.6
-2 -8 -6 131.19 8.4
-2 -8 -6 150.68 8.2
-2 -8 -6 142.49 16.5
2 8 6 160.18 13.2
2 8 6 156.88 11.9
2 8 6 136.79 17.8
2 8 6 172.28 20.7
3 8 6 354.96 13.7
3 8 6 277.47 12.6
3 8 6 361.26 32.3
-4 -8 -6 131.79 19.3
4 8 6 134.49 10.9
4 8 6 104.59 11.3
4 8 6 150.18 23.3
2 7 -7 71.49 19.4
2 7 -7 8.1 21.1
2 7 -7 51.49 20.1
-2 -7 7 44.2 19.5
-2 -7 7 44.1 19.9
1 7 -7 270.77 33
1 7 -7 355.86 32.8
1 7 -7 306.27 32.6
-1 -7 7 264.17 31.4
-1 -7 7 280.37 30.1
-1 -7 7 274.77 29.5
-1 -7 7 240.58 25.7
0 7 -7 369.56 36.8
0 7 -7 338.27 32.4
0 7 -7 311.57 31.6
0 -7 7 243.28 27
0 -7 7 365.06 32.4
0 -7 7 304.07 33
0 -7 7 247.68 26.2
3 6 -7 221.28 24.7
3 6 -7 184.38 25.2
3 6 -7 221.08 25.6
-3 -6 7 183.18 24.5
-3 -6 7 184.68 23.7
2 6 -7 24.3 16.9
2 6 -7 36.4 17.1
2 6 -7 55.09 16.5
-2 -6 7 33.3 16.7
1 6 -7 320.47 31.4
1 6 -7 335.87 28.1
1 6 -7 269.27 26.8
-1 -6 7 262.17 26.9
-1 -6 7 338.57 27.7
-1 -6 7 329.87 26.7
0 6 -7 39.6 16.9
0 6 -7 -0.9 13.7
0 6 -7 22.3 14.3
0 -6 7 18.1 13.7
0 -6 7 25 15
0 -6 7 18.5 14.8
0 -6 7 -1.9 14.8
-1 6 -7 701.83 38
-1 6 -7 669.43 40.1
-1 6 -7 707.93 38.2
1 -6 7 644.84 37.9
1 -6 7 682.33 32
1 -6 7 643.94 39.3
1 -6 7 673.53 38
-2 6 -7 153.08 23.3
-2 6 -7 203.88 24.2
2 -6 7 181.58 22.7
2 -6 7 117.49 21.9
2 -6 7 222.38 27.1
2 -6 7 145.49 15.5
4 5 -7 -9.7 20.5
4 5 -7 17.6 20.6
4 5 -7 13.1 19.2
-4 -5 7 -10.9 20.2
-4 -5 7 23.3 20.6
3 5 -7 113.29 19.5
3 5 -7 116.59 19.8
3 5 -7 98.09 18.5
-3 -5 7 78.09 19
-3 -5 7 84.79 19.2
2 5 -7 49.9 15.7
2 5 -7 71.09 15.6
2 5 -7 49.5 15.5
-2 -5 7 50.19 15.4
-2 -5 7 68.79 15.9
1 5 -7 904.11 39.5
1 5 -7 856.81 39
1 5 -7 892.61 39.1
-1 -5 7 768.02 40
-1 -5 7 874.71 39.5
0 5 -7 145.19 17.4
0 5 -7 157.68 17.3
0 5 -7 151.38 26.8
0 -5 7 128.29 16.9
0 -5 7 147.89 17.1
0 -5 7 141.09 17.1
-1 5 -7 261.37 26.6
-1 5 -7 306.47 24.8
-1 5 -7 318.47 26
1 -5 7 321.27 24.8
1 -5 7 305.97 25.7
1 -5 7 293.17 20.6
1 -5 7 341.47 26
-2 5 -7 261.57 27.7
-2 5 -7 292.67 28.2
2 -5 7 260.67 28.8
2 -5 7 275.07 20
2 -5 7 270.07 27.9
2 -5 7 266.07 26.5
-3 5 -7 351.66 34.9
-3 5 -7 336.97 34.9
3 -5 7 371.86 34.4
3 -5 7 436.46 20.5
3 -5 7 351.46 35.3
3 -5 7 357.86 37.3
4 4 -7 -24.5 17.1
4 4 -7 2.8 16.9
4 4 -7 27.1 10.3
4 4 -7 13.1 19.2
-4 -4 7 36.4 19.3
-4 -4 7 31.9 19.1
3 4 -7 532.85 31.9
3 4 -7 580.44 35.2
3 4 -7 569.54 35.2
3 4 -7 537.55 20.5
-3 -4 7 607.24 34.5
-3 -4 7 551.94 34.2
2 4 -7 4.3 12.9
-2 -4 7 8.6 12.2
-2 -4 7 12.4 13.5
1 4 -7 65.89 12.5
-1 -4 7 47.3 10.8
-1 -4 7 43.9 14.8
-1 -4 7 60.69 12.2
0 4 -7 212.78 24.6
0 4 -7 292.57 22.4
0 -4 7 301.77 22.8
0 -4 7 300.27 20.8
0 -4 7 296.47 21.3
-1 4 -7 187.58 20.5
-1 4 -7 180.38 20.2
-1 4 -7 196.78 19.6
1 -4 7 157.08 18.4
1 -4 7 149.49 16.8
1 -4 7 206.08 24.2
-2 4 -7 552.84 49.5
-2 4 -7 675.73 33.3
2 -4 7 694.63 33.6
2 -4 7 681.53 34.8
2 -4 7 677.23 34
-3 4 -7 10.6 15.2
-3 4 -7 -4.4 15.3
3 -4 7 -0.8 7.2
3 -4 7 7.9 15
3 -4 7 13.1 17
3 -4 7 0.9 14.9
4 3 -7 134.59 22.8
4 3 -7 167.98 18.7
4 3 -7 178.38 23.1
-4 -3 7 150.18 22.2
-4 -3 7 168.88 22.4
3 3 -7 3.5 14
3 3 -7 16.3 8.6
3 3 -7 -17.2 13.1
-3 -3 7 10.7 14.1
-3 -3 7 -26.7 13.2
2 3 -7 620.84 22.7
2 3 -7 648.74 29
2 3 -7 689.93 32.4
-2 -3 7 636.54 31.6
-2 -3 7 594.34 31.4
1 3 -7 25.6 9
1 3 -7 12.8 9.5
-1 -3 7 5.3 9.9
-1 -3 7 10.9 7.4
0 3 -7 1581.44 54.29
0 3 -7 1519.05 53.59
0 3 -7 1579.64 54.29
0 -3 7 1580.84 54.59
0 -3 7 1506.45 52.29
0 -3 7 1542.65 54.19
-1 3 -7 33.9 10.2
1 -3 7 27.3 10.2
1 -3 7 32.3 10.3
1 -3 7 28.4 10.2
-2 3 -7 701.53 30.6
-2 3 -7 620.34 29.7
2 -3 7 533.85 33.8
2 -3 7 654.93 30.6
2 -3 7 638.44 24.9
-3 3 -7 409.16 27.9
-3 3 -7 429.66 28.2
3 -3 7 408.46 17.4
3 -3 7 410.36 30.1
3 -3 7 414.36 27.2
3 -3 7 412.36 27.9
-4 3 -7 616.84 38.8
-4 3 -7 580.14 36.8
4 -3 7 632.74 39.5
4 -3 7 625.24 37.9
4 -3 7 664.73 38.2
4 2 -7 174.98 18
4 2 -7 135.99 21.5
4 2 -7 148.79 22.1
-4 -2 7 170.08 22
-4 -2 7 140.99 21.5
3 2 -7 61.99 17.5
3 2 -7 87.99 16.2
-3 -2 7 78.29 16.1
-3 -2 7 80.49 16
2 2 -7 903.51 38.2
2 2 -7 930.61 32.4
2 2 -7 904.81 33.9
2 2 -7 799.82 37
-2 -2 7 955 38.3
-2 -2 7 925.21 37.7
1 2 -7 50.99 6.4
1 2 -7 47 8.1
1 2 -7 37.3 9.9
1 2 -7 42.5 9.5
0 2 -7 1506.35 48.9
0 2 -7 1429.56 50.19
0 2 -7 1417.16 49.99
0 -2 7 1563.14 49.99
0 -2 7 1414.56 47.7
0 -2 7 1431.46 50.19
-1 2 -7 1320.37 45.5
-1 2 -7 1255.87 45.6
-1 2 -7 1299.37 45.2
1 -2 7 1300.67 45.7
1 -2 7 1297.47 44.8
-2 2 -7 1043.3 39.6
-2 2 -7 1029.7 39.2
2 -2 7 1010.1 39.2
2 -2 7 1016.8 39.3
2 -2 7 1088.59 39.5
-3 2 -7 409.96 27.3
3 -2 7 538.85 28.6
3 -2 7 547.85 27.4
3 -2 7 545.15 28.9
3 -2 7 525.55 18.6
-4 2 -7 309.37 31.4
-4 2 -7 369.56 28.4
4 -2 7 363.36 27.1
4 -2 7 318.17 27.9
4 -2 7 368.06 31
4 1 -7 79.99 18.9
-4 -1 7 120.09 20.4
-4 -1 7 100.69 19.2
3 1 -7 -5.2 12.5
-3 -1 7 21.9 13.4
2 1 -7 343.67 19.4
2 1 -7 341.07 22.7
2 1 -7 331.57 22.7
2 1 -7 358.46 17.5
-2 -1 7 369.66 22.5
-2 -1 7 345.37 22
1 1 -7 371.36 20.4
1 1 -7 371.26 20.3
1 1 -7 392.36 16.1
1 1 -7 380.86 17
-1 -1 7 375.36 20.2
0 1 -7 173.48 13.6
0 1 -7 153.98 10.3
0 1 -7 152.18 12.2
0 1 -7 153.18 9.8
0 -1 7 142.59 9.1
0 -1 7 151.38 13.1
0 -1 7 143.29 12.7
-1 1 -7 1885.01 61.89
-1 1 -7 1958 62.49
1 -1 7 1886.31 62.19
1 -1 7 1977.2 62.49
1 -1 7 1917.81 61.09
-2 1 -7 70.59 9.4
-2 1 -7 69.09 9.6
2 -1 7 80.89 9.8
2 -1 7 75.49 10
2 -1 7 121.89 11.4
-3 1 -7 2275.97 75.29
-3 1 -7 2294.07 76.09
3 -1 7 2313.97 75.89
3 -1 7 2277.17 68.89
3 -1 7 2277.27 75.79
3 -1 7 2316.17 76.79
-4 1 -7 -11.5 13.2
4 -1 7 -17.8 13.3
4 -1 7 9.9 11.9
4 -1 7 -5.2 12.4
-5 1 -7 438.86 35
-5 1 -7 422.96 33.6
5 -1 7 429.06 33.3
5 -1 7 416.36 37.1
5 -1 7 398.76 33.5
4 0 -7 16.3 16.8
4 0 -7 9.7 17.9
-4 0 7 11.7 17
-4 0 7 -11.2 16.3
3 0 -7 297.07 25.5
3 0 -7 349.77 25.9
-3 0 7 385.06 26.4
-3 0 7 329.47 25.9
2 0 -7 27.7 10.6
2 0 -7 20.9 10.2
-2 0 7 23 10.1
-2 0 7 26.8 10.5
1 0 -7 912.81 33.2
1 0 -7 937.61 29
1 0 -7 944.21 35.2
1 0 -7 896.11 34.3
-1 0 7 925.41 34.4
-1 0 7 928.41 35
0 0 -7 88.79 8.6
0 0 -7 94.59 6.9
0 0 -7 94.79 10.7
0 0 -7 79.19 9.5
0 0 7 79.99 8.3
-1 0 -7 729.03 26.3
-1 0 -7 723.23 26.4
1 0 7 740.63 26.5
1 0 7 720.63 25
1 0 7 734.73 26.7
-2 0 -7 263.67 14.7
-2 0 -7 282.27 15.3
2 0 7 277.67 15
2 0 7 285.27 15.6
2 0 7 279.37 15.9
-3 0 -7 313.67 18.5
-3 0 -7 334.67 19
3 0 7 293.67 18.8
3 0 7 310.17 18.5
3 0 7 300.47 19.5
-4 0 -7 181.28 20.2
4 0 7 200.28 19.3
4 0 7 207.28 21.9
4 0 7 169.28 20.4
-5 0 -7 242.18 28.1
-5 0 -7 255.97 25.7
-5 0 -7 204.18 24.9
5 0 7 225.18 24.7
5 0 7 230.98 27.2
5 0 7 225.58 22.4
4 -1 -7 23.1 17.5
4 -1 -7 15.2 18.3
-4 1 7 10.7 17.4
-4 1 7 45.9 18.7
3 -1 -7 328.67 21.1
3 -1 -7 348.37 26.4
-3 1 7 351.26 12.9
-3 1 7 402.56 28.1
-3 1 7 367.36 27.9
2 -1 -7 37.4 10.8
2 -1 -7 40 6.7
2 -1 -7 27.1 10.8
-2 1 7 10.2 10.3
-2 1 7 29.4 10.6
1 -1 -7 481.45 22.6
1 -1 -7 436.06 15.1
1 -1 -7 501.05 21.8
-1 1 7 500.85 22.3
-1 1 7 467.65 21.3
0 -1 -7 1465.95 47
0 -1 -7 1479.95 44.9
0 -1 -7 1403.86 47.8
0 -1 -7 1423.56 46.9
0 1 7 1423.76 47
0 1 7 1467.65 47.1
-1 -1 -7 1801.62 55.49
-1 -1 -7 1728.43 54.49
-1 -1 -7 1695.43 55.99
-1 -1 -7 1737.13 54.39
1 1 7 1755.02 54.59
1 1 7 1739.33 54.59
-2 -1 -7 2621.94 80.89
-2 -1 -7 2526.35 77.89
-2 -1 -7 2463.45 77.99
2 1 7 2508.05 78.09
2 1 7 2540.25 78.19
-3 -1 -7 554.34 26.5
-3 -1 -7 536.95 23
-3 -1 -7 535.85 22.4
3 1 7 561.64 23.2
3 1 7 536.15 18.1
3 1 7 510.45 22.2
-4 -1 -7 1246.78 46.3
-4 -1 -7 1289.77 45.8
-4 -1 -7 1207.38 49.7
4 1 7 1233.28 46.8
4 1 7 1298.57 46.7
-5 -1 -7 214.68 28.5
-5 -1 -7 206.78 20.7
-5 -1 -7 216.98 24.1
5 1 7 220.88 25.3
5 1 7 247.18 23.4
4 -2 -7 32.2 19.5
4 -2 -7 55.09 20.3
4 -2 -7 55.39 16.6
-4 2 7 80.99 20.4
-4 2 7 69.29 20.5
3 -2 -7 50.59 15
3 -2 -7 38.7 11.5
-3 2 7 44.8 14.9
-3 2 7 26.6 14.3
2 -2 -7 680.93 31.4
2 -2 -7 670.63 26.1
2 -2 -7 588.44 34
-2 2 7 693.63 31.1
-2 2 7 738.43 32
1 -2 -7 997.5 40.6
1 -2 -7 1095.99 34
1 -2 -7 1080.09 38.8
1 -2 -7 1069.49 38.2
-1 2 7 1093.39 38.3
-1 2 7 1036.5 38
0 -2 -7 1829.02 56.69
0 -2 -7 1793.72 59.09
0 -2 -7 1842.92 55.89
0 -2 -7 1798.52 56.49
0 2 7 1735.63 56.49
0 2 7 1733.63 56.69
-1 -2 -7 66.69 5.8
-1 -2 -7 51.69 5.8
-1 -2 -7 47 6.9
-1 -2 -7 47.9 8.5
1 2 7 42.7 6
1 2 7 55.69 5.8
-2 -2 -7 2042 63.39
-2 -2 -7 1750.92 59.59
-2 -2 -7 1988.3 59.09
2 2 7 1976.7 59.39
-3 -2 -7 353.16 16.6
-3 -2 -7 354.36 16.1
-3 -2 -7 363.86 21.5
3 2 7 355.86 14.2
3 2 7 365.46 16.6
3 2 7 356.26 16.7
-4 -2 -7 977.5 36.4
-4 -2 -7 857.21 39.9
4 2 7 939.61 36.1
4 2 7 961.2 35.9
-5 -2 -7 4.9 11.1
-5 -2 -7 28.3 16.8
-5 -2 -7 -10.8 12.4
5 2 7 7.7 13
5 2 7 3.9 12.4
3 -3 -7 90.59 16.5
3 -3 -7 88.49 14.3
3 -3 -7 81.99 16.5
-3 3 7 97.69 17.3
-3 3 7 88.49 17.1
2 -3 -7 293.17 18.6
2 -3 -7 283.87 20.8
2 -3 -7 283.07 22.5
-2 3 7 315.57 22
-2 3 7 335.47 21.2
1 -3 -7 174.98 19.4
1 -3 -7 162.48 14.5
1 -3 -7 180.28 15.3
1 -3 -7 171.68 12.4
-1 3 7 190.68 14.6
0 -3 -7 628.64 26.3
0 -3 -7 620.74 22.5
0 3 7 631.74 21.3
0 3 7 621.64 22.8
0 3 7 633.94 23.6
-1 -3 -7 267.57 14.9
-1 -3 -7 240.08 15.7
1 3 7 250.97 14.4
1 3 7 255.37 9
1 3 7 254.47 9
1 3 7 262.97 12.3
-2 -3 -7 2576.44 81.49
-2 -3 -7 2522.15 81.59
2 3 7 2589.94 79.69
-3 -3 -7 198.18 18.1
-3 -3 -7 220.18 10.3
-3 -3 -7 211.48 11.3
3 3 7 215.68 11.5
3 3 7 207.78 11.5
3 3 7 215.18 12.3
-4 -3 -7 327.57 17.7
-4 -3 -7 343.37 24.4
-4 -3 -7 348.67 18.9
4 3 7 331.97 18.4
4 3 7 351.16 18.9
-5 -3 -7 145.49 20.7
-5 -3 -7 131.29 15.2
5 3 7 118.29 14.4
5 3 7 120.59 15.1
3 -4 -7 63.09 17.8
3 -4 -7 81.19 17.5
-3 4 7 102.49 19.1
-3 4 7 69.49 15.9
2 -4 -7 104.69 13.7
2 -4 -7 129.69 15
-2 4 7 133.39 15.3
-2 4 7 120.69 16
1 -4 -7 867.91 40.6
1 -4 -7 918.11 35.9
1 -4 -7 933.41 35
1 -4 -7 906.51 34.8
-1 4 7 904.61 34.5
-1 4 7 983.6 36.3
-1 4 7 959.1 36.6
0 -4 -7 895.31 29.6
0 -4 -7 844.42 31.3
0 -4 -7 827.62 35.5
0 4 7 826.42 30.7
0 4 7 890.21 30.3
0 4 7 878.21 29.8
0 4 7 890.11 33.5
-1 -4 -7 1836.12 60.79
-1 -4 -7 1789.52 59.69
1 4 7 1777.42 58.09
1 4 7 1860.11 59.69
-2 -4 -7 144.79 13.9
-2 -4 -7 144.49 15
2 4 7 145.89 13.1
2 4 7 140.89 13.3
-3 -4 -7 2358.06 79.79
3 4 7 2481.35 75.99
3 4 7 2393.96 72.09
-4 -4 -7 282.27 24.4
-4 -4 -7 314.37 15.3
-4 -4 -7 314.17 19.6
4 4 7 323.27 17.4
4 4 7 320.37 16.8
-5 -4 -7 318.77 29.2
-5 -4 -7 341.37 22.9
5 4 7 323.37 23.3
5 4 7 355.56 22.5
2 -5 -7 202.78 19.4
2 -5 -7 225.98 23.7
2 -5 -7 241.98 25.1
-2 5 7 236.88 25
-2 5 7 210.78 23.4
-2 5 7 219.78 22.9
1 -5 -7 481.65 23.9
1 -5 -7 464.05 24.9
1 -5 -7 466.25 30.6
1 -5 -7 489.35 26.2
-1 5 7 488.45 23.6
0 -5 -7 536.65 28.5
0 -5 -7 569.04 26.2
0 -5 -7 536.65 21.3
0 5 7 526.65 21.4
0 5 7 552.54 23.7
-1 -5 -7 918.61 36.1
1 5 7 905.61 27.9
1 5 7 912.31 34.2
1 5 7 885.81 28.2
1 5 7 923.81 35.7
-2 -5 -7 35.7 11.3
-2 -5 -7 49.99 10.7
2 5 7 50.19 9.5
2 5 7 50.39 9.6
-3 -5 -7 534.65 28.2
3 5 7 519.35 24.3
3 5 7 564.74 27.3
-4 -5 -7 -6.6 12.6
-4 -5 -7 6.6 4.6
-4 -5 -7 11.5 4
4 5 7 6.5 5.5
-5 -5 -7 295.87 30.1
5 5 7 350.76 21.1
2 -6 -7 25.6 15.2
2 -6 -7 -13.4 13.9
2 -6 -7 9.5 19.2
2 -6 -7 4.1 21.6
-2 6 7 -7.1 15.3
-2 6 7 12.5 14.8
-2 6 7 -3.9 14.7
1 -6 -7 631.64 33.7
1 -6 -7 657.23 30.8
1 -6 -7 446.06 53.59
-1 6 7 643.04 29.8
-1 6 7 604.74 28.8
-1 6 7 672.43 32.7
-1 6 7 621.64 31.1
0 -6 -7 363.66 17.9
0 -6 -7 330.67 24.5
0 -6 -7 364.56 20.7
0 -6 -7 305.97 25.8
0 6 7 370.46 19.9
0 6 7 348.17 18
-1 -6 -7 1539.05 56.79
1 6 7 1667.23 56.99
1 6 7 1630.14 49.5
1 6 7 1560.44 49.99
-2 -6 -7 15.7 10.8
2 6 7 15.9 10.4
2 6 7 16.3 10
-3 -6 -7 1488.95 58.19
3 6 7 1628.94 55.19
3 6 7 1599.64 58.29
-4 -6 -7 79.79 17.6
4 6 7 71.49 6.8
4 6 7 56.09 6.6
4 6 7 81.09 17
-5 -6 -7 188.58 14.1
-5 -6 -7 142.39 22.8
-5 -6 -7 213.48 14.7
5 6 7 183.98 17.2
5 6 7 202.88 16.6
5 6 7 205.18 25.7
1 -7 -7 267.27 23.7
1 -7 -7 254.77 28.4
1 -7 -7 268.97 24.5
-1 7 7 300.07 25.5
-1 7 7 233.98 23.1
-1 7 7 217.88 22.3
-1 7 7 228.98 24.8
0 -7 -7 292.57 28.2
0 -7 -7 299.17 38.4
0 -7 -7 322.17 20
0 -7 -7 283.27 18.8
0 7 7 293.77 18.7
0 7 7 316.97 26.2
0 7 7 316.77 23.2
0 7 7 317.27 20.8
-1 -7 -7 252.87 22.8
-1 -7 -7 275.37 12.5
-1 -7 -7 264.47 13
1 7 7 256.27 14.2
1 7 7 341.87 24.9
1 7 7 252.77 22.9
-2 -7 -7 794.42 35.8
2 7 7 863.21 36.6
3 7 7 42.7 12.8
3 7 7 40.6 14.6
-4 -7 -7 191.78 22.8
4 7 7 267.67 31
0 -8 -7 936.51 46.6
0 -8 -7 943.91 48.5
0 -8 -7 1021.2 37.7
0 -8 -7 902.91 37.8
0 8 7 916.71 39
0 8 7 972 44
0 8 7 867.81 36.9
0 8 7 946.41 45.5
-1 -8 -7 83.39 13.4
-1 -8 -7 62.49 8.3
1 8 7 96.29 16.8
1 8 7 59.59 9.4
1 8 7 80.59 17.1
-2 -8 -7 885.91 38.9
2 8 7 825.92 40.8
2 8 7 838.02 39.7
3 8 7 -9.8 15.7
3 8 7 32.9 15.1
2 6 -8 199.08 24.2
2 6 -8 202.28 23.5
2 6 -8 254.07 29.3
-2 -6 8 204.28 24
-2 -6 8 189.68 24.2
1 6 -8 17.5 16.5
1 6 -8 32.9 16.8
1 6 -8 12.3 16.4
-1 -6 8 -0.1 15.9
-1 -6 8 34.1 16.9
-1 -6 8 10.3 15
0 6 -8 589.84 37.4
0 6 -8 641.54 41
0 6 -8 612.64 37
0 -6 8 649.54 37.9
0 -6 8 647.94 37.8
0 -6 8 617.54 36.4
0 -6 8 616.44 35.2
-1 6 -8 149.49 22.1
-1 6 -8 198.38 22.7
-1 6 -8 182.78 24.1
1 -6 8 172.98 22.6
1 -6 8 167.08 21.9
1 -6 8 188.48 22.7
1 -6 8 184.88 18.3
3 5 -8 -8 16.3
3 5 -8 16.4 17.7
3 5 -8 -4.1 18.2
-3 -5 8 -20.5 17.6
-3 -5 8 -21 18
2 5 -8 29.2 20.1
2 5 -8 45.4 16.8
2 5 -8 39.1 16.4
-2 -5 8 20.8 16.3
-2 -5 8 39.2 17.3
1 5 -8 356.06 28.1
1 5 -8 388.16 28.4
1 5 -8 347.87 33.5
-1 -5 8 284.27 26.8
-1 -5 8 386.96 24.9
-1 -5 8 356.66 28
0 5 -8 43.8 15.3
0 5 -8 42.3 14.8
0 5 -8 31.1 14.1
0 -5 8 28.9 14.5
0 -5 8 23.4 13.8
0 -5 8 24.7 14.1
-1 5 -8 569.34 34.6
-1 5 -8 635.54 34.1
-1 5 -8 546.25 34.8
1 -5 8 622.54 34.6
1 -5 8 606.74 33.7
1 -5 8 596.24 28.6
1 -5 8 538.95 34.2
-2 5 -8 267.87 28.3
-2 5 -8 269.57 28.6
2 -5 8 262.47 21.9
2 -5 8 244.48 28.1
2 -5 8 246.68 29.9
2 -5 8 244.98 28
4 4 -8 80.49 22.9
4 4 -8 60.19 22.7
4 4 -8 101.29 20.9
4 4 -8 80.39 12.1
-4 -4 8 62.69 22.7
-4 -4 8 102.29 24
3 4 -8 348.47 15.9
3 4 -8 345.67 31.3
3 4 -8 387.26 28.1
3 4 -8 312.77 31
-3 -4 8 391.46 33.2
-3 -4 8 429.16 32.7
2 4 -8 24 13.8
2 4 -8 21 13.6
2 4 -8 28.3 13.1
-2 -4 8 31.5 14.5
-2 -4 8 25.4 13.8
1 4 -8 895.61 39.3
1 4 -8 857.11 38.9
-1 -4 8 884.21 35
-1 -4 8 885.71 39.3
-1 -4 8 873.71 39.5
0 4 -8 16.7 11.3
0 4 -8 20.8 11.8
0 4 -8 8.6 11.4
0 -4 8 -9.6 9.8
0 -4 8 -15.7 13.1
0 -4 8 -16.3 13
-1 4 -8 1279.67 51.79
-1 4 -8 1307.17 50.39
-1 4 -8 1372.06 51.89
1 -4 8 1326.07 50.69
1 -4 8 1251.07 50.99
1 -4 8 1347.47 51.19
-2 4 -8 94.09 16.7
-2 4 -8 136.09 17.3
2 -4 8 110.89 16.6
2 -4 8 95.49 16.5
2 -4 8 96.09 16.6
-3 4 -8 1203.38 53.19
-3 4 -8 1136.49 50.89
3 -4 8 1219.08 40.8
3 -4 8 1150.98 52.49
3 -4 8 1196.28 51.09
3 -4 8 1150.38 51.49
4 3 -8 69.59 20.5
4 3 -8 66.69 14.3
4 3 -8 69.79 17
4 3 -8 65.19 22.4
-4 -3 8 71.79 20.7
-4 -3 8 56.79 20.8
3 3 -8 280.57 29
3 3 -8 266.27 27.6
3 3 -8 238.78 17
3 3 -8 336.97 22.4
-3 -3 8 178.58 21.8
-3 -3 8 268.07 28
2 3 -8 124.29 11
2 3 -8 120.19 16.8
2 3 -8 106.89 16.3
2 3 -8 118.19 13.6
-2 -3 8 132.09 16.7
-2 -3 8 146.39 17.4
1 3 -8 441.36 23.7
1 3 -8 442.86 26
1 3 -8 421.16 29.1
-1 -3 8 486.45 26.1
0 3 -8 254.57 23.7
0 3 -8 297.87 19.5
0 -3 8 249.78 20.5
0 -3 8 257.07 17.5
0 -3 8 270.97 20.8
-1 3 -8 370.66 22.8
1 -3 8 373.46 23.1
1 -3 8 422.26 22.4
1 -3 8 384.06 23.7
-2 3 -8 1895.81 65.99
2 -3 8 1825.72 65.19
2 -3 8 1806.82 65.19
2 -3 8 1885.31 65.39
-3 3 -8 666.43 33.5
3 -3 8 635.04 24.2
3 -3 8 613.94 34.7
3 -3 8 636.14 34.5
3 -3 8 621.54 33.7
-4 3 -8 498.85 36.5
-4 3 -8 410.96 34.7
4 -3 8 457.65 35.1
4 -3 8 419.16 37.3
4 -3 8 487.95 35.5
4 2 -8 -14.8 13.5
4 2 -8 28.8 18.4
4 2 -8 -10.4 18.6
-4 -2 8 -15.2 17.9
-4 -2 8 -12.2 17.1
3 2 -8 26 15.4
3 2 -8 22.5 11.2
3 2 -8 51.29 15.8
-3 -2 8 48.3 15.6
-3 -2 8 40.7 15.7
2 2 -8 45.3 9
2 2 -8 55.59 13.3
2 2 -8 51.89 9.5
2 2 -8 42.1 12.6
-2 -2 8 33.1 13.3
-2 -2 8 58.89 13.2
1 2 -8 443.66 24.3
1 2 -8 417.46 20.5
1 2 -8 420.36 24.1
1 2 -8 458.35 18.4
-1 -2 8 447.66 24.4
-1 -2 8 439.16 24
0 2 -8 1335.87 49
0 2 -8 1375.96 48.8
0 -2 8 1395.96 46
0 -2 8 1419.46 49.4
0 -2 8 1392.16 49.3
-1 2 -8 1057.29 40
-1 2 -8 1049 40.6
1 -2 8 1091.39 39.2
1 -2 8 1116.09 41.1
1 -2 8 1114.59 40.8
-2 2 -8 31.7 10.9
2 -2 8 37.3 11.1
2 -2 8 34 10.4
2 -2 8 40.3 10.6
3 -2 8 38.4 13.1
3 -2 8 44.9 13.7
3 -2 8 72.99 13.2
3 -2 8 47.1 6.3
-4 2 -8 486.85 31.1
4 -2 8 416.06 30.1
4 -2 8 480.25 31.9
4 -2 8 474.95 34.5
4 1 -8 168.38 23.7
-4 -1 8 180.28 23.4
-4 -1 8 213.28 24.3
3 1 -8 112.89 16.3
3 1 -8 96.69 12
3 1 -8 111.59 17.8
3 1 -8 115.39 17.7
-3 -1 8 85.69 16.7
-3 -1 8 91.99 16.8
2 1 -8 603.34 31.2
2 1 -8 641.44 25
2 1 -8 643.14 27.7
-2 -1 8 647.64 31
-2 -1 8 602.84 30.9
1 1 -8 183.18 16.5
1 1 -8 183.28 11.5
1 1 -8 200.08 13.4
1 1 -8 173.98 17.7
-1 -1 8 198.48 16.9
-1 -1 8 198.88 17.5
0 1 -8 1586.04 53.59
0 1 -8 1580.14 51.39
0 1 -8 1556.84 50.29
0 1 -8 1587.44 53.69
0 -1 8 1595.14 49.9
0 -1 8 1630.54 53.99
-1 1 -8 163.88 14.9
-1 1 -8 156.98 13.5
1 -1 8 170.58 14.2
1 -1 8 178.88 12.3
-2 1 -8 2838.22 89.49
-2 1 -8 2805.32 89.69
2 -1 8 2839.32 89.79
2 -1 8 2805.82 89.59
2 -1 8 2757.92 89.19
-3 1 -8 189.58 19.4
-3 1 -8 212.08 17.3
3 -1 8 232.98 19.1
3 -1 8 195.98 18.6
3 -1 8 156.78 19.2
-4 1 -8 664.23 33.3
4 -1 8 605.24 34.3
4 -1 8 621.54 33.2
4 -1 8 620.44 32.2
-5 1 -8 8.3 17.8
-5 1 -8 17.3 31.8
5 -1 8 -4.7 16.7
5 -1 8 17.9 20.9
5 -1 8 10.6 18.6
4 0 -8 75.49 21.6
-4 0 8 90.69 21
-4 0 8 100.69 21.5
3 0 -8 113.19 19.6
-3 0 8 86.39 16.5
-3 0 8 73.99 19
2 0 -8 609.94 23.6
2 0 -8 669.43 29.6
2 0 -8 649.93 31.5
-2 0 8 641.34 31.4
-2 0 8 669.23 31.3
1 0 -8 359.36 19.3
1 0 -8 376.46 20.2
1 0 -8 368.06 21.2
-1 0 8 354.36 20.6
0 0 -8 1576.94 52.99
0 0 -8 1623.44 50.89
0 0 -8 1595.14 52.69
0 0 -8 1644.74 53.39
0 0 8 1584.64 53.29
-1 0 -8 1187.28 41
-1 0 -8 1219.88 41.6
1 0 8 1230.58 41.5
1 0 8 1212.78 39.3
1 0 8 1242.78 41.6
-2 0 -8 1794.12 57.99
-2 0 -8 1759.62 58.09
2 0 8 1750.12 57.89
2 0 8 1797.32 58.19
-3 0 -8 599.34 27.6
3 0 8 658.53 29.3
3 0 8 671.43 28.4
3 0 8 660.33 28
-4 0 -8 281.97 21.6
-4 0 -8 320.57 23.3
4 0 8 395.26 26.9
4 0 8 420.36 25.8
4 0 8 413.86 24.7
-5 0 -8 239.98 28.6
-5 0 -8 217.18 21.9
-5 0 -8 178.08 25.3
5 0 8 202.38 22.5
5 0 8 271.27 27.7
5 0 8 298.27 31.4
4 -1 -8 89.89 16.3
4 -1 -8 75.89 21.4
4 -1 -8 103.09 21.8
-4 1 8 104.19 21.7
-4 1 8 89.89 21.3
3 -1 -8 313.27 20.3
3 -1 -8 378.66 28.7
-3 1 8 315.47 32.5
-3 1 8 347.27 27.6
2 -1 -8 541.65 30
2 -1 -8 568.54 21.7
-2 1 8 625.74 29.1
-2 1 8 598.54 32.9
1 -1 -8 268.07 18.4
1 -1 -8 278.27 18.3
1 -1 -8 289.37 18.4
-1 1 8 284.77 18.1
0 -1 -8 664.13 24.8
0 -1 -8 632.94 25.9
0 -1 -8 606.04 22.6
0 -1 -8 620.04 24.6
0 1 8 633.24 24.6
0 1 8 622.74 24.5
-1 -1 -8 2009.4 61.09
-1 -1 -8 1845.82 60.19
-1 -1 -8 1954.2 60.49
-1 -1 -8 1847.92 61.89
1 1 8 1937.81 60.49
1 1 8 1901.91 60.39
1 1 8 1926.61 58.69
-2 -1 -8 84.39 9.7
-2 -1 -8 93.79 11.6
-2 -1 -8 85.59 9.5
2 1 8 85.49 9.8
2 1 8 88.79 10
-3 -1 -8 1336.57 49.8
-3 -1 -8 1358.46 45.6
-3 -1 -8 1393.86 46.1
3 1 8 1307.27 45.8
3 1 8 1324.77 42.2
3 1 8 1331.17 45.8
-4 -1 -8 181.68 19.8
-4 -1 -8 153.08 17.7
4 1 8 174.18 18.5
4 1 8 179.38 18.8
-5 -1 -8 554.84 32
-5 -1 -8 493.55 37.6
-5 -1 -8 578.64 32.8
5 1 8 510.85 32
5 1 8 546.65 32
3 -2 -8 113.19 16.5
3 -2 -8 96.39 12.7
3 -2 -8 71.99 16.7
-3 2 8 59.29 16.4
-3 2 8 98.59 18.2
2 -2 -8 125.29 15.2
2 -2 -8 112.89 11.8
2 -2 -8 111.19 14.1
2 -2 -8 113.79 18.1
-2 2 8 85.09 14
-2 2 8 89.49 13.9
1 -2 -8 1547.25 55.89
1 -2 -8 1571.14 53.29
-1 2 8 1549.34 53.89
-1 2 8 1563.54 52.99
0 -2 -8 465.95 19.5
0 -2 -8 477.35 19.5
0 -2 -8 473.25 22.4
0 2 8 441.66 19.6
0 2 8 442.96 19.3
-1 -2 -8 1473.45 46.6
-1 -2 -8 1478.95 48.4
-1 -2 -8 1455.15 49.99
1 2 8 1539.75 46.7
1 2 8 1458.25 46.9
1 2 8 1479.55 45.8
-2 -2 -8 -14.3 7.4
-2 -2 -8 2.8 3.8
2 2 8 -0.5 5.2
2 2 8 0.1 3.9
-3 -2 -8 800.42 27.8
-3 -2 -8 762.52 33.1
-3 -2 -8 767.62 27.1
3 2 8 789.52 26.3
3 2 8 691.23 27.1
3 2 8 732.13 27.6
-4 -2 -8 416.06 22.3
-4 -2 -8 389.86 27.5
-4 -2 -8 400.56 21.3
4 2 8 408.26 21.8
4 2 8 425.06 22.7
-5 -2 -8 177.98 18.1
-5 -2 -8 209.78 22.2
5 2 8 185.68 22.5
5 2 8 189.58 22.4
3 -3 -8 172.48 20.5
3 -3 -8 177.28 21.5
3 -3 -8 168.38 19.9
-3 3 8 170.28 20.6
2 -3 -8 126.69 15.7
2 -3 -8 105.69 11.2
2 -3 -8 127.29 21.1
-2 3 8 114.89 14.3
-2 3 8 123.39 15.4
1 -3 -8 942.81 36.6
1 -3 -8 911.21 40.5
1 -3 -8 920.81 31.9
1 -3 -8 949.4 35.7
-1 3 8 947.81 35.7
-1 3 8 1008.1 37.2
0 -3 -8 217.08 12.5
0 -3 -8 192.18 12
0 -3 -8 184.88 17.6
0 3 8 189.08 12.3
0 3 8 199.68 13
-1 -3 -8 2044.3 60.09
-1 -3 -8 2001.2 60.09
-1 -3 -8 1934.71 65.89
-1 -3 -8 2015 64.49
1 3 8 1999.6 60.69
1 3 8 2021.4 61.89
1 3 8 2020.5 60.79
-2 -3 -8 313.57 18.5
-2 -3 -8 320.77 18.6
2 3 8 329.07 10.7
2 3 8 332.37 16.1
2 3 8 318.87 10.8
-3 -3 -8 195.28 10.5
-3 -3 -8 193.68 9.6
-3 -3 -8 185.18 18.4
3 3 8 190.98 10.7
3 3 8 185.78 11
3 3 8 186.58 12.4
-4 -3 -8 409.86 20.1
-4 -3 -8 423.06 19.3
-4 -3 -8 366.26 27
4 3 8 372.76 19.5
4 3 8 399.96 20.2
-5 -3 -8 61.79 10.9
-5 -3 -8 3.1 11.5
5 3 8 10.6 11.4
5 3 8 25.7 11.6
3 -4 -8 345.37 28.9
3 -4 -8 310.17 32.3
3 -4 -8 369.26 32
-3 4 8 335.97 29.5
-3 4 8 310.27 30.9
-3 4 8 322.97 29.7
2 -4 -8 457.85 25.5
2 -4 -8 325.47 34.3
2 -4 -8 497.65 28.3
2 -4 -8 459.65 28.5
-2 4 8 430.36 27.4
-2 4 8 430.66 29
-2 4 8 516.85 27
1 -4 -8 377.36 22.4
1 -4 -8 394.96 20
1 -4 -8 337.47 27.8
-1 4 8 429.86 26.6
-1 4 8 390.26 20.9
-1 4 8 388.56 22.6
0 -4 -8 1148.09 45.4
0 -4 -8 1142.29 38.6
0 4 8 1212.98 38.6
0 4 8 1183.28 40.1
0 4 8 1182.98 39
-1 -4 -8 157.28 13.8
-1 -4 -8 160.38 16.2
1 4 8 157.68 11.7
1 4 8 132.49 4.7
1 4 8 147.59 4.9
1 4 8 124.19 12.1
-2 -4 -8 3904.41 122.29
-2 -4 -8 3763.82 121.99
2 4 8 3948.1 120.69
2 4 8 4037.7 120.79
-3 -4 -8 805.42 35.2
3 4 8 833.52 30.8
-4 -4 -8 399.46 28.2
-4 -4 -8 422.56 17
-4 -4 -8 393.26 17.6
4 4 8 492.75 18.9
4 4 8 395.56 18.3
-5 -4 -8 24.7 10.5
-5 -4 -8 14.8 18.5
5 4 8 37.6 11.1
5 4 8 19.2 10.1
2 -5 -8 358.76 28.1
2 -5 -8 429.86 28.5
2 -5 -8 384.06 27.9
2 -5 -8 416.06 35.9
-2 5 8 414.26 28.2
-2 5 8 384.46 29.4
-2 5 8 383.76 27.2
1 -5 -8 24.5 10.9
1 -5 -8 11.3 9.6
1 -5 -8 15.2 17.5
1 -5 -8 28 10.4
-1 5 8 14.8 9.2
-1 5 8 51.29 11.5
-1 5 8 36.2 11.1
0 -5 -8 1115.49 38.4
0 -5 -8 1105.69 41.6
0 -5 -8 1112.59 46.5
0 5 8 1108.19 38.5
0 5 8 1134.19 40
0 5 8 1333.17 40.1
-1 -5 -8 4.6 11.5
1 5 8 2.7 7.3
1 5 8 1.6 9.3
-2 -5 -8 196.78 18.8
-2 -5 -8 249.28 18.6
2 5 8 241.68 16.9
2 5 8 197.08 16.5
-3 -5 -8 54.39 14.1
3 5 8 77.19 12.7
3 5 8 77.69 10.6
-4 -5 -8 379.46 28.6
4 5 8 479.05 15.6
4 5 8 391.26 15.3
-5 -5 -8 154.88 22.8
-5 -5 -8 161.08 14.2
-5 -5 -8 173.38 15.5
5 5 8 196.48 22.7
2 -6 -8 295.67 29.3
2 -6 -8 286.17 31.6
2 -6 -8 323.37 29.8
2 -6 -8 299.67 33.1
-2 6 8 301.47 28.1
-2 6 8 329.17 31.1
1 -6 -8 529.55 24.9
1 -6 -8 405.26 29.2
1 -6 -8 428.26 26.4
1 -6 -8 442.86 34.7
-1 6 8 428.26 28.7
-1 6 8 408.66 26.8
-1 6 8 377.66 24.2
0 -6 -8 550.14 22.7
0 -6 -8 493.25 32.4
0 -6 -8 561.44 29.1
0 6 8 535.05 24.6
0 6 8 529.85 22.9
0 6 8 551.54 25.2
-1 -6 -8 420.56 26.4
1 6 8 403.36 14.6
1 6 8 425.36 14.4
1 6 8 457.95 25.3
1 6 8 452.55 22.3
-2 -6 -8 470.25 26.4
2 6 8 477.15 26.1
2 6 8 565.14 26.1
-3 -6 -8 965.1 42.2
3 6 8 1021.6 39.1
3 6 8 955.1 41.2
-4 -6 -8 38.9 17.5
4 6 8 64.99 17.2
-5 -6 -8 197.98 24.9
5 6 8 218.28 26.5
5 6 8 205.98 13.9
1 -7 -8 616.64 41.6
1 -7 -8 648.24 34.9
1 -7 -8 710.53 33.8
1 -7 -8 763.62 48.6
-1 7 8 696.23 35.8
-1 7 8 714.03 38.9
-1 7 8 666.63 32.9
0 -7 -8 398.06 33.1
0 -7 -8 365.16 34.9
0 -7 -8 395.56 20.2
0 7 8 353.26 20.4
0 7 8 428.26 28.9
0 7 8 391.06 25
0 7 8 332.97 22.5
-1 -7 -8 665.33 35.1
1 7 8 733.73 32.9
1 7 8 725.63 35.2
1 7 8 675.93 23.8
-2 -7 -8 115.89 17.2
2 7 8 124.79 15.9
2 7 8 130.19 18.6
-3 -7 -8 298.27 27.6
3 7 8 328.07 25.3
3 7 8 318.87 27.6
-4 -7 -8 12.1 17.6
4 7 8 -5.9 16.7
-1 -8 -8 507.65 34
1 8 8 500.65 21.5
1 8 8 501.15 31.7
1 8 8 476.25 20.3
1 8 8 517.35 33.9
-2 -8 -8 18.7 19.4
2 8 8 37.8 16.6
2 8 8 26.1 16.3
3 8 8 440.96 32.2
3 8 8 369.16 33.6
2 6 -9 37.9 20.9
2 6 -9 81.59 22.3
2 6 -9 64.69 21.4
-2 -6 9 29.5 20.1
-2 -6 9 37 22.3
1 6 -9 98.39 20.9
1 6 -9 127.59 21.8
1 6 -9 175.18 23.1
-1 -6 9 92.89 20.4
-1 -6 9 82.59 20.5
-1 -6 9 71.09 17.9
0 6 -9 441.16 36.2
0 6 -9 509.55 37.3
0 6 -9 515.35 36.4
0 -6 9 515.55 36.3
0 -6 9 408.46 34.9
0 -6 9 480.25 34.7
-1 6 -9 106.69 23.3
-1 6 -9 117.19 22.2
-1 6 -9 105.49 22
1 -6 9 87.69 16.8
1 -6 9 104.59 21.7
1 -6 9 74.69 22.1
1 -6 9 46 18.9
3 5 -9 -10.6 19.3
3 5 -9 -2.8 19.6
3 5 -9 11.9 18.3
-3 -5 9 -11.8 19.4
-3 -5 9 12.9 21
2 5 -9 482.05 35.3
2 5 -9 444.96 33
2 5 -9 465.75 36
-2 -5 9 502.55 36.2
-2 -5 9 465.35 35.6
1 5 -9 5.8 15.1
1 5 -9 9.1 15.6
1 5 -9 20.3 15.8
-1 -5 9 15.1 15.9
-1 -5 9 2.1 12.8
-1 -5 9 -12.2 14.9
0 5 -9 530.35 34
0 5 -9 463.35 32.5
0 5 -9 460.85 31.6
0 -5 9 472.25 31.6
0 -5 9 463.85 30
0 -5 9 485.95 32.4
-1 5 -9 3.4 15.2
-1 5 -9 20.1 16.1
-1 5 -9 12.8 16.6
1 -5 9 0.3 15.4
1 -5 9 15.7 15.1
1 -5 9 -29.5 15.1
-2 5 -9 859.91 44.2
-2 5 -9 817.62 43.5
2 -5 9 840.42 35.6
2 -5 9 773.32 44.1
2 -5 9 795.52 43.8
2 -5 9 823.02 44.1
3 4 -9 -2.6 14.8
3 4 -9 14.8 18.1
3 4 -9 16.4 17.8
3 4 -9 3.1 6.9
-3 -4 9 13.1 18.7
-3 -4 9 2 17.1
2 4 -9 472.65 32.2
2 4 -9 466.65 29.7
2 4 -9 428.06 32.7
-2 -4 9 450.15 32.8
-2 -4 9 458.35 32.1
1 4 -9 12.9 13.7
1 4 -9 -5.2 11.9
1 4 -9 -10.3 12.5
-1 -4 9 3.6 13.1
0 4 -9 655.03 33.9
0 4 -9 642.64 33.4
0 -4 9 674.73 31.2
0 -4 9 660.33 33.6
0 -4 9 669.13 34.2
-1 4 -9 167.88 18.1
-1 4 -9 149.49 21.9
1 -4 9 200.08 22.9
1 -4 9 146.19 18.2
1 -4 9 185.78 22.4
-2 4 -9 969.6 44.6
-2 4 -9 989.5 44.6
2 -4 9 999.3 44.9
2 -4 9 925.81 37.2
2 -4 9 976.4 44.9
2 -4 9 979.9 44.1
-3 4 -9 51.69 19.7
-3 4 -9 40.4 18.6
3 -4 9 48.6 18.8
3 -4 9 76.09 18.9
3 -4 9 60.79 20.6
3 3 -9 82.49 18.5
3 3 -9 98.79 12.1
3 3 -9 71.19 19.4
3 3 -9 81.29 14.4
-3 -3 9 81.59 18.6
-3 -3 9 73.39 19.2
2 3 -9 75.89 19.7
2 3 -9 98.59 16.6
2 3 -9 103.29 11.5
2 3 -9 94.59 13.4
-2 -3 9 112.19 17.5
-2 -3 9 73.99 16.4
1 3 -9 283.07 21.1
1 3 -9 271.67 24.5
1 3 -9 314.77 23.8
-1 -3 9 331.07 24.4
0 3 -9 619.84 30.9
0 3 -9 597.14 28.8
0 3 -9 599.24 30.7
0 -3 9 655.93 27.7
0 -3 9 647.24 31.5
0 -3 9 621.74 31.7
-1 3 -9 470.95 27.7
-1 3 -9 485.35 24.4
1 -3 9 455.15 25.4
1 -3 9 385.46 26.3
1 -3 9 459.55 26.1
-2 3 -9 40.5 13.7
2 -3 9 59.79 13.8
2 -3 9 40.3 15.4
2 -3 9 46.3 14.2
-3 3 -9 425.76 31.6
-3 3 -9 375.46 28.6
3 -3 9 393.16 28.7
3 -3 9 378.46 18.7
3 -3 9 425.96 31.2
3 -3 9 372.66 29.9
4 2 -9 18.4 14.3
4 2 -9 -34.1 14
4 2 -9 -15.9 20
4 2 -9 12.1 21
-4 -2 9 -34.3 19.2
-4 -2 9 14.4 21.3
3 2 -9 260.57 29.1
3 2 -9 244.48 20.3
3 2 -9 231.78 28
3 2 -9 316.37 21.2
-3 -2 9 198.38 22.9
-3 -2 9 198.78 23
2 2 -9 6.1 13.5
2 2 -9 -1.2 8.6
2 2 -9 -16.1 11.8
2 2 -9 -5.8 8.5
-2 -2 9 0.3 12.2
1 2 -9 2147.99 79.09
1 2 -9 2075.69 67.99
1 2 -9 2151.48 67.09
-1 -2 9 2120.09 72.29
-1 -2 9 2051.89 73.09
0 2 -9 15.8 9.9
0 2 -9 4.9 7.4
0 -2 9 9.9 6.6
0 -2 9 -0.9 9.3
0 -2 9 0.7 9.8
-1 2 -9 1701.33 58.59
1 -2 9 1693.23 58.49
1 -2 9 1688.53 56.39
1 -2 9 1601.04 57.99
2 -2 9 24.5 11
2 -2 9 17.4 11.1
2 -2 9 13.8 10.4
-3 2 -9 1184.18 48.1
3 -2 9 1186.08 48.4
3 -2 9 1194.98 49
3 -2 9 1152.68 39.2
3 -2 9 1218.38 47.4
-4 2 -9 78.79 21.8
-4 2 -9 30.4 16.5
4 -2 9 60.19 17.9
4 -2 9 60.39 19.1
4 -2 9 39.7 16.8
4 1 -9 7.7 13.1
4 1 -9 -1.4 19.2
4 1 -9 -43 19.4
-4 -1 9 -44.5 17.8
-4 -1 9 -51.19 19.2
3 1 -9 454.05 28.3
3 1 -9 488.85 32.6
3 1 -9 449.66 23.9
3 1 -9 473.15 32.9
-3 -1 9 482.35 32.5
-3 -1 9 426.56 31.6
2 1 -9 3.3 7
2 1 -9 0.4 9.6
-2 -1 9 13.3 12.3
-2 -1 9 13.7 12.5
1 1 -9 413.56 17.3
1 1 -9 440.56 24.7
1 1 -9 452.25 20.9
-1 -1 9 468.55 24.8
-1 -1 9 448.16 24.4
0 1 -9 320.77 19.3
0 1 -9 289.67 18.5
0 1 -9 307.37 16.6
0 -1 9 301.67 13.5
0 -1 9 297.77 18.8
0 -1 9 292.47 18.8
-1 1 -9 1025.3 37.1
-1 1 -9 1014.9 37.8
1 -1 9 957.4 34.5
1 -1 9 950.5 37.1
1 -1 9 974.5 37.4
-2 1 -9 812.02 32.9
-2 1 -9 725.63 35.7
2 -1 9 835.52 33.6
2 -1 9 828.82 32.9
2 -1 9 824.72 32.6
-3 1 -9 473.05 26.6
3 -1 9 460.45 27.8
3 -1 9 447.76 25.2
3 -1 9 461.15 25.7
-4 1 -9 335.57 26.6
4 -1 9 316.47 28.6
4 -1 9 349.67 26.3
4 -1 9 375.56 29.4
4 0 -9 33.7 13.6
4 0 -9 -8.7 29.6
-4 0 9 42.7 21.2
-4 0 9 8.5 20.9
3 0 -9 75.49 17.2
3 0 -9 84.59 10.7
3 0 -9 80.89 19
-3 0 9 100.49 17.9
-3 0 9 74.99 17.2
2 0 -9 468.35 24.4
2 0 -9 352.46 16
2 0 -9 349.37 24.3
-2 0 9 364.16 25.2
-2 0 9 372.66 26.3
1 0 -9 556.14 26.1
1 0 -9 588.64 28.3
1 0 -9 584.04 27.6
-1 0 9 585.44 28.3
-1 0 9 579.54 27.6
0 0 -9 268.17 15.3
0 0 -9 314.37 17.7
0 0 -9 282.07 17.1
0 0 -9 309.57 17.9
0 0 9 314.47 17.9
-1 0 -9 847.22 32.3
-1 0 -9 881.41 32.1
-1 0 -9 892.01 31.7
1 0 9 838.82 29.2
1 0 9 853.31 32.1
-2 0 -9 757.32 29.3
-2 0 -9 757.32 30
2 0 9 733.63 29.2
2 0 9 780.22 30.1
2 0 9 763.52 29.5
-3 0 -9 213.28 17.2
-3 0 -9 202.78 17.7
3 0 9 189.18 18.1
3 0 9 182.68 17.8
-4 0 -9 292.17 23.7
-4 0 -9 255.77 22.9
4 0 9 297.57 25.2
4 0 9 294.27 24.6
4 0 9 309.57 23.8
-5 0 -9 108.99 19.3
-5 0 -9 152.28 20.5
-5 0 -9 81.79 23.7
5 0 9 125.49 18.9
5 0 9 133.39 20.6
5 0 9 117.69 23.1
3 -1 -9 67.09 10.4
3 -1 -9 71.89 17
3 -1 -9 63.89 20.9
-3 1 9 80.79 18.3
-3 1 9 72.59 17.4
2 -1 -9 272.27 12.2
2 -1 -9 256.67 24.7
2 -1 -9 258.57 12.3
-2 1 9 282.67 23
-2 1 9 270.17 22.5
1 -1 -9 32.8 9.8
1 -1 -9 41.7 10.3
1 -1 -9 45.5 11.8
-1 1 9 35.5 10.6
-1 1 9 41.8 10.2
0 -1 -9 2190.08 68.49
0 -1 -9 2062.09 68.99
0 -1 -9 2155.58 68.39
0 1 9 2056.39 67.99
-1 -1 -9 -2.6 5.6
-1 -1 -9 1.7 5.8
-1 -1 -9 0.9 6.4
-1 -1 -9 5.3 8.3
1 1 9 -5.6 5.5
1 1 9 -4.3 5.6
1 1 9 1.7 3.5
-2 -1 -9 408.06 18.4
-2 -1 -9 407.86 18.6
-2 -1 -9 429.76 22.5
2 1 9 422.66 18.9
2 1 9 424.56 18.9
-3 -1 -9 144.19 16.7
-3 -1 -9 123.29 13.8
-3 -1 -9 123.59 14.2
3 1 9 122.99 13.6
3 1 9 144.99 14.3
-4 -1 -9 422.26 30.9
-4 -1 -9 467.55 25.3
4 1 9 476.35 25.3
4 1 9 434.96 24.6
-5 -1 -9 482.45 30.1
-5 -1 -9 374.76 34.6
-5 -1 -9 372.36 29.6
5 1 9 403.66 29.4
5 1 9 376.86 30
5 1 9 375.86 34
3 -2 -9 43.9 10.8
3 -2 -9 40.3 21.1
3 -2 -9 65.49 17.4
3 -2 -9 17.3 15.8
-3 2 9 33.2 17.1
-3 2 9 34.1 16.8
2 -2 -9 973.6 42.3
2 -2 -9 1015.2 34.5
2 -2 -9 1047.4 46.1
-2 2 9 1052.69 42.3
-2 2 9 1071.19 43.2
1 -2 -9 260.97 18.5
1 -2 -9 220.48 18.5
1 -2 -9 213.48 20.9
-1 2 9 229.08 19.1
-1 2 9 246.48 18.4
0 -2 -9 1291.47 44.4
0 -2 -9 1307.57 47.2
0 -2 -9 1360.16 44.6
0 2 9 1307.27 44.4
0 2 9 1290.87 44.3
-1 -2 -9 162.58 11
-1 -2 -9 178.88 12.9
-1 -2 -9 174.58 15.3
1 2 9 167.68 8.3
1 2 9 192.68 11.5
1 2 9 183.38 11.1
-2 -2 -9 1072.49 39.3
-2 -2 -9 1073.29 34.4
2 2 9 1023.9 34.7
2 2 9 1031.2 34.6
-3 -2 -9 947.41 32.8
-3 -2 -9 961.5 33.2
-3 -2 -9 888.71 38.6
3 2 9 891.71 32.1
3 2 9 900.11 33.1
3 2 9 1060.29 33
-4 -2 -9 306.77 26.9
-4 -2 -9 345.57 20.5
-4 -2 -9 320.67 19.3
4 2 9 310.17 12.7
4 2 9 317.97 19.6
4 2 9 328.37 20.5
-5 -2 -9 104.29 14.9
-5 -2 -9 97.49 22.2
-5 -2 -9 128.69 16.6
5 2 9 128.39 16.3
5 2 9 119.69 15.9
3 -3 -9 152.58 15.8
3 -3 -9 186.78 22.7
3 -3 -9 160.98 21.4
3 -3 -9 139.09 26.4
-3 3 9 177.28 21.3
-3 3 9 154.38 21.5
2 -3 -9 482.25 22.2
2 -3 -9 474.15 30
2 -3 -9 539.55 28.4
2 -3 -9 411.26 33.9
-2 3 9 511.65 28.5
-2 3 9 518.05 29.5
1 -3 -9 231.78 25.5
1 -3 -9 327.47 25.8
-1 3 9 325.97 19.8
-1 3 9 334.57 20.9
0 -3 -9 496.15 24.3
0 -3 -9 478.75 20.2
0 -3 -9 493.95 20.8
0 3 9 487.75 20.6
0 3 9 442.66 20.3
-1 -3 -9 1492.65 49.3
-1 -3 -9 1467.55 51.59
-1 -3 -9 1455.85 45.2
-1 -3 -9 1461.05 45.1
1 3 9 1531.95 45.9
1 3 9 1421.06 45.8
1 3 9 1432.46 45.7
-2 -3 -9 887.71 35.7
-2 -3 -9 889.41 35.5
2 3 9 933.51 28.8
2 3 9 915.71 28.5
2 3 9 954.8 34
-3 -3 -9 440.56 25.4
-3 -3 -9 451.65 16.3
-3 -3 -9 435.66 16.8
3 3 9 454.65 17.3
3 3 9 449.56 19.9
3 3 9 456.05 17.6
-4 -3 -9 4.5 6.6
-4 -3 -9 3.9 14.8
4 3 9 -4.7 7.1
4 3 9 -4.5 7.3
4 3 9 -3.7 5.7
-5 -3 -9 482.25 25.4
-5 -3 -9 496.65 27
-5 -3 -9 434.76 36.1
5 3 9 425.16 26.7
5 3 9 425.26 26.2
2 -4 -9 -16.9 12.1
2 -4 -9 -0.9 12.7
2 -4 -9 12.8 10.2
2 -4 -9 -13.9 18.5
-2 4 9 -8.9 12.8
-2 4 9 8.3 12.9
-2 4 9 12.5 13.7
1 -4 -9 192.18 22.4
1 -4 -9 189.88 17.6
1 -4 -9 215.78 19.3
1 -4 -9 200.58 14.3
-1 4 9 162.58 18.8
-1 4 9 218.58 17.4
0 -4 -9 7.8 10.9
0 -4 -9 21.3 6.2
0 4 9 -7.9 7
0 4 9 23 6.6
-1 -4 -9 591.04 25.5
-1 -4 -9 574.74 28.5
1 4 9 627.24 22.6
1 4 9 605.94 18.7
1 4 9 591.34 18.8
1 4 9 496.25 37.7
-2 -4 -9 611.24 27.3
-2 -4 -9 567.64 27.8
2 4 9 584.54 24.8
2 4 9 613.04 26.5
-3 -4 -9 297.77 23.9
3 4 9 334.57 18.3
-4 -4 -9 226.18 11.5
-4 -4 -9 214.38 10.5
-4 -4 -9 214.88 24.9
4 4 9 232.68 12.8
4 4 9 243.08 15.6
-5 -4 -9 178.68 24.5
5 4 9 230.08 20
5 4 9 211.58 18.6
2 -5 -9 -0.9 15.5
2 -5 -9 23.4 14.3
2 -5 -9 32.3 13.7
2 -5 -9 41.2 23.2
-2 5 9 27.5 15.1
-2 5 9 9.9 15.3
-2 5 9 42.3 15.7
1 -5 -9 1408.46 51.29
1 -5 -9 1348.67 58.19
1 -5 -9 1331.47 49.2
-1 5 9 1389.56 51.59
-1 5 9 1392.96 49.4
-1 5 9 1434.86 52.79
0 -5 -9 61.79 7.7
0 -5 -9 67.79 17.3
0 5 9 55.59 7.8
0 5 9 42.2 7.9
0 5 9 54.49 9
-1 -5 -9 550.04 29.4
1 5 9 503.95 26.6
1 5 9 569.34 23.3
-2 -5 -9 37.1 12
-2 -5 -9 71.49 14.1
2 5 9 55.09 11
2 5 9 62.09 10
-3 -5 -9 235.48 22.8
3 5 9 265.17 20.9
3 5 9 276.27 19.3
-4 -5 -9 475.25 31.6
4 5 9 487.65 23.7
-5 -5 -9 22.5 6.8
-5 -5 -9 30.8 19.2
5 5 9 13.9 8.1
1 -6 -9 152.48 17.5
1 -6 -9 154.68 16.5
1 -6 -9 137.49 14.7
1 -6 -9 143.39 24.5
-1 6 9 202.18 20.5
-1 6 9 130.99 16.1
-1 6 9 144.29 14.6
0 -6 -9 469.65 23.1
0 -6 -9 531.65 24.5
0 -6 -9 448.16 33.2
0 6 9 549.35 24.7
0 6 9 507.55 24.3
0 6 9 546.15 29.5
-1 -6 -9 234.48 25.6
1 6 9 314.57 18.9
1 6 9 267.37 23.7
-2 -6 -9 960.4 44.1
2 6 9 1099.29 43.4
2 6 9 1311.87 42.3
-3 -6 -9 -10.3 13.6
3 6 9 2 11.2
3 6 9 1.6 11.7
4 6 9 650.33 35.5
4 6 9 643.74 30.6
0 -7 -9 240.98 18.9
0 -7 -9 232.98 25.8
0 -7 -9 225.18 16.2
0 7 9 267.87 22.2
0 7 9 210.48 19.7
0 7 9 234.28 22.9
-1 -7 -9 23.7 17.1
1 7 9 -6.5 13.6
1 7 9 18.5 11.5
2 7 9 576.44 31.4
2 7 9 556.04 31.1
3 7 9 5.7 13.8
3 7 9 -4.3 12.7
-4 -7 -9 40.2 20
4 7 9 37.1 18
4 7 9 66.89 14.8
-1 -8 -9 358.46 31.2
1 8 9 329.67 28.1
-2 -8 -9 117.49 20.3
2 8 9 63.89 18.8
2 8 9 93.09 18.7
3 8 9 337.07 32
2 5 -10 -11 18.6
2 5 -10 25.5 19.9
2 5 -10 -1.7 16.3
-2 -5 10 4.7 18.8
-2 -5 10 21.2 19.6
1 5 -10 296.57 30.2
1 5 -10 238.08 23.3
1 5 -10 251.97 30.6
-1 -5 10 195.88 22.9
0 5 -10 17.2 16
0 5 -10 15.1 16.6
0 5 -10 25.3 17.7
0 -5 10 15.7 16.2
0 -5 10 -2.7 13.5
0 -5 10 23.9 16.8
-1 5 -10 599.84 40.6
-1 5 -10 605.14 38.6
-1 5 -10 644.44 39
1 -5 10 613.34 37.2
1 -5 10 657.43 39.5
1 -5 10 606.54 38.7
3 4 -10 181.88 25.4
3 4 -10 140.19 24.4
-3 -4 10 173.08 25.2
-3 -4 10 159.88 24.2
2 4 -10 235.78 26.2
2 4 -10 179.28 23.3
2 4 -10 234.18 24.3
-2 -4 10 245.08 29.4
-2 -4 10 223.38 24.6
1 4 -10 138.69 19.1
1 4 -10 140.19 16.7
1 4 -10 165.58 20.2
-1 -4 10 134.29 18.7
0 4 -10 658.63 36.4
0 4 -10 659.73 35.4
0 4 -10 714.73 35.3
0 -4 10 638.74 36.1
0 -4 10 659.93 32.9
0 -4 10 696.63 36.7
-1 4 -10 579.94 33.8
-1 4 -10 611.94 34.6
-1 4 -10 561.04 35.1
1 -4 10 615.64 32.2
1 -4 10 622.64 35.5
1 -4 10 691.73 35.7
-2 4 -10 557.24 34.8
-2 4 -10 532.25 35.2
2 -4 10 530.35 34.7
2 -4 10 508.85 33.7
2 -4 10 488.15 30.3
2 -4 10 489.75 34.2
3 3 -10 -0.1 18.7
3 3 -10 4.8 18.9
3 3 -10 -4.3 10.1
-3 -3 10 -8.1 17.4
-3 -3 10 16.9 18.1
2 3 -10 279.27 28.2
2 3 -10 346.77 23.5
2 3 -10 258.47 16.7
2 3 -10 274.57 28.6
-2 -3 10 281.97 28.3
-2 -3 10 280.07 28.4
1 3 -10 266.97 25.1
1 3 -10 257.27 20.4
1 3 -10 223.98 24.4
-1 -3 10 286.47 25
0 3 -10 108.59 15.6
0 -3 10 78.39 14.9
0 -3 10 108.89 16.1
0 -3 10 99.79 11.9
-1 3 -10 430.96 28.7
1 -3 10 433.46 26.8
1 -3 10 394.66 24.9
1 -3 10 431.16 27.7
-2 3 -10 666.93 35.9
-2 3 -10 688.83 33.9
2 -3 10 710.93 35.4
2 -3 10 673.53 34.9
2 -3 10 656.03 33.2
-3 3 -10 54.59 17.3
-3 3 -10 61.29 18.1
3 -3 10 84.29 18
3 -3 10 17.4 16
3 -3 10 79.29 19
3 2 -10 10.2 12.5
3 2 -10 43.1 19.3
3 2 -10 9.6 17.8
3 2 -10 17.6 11.2
-3 -2 10 21.7 18.7
-3 -2 10 24.6 17.4
2 2 -10 543.75 33.5
2 2 -10 583.54 26.9
2 2 -10 582.74 26.9
2 2 -10 663.53 35.2
-2 -2 10 686.53 35
-2 -2 10 601.84 34.2
1 2 -10 3.9 7.4
1 2 -10 22 8.8
-1 -2 10 5.3 12.5
-1 -2 10 22.8 12.4
0 2 -10 1252.37 45.7
0 2 -10 1520.25 49.99
0 -2 10 1308.17 49.9
0 -2 10 1306.87 44.9
0 -2 10 1304.07 50.29
-1 2 -10 39 10.9
1 -2 10 10 10.8
1 -2 10 20.9 9.3
1 -2 10 21.9 11.3
2 -2 10 692.93 33.1
2 -2 10 764.92 35
2 -2 10 772.92 34.4
-3 2 -10 125.79 16.7
-3 2 -10 140.69 17.8
3 -2 10 124.99 17.1
3 -2 10 136.59 17.6
3 -2 10 162.28 18.4
-4 2 -10 146.29 21
-4 2 -10 181.58 22.8
4 -2 10 160.88 21.5
4 -2 10 145.49 21.6
4 -2 10 183.88 23.5
3 1 -10 39.9 15.4
3 1 -10 13.7 9.7
3 1 -10 44.8 18.6
3 1 -10 30.4 18.4
-3 -1 10 37.3 17.5
-3 -1 10 11.3 17.1
2 1 -10 213.48 14.5
2 1 -10 198.18 19.5
2 1 -10 239.68 24.8
-2 -1 10 230.78 25.5
-2 -1 10 262.17 25.7
1 1 -10 324.47 23.7
1 1 -10 285.67 12.7
1 1 -10 303.47 19
-1 -1 10 311.67 22.5
-1 -1 10 314.97 23.7
0 1 -10 344.37 22.3
0 1 -10 356.96 21.8
0 1 -10 334.87 19.2
0 -1 10 366.36 22.4
-1 1 -10 382.66 22.9
-1 1 -10 363.46 21.9
1 -1 10 372.06 22.5
1 -1 10 391.66 18.4
1 -1 10 354.36 22.1
-2 1 -10 146.19 14.6
-2 1 -10 137.29 14.3
2 -1 10 135.09 14.1
2 -1 10 164.08 18.2
2 -1 10 129.39 13
-3 1 -10 548.55 29.7
-3 1 -10 550.04 27.9
3 -1 10 493.05 29
3 -1 10 523.05 29.6
3 -1 10 499.05 28.8
-4 1 -10 17.9 14
4 -1 10 7.7 16.9
4 -1 10 9.9 15.2
4 -1 10 1 14
3 0 -10 74.89 9.9
3 0 -10 99.49 19
3 0 -10 96.09 19.4
3 0 -10 82.19 10
3 0 -10 79.09 19
-3 0 10 73.39 18.3
-3 0 10 99.79 19.4
2 0 -10 1.3 11.9
-2 0 10 -10.7 12.9
-2 0 10 7 12.6
1 0 -10 383.16 22.7
1 0 -10 386.26 23.3
1 0 -10 397.96 24.7
-1 0 10 383.36 23.4
0 0 -10 6.4 5.2
0 0 -10 17.3 9
0 0 -10 9 8.8
0 0 -10 18.4 9.1
0 0 10 7.1 8.8
0 0 10 10.6 8.9
-1 0 -10 1532.65 49.99
-1 0 -10 1511.85 51.29
-1 0 -10 1482.75 50.59
1 0 10 1423.46 47.2
1 0 10 1451.85 50.99
1 0 10 1505.35 51.39
-2 0 -10 71.39 12.7
-2 0 -10 99.59 11.1
2 0 10 74.09 10.6
2 0 10 93.29 10.4
2 0 10 87.19 10.9
-3 0 -10 581.24 27.9
-3 0 -10 568.44 31.4
3 0 10 552.94 28.7
3 0 10 603.04 29.6
3 0 10 611.24 28.1
-4 0 -10 72.69 14
-4 0 -10 45 18.7
-4 0 -10 55.39 13.7
4 0 10 69.89 15.1
4 0 10 47.1 14
4 0 10 76.39 15.8
3 -1 -10 525.55 22.3
3 -1 -10 496.55 22.5
3 -1 -10 476.05 35.3
3 -1 -10 479.75 35.4
-3 1 10 531.15 34.8
-3 1 10 469.35 34.8
2 -1 -10 10.5 14.9
-2 1 10 -0.6 12.9
-2 1 10 -5.3 12.7
1 -1 -10 1468.45 51.99
1 -1 -10 1438.46 51.89
1 -1 -10 1448.56 51.49
-1 1 10 1452.25 51.09
-1 1 10 1191.28 63.79
0 -1 -10 102.19 11
0 -1 -10 106.39 8.8
0 -1 -10 101.49 13.1
0 -1 -10 103.59 11.4
0 1 10 85.09 10.6
0 1 10 95.99 11.2
-1 -1 -10 444.36 27.8
-1 -1 -10 515.55 21.7
-1 -1 -10 517.15 22.1
-1 -1 -10 536.35 24.2
1 1 10 511.45 17.5
-2 -1 -10 651.53 25.4
-2 -1 -10 626.34 28.8
-2 -1 -10 636.34 25.4
2 1 10 618.44 25.6
2 1 10 610.64 24.8
2 1 10 645.54 25.7
-3 -1 -10 1049.59 38.7
-3 -1 -10 1013 43.6
-3 -1 -10 1115.29 39.1
3 1 10 1038.2 38.8
3 1 10 1081.49 40.9
3 1 10 1069.89 39.1
-4 -1 -10 522.65 27.7
-4 -1 -10 487.35 33.7
-4 -1 -10 538.25 26.1
4 1 10 529.75 27.7
4 1 10 523.25 31.4
4 1 10 527.85 27.5
4 1 10 505.35 16.9
-5 -1 -10 2.4 14.8
-5 -1 -10 -4.2 15.9
-5 -1 -10 15.6 19.7
5 1 10 25.4 19.9
5 1 10 -2.3 14.6
5 1 10 27 15.8
3 -2 -10 91.09 19.1
3 -2 -10 28.3 21.5
3 -2 -10 47.2 10.1
-3 2 10 74.29 19
-3 2 10 73.19 19.5
2 -2 -10 37.9 13.6
2 -2 -10 33.6 18.4
-2 2 10 56.39 15.2
-2 2 10 40.8 14.3
1 -2 -10 77.19 12.4
1 -2 -10 64.19 15.8
1 -2 -10 72.69 12
-1 2 10 73.29 11.8
0 -2 -10 134.59 14.3
0 -2 -10 146.19 15.6
0 -2 -10 157.18 14.1
0 2 10 144.29 14.5
0 2 10 115.39 13.8
-1 -2 -10 32.4 5.9
-1 -2 -10 16.4 7.8
-1 -2 -10 28.5 10.4
-1 -2 -10 13.2 6
1 2 10 22.5 2.7
1 2 10 23.1 2.7
1 2 10 21 6.6
-2 -2 -10 792.22 28.7
-2 -2 -10 783.72 32.8
2 2 10 927.01 28.8
2 2 10 811.52 29.3
-3 -2 -10 -3.2 6.1
-3 -2 -10 -4 12
3 2 10 -3.8 6.6
3 2 10 1 6.6
3 2 10 2.6 6.4
-4 -2 -10 910.01 37.7
-4 -2 -10 833.42 41.5
-4 -2 -10 868.01 34.4
4 2 10 846.02 34.2
4 2 10 859.81 34.5
4 2 10 850.91 28.8
-5 -2 -10 6.1 20
-5 -2 -10 41 14.6
-5 -2 -10 7.2 12.7
5 2 10 5.9 12.4
5 2 10 26.6 13.6
2 -3 -10 275.17 25.9
2 -3 -10 253.67 13.6
2 -3 -10 235.88 26.9
-2 3 10 254.17 25.6
-2 3 10 268.27 26
1 -3 -10 13.2 9.4
1 -3 -10 19.6 15.8
-1 3 10 -2.2 9.7
-1 3 10 12.1 10.1
0 -3 -10 1263.57 43.9
0 -3 -10 1226.28 48.9
0 -3 -10 1284.27 43.4
0 3 10 1264.27 43.6
0 3 10 1320.97 44.5
-1 -3 -10 397.66 16
-1 -3 -10 409.96 16
-1 -3 -10 387.56 19.8
-1 -3 -10 440.06 24.2
1 3 10 412.86 14.5
1 3 10 425.56 16.6
1 3 10 413.06 17.1
-2 -3 -10 266.27 9
-2 -3 -10 267.97 19.4
-2 -3 -10 270.47 9
-2 -3 -10 264.47 18.4
2 3 10 266.57 11.4
2 3 10 252.47 10.8
2 3 10 250.17 16.5
-3 -3 -10 246.68 11.5
-3 -3 -10 238.28 11
-3 -3 -10 247.08 21.9
3 3 10 229.48 12.2
3 3 10 241.08 15.6
-4 -3 -10 235.18 26.5
-4 -3 -10 231.38 18.3
4 3 10 264.77 14.8
4 3 10 263.97 17
4 3 10 261.77 17.2
-5 -3 -10 84.69 22
-5 -3 -10 66.69 13.4
-5 -3 -10 109.59 13.2
5 3 10 77.79 12.8
5 3 10 98.99 14.3
2 -4 -10 235.98 28.7
2 -4 -10 242.18 18.1
2 -4 -10 232.08 26.5
2 -4 -10 264.97 25.9
-2 4 10 265.87 25.6
-2 4 10 255.87 28.7
-2 4 10 250.17 26.1
-1 4 10 16.9 10.1
-1 4 10 0.1 10.6
0 -4 -10 451.15 19.4
0 -4 -10 407.86 28.6
0 4 10 446.66 19.9
0 4 10 420.86 21
-1 -4 -10 1428.26 50.19
-1 -4 -10 1413.16 53.59
1 4 10 1520.75 46.1
1 4 10 1384.76 51.29
1 4 10 1442.46 44.4
1 4 10 1468.05 44.3
-2 -4 -10 683.83 30.7
-2 -4 -10 685.93 31.7
2 4 10 704.83 33
2 4 10 742.63 27.8
-3 -4 -10 634.34 32.3
3 4 10 672.33 28
-4 -4 -10 425.36 31.3
4 4 10 493.05 22.4
4 4 10 515.75 19
4 4 10 471.75 18.2
-5 -4 -10 476.65 36.7
-5 -4 -10 507.55 24.4
5 4 10 498.55 25.9
1 -5 -10 175.98 24.7
1 -5 -10 224.08 18.9
1 -5 -10 178.78 16.9
-1 5 10 173.78 19.1
-1 5 10 155.48 18.5
-1 5 10 167.28 17.3
0 -5 -10 127.79 12
0 -5 -10 112.19 13.7
0 5 10 117.69 18.3
0 5 10 126.99 14.6
-1 -5 -10 479.75 29.2
1 5 10 447.46 25.9
1 5 10 488.75 20.8
-2 -5 -10 202.28 21.5
-2 -5 -10 187.68 19.4
2 5 10 209.58 18.5
2 5 10 187.08 16.1
-3 -5 -10 892.01 41.1
3 5 10 980.7 38.8
3 5 10 984 37.9
-4 -5 -10 6 16.7
4 5 10 30.1 10.7
1 -6 -10 131.99 16.6
1 -6 -10 163.78 16.8
1 -6 -10 170.88 26.4
1 -6 -10 196.78 21.8
-1 6 10 176.68 20.8
-1 6 10 152.58 15.2
-1 6 10 182.58 18.5
0 -6 -10 1.3 17.8
0 6 10 15.9 9.6
0 6 10 12.2 8.6
0 6 10 12.8 14.6
-1 -6 -10 361.76 28.7
1 6 10 376.36 20.8
1 6 10 355.56 27
2 6 10 189.98 20.4
-3 -6 -10 424.56 29.4
3 6 10 452.75 25.6
3 6 10 424.06 26.6
-4 -6 -10 222.28 25.1
4 6 10 275.47 22.4
4 6 10 284.57 29.6
0 -7 -10 160.18 25.4
0 -7 -10 160.48 15.1
0 7 10 168.38 15.6
0 7 10 178.98 31.5
0 7 10 187.38 20
0 7 10 138.79 14.2
-1 -7 -10 430.26 32.7
1 7 10 433.06 30.4
1 7 10 448.56 25.7
-2 -7 -10 406.96 29.6
2 7 10 406.76 29.1
2 7 10 437.96 27.6
-3 -7 -10 19.6 17.8
3 7 10 38.8 14.6
3 7 10 42.2 15.3
1 5 -11 61.49 19.6
1 5 -11 101.89 22.5
1 5 -11 74.89 21.5
-1 -5 11 87.79 22
0 5 -11 111.89 20.7
0 5 -11 169.18 23.2
0 5 -11 124.99 21.8
0 -5 11 154.08 22.6
0 -5 11 91.19 19
0 -5 11 117.19 22.7
2 4 -11 82.29 22.2
2 4 -11 71.49 21.3
2 4 -11 78.29 16
-2 -4 11 74.09 21.1
-2 -4 11 71.59 21.3
1 4 -11 109.39 19.8
1 4 -11 117.99 16.7
1 4 -11 96.69 20.2
-1 -4 11 104.19 19.3
0 4 -11 10.3 15.7
0 4 -11 20.5 16.8
0 4 -11 -16.1 13.5
0 -4 11 4.7 15.2
0 -4 11 16 15.5
0 -4 11 13.5 15.2
-1 4 -11 818.32 42.8
-1 4 -11 930.61 44.7
1 -4 11 827.62 44
1 -4 11 908.01 40.7
1 -4 11 951.8 45.7
-2 4 -11 -7.3 17
-2 4 -11 18 18.1
2 -4 11 19.2 17.3
2 -4 11 28.3 18.6
2 -4 11 -12.4 16.8
2 3 -11 25.4 18.3
2 3 -11 64.39 10.6
2 3 -11 63.49 12.7
2 3 -11 52.09 19
-2 -3 11 35.5 18.3
-2 -3 11 39.9 18.6
1 3 -11 403.06 24.4
1 3 -11 405.86 30.1
1 3 -11 441.96 30.6
-1 -3 11 382.46 29.6
-1 -3 11 472.15 31.7
0 3 -11 17 13.3
0 3 -11 10.9 13.7
0 -3 11 -8.5 12.8
0 -3 11 6.6 13.7
0 -3 11 -7.3 9.2
-1 3 -11 384.26 27.1
-1 3 -11 334.27 29.2
1 -3 11 327.67 27.9
1 -3 11 330.57 26.3
1 -3 11 347.87 24.2
-2 3 -11 54.49 16
2 -3 11 41.7 15.7
2 -3 11 34.7 14.4
2 -3 11 20.9 15.7
-3 3 -11 404.06 35.5
-3 3 -11 387.96 38.4
3 -3 11 348.67 33.2
3 -3 11 320.17 31.3
3 -3 11 368.96 34
3 2 -11 -2 20.2
3 2 -11 9.4 11.8
3 2 -11 20.7 13.8
3 2 -11 -12.7 19.5
-3 -2 11 10.8 20.7
-3 -2 11 25.5 20.4
2 2 -11 201.48 22.3
2 2 -11 151.28 16.4
2 2 -11 196.48 21.6
2 2 -11 205.58 18.5
-2 -2 11 166.38 21.3
-2 -2 11 152.38 20.9
1 2 -11 173.88 14.9
1 2 -11 284.07 25.5
1 2 -11 193.88 16.5
-1 -2 11 194.78 20.5
-1 -2 11 165.88 19.1
0 -2 11 524.25 29.1
0 -2 11 508.35 22.3
1 -2 11 238.08 18.4
1 -2 11 253.87 22
1 -2 11 216.28 22.1
-2 2 -11 708.23 34.4
2 -2 11 774.42 36
2 -2 11 737.23 34.5
2 -2 11 713.13 36
-3 2 -11 23.6 15.4
-3 2 -11 36.7 15.5
3 -2 11 35.4 15.6
3 -2 11 58.79 16.5
3 1 -11 61.79 17.5
3 1 -11 62.09 10.3
3 1 -11 56.39 21
3 1 -11 49.3 20.7
-3 -1 11 33.6 19.4
-3 -1 11 73.49 20.8
2 1 -11 197.98 19.9
2 1 -11 222.08 25.7
2 1 -11 162.78 9.9
2 1 -11 209.98 21.6
-2 -1 11 179.28 20.2
-2 -1 11 165.88 20.5
1 1 -11 -5.7 9.7
-1 -1 11 11.4 12.6
-1 -1 11 7.1 12.3
0 1 -11 444.76 22.9
0 1 -11 419.86 19
0 1 -11 472.75 27
0 -1 11 478.45 27.1
-1 1 -11 19.6 11
1 -1 11 -1.3 10.3
1 -1 11 2.1 6.9
1 -1 11 8.7 10.8
-2 1 -11 962 39.5
2 -1 11 933.41 37.6
2 -1 11 946.81 39.7
2 -1 11 1014.6 39.6
-3 1 -11 88.59 15.4
-3 1 -11 86.39 15
3 -1 11 98.39 16.3
3 -1 11 105.89 15.5
3 -1 11 85.69 15.7
-4 1 -11 144.79 19.7
-4 1 -11 130.09 19.7
4 -1 11 124.39 20.6
4 -1 11 152.58 19.6
4 -1 11 142.39 20.6
3 0 -11 8.2 6.6
3 0 -11 -6.2 18
3 0 -11 -0.7 18.5
3 0 -11 -16.2 18.1
3 0 -11 3.7 6.7
-3 0 11 4.8 18.2
-3 0 11 -14.7 17.7
2 0 -11 242.98 27.6
2 0 -11 285.67 25.8
2 0 -11 262.17 23.4
-2 0 11 227.58 27.3
-2 0 11 272.07 28
1 0 -11 38.6 12.4
1 0 -11 56.19 13.1
-1 0 11 53.59 13.3
-1 0 11 23.8 12.5
0 0 -11 489.35 24.4
0 0 -11 516.35 19.3
0 0 -11 500.75 26.4
0 0 -11 539.65 26.7
0 0 11 498.05 26.7
0 0 11 478.95 29.8
-1 0 -11 579.34 25.9
-1 0 -11 543.45 24.2
-1 0 -11 563.64 26.7
1 0 11 536.05 26.8
1 0 11 540.55 26.3
1 0 11 535.95 20.5
-2 0 -11 894.31 35.3
-2 0 -11 892.31 34.9
-2 0 -11 847.72 36.9
2 0 11 900.31 35.6
2 0 11 854.71 35.8
2 0 11 839.52 32.9
-3 0 -11 360.06 23.5
-3 0 -11 356.26 27.2
3 0 11 382.76 24.1
3 0 11 357.26 24.4
3 0 11 364.46 23.7
-4 0 -11 979.3 41.9
-4 0 -11 958.6 42.3
4 0 11 936.51 45.1
4 0 11 941.01 42.8
4 0 11 930.81 29.5
4 0 11 970 42.4
3 -1 -11 5.4 17.8
3 -1 -11 -13.8 19.1
3 -1 -11 28.6 19.6
-3 1 11 23.4 19.5
-3 1 11 -8 17.8
2 -1 -11 138.29 18.4
2 -1 -11 137.79 20.6
-2 1 11 140.69 18.6
-2 1 11 100.99 17.6
1 -1 -11 229.38 23.4
1 -1 -11 275.77 23.1
-1 1 11 270.17 21.8
-1 1 11 250.77 22.3
0 -1 -11 174.78 10.7
0 -1 -11 140.89 16.3
0 -1 -11 175.88 16.7
0 -1 -11 160.88 17.1
0 1 11 172.58 17.4
0 1 11 150.28 16.6
-1 -1 -11 562.74 23.8
-1 -1 -11 549.15 24.8
-1 -1 -11 540.95 25
-1 -1 -11 550.24 26.7
1 1 11 553.64 17.7
1 1 11 577.34 25
-2 -1 -11 269.87 20
-2 -1 -11 313.07 17.7
-2 -1 -11 294.97 21
2 1 11 268.57 17.6
2 1 11 244.48 17.2
2 1 11 279.47 15.9
-3 -1 -11 511.25 24.6
-3 -1 -11 537.55 25.3
-3 -1 -11 569.14 30.7
3 1 11 548.05 25.5
3 1 11 518.45 27
3 1 11 532.45 25.4
-4 -1 -11 8.1 11.2
-4 -1 -11 1.5 11.2
-4 -1 -11 22 17.9
4 1 11 3.2 14.2
4 1 11 5.2 11.6
4 1 11 -2.9 5.1
4 1 11 1.7 11
2 -2 -11 -1.9 13.9
2 -2 -11 5.7 18.3
-2 2 11 17.5 14.7
-2 2 11 23.2 14.7
1 -2 -11 624.84 34.1
1 -2 -11 657.93 32
-1 2 11 635.44 31.7
-1 2 11 669.43 31.1
0 -2 -11 56.59 14.3
0 -2 -11 46.1 9.8
0 2 11 46.8 10.1
0 2 11 40.2 9.5
-1 -2 -11 392.26 19
-1 -2 -11 396.46 19.5
-1 -2 -11 408.66 18.9
-1 -2 -11 360.76 23
1 2 11 383.46 19.1
1 2 11 372.66 18.7
-2 -2 -11 204.48 17.8
-2 -2 -11 196.68 13.4
2 2 11 217.28 13.5
2 2 11 192.88 13.3
-3 -2 -11 1286.27 51.59
-3 -2 -11 1440.26 47.2
-3 -2 -11 1346.37 45.3
3 2 11 1320.27 45.8
3 2 11 1344.77 45.5
3 2 11 1324.77 45.6
-4 -2 -11 85.79 11.8
-4 -2 -11 76.39 19.9
4 2 11 109.19 12.8
4 2 11 86.79 8.3
4 2 11 82.89 11.4
2 -3 -11 51.09 22.1
2 -3 -11 66.49 16.5
-2 3 11 108.89 18.5
-2 3 11 78.69 16.6
1 -3 -11 442.06 26.9
-1 3 11 418.46 26.9
-1 3 11 495.75 26.1
0 -3 -11 376.56 20
0 -3 -11 380.16 26.6
0 -3 -11 365.06 20.3
0 3 11 420.06 21.4
0 3 11 368.96 20.2
-1 -3 -11 2014.2 65.59
-1 -3 -11 2065.49 62.59
-1 -3 -11 2044.6 62.79
-1 -3 -11 1977.6 69.49
1 3 11 1933.01 63.59
-2 -3 -11 838.92 26.1
-2 -3 -11 817.92 26.3
-2 -3 -11 771.52 35.5
-2 -3 -11 801.82 34.5
2 3 11 832.62 29.7
2 3 11 814.62 27.7
2 3 11 863.21 27.4
-3 -3 -11 891.31 27.8
-3 -3 -11 860.81 27.9
-3 -3 -11 841.02 38.6
3 3 11 729.73 28.8
3 3 11 883.21 32.8
3 3 11 867.81 29.1
-4 -3 -11 299.37 17.2
-4 -3 -11 248.48 23.4
-4 -3 -11 256.37 29.1
4 3 11 316.77 17
2 -4 -11 -0.4 15.7
2 -4 -11 38.1 23.9
-2 4 11 29.8 15.5
-2 4 11 -8.8 16.8
1 -4 -11 23.6 19.9
1 -4 -11 91.09 14.3
-1 4 11 64.09 13.9
-1 4 11 52.49 12.4
0 -4 -11 323.37 17.8
0 -4 -11 340.57 32.3
0 4 11 309.57 19.4
0 4 11 294.27 17.9
-1 -4 -11 2.2 14
-1 -4 -11 5.9 9.6
1 4 11 -4.7 10.3
1 4 11 4.8 4
1 4 11 -0.3 3.5
1 4 11 4 4.5
-2 -4 -11 492.45 28.8
-2 -4 -11 542.35 27.7
2 4 11 500.85 25.4
2 4 11 517.85 22
-3 -4 -11 68.09 15.5
3 4 11 62.39 14.7
-4 -4 -11 372.06 36.1
4 4 11 475.15 16.7
4 4 11 487.25 23.5
1 -5 -11 18.5 11.9
1 -5 -11 -9.3 20
-1 5 11 6 10.9
-1 5 11 7.5 12.9
-1 5 11 -0.2 15.6
0 -5 -11 534.25 24.1
0 -5 -11 539.25 36.2
0 5 11 569.64 28.2
0 5 11 611.54 31.8
-1 -5 -11 -7.8 15.5
1 5 11 3.2 6
1 5 11 3.2 12.1
-2 -5 -11 847.22 37
2 5 11 870.41 32.9
2 5 11 869.31 36.4
-3 -5 -11 37.8 16.2
3 5 11 31 11.1
3 5 11 26.3 11.4
-4 -5 -11 743.83 43.6
4 5 11 831.02 40.4
4 5 11 864.61 34.5
0 -6 -11 589.54 24.5
0 -6 -11 576.34 40.4
0 6 11 639.04 35.4
0 6 11 611.94 25.1
0 6 11 555.84 26.6
-1 -6 -11 153.08 22.5
1 6 11 148.19 15.5
1 6 11 181.48 19.4
-2 -6 -11 455.35 30.7
2 6 11 457.95 28
-3 -6 -11 655.63 38.3
3 6 11 709.43 33.7
3 6 11 741.43 34.6
-4 -6 -11 103.79 21.4
4 6 11 108.49 15.5
4 6 11 83.89 18.2
-1 -7 -11 662.73 40.4
1 7 11 668.13 38.2
-2 -7 -11 113.59 21.2
2 7 11 190.08 21.8
2 7 11 108.59 19.2
-3 -7 -11 376.06 31.9
3 7 11 429.56 29.5
3 7 11 446.56 29.5
1 4 -12 177.68 24.8
1 4 -12 189.28 19.6
1 4 -12 217.58 25.6
-1 -4 12 203.18 25.7
-1 -4 12 263.67 31.9
0 4 -12 820.72 45.5
0 4 -12 903.91 47.1
0 4 -12 867.51 48
0 -4 12 876.71 45.6
0 -4 12 936.51 39.9
0 -4 12 972 47.4
-1 4 -12 72.89 20.7
-1 4 -12 98.59 20.8
1 -4 12 79.99 21.1
1 -4 12 104.49 20.3
1 -4 12 65.79 17.5
2 3 -12 109.59 13
2 3 -12 104.19 23.3
2 3 -12 93.99 23.1
2 3 -12 95.59 13.4
-2 -3 12 66.59 22.1
-2 -3 12 98.19 22.7
1 3 -12 9.5 10.7
1 3 -12 5 16.6
1 3 -12 9.3 16.3
-1 -3 12 8.4 17.5
-1 -3 12 24.6 16.5
0 3 -12 9.6 14.8
0 3 -12 -2.2 15.4
0 -3 12 1.7 10.4
0 -3 12 -10.8 15.2
0 -3 12 4.1 15.2
-1 3 -12 309.77 27.8
-1 3 -12 377.76 39.4
1 -3 12 310.87 30.4
1 -3 12 313.37 24.4
1 -3 12 312.77 27.9
-2 3 -12 51.69 17.7
-2 3 -12 31.1 17.3
2 -3 12 60.99 18.2
2 -3 12 22.1 18
2 -3 12 45.2 16.3
2 2 -12 99.49 20.7
2 2 -12 73.39 9.1
2 2 -12 66.29 13.8
2 2 -12 75.19 19.9
-2 -2 12 82.09 20
-2 -2 12 101.89 20.7
1 2 -12 490.75 32.3
1 2 -12 434.46 24.2
1 2 -12 471.05 31.6
-1 -2 12 478.15 32.4
-1 -2 12 414.16 31.1
0 2 -12 50.79 15.1
0 2 -12 61.19 14.1
0 -2 12 52.79 15.2
-1 2 -12 712.13 35.6
-1 2 -12 680.83 35.4
1 -2 12 675.13 29.4
1 -2 12 637.04 35
1 -2 12 706.73 36.2
-2 2 -12 13 13.9
-2 2 -12 -6.3 13.3
2 -2 12 25.1 15.5
2 -2 12 -8.5 13.5
-3 2 -12 921.11 44.6
-3 2 -12 949.8 45.4
3 -2 12 869.41 44.8
3 -2 12 952.9 44.6
3 -2 12 988.6 45.7
2 1 -12 35.2 14.5
2 1 -12 44.9 17.4
2 1 -12 -26.6 20.5
-2 -1 12 65.09 18.2
-2 -1 12 8.9 17.4
1 1 -12 350.26 28.8
1 1 -12 331.07 27.6
1 1 -12 355.86 23
-1 -1 12 355.96 28.5
-1 -1 12 373.26 29.2
0 1 -12 4.7 6.9
0 1 -12 35.1 12
0 -1 12 23.5 13.1
0 -1 12 18.5 13.1
-1 1 -12 1112.89 42.5
-1 1 -12 1024.7 42.4
1 -1 12 1010.1 43.1
1 -1 12 1047.9 43
1 -1 12 1047.6 36.8
-2 1 -12 177.48 17.2
-2 1 -12 135.99 16
2 -1 12 154.58 16.8
2 -1 12 134.29 14.7
2 -1 12 127.89 16.4
-3 1 -12 429.96 29.2
3 -1 12 437.86 29.3
3 -1 12 444.66 30.1
3 -1 12 441.76 29.9
2 0 -12 34.5 16.6
2 0 -12 8.2 16
2 0 -12 -4.5 14.6
-2 0 12 -15.2 16.4
-2 0 12 -4 16.3
1 0 -12 194.98 19.9
1 0 -12 132.89 16.8
-1 0 12 124.79 17.4
-1 0 12 154.68 17.7
0 0 -12 580.74 21.9
0 0 -12 604.34 30.5
0 0 -12 569.14 28.3
0 0 12 623.64 30.4
0 0 12 575.64 30
-1 0 -12 417.76 21.5
-1 0 -12 383.56 23.8
1 0 12 379.26 24.3
1 0 12 385.56 15.7
-2 0 -12 261.67 20.8
-2 0 -12 252.97 22.3
2 0 12 270.67 21.6
2 0 12 246.88 20.8
2 0 12 290.67 18.1
-3 0 -12 108.99 19.2
-3 0 -12 142.49 16.1
-3 0 -12 130.79 15.3
3 0 12 110.69 14.9
3 0 12 101.39 14.8
-4 0 -12 622.14 40.8
-4 0 -12 678.23 36.7
-4 0 -12 673.33 37.3
4 0 12 763.42 40.4
4 0 12 680.13 24.2
4 0 12 708.53 37.7
4 0 12 726.23 36.5
2 -1 -12 481.45 33.5
2 -1 -12 492.55 34.5
2 -1 -12 446.96 32.2
-2 1 12 489.05 34.3
-2 1 12 422.56 33.6
1 -1 -12 14.9 12.5
1 -1 -12 -8.2 12.7
1 -1 -12 15.9 14.4
-1 1 12 -13.8 12.2
-1 1 12 11 12.6
0 -1 -12 1179.28 45.3
0 -1 -12 1189.18 38.7
0 -1 -12 1162.58 46.1
0 1 12 1189.58 45.2
0 1 12 1237.08 45.8
-1 -1 -12 21.5 13
-1 -1 -12 9.2 9.6
-1 -1 -12 14.6 8.7
-1 -1 -12 20.9 9.4
1 1 12 18.1 9.2
-2 -1 -12 1803.22 62.89
-2 -1 -12 1805.12 60.99
-2 -1 -12 1875.21 61.29
2 1 12 1910.61 61.79
2 1 12 1779.92 58.99
2 1 12 1798.22 61.29
-3 -1 -12 8 14.7
-3 -1 -12 0.9 9.5
3 1 12 3.5 9.7
3 1 12 5.9 10.7
3 1 12 -4.9 9.5
-4 -1 -12 562.44 30.7
-4 -1 -12 477.55 35.9
-4 -1 -12 552.14 29.5
4 1 12 516.85 29.9
4 1 12 488.15 29
4 1 12 541.15 21.2
4 1 12 583.74 34.1
2 -2 -12 332.37 30.2
2 -2 -12 308.47 32.1
-2 2 12 338.47 30.8
-2 2 12 310.17 30
1 -2 -12 26.8 12.4
1 -2 -12 31.2 13.1
-1 2 12 48.4 13.2
-1 2 12 28.1 13.7
0 -2 -12 80.29 16.2
0 -2 -12 69.19 12.1
0 -2 -12 56.79 11.4
0 2 12 91.59 12.6
0 2 12 61.19 11.6
-1 -2 -12 182.88 18.4
-1 -2 -12 181.58 20.7
-1 -2 -12 211.98 16.3
-1 -2 -12 213.58 16.2
1 2 12 215.28 16.5
1 2 12 236.98 16.5
-2 -2 -12 909.01 37.4
-2 -2 -12 969.9 33.7
2 2 12 909.41 31.9
2 2 12 896.31 33.5
-3 -2 -12 373.66 19.3
-3 -2 -12 353.66 26.6
3 2 12 374.46 24.6
3 2 12 292.57 22.1
3 2 12 363.56 19.7
-4 -2 -12 242.98 20.5
-4 -2 -12 333.47 19.7
4 2 12 251.37 20.4
4 2 12 273.57 16.4
4 2 12 291.17 26.5
4 2 12 236.38 20.5
2 -3 -12 40.8 22.8
2 -3 -12 46.2 17.1
-2 3 12 14.7 16.8
-2 3 12 31.5 16.9
1 -3 -12 404.86 27.7
1 -3 -12 416.86 32.7
1 -3 -12 402.96 26.1
-1 3 12 385.56 27.6
-1 3 12 367.76 25.8
0 -3 -12 1186.28 42.5
0 -3 -12 1163.48 42.5
0 3 12 1145.99 43.2
0 3 12 1149.89 42.4
-1 -3 -12 332.07 19.4
-1 -3 -12 338.07 16.4
-1 -3 -12 299.07 25.1
-1 -3 -12 334.67 16.8
1 3 12 314.27 17
-2 -3 -12 289.87 11.9
-2 -3 -12 278.77 12.4
-2 -3 -12 256.27 24.2
-2 -3 -12 265.17 21.4
2 3 12 296.47 14.9
2 3 12 255.97 14.3
-3 -3 -12 238.88 11.7
-3 -3 -12 225.88 25
-3 -3 -12 219.68 11.5
3 3 12 222.88 18.6
3 3 12 231.98 13.2
-4 -3 -12 139.99 14.7
-4 -3 -12 143.89 14.1
4 3 12 158.28 15.8
4 3 12 176.48 16
4 3 12 175.08 15.8
1 -4 -12 525.35 28.4
1 -4 -12 446.16 38.7
1 -4 -12 466.65 30.3
-1 4 12 470.95 27.7
-1 4 12 453.25 29.6
0 -4 -12 -16.8 15.3
0 -4 -12 4.6 8.2
0 4 12 15.1 9
0 4 12 1.1 9.2
-1 -4 -12 813.42 24.5
-1 -4 -12 795.02 38.9
-1 -4 -12 779.42 24.3
1 4 12 783.02 36
1 4 12 806.62 27.1
-2 -4 -12 6.6 14.8
-2 -4 -12 -7.9 11.3
2 4 12 -1.4 6.5
2 4 12 0.8 11.3
-3 -4 -12 685.63 35.7
3 4 12 674.03 30.5
-4 -4 -12 12.5 18.6
4 4 12 21.6 10.9
0 -5 -12 136.89 14.1
0 -5 -12 131.49 15
0 -5 -12 118.89 23.8
0 5 12 116.49 18
0 5 12 124.19 12.6
0 5 12 106.19 17.1
-1 -5 -12 782.32 41.3
1 5 12 834.72 26.4
1 5 12 786.52 38.7
-2 -5 -12 271.87 27.2
-2 -5 -12 273.57 24.6
2 5 12 300.97 18.3
2 5 12 321.67 23.7
-3 -5 -12 835.12 41.6
3 5 12 1048.2 37.1
3 5 12 884.51 38.7
-4 -5 -12 287.77 31.4
4 5 12 307.37 23.8
4 5 12 367.86 28.9
-1 -6 -12 190.08 26.1
1 6 12 259.67 15.8
1 6 12 214.28 22
-2 -6 -12 649.74 38
2 6 12 704.93 29.6
2 6 12 637.04 34.8
3 6 12 123.09 15.5
3 6 12 143.79 17.9
1 3 -13 128.39 23.2
-1 -3 13 142.79 23.1
0 3 -13 352.56 34.9
0 3 -13 376.36 32.5
0 -3 13 402.56 34.5
-1 3 -13 82.89 19.9
-1 3 -13 55.39 19.1
1 -3 13 60.29 18.6
1 -3 13 96.69 20.8
1 2 -13 -7.7 16.5
1 2 -13 -9.3 16.8
-1 -2 13 30.5 17.8
-1 -2 13 21.2 17.7
0 2 -13 463.15 31.4
0 2 -13 476.25 33.6
0 -2 13 461.65 33.7
-1 2 -13 0.9 14.8
-1 2 -13 22.1 15.3
1 -2 13 4.2 10
1 -2 13 11.8 15.3
-2 2 -13 510.15 34.2
-2 2 -13 459.35 32.9
2 -2 13 446.26 39.4
2 -2 13 431.06 33.4
2 -2 13 419.26 29
2 1 -13 20 18.6
1 1 -13 194.98 21.8
1 1 -13 166.28 20.4
1 1 -13 185.98 21.5
-1 -1 13 163.18 21.5
0 1 -13 386.96 29.5
0 1 -13 397.86 18.2
0 -1 13 398.96 29.8
0 -1 13 390.66 29
-1 1 -13 304.47 26.3
-1 1 -13 277.47 21.2
-1 1 -13 353.76 26.4
1 -1 13 273.27 25.6
1 -1 13 300.27 16.8
1 -1 13 299.47 26.9
-2 1 -13 277.77 24.1
-2 1 -13 228.68 24.5
-2 1 -13 219.48 24.6
2 -1 13 218.38 20.7
2 -1 13 220.58 20.7
2 -1 13 209.98 25.2
-3 1 -13 44.5 16.7
3 -1 13 57.69 16.6
3 -1 13 36.5 15.8
3 -1 13 46.3 17.5
2 0 -13 59.79 21.1
2 0 -13 113.89 20.4
-2 0 13 100.19 20.3
-2 0 13 134.19 22.3
1 0 -13 267.67 27.1
1 0 -13 307.27 26.2
-1 0 13 333.47 29.3
-1 0 13 300.37 27.1
0 0 -13 65.49 14.3
0 0 -13 73.79 10.2
0 0 -13 72.39 14.7
0 0 -13 59.39 14.9
0 0 13 62.59 14.6
0 0 13 79.79 14.6
-1 0 -13 588.14 29.9
-1 0 -13 615.84 31.3
-1 0 -13 551.04 26.5
1 0 13 612.84 30.9
-2 0 -13 -0.3 10.7
-2 0 -13 -9.2 11.2
-2 0 -13 3.2 13
2 0 13 -10.4 11.3
2 0 13 10.9 8.8
2 0 13 -15.7 11.3
-3 0 -13 925.11 39.3
-3 0 -13 865.91 44.1
-3 0 -13 883.21 39.5
3 0 13 896.41 39.3
3 0 13 845.82 39.6
3 0 13 877.41 39.6
1 -1 -13 204.28 21
1 -1 -13 231.18 26
-1 1 13 209.38 25.3
-1 1 13 271.77 26.8
0 -1 -13 108.79 14.8
0 -1 -13 168.28 20.1
0 -1 -13 98.19 17.2
0 1 13 125.89 15.7
0 1 13 125.89 15.5
-1 -1 -13 915.01 34.5
-1 -1 -13 915.91 37.5
-1 -1 -13 878.91 39.3
1 1 13 943.51 37.4
1 1 13 904.81 37.5
-2 -1 -13 18.6 12.9
-2 -1 -13 10.2 9.7
2 1 13 -7.7 9.4
2 1 13 4.1 7.1
2 1 13 -2.5 10
-3 -1 -13 538.05 27.2
-3 -1 -13 482.95 31.7
-3 -1 -13 482.05 27.3
3 1 13 511.95 27.8
3 1 13 502.25 27.2
3 1 13 523.65 27.2
1 -2 -13 436.36 29.9
1 -2 -13 469.55 33
1 -2 -13 426.16 30.4
-1 2 13 430.16 31.3
-1 2 13 475.55 29.7
0 -2 -13 -3 10.8
0 -2 -13 11.5 9.4
0 2 13 19.3 11.1
0 2 13 -0.4 10.5
-1 -2 -13 489.15 23.4
-1 -2 -13 463.35 24.3
-1 -2 -13 551.44 25.4
1 2 13 506.65 25.2
1 2 13 518.75 25
-2 -2 -13 244.88 21.6
-2 -2 -13 219.38 17.4
2 2 13 222.98 13
2 2 13 215.48 16.6
-3 -2 -13 50.19 16.5
3 2 13 17.4 8.9
3 2 13 37 11.4
3 2 13 24.7 9.5
-4 -2 -13 343.87 35.7
-4 -2 -13 345.37 23.4
-4 -2 -13 398.36 23.6
4 2 13 443.96 30.4
4 2 13 321.47 23.2
4 2 13 358.36 23.8
1 -3 -13 -4.9 13.4
1 -3 -13 -1.1 15.1
1 -3 -13 9.1 20.2
-1 3 13 5.4 13.7
-1 3 13 -8.4 14.4
0 -3 -13 1018.3 46.8
0 -3 -13 1018.3 39.9
0 3 13 1010.1 39.5
0 3 13 991.5 40.3
-1 -3 -13 3.8 7.2
-1 -3 -13 6.3 9.7
-1 -3 -13 2.6 15.7
1 3 13 14.4 8.2
-2 -3 -13 830.42 35.4
-2 -3 -13 813.62 27.1
-2 -3 -13 803.62 27.7
2 3 13 802.22 27.2
2 3 13 816.42 27.4
2 3 13 789.12 29.3
2 3 13 784.42 28.3
-3 -3 -13 33 5.8
-3 -3 -13 37.9 5.8
-3 -3 -13 21.9 15.5
3 3 13 27.6 6.8
3 3 13 39.8 10.9
3 3 13 34.1 11.7
-4 -3 -13 641.24 24.9
-4 -3 -13 559.54 23.7
-4 -3 -13 539.35 37.3
4 3 13 548.45 25
4 3 13 507.95 24.7
0 -4 -13 344.07 32.9
0 4 13 355.26 23.1
0 4 13 305.77 21
-1 -4 -13 18.6 4.2
-1 -4 -13 16.9 16.4
-1 -4 -13 17.2 3.8
1 4 13 31.8 6.6
1 4 13 26.1 6.5
-2 -4 -13 474.35 32
-2 -4 -13 504.65 27.2
2 4 13 525.45 19.8
2 4 13 465.35 28.1
-3 -4 -13 16 16.5
3 4 13 10.6 11.9
0 -5 -13 79.89 10.7
0 -5 -13 116.99 24.9
0 5 13 109.99 12.9
0 5 13 100.29 11.4
0 5 13 127.99 35.4
-1 -5 -13 151.58 22.4
1 5 13 152.18 19.5
-2 -5 -13 198.08 23.2
-2 -5 -13 204.98 23.6
2 5 13 229.08 25.7
2 5 13 248.78 15.3
-3 -5 -13 544.15 39.9
3 5 13 659.83 31.9
0 2 -14 29.7 21
0 2 -14 29 9.5
0 2 -14 13.8 27
0 -2 14 -2 18.6
0 -2 14 32.8 18.6
-1 2 -14 124.99 22.5
-1 2 -14 166.08 22
1 -2 14 133.09 13.6
1 -2 14 153.78 21.4
1 -2 14 159.98 22.5
1 1 -14 95.59 27.2
1 1 -14 123.89 29.1
-1 -1 14 74.89 20.5
0 1 -14 218.88 26.1
0 1 -14 186.38 21.2
0 -1 14 175.58 21.7
0 -1 14 182.58 21.6
-1 1 -14 11.1 14.6
-1 1 -14 25.8 11.6
1 -1 14 26 15.2
1 -1 14 -2.7 6.9
-2 1 -14 495.45 32.8
-2 1 -14 533.05 32.6
2 -1 14 586.84 34.8
2 -1 14 511.95 28
2 -1 14 556.64 34.7
1 0 -14 -6.7 17.5
1 0 -14 -6.7 16.8
1 0 -14 15.9 17.3
-1 0 14 22 17.1
-1 0 14 33 18.1
0 0 -14 696.33 37.1
0 0 -14 719.93 36.4
0 0 -14 623.14 37.8
0 0 14 699.43 36.6
0 0 14 663.33 37.4
-1 0 -14 52.39 14.7
-1 0 -14 24 14.2
-1 0 -14 49.9 11.5
1 0 14 35.6 14.4
1 0 14 38.3 14.2
-2 0 -14 229.48 24.2
-2 0 -14 249.18 24.4
-2 0 -14 255.37 24.9
2 0 14 266.07 25.5
2 0 14 253.97 24.9
2 0 14 248.18 18.3
1 -1 -14 355.16 31.3
1 -1 -14 310.17 30.5
-1 1 14 301.07 32
-1 1 14 365.66 31.2
0 -1 -14 113.09 16.6
0 -1 -14 84.29 15.3
0 -1 -14 90.49 18.6
0 1 14 119.29 16.5
0 1 14 111.39 16.6
-1 -1 -14 257.87 23.3
-1 -1 -14 251.77 23.1
-1 -1 -14 258.17 18.6
1 1 14 248.18 22.9
1 1 14 275.37 23.2
-2 -1 -14 188.18 20.2
-2 -1 -14 113.69 16.1
-2 -1 -14 166.98 19.4
2 1 14 125.69 15
2 1 14 135.89 12.8
-3 -1 -14 586.94 37
-3 -1 -14 597.54 31
-3 -1 -14 612.24 30.7
3 1 14 576.64 30.2
3 1 14 566.94 30.6
3 1 14 634.64 31.1
0 -2 -14 3.6 17.5
0 -2 -14 32.4 13.3
0 -2 -14 22.3 13.5
0 2 14 17.9 12.5
0 2 14 14.8 13
-1 -2 -14 418.86 21.9
-1 -2 -14 386.26 23.5
-1 -2 -14 404.86 29.4
1 2 14 378.46 24.1
1 2 14 353.86 23.3
-2 -2 -14 -2.2 12.1
2 2 14 16.5 10.1
2 2 14 7.9 3.9
2 2 14 18 5.1
2 2 14 1.3 9.4
-3 -2 -14 446.26 22.2
-3 -2 -14 355.16 30.8
3 2 14 391.66 22.9
3 2 14 417.46 24.2
0 -3 -14 1.2 18.1
0 -3 -14 21.1 12.2
0 -3 -14 5.1 11.6
0 3 14 -10.5 11.9
0 3 14 7.1 11.9
-1 -3 -14 370.76 30.7
-1 -3 -14 406.96 21.8
-1 -3 -14 365.46 19.9
-1 -3 -14 371.86 21.9
1 3 14 328.57 20.9
-2 -3 -14 83.89 15
-2 -3 -14 59.09 7.2
-2 -3 -14 48 9.2
2 3 14 41.4 8.7
-3 -3 -14 321.37 16
-3 -3 -14 328.87 13.9
-3 -3 -14 328.37 29
3 3 14 324.77 25.1
3 3 14 288.37 20.9
3 3 14 318.67 17.7
-1 -4 -14 198.18 24.7
-1 -4 -14 179.68 9.2
-1 -4 -14 195.88 9.6
1 4 14 220.88 14.1
-2 -4 -14 98.79 16
-2 -4 -14 119.19 21.5
2 4 14 114.49 17.2
-1 0 -15 28.4 15.9
-1 -1 -15 -12.1 13.1
-1 -1 -15 16.3 13.9
-1 -1 -15 -8.4 10.1
1 1 15 -34.4 12.1
1 1 15 7 13.9
-1 -2 -15 -1.6 10.2
-1 -2 -15 0.4 17.8
-1 -2 -15 -9.1 11.5
-1 -2 -15 2.5 12.5
1 2 15 8.7 12.3
1 2 15 5.2 12.2
-2 -2 -15 562.44 28.5
