#------------------------------------------------------------------------------
#$Date: 2022-05-20 12:42:50 +0300 (Fri, 20 May 2022) $
#$Revision: 275578 $
#$URL: file:///home/coder/svn-repositories/cod/cif/8/10/53/8105322.cif $
#------------------------------------------------------------------------------
#
# This file is available in the Crystallography Open Database (COD),
# http://www.crystallography.net/
#
# All data on this site have been placed in the public domain by the
# contributors.
#
data_8105322
loop_
_publ_author_name
'Cai, Bin'
'Zhu, Meng-En'
'Bai, Xin'
'Lin, Yan-Ru'
'Guo, Qian-Qian'
'Meng, Yu-Ning'
_publ_section_title
;
 The crystal structure of 5-bromopicolinic acid monohydrate, C6H6BrNO3
;
_journal_issue                   4
_journal_name_full
'Zeitschrift f\"ur Kristallographie - New Crystal Structures'
_journal_page_first              895
_journal_page_last               896
_journal_paper_doi               10.1515/ncrs-2020-0087
_journal_volume                  235
_journal_year                    2020
_chemical_formula_moiety         'C6 H4 Br N O2, H2 O'
_chemical_formula_sum            'C6 H6 Br N O3'
_chemical_formula_weight         220.03
_space_group_crystal_system      triclinic
_space_group_IT_number           2
_space_group_name_Hall           '-P 1'
_space_group_name_H-M_alt        'P -1'
_atom_sites_solution_hydrogens   mixed
_cell_angle_alpha                75.844(4)
_cell_angle_beta                 76.306(4)
_cell_angle_gamma                67.504(4)
_cell_formula_units_Z            2
_cell_length_a                   7.0407(5)
_cell_length_b                   7.1597(6)
_cell_length_c                   8.3808(7)
_cell_measurement_reflns_used    4192
_cell_measurement_temperature    150(2)
_cell_measurement_theta_max      26.39
_cell_measurement_theta_min      2.54
_cell_volume                     373.61(5)
_computing_cell_refinement       'SAINT v8.37A (Bruker, 2015) [1]'
_computing_data_reduction        'SAINT v8.37A (Bruker, 2015) [1]'
_computing_molecular_graphics    'Olex2 (Dolomanov et al., 2009) [3]'
_computing_publication_material  'Olex2 (Dolomanov et al., 2009) [3]'
_computing_structure_refinement  'ShelXL (Sheldrick, 2015) [2]'
_computing_structure_solution    'ShelXT (Sheldrick, 2015) [2]'
_diffrn_ambient_temperature      150.0
_diffrn_measured_fraction_theta_full 1.000
_diffrn_measured_fraction_theta_max 1.000
_diffrn_measurement_device       'Bruker APEX-II diffractometer'
_diffrn_measurement_device_type  'Bruker APEX-II CCD'
_diffrn_measurement_method       '\f and \w scans'
_diffrn_radiation_type           MoK\a
_diffrn_radiation_wavelength     0.71073
_diffrn_reflns_av_R_equivalents  0.0348
_diffrn_reflns_av_unetI/netI     0.0271
_diffrn_reflns_Laue_measured_fraction_full 1.000
_diffrn_reflns_Laue_measured_fraction_max 1.000
_diffrn_reflns_limit_h_max       8
_diffrn_reflns_limit_h_min       -8
_diffrn_reflns_limit_k_max       8
_diffrn_reflns_limit_k_min       -8
_diffrn_reflns_limit_l_max       10
_diffrn_reflns_limit_l_min       -10
_diffrn_reflns_number            6538
_diffrn_reflns_point_group_measured_fraction_full 1.000
_diffrn_reflns_point_group_measured_fraction_max 1.000
_diffrn_reflns_theta_full        25.195
_diffrn_reflns_theta_max         25.195
_diffrn_reflns_theta_min         2.539
_exptl_absorpt_coefficient_mu    5.455
_exptl_absorpt_correction_T_max  0.7454
_exptl_absorpt_correction_T_min  0.5386
_exptl_absorpt_correction_type   multi-scan
_exptl_absorpt_process_details
;
SADABS-2016/2 (Bruker,2016/2) was used for absorption correction.
wR2(int) was 0.1024 before and 0.0513 after correction.
The Ratio of minimum to maximum transmission is 0.7226.
The \l/2 correction factor is Not present.
;
_exptl_crystal_colour            colorless
_exptl_crystal_density_diffrn    1.956
_exptl_crystal_density_method    'not measured'
_exptl_crystal_description       block
_exptl_crystal_F_000             216
_exptl_crystal_size_max          0.26
_exptl_crystal_size_mid          0.22
_exptl_crystal_size_min          0.1
_refine_diff_density_max         0.302
_refine_diff_density_min         -0.476
_refine_diff_density_rms         0.101
_refine_ls_extinction_coef       .
_refine_ls_extinction_method     none
_refine_ls_goodness_of_fit_ref   1.127
_refine_ls_hydrogen_treatment    mixed
_refine_ls_matrix_type           full
_refine_ls_number_parameters     112
_refine_ls_number_reflns         1352
_refine_ls_number_restraints     0
_refine_ls_restrained_S_all      1.127
_refine_ls_R_factor_all          0.0248
_refine_ls_R_factor_gt           0.0205
_refine_ls_shift/su_max          0.000
_refine_ls_shift/su_mean         0.000
_refine_ls_structure_factor_coef Fsqd
_refine_ls_weighting_details
'w=1/[\s^2^(Fo^2^)+(0.0262P)^2^+0.0994P] where P=(Fo^2^+2Fc^2^)/3'
_refine_ls_weighting_scheme      calc
_refine_ls_wR_factor_gt          0.0516
_refine_ls_wR_factor_ref         0.0527
_reflns_Friedel_coverage         0.000
_reflns_Friedel_fraction_full    .
_reflns_Friedel_fraction_max     .
_reflns_number_gt                1226
_reflns_number_total             1352
_reflns_threshold_expression     'I > 2\s(I)'
_cod_data_source_file            suppl_ncrs-2020-0087_suppl.cif
_cod_data_source_block           1
_cod_database_code               8105322
_shelx_space_group_comment
;
The symmetry employed for this shelxl refinement is uniquely defined
by the following loop, which should always be used as a source of
symmetry information in preference to the above space-group names.
They are only intended as comments.
;
_shelx_estimated_absorpt_t_max   0.612
_shelx_estimated_absorpt_t_min   0.331
_olex2_refinement_description
;
1. Fixed Uiso
 At 1.2 times of:
  All C(H) groups
2.a Aromatic/amide H refined with riding coordinates:
 C2(H2), C3(H3), C5(H5)
;
_shelx_res_file
;
TITL mo_1031_6_0m_a.res in P-1
    1.res
    created by SHELXL-2018/3 at 15:13:08 on 04-Jan-2020
CELL 0.71073 7.0407 7.1597 8.3808 75.844 76.306 67.504
ZERR 2 0.0005 0.0006 0.0007 0.004 0.004 0.004
LATT 1
SFAC C H Br O N
UNIT 12 12 2 6 2

L.S. 10
PLAN  20
SIZE 0.26 0.22 0.1
TEMP -123.15
BOND $H
fmap 2
acta
OMIT 0 50.4
REM <olex2.extras>
REM <HklSrc "%1.hkl">
REM </olex2.extras>

WGHT    0.026200    0.099400
FVAR       0.77584
BR1   3    0.871314    0.890274    0.915378    11.00000    0.02249    0.03047 =
         0.03217   -0.01041   -0.01109   -0.01030
C1    1    0.700044    0.802449    0.829668    11.00000    0.01756    0.02267 =
         0.01570   -0.00450   -0.00141   -0.00929
C2    1    0.734568    0.596933    0.843757    11.00000    0.02172    0.01862 =
         0.02814   -0.00175   -0.01282   -0.00244
AFIX  43
H2    2    0.845136    0.495181    0.896357    11.00000   -1.20000
AFIX   0
C3    1    0.602839    0.543157    0.778737    11.00000    0.02312    0.01403 =
         0.02716   -0.00275   -0.00678   -0.00665
AFIX  43
H3    2    0.620305    0.403050    0.786730    11.00000   -1.20000
AFIX   0
C4    1    0.445318    0.697359    0.701919    11.00000    0.01797    0.01475 =
         0.01831   -0.00469   -0.00302   -0.00590
C5    1    0.538616    0.948534    0.752269    11.00000    0.01960    0.01561 =
         0.02205   -0.00288   -0.00453   -0.00830
AFIX  43
H5    2    0.516523    1.089667    0.744780    11.00000   -1.20000
AFIX   0
C6    1    0.300847    0.644548    0.629008    11.00000    0.01612    0.01580 =
         0.02078   -0.00456   -0.00359   -0.00398
N1    5    0.413710    0.897528    0.688176    11.00000    0.01800    0.01414 =
         0.01789   -0.00359   -0.00381   -0.00578
O1    4    0.192229    0.797702    0.530252    11.00000    0.02504    0.01721 =
         0.03153   -0.00102   -0.01654   -0.00852
O2    4    0.292463    0.472382    0.662453    11.00000    0.03039    0.01387 =
         0.04520   -0.00340   -0.01820   -0.00802
O1W   4    0.917187    0.750628    0.413732    11.00000    0.02647    0.01225 =
         0.05439   -0.00375   -0.02544   -0.00310
H1    2    0.113526    0.768152    0.498781    11.00000    0.03750
H1WA  2    0.834245    0.850153    0.394301    11.00000    0.03627
H1WB  2    0.872503    0.657806    0.404789    11.00000    0.05329
HKLF 4




REM  mo_1031_6_0m_a.res in P-1
REM wR2 = 0.0527, GooF = S = 1.127, Restrained GooF = 1.127 for all data
REM R1 = 0.0205 for 1226 Fo > 4sig(Fo) and 0.0248 for all 1352 data
REM 112 parameters refined using 0 restraints

END

WGHT      0.0262      0.0994

REM Highest difference peak  0.302,  deepest hole -0.476,  1-sigma level  0.101
Q1    1   0.5208  1.0921  0.9616  11.00000  0.05    0.30
Q2    1   0.7505  0.6018  0.6380  11.00000  0.05    0.30
Q3    1   0.3393  0.6065  0.9214  11.00000  0.05    0.27
Q4    1   0.2068  0.6502  0.8576  11.00000  0.05    0.27
Q5    1   0.1132  0.9912  0.4177  11.00000  0.05    0.27
Q6    1   0.0273  0.6364  0.7063  11.00000  0.05    0.26
Q7    1   0.4234  0.4518  0.5000  11.00000  0.05    0.26
Q8    1   0.6322  0.9878  0.9584  11.00000  0.05    0.25
Q9    1   0.8095  0.2671  1.0845  11.00000  0.05    0.25
Q10   1   0.5978  0.7778  1.0618  11.00000  0.05    0.25
Q11   1   0.9030  0.4668  0.7080  11.00000  0.05    0.24
Q12   1   0.7124  0.8799  0.5869  11.00000  0.05    0.24
Q13   1   0.4091  0.9022  0.9411  11.00000  0.05    0.24
Q14   1   0.2417  0.8185  0.8181  11.00000  0.05    0.23
Q15   1   0.8707  0.8405  0.6813  11.00000  0.05    0.23
Q16   1   0.8687  0.7339  0.5985  11.00000  0.05    0.23
Q17   1   0.2013  0.6037  0.4013  11.00000  0.05    0.22
Q18   1   0.7932  0.8147  1.1535  11.00000  0.05    0.22
Q19   1   0.2446  0.8520  0.4045  11.00000  0.05    0.22
Q20   1   0.9700  0.7103  0.8004  11.00000  0.05    0.22
;
_shelx_hkl_file
;
  -1   0   0  103.29    4.20
  -1   0   0  107.59    4.40
  -1   0   0  113.39    4.20
   1   0   0  103.29    4.20
   1   0   0  113.99    4.80
   1   0   0  104.69    4.70
  -2   0   0  177.38    6.80
  -2   0   0  166.78    7.40
   2   0   0  171.78    7.80
   2   0   0  163.08    6.80
   2   0   0  158.58    7.60
  -3   0   0  660.03   25.70
  -3   0   0  728.73   25.10
   3   0   0  681.23   26.30
   3   0   0  670.93   25.00
   3   0   0  656.93   25.50
   3   0   0  673.93   26.10
  -4   0   0  793.12   30.70
  -4   0   0  815.12   30.10
   4   0   0  790.32   30.60
   4   0   0  792.42   31.40
   4   0   0  816.82   31.80
   4   0   0  822.02   29.90
  -5   0   0  388.56   18.20
  -5   0   0  395.86   16.90
   5   0   0  412.76   19.30
   5   0   0  385.16   18.60
   5   0   0  413.36   16.50
   5   0   0  401.06   16.70
   5   0   0  388.66   17.90
   5   0   0  405.26   17.80
  -6   0   0    6.50    5.30
  -6   0   0    8.50    6.60
   6   0   0   10.60    4.40
   6   0   0   13.70    4.00
   6   0   0   11.20    6.10
   6   0   0   10.10    6.50
   6   0   0    7.30    6.00
   6   0   0   11.70    5.40
  -7   0   0  344.47   17.50
  -7   0   0  349.67   18.20
   7   0   0  347.47   16.30
   7   0   0  362.56   16.50
   7   0   0  319.47   18.20
   7   0   0  343.67   20.20
   7   0   0  323.07   20.00
  -8   0   0   40.70   11.20
   8   0   0   36.30    9.30
   8   0   0   11.60   11.20
   8   0   0   17.10   10.80
   8   0   0   54.09   10.30
   8   0   0   45.40    7.30
   7  -1   0    4.30    8.50
   7  -1   0   -5.40    7.40
   7  -1   0    8.20    4.60
   7  -1   0    4.90    5.60
   7  -1   0   -7.30    8.70
   7  -1   0   -2.10    7.00
  -7   1   0   -5.70    8.90
   6  -1   0   91.69   10.50
   6  -1   0   85.69    9.70
   6  -1   0   97.89   12.20
   6  -1   0   94.29    7.60
   6  -1   0   93.09   10.60
   6  -1   0   85.79    8.80
  -6   1   0  114.59   11.50
   5  -1   0  299.77   15.90
   5  -1   0  341.87   16.10
   5  -1   0  266.67   15.70
   5  -1   0  293.27   12.70
  -5   1   0  274.07   15.30
   4  -1   0  130.29    9.00
   4  -1   0  126.49    7.60
   4  -1   0  137.99    9.70
   4  -1   0  133.39    8.50
   4  -1   0  129.89    6.60
  -4   1   0  128.39    9.30
  -4   1   0  125.29    8.10
   3  -1   0  274.67   10.90
   3  -1   0  285.87   11.90
   3  -1   0  287.77   12.70
   3  -1   0  264.27   12.20
  -3   1   0  281.57   12.50
  -3   1   0  285.07   12.90
   2  -1   0 1906.01   70.49
   2  -1   0 2052.89   71.39
   2  -1   0 2011.10   71.69
   2  -1   0 1993.40   71.49
  -2   1   0 2021.90   71.79
  -2   1   0 2027.20   71.39
   1  -1   0 1932.01   67.89
   1  -1   0 1854.21   67.79
   1  -1   0 1899.01   67.79
  -1   1   0 1904.31   67.89
  -1   1   0 1971.00   67.89
   0  -1   0  649.93   23.30
   0  -1   0  669.83   23.30
   0  -1   0  640.14   23.20
   0   1   0  646.44   23.30
   0   1   0  630.94   23.20
   0   1   0  667.73   23.30
  -1  -1   0   10.70    1.70
  -1  -1   0    7.50    1.30
   1   1   0    8.40    0.70
   1   1   0    7.50    1.40
   1   1   0    9.70    1.60
  -2  -1   0  319.87   12.90
  -2  -1   0  341.77   12.30
  -2  -1   0  333.37   13.30
   2   1   0  331.47   12.90
   2   1   0  315.07   13.30
   2   1   0  323.27   11.70
  -3  -1   0 2771.82   95.99
  -3  -1   0 2780.62   94.89
  -3  -1   0 2738.93   95.39
   3   1   0 2520.15   94.39
   3   1   0 2635.24   95.69
   3   1   0 2638.44   96.19
  -4  -1   0 1631.74   58.19
  -4  -1   0 1659.23   58.89
   4   1   0 1604.14   57.59
   4   1   0 1606.24   59.89
   4   1   0 1562.74   59.59
   4   1   0 1642.04   59.29
  -5  -1   0   19.30    4.10
  -5  -1   0   15.90    5.20
   5   1   0   22.20    5.60
   5   1   0   14.10    2.70
   5   1   0   15.70    5.40
   5   1   0   22.10    4.20
   5   1   0   17.20    5.10
  -6  -1   0  401.16   17.70
  -6  -1   0  410.86   18.40
   6   1   0  390.96   18.20
   6   1   0  400.96   16.40
   6   1   0  402.46   19.10
   6   1   0  399.66   20.40
  -7  -1   0  326.87   18.10
  -7  -1   0  309.77   16.10
   7   1   0  333.07   16.90
   7   1   0  259.87   20.10
   7   1   0  317.47   20.20
   7   1   0  314.37   19.00
   7   1   0  306.27   16.20
   7   1   0  304.37   14.00
  -8  -1   0   57.49    9.50
   8   1   0   52.09   11.90
   8   1   0   58.89   10.90
   8   1   0   63.19   10.30
   8   1   0   52.49    8.10
   8   1   0   61.99    9.20
   7  -2   0    7.50   10.40
   7  -2   0    0.40    3.20
   7  -2   0  -13.00    7.80
   7  -2   0   -0.50    6.60
   7  -2   0    8.90    9.30
   7  -2   0    2.00    9.70
   6  -2   0  368.16   20.00
   6  -2   0  381.96   20.80
   6  -2   0  372.36   22.10
   6  -2   0  384.66   15.20
   6  -2   0  394.56   19.00
  -6   2   0  374.06   20.50
   5  -2   0  277.97   14.50
   5  -2   0  265.57   11.10
   5  -2   0  263.57   15.20
   5  -2   0  276.17   16.70
   5  -2   0  279.07   15.60
  -5   2   0  262.17   15.40
   4  -2   0    0.70    4.30
   4  -2   0    3.30    1.70
   4  -2   0    6.70    4.50
  -4   2   0   -6.20    5.10
  -4   2   0    8.80    4.40
   3  -2   0  360.86   16.00
   3  -2   0  373.66   13.40
   3  -2   0  378.46   16.20
   3  -2   0  373.66   15.80
  -3   2   0  380.86   16.50
  -3   2   0  349.77   16.10
   2  -2   0  973.30   36.60
   2  -2   0 1012.60   36.50
   2  -2   0  942.01   36.40
  -2   2   0  978.70   36.50
  -2   2   0 1010.40   36.50
  -2   2   0  997.10   36.80
   1  -2   0   83.89    4.90
   1  -2   0   82.79    4.60
   1  -2   0   91.79    5.20
  -1   2   0   83.79    5.10
  -1   2   0   90.69    5.30
   0  -2   0   12.50    1.90
   0  -2   0   14.30    2.00
   0  -2   0   11.60    1.70
   0   2   0   13.00    1.90
   0   2   0   14.40    2.00
   0   2   0   13.20    1.70
  -1  -2   0 1476.95   50.79
  -1  -2   0 1409.86   50.19
   1   2   0 1411.86   50.19
   1   2   0 1440.16   50.79
   1   2   0 1344.57   49.99
  -2  -2   0 1561.24   56.99
  -2  -2   0 1583.04   58.69
  -2  -2   0 1624.04   58.19
   2   2   0 1601.24   58.19
   2   2   0 1733.93   58.59
  -3  -2   0  490.65   17.70
  -3  -2   0  467.15   18.70
  -3  -2   0  442.66   19.10
   3   2   0  452.25   19.10
   3   2   0  478.95   18.70
  -4  -2   0   49.70    4.80
  -4  -2   0   43.70    6.00
   4   2   0   38.40    4.90
   4   2   0   44.70    2.30
   4   2   0   38.60    5.40
  -5  -2   0  387.76   17.40
  -5  -2   0  368.56   15.70
   5   2   0  361.16   13.80
   5   2   0  418.56   17.00
   5   2   0  318.47   18.00
  -6  -2   0  725.03   28.60
   6   2   0  692.33   31.30
   6   2   0  740.93   26.70
   6   2   0  724.93   28.50
   6   2   0  751.22   30.50
  -7  -2   0  113.89   10.30
   7   2   0  126.09   12.10
   7   2   0  104.69    6.50
   7   2   0  109.09   13.00
   7   2   0  101.59   14.20
  -8  -2   0   38.40    8.70
   8   2   0   50.99    8.00
   8   2   0   26.00   10.30
   8   2   0   40.50    4.50
   8   2   0   55.49   10.10
   8   2   0   59.49    8.80
   8   2   0   30.80   10.80
   6  -3   0  176.08   15.60
   6  -3   0  175.68   17.30
   6  -3   0  164.28   14.00
  -6   3   0  148.59   15.20
   5  -3   0   47.60    7.50
  -5   3   0   59.29    9.10
  -5   3   0   55.59    9.20
   4  -3   0   14.20    5.30
  -4   3   0   23.80    6.40
  -4   3   0   28.40    6.40
   3  -3   0  256.77   12.40
   3  -3   0  221.18   12.60
  -3   3   0  221.98   12.90
  -3   3   0  287.37   13.00
   2  -3   0  935.01   35.80
   2  -3   0  981.10   36.50
   2  -3   0  970.50   36.40
  -2   3   0  973.00   36.70
   1  -3   0  145.09    7.50
   1  -3   0  135.89    7.40
   1  -3   0  144.89    7.60
  -1   3   0  145.69    7.50
  -1   3   0  147.79    8.10
   0  -3   0  778.72   28.50
   0  -3   0  746.33   28.10
   0  -3   0  762.42   28.40
   0   3   0  767.32   28.50
   0   3   0  774.22   28.50
   0   3   0  757.42   28.10
  -1  -3   0 2123.29   72.99
  -1  -3   0 2122.99   73.39
   1   3   0 1972.60   72.79
   1   3   0 2031.10   73.39
   1   3   0 1997.40   72.59
  -2  -3   0  220.78    8.80
  -2  -3   0  215.38   10.00
  -2  -3   0  230.68   10.80
   2   3   0  220.48   10.10
   2   3   0  217.08    8.50
  -3  -3   0    0.20    3.60
  -3  -3   0    0.00    3.10
   3   3   0    1.10    3.20
   3   3   0    4.10    3.40
  -4  -3   0  801.72   31.20
  -4  -3   0  775.92   32.10
   4   3   0  826.32   31.80
   4   3   0  795.72   31.10
  -5  -3   0  378.46   17.00
  -5  -3   0  401.06   19.30
   5   3   0  467.85   18.30
   5   3   0  370.46   19.30
  -6  -3   0  350.86   17.90
  -6  -3   0  330.57   15.30
   6   3   0  298.87   18.40
   6   3   0  314.57   14.40
   6   3   0  318.87   16.80
  -7  -3   0   -3.70    5.50
   7   3   0    6.40    6.70
   7   3   0    2.80    4.50
  -8  -3   0   76.39    9.40
   8   3   0   58.79    9.40
   8   3   0   67.79   12.00
   8   3   0   38.20    9.70
   8   3   0   63.99    8.10
   8   3   0   49.90   11.60
   5  -4   0   11.10    7.90
   5  -4   0    6.30    7.60
   5  -4   0    3.50    6.70
  -5   4   0    6.00    8.30
  -5   4   0    1.90    9.00
   4  -4   0   72.89    8.70
   4  -4   0   91.49    9.20
  -4   4   0   98.69   11.70
  -4   4   0   83.59    9.80
   3  -4   0  282.27   13.60
   3  -4   0  231.88   20.40
   3  -4   0  287.07   14.70
  -3   4   0  282.67   15.40
  -3   4   0  267.57   15.10
   2  -4   0  466.65   20.00
   2  -4   0  492.35   19.50
   2  -4   0  454.05   20.10
  -2   4   0  451.65   20.40
   1  -4   0  129.09    7.90
   1  -4   0  123.79    7.60
  -1   4   0  130.89    5.40
   0  -4   0  441.26   17.30
   0  -4   0  436.66   17.70
   0  -4   0  427.16   17.50
   0   4   0  418.26   17.50
   0   4   0  430.66   17.20
   0   4   0  426.66   17.60
  -1  -4   0  132.39    7.10
  -1  -4   0  124.69    7.60
   1   4   0  128.19    6.30
   1   4   0  129.89    7.60
   1   4   0  124.09    6.80
  -2  -4   0  581.84   22.10
  -2  -4   0  561.94   23.10
  -2  -4   0  632.94   24.10
   2   4   0  583.74   23.20
   2   4   0  571.94   21.50
  -3  -4   0  143.99    9.90
  -3  -4   0  140.79    6.50
  -3  -4   0  140.69    8.80
   3   4   0  140.79    8.90
   3   4   0  142.79    6.10
  -4  -4   0  989.70   37.80
  -4  -4   0 1021.70   36.60
   4   4   0  803.62   36.10
  -5  -4   0  406.86   18.30
  -5  -4   0  432.66   19.90
  -5  -4   0  406.46   21.00
   5   4   0  458.75   20.20
   5   4   0  435.46   19.80
  -6  -4   0    0.40    4.10
  -6  -4   0    4.30    6.70
   6   4   0   -4.40    6.20
   6   4   0    4.40    7.20
  -7  -4   0  218.88   16.60
  -7  -4   0  227.08   13.40
   7   4   0  215.28   15.60
   7   4   0  207.98   11.40
  -8  -4   0   70.79   10.10
   8   4   0   93.19    9.90
   8   4   0   80.99   11.90
   8   4   0  103.49   12.90
   4  -5   0  293.57   18.00
   4  -5   0  297.87   18.40
  -4   5   0  302.17   19.10
  -4   5   0  254.27   16.20
   3  -5   0  118.49   10.20
   3  -5   0  122.09   11.80
  -3   5   0  130.69   12.50
  -3   5   0  117.19   12.10
   2  -5   0  240.38   12.70
   2  -5   0  254.57   13.90
   2  -5   0  246.08   13.50
  -2   5   0  221.98   14.60
   1  -5   0   21.00    4.80
   1  -5   0   19.70    4.90
   1  -5   0   11.90    5.10
  -1   5   0   18.30    1.90
  -1   5   0   15.80    2.50
  -1   5   0   23.80    5.40
   0  -5   0  505.05   20.40
   0  -5   0  489.55   20.60
  -1  -5   0  178.88   10.50
  -1  -5   0  179.98    9.90
   1   5   0  169.68    8.70
   1   5   0  178.98   10.60
  -2  -5   0   14.40    3.40
  -2  -5   0    6.50    5.00
  -2  -5   0   12.30    4.40
   2   5   0    8.50    2.30
  -3  -5   0  285.37   15.60
  -3  -5   0  288.87   14.70
  -3  -5   0  296.47   12.60
   3   5   0  362.76   14.80
   3   5   0  289.47   11.70
  -4  -5   0  406.16   15.80
  -4  -5   0  414.16   19.10
  -4  -5   0  404.46   20.60
   4   5   0  427.56   19.20
   4   5   0  417.26   15.40
  -5  -5   0    4.30    6.40
   5   5   0    6.00    7.60
  -6  -5   0    1.20    5.80
  -6  -5   0    0.10    7.30
   6   5   0    3.20    6.70
  -7  -5   0  290.27   17.20
  -7  -5   0  349.57   21.10
   7   5   0  322.47   19.40
   7   5   0  303.87   13.90
   7   5   0  343.97   19.80
  -8  -5   0  135.29   17.50
   8   5   0  125.99   13.80
   8   5   0  147.19   10.00
   8   5   0  143.59   17.10
   3  -6   0    0.30    7.20
   3  -6   0    9.60    6.50
   3  -6   0   -3.60    7.30
  -3   6   0   10.70    8.70
  -3   6   0    3.90    8.20
   2  -6   0  278.87   15.60
   2  -6   0  282.37   16.80
  -2   6   0  281.07   17.50
   1  -6   0  392.36   20.40
   1  -6   0  395.56   19.50
   1  -6   0  419.96   18.80
  -1   6   0  407.26   20.10
  -1   6   0  386.86   14.50
  -1   6   0  391.56   14.80
   0  -6   0  153.08   11.20
   0  -6   0  141.69   10.70
   0  -6   0  149.19   10.10
   0   6   0  149.59    7.90
  -1  -6   0   49.50    6.20
  -1  -6   0   47.40    6.40
   1   6   0   50.89    7.10
  -2  -6   0  228.18   14.90
  -2  -6   0  213.98   12.70
  -2  -6   0  210.48   11.60
   2   6   0  221.58   13.10
  -3  -6   0  240.68   15.80
  -3  -6   0  266.47   11.90
  -3  -6   0  242.18   15.90
   3   6   0  236.78   10.30
   3   6   0  254.47   14.60
  -4  -6   0  185.58    9.10
  -4  -6   0  194.48   15.00
  -4  -6   0  158.48   12.40
   4   6   0  166.58   12.90
   4   6   0  182.38    7.30
  -5  -6   0  125.29   14.60
   5   6   0  158.98   12.80
  -6  -6   0   13.50    9.10
  -6  -6   0    1.40    6.10
   6   6   0   20.10    8.00
   6   6   0   20.30    2.30
  -7  -6   0  146.19   18.30
  -7  -6   0  112.59   11.40
   7   6   0  126.99    6.40
   7   6   0  136.89   16.10
   2  -7   0  177.18   16.00
   2  -7   0  198.88   15.60
   2  -7   0  191.38   14.40
  -2   7   0  172.68   16.80
   1  -7   0   32.30    7.90
   1  -7   0   10.50    6.70
   1  -7   0   45.20    7.60
  -1   7   0   34.30    8.20
   0  -7   0   10.40    6.60
   0  -7   0   17.70    6.90
   0   7   0    6.10    3.30
  -1  -7   0  106.29   10.40
  -1  -7   0  110.99   10.90
   1   7   0   99.59    8.40
   1   7   0   87.69   11.10
  -2  -7   0  769.32   32.30
  -2  -7   0  767.82   31.50
   2   7   0  802.82   33.40
  -3  -7   0   56.29    8.40
  -3  -7   0   49.70    9.40
   3   7   0   67.39    8.90
  -4  -7   0   10.20    4.20
  -4  -7   0    7.30    7.80
  -4  -7   0   19.80    7.30
   4   7   0    8.00    7.40
  -5  -7   0   84.89   10.10
  -5  -7   0   80.89   11.90
   5   7   0   90.99   10.70
  -6  -7   0  191.88   16.40
  -6  -7   0  186.58   19.70
   6   7   0  201.28   16.30
  -7  -7   0   34.50   12.60
  -7  -7   0   37.60    9.80
   7   7   0   30.60   10.90
   0  -8   0   24.10    8.80
   0  -8   0   15.10    8.30
   0   8   0   19.90    4.00
   0   8   0   25.30    5.90
   0   8   0   14.60    9.90
  -1  -8   0  193.28   15.40
  -1  -8   0  175.18   15.40
  -2  -8   0   25.20    8.20
  -2  -8   0   36.40    7.60
  -2  -8   0   42.60   11.30
   2   8   0   37.90    6.60
   2   8   0   42.20    9.80
  -3  -8   0    3.90    9.20
  -3  -8   0    7.10    8.20
  -3  -8   0    4.60    5.80
   3   8   0    6.70    8.60
  -4  -8   0   73.49   10.50
  -4  -8   0   74.69   12.20
   4   8   0   59.09   10.70
  -5  -8   0  197.08   11.40
  -5  -8   0  195.38   20.60
  -5  -8   0  200.08   17.40
   5   8   0  229.78   18.00
   5   8  -1   78.59   12.70
  -5  -8   1   96.59   13.00
  -5  -8   1   97.59    8.00
  -5  -8   1   80.29   14.90
   4   8  -1    7.10    8.70
  -4  -8   1    6.40    9.20
  -4  -8   1   15.30   11.60
   3   8  -1   -0.30    8.30
  -3  -8   1   -2.80   10.00
  -3  -8   1   -2.70    5.80
  -3  -8   1   -9.90    7.60
   2   8  -1  104.59   12.20
  -2  -8   1   89.59   10.80
  -2  -8   1   88.19   13.90
  -2  -8   1  110.99   12.70
  -1  -8   1   39.90   12.70
  -1  -8   1   54.79    9.40
  -1  -8   1   51.29    9.10
   6   7  -1   66.49   11.80
   6   7  -1   74.69    4.80
  -6  -7   1   72.59   11.50
  -6  -7   1   84.09   14.40
   5   7  -1   38.70    4.40
   5   7  -1   44.90    9.50
  -5  -7   1   32.90    9.00
  -5  -7   1    9.70    8.70
   4   7  -1   32.60    8.80
   4   7  -1   33.30    4.00
  -4  -7   1   47.50    8.70
  -4  -7   1   43.50    5.10
   3   7  -1   32.90    8.20
   3   7  -1   34.00    4.50
  -3  -7   1   29.20    7.30
   2   7  -1  118.69   13.10
   2   7  -1  130.09    9.10
  -2  -7   1  121.29   13.90
  -2  -7   1  137.09   11.80
  -2  -7   1  121.89   10.90
   1   7  -1   22.30    7.90
  -1  -7   1   29.30    6.90
  -1  -7   1   37.30   10.00
  -1  -7   1   35.50    7.10
   0   7  -1   -0.10    5.20
   0  -7   1   -2.00    5.80
   0  -7   1   -3.00    6.20
  -1   7  -1  157.08   15.10
  -1   7  -1  133.99    7.40
  -1   7  -1  125.29    6.40
   1  -7   1  127.79   13.30
   1  -7   1  161.98   12.50
  -2   7  -1   28.10    9.80
   2  -7   1   31.90    7.50
   2  -7   1   43.70    9.80
   2  -7   1   22.80    8.70
   7   6  -1  246.58   19.50
   6   6  -1   10.80    8.10
  -6  -6   1   -0.80    9.80
  -6  -6   1   23.40    7.90
   5   6  -1   20.50    3.50
   5   6  -1   14.60    7.60
  -5  -6   1   29.30   10.10
  -5  -6   1   20.10    7.40
   4   6  -1  275.67   15.60
   4   6  -1  252.27   10.90
  -4  -6   1  233.98   10.80
  -4  -6   1  173.68   22.20
  -4  -6   1  251.47   15.10
   3   6  -1  791.72   33.00
   3   6  -1  803.92   29.80
  -3  -6   1  767.62   32.20
  -3  -6   1  796.62   30.30
   2   6  -1   45.40    6.90
   2   6  -1   57.29    6.30
  -2  -6   1   52.99    8.70
  -2  -6   1   45.60    6.90
   1   6  -1   87.99    7.70
   1   6  -1   76.49    9.10
  -1  -6   1   80.39    9.10
  -1  -6   1   99.29    9.00
   0   6  -1  165.08   10.60
   0  -6   1  139.39   10.10
   0  -6   1  146.69   11.10
  -1   6  -1   16.40    7.10
  -1   6  -1   16.30    3.80
   1  -6   1   18.30    5.30
   1  -6   1   13.20    6.00
   1  -6   1   13.60    6.40
  -2   6  -1   52.69    9.10
   2  -6   1   50.79    6.90
   2  -6   1   62.19    8.10
   2  -6   1   58.19    8.20
  -3   6  -1    1.00    8.50
  -3   6  -1   10.00    8.60
   3  -6   1    3.80    8.00
   3  -6   1    0.50    7.30
   3  -6   1    1.80    5.60
   7   5  -1   50.49   13.20
   7   5  -1   25.20    9.20
  -7  -5   1   42.10    8.50
  -7  -5   1   37.90   11.90
   6   5  -1   70.89    9.80
   6   5  -1   74.19   11.00
  -6  -5   1   85.99   13.80
  -6  -5   1   71.59    8.50
   5   5  -1  479.55   22.80
  -5  -5   1  470.75   25.40
   4   5  -1  686.63   29.00
  -4  -5   1  676.53   30.50
  -4  -5   1  695.93   24.90
   3   5  -1  228.98   12.90
   3   5  -1  219.68   10.10
  -3  -5   1  226.28   14.30
  -3  -5   1  205.28   12.40
  -3  -5   1  228.58   10.00
   2   5  -1   23.40    3.50
  -2  -5   1   21.30    3.80
  -2  -5   1   21.90    4.90
  -2  -5   1   22.80    6.20
   1   5  -1  256.67   13.20
   1   5  -1  273.57   12.00
  -1  -5   1  253.27   12.60
  -1  -5   1  252.97   12.30
   0   5  -1  456.05   19.20
   0   5  -1  460.05   19.70
   0  -5   1  483.15   19.50
   0  -5   1  442.66   19.30
  -1   5  -1  790.32   30.20
  -1   5  -1  728.73   28.50
  -1   5  -1  741.83   30.90
   1  -5   1  746.03   29.30
   1  -5   1  761.42   30.50
   1  -5   1  770.82   30.20
  -2   5  -1  158.08   12.80
   2  -5   1  173.98   11.90
   2  -5   1  186.78   12.30
   2  -5   1  179.88   10.30
  -3   5  -1  135.59   13.00
  -3   5  -1  149.79   12.50
   3  -5   1  183.88   12.40
   3  -5   1  145.19   10.20
   3  -5   1  136.79   12.30
  -4   5  -1   62.79   10.30
  -4   5  -1   78.29   10.70
   4  -5   1   53.59    9.20
   4  -5   1   79.59    9.40
   4  -5   1   70.19    9.50
   8   4  -1   91.79   10.60
   8   4  -1   92.29   15.10
   8   4  -1   91.79   13.30
  -8  -4   1   90.79   10.70
   7   4  -1   10.20    8.50
   7   4  -1   32.60    9.80
  -7  -4   1   16.50    6.90
  -7  -4   1    4.10    9.30
   6   4  -1  307.07   17.80
   6   4  -1  314.07   19.90
  -6  -4   1  281.87   15.20
  -6  -4   1  303.97   19.80
   5   4  -1  380.06   19.80
   5   4  -1  378.36   18.70
  -5  -4   1  353.86   20.40
   4   4  -1   91.89    9.10
   4   4  -1  108.39   10.20
  -4  -4   1   96.19    8.80
  -4  -4   1   95.89   11.40
   3   4  -1    7.80    3.80
  -3  -4   1    2.60    1.80
  -3  -4   1    6.50    4.00
  -3  -4   1    2.70    5.00
   2   4  -1  219.48    9.80
   2   4  -1  232.48   11.30
  -2  -4   1  233.58   12.60
  -2  -4   1  212.18   11.00
  -2  -4   1  224.08    9.80
   1   4  -1 1459.55   53.29
   1   4  -1 1448.85   52.59
  -1  -4   1 1437.36   53.09
  -1  -4   1 1468.15   52.79
   0   4  -1  340.07   14.40
   0   4  -1  336.07   14.60
   0  -4   1  342.17   14.30
   0  -4   1  352.76   14.80
   0  -4   1  339.47   14.50
  -1   4  -1   68.29    6.30
  -1   4  -1   56.39    5.20
   1  -4   1   56.29    5.70
   1  -4   1   66.09    6.90
   1  -4   1   63.89    5.70
  -2   4  -1  583.84   24.90
   2  -4   1  600.84   23.20
   2  -4   1  585.34   24.60
   2  -4   1  605.94   24.50
  -3   4  -1  288.87   15.50
  -3   4  -1  281.17   14.80
   3  -4   1  223.68   16.40
   3  -4   1  287.07   13.00
   3  -4   1  292.07   14.90
  -4   4  -1  197.58   14.00
  -4   4  -1  202.68   14.90
   4  -4   1  191.68   13.60
   4  -4   1  226.58   13.40
   4  -4   1  214.98   11.60
  -5   4  -1   -5.90    8.20
  -5   4  -1   -0.60    7.50
   5  -4   1   -2.60    7.00
   5  -4   1   -0.90    6.80
   5  -4   1   -3.80    5.10
   8   3  -1   -4.00   10.60
   8   3  -1   -3.10    9.10
   8   3  -1    6.20    6.40
   8   3  -1    2.60   12.20
  -8  -3   1   12.20    7.90
   7   3  -1  116.39   11.90
   7   3  -1  135.39   17.50
  -7  -3   1  114.69   15.40
  -7  -3   1  113.59   10.60
   6   3  -1  271.07   16.40
  -6  -3   1  269.27   17.90
  -6  -3   1  227.28   13.20
   5   3  -1  452.95   23.00
   5   3  -1  469.05   21.30
  -5  -3   1  466.45   19.10
  -5  -3   1  455.65   22.40
   4   3  -1   32.20    6.40
  -4  -3   1   20.90    6.10
   3   3  -1 1240.38   46.90
   3   3  -1 1372.06   48.20
  -3  -3   1 1237.38   44.30
  -3  -3   1 1238.48   46.80
  -3  -3   1 1208.98   48.10
   2   3  -1  787.52   30.10
  -2  -3   1  836.92   31.30
  -2  -3   1  778.62   30.00
  -2  -3   1  773.82   28.70
   1   3  -1  660.63   25.10
   1   3  -1  673.73   24.70
  -1  -3   1  674.83   24.60
  -1  -3   1  666.33   26.20
  -1  -3   1  637.74   25.00
   0   3  -1  234.28   10.10
   0   3  -1  236.98   10.10
   0  -3   1  230.38   10.00
   0  -3   1  232.68   10.10
   0  -3   1  229.18   10.20
  -1   3  -1  489.75   19.90
  -1   3  -1  551.74   20.80
   1  -3   1  529.35   20.80
   1  -3   1  535.65   20.90
   1  -3   1  532.95   20.10
  -2   3  -1  758.82   28.30
  -2   3  -1  702.83   27.80
  -2   3  -1  695.83   25.50
   2  -3   1  734.93   26.80
   2  -3   1  706.63   27.80
   2  -3   1  697.43   27.80
  -3   3  -1  345.67   15.70
   3  -3   1  337.37   15.70
   3  -3   1  342.27   14.20
   3  -3   1  325.57   15.70
  -4   3  -1   -1.10    5.30
  -4   3  -1    7.20    6.00
   4  -3   1    5.50    4.90
  -5   3  -1   59.29    9.00
  -5   3  -1   52.99    9.20
   5  -3   1   58.99    7.80
  -6   3  -1  256.27   19.90
  -6   3  -1  284.47   18.70
   6  -3   1  318.87   20.90
   6  -3   1  307.67   17.30
   6  -3   1  273.37   18.60
   8   2  -1   13.80   11.70
   8   2  -1    5.70    9.10
   8   2  -1   -4.10   10.30
   8   2  -1    5.50    7.20
   8   2  -1    3.40    3.30
  -8  -2   1   16.00    7.80
   7   2  -1  133.49   15.10
   7   2  -1  148.59    7.60
   7   2  -1  152.08   11.80
   7   2  -1  162.78   14.40
   7   2  -1  150.68   17.20
  -7  -2   1  148.49   11.20
   6   2  -1  204.68    8.70
   6   2  -1  205.58   14.30
   6   2  -1  200.68   14.60
  -6  -2   1  220.48   15.20
  -6  -2   1  187.88   11.30
   5   2  -1  172.88   13.10
   5   2  -1  199.18   11.80
  -5  -2   1  182.58    9.70
  -5  -2   1  174.48   12.80
   4   2  -1  741.63   28.70
   4   2  -1  658.03   29.50
  -4  -2   1  719.83   29.80
  -4  -2   1  739.23   26.90
   3   2  -1  925.51   36.10
   3   2  -1  945.11   34.90
  -3  -2   1  892.91   36.00
   2   2  -1  623.74   23.60
   2   2  -1  586.74   22.60
  -2  -2   1  564.14   22.50
  -2  -2   1  574.84   23.60
   1   2  -1    4.70    2.10
  -1  -2   1    8.70    2.30
  -1  -2   1    8.00    2.10
   0   2  -1 1746.13   62.29
   0   2  -1 1767.22   62.49
   0  -2   1 1711.03   62.29
   0  -2   1 1785.02   62.49
  -1   2  -1 1918.31   72.09
  -1   2  -1 2056.99   72.69
   1  -2   1 2044.60   71.99
   1  -2   1 2054.69   72.69
   1  -2   1 2090.79   72.79
  -2   2  -1  920.51   33.80
  -2   2  -1  955.00   34.20
  -2   2  -1  902.41   34.00
  -2   2  -1  885.91   32.50
   2  -2   1  903.91   34.00
   2  -2   1  879.71   33.00
   2  -2   1  938.91   34.10
  -3   2  -1  294.17   13.20
  -3   2  -1  314.27   14.10
   3  -2   1  303.97   13.60
   3  -2   1  295.17   13.70
   3  -2   1  302.07   11.80
  -4   2  -1  360.86   16.90
   4  -2   1  366.46   17.00
   4  -2   1  362.76   14.40
   4  -2   1  353.96   16.80
   4  -2   1  417.36   16.60
  -5   2  -1  437.96   20.80
  -5   2  -1  442.66   21.80
   5  -2   1  456.35   20.90
   5  -2   1  443.86   20.00
   5  -2   1  462.95   20.90
   5  -2   1  458.35   17.50
  -6   2  -1   99.39   10.50
   6  -2   1   97.69   10.80
   6  -2   1  103.39   10.40
   6  -2   1   96.89    6.80
   6  -2   1  115.39   13.10
   6  -2   1   94.39   11.80
  -7   2  -1    0.20    8.80
   7  -2   1   -9.70    9.20
   7  -2   1   -2.70    6.90
   7  -2   1    4.10    8.40
   7  -2   1  -11.00    6.60
   7  -2   1   -4.30    8.30
   7  -2   1    1.30    3.50
   8   1  -1    6.10   10.80
   8   1  -1    8.30    7.90
   8   1  -1   12.40    7.60
   8   1  -1   13.90   11.00
   8   1  -1   27.50   11.10
  -8  -1   1    8.20    7.70
   7   1  -1  518.75   26.20
   7   1  -1  498.85   25.90
   7   1  -1  531.85   27.70
   7   1  -1  536.85   20.90
   7   1  -1  508.25   23.20
  -7  -1   1  483.85   22.20
  -7  -1   1  480.45   23.50
   6   1  -1   -0.60    3.00
   6   1  -1    3.80    7.10
   6   1  -1   -5.30    6.00
   6   1  -1    4.90    6.80
  -6  -1   1    3.80    6.30
  -6  -1   1    3.10    4.70
   5   1  -1  196.88    8.70
   5   1  -1  180.08   12.90
   5   1  -1  174.38   12.50
  -5  -1   1  192.98   10.60
  -5  -1   1  195.48    9.70
   4   1  -1  147.09    9.50
   4   1  -1  134.29   10.10
   4   1  -1  139.79    6.50
  -4  -1   1  147.69   10.20
  -4  -1   1  147.89    8.80
  -4  -1   1  139.69    7.30
   3   1  -1  422.46   17.40
   3   1  -1  422.46   15.30
   3   1  -1  403.06   18.00
  -3  -1   1  405.96   17.90
  -3  -1   1  412.36   16.50
  -3  -1   1  410.76   15.30
  -3  -1   1  418.06   15.80
   2   1  -1   46.80    4.50
   2   1  -1   44.10    5.20
  -2  -1   1   52.69    3.20
  -2  -1   1   48.60    2.40
  -2  -1   1   41.40    5.20
   1   1  -1   82.09    5.40
   1   1  -1   78.59    4.40
  -1  -1   1   71.59    5.20
  -1  -1   1   81.29    4.20
   0  -1   1 4412.56  155.68
  -1   1  -1  738.23   25.70
  -1   1  -1  711.73   25.50
  -1   1  -1  711.63   25.80
   1  -1   1  687.43   25.60
   1  -1   1  695.23   25.10
   1  -1   1  688.13   25.80
  -2   1  -1   87.29    5.00
  -2   1  -1   84.69    5.30
  -2   1  -1   87.69    5.10
  -2   1  -1   81.09    4.00
   2  -1   1   85.69    5.10
   2  -1   1   87.79    4.90
   2  -1   1   84.79    4.20
   2  -1   1   81.09    5.10
  -3   1  -1  294.27   12.90
  -3   1  -1  308.37   13.30
   3  -1   1  306.87   11.80
   3  -1   1  285.07   12.90
   3  -1   1  300.37   12.90
   3  -1   1  300.67   12.80
  -4   1  -1 1185.98   46.00
  -4   1  -1 1249.28   46.90
   4  -1   1 1259.77   44.90
   4  -1   1 1255.77   46.30
   4  -1   1 1241.68   45.80
   4  -1   1 1247.58   46.30
  -5   1  -1  524.35   22.50
   5  -1   1  520.05   22.50
   5  -1   1  542.65   20.60
   5  -1   1  502.35   22.50
  -6   1  -1   42.90    7.90
   6  -1   1   45.50    6.30
   6  -1   1   35.30    7.30
   6  -1   1   40.60    7.70
   6  -1   1   41.40    7.30
   6  -1   1   35.90    4.70
  -7   1  -1  163.68   12.80
   7  -1   1  176.98   12.70
   7  -1   1  159.28   14.70
   7  -1   1  173.58   14.60
   7  -1   1  155.78   16.10
   7  -1   1  171.78   10.90
   7  -1   1  166.68   13.50
   7   0  -1   25.00    7.60
   7   0  -1   23.20    9.50
   7   0  -1   28.70    9.20
   7   0  -1   31.70    6.20
   7   0  -1   26.00    5.30
   7   0  -1   38.60    9.60
  -7   0   1   21.80    9.40
  -7   0   1   22.10    7.20
   6   0  -1   23.90    4.50
   6   0  -1   27.00    7.60
   6   0  -1   29.80    6.60
   6   0  -1   36.10    8.20
   6   0  -1   30.70    8.00
  -6   0   1   31.80    5.90
  -6   0   1   27.30    6.30
   5   0  -1  474.65   22.30
   5   0  -1  490.45   19.60
  -5   0   1  488.55   21.60
  -5   0   1  507.55   20.10
   4   0  -1  616.64   23.00
   4   0  -1  593.74   25.00
   4   0  -1  606.14   25.50
  -4   0   1  586.64   22.90
  -4   0   1  601.94   24.30
  -4   0   1  621.34   23.20
   3   0  -1  110.59    5.80
   3   0  -1  116.49    8.00
   3   0  -1  109.69    7.60
  -3   0   1  120.99    7.10
  -3   0   1  113.79    5.60
  -3   0   1  114.49    5.90
   2   0  -1  342.07   13.30
   2   0  -1  334.67   14.30
   2   0  -1  355.96   14.80
  -2   0   1  371.36   14.90
  -2   0   1  346.17   13.30
  -2   0   1  342.47   13.70
  -2   0   1  372.46   13.10
   1   0  -1 1002.00   37.40
   1   0  -1 1014.80   36.50
  -1   0   1 1001.00   36.50
  -1   0   1 1025.20   37.50
  -1   0   1 1030.00   36.60
  -1   0   1 1079.79   36.20
   0   0  -1  152.78    6.30
   0   0  -1  151.08    6.40
   0   0   1  155.98    5.50
   0   0   1  146.79    6.30
   0   0   1  152.58    6.20
  -1   0  -1  105.19    4.10
  -1   0  -1  103.29    3.90
  -1   0  -1   90.29    3.70
  -1   0  -1   93.49    4.20
  -1   0  -1  100.49    4.20
  -1   0  -1   96.49    4.00
   1   0   1   99.19    4.30
   1   0   1   89.89    4.20
   1   0   1   96.99    3.60
   1   0   1   92.29    3.90
  -2   0  -1  361.36   13.80
  -2   0  -1  363.16   14.20
  -2   0  -1  390.16   14.00
  -2   0  -1  392.26   13.90
  -2   0  -1  363.76   14.00
   2   0   1  364.86   13.70
   2   0   1  355.06   14.00
   2   0   1  373.96   14.10
   2   0   1  348.97   13.80
  -3   0  -1  755.82   27.80
  -3   0  -1  783.92   27.50
   3   0   1  733.23   27.70
   3   0   1  742.23   27.40
   3   0   1  713.33   27.50
   3   0   1  726.73   27.50
   3   0   1  764.22   28.00
  -4   0  -1  463.15   17.90
  -4   0  -1  452.75   18.10
   4   0   1  433.66   18.10
   4   0   1  446.96   18.60
   4   0   1  443.26   17.90
   4   0   1  464.75   17.80
   4   0   1  443.76   17.60
   4   0   1  439.26   18.80
  -5   0  -1    4.70    4.30
  -5   0  -1    3.40    4.80
   5   0   1    0.70    3.90
   5   0   1    4.20    4.30
   5   0   1    0.70    3.20
   5   0   1    2.70    3.10
   5   0   1   -5.90    4.00
   5   0   1    0.90    3.90
  -6   0  -1  164.28   11.00
  -6   0  -1  177.98   10.80
   6   0   1  133.59    9.30
   6   0   1  177.08   14.00
   6   0   1  176.08   11.30
   6   0   1  180.88   10.30
  -7   0  -1  338.47   17.90
  -7   0  -1  332.27   19.20
   7   0   1  366.86   18.20
   7   0   1  350.46   18.80
   7   0   1  337.47   16.50
   7   0   1  357.56   20.50
   7   0   1  334.77   19.20
   8   0   1  204.28   13.50
   8   0   1  186.78   13.60
   8   0   1  183.68   19.10
   8   0   1  219.78   15.80
   8   0   1  170.58   15.90
   8   0   1  219.28   17.60
   7  -1  -1    2.10    5.90
   7  -1  -1    4.00    4.70
   7  -1  -1    9.30    9.50
   7  -1  -1   -6.00    8.60
   7  -1  -1   -4.90    8.80
   7  -1  -1    0.70    7.60
  -7   1   1  -10.10    8.70
   6  -1  -1  349.77   20.00
   6  -1  -1  369.26   18.60
   6  -1  -1  375.46   20.80
   6  -1  -1  349.87   15.70
   6  -1  -1  348.07   16.90
  -6   1   1  336.07   17.80
   5  -1  -1  528.65   25.30
   5  -1  -1  576.84   24.90
   5  -1  -1  577.94   22.50
   5  -1  -1  530.85   24.10
  -5   1   1  552.54   24.30
   4  -1  -1  173.38    9.10
   4  -1  -1  160.58   10.70
   4  -1  -1  168.88   11.20
  -4   1   1  153.48   10.20
  -4   1   1  165.68    9.40
  -4   1   1  163.48    8.50
   3  -1  -1    2.40    3.50
   3  -1  -1    2.90    2.60
   3  -1  -1    2.80    3.80
  -3   1   1    3.50    2.70
  -3   1   1   -0.90    3.20
  -3   1   1    3.50    2.60
  -3   1   1    2.80    3.60
   2  -1  -1  948.01   34.80
   2  -1  -1  914.51   34.10
   2  -1  -1  985.80   35.40
  -2   1   1  925.01   34.70
  -2   1   1  899.11   34.10
  -2   1   1  944.11   34.50
   1  -1  -1 5005.30  172.48
   1  -1  -1 4845.92  172.18
  -1   1   1 4859.11  172.38
  -1   1   1 4865.41  172.28
   0  -1  -1   85.79    3.90
   0  -1  -1   82.79    3.60
   0   1   1   84.19    3.60
   0   1   1   79.79    3.90
   0   1   1   79.59    3.70
  -1  -1  -1  356.26   12.10
  -1  -1  -1  315.97   12.40
  -1  -1  -1  332.37   12.50
   1   1   1  328.87   12.50
   1   1   1  333.87   12.40
   1   1   1  334.57   12.50
  -2  -1  -1 1213.38   40.40
  -2  -1  -1 1110.79   40.20
  -2  -1  -1 1146.69   40.60
   2   1   1 1156.98   40.50
   2   1   1 1090.19   40.20
   2   1   1 1152.18   40.70
   2   1   1 1046.60   40.30
  -3  -1  -1  128.49    6.10
  -3  -1  -1  127.19    6.40
   3   1   1  129.19    6.40
   3   1   1  131.19    6.50
   3   1   1  124.29    6.50
   3   1   1  116.69    5.80
  -4  -1  -1   90.09    5.70
  -4  -1  -1   83.29    6.30
   4   1   1   82.99    5.70
   4   1   1   77.09    6.30
   4   1   1   87.89    5.80
   4   1   1   79.79    4.90
   4   1   1   85.39    6.70
   4   1   1   78.59    6.10
  -5  -1  -1   44.70    5.90
  -5  -1  -1   47.20    4.90
   5   1   1   38.10    4.90
   5   1   1   52.39    4.80
   5   1   1   39.80    4.70
   5   1   1   49.10    5.60
   5   1   1   40.90    5.60
   5   1   1   43.20    5.80
  -6  -1  -1 1066.99   40.40
  -6  -1  -1 1064.39   41.20
   6   1   1 1064.39   40.60
   6   1   1 1078.99   41.90
   6   1   1  954.70   40.60
   6   1   1 1128.19   40.50
   6   1   1 1060.09   42.20
   6   1   1 1105.39   39.50
  -7  -1  -1    4.50    7.10
  -7  -1  -1    9.80    6.60
   7   1   1    7.60    5.30
   7   1   1    3.10    5.70
   7   1   1    3.90    3.90
   7   1   1    9.50    5.80
   7   1   1    7.80    7.00
  -8  -1  -1   19.70    8.10
   8   1   1    5.70   16.70
   8   1   1   11.50    9.20
   8   1   1   13.70    6.90
   8   1   1   13.70    7.20
   8   1   1   17.80    7.80
   7  -2  -1   80.79   13.00
   7  -2  -1   94.69   14.30
   7  -2  -1  123.89    8.80
   7  -2  -1  117.19    7.60
   7  -2  -1  107.79   12.80
   6  -2  -1  190.38   16.80
   6  -2  -1  182.48   12.40
   6  -2  -1  173.18   15.50
   6  -2  -1  182.38    9.00
   6  -2  -1  174.08   14.60
  -6   2   1  171.68   15.50
   5  -2  -1   49.50    6.50
   5  -2  -1   52.99    7.80
   5  -2  -1   59.19    8.40
   5  -2  -1   53.49    4.70
  -5   2   1   62.49    8.70
   4  -2  -1   16.00    2.20
   4  -2  -1   20.10    4.90
   4  -2  -1   16.00    4.40
   4  -2  -1   21.50    6.00
  -4   2   1   19.20    4.90
  -4   2   1   13.80    5.90
  -4   2   1   14.20    5.40
   3  -2  -1  897.41   34.20
   3  -2  -1  942.71   36.20
   3  -2  -1  958.00   36.60
   3  -2  -1  969.40   35.90
  -3   2   1 1007.40   36.70
  -3   2   1  957.40   36.00
  -3   2   1  935.11   36.30
   2  -2  -1 1220.58   45.00
   2  -2  -1 1192.08   43.00
   2  -2  -1 1216.18   44.60
  -2   2   1 1238.98   44.80
  -2   2   1 1226.68   45.00
  -2   2   1 1210.08   44.60
   1  -2  -1 1075.19   37.70
   1  -2  -1  975.20   36.30
  -1   2   1 1058.69   37.70
  -1   2   1 1007.90   37.50
   0  -2  -1    5.70    1.80
   0  -2  -1    2.40    1.90
   0   2   1    1.70    1.70
   0   2   1    2.40    1.10
  -1  -2  -1  887.41   31.90
  -1  -2  -1  881.01   32.10
   1   2   1  875.41   31.90
   1   2   1  878.21   32.10
   1   2   1  896.31   31.80
  -2  -2  -1 2106.99   74.89
  -2  -2  -1 2134.19   75.19
   2   2   1 2013.70   74.39
   2   2   1 2181.38   75.19
  -3  -2  -1 1751.22   63.39
  -3  -2  -1 1880.11   62.89
  -3  -2  -1 1698.03   63.09
   3   2   1 1802.42   63.29
   3   2   1 1658.73   62.29
   3   2   1 1772.62   63.09
  -4  -2  -1  863.41   30.50
  -4  -2  -1  816.02   29.90
  -4  -2  -1  837.12   31.00
   4   2   1  803.22   29.60
   4   2   1  718.13   30.60
   4   2   1  801.22   30.60
  -5  -2  -1  619.14   24.00
   5   2   1  627.24   24.90
   5   2   1  648.54   24.70
   5   2   1  573.54   25.30
   5   2   1  601.44   23.70
   5   2   1  626.94   22.70
  -6  -2  -1  240.48   11.90
   6   2   1  235.58    9.90
   6   2   1  209.18   13.90
   6   2   1  220.98   11.60
   6   2   1  230.98   12.30
   6   2   1  213.08   13.70
  -7  -2  -1    7.60    6.00
   7   2   1    1.30    7.00
   7   2   1    0.00    5.70
   7   2   1   -7.30    5.20
   7   2   1    3.50    4.60
   7   2   1    3.40    3.00
  -8  -2  -1   15.90    8.10
   8   2   1   21.90    4.20
   8   2   1   20.70    7.00
   8   2   1   16.30    6.80
   8   2   1   27.80    8.00
   8   2   1   39.30    9.60
   8   2   1   26.00    9.40
   6  -3  -1   10.60    7.00
   6  -3  -1    4.80    8.40
   6  -3  -1    6.40    9.40
   6  -3  -1   22.10   10.50
  -6   3   1    6.20    9.90
   5  -3  -1   26.50    6.60
   5  -3  -1   29.20    8.10
   5  -3  -1   27.50    9.00
  -5   3   1   50.09    8.80
  -5   3   1   29.40    8.70
   4  -3  -1  431.86   19.90
   4  -3  -1  398.16   18.60
  -4   3   1  379.96   18.60
   3  -3  -1  571.04   23.30
   3  -3  -1  553.74   22.50
   3  -3  -1  528.95   22.70
  -3   3   1  549.35   22.90
  -3   3   1  556.84   22.80
  -3   3   1  495.75   22.80
   2  -3  -1  127.39    7.90
   2  -3  -1  119.69    7.90
  -2   3   1  140.59    8.60
  -2   3   1  119.09    8.20
   1  -3  -1    0.30    2.60
   1  -3  -1    3.70    2.90
   1  -3  -1    2.20    2.80
  -1   3   1    1.80    2.90
  -1   3   1    4.60    2.90
  -1   3   1    4.90    0.90
   0  -3  -1 1487.95   55.19
   0  -3  -1 1587.54   55.79
   0  -3  -1 1563.64   55.79
   0   3   1 1516.15   54.79
   0   3   1 1552.44   55.69
  -1  -3  -1  877.11   32.30
  -1  -3  -1  869.91   31.60
  -1  -3  -1  851.41   32.60
   1   3   1  886.01   32.20
   1   3   1  921.31   32.70
   1   3   1  890.11   32.20
  -2  -3  -1 1207.48   44.30
  -2  -3  -1 1221.88   43.60
   2   3   1 1213.58   44.30
   2   3   1 1205.38   43.40
  -3  -3  -1    1.70    2.80
  -3  -3  -1    3.20    3.00
   3   3   1    4.60    1.30
   3   3   1    7.10    3.00
   3   3   1    5.20    0.70
  -4  -3  -1  803.82   30.60
  -4  -3  -1  789.82   29.60
  -4  -3  -1  758.62   30.40
   4   3   1  800.42   30.50
   4   3   1  760.02   28.50
   4   3   1  854.41   30.20
   4   3   1  775.52   28.20
  -5  -3  -1  533.75   22.50
  -5  -3  -1  551.44   22.10
  -5  -3  -1  523.85   21.30
   5   3   1  506.25   19.10
   5   3   1  535.75   22.20
   5   3   1  589.84   22.10
   5   3   1  512.05   20.20
   5   3   1  508.05   19.00
  -6  -3  -1  247.88   12.10
   6   3   1  241.78   14.80
   6   3   1  252.67   13.80
   6   3   1  253.67    9.60
   6   3   1  257.87   13.80
   6   3   1  255.47   11.70
  -7  -3  -1   29.50    6.80
   7   3   1   25.10    8.20
   7   3   1   31.10    7.70
   7   3   1   32.70    5.10
   7   3   1   22.40    6.60
   7   3   1   30.10    3.00
  -8  -3  -1  229.68   15.20
   8   3   1  236.78   15.60
   8   3   1  250.57   18.00
   8   3   1  225.48    9.20
   8   3   1  214.88   15.70
   8   3   1  220.08   13.70
   5  -4  -1  106.89   12.50
   5  -4  -1  121.59   13.70
   5  -4  -1  115.59   16.10
  -5   4   1  105.69   12.20
  -5   4   1   98.89   12.60
   4  -4  -1  168.88   12.60
   4  -4  -1  216.98   13.20
  -4   4   1  145.89   13.90
  -4   4   1  170.88   13.90
   3  -4  -1  446.36   20.10
   3  -4  -1  487.35   21.10
   3  -4  -1  414.56   24.40
  -3   4   1  452.35   21.20
  -3   4   1  468.05   20.90
   2  -4  -1  210.58   12.00
   2  -4  -1  221.28   11.90
   2  -4  -1  215.88   11.70
  -2   4   1  216.38   12.30
  -2   4   1  233.58   12.60
   1  -4  -1  708.83   26.80
   1  -4  -1  666.83   26.60
   1  -4  -1  648.24   26.30
  -1   4   1  669.93   24.20
  -1   4   1  737.73   27.00
  -1   4   1  653.43   26.80
   0  -4  -1 1663.33   58.99
   0  -4  -1 1649.63   59.59
   0  -4  -1 1638.64   59.59
   0   4   1 1622.04   58.29
   0   4   1 1598.54   59.39
  -1  -4  -1  141.79    7.60
  -1  -4  -1  142.59    8.00
  -1  -4  -1  133.99    6.40
   1   4   1  135.39    7.90
   1   4   1  125.79    7.10
   1   4   1  129.29    6.80
  -2  -4  -1  149.39    7.20
  -2  -4  -1  132.09    8.10
   2   4   1  131.09    6.70
   2   4   1  135.69    8.10
  -3  -4  -1  525.05   19.70
  -3  -4  -1  525.65   21.20
  -3  -4  -1  529.25   21.10
   3   4   1  501.55   21.00
   3   4   1  501.05   19.20
  -4  -4  -1  749.13   29.70
  -4  -4  -1  704.83   29.90
   4   4   1  809.32   29.70
   4   4   1  744.23   26.90
  -5  -4  -1  318.27   15.70
  -5  -4  -1  323.37   15.90
  -5  -4  -1  293.17   14.10
   5   4   1  307.97   11.90
   5   4   1  303.97   15.20
  -6  -4  -1    0.40    4.90
  -6  -4  -1    4.20    5.90
  -6  -4  -1   -0.60    5.10
   6   4   1    2.30    2.70
   6   4   1    8.20    5.70
   6   4   1    7.00    4.90
  -7  -4  -1  240.08   14.30
   7   4   1  247.08   12.00
   7   4   1  257.77   15.90
   7   4   1  251.87   15.60
   7   4   1  255.17   15.50
  -8  -4  -1  189.38   14.20
   8   4   1  179.58   11.40
   8   4   1  183.58   16.10
   8   4   1  151.88   15.70
   4  -5  -1   54.29    9.60
   4  -5  -1   63.09    8.60
   4  -5  -1   45.50    8.50
  -4   5   1   60.79   10.10
  -4   5   1   52.89   10.00
   3  -5  -1   18.80    6.50
   3  -5  -1   27.70    6.90
  -3   5   1   47.20    8.10
  -3   5   1   28.00    8.00
   2  -5  -1  532.65   22.30
   2  -5  -1  467.75   23.80
   2  -5  -1  527.95   23.00
  -2   5   1  540.35   23.10
   1  -5  -1  314.27   16.00
   1  -5  -1  343.47   15.60
   1  -5  -1  333.67   15.60
  -1   5   1  323.47   16.10
  -1   5   1  335.77   16.30
   0  -5  -1  145.79   10.10
   0  -5  -1  166.18    9.10
   0   5   1  156.88    9.70
   0   5   1  159.18    7.50
  -1  -5  -1    3.20    3.70
  -1  -5  -1    4.10    2.60
  -1  -5  -1    0.50    3.90
   1   5   1    2.10    3.30
   1   5   1   -0.60    2.60
  -2  -5  -1  660.53   25.70
  -2  -5  -1  684.13   26.80
   2   5   1  641.54   25.40
   2   5   1  682.23   26.50
  -3  -5  -1 1425.06   53.59
  -3  -5  -1 1506.45   54.99
  -3  -5  -1 1561.04   55.59
   3   5   1 1448.76   53.19
   3   5   1 1446.06   54.99
  -4  -5  -1  564.04   24.30
  -4  -5  -1  559.84   23.60
   4   5   1  560.14   23.60
   4   5   1  538.55   20.50
  -5  -5  -1  308.77   17.30
  -5  -5  -1  321.67   17.00
   5   5   1  335.77   16.60
  -6  -5  -1  250.87   14.30
  -6  -5  -1  284.67   16.50
   6   5   1  270.17   10.40
   6   5   1  267.47   16.30
  -7  -5  -1  123.99   11.90
  -7  -5  -1  146.89   13.20
   7   5   1  133.99   13.90
   7   5   1  142.99   13.10
   7   5   1  140.99    7.50
   8   5   1  120.09   12.80
   8   5   1  139.99    8.80
   8   5   1  128.29   14.50
   3  -6  -1  113.69   13.20
   3  -6  -1   81.39    9.50
   3  -6  -1   99.09   11.00
  -3   6   1   89.99   11.80
  -3   6   1   91.29   11.10
   2  -6  -1   15.30    6.40
   2  -6  -1   10.60    6.70
  -2   6   1   21.10    7.20
   1  -6  -1   62.59    7.90
  -1   6   1   67.89    8.30
   0  -6  -1   11.40    5.40
   0  -6  -1   10.30    5.30
   0  -6  -1    7.10    4.30
   0   6   1   14.50    5.20
   0   6   1    9.00    2.80
  -1  -6  -1  124.59    8.20
  -1  -6  -1  123.59   10.60
  -1  -6  -1  136.09    9.60
   1   6   1  138.59   10.00
   1   6   1  132.79   10.30
   1   6   1  128.59    8.00
  -2  -6  -1  922.31   35.70
  -2  -6  -1  936.31   34.50
   2   6   1  861.71   34.30
   2   6   1  882.61   35.60
   2   6   1  877.91   34.20
  -3  -6  -1  181.48   12.90
  -3  -6  -1  177.88    9.90
   3   6   1  167.88    9.30
   3   6   1  176.98   11.80
  -4  -6  -1  151.38   12.20
  -4  -6  -1  140.19   12.10
  -4  -6  -1  138.09    8.50
  -5  -6  -1   11.90    6.90
   5   6   1   25.60    6.50
  -6  -6  -1  650.33   30.80
  -6  -6  -1  659.43   27.50
   6   6   1  707.93   30.10
  -7  -6  -1  205.98   14.10
  -7  -6  -1  192.68   16.20
  -7  -6  -1  200.68   16.30
   7   6   1  169.88   15.10
   7   6   1  187.88   15.50
  -8  -6  -1    7.10    7.80
  -8  -6  -1   -0.10    9.10
   8   6   1    7.30    9.40
   8   6   1   16.00    9.10
   2  -7  -1  141.09   14.50
   2  -7  -1  153.48   14.70
   2  -7  -1  133.79   14.60
  -2   7   1  135.69   15.60
   1  -7  -1    1.40    6.70
   1  -7  -1    1.40    7.00
  -1   7   1    9.70    7.50
   0  -7  -1  108.69   11.70
   0  -7  -1  100.89    9.70
   0  -7  -1   87.19    9.50
   0   7   1   91.19    6.50
   0   7   1   99.19   10.30
  -1  -7  -1  203.88   13.10
  -1  -7  -1  219.38   14.30
   1   7   1  188.98   10.70
  -2  -7  -1    3.40    4.90
  -2  -7  -1    8.70    6.50
   2   7   1    8.50    6.40
   2   7   1   21.80    4.50
  -3  -7  -1   10.90    6.30
  -3  -7  -1    3.00    8.10
   3   7   1    3.80    6.20
   3   7   1    7.00    5.20
  -4  -7  -1  137.29    9.60
  -4  -7  -1  151.78   14.10
  -4  -7  -1  111.69   12.30
   4   7   1  123.79   11.30
   4   7   1  114.29   12.30
  -5  -7  -1  186.78   14.20
  -5  -7  -1  168.48   15.90
   5   7   1  174.88   13.70
   5   7   1  199.68   14.90
  -6  -7  -1  206.58   15.90
  -6  -7  -1  155.38   17.20
   6   7   1  175.28   15.30
   6   7   1  160.28   14.60
  -7  -7  -1    0.10    9.10
  -7  -7  -1    4.60    8.00
  -7  -7  -1    6.30   11.60
   7   7   1    2.00    9.20
   7   7   1   16.10    8.80
   0  -8  -1   80.29   10.50
   0  -8  -1   84.19   10.30
   0   8   1   57.89   10.70
   0   8   1   67.09    5.90
  -1  -8  -1  116.09   14.20
  -1  -8  -1  113.49   13.50
  -2  -8  -1   -1.60    6.30
  -2  -8  -1    5.30    7.40
   2   8   1    1.10    8.00
   2   8   1   -6.70    5.00
  -3  -8  -1   38.10    7.10
  -3  -8  -1   38.20    9.20
   3   8   1   65.99    9.80
   3   8   1   41.90    7.20
  -4  -8  -1  260.67   17.90
   4   8   1  248.08   16.50
   4   8   1  226.88   17.30
  -5  -8  -1    1.20    8.20
  -5  -8  -1    9.60    5.10
   5   8   1    3.30    7.70
   5   8   1   13.00    8.90
  -6  -8  -1    4.10   10.00
   6   8   1   -6.90    9.00
   6   8   1    9.70    8.90
   3   8  -2   81.69   12.60
  -3  -8   2  102.19   14.90
  -3  -8   2   75.19   11.40
   2   8  -2  126.59   13.90
   2   8  -2  153.58   11.70
  -2  -8   2  134.79   14.10
  -2  -8   2  135.69   15.50
  -2  -8   2  135.59   16.70
   5   7  -2    2.10    4.20
   5   7  -2    5.40    9.10
  -5  -7   2   -0.70   10.80
  -5  -7   2   -9.30    8.70
   4   7  -2   37.50    9.80
   4   7  -2   32.70    5.20
  -4  -7   2   14.60    8.20
  -4  -7   2   30.00   11.00
  -4  -7   2   26.80    4.70
   3   7  -2  442.26   23.80
   3   7  -2  496.35   19.40
  -3  -7   2  448.46   22.80
  -3  -7   2  411.06   25.40
  -3  -7   2  444.06   19.90
   2   7  -2   44.70    8.70
  -2  -7   2   32.90    7.30
  -2  -7   2   20.80   10.30
  -2  -7   2   26.10    6.30
   1   7  -2   18.90    6.10
   1   7  -2   27.80    8.40
  -1  -7   2   20.60    6.80
  -1  -7   2   21.30    9.90
  -1  -7   2   30.80    7.00
   0   7  -2   81.09    9.00
   0   7  -2  106.99   10.80
   0  -7   2   91.79    9.10
   0  -7   2   98.89   13.80
   0  -7   2   97.09   10.20
  -1   7  -2  193.38   17.90
  -1   7  -2  191.28   11.80
   1  -7   2  179.78   14.80
   1  -7   2  199.38   15.40
   6   6  -2   33.20   10.00
  -6  -6   2   58.39   12.90
   5   6  -2  176.18   15.20
  -5  -6   2  157.28   14.20
   4   6  -2  104.49    8.60
   4   6  -2  115.39   12.60
  -4  -6   2  125.09   11.90
  -4  -6   2  113.59    6.90
   3   6  -2   32.40    5.20
   3   6  -2   37.90   11.70
  -3  -6   2   35.70   10.30
  -3  -6   2   44.70    7.40
  -3  -6   2   35.60    4.80
   2   6  -2    4.10    6.20
   2   6  -2    4.70    4.40
   1   6  -2  144.39    9.50
   1   6  -2  156.48   11.50
  -1  -6   2  131.09   10.00
  -1  -6   2  129.99   10.50
   0   6  -2  239.08   13.90
   0   6  -2  229.48   13.80
   0  -6   2  228.98   13.00
   0  -6   2  236.88   14.00
  -1   6  -2  183.48   14.70
  -1   6  -2  231.58   14.00
  -1   6  -2  190.88   11.70
   1  -6   2  195.38   13.60
   1  -6   2  188.58   11.60
  -2   6  -2   11.20    7.80
   2  -6   2   20.80    7.60
   2  -6   2   27.90    5.40
  -3   6  -2   62.99   10.10
  -3   6  -2   54.49   10.50
   3  -6   2   55.49   10.10
   3  -6   2   77.79   10.80
   3  -6   2   53.99    7.80
   7   5  -2   14.00    9.70
   7   5  -2   -8.70   10.60
  -7  -5   2    0.80   11.40
  -7  -5   2   -4.40    7.40
   6   5  -2   10.70   10.20
   6   5  -2   25.00    8.90
   5   5  -2  302.07   18.20
  -5  -5   2  307.07   21.70
   4   5  -2  150.58   14.90
  -4  -5   2  157.08    7.00
  -4  -5   2  151.38   11.90
  -4  -5   2  161.28   17.10
   3   5  -2   14.00    5.90
   3   5  -2    5.40    3.70
  -3  -5   2    5.70    3.00
  -3  -5   2    5.40    5.20
  -3  -5   2    8.60    6.80
   2   5  -2  251.97   12.10
  -2  -5   2  248.48   15.60
  -2  -5   2  241.78   12.90
  -2  -5   2  240.38   11.70
   1   5  -2  353.86   16.00
   1   5  -2  335.57   16.60
  -1  -5   2  373.26   15.90
  -1  -5   2  368.16   18.50
  -1  -5   2  354.76   16.20
   0   5  -2    9.10    4.50
   0  -5   2   -0.60    4.40
   0  -5   2   12.10    3.90
  -1   5  -2   38.70    5.30
  -1   5  -2   43.00    6.40
   1  -5   2   42.50    4.90
   1  -5   2   30.80    6.00
  -2   5  -2  178.38   13.10
  -2   5  -2  191.48   12.40
  -2   5  -2  178.38    8.30
   2  -5   2  178.08   10.00
   2  -5   2  160.28   12.30
   2  -5   2  189.18   14.60
  -3   5  -2  318.87   17.10
  -3   5  -2  314.27   18.10
   3  -5   2  301.07   17.60
   3  -5   2  288.57   17.80
   3  -5   2  304.27   14.00
  -4   5  -2   21.90    8.50
  -4   5  -2   28.40    9.50
   4  -5   2   45.90    5.40
   4  -5   2   39.90    9.40
   4  -5   2   30.80    8.50
   7   4  -2    5.00   10.80
   7   4  -2   29.00    9.90
  -7  -4   2   -6.80   11.30
  -7  -4   2    0.60    7.20
   6   4  -2  229.28   21.20
   6   4  -2  205.08   16.30
  -6  -4   2  224.48   19.90
  -6  -4   2  226.58   13.40
   5   4  -2  453.15   23.80
   5   4  -2  446.56   21.80
  -5  -4   2  421.46   24.10
   4   4  -2   30.50    6.70
  -4  -4   2   39.80    8.60
  -3  -4   2  307.37   17.30
  -3  -4   2  316.67   12.30
  -3  -4   2  303.07   15.00
   2   4  -2  168.08   10.00
  -2  -4   2  174.38    8.40
  -2  -4   2  170.88   10.10
  -2  -4   2  174.78   12.00
   1   4  -2  416.26   17.50
   1   4  -2  417.96   17.10
  -1  -4   2  436.36   19.20
  -1  -4   2  402.76   16.90
  -1  -4   2  389.66   17.10
   0   4  -2   96.79    7.20
   0   4  -2  102.19    7.10
   0  -4   2   99.39    6.80
   0  -4   2  106.89    7.40
  -1   4  -2  984.80   36.00
  -1   4  -2  922.61   35.50
   1  -4   2  929.21   35.90
   1  -4   2  923.21   34.80
  -2   4  -2  299.57   12.60
  -2   4  -2  319.07   15.90
  -2   4  -2  315.67   15.40
   2  -4   2  300.57   12.90
   2  -4   2  307.07   15.20
   2  -4   2  301.47   15.10
  -3   4  -2   29.90    6.60
  -3   4  -2   34.20    6.90
  -3   4  -2   32.40    6.30
   3  -4   2   35.10    4.00
   3  -4   2   28.20    6.70
   3  -4   2   22.90    6.20
  -4   4  -2   27.20    7.90
  -4   4  -2   27.80    6.90
   4  -4   2   30.50    4.30
   4  -4   2   21.00    6.90
   4  -4   2   48.10    7.60
  -5   4  -2   22.40    8.10
  -5   4  -2   28.70    9.30
   5  -4   2   28.80    4.70
   5  -4   2   24.70    8.40
   5  -4   2   22.40    7.80
   7   3  -2  200.58   17.70
   7   3  -2  206.88   20.40
  -7  -3   2  194.58   13.10
   6   3  -2  134.99   13.30
   6   3  -2  142.19   17.40
  -6  -3   2  127.89   15.30
  -6  -3   2  127.59   10.10
   5   3  -2  130.99   11.70
   5   3  -2  144.19   13.70
  -5  -3   2  116.69   13.40
  -5  -3   2  101.69    8.70
   4   3  -2   94.19   10.40
   4   3  -2  104.09    8.90
   3   3  -2  176.68   12.40
   3   3  -2  180.48   10.70
  -3  -3   2  164.38   12.30
   2   3  -2 1437.56   50.69
   2   3  -2 1301.67   48.70
  -2  -3   2 1269.57   50.09
  -2  -3   2 1257.87   48.40
   1   3  -2  288.67   12.50
  -1  -3   2  288.47   14.10
  -1  -3   2  271.77   12.20
   0   3  -2  156.38    8.10
   0   3  -2  147.59    7.50
   0  -3   2  145.29    7.30
  -1   3  -2  817.12   30.80
  -1   3  -2  812.32   31.00
  -1   3  -2  807.42   29.90
   1  -3   2  820.32   31.00
   1  -3   2  806.32   29.70
   1  -3   2  805.42   30.90
  -2   3  -2  291.27   12.50
  -2   3  -2  247.98   10.90
  -2   3  -2  250.87   12.80
   2  -3   2  262.87   12.70
   2  -3   2  245.08   10.50
  -3   3  -2   22.00    5.00
  -3   3  -2   19.80    5.10
  -3   3  -2   16.20    2.30
   3  -3   2   20.50    5.20
   3  -3   2   14.20    4.60
   3  -3   2   21.10    2.90
  -4   3  -2  129.19   11.10
  -4   3  -2  117.29    9.90
   4  -3   2  125.99   11.90
   4  -3   2  119.99    7.20
  -5   3  -2  391.06   21.00
  -5   3  -2  375.66   18.90
   5  -3   2  350.56   15.70
   5  -3   2  388.66   19.20
  -6   3  -2   39.00   10.70
  -6   3  -2   39.60    9.30
   6  -3   2   41.00    5.70
   6  -3   2   37.40    5.40
   6  -3   2   38.70    8.50
   6  -3   2   39.20    9.40
   7   2  -2  298.07   21.60
   7   2  -2  275.27   19.90
   7   2  -2  303.27   20.40
  -7  -2   2  280.17   15.20
   6   2  -2  107.09   11.50
   6   2  -2  117.99   14.40
  -6  -2   2  113.49   14.80
  -6  -2   2  109.39    8.80
   5   2  -2  192.48   13.90
  -5  -2   2  203.98   10.60
  -5  -2   2  225.28   15.60
   4   2  -2  588.44   27.40
  -4  -2   2  610.74   22.30
  -4  -2   2  630.54   27.70
  -4  -2   2  637.74   23.80
   3   2  -2  850.51   32.40
   3   2  -2  823.32   33.80
  -3  -2   2  841.92   29.80
  -3  -2   2  787.12   33.70
   2   2  -2  184.28    9.40
   2   2  -2  186.08   11.10
  -2  -2   2  170.88   10.80
   1   2  -2  271.97   11.90
   1   2  -2  322.87   13.60
  -1  -2   2  279.67   13.40
  -1  -2   2  268.27   11.70
   0   2  -2  157.08    7.70
   0   2  -2  160.08    7.10
   0  -2   2  159.18    7.00
   0  -2   2  154.48    8.80
  -1   2  -2  933.81   33.60
  -1   2  -2  969.70   34.80
  -1   2  -2  925.11   34.80
   1  -2   2  922.21   33.60
  -2   2  -2  183.98    8.30
  -2   2  -2  174.88    7.90
  -2   2  -2  160.68    8.80
  -2   2  -2  170.68    8.70
   2  -2   2  171.58    9.00
   2  -2   2  167.68    6.90
  -3   2  -2    6.90    3.70
  -3   2  -2   14.70    3.90
  -3   2  -2    8.10    2.10
   3  -2   2    6.60    3.80
   3  -2   2    6.00    2.70
   3  -2   2    8.40    1.90
  -4   2  -2  353.46   16.20
   4  -2   2  341.77   16.70
   4  -2   2  359.86   14.90
   4  -2   2  375.16   16.70
  -5   2  -2  418.46   20.70
  -5   2  -2  421.86   19.50
   5  -2   2  442.36   20.20
   5  -2   2  411.56   21.40
   5  -2   2  422.06   17.50
  -6   2  -2    2.70    6.90
   6  -2   2    6.20    4.50
   6  -2   2    0.70    6.80
   6  -2   2    3.20    5.90
   6  -2   2    9.10    4.00
  -7   2  -2   31.30    9.50
   7  -2   2   38.90   11.00
   7  -2   2   42.20    5.20
   7  -2   2   40.90   10.10
   7  -2   2   40.60    8.40
   7   1  -2   28.90   10.30
   7   1  -2   34.50   11.00
   7   1  -2   56.99   10.90
   7   1  -2   51.29    5.60
  -7  -1   2   52.49    7.70
  -7  -1   2   71.29    9.10
   6   1  -2   10.00    8.20
   6   1  -2    8.60    8.40
   6   1  -2    8.70    3.60
  -6  -1   2   -6.30    6.40
  -6  -1   2    0.60    4.50
   5   1  -2  685.83   30.30
   5   1  -2  724.43   31.40
   5   1  -2  735.33   26.90
  -5  -1   2  760.32   31.90
  -5  -1   2  684.03   27.10
  -5  -1   2  665.93   28.30
   4   1  -2 1037.00   43.40
   4   1  -2 1102.09   39.80
   4   1  -2 1153.78   42.50
  -4  -1   2 1064.19   39.60
  -4  -1   2 1067.89   39.90
  -4  -1   2 1067.79   41.10
  -4  -1   2 1172.58   43.80
   3   1  -2  106.69    9.20
   3   1  -2  109.19    8.10
  -3  -1   2  101.79    5.30
  -3  -1   2  104.19    6.70
  -3  -1   2  109.49    9.20
  -3  -1   2  100.69    5.50
   2   1  -2   59.79    6.90
  -2  -1   2   62.59    4.20
  -2  -1   2   60.99    4.00
  -2  -1   2   58.79    6.90
   1   1  -2 2069.59   72.79
   1   1  -2 2056.29   73.99
  -1  -1   2 1973.90   73.79
   0   1  -2 2337.47   85.39
   0   1  -2 2573.74   85.89
   0   1  -2 2255.97   84.49
   0  -1   2 2394.26   85.59
  -1   1  -2 1196.88   43.20
  -1   1  -2 1119.99   41.90
  -1   1  -2 1259.47   43.20
   1  -1   2 1180.98   43.30
  -2   1  -2 1182.68   41.40
  -2   1  -2 1159.48   41.10
  -2   1  -2 1149.58   41.20
  -2   1  -2 1150.38   41.80
   2  -1   2 1160.88   41.50
   2  -1   2 1062.99   40.10
   2  -1   2 1125.39   41.70
  -3   1  -2  390.26   15.60
  -3   1  -2  391.16   16.20
  -3   1  -2  383.16   16.00
  -3   1  -2  377.06   15.10
   3  -1   2  378.26   15.50
   3  -1   2  391.76   15.40
   3  -1   2  403.76   16.30
  -4   1  -2  302.57   14.60
  -4   1  -2  352.06   15.60
  -4   1  -2  325.27   14.40
   4  -1   2  330.27   13.20
   4  -1   2  327.37   14.70
   4  -1   2  330.37   13.70
   4  -1   2  329.57   14.90
   4  -1   2  327.87   14.60
  -5   1  -2   45.20    6.30
   5  -1   2   42.50    5.70
   5  -1   2   51.49    5.70
   5  -1   2   50.19    6.00
   5  -1   2   47.80    5.90
   5  -1   2   39.70    9.40
  -6   1  -2    3.60    6.40
   6  -1   2    6.60    4.30
   6  -1   2    8.80    6.00
   6  -1   2    0.80    5.40
   6  -1   2    3.20    4.00
   6  -1   2   12.70    5.40
   6  -1   2   -2.30    5.70
  -7   1  -2  127.09   12.80
   7  -1   2  127.69   12.80
   7  -1   2  129.69   10.10
   7  -1   2  122.19   14.80
   7  -1   2  117.09    9.90
   7  -1   2  118.39   13.50
   7  -1   2  145.09   12.20
   7   0  -2   37.80    8.70
   7   0  -2   47.70   10.50
   7   0  -2   34.50    6.00
   7   0  -2   31.60   11.00
   7   0  -2   20.30   10.30
  -7   0   2   37.80    7.10
  -7   0   2   21.40    9.30
   6   0  -2  246.48   16.60
   6   0  -2  197.28   17.40
   6   0  -2  254.57   12.30
  -6   0   2  226.58   13.70
  -6   0   2  240.98   12.80
   5   0  -2  214.18   15.10
   5   0  -2  234.68   11.20
   5   0  -2  228.28   15.20
  -5   0   2  221.28   11.20
  -5   0   2  228.68   11.30
  -5   0   2  234.48   13.60
   4   0  -2  128.49   10.30
   4   0  -2  119.49    9.80
   4   0  -2  120.89    7.10
  -4   0   2   95.69    8.60
  -4   0   2  110.29    7.00
  -4   0   2  117.59    6.50
   3   0  -2   -1.70    3.60
   3   0  -2    2.90    4.10
   3   0  -2    0.80    2.30
  -3   0   2    1.80    4.40
  -3   0   2    0.60    2.30
  -3   0   2   -3.30    3.00
  -3   0   2   -1.80    3.90
   2   0  -2  219.78   10.90
   2   0  -2  191.58   10.10
   2   0  -2  217.68    9.30
  -2   0   2  229.18    8.40
  -2   0   2  227.98   11.40
  -2   0   2  217.68    9.20
   1   0  -2 9727.23  346.97
  -1   0   2 9822.42  345.47
  -1   0   2 9999.00  347.17
   0   0  -2    7.10    2.40
   0   0  -2    4.90    2.50
   0   0   2    6.70    0.90
   0   0   2    4.30    2.30
   0   0   2    2.90    2.10
  -1   0  -2  466.65   16.60
  -1   0  -2  471.85   17.70
   1   0   2  475.95   17.50
   1   0   2  449.76   17.60
  -2   0  -2 1272.07   49.00
  -2   0  -2 1362.86   48.90
  -2   0  -2 1359.16   49.00
  -2   0  -2 1485.25   48.50
  -2   0  -2 1334.67   48.60
   2   0   2 1316.57   48.00
   2   0   2 1370.66   49.00
   2   0   2 1393.16   49.00
   2   0   2 1353.76   48.40
  -3   0  -2 1790.02   64.09
  -3   0  -2 1856.81   64.09
  -3   0  -2 1816.42   64.39
  -3   0  -2 1680.73   64.49
   3   0   2 1819.12   63.99
   3   0   2 1823.12   64.19
   3   0   2 1711.13   63.39
   3   0   2 1811.32   64.39
  -4   0  -2  507.95   19.60
  -4   0  -2  483.25   19.60
  -4   0  -2  498.65   19.90
   4   0   2  498.35   19.40
   4   0   2  494.65   18.80
   4   0   2  483.55   19.80
   4   0   2  488.25   19.60
  -5   0  -2   35.60    5.30
  -5   0  -2   41.20    5.50
   5   0   2   34.10    4.40
   5   0   2   30.30    5.10
   5   0   2   36.90    5.30
   5   0   2   30.10    5.00
   5   0   2   35.60    4.80
   5   0   2   29.10    4.00
  -6   0  -2  923.41   37.70
  -6   0  -2  921.81   37.80
   6   0   2  963.70   38.10
   6   0   2 1106.29   37.40
   6   0   2  968.20   37.20
   6   0   2  977.00   38.40
   6   0   2  958.10   38.70
   6   0   2  955.60   36.80
  -7   0  -2   68.59    9.50
   7   0   2   82.69    9.10
   7   0   2   88.79   10.50
   7   0   2   75.29    9.50
   7   0   2   64.99    8.70
  -8   0  -2   -4.70    8.60
   8   0   2    4.80    8.10
   8   0   2   -7.40    5.90
   8   0   2   -2.60    6.10
   8   0   2   18.70    9.50
   8   0   2    0.50    8.70
   8   0   2    1.70    5.80
   7  -1  -2   64.69   12.70
   7  -1  -2   74.69   12.60
   7  -1  -2   65.69   12.00
   7  -1  -2   73.69   10.80
   7  -1  -2   97.69   11.10
   6  -1  -2  151.08   11.20
   6  -1  -2  148.39   13.10
   6  -1  -2  160.88   15.30
   6  -1  -2  153.68   15.40
  -6   1   2  157.88   11.90
   5  -1  -2   41.00    7.80
  -5   1   2   46.40    7.90
  -5   1   2   35.50    5.50
   4  -1  -2    9.10    3.50
   4  -1  -2   12.70    5.10
  -4   1   2    9.30    4.20
  -4   1   2   16.80    4.10
  -4   1   2   14.60    3.50
   3  -1  -2 1511.15   55.49
   3  -1  -2 1464.45   53.39
   3  -1  -2 1406.16   54.49
  -3   1   2 1505.15   53.49
  -3   1   2 1452.75   53.79
   2  -1  -2  837.02   31.60
   2  -1  -2  802.72   30.80
   2  -1  -2  823.22   32.30
  -2   1   2  822.52   31.00
  -2   1   2  875.21   29.90
  -2   1   2  834.62   31.50
  -2   1   2  835.02   30.90
   1  -1  -2   16.20    1.10
   1  -1  -2   12.30    2.50
   1  -1  -2   15.70    2.50
   1  -1  -2   13.90    3.10
   1  -1  -2   18.10    2.60
  -1   1   2   14.10    2.40
  -1   1   2   15.10    2.50
  -1   1   2   16.00    3.00
   0  -1  -2   83.09    4.80
   0  -1  -2   77.59    4.50
   0  -1  -2   77.69    4.00
   0  -1  -2   83.59    3.00
   0  -1  -2   83.49    4.70
   0   1   2   75.79    4.50
   0   1   2   78.49    4.70
   0   1   2   82.09    4.90
   0   1   2   78.09    3.90
  -1  -1  -2  556.34   20.80
  -1  -1  -2  547.55   20.50
  -1  -1  -2  533.15   20.50
  -1  -1  -2  599.24   20.10
   1   1   2  571.44   20.50
   1   1   2  557.94   20.80
  -2  -1  -2 2814.12   95.59
  -2  -1  -2 2614.34   95.69
  -2  -1  -2 2699.83   96.09
  -2  -1  -2 2681.73   95.59
   2   1   2 2616.14   95.59
   2   1   2 2826.52   96.19
  -3  -1  -2 1791.12   61.19
  -3  -1  -2 1698.33   61.29
  -3  -1  -2 1718.13   61.59
  -3  -1  -2 1731.63   61.29
   3   1   2 1666.13   61.19
   3   1   2 1718.33   61.69
   3   1   2 1698.13   60.89
   3   1   2 1683.53   61.09
  -4  -1  -2  219.88    9.70
   4   1   2  205.48   10.00
   4   1   2  202.58    9.60
   4   1   2  209.38   10.10
   4   1   2  207.58    9.60
   4   1   2  200.28    9.30
  -5  -1  -2 1065.09   40.40
  -5  -1  -2 1087.59   40.30
   5   1   2 1086.09   40.50
   5   1   2 1061.39   40.30
   5   1   2 1107.79   40.80
   5   1   2 1074.89   40.80
   5   1   2 1078.19   40.00
  -6  -1  -2  472.45   20.00
   6   1   2  504.75   21.20
   6   1   2  439.56   20.70
   6   1   2  385.86   19.20
   6   1   2  473.95   19.70
   6   1   2  489.65   19.20
   6   1   2  484.75   20.00
  -7  -1  -2  115.29    9.70
   7   1   2  151.78   12.00
   7   1   2  124.69   10.70
   7   1   2  153.38   11.10
  -8  -1  -2    2.10    7.40
   8   1   2   12.70    6.90
   8   1   2   10.90    7.20
   8   1   2   17.10    5.40
   8   1   2    3.90    8.40
   8   1   2   10.90    6.60
   8   1   2    7.90    7.80
   6  -2  -2   74.59   11.20
   6  -2  -2   88.99    8.80
   6  -2  -2   80.29    8.60
   6  -2  -2   81.99   10.20
   6  -2  -2   88.39    7.20
   6  -2  -2   70.49   11.60
  -6   2   2   73.49   11.10
   5  -2  -2   -0.80    3.80
   5  -2  -2    4.60    7.50
   5  -2  -2    0.10    4.50
   5  -2  -2    5.10    7.50
  -5   2   2    5.00    6.90
  -5   2   2   -5.00    5.80
   4  -2  -2  256.37   16.00
   4  -2  -2  254.17   11.80
  -4   2   2  277.17   14.70
  -4   2   2  252.07   13.30
  -4   2   2  248.78   14.40
   3  -2  -2  608.74   23.70
   3  -2  -2  585.14   22.50
   3  -2  -2  550.44   21.40
   3  -2  -2  516.85   24.00
  -3   2   2  571.14   22.70
  -3   2   2  589.34   22.60
  -3   2   2  488.95   22.80
   2  -2  -2  147.89    9.40
   2  -2  -2  132.99    6.80
   2  -2  -2  139.49    8.40
   2  -2  -2  139.19    7.70
  -2   2   2  137.19    7.90
  -2   2   2  124.39    8.00
  -2   2   2  141.39    7.50
   1  -2  -2   22.50    3.10
   1  -2  -2   19.40    3.10
   1  -2  -2   22.70    2.30
  -1   2   2   17.70    3.00
  -1   2   2   18.70    3.10
   0  -2  -2 2133.29   79.69
   0  -2  -2 2377.46   80.39
   0   2   2 2272.47   79.99
   0   2   2 2233.28   80.19
   0   2   2 2235.78   79.79
  -1  -2  -2 1770.22   61.89
  -1  -2  -2 1731.13   61.59
  -1  -2  -2 1689.53   61.79
   1   2   2 1730.53   61.79
   1   2   2 1736.13   61.59
   1   2   2 1700.63   61.69
  -2  -2  -2   71.79    3.80
  -2  -2  -2   65.59    3.20
  -2  -2  -2   68.89    4.40
  -2  -2  -2   73.79    4.70
   2   2   2   68.79    4.50
   2   2   2   66.99    4.60
   2   2   2   69.39    4.30
  -3  -2  -2  195.18    8.00
  -3  -2  -2  176.48    8.40
  -3  -2  -2  185.68    7.40
   3   2   2  180.28    8.70
   3   2   2  174.68    8.20
  -4  -2  -2  778.92   29.00
  -4  -2  -2  752.72   28.30
   4   2   2  763.02   28.00
   4   2   2  763.92   28.60
   4   2   2  794.62   29.10
   4   2   2  700.33   28.10
  -5  -2  -2 1032.60   38.60
   5   2   2 1098.59   39.40
   5   2   2  950.40   38.90
   5   2   2 1038.30   38.30
   5   2   2 1069.79   39.00
  -6  -2  -2   91.09    7.10
   6   2   2   91.49    7.70
   6   2   2  102.69    8.80
   6   2   2   88.09    9.30
   6   2   2  121.49    8.30
   6   2   2   83.09    9.10
   6   2   2   85.59    6.30
  -7  -2  -2   10.20    6.20
   7   2   2   11.80    5.40
   7   2   2   11.10    6.50
   7   2   2   17.50    5.70
   7   2   2   18.40    3.90
   7   2   2   13.80    5.20
   7   2   2   18.40    6.40
  -8  -2  -2  281.97   17.70
   8   2   2  329.27   18.40
   8   2   2  330.57   17.40
   8   2   2  278.17   18.60
   8   2   2  321.67   17.40
   8   2   2  328.17   14.50
   6  -3  -2   -0.90    7.20
   6  -3  -2    9.30    9.20
   6  -3  -2    2.40   10.10
   6  -3  -2   16.00    9.90
   5  -3  -2   17.60    9.30
   5  -3  -2   29.70    6.50
   5  -3  -2   26.70    8.90
  -5   3   2   30.50    9.00
  -5   3   2   24.60    7.80
   4  -3  -2  142.09   12.20
   4  -3  -2  147.39   10.70
  -4   3   2  147.39   12.20
  -4   3   2  155.18   11.40
  -4   3   2  152.28   12.40
   3  -3  -2  494.45   21.60
   3  -3  -2  491.05   22.00
   3  -3  -2  526.05   22.80
   3  -3  -2  537.05   24.10
  -3   3   2  516.25   22.50
  -3   3   2  532.55   22.10
  -3   3   2  504.05   22.30
   2  -3  -2   52.39    6.10
   2  -3  -2   47.50    5.70
   2  -3  -2   45.60    2.80
  -2   3   2   71.89    6.20
  -2   3   2   49.40    5.50
   1  -3  -2  612.94   24.00
   1  -3  -2  593.04   22.30
  -1   3   2  646.94   24.10
  -1   3   2  639.14   24.20
  -1   3   2  582.44   22.70
   0  -3  -2 1278.07   47.00
   0  -3  -2 1240.78   45.80
   0  -3  -2 1277.87   46.80
   0   3   2 1279.47   45.90
   0   3   2 1305.77   46.70
   0   3   2 1294.97   46.80
  -1  -3  -2  257.67   11.50
  -1  -3  -2  277.67   11.90
   1   3   2  277.57   11.30
   1   3   2  271.87   11.50
   1   3   2  279.77   11.60
  -2  -3  -2    9.70    2.80
  -2  -3  -2   12.50    2.60
   2   3   2   11.10    2.40
   2   3   2   11.50    2.90
   2   3   2   13.30    2.70
  -3  -3  -2 1826.12   68.59
  -3  -3  -2 2003.10   68.59
  -3  -3  -2 1868.11   69.29
   3   3   2 1920.51   69.39
   3   3   2 1924.71   68.59
   3   3   2 1986.50   69.39
  -4  -3  -2  758.62   27.20
  -4  -3  -2  718.13   26.70
  -4  -3  -2  712.73   27.90
   4   3   2  704.83   26.70
   4   3   2  731.63   28.10
   4   3   2  715.83   27.80
   4   3   2  716.03   26.10
  -5  -3  -2  267.07   12.00
  -5  -3  -2  261.77   13.70
   5   3   2  275.77   11.30
   5   3   2  276.37   11.90
   5   3   2  270.57   13.00
  -6  -3  -2  121.69    9.00
   6   3   2  122.39    9.00
   6   3   2  120.69   10.30
   6   3   2  121.09    6.30
   6   3   2  125.29    7.60
  -7  -3  -2  269.37   14.80
   7   3   2  284.57   15.30
   7   3   2  288.27   12.00
   7   3   2  280.97   15.80
   7   3   2  275.57   16.70
   7   3   2  292.07   13.80
   7   3   2  305.27   16.40
  -8  -3  -2  286.77   16.60
   8   3   2  250.67   17.50
   8   3   2  288.27   16.70
   8   3   2  285.97   12.20
   8   3   2  276.57   17.30
   8   3   2  288.37   19.30
   5  -4  -2   97.89   13.30
   5  -4  -2   99.79   10.50
   5  -4  -2   93.59   11.70
  -5   4   2   71.59   12.10
  -5   4   2   90.09   11.70
   4  -4  -2  165.88   13.50
   4  -4  -2  164.18   12.70
   4  -4  -2  164.38   16.10
  -4   4   2  202.08   13.70
  -4   4   2  159.58   14.00
  -4   4   2  169.78   13.80
   3  -4  -2   53.89    7.20
   3  -4  -2   56.79    8.70
  -3   4   2   67.29    8.40
  -3   4   2   68.69    8.00
  -3   4   2   61.19    7.80
   2  -4  -2  209.38   11.50
   2  -4  -2  194.58   11.50
  -2   4   2  205.28   11.80
  -2   4   2  189.78   11.80
   1  -4  -2  371.96   16.40
   1  -4  -2  359.96   15.60
  -1   4   2  340.77   15.90
  -1   4   2  384.36   16.40
  -1   4   2  357.46   13.90
   0  -4  -2   54.19    4.80
   0  -4  -2   43.70    4.90
   0  -4  -2   58.39    6.80
   0   4   2   55.89    6.40
   0   4   2   54.69    4.20
   0   4   2   49.60    5.70
  -1  -4  -2  420.36   17.20
  -1  -4  -2  404.16   16.00
  -1  -4  -2  423.56   17.70
   1   4   2  426.36   16.60
   1   4   2  430.66   17.30
   1   4   2  420.66   17.60
  -2  -4  -2  216.48    8.30
  -2  -4  -2  214.08   10.10
  -2  -4  -2  219.08   10.80
   2   4   2  218.98   10.80
   2   4   2  213.78   10.00
   2   4   2  228.38   10.30
  -3  -4  -2 1216.68   45.90
  -3  -4  -2 1296.57   45.50
  -3  -4  -2 1213.08   45.20
   3   4   2 1241.48   45.80
   3   4   2 1231.98   45.90
   3   4   2 1211.08   44.70
  -4  -4  -2  435.56   19.00
  -4  -4  -2  440.66   17.90
  -4  -4  -2  405.36   18.30
   4   4   2  431.36   18.80
   4   4   2  437.56   16.90
   4   4   2  524.65   19.10
  -5  -4  -2   14.70    3.70
  -5  -4  -2   19.80    5.20
  -5  -4  -2   13.30    4.50
   5   4   2   19.60    4.80
   5   4   2   17.40    2.30
  -6  -4  -2  527.05   22.40
  -6  -4  -2  596.64   22.40
  -6  -4  -2  544.15   24.50
   6   4   2  547.35   21.00
   6   4   2  555.24   24.10
   6   4   2  564.14   24.30
   6   4   2  544.25   20.30
  -7  -4  -2  256.87   14.70
   7   4   2  271.57   13.70
   7   4   2  287.47   16.10
   7   4   2  265.57   12.30
   7   4   2  277.67   16.20
   7   4   2  262.17   10.00
  -8  -4  -2  173.78   13.90
   8   4   2  200.08   13.00
   8   4   2  167.88   14.80
   8   4   2  165.48   10.90
   8   4   2  187.58   15.50
   4  -5  -2   41.00    8.70
   4  -5  -2   41.40    9.10
   4  -5  -2   48.50   11.70
   4  -5  -2   53.29    9.50
  -4   5   2   38.80    8.60
  -4   5   2   42.70    9.40
   3  -5  -2  339.87   18.10
   3  -5  -2  354.76   17.70
   3  -5  -2  350.96   18.50
  -3   5   2  358.76   18.90
  -3   5   2  326.57   18.60
  -3   5   2  274.37   17.60
   2  -5  -2   87.39    9.70
   2  -5  -2   65.09    7.70
   2  -5  -2   61.89    9.30
  -2   5   2   62.09    7.80
   1  -5  -2  481.25   20.80
   1  -5  -2  484.45   21.70
   1  -5  -2  481.55   21.50
  -1   5   2  513.65   21.70
   0  -5  -2   46.20    5.70
   0  -5  -2   44.90    5.90
   0   5   2   44.30    5.60
   0   5   2   42.10    4.50
   0   5   2   40.80    5.60
  -1  -5  -2  169.98    8.40
  -1  -5  -2  177.98    9.80
  -1  -5  -2  159.88   10.40
   1   5   2  172.68    9.60
   1   5   2  172.88    8.70
  -2  -5  -2  445.76   16.80
  -2  -5  -2  451.25   19.40
  -2  -5  -2  442.86   18.50
   2   5   2  449.36   18.40
   2   5   2  450.45   18.40
  -3  -5  -2  367.66   15.50
  -3  -5  -2  396.76   17.00
   3   5   2  379.26   16.30
   3   5   2  295.37   16.00
   3   5   2  374.86   15.00
  -4  -5  -2   39.80    5.90
  -4  -5  -2   31.90    5.30
   4   5   2   36.60    5.90
   4   5   2   36.80    4.30
  -5  -5  -2    4.20    4.70
  -5  -5  -2    5.50    6.00
  -5  -5  -2    4.00    4.50
   5   5   2    6.00    2.00
   5   5   2   -0.50    4.80
   5   5   2    8.90    5.10
  -6  -5  -2  501.25   21.10
  -6  -5  -2  490.45   21.10
  -6  -5  -2  497.75   22.70
   6   5   2  431.56   23.20
   6   5   2  494.55   22.50
  -7  -5  -2  208.68   12.10
  -7  -5  -2  179.98   12.60
   7   5   2  185.98   14.20
   7   5   2  195.78   15.00
  -8  -5  -2   -2.80    9.00
   8   5   2    1.00    3.50
   8   5   2    4.40    7.80
   8   5   2   -2.10    7.80
   3  -6  -2  172.38   15.40
   3  -6  -2  205.08   16.60
   3  -6  -2  220.58   15.70
  -3   6   2  199.18   16.30
  -3   6   2  200.98   14.60
   2  -6  -2  294.97   18.00
   2  -6  -2  315.77   17.50
  -2   6   2  310.97   18.00
  -2   6   2  334.47   18.20
   1  -6  -2   63.69    7.90
   1  -6  -2   71.09    8.30
  -1   6   2   56.49    8.10
  -1   6   2   71.89    8.40
   0  -6  -2  103.69   11.80
   0  -6  -2  113.49   10.10
   0  -6  -2  105.09    8.70
   0   6   2  107.59    9.70
   0   6   2   90.09   10.20
   0   6   2  109.29    6.40
  -1  -6  -2  473.75   18.70
  -1  -6  -2  441.56   20.20
  -1  -6  -2  429.26   22.40
   1   6   2  462.55   20.00
   1   6   2  475.85   18.70
  -2  -6  -2  376.86   15.10
  -2  -6  -2  353.36   18.40
   2   6   2  403.56   16.80
   2   6   2  395.76   18.30
   2   6   2  374.06   16.70
  -3  -6  -2  126.39    9.00
   3   6   2  127.19    8.10
   3   6   2  117.19   10.20
  -4  -6  -2  348.77   15.60
  -4  -6  -2  351.56   17.40
   4   6   2  351.56   16.90
   4   6   2  352.76   18.00
   4   6   2  333.77   14.40
  -5  -6  -2  128.09   11.90
   5   6   2  153.48   12.20
   5   6   2  137.49   12.00
   5   6   2  135.09    7.00
  -6  -6  -2  151.28   12.70
  -6  -6  -2  150.08   12.40
  -6  -6  -2  143.59   11.20
   6   6   2  159.98   13.00
   6   6   2  151.68   12.80
  -7  -6  -2    0.00    6.80
  -7  -6  -2    2.60    6.00
  -7  -6  -2   11.90    8.40
   7   6   2    1.00    7.10
   7   6   2    6.10    7.20
  -8  -6  -2   23.70    9.10
  -8  -6  -2   48.10   10.70
   8   6   2   41.00    9.70
   8   6   2   24.00    9.30
   2  -7  -2   -4.00    8.00
   2  -7  -2   -1.50    7.90
   2  -7  -2   -9.70    8.20
  -2   7   2   -5.50    7.60
   1  -7  -2    3.60    7.10
   1  -7  -2    4.10    7.30
  -1   7   2   -2.90    7.00
  -1   7   2    3.70    7.10
   0  -7  -2  155.18   11.20
   0  -7  -2  163.08   13.00
   0  -7  -2  146.29   13.40
   0   7   2  133.39    7.90
   0   7   2  149.39   12.60
   0   7   2  152.08   12.70
  -1  -7  -2  648.54   28.60
  -1  -7  -2  671.63   28.90
  -1  -7  -2  675.33   26.60
   1   7   2  663.63   26.20
   1   7   2  671.33   28.20
  -2  -7  -2   38.50    7.60
  -2  -7  -2   35.80    6.70
   2   7   2   33.80    7.50
  -3  -7  -2   75.09    8.70
   3   7   2   65.49    8.60
   3   7   2   68.29    7.40
   3   7   2   58.29    6.30
  -4  -7  -2  189.18   11.90
  -4  -7  -2  203.08   14.90
   4   7   2  193.98   13.00
   4   7   2  193.88   13.90
   4   7   2  190.78   10.60
  -5  -7  -2  386.66   21.30
   5   7   2  405.76   20.30
   5   7   2  408.26   21.00
  -6  -7  -2   56.99    8.10
  -6  -7  -2   56.99    9.60
  -6  -7  -2   49.40    9.50
   6   7   2   45.40    9.20
   6   7   2   39.50    8.60
  -7  -7  -2   42.60    9.40
  -7  -7  -2   57.59   10.70
   7   7   2   49.00   10.10
   7   7   2   39.10    9.80
   0  -8  -2  128.49   14.80
   0  -8  -2  160.68   15.00
   0   8   2  123.09   14.70
   0   8   2  143.59    7.70
  -1  -8  -2    2.30    7.50
  -1  -8  -2   -2.10    5.30
  -1  -8  -2   -6.90    6.80
   1   8   2   -2.30    7.00
   1   8   2   10.50    4.40
   1   8   2   -3.90    7.60
  -2  -8  -2    0.90    6.60
  -2  -8  -2   -1.70    7.70
   2   8   2    6.70    5.20
   2   8   2    7.30    6.50
  -3  -8  -2  135.49   14.50
   3   8   2  143.59   15.10
   3   8   2  160.98   11.90
  -4  -8  -2  285.27   18.50
  -4  -8  -2  278.67   15.70
  -4  -8  -2  303.37   19.00
   4   8   2  257.37   18.10
   4   8   2  282.37   17.20
  -5  -8  -2   61.29   10.60
  -5  -8  -2   79.39   11.20
   5   8   2   90.49   10.20
   5   8   2   67.09   10.20
  -6  -8  -2   27.30   10.00
   6   8   2   24.90    9.80
   6   8   2   13.20    8.60
   5   7  -3   26.60   11.20
  -5  -7   3   25.30   13.60
   4   7  -3   54.19   10.90
  -4  -7   3   52.19   13.20
  -4  -7   3   43.70    5.60
  -4  -7   3   50.59    9.90
   3   7  -3   53.09    7.40
   3   7  -3   60.69   10.50
  -3  -7   3   56.29    9.20
  -3  -7   3   61.79    7.10
  -3  -7   3   50.89   12.50
   2   7  -3    0.50    7.70
   2   7  -3    6.80    6.20
  -2  -7   3   -9.00    6.40
  -2  -7   3   16.40   10.30
  -2  -7   3   -3.60    7.20
   1   7  -3   -2.60    6.40
   1   7  -3    7.80    7.90
   1   7  -3    6.80    7.70
  -1  -7   3   -3.60    9.30
  -1  -7   3   12.10    7.00
  -1  -7   3    6.30    7.20
   0   7  -3  103.89   11.00
   0   7  -3   91.39   11.90
   0  -7   3   94.49   10.70
   0  -7   3   91.89   14.30
   0  -7   3   78.49    8.60
  -1   7  -3   11.40    6.80
  -1   7  -3    0.30    7.80
  -1   7  -3   11.40    9.70
   1  -7   3   10.00    6.20
   1  -7   3    3.00    8.10
   6   6  -3   -6.70   10.00
  -6  -6   3    9.80   12.80
   5   6  -3  130.49   15.10
  -5  -6   3  106.99   15.40
   4   6  -3  397.96   21.10
  -4  -6   3  357.76   15.40
  -4  -6   3  343.87   24.50
   3   6  -3    1.10    7.10
  -3  -6   3    9.80    4.40
  -3  -6   3   10.80    6.40
  -3  -6   3   32.10    9.10
   2   6  -3   89.99   10.10
   2   6  -3  121.79   12.40
  -2  -6   3  117.89    9.20
  -2  -6   3  140.79   14.50
  -2  -6   3  117.19   11.40
   1   6  -3  196.48   13.00
   1   6  -3  164.18   11.50
  -1  -6   3  168.98   11.50
  -1  -6   3  162.78   11.90
   0   6  -3   37.40    7.50
   0   6  -3   34.20    8.70
   0  -6   3   39.50    7.00
   0  -6   3   25.50    5.70
  -1   6  -3   13.70    6.00
  -1   6  -3   15.70    7.20
   1  -6   3   -4.40    9.00
   1  -6   3   16.60    5.00
   1  -6   3   12.40    6.90
  -2   6  -3    5.30    7.50
  -2   6  -3    6.30    4.10
  -2   6  -3   14.30    8.50
   2  -6   3    7.70    7.30
   2  -6   3    3.80    4.40
  -3   6  -3  213.38   19.10
   6   5  -3  264.17   19.80
   6   5  -3  260.27   22.50
  -6  -5   3  289.37   25.20
   5   5  -3  184.98   18.90
   5   5  -3  193.48   15.90
   4   5  -3   13.40    7.40
  -4  -5   3    6.90    2.60
   3   5  -3   36.40    7.30
  -3  -5   3   40.60    4.40
  -3  -5   3   37.60    9.10
  -3  -5   3   34.70    7.80
   2   5  -3  168.68   11.70
  -2  -5   3  178.48   14.90
  -2  -5   3  189.48   10.30
  -2  -5   3  182.68   11.80
  -1  -5   3  247.68   11.90
  -1  -5   3  166.58   10.90
   0   5  -3  591.54   24.40
   0   5  -3  601.34   25.70
   0   5  -3  606.74   25.30
   0  -5   3  569.44   23.70
   0  -5   3  594.84   25.10
  -1   5  -3  301.07   16.50
  -1   5  -3  299.17   15.70
   1  -5   3  299.27   13.70
   1  -5   3  316.27   16.00
  -2   5  -3  208.38   11.30
  -2   5  -3  225.58   14.60
  -2   5  -3  200.78   14.00
   2  -5   3  215.18   13.80
   2  -5   3  203.88   10.30
  -3   5  -3   80.19   10.10
  -3   5  -3   79.09    5.10
  -3   5  -3   85.19    8.60
  -3   5  -3   67.49    9.70
   3  -5   3   72.09    9.40
   3  -5   3   81.09    6.50
  -4   5  -3   -2.50    7.30
  -4   5  -3   -0.50    8.30
   4  -5   3   -5.30    8.60
   4  -5   3    6.40    8.20
   4  -5   3    3.10    3.10
   7   4  -3  117.69   15.10
   7   4  -3  128.09   18.00
  -7  -4   3  159.08   22.10
  -7  -4   3  131.49   12.60
   6   4  -3  137.19   18.60
   6   4  -3  119.79   13.50
  -6  -4   3  122.29   11.10
   5   4  -3   10.90    7.90
   5   4  -3   11.90    9.80
  -5  -4   3   14.50    9.80
   4   4  -3   69.79   10.70
   4   4  -3   73.59    9.10
  -4  -4   3   75.49    4.50
  -4  -4   3   75.59    5.10
   3   4  -3  242.88   16.50
   3   4  -3  201.68   13.00
  -3  -4   3  202.38   15.30
   2   4  -3  696.13   27.30
  -2  -4   3  646.44   27.00
  -2  -4   3  671.73   29.60
   1   4  -3   20.30    4.50
   1   4  -3   25.10    4.90
  -1  -4   3   23.40    6.60
  -1  -4   3   20.50    4.10
   0   4  -3   15.60    3.90
   0   4  -3   16.20    5.00
   0  -4   3    8.40    5.70
   0  -4   3    6.20    3.30
  -1   4  -3  468.65   20.60
  -1   4  -3  462.35   20.50
  -1   4  -3  484.55   18.90
   1  -4   3  461.75   18.50
   1  -4   3  473.85   20.50
  -2   4  -3  209.98   11.20
  -2   4  -3  219.78   12.80
  -2   4  -3  206.08   12.80
   2  -4   3  211.48    9.50
   2  -4   3  210.38   12.90
  -3   4  -3  164.88   12.10
  -3   4  -3  163.18   12.20
  -3   4  -3  171.38   10.90
  -3   4  -3  154.78    8.10
   3  -4   3  153.68    7.50
   3  -4   3  146.49   11.80
  -4   4  -3    7.50    6.10
  -4   4  -3    4.40    6.90
  -4   4  -3   19.20    7.30
   4  -4   3   12.70    6.90
   4  -4   3    9.30    6.90
   4  -4   3    5.90    2.50
  -5   4  -3  170.08   13.20
  -5   4  -3  156.98   17.40
   5  -4   3  161.48    7.50
   5  -4   3  164.88   15.00
   5  -4   3  173.48   15.80
   5  -4   3  157.88    7.10
   7   3  -3   61.39   14.10
   7   3  -3   68.59   11.70
   7   3  -3   69.79   12.50
  -7  -3   3   59.59    8.50
  -7  -3   3   61.19   14.00
   6   3  -3  182.28   19.00
   6   3  -3  171.78   15.80
  -6  -3   3  150.38   11.10
   5   3  -3   37.50    8.50
   5   3  -3   59.79   10.70
  -5  -3   3   37.60    6.00
  -5  -3   3   42.50   10.30
   4   3  -3  603.34   26.10
   4   3  -3  577.44   28.20
  -4  -3   3  573.04   28.40
  -4  -3   3  574.04   21.40
   3   3  -3  167.28   11.40
   3   3  -3  179.78   14.40
   2   3  -3  181.28   10.40
   2   3  -3  172.98   13.00
  -2  -3   3  178.58   12.60
   1   3  -3  400.46   16.70
  -1  -3   3  396.96   18.90
   0   3  -3  866.21   33.00
   0   3  -3  852.41   32.40
   0   3  -3  838.62   31.40
   0  -3   3  843.12   33.80
   0  -3   3  812.62   31.20
  -1   3  -3  597.74   23.90
  -1   3  -3  574.24   24.10
  -1   3  -3  593.34   22.20
   1  -3   3  598.84   22.10
  -2   3  -3   82.59    7.30
  -2   3  -3   71.39    6.90
   2  -3   3   78.19    4.40
   2  -3   3   83.89    6.80
  -3   3  -3   76.59    8.70
  -3   3  -3   90.49    6.30
  -3   3  -3   93.69    7.80
   3  -3   3   90.89   10.40
   3  -3   3  105.79    9.20
   3  -3   3   88.69    4.40
  -4   3  -3  144.29   10.00
  -4   3  -3  132.39   12.10
  -4   3  -3  153.88   11.50
   4  -3   3  133.19   11.40
   4  -3   3  149.79    6.30
  -5   3  -3  306.27   16.20
  -5   3  -3  313.37   18.20
   5  -3   3  290.27   12.00
   5  -3   3  361.06   18.00
   5  -3   3  308.77   17.60
   5  -3   3  315.87   12.20
  -6   3  -3   61.99    9.10
  -6   3  -3   61.69   11.10
   6  -3   3   72.09    4.90
   6  -3   3   65.79    5.00
   6  -3   3   56.39    9.60
   6  -3   3   76.69   11.10
   7   2  -3   39.90   10.70
   7   2  -3   16.40   11.10
   7   2  -3   33.90   12.40
  -7  -2   3   28.60    7.30
   6   2  -3    7.10    9.80
   6   2  -3    5.90    8.70
  -6  -2   3    2.80    5.00
   5   2  -3  203.08   25.60
   5   2  -3  263.97   18.70
  -5  -2   3  266.57   10.80
  -5  -2   3  263.77   12.40
   4   2  -3  336.27   17.50
   4   2  -3  290.07   15.50
  -4  -2   3  244.88   17.80
  -4  -2   3  281.67   11.70
   3   2  -3  173.38   11.40
   3   2  -3  172.68   13.40
  -3  -2   3  189.48    8.60
  -3  -2   3  182.48   13.40
   2   2  -3    6.30    4.40
   2   2  -3    3.40    3.60
  -2  -2   3    6.80    4.80
   1   2  -3  986.30   37.70
   1   2  -3  956.00   35.50
  -1  -2   3  905.01   37.10
   0   2  -3 1380.06   51.09
   0   2  -3 1384.36   49.70
   0  -2   3 1364.46   51.49
  -1   2  -3  419.26   18.20
  -1   2  -3  420.36   17.90
  -1   2  -3  430.36   16.00
   1  -2   3  454.55   18.80
  -2   2  -3  585.44   21.60
  -2   2  -3  569.64   23.00
  -2   2  -3  565.44   22.40
  -2   2  -3  566.74   22.50
  -3   2  -3  702.23   26.80
  -3   2  -3  749.62   28.10
  -3   2  -3  711.73   27.80
  -3   2  -3  713.23   26.80
   3  -2   3  682.63   27.50
   3  -2   3  686.43   27.90
  -4   2  -3  667.03   27.60
  -4   2  -3  673.43   26.40
  -4   2  -3  728.53   27.70
  -4   2  -3  661.23   25.40
   4  -2   3  657.73   26.50
   4  -2   3  664.53   23.90
   4  -2   3  677.43   24.00
   4  -2   3  612.74   29.20
   4  -2   3  690.63   27.60
  -5   2  -3   26.80    6.20
  -5   2  -3   32.80    7.10
   5  -2   3   27.10    4.80
   5  -2   3   33.90    6.70
   5  -2   3   29.40    3.60
   5  -2   3   34.00    3.60
   5  -2   3   15.60    6.20
  -6   2  -3   29.20    7.20
   6  -2   3   33.70    7.60
   6  -2   3   30.00    5.50
   6  -2   3   35.50    7.90
   6  -2   3   29.10    3.50
   6  -2   3   34.20    3.60
   7  -2   3  162.38   17.90
   7   1  -3   -3.40   10.40
   7   1  -3  -15.60    9.60
   7   1  -3  -10.60   10.50
  -7  -1   3    4.80    9.40
  -7  -1   3    6.60    5.90
   6   1  -3  157.38    9.90
   6   1  -3  173.18   18.00
   6   1  -3  183.78   16.20
  -6  -1   3  160.18   13.30
  -6  -1   3  161.98   10.30
   5   1  -3  143.09   14.20
  -5  -1   3  127.69   19.90
  -5  -1   3  124.29   10.80
  -5  -1   3  140.39    8.50
  -5  -1   3  136.69    8.10
   4   1  -3  107.49   10.80
  -4  -1   3  120.69    7.10
  -4  -1   3  133.29    9.00
  -4  -1   3  130.79   12.60
  -4  -1   3  120.39    6.80
   3   1  -3    8.70    5.30
  -3  -1   3    8.10    2.70
  -3  -1   3    9.60    3.40
  -3  -1   3   13.60    6.10
   2   1  -3   18.80    5.10
  -2  -1   3   12.90    3.20
  -2  -1   3   23.70    5.50
  -2  -1   3   17.10    3.20
   1   1  -3 1563.54   57.39
  -1  -1   3 1488.25   56.99
   0   1  -3  152.88    9.00
   0   1  -3  134.59    8.30
   0   1  -3  143.59    7.00
   0  -1   3  143.59    8.70
  -1   1  -3  248.78    8.80
  -1   1  -3  232.98   11.30
  -1   1  -3  230.08    9.10
  -1   1  -3  242.68   10.90
   1  -1   3  231.48   11.20
   1  -1   3  242.98   11.20
  -2   1  -3  166.58    7.90
  -2   1  -3  179.98    7.20
  -2   1  -3  166.18    8.80
  -2   1  -3  177.18    8.90
   2  -1   3  164.88    9.00
  -3   1  -3 1247.18   44.80
  -3   1  -3 1250.77   46.10
  -3   1  -3 1226.48   45.30
  -3   1  -3 1236.98   45.50
   3  -1   3 1215.68   45.70
   3  -1   3 1262.17   46.10
  -4   1  -3  398.56   17.90
  -4   1  -3  406.26   16.80
  -4   1  -3  453.45   17.90
  -4   1  -3  407.76   16.90
   4  -1   3  417.76   17.40
   4  -1   3  407.46   18.00
   4  -1   3  401.26   15.00
  -5   1  -3  135.49   10.50
  -5   1  -3  131.69    9.20
   5  -1   3  142.79    6.80
   5  -1   3  145.29   10.10
   5  -1   3  147.89   10.50
   5  -1   3  138.89    9.20
   5  -1   3  147.39    9.70
  -6   1  -3  375.16   18.10
   6  -1   3  397.66   18.70
   6  -1   3  380.76   15.70
   6  -1   3  400.56   19.90
   6  -1   3  388.36   17.70
  -7   1  -3  307.17   17.40
   7  -1   3  312.57   17.40
   7  -1   3  300.67   17.70
   7  -1   3  317.67   18.70
   7  -1   3  323.37   14.10
   7  -1   3  280.37   21.80
   7   0  -3   31.70    6.50
   7   0  -3   39.70   11.50
   7   0  -3   22.40   12.00
   7   0  -3   39.20   12.10
  -7   0   3   25.70   12.30
  -7   0   3   32.40    6.90
   6   0  -3  213.48   18.40
   6   0  -3  242.68   17.90
  -6   0   3  270.87   16.20
  -6   0   3  225.68   12.30
   5   0  -3  251.97   12.60
   5   0  -3  245.38   17.50
  -5   0   3  234.28   12.30
  -5   0   3  254.87   14.50
  -5   0   3  258.97   11.90
   4   0  -3   32.30    7.10
   4   0  -3   25.90    6.20
   4   0  -3   18.60    3.90
  -4   0   3   24.10    3.60
  -4   0   3   21.10    4.00
  -4   0   3   17.30    5.10
  -4   0   3   18.10    7.30
   3   0  -3  343.07   14.60
   3   0  -3  337.57   16.10
   3   0  -3  332.47   17.40
  -3   0   3  343.57   15.00
  -3   0   3  354.46   14.60
  -3   0   3  363.76   18.10
   2   0  -3 1286.47   50.49
   2   0  -3 1320.07   51.99
   2   0  -3 1358.96   49.90
  -2   0   3 1393.26   49.99
  -2   0   3 1397.06   48.70
  -2   0   3 1388.56   49.70
  -2   0   3 1455.55   52.49
   1   0  -3   19.70    3.70
   1   0  -3   15.90    4.20
  -1   0   3   22.30    2.40
  -1   0   3   18.70    4.40
  -1   0   3   20.70    3.30
   0   0  -3    5.80    3.10
   0   0  -3    4.00    3.20
   0   0   3    2.60    1.10
   0   0   3   -1.70    2.90
   0   0   3   -1.00    2.60
  -1   0  -3  707.23   27.50
  -1   0  -3  763.72   27.50
   1   0   3  696.83   27.30
   1   0   3  732.33   25.40
   1   0   3  703.43   27.30
  -2   0  -3  586.94   21.20
  -2   0  -3  568.24   20.70
  -2   0  -3  593.24   22.40
  -2   0  -3  561.94   22.40
   2   0   3  611.44   22.20
   2   0   3  575.44   22.50
  -3   0  -3  120.19    5.80
  -3   0  -3  118.89    7.00
  -3   0  -3  116.69    6.80
   3   0   3  110.49    5.60
   3   0   3  108.79    6.90
   3   0   3  117.09    7.00
   3   0   3  116.99    4.70
  -4   0  -3   27.30    4.00
  -4   0  -3   26.50    4.20
  -4   0  -3   24.60    3.60
   4   0   3   26.40    4.10
   4   0   3   28.40    4.40
   4   0   3   22.50    3.30
   4   0   3   27.50    2.90
  -5   0  -3  380.96   15.60
  -5   0  -3  324.77   14.50
   5   0   3  312.87   15.30
   5   0   3  307.77   14.80
   5   0   3  313.87   14.60
   5   0   3  324.87   13.20
  -6   0  -3  352.16   16.80
   6   0   3  380.06   17.40
   6   0   3  372.16   17.80
   6   0   3  350.96   16.80
   6   0   3  355.06   15.20
   6   0   3  386.36   16.90
   6   0   3  350.76   17.50
  -7   0  -3  208.88   13.30
   7   0   3  184.68   14.00
   7   0   3  243.98   14.70
   7   0   3  219.28   13.10
   7   0   3  197.18   14.10
   7   0   3  193.88   13.40
   7   0   3  198.28   11.10
   8   0   3   44.20    7.80
   8   0   3   36.90    7.70
   8   0   3   64.39   10.30
   8   0   3   31.70    9.00
   6  -1  -3  130.39   16.10
   6  -1  -3  117.39   11.00
   6  -1  -3  143.69   14.60
  -6   1   3  115.59   13.30
  -6   1   3  100.59   12.00
   5  -1  -3   31.60    8.10
  -5   1   3   12.20    6.70
  -5   1   3   19.60    5.70
   4  -1  -3   53.99    7.90
   4  -1  -3   43.10    5.30
   4  -1  -3   45.20    7.30
  -4   1   3   63.99    5.30
  -4   1   3   53.49    6.00
  -4   1   3   63.39    7.20
   3  -1  -3  555.44   22.40
   3  -1  -3  482.05   21.40
   3  -1  -3  491.25   20.50
   3  -1  -3  484.35   20.00
  -3   1   3  485.95   20.00
  -3   1   3  484.55   18.50
  -3   1   3  480.05   20.40
   2  -1  -3 2179.28   82.89
   2  -1  -3 2314.67   82.69
   2  -1  -3 2253.87   84.29
   2  -1  -3 2231.78   83.19
  -2   1   3 2320.67   81.09
  -2   1   3 2481.75   84.99
  -2   1   3 2313.87   82.49
  -2   1   3 2322.47   82.69
   1  -1  -3    1.30    3.50
   1  -1  -3    7.30    2.70
   1  -1  -3    7.70    2.70
   1  -1  -3    9.90    3.40
  -1   1   3    9.30    3.00
  -1   1   3    9.20    2.30
  -1   1   3    6.50    3.20
   0  -1  -3  418.26   15.80
   0  -1  -3  417.56   17.20
   0  -1  -3  414.96   16.90
   0   1   3  414.16   15.70
   0   1   3  420.96   16.90
   0   1   3  416.46   17.20
   0   1   3  417.96   16.90
  -1  -1  -3 1443.96   55.39
  -1  -1  -3 1623.14   54.29
  -1  -1  -3 1556.34   55.59
   1   1   3 1475.75   55.39
   1   1   3 1573.14   55.49
  -2  -1  -3  289.27   11.70
  -2  -1  -3  219.28   12.10
  -2  -1  -3  265.87   10.60
   2   1   3  283.47    9.80
   2   1   3  252.27   10.70
   2   1   3  293.97   11.70
  -3  -1  -3    9.30    2.00
  -3  -1  -3    8.60    2.50
  -3  -1  -3    9.80    2.70
  -3  -1  -3    8.70    2.90
   3   1   3    9.60    1.90
   3   1   3   10.50    1.80
   3   1   3    9.40    3.00
  -4  -1  -3  241.18   10.30
  -4  -1  -3  237.88   10.70
  -4  -1  -3  244.38   11.20
   4   1   3  224.78   10.70
   4   1   3  228.68    9.80
   4   1   3  234.68   11.20
   4   1   3  233.38   10.30
  -5  -1  -3 1549.34   57.49
  -5  -1  -3 1551.84   57.39
   5   1   3 1566.14   57.59
   5   1   3 1592.14   57.79
   5   1   3 1553.04   57.39
   5   1   3 1604.84   56.69
   5   1   3 1567.94   57.29
  -6  -1  -3   28.60    5.90
   6   1   3   22.00    5.10
   6   1   3   19.60    4.00
   6   1   3   10.40    4.70
   6   1   3   15.30    4.90
   6   1   3   21.40    5.00
  -7  -1  -3   -6.30    6.30
   7   1   3    2.50    4.40
   7   1   3    2.90    5.60
   7   1   3    1.20    4.60
   7   1   3   -7.90    5.00
   7   1   3   -2.40    5.20
   7   1   3    0.30    5.40
  -8  -1  -3   65.49   11.70
   8   1   3   81.39    9.80
   8   1   3  105.59   10.10
   8   1   3  111.79   12.30
   8   1   3   81.69   10.20
   6  -2  -3  -10.60    9.20
   6  -2  -3   -5.60    8.10
   6  -2  -3   -6.30    5.50
   6  -2  -3   -5.80    6.50
   6  -2  -3   -2.40    9.30
  -6   2   3    3.40    7.00
   5  -2  -3   17.50    6.00
   5  -2  -3   10.60    8.60
   5  -2  -3    7.70    4.80
  -5   2   3    9.20    7.70
  -5   2   3   19.40    6.30
   4  -2  -3  618.44   24.50
   4  -2  -3  580.44   30.50
   4  -2  -3  587.24   24.80
  -4   2   3  587.64   25.80
  -4   2   3  634.24   25.30
   3  -2  -3  317.57   18.10
   3  -2  -3  348.37   17.40
   3  -2  -3  398.96   16.10
   3  -2  -3  336.97   15.60
  -3   2   3  344.17   16.10
  -3   2   3  419.06   16.90
  -3   2   3  341.97   16.50
   2  -2  -3   91.29    8.80
   2  -2  -3   99.69    8.10
   2  -2  -3   95.49    7.00
   2  -2  -3   98.89    7.20
  -2   2   3   99.69    7.80
  -2   2   3  108.49    7.40
  -2   2   3  102.19    7.40
   1  -2  -3  136.99    7.90
   1  -2  -3  140.99    8.90
   1  -2  -3  141.29    7.90
   1  -2  -3  134.69    7.70
   1  -2  -3  151.08    5.20
  -1   2   3  132.29    8.00
  -1   2   3  130.09    7.40
   0  -2  -3  637.24   24.20
   0  -2  -3  639.14   22.10
   0  -2  -3  646.84   24.50
   0  -2  -3  600.44   23.70
   0   2   3  637.24   24.30
   0   2   3  603.14   23.80
   0   2   3  618.14   23.30
  -1  -2  -3 1718.33   63.09
  -1  -2  -3 1759.92   63.19
  -1  -2  -3 1741.03   63.49
  -1  -2  -3 1836.92   61.99
  -1  -2  -3 1753.92   63.09
   1   2   3 1706.13   62.29
   1   2   3 1762.12   63.49
   1   2   3 1766.32   63.19
  -2  -2  -3 1732.83   60.99
  -2  -2  -3 1753.22   61.39
  -2  -2  -3 1704.73   60.29
  -2  -2  -3 1580.74   60.19
   2   2   3 1700.73   60.89
   2   2   3 1672.93   61.49
   2   2   3 1741.13   61.39
  -3  -2  -3 1472.85   52.39
  -3  -2  -3 1405.96   51.29
  -3  -2  -3 1466.55   51.39
  -3  -2  -3 1398.36   51.79
   3   2   3 1444.46   51.69
   3   2   3 1414.06   52.29
  -4  -2  -3 1011.90   37.30
  -4  -2  -3 1030.30   37.50
  -4  -2  -3 1019.50   37.80
   4   2   3 1024.70   37.60
   4   2   3 1021.00   38.40
  -5  -2  -3  260.67   12.40
  -5  -2  -3  249.28   11.90
   5   2   3  259.17   12.20
   5   2   3  254.67   11.50
   5   2   3  233.98   10.80
   5   2   3  247.98   11.50
  -6  -2  -3    3.40    4.80
   6   2   3    2.70    4.60
   6   2   3    0.30    3.80
   6   2   3    4.20    4.50
   6   2   3    2.80    3.90
   6   2   3    1.10    3.80
  -7  -2  -3  108.39   10.80
   7   2   3  130.79   11.10
   7   2   3  130.79   10.40
   7   2   3  124.09   12.60
   7   2   3  156.18    8.90
   7   2   3  119.39   10.70
  -8  -2  -3  307.17   18.10
   8   2   3  351.16   17.10
   8   2   3  332.17   18.20
   8   2   3  306.27   17.20
   8   2   3  269.87   17.80
   8   2   3  337.07   18.60
   5  -3  -3  239.78   16.30
   5  -3  -3  202.98   10.10
   5  -3  -3  218.28   18.80
   5  -3  -3  189.58   17.20
   5  -3  -3  212.08   15.00
  -5   3   3  259.37   15.00
  -5   3   3  201.98   16.20
   4  -3  -3  258.87   11.20
   4  -3  -3  233.88   17.50
   4  -3  -3  225.98   15.80
  -4   3   3  255.47   15.70
  -4   3   3  280.17   15.10
  -4   3   3  235.98   14.00
   3  -3  -3   12.60    6.90
   3  -3  -3    9.00    2.90
   3  -3  -3   12.80    4.70
  -3   3   3   14.90    5.40
  -3   3   3   15.00    4.90
  -3   3   3   10.40    5.50
   2  -3  -3  122.19    9.50
   2  -3  -3  101.39    9.80
   2  -3  -3  137.99    6.90
  -2   3   3  124.29    9.10
   1  -3  -3 1675.33   59.39
   1  -3  -3 1681.63   60.49
   1  -3  -3 1535.45   57.99
  -1   3   3 1623.64   59.39
  -1   3   3 1569.14   58.49
  -1   3   3 1622.04   59.09
   0  -3  -3  497.45   19.90
   0  -3  -3  472.25   18.90
   0   3   3  488.35   19.20
   0   3   3  506.85   20.00
   0   3   3  497.75   19.40
  -1  -3  -3  226.58   10.10
  -1  -3  -3  237.38   10.80
  -1  -3  -3  218.88   10.70
   1   3   3  216.58   10.00
   1   3   3  226.68   10.60
  -2  -3  -3  315.97   13.60
  -2  -3  -3  302.47   13.40
  -2  -3  -3  312.87   12.00
  -2  -3  -3  317.07   13.40
   2   3   3  297.67   13.10
   2   3   3  319.47   13.40
   2   3   3  313.97   13.40
  -3  -3  -3  845.72   30.00
  -3  -3  -3  805.52   31.60
  -3  -3  -3  836.42   31.90
  -3  -3  -3  894.61   30.90
  -3  -3  -3  816.92   30.20
   3   3   3  869.81   31.60
   3   3   3  830.42   31.80
   3   3   3  819.92   31.50
  -4  -3  -3  560.74   22.10
  -4  -3  -3  545.45   20.50
  -4  -3  -3  548.85   21.30
   4   3   3  571.14   21.90
   4   3   3  562.14   22.40
   4   3   3  534.95   21.80
  -5  -3  -3  283.37   12.80
  -5  -3  -3  285.97   14.20
   5   3   3  328.97   14.10
   5   3   3  285.17   13.40
  -6  -3  -3   99.89    8.40
  -6  -3  -3   88.79    9.80
   6   3   3   89.69    5.50
   6   3   3   96.79    7.00
   6   3   3   77.39    8.90
  -7  -3  -3  453.45   21.40
   7   3   3  487.05   24.50
   7   3   3  515.45   23.00
   7   3   3  472.35   20.50
   7   3   3  523.15   21.80
   7   3   3  485.15   19.90
  -8  -3  -3  191.98   14.60
   8   3   3  212.28   14.60
   8   3   3  178.88   15.00
   8   3   3  205.78   10.70
   8   3   3  185.18   14.90
   8   3   3  226.08   15.20
   8   3   3  196.88   12.30
   5  -4  -3   46.40    9.20
   5  -4  -3   33.20   10.30
   5  -4  -3   41.90   12.60
  -5   4   3   52.79   10.50
  -5   4   3   58.39   10.70
   4  -4  -3  185.08   17.40
   4  -4  -3  163.98   13.50
   4  -4  -3  183.58   14.60
  -4   4   3  201.18   15.00
  -4   4   3  182.58   15.20
  -4   4   3  186.28   14.70
   3  -4  -3  238.88   14.30
   3  -4  -3  247.08   17.00
  -3   4   3  241.38   15.00
  -3   4   3  243.18   15.00
   2  -4  -3  435.76   16.20
   2  -4  -3  412.56   19.60
   2  -4  -3  462.45   21.80
  -2   4   3  435.36   19.90
   1  -4  -3  834.72   33.40
   1  -4  -3  828.72   30.80
   1  -4  -3  875.81   32.90
  -1   4   3  841.92   33.10
  -1   4   3  832.42   31.40
   0  -4  -3   46.10    5.40
   0  -4  -3   50.29    5.70
   0  -4  -3   52.49    4.70
   0   4   3   53.49    5.00
   0   4   3   46.40    5.70
   0   4   3   55.69    6.70
  -1  -4  -3  424.56   17.30
  -1  -4  -3  425.66   18.10
  -1  -4  -3  420.46   18.30
   1   4   3  433.46   17.30
   1   4   3  446.46   18.20
  -2  -4  -3 1110.69   42.50
  -2  -4  -3 1127.29   42.30
   2   4   3 1159.08   42.50
   2   4   3 1127.89   42.00
   2   4   3 1142.99   42.00
  -3  -4  -3 1054.49   39.10
  -3  -4  -3 1079.09   40.50
  -3  -4  -3 1036.30   37.90
   3   4   3 1081.09   40.40
   3   4   3 1065.79   39.70
   3   4   3 1133.79   40.40
  -4  -4  -3   94.09    5.80
  -4  -4  -3  102.09    6.50
  -4  -4  -3  103.49    8.00
   4   4   3  104.99    6.80
   4   4   3  103.09    7.70
  -5  -4  -3  181.38   11.10
  -5  -4  -3  193.18   10.10
   5   4   3  185.38   11.10
   5   4   3  175.88    9.20
  -6  -4  -3  482.25   21.50
  -6  -4  -3  425.76   19.70
   6   4   3  507.95   20.80
   6   4   3  423.36   22.80
   6   4   3  461.25   18.60
  -7  -4  -3  247.48   14.50
  -7  -4  -3  266.27   16.60
   7   4   3  249.38   15.60
   7   4   3  266.47   12.40
   7   4   3  283.77   15.20
  -8  -4  -3   32.00    7.60
   8   4   3   19.90    8.00
   8   4   3   29.70    8.20
   8   4   3   30.60    4.50
   8   4   3   29.20    3.70
   8   4   3   30.60    5.40
   8   4   3   26.30    8.00
   4  -5  -3    3.90   10.30
   4  -5  -3    0.50    7.60
   4  -5  -3   -1.70    8.00
  -4   5   3   -5.40    8.40
  -4   5   3   11.10   10.30
  -4   5   3  -15.70    8.10
   3  -5  -3  227.08   15.50
   3  -5  -3  235.88   18.40
   3  -5  -3  219.38   17.00
   3  -5  -3  234.68   15.40
  -3   5   3  270.17   16.40
  -3   5   3  232.38   16.30
  -3   5   3  236.68   16.30
   2  -5  -3  138.89   11.20
   2  -5  -3  133.09   10.80
   2  -5  -3  124.49   12.00
  -2   5   3  132.89   11.50
   1  -5  -3   26.50    5.30
   1  -5  -3   25.70    6.00
   1  -5  -3   29.50    7.90
  -1   5   3   33.10    6.00
  -1   5   3   28.30    7.60
   0  -5  -3    8.80    4.60
   0  -5  -3    9.90    5.30
   0  -5  -3    0.80    3.60
   0   5   3    8.30    4.90
   0   5   3    6.20    3.00
   0   5   3    7.40    4.40
  -1  -5  -3  682.33   27.10
  -1  -5  -3  630.94   25.00
   1   5   3  654.63   25.40
   1   5   3  671.33   26.50
  -2  -5  -3 1396.56   50.99
  -2  -5  -3 1395.56   51.39
  -2  -5  -3 1334.07   48.90
   2   5   3 1368.96   51.09
   2   5   3 1367.46   50.49
   2   5   3 1339.67   50.39
  -3  -5  -3  278.07   14.20
  -3  -5  -3  290.77   13.90
   3   5   3  308.27   13.60
   3   5   3  273.37   13.10
  -4  -5  -3  653.23   25.20
  -4  -5  -3  658.63   26.60
  -4  -5  -3  597.24   24.60
   4   5   3  648.14   24.60
   4   5   3  627.04   26.10
   4   5   3  640.34   26.00
  -5  -5  -3  722.43   30.20
  -5  -5  -3  709.43   28.60
  -5  -5  -3  722.03   28.30
   5   5   3  776.12   30.40
   5   5   3  739.73   27.70
   5   5   3  744.83   30.00
  -6  -5  -3  303.27   12.30
  -6  -5  -3  288.37   14.50
  -6  -5  -3  295.77   16.20
   6   5   3  312.47   16.60
   6   5   3  282.57   12.10
   6   5   3  244.08   21.20
  -7  -5  -3  121.49   10.50
   7   5   3  112.89   12.30
   7   5   3  114.99   11.60
   7   5   3  114.89    6.10
  -8  -5  -3   67.89   11.10
   8   5   3   67.49   10.00
   8   5   3   88.99   10.50
   3  -6  -3   23.30   11.30
   3  -6  -3   19.10    8.60
   3  -6  -3   10.90    9.40
   3  -6  -3   24.00    8.80
  -3   6   3   12.60    8.90
  -3   6   3    1.10    9.10
   2  -6  -3   51.69    7.40
   2  -6  -3   22.60    7.70
   2  -6  -3   26.60    8.40
  -2   6   3   19.80    7.40
   1  -6  -3    1.30    6.00
   1  -6  -3    9.40    6.90
   1  -6  -3    8.60    5.60
  -1   6   3    6.50    5.80
  -1   6   3    7.80    6.70
   0  -6  -3  180.38   11.00
   0  -6  -3  188.68   12.70
   0  -6  -3  175.28   13.00
   0   6   3  188.18    9.40
   0   6   3  195.38   12.80
   0   6   3  150.88   13.00
  -1  -6  -3  532.35   21.00
  -1  -6  -3  531.85   23.60
  -1  -6  -3  533.55   22.90
   1   6   3  512.25   24.20
   1   6   3  507.85   21.10
  -2  -6  -3   19.40    6.10
  -2  -6  -3   26.20    3.20
   2   6   3   29.30    5.30
   2   6   3   20.50    4.60
  -3  -6  -3  392.96   17.70
   3   6   3  380.36   17.10
   3   6   3  378.06   18.50
   3   6   3  409.66   17.40
  -4  -6  -3   19.90    5.10
  -4  -6  -3   19.40    5.30
   4   6   3   18.50    6.90
   4   6   3   20.90    5.50
   4   6   3   22.50    4.20
  -5  -6  -3  861.91   35.10
  -5  -6  -3  917.21   36.10
   5   6   3  928.11   34.10
   5   6   3  943.31   37.10
   5   6   3  918.81   37.00
  -6  -6  -3  165.18   10.30
  -6  -6  -3  176.48   10.90
   6   6   3  170.38    8.30
   6   6   3  172.08   13.30
   6   6   3  168.78   13.30
  -7  -6  -3   73.09    7.00
  -7  -6  -3   69.79    8.50
  -7  -6  -3   64.69    9.70
   7   6   3   65.59    9.40
   7   6   3   65.29    3.70
   7   6   3   60.69    9.40
  -8  -6  -3  479.45   26.60
  -8  -6  -3  458.05   22.70
   8   6   3  439.56   25.00
   8   6   3  492.35   25.30
   2  -7  -3   -1.60    8.90
   2  -7  -3   10.50    8.40
   2  -7  -3    4.70    8.50
  -2   7   3  -13.60    9.40
  -2   7   3    9.00    8.60
   1  -7  -3  130.19   13.70
   1  -7  -3  128.09   14.30
  -1   7   3  124.39   13.20
  -1   7   3  103.09   11.70
   0  -7  -3  252.67   15.30
   0  -7  -3  232.68   16.00
   0  -7  -3  218.48   15.30
   0   7   3  220.28   11.00
   0   7   3  212.48   14.70
   0   7   3  220.88   15.40
  -1  -7  -3    0.30    4.10
  -1  -7  -3    7.10    6.50
  -1  -7  -3    1.70    5.70
   1   7   3   -0.80    3.90
   1   7   3    3.10    6.30
   1   7   3    2.20    5.70
  -2  -7  -3    4.90    6.00
  -2  -7  -3    1.10    5.60
  -2  -7  -3    5.40    3.30
   2   7   3    5.90    5.40
  -3  -7  -3  246.58   18.40
  -3  -7  -3  269.87   15.30
   3   7   3  274.97   14.40
   3   7   3  277.57   16.20
   3   7   3  275.77   14.30
  -4  -7  -3  281.97   15.90
   4   7   3  243.28   13.00
   4   7   3  244.98   14.70
   4   7   3  246.98   15.60
  -5  -7  -3   59.99    8.50
   5   7   3   63.49    8.90
   5   7   3   68.09    7.20
   5   7   3   69.29    8.60
  -6  -7  -3   91.89    9.00
  -6  -7  -3   94.09   12.00
  -6  -7  -3   81.49   10.70
   6   7   3  105.09    6.80
   6   7   3  106.29   10.90
   6   7   3  102.59   10.60
  -7  -7  -3  158.48   16.40
  -7  -7  -3  168.98   12.20
  -7  -7  -3  138.69   13.10
   7   7   3  165.78   16.50
   7   7   3  158.58   15.20
   0  -8  -3  117.89   12.80
   0  -8  -3  126.69   14.90
   0   8   3  110.59    7.60
   0   8   3  115.69   12.50
   0   8   3  114.59   12.20
  -1  -8  -3   -1.70    7.90
  -1  -8  -3    7.30    5.40
  -1  -8  -3    4.20    7.30
   1   8   3   18.20    7.80
   1   8   3  -14.10    6.90
   1   8   3   -0.60    4.40
  -2  -8  -3   99.39    8.00
  -2  -8  -3   80.89   10.70
  -2  -8  -3   81.39    9.70
   2   8   3   83.39    9.30
   2   8   3   99.49    9.80
  -3  -8  -3  312.07   19.80
  -3  -8  -3  336.57   18.60
   3   8   3  327.87   17.30
  -4  -8  -3   -2.80    7.80
  -4  -8  -3   10.90    8.40
  -4  -8  -3   17.60    6.60
   4   8   3    8.40    6.50
   4   8   3   -5.90    6.60
   4   8   3   -2.20    9.70
  -5  -8  -3   -0.20    8.20
  -5  -8  -3    8.60    8.40
   5   8   3    8.50    7.10
   5   8   3    6.30    4.90
   5   8   3    4.50    8.20
  -6  -8  -3  137.49   16.30
  -6  -8  -3  142.89   16.60
   6   8   3  146.99   15.60
   6   8   3  180.08   15.30
   3   7  -4  -11.20    9.30
   3   7  -4   -0.40    7.30
  -3  -7   4    4.20    6.10
  -3  -7   4    0.60   12.60
   2   7  -4   17.00    7.70
   2   7  -4   12.40    8.50
   2   7  -4    5.70    9.90
  -2  -7   4   -5.10   12.10
  -2  -7   4    2.90    6.90
   1   7  -4   71.59   10.00
   1   7  -4   80.49   10.40
   1   7  -4   86.69   11.40
  -1  -7   4   65.29   14.40
  -1  -7   4   66.29    9.90
  -1  -7   4   74.79    9.20
   5   6  -4   33.40   11.90
  -5  -6   4   51.39   15.00
   4   6  -4    4.00    9.00
  -4  -6   4   -2.90    3.90
  -4  -6   4    4.10   11.20
   3   6  -4   -0.70    6.80
   3   6  -4   14.00    8.60
  -3  -6   4   14.20    9.70
   2   6  -4  109.99   13.40
   2   6  -4   85.79   10.20
  -2  -6   4   86.99    9.70
  -2  -6   4   71.19   12.20
   1   6  -4   56.89    9.30
   1   6  -4   61.19    8.60
   1   6  -4   61.09    8.30
  -1  -6   4   61.79    7.90
  -1  -6   4   58.89    7.80
  -1  -6   4   71.99   11.50
   0   6  -4   46.70   15.60
   0   6  -4   45.70    8.30
   0  -6   4   74.19   11.90
   0  -6   4   61.79    7.00
   0  -6   4   46.70    8.20
  -1   6  -4   34.80    8.80
  -1   6  -4   33.60    8.20
   1  -6   4   40.80   11.40
   1  -6   4   26.80    8.10
   1  -6   4   35.30    5.60
  -2   6  -4   86.89   11.30
  -2   6  -4   81.29   11.70
  -2   6  -4   51.29    7.70
  -2   6  -4   88.29    9.10
   2  -6   4   90.69   10.70
   2  -6   4   80.49    7.70
   2  -6   4   77.09   14.10
   6   5  -4   94.19   14.50
   6   5  -4   73.99   15.90
  -6  -5   4  118.39   17.60
   5   5  -4   31.60   12.70
   5   5  -4   60.99   11.50
  -5  -5   4   52.89   13.50
   4   5  -4   19.10    8.80
  -4  -5   4   12.20    3.50
  -4  -5   4   21.30   10.40
   3   5  -4  181.18   14.10
  -3  -5   4  161.28   10.00
   2   5  -4  194.58   12.70
   2   5  -4  181.68   12.80
   1   5  -4    2.80    5.90
  -1  -5   4    3.00    5.10
   0   5  -4    0.40    6.30
   0   5  -4   -0.60    7.00
   0   5  -4   -1.50    4.50
   0  -5   4   12.30    6.80
   0  -5   4    3.30    4.30
  -1   5  -4  190.38   13.60
  -1   5  -4  187.38   13.60
   1  -5   4  169.58    9.90
   1  -5   4  195.78   16.40
   1  -5   4  166.58   12.80
  -2   5  -4  171.68   12.40
  -2   5  -4  170.38   11.00
  -2   5  -4  180.18   15.00
  -2   5  -4  163.48   14.60
   2  -5   4  174.88    8.90
   2  -5   4  173.08   14.20
   2  -5   4  191.48   17.40
  -3   5  -4   -3.90    4.10
  -3   5  -4   -1.90    7.60
  -3   5  -4   -1.70    7.90
  -3   5  -4    8.60    5.80
   3  -5   4  -15.60    6.70
   6   4  -4   68.99   15.20
   6   4  -4   87.49   13.10
  -6  -4   4   89.49   15.80
  -6  -4   4   89.49    9.40
   5   4  -4   -1.20    8.60
   5   4  -4    3.50   10.50
  -5  -4   4   10.10   10.00
   4   4  -4  131.59   13.60
   4   4  -4  129.29   16.90
  -4  -4   4  126.79    8.10
   3   4  -4  107.59   11.20
  -3  -4   4   96.19   13.60
   2   4  -4  267.37   13.90
  -2  -4   4  203.28   21.70
   1   4  -4   66.09    8.10
   1   4  -4   69.09    8.00
  -1  -4   4   54.89    9.60
   0   4  -4  829.82   34.00
   0   4  -4  826.32   31.70
   0   4  -4  848.72   33.40
   0  -4   4  786.02   36.80
  -1   4  -4  208.88   10.60
  -1   4  -4  224.08   13.40
  -1   4  -4  216.78   13.70
   1  -4   4  217.78   15.50
  -2   4  -4    9.10    4.40
  -2   4  -4   10.00    5.80
  -2   4  -4    2.40    5.90
  -2   4  -4    9.90    5.20
   2  -4   4    9.70    6.20
   2  -4   4    7.90    7.40
  -3   4  -4   89.99   11.30
  -3   4  -4   78.39    9.20
  -3   4  -4   82.29    7.20
  -3   4  -4   92.99    8.20
   3  -4   4   68.09    8.90
  -4   4  -4   58.79    6.50
  -4   4  -4   64.29    7.70
  -4   4  -4   64.49    9.60
  -4   4  -4   53.49    9.20
   4  -4   4   59.79    9.50
  -5   4  -4   80.59   12.40
  -5   4  -4   94.89    9.40
   5  -4   4   83.79   11.10
   7   3  -4   25.00   12.30
   7   3  -4   14.80   14.00
  -7  -3   4   20.10    7.90
  -7  -3   4   30.70   15.20
   6   3  -4    0.50    9.50
   6   3  -4   -6.90   11.10
  -6  -3   4    5.90   11.40
  -6  -3   4    1.20    6.00
   5   3  -4  106.19   14.20
   5   3  -4  129.59   14.20
  -5  -3   4  101.19    6.00
   4   3  -4  133.59   21.50
  -4  -3   4  105.89    7.20
  -4  -3   4  111.89   14.90
   3   3  -4  401.66   22.90
   3   3  -4  412.26   20.20
  -3  -3   4  430.26   23.00
  -3  -3   4  422.06   17.60
   2   3  -4    9.60    4.70
   2   3  -4    8.80    7.10
  -2  -3   4    3.60    6.60
   1   3  -4  153.68   11.00
   1   3  -4  147.09    9.50
  -1  -3   4  130.49   11.90
   0   3  -4  342.97   17.90
   0   3  -4  358.56   15.50
   0   3  -4  400.56   17.00
   0  -3   4  370.36   18.70
  -1   3  -4  139.89   10.90
  -1   3  -4  140.49    7.20
   1  -3   4  142.29   11.50
  -2   3  -4   18.00    4.50
  -2   3  -4   21.30    5.50
  -2   3  -4   17.90    3.60
  -2   3  -4   12.70    4.80
   2  -3   4   15.80    6.40
  -3   3  -4  125.49   12.60
  -3   3  -4  120.99    8.00
  -3   3  -4  116.99    8.80
  -4   3  -4  481.85   19.70
  -4   3  -4  457.15   19.10
  -4   3  -4  493.05   22.30
  -4   3  -4  422.96   21.50
   4  -3   4  454.85   22.00
  -5   3  -4   25.00    6.60
  -5   3  -4   19.90    7.60
  -5   3  -4   25.40    8.00
   5  -3   4   24.70    8.00
   5  -3   4   16.30    7.40
  -6   3  -4   24.30    9.50
   6  -3   4   26.10    9.30
   7   2  -4    3.80   11.60
   7   2  -4   16.40   12.00
   7   2  -4   45.40   13.90
  -7  -2   4   27.40   14.90
  -7  -2   4   17.20    7.00
   6   2  -4  154.88   15.90
   6   2  -4  147.89   19.30
   6   2  -4  156.38   18.40
  -6  -2   4  147.59   10.80
  -6  -2   4  157.08    8.60
  -6  -2   4  152.28   20.20
   5   2  -4  300.57   20.10
   5   2  -4  298.97   21.40
  -5  -2   4  298.27   12.90
  -5  -2   4  294.07   14.00
   4   2  -4  255.47   18.50
   4   2  -4  263.47   16.90
  -4  -2   4  263.37   11.70
  -4  -2   4  230.78   21.80
   3   2  -4    1.20    6.80
  -3  -2   4    1.60    3.40
  -3  -2   4   -3.30    6.50
   2   2  -4  304.57   19.00
   2   2  -4  413.16   17.90
  -2  -2   4  411.36   20.30
   1   2  -4  303.87   15.10
   1   2  -4  309.67   14.20
   1   2  -4  309.17   16.80
  -1  -2   4  270.47   16.00
   0   2  -4  553.84   21.50
   0   2  -4  533.45   23.20
   0  -2   4  558.64   24.00
  -1   2  -4   -1.20    4.30
  -1   2  -4   -1.40    3.90
  -1   2  -4   -0.10    1.90
   1  -2   4   -3.60    4.10
  -2   2  -4   59.79    5.90
  -2   2  -4   65.39    4.50
  -2   2  -4   69.99    7.80
   2  -2   4   61.79    7.90
  -3   2  -4  320.37   15.50
  -3   2  -4  307.67   14.20
  -3   2  -4  313.87   12.90
  -3   2  -4  305.87   14.40
   3  -2   4  294.57   15.10
  -4   2  -4  249.08   11.90
  -4   2  -4  254.07   13.70
  -4   2  -4  261.37   12.20
   4  -2   4  233.08   13.60
  -5   2  -4   14.80    5.20
  -5   2  -4   20.50    6.30
  -5   2  -4   13.90    6.70
   5  -2   4   13.20    6.50
   5  -2   4   13.30    5.50
   5  -2   4   26.90    7.10
  -6   2  -4   45.40    7.10
   6  -2   4   35.20    8.90
   6  -2   4   45.50    8.40
   6  -2   4   48.60    7.10
   7   1  -4   13.50   12.80
   7   1  -4    3.70   17.40
   7   1  -4    9.30   12.30
  -7  -1   4   14.50    6.40
   6   1  -4  219.08   17.40
   6   1  -4  216.98   18.70
   6   1  -4  191.78   19.10
  -6  -1   4  193.48   11.50
  -6  -1   4  206.78   21.90
  -6  -1   4  205.08   11.70
  -6  -1   4  194.48   14.40
   5   1  -4  221.08   16.90
   5   1  -4  209.38   18.00
  -5  -1   4  228.48   13.40
  -5  -1   4  219.68   11.10
  -5  -1   4  224.28   11.40
   4   1  -4    9.10    6.00
   4   1  -4    2.30    7.50
  -4  -1   4   12.10    3.80
  -4  -1   4    8.30    3.50
  -4  -1   4    5.10    4.90
  -3  -1   4   47.30    8.60
  -3  -1   4   54.79    6.30
  -3  -1   4   54.49    5.30
   2   1  -4 1335.47   53.59
  -2  -1   4 1417.76   49.80
  -2  -1   4 1394.96   50.89
  -2  -1   4 1354.26   53.79
   1   1  -4 1033.50   39.90
   1   1  -4 1040.80   41.20
  -1  -1   4 1032.00   41.10
   0   1  -4  228.08   12.30
   0   1  -4  231.98   13.10
   0  -1   4  229.58   12.60
  -1   1  -4 1301.27   49.80
  -1   1  -4 1336.47   47.70
   1  -1   4 1346.77   49.99
   1  -1   4 1328.27   49.80
  -2   1  -4  738.23   28.90
  -2   1  -4  750.82   28.60
  -2   1  -4  746.53   26.10
  -2   1  -4  737.33   27.00
   2  -1   4  692.53   28.70
   2  -1   4  714.03   28.70
  -3   1  -4  325.77   14.50
  -3   1  -4  298.67   14.60
  -3   1  -4  340.57   12.80
  -3   1  -4  324.07   13.70
   3  -1   4  323.57   15.10
  -4   1  -4   -3.60    3.10
  -4   1  -4    1.70    3.60
  -4   1  -4   -3.10    4.40
  -4   1  -4   -0.20    3.70
   4  -1   4    2.70    4.10
  -5   1  -4   46.70    8.10
  -5   1  -4   47.20    5.70
  -5   1  -4   45.00    5.40
   5  -1   4   57.29    6.50
   5  -1   4   46.30    6.90
  -6   1  -4  203.08   12.00
   6  -1   4  211.98   14.10
   6  -1   4  194.98   13.50
  -7   1  -4  113.09   10.60
   7  -1   4  134.49   14.30
   7  -1   4  141.09   12.90
   6   0  -4   31.80    9.90
   6   0  -4   49.20   11.10
  -6   0   4   56.79    7.00
  -6   0   4   30.00    9.00
  -6   0   4   44.20    6.20
   5   0  -4   14.70    8.90
  -5   0   4    7.70    4.80
  -5   0   4    2.40    6.60
  -5   0   4    3.80    4.00
   4   0  -4   41.20    5.50
   4   0  -4   57.99    9.60
  -4   0   4   45.50   11.80
  -4   0   4   52.29    5.70
  -4   0   4   47.00    6.40
  -4   0   4   55.39    5.10
   3   0  -4  171.18   11.00
   3   0  -4  174.48   11.60
  -3   0   4  196.78   13.20
  -3   0   4  177.78    9.60
  -3   0   4  144.29    9.10
  -3   0   4  163.38    9.60
   2   0  -4 2542.65   95.39
   2   0  -4 2530.45   93.69
   2   0  -4 2580.94   93.29
  -2   0   4 2623.54   92.09
  -2   0   4 2618.74   95.69
  -2   0   4 2596.84   92.99
   1   0  -4   75.89    7.30
   1   0  -4   78.19    7.90
  -1   0   4   60.89    8.40
  -1   0   4   70.79    6.90
  -1   0   4   72.29    4.60
   0   0  -4  401.26   17.50
   0   0  -4  395.46   18.00
   0   0   4  398.96   14.40
   0   0   4  393.86   17.40
   0   0   4  372.66   17.90
  -1   0  -4  922.41   34.70
  -1   0  -4  921.61   34.70
   1   0   4  863.51   34.30
   1   0   4  884.81   34.40
  -2   0  -4 1555.44   55.29
  -2   0  -4 1462.55   53.19
  -2   0  -4 1464.85   53.29
  -2   0  -4 1528.15   55.49
   2   0   4 1535.35   55.09
   2   0   4 1488.75   55.39
  -3   0  -4  293.97   13.70
  -3   0  -4  299.17   13.80
   3   0   4  320.17   13.50
   3   0   4  310.07   14.10
  -4   0  -4  203.98   11.10
   4   0   4  220.38   11.60
  -5   0  -4 1601.64   56.99
  -5   0  -4 1545.15   58.19
  -5   0  -4 1554.24   57.69
   5   0   4 1548.25   55.49
   5   0   4 1574.74   56.89
   5   0   4 1557.04   58.39
   5   0   4 1578.84   58.19
  -6   0  -4  110.39   10.20
   6   0   4  115.59    9.10
   6   0   4  130.89   11.40
   6   0   4  111.09    6.00
   7   0   4    3.10    5.80
   7   0   4    4.80    5.70
   7   0   4    3.40    5.80
   7   0   4    3.60    3.10
   7   0   4   -4.90    6.60
   6  -1  -4   -1.30   10.10
   6  -1  -4    6.10    8.60
   6  -1  -4   21.40    9.70
   6  -1  -4   10.50   12.90
  -6   1   4   -5.10    6.50
  -6   1   4    5.30    8.40
   5  -1  -4    2.50    8.50
   5  -1  -4   12.70    7.50
   5  -1  -4    3.10    5.20
   5  -1  -4    6.40    6.10
  -5   1   4    2.70    5.20
  -5   1   4    5.60    5.80
   4  -1  -4  693.23   29.80
   4  -1  -4  678.83   28.40
  -4   1   4  671.73   27.80
  -4   1   4  692.83   28.20
   3  -1  -4  347.67   18.90
   3  -1  -4  342.67   16.10
   3  -1  -4  335.37   16.40
   3  -1  -4  357.46   17.40
  -3   1   4  376.16   16.50
  -3   1   4  375.16   19.20
  -3   1   4  343.37   13.40
  -3   1   4  345.87   15.40
   2  -1  -4   83.89    9.50
   2  -1  -4   87.09    8.30
   2  -1  -4   86.09    7.10
   2  -1  -4   98.89    7.90
  -2   1   4   89.59    3.90
  -2   1   4   90.89    7.50
  -2   1   4   97.39   10.40
  -2   1   4  101.39    6.70
   1  -1  -4  176.88    9.60
   1  -1  -4  193.48   10.70
   1  -1  -4  195.48   11.40
  -1   1   4  196.58   11.90
  -1   1   4  195.28    8.60
  -1   1   4  176.88   10.10
   0  -1  -4  546.55   22.90
   0  -1  -4  558.44   22.70
   0  -1  -4  567.54   20.90
   0   1   4  545.65   22.50
   0   1   4  544.75   22.40
   0   1   4  563.54   23.10
  -1  -1  -4 1095.09   39.90
  -1  -1  -4 1029.00   39.80
   1   1   4 1016.20   39.70
   1   1   4 1091.89   39.70
  -2  -1  -4  463.95   18.70
  -2  -1  -4  469.95   17.80
  -2  -1  -4  435.56   17.20
  -2  -1  -4  454.45   17.00
   2   1   4  442.46   18.50
   2   1   4  434.66   17.90
  -3  -1  -4  588.04   22.00
  -3  -1  -4  594.64   23.20
  -3  -1  -4  568.74   22.60
  -3  -1  -4  576.34   21.50
   3   1   4  576.14   20.80
   3   1   4  599.14   23.20
   3   1   4  558.14   21.90
  -4  -1  -4 1407.36   51.49
  -4  -1  -4 1382.86   50.99
  -4  -1  -4 1387.56   50.59
  -4  -1  -4 1348.37   49.99
   4   1   4 1356.46   49.70
   4   1   4 1390.86   51.59
   4   1   4 1432.76   50.09
   4   1   4 1397.46   49.80
  -5  -1  -4  303.17   14.40
  -5  -1  -4  309.57   15.00
  -5  -1  -4  362.86   14.20
   5   1   4  298.47   13.20
   5   1   4  289.37   12.60
   5   1   4  312.77   14.60
  -6  -1  -4  175.28   11.10
  -6  -1  -4  168.28   11.50
   6   1   4  175.58   11.90
   6   1   4  190.58    9.10
   6   1   4  191.18   11.50
   6   1   4  191.18   10.60
   6   1   4  186.38   10.90
  -7  -1  -4   70.99    9.00
   7   1   4   55.39    7.30
   7   1   4   66.59    8.30
   7   1   4   68.89    6.90
   7   1   4   62.79    7.20
   7   1   4   97.69    9.80
   7   1   4   67.69    8.00
   8   1   4  321.87   18.80
   8   1   4  367.46   15.50
   8   1   4  323.87   19.10
   8   1   4  305.07   17.40
   8   1   4  303.57   18.10
   6  -2  -4   10.60    7.10
   6  -2  -4  -10.80    9.90
   6  -2  -4    6.00    9.90
   6  -2  -4    3.40    7.70
  -6   2   4  -11.60    8.00
   5  -2  -4  118.89   15.90
   5  -2  -4  130.59   11.40
   5  -2  -4  112.59   12.40
   5  -2  -4  111.29   11.50
  -5   2   4  143.79   11.10
  -5   2   4  108.99   12.90
   4  -2  -4  193.58   16.00
   4  -2  -4  181.78   12.50
   4  -2  -4  215.68   12.70
  -4   2   4  222.28   13.60
  -4   2   4  198.98   14.70
   3  -2  -4   85.79    8.80
   3  -2  -4   99.49   10.10
   3  -2  -4   77.99   11.00
  -3   2   4  102.29    9.10
  -3   2   4   80.99    7.20
   2  -2  -4   20.30    4.80
   2  -2  -4   12.30    5.00
   2  -2  -4   26.80    5.00
  -2   2   4   29.30    4.10
  -2   2   4   25.90    4.70
  -2   2   4   30.90    5.30
   1  -2  -4 1322.17   50.59
   1  -2  -4 1388.06   50.39
   1  -2  -4 1358.66   51.69
   1  -2  -4 1378.96   50.69
  -1   2   4 1386.46   50.79
  -1   2   4 1355.06   50.09
   0  -2  -4  972.50   36.30
   0  -2  -4 1027.20   37.40
   0  -2  -4 1003.20   37.40
   0  -2  -4  972.80   37.70
   0   2   4 1000.40   36.20
   0   2   4  969.70   37.40
   0   2   4  959.30   37.20
  -1  -2  -4    0.60    1.20
  -1  -2  -4    0.60    3.00
  -1  -2  -4   -0.70    2.70
   1   2   4    5.80    3.50
   1   2   4    2.50    1.60
   1   2   4    3.30    2.90
   1   2   4    3.70    3.00
  -2  -2  -4  806.42   29.30
  -2  -2  -4  814.82   28.40
  -2  -2  -4  736.53   29.00
  -2  -2  -4  785.42   29.90
   2   2   4  792.92   29.90
   2   2   4  733.83   30.20
   2   2   4  782.92   27.80
  -3  -2  -4  916.41   34.70
  -3  -2  -4  929.51   34.70
  -3  -2  -4  956.20   34.30
  -3  -2  -4  931.21   35.60
   3   2   4  957.40   34.60
   3   2   4  953.20   35.70
  -4  -2  -4  882.81   33.30
  -4  -2  -4  879.61   33.20
  -4  -2  -4  897.91   34.50
  -4  -2  -4  888.21   33.40
   4   2   4  907.51   33.10
   4   2   4  918.91   34.60
  -5  -2  -4   -2.50    3.90
  -5  -2  -4    0.30    3.50
  -5  -2  -4    2.60    3.30
   5   2   4    1.40    3.00
   5   2   4    0.00    2.80
  -6  -2  -4   22.70    5.70
   6   2   4   20.40    4.10
   6   2   4   24.40    4.60
   6   2   4   21.50    3.40
   6   2   4   15.40    5.50
  -7  -2  -4  543.85   24.50
   7   2   4  586.04   23.10
   7   2   4  571.54   25.70
   7   2   4  518.85   22.90
   7   2   4  578.74   24.00
   7   2   4  589.44   26.50
  -8  -2  -4  180.48   16.40
   8   2   4  195.28   12.70
   8   2   4  189.98   14.40
   8   2   4  211.98   13.80
   8   2   4  172.68   12.80
   8   2   4  214.78   15.50
   8   2   4  240.28   12.40
   5  -3  -4   68.99   12.40
   5  -3  -4   55.89   11.20
   5  -3  -4   73.79    9.60
   5  -3  -4   75.19    8.90
  -5   3   4   48.70    9.00
  -5   3   4   68.59   10.00
   4  -3  -4  135.89   15.60
   4  -3  -4  170.48   14.50
   4  -3  -4  151.08   10.30
   4  -3  -4  154.38   12.00
  -4   3   4  124.39   12.40
   3  -3  -4    1.30    5.10
   3  -3  -4   -1.90    3.90
   3  -3  -4    4.80    6.70
   3  -3  -4    5.00    6.20
  -3   3   4    6.40    5.80
  -3   3   4   -1.40    5.70
  -3   3   4    6.20    5.80
   2  -3  -4  369.56   17.90
   2  -3  -4  376.86   16.20
   2  -3  -4  361.06   18.90
   2  -3  -4  360.06   17.20
  -2   3   4  364.06   16.30
  -2   3   4  375.16   17.60
  -2   3   4  390.56   17.10
   1  -3  -4  412.46   19.10
   1  -3  -4  435.16   17.80
   1  -3  -4  410.16   17.10
   1  -3  -4  401.16   17.80
  -1   3   4  400.16   17.40
  -1   3   4  388.26   17.40
  -1   3   4  387.06   18.10
   0  -3  -4  173.98    6.50
   0  -3  -4  183.28    9.50
   0  -3  -4  170.98    9.20
   0  -3  -4  182.98   10.30
   0   3   4  154.68    9.20
   0   3   4  174.38    8.60
   0   3   4  169.48   10.00
  -1  -3  -4    9.00    3.40
  -1  -3  -4    8.00    3.70
  -1  -3  -4   12.50    3.40
  -1  -3  -4    8.00    3.80
  -1  -3  -4   10.10    1.60
   1   3   4    8.70    3.40
   1   3   4    9.90    3.80
   1   3   4    9.00    2.40
  -2  -3  -4 1754.72   61.59
  -2  -3  -4 1740.63   62.39
  -2  -3  -4 1712.73   63.09
  -2  -3  -4 1717.63   63.09
   2   3   4 1730.63   63.49
   2   3   4 1738.93   63.19
  -3  -3  -4  650.53   24.60
  -3  -3  -4  696.03   26.40
  -3  -3  -4  676.03   25.30
  -3  -3  -4  684.93   26.90
   3   3   4  688.43   27.10
   3   3   4  693.93   26.90
   3   3   4  696.23   26.20
  -4  -3  -4  126.89    7.40
  -4  -3  -4  127.99    9.00
  -4  -3  -4  130.39    8.50
  -4  -3  -4  137.89    6.80
   4   3   4  129.49    7.70
   4   3   4  124.79    9.20
   4   3   4  169.38    8.80
  -5  -3  -4  489.35   18.90
  -5  -3  -4  476.95   20.30
  -5  -3  -4  485.85   19.60
   5   3   4  472.95   19.70
   5   3   4  481.45   20.90
  -6  -3  -4  610.14   25.30
  -6  -3  -4  590.24   24.40
   6   3   4  597.94   25.70
   6   3   4  604.14   24.30
  -7  -3  -4  348.17   18.00
   7   3   4  422.26   17.50
   7   3   4  377.56   18.40
   7   3   4  361.16   19.60
  -8  -3  -4   21.90    8.20
   8   3   4   25.20    6.30
   8   3   4   12.20    6.70
   8   3   4   38.00    8.40
   4  -4  -4    0.20    2.10
   4  -4  -4   -0.50    8.90
   4  -4  -4    2.60    6.90
   4  -4  -4   -4.30    7.60
  -4   4   4   -7.90    7.90
  -4   4   4   -0.20    8.00
  -4   4   4   -5.30    7.30
   3  -4  -4  195.08   16.10
   3  -4  -4  190.68   13.40
   3  -4  -4  186.48    9.10
  -3   4   4  206.68   14.10
  -3   4   4  179.28   13.90
   2  -4  -4  278.37   12.40
   2  -4  -4  270.87   19.80
   2  -4  -4  293.57   17.20
  -2   4   4  295.07   15.80
  -2   4   4  294.67   15.40
   1  -4  -4    8.50    4.80
   1  -4  -4   13.70    3.30
   1  -4  -4   15.50    6.00
  -1   4   4   12.10    3.90
  -1   4   4   10.80    5.30
   0  -4  -4   48.70    6.40
   0  -4  -4   46.40    6.40
   0  -4  -4   59.09    5.70
   0   4   4   54.59    6.10
   0   4   4   49.99    6.10
   0   4   4   54.59    6.00
  -1  -4  -4  281.17   13.70
  -1  -4  -4  294.77   14.20
  -1  -4  -4  271.87   13.40
  -1  -4  -4  269.67   12.70
   1   4   4  286.27   13.00
   1   4   4  267.87   12.30
   1   4   4  296.07   13.80
  -2  -4  -4  726.63   26.70
  -2  -4  -4  723.93   28.90
  -2  -4  -4  750.42   28.00
  -2  -4  -4  753.82   29.00
  -2  -4  -4  731.23   28.40
   2   4   4  710.23   28.60
   2   4   4  705.23   28.30
  -3  -4  -4  205.58    8.90
  -3  -4  -4  197.98   10.80
  -3  -4  -4  205.88    9.00
  -3  -4  -4  172.88   10.50
   3   4   4  201.08   10.40
   3   4   4  187.48   10.40
   3   4   4  183.58   10.60
  -4  -4  -4   34.20    3.20
  -4  -4  -4   44.40    5.60
  -4  -4  -4   43.30    4.50
   4   4   4   39.80    5.30
   4   4   4   32.90    5.00
  -5  -4  -4  690.53   28.00
  -5  -4  -4  685.83   26.80
   5   4   4  669.03   28.30
   5   4   4  719.23   27.60
  -6  -4  -4  365.16   16.60
  -6  -4  -4  388.26   17.90
   6   4   4  357.66   18.60
   6   4   4  371.96   17.00
   6   4   4  347.47   16.80
  -7  -4  -4  172.88   16.20
  -7  -4  -4  169.68   12.20
   7   4   4  175.08   11.60
   7   4   4  184.68   12.20
   7   4   4  189.78   13.40
  -8  -4  -4  146.49   13.00
   8   4   4  130.29   13.60
   8   4   4  158.48   13.00
   8   4   4  141.89   14.40
   8   4   4  122.29   11.40
   4  -5  -4  282.27   22.60
   4  -5  -4  292.07   19.50
   4  -5  -4  232.68   19.30
  -4   5   4  252.97   19.30
  -4   5   4  257.57   20.30
  -4   5   4  235.18   19.30
   3  -5  -4   65.79   11.40
   3  -5  -4   31.90    8.40
   3  -5  -4   39.10    8.50
  -3   5   4   41.30    9.40
  -3   5   4   53.09    9.70
  -3   5   4   34.90    8.90
   2  -5  -4  276.87   18.40
   2  -5  -4  264.07   17.40
   2  -5  -4  250.57   15.90
  -2   5   4  286.47   15.90
   1  -5  -4    0.60    6.90
   1  -5  -4    2.50    5.70
   1  -5  -4    5.60    6.40
  -1   5   4    8.10    5.20
   0  -5  -4  335.17   16.50
   0   5   4  325.57   14.80
   0   5   4  340.77   15.90
  -1  -5  -4  497.95   22.70
  -1  -5  -4  517.75   22.40
   1   5   4  523.05   22.40
   1   5   4  523.05   21.20
   1   5   4  530.05   21.30
  -2  -5  -4  241.08   13.40
   2   5   4  243.48   12.10
   2   5   4  244.18   12.70
  -3  -5  -4  225.78   12.50
  -3  -5  -4  213.08    9.90
  -3  -5  -4  210.08   12.50
   3   5   4  209.58   12.10
   3   5   4  225.38   11.80
  -4  -5  -4   19.90    3.50
  -4  -5  -4   21.10    4.20
  -4  -5  -4   24.80    5.50
   4   5   4   25.00    5.40
   4   5   4   22.10    5.30
   4   5   4   24.70    4.60
  -5  -5  -4  471.65   19.60
  -5  -5  -4  459.25   21.20
   5   5   4  477.75   19.60
   5   5   4  485.55   20.90
   5   5   4  457.55   21.50
  -6  -5  -4  135.29   10.10
  -6  -5  -4  144.09   12.30
   6   5   4  138.49   11.50
   6   5   4  147.69   11.70
   6   5   4  131.39    8.90
  -7  -5  -4   22.70    6.80
   7   5   4   18.00    7.30
   7   5   4   25.30    6.80
   7   5   4   19.10    4.50
  -8  -5  -4  216.18   18.10
   8   5   4  202.38   14.80
   8   5   4  207.68   10.80
   8   5   4  171.78   15.70
   3  -6  -4  107.39   12.60
   3  -6  -4  128.19   14.00
   3  -6  -4   82.29   11.50
   3  -6  -4  110.99   15.20
  -3   6   4  105.09   12.60
  -3   6   4  117.39   13.10
  -3   6   4   84.29   12.80
   2  -6  -4    8.60    7.20
   2  -6  -4   12.90    9.70
   2  -6  -4    2.60    7.50
   2  -6  -4   -5.90    8.60
  -2   6   4    0.30    8.00
  -2   6   4   14.90    7.30
   1  -6  -4  122.29   12.80
   1  -6  -4  112.09   11.00
   1  -6  -4  120.49   12.90
  -1   6   4  115.89   12.30
  -1   6   4  105.29   11.40
   0  -6  -4  444.76   19.70
   0  -6  -4  441.96   22.10
   0  -6  -4  485.75   21.80
   0   6   4  438.86   18.80
   0   6   4  435.26   20.70
   0   6   4  441.16   21.60
  -1  -6  -4  285.67   16.10
  -1  -6  -4  288.27   13.20
  -1  -6  -4  259.47   16.80
   1   6   4  269.67   15.30
   1   6   4  277.77   13.50
   1   6   4  272.97   14.60
  -2  -6  -4   29.50    6.50
  -2  -6  -4   36.00    3.80
   2   6   4   27.30    6.10
   2   6   4   19.50    4.60
  -3  -6  -4  439.96   16.70
   3   6   4  446.56   20.00
   3   6   4  474.35   20.10
   3   6   4  448.86   22.60
  -4  -6  -4  404.26   17.40
  -4  -6  -4  394.86   19.20
  -4  -6  -4  360.46   16.30
   4   6   4  386.16   18.30
   4   6   4  362.26   17.20
  -5  -6  -4  133.69    9.20
  -5  -6  -4  124.09    9.50
   5   6   4  153.28   11.80
   5   6   4  143.99    9.10
   5   6   4  141.29   12.10
  -6  -6  -4   12.80    6.00
  -6  -6  -4   -4.50    5.50
   6   6   4    8.60    6.40
   6   6   4    6.70    4.00
   6   6   4    5.20    6.30
  -7  -6  -4  128.29   11.70
  -7  -6  -4  153.78   15.00
   7   6   4  129.39    8.20
   7   6   4  109.59   13.20
   7   6   4  128.99   13.50
  -8  -6  -4  143.39   16.30
  -8  -6  -4  133.59   12.90
   8   6   4  137.09    7.30
   8   6   4  146.89   15.60
   8   6   4  161.88   15.60
   1  -7  -4  125.29   15.10
   1  -7  -4  105.69   12.40
  -1   7   4   97.99   10.80
  -1   7   4  108.59   12.00
   0  -7  -4  280.17   18.60
   0  -7  -4  294.17   15.60
   0  -7  -4  306.07   18.10
   0   7   4  291.27   18.00
   0   7   4  291.67   14.00
   0   7   4  294.97   17.20
  -1  -7  -4    6.40    6.60
  -1  -7  -4   -5.20    4.10
  -1  -7  -4    7.30    7.40
   1   7   4    6.40    6.80
   1   7   4    0.10    4.20
   1   7   4    2.30    5.80
  -2  -7  -4  131.09   13.00
  -2  -7  -4  129.29   11.90
  -2  -7  -4  123.89    8.10
   2   7   4  130.29   11.20
  -3  -7  -4  198.08    8.40
  -3  -7  -4  212.68   14.20
   3   7   4  183.38   12.70
   3   7   4  200.78   13.00
  -4  -7  -4  438.56   21.20
   4   7   4  439.36   20.10
   4   7   4  453.45   21.10
   4   7   4  468.25   22.10
  -5  -7  -4   31.10    8.20
  -5  -7  -4   22.60    6.20
  -5  -7  -4   14.20    5.90
   5   7   4   27.20    7.30
   5   7   4   22.50    5.10
   5   7   4   25.20    7.70
  -6  -7  -4  123.09   14.20
  -6  -7  -4  122.59   10.00
  -6  -7  -4  119.09   10.90
   6   7   4  108.19   12.90
   6   7   4  139.29   13.30
   6   7   4  125.59    8.90
  -7  -7  -4  465.75   25.60
  -7  -7  -4  508.65   25.60
   7   7   4  464.65   19.00
   7   7   4  483.55   25.20
   7   7   4  463.75   24.70
   0  -8  -4   28.10   10.60
   0  -8  -4    8.40    8.60
   0   8   4   11.10    8.30
   0   8   4   12.10    4.60
   0   8   4   14.20    9.90
  -1  -8  -4   27.40    8.80
  -1  -8  -4   36.00    6.40
  -1  -8  -4   27.20    9.50
   1   8   4   33.90    9.20
   1   8   4   23.60    8.10
  -2  -8  -4  199.68   10.90
  -2  -8  -4  182.58   16.50
  -2  -8  -4  183.68   15.30
   2   8   4  185.18   14.60
   2   8   4  197.88   13.00
   2   8   4  193.58   15.50
  -3  -8  -4  165.58   15.30
  -3  -8  -4  165.98   15.90
   3   8   4  187.48   13.30
   3   8   4  191.48   14.00
  -4  -8  -4   25.70    8.00
  -4  -8  -4   28.10    9.60
  -4  -8  -4   19.80    8.40
   4   8   4   12.40    8.20
   4   8   4    9.30    6.90
   4   8   4    4.90    5.80
  -5  -8  -4   79.39   11.10
  -5  -8  -4   73.69    8.40
  -5  -8  -4   78.29    9.90
   5   8   4   89.69   10.20
   5   8   4   67.99   10.20
   5   8   4   76.39    9.00
  -6  -8  -4  214.58   16.50
  -6  -8  -4  222.28   15.00
  -6  -8  -4  244.58   19.60
   6   8   4  252.97   13.00
   6   8   4  247.48   18.40
   6   8   4  252.57   18.20
   4   6  -5  -15.30   10.40
  -4  -6   5   14.00   14.20
   3   6  -5   52.59   10.30
   3   6  -5   49.30   10.70
  -3  -6   5   58.59   13.70
  -3  -6   5   52.99    7.20
   2   6  -5   91.59   11.20
   2   6  -5   93.29   13.00
   2   6  -5   83.39   11.00
  -2  -6   5  110.19   11.50
  -2  -6   5   60.49   13.60
   1   6  -5   25.70    8.80
   1   6  -5   21.10    7.80
   1   6  -5   24.70   10.30
  -1  -6   5   24.30   12.00
  -1  -6   5   30.00    7.90
   0   6  -5   -8.10    8.60
   0  -6   5   -0.60   11.20
   0  -6   5   -3.90    7.70
  -1   6  -5   27.40    9.70
  -1   6  -5   13.00    9.10
   1  -6   5    1.10    8.30
   1  -6   5   11.30   12.30
   5   5  -5    2.70   11.00
   5   5  -5   10.50   13.90
  -5  -5   5    1.20    2.50
  -5  -5   5   -9.90   13.30
  -5  -5   5    7.70    3.20
   4   5  -5   44.20   10.70
  -4  -5   5   32.50    5.10
  -4  -5   5   45.90    6.00
  -4  -5   5   35.40   13.30
   3   5  -5   72.19   10.30
  -3  -5   5   63.59   12.80
   2   5  -5   65.99    9.70
   2   5  -5   44.60    8.20
   2   5  -5   44.00    8.60
   1   5  -5  229.58   16.00
   1   5  -5  242.88   14.80
  -1  -5   5  237.68   18.80
   0   5  -5  300.17   19.30
   0   5  -5  283.17   15.00
   0   5  -5  283.87   18.50
   0  -5   5  270.07   16.30
   0  -5   5  307.27   20.80
  -1   5  -5  144.89   14.20
   1  -5   5  159.98   14.50
   1  -5   5  170.08   17.20
  -2   5  -5   60.29    9.80
  -2   5  -5   36.30    8.80
  -2   5  -5   54.69    6.30
  -2   5  -5   45.00    8.50
   2  -5   5   56.59    9.50
   2  -5   5   57.59   11.40
  -3   5  -5   -6.40    6.00
  -3   5  -5   -0.30    5.50
  -3   5  -5    2.10    8.80
  -3   5  -5    7.10    9.30
   3  -5   5    1.60   10.50
   3  -5   5   -0.60    8.70
   6   4  -5   -5.30   14.10
   6   4  -5   -1.70   12.60
  -6  -4   5  -16.20   14.50
   5   4  -5   57.39   12.30
   5   4  -5   73.59   14.30
  -5  -4   5   62.69    6.20
  -5  -4   5   70.69   14.20
   4   4  -5  104.09   12.50
   4   4  -5  104.99   15.20
  -4  -4   5  103.69    9.10
  -4  -4   5   86.89   13.20
   3   4  -5  223.08   19.80
   3   4  -5  232.98   16.60
   2   4  -5    8.80    6.50
   1   4  -5   99.29   11.50
   1   4  -5   90.89   10.20
   0   4  -5  247.68   13.20
   0   4  -5  268.07   18.20
   0   4  -5  252.07   16.40
   0  -4   5  259.47   17.60
  -1   4  -5   77.09    6.70
  -1   4  -5   70.39    9.50
  -1   4  -5   66.79    8.90
   1  -4   5   58.99    9.50
  -2   4  -5   35.30    6.70
  -2   4  -5   31.80    8.30
  -2   4  -5   24.50    7.10
  -2   4  -5   48.50    4.90
   2  -4   5   33.10    8.80
  -3   4  -5   17.90    7.10
  -3   4  -5   12.00    6.00
  -3   4  -5   18.80    7.90
  -3   4  -5   22.40    5.00
   3  -4   5   21.30    7.80
   3  -4   5   21.10    9.30
  -4   4  -5  160.28   15.00
  -4   4  -5  169.48   16.00
  -4   4  -5  159.48   11.50
  -4   4  -5  195.58   11.20
   4  -4   5  164.28   15.50
   4  -4   5  178.48   17.40
   6   3  -5   40.80   12.20
   6   3  -5   34.40   14.50
  -6  -3   5   26.10    7.20
  -6  -3   5   17.80   14.50
  -6  -3   5   29.80    3.40
   5   3  -5  165.98   17.30
   5   3  -5  137.39   19.60
  -5  -3   5  166.38   20.30
  -5  -3   5  159.88    9.30
   4   3  -5   97.89   11.80
   4   3  -5  102.29   13.80
  -4  -3   5   95.49    8.40
  -4  -3   5   71.09   11.10
   3   3  -5   27.00   10.30
   3   3  -5   34.60    8.20
  -3  -3   5   35.40    5.60
   2   3  -5  209.48   14.90
   2   3  -5  194.98   17.30
   2   3  -5  252.47   13.40
   1   3  -5  546.45   23.00
   1   3  -5  526.55   24.70
   0   3  -5  290.87   16.90
   0   3  -5  312.47   16.60
   0   3  -5  307.27   14.00
   0  -3   5  304.97   17.80
  -1   3  -5    6.20    5.90
  -1   3  -5    9.70    5.90
  -1   3  -5    1.70    2.90
   1  -3   5   -7.70    6.00
  -2   3  -5  254.47   10.50
  -2   3  -5  243.48   14.90
  -2   3  -5  265.17   13.30
   2  -3   5  212.18   21.40
  -3   3  -5  191.08   13.10
  -3   3  -5  210.98   10.00
  -3   3  -5  210.38   14.50
   3  -3   5  214.18   14.90
  -4   3  -5  206.88   14.90
  -4   3  -5  197.88   10.70
  -4   3  -5  192.78   13.40
  -4   3  -5  195.78   12.10
   4  -3   5  191.28   14.70
  -5   3  -5   15.10    5.90
  -5   3  -5   11.10    5.20
  -5   3  -5   14.60    8.30
   5  -3   5    2.70    8.10
   6   2  -5   94.19   16.10
   6   2  -5   92.99   14.10
   6   2  -5   99.29   12.80
  -6  -2   5   81.69   16.40
  -6  -2   5   90.19    8.20
  -6  -2   5   78.39    8.40
   5   2  -5   44.60   10.80
   5   2  -5   55.29   12.90
  -5  -2   5   53.59    6.20
  -5  -2   5   67.79    7.80
  -5  -2   5   64.49   13.10
   4   2  -5   13.60   10.20
   4   2  -5   18.80    8.50
  -4  -2   5   15.60    4.60
   3   2  -5   31.70    9.60
   3   2  -5   13.10    7.50
  -3  -2   5   24.70    5.10
   2   2  -5  322.37   19.80
   2   2  -5  342.37   17.70
  -2  -2   5  309.47   19.50
   1   2  -5  495.35   22.50
   1   2  -5  392.96   18.90
   1   2  -5  392.26   19.90
  -1  -2   5  391.36   21.20
   0   2  -5   78.49    8.40
   0   2  -5   72.69    7.00
   0  -2   5   84.49   10.10
  -1   2  -5  338.67   17.20
  -1   2  -5  377.76   18.30
  -1   2  -5  332.77   14.00
   1  -2   5  344.47   17.80
  -2   2  -5  517.35   23.50
  -2   2  -5  517.95   21.20
  -2   2  -5  557.94   19.40
  -2   2  -5  539.55   23.80
   2  -2   5  529.55   23.90
  -3   2  -5  603.74   24.20
  -3   2  -5  583.34   25.40
  -3   2  -5  591.64   26.40
   3  -2   5  645.04   27.00
  -4   2  -5    1.10    4.80
  -4   2  -5   -0.70    3.40
  -4   2  -5    0.10    5.70
  -4   2  -5   -6.20    4.50
   4  -2   5   -2.20    5.70
  -5   2  -5  130.49    8.90
  -5   2  -5  131.89   13.30
  -5   2  -5  123.69   10.10
  -6   2  -5  256.57   13.50
  -6   2  -5  247.48   17.50
   6  -2   5  250.27   17.30
   6   1  -5   57.29   13.90
   6   1  -5   67.79   12.80
   6   1  -5   66.99   11.90
  -6  -1   5   58.79    9.30
  -6  -1   5   56.09    6.60
  -6  -1   5   45.90   15.40
  -6  -1   5   68.79    7.20
   5   1  -5   25.70   10.70
   5   1  -5   18.30    9.30
   5   1  -5   19.30    7.90
  -5  -1   5   27.10    4.80
  -5  -1   5   20.60    6.80
  -5  -1   5   25.80   11.70
  -5  -1   5   18.00    5.30
   4   1  -5   16.70    9.70
   4   1  -5   37.20    7.50
  -4  -1   5   32.60    6.00
  -4  -1   5   37.40    4.40
  -4  -1   5   34.70    5.50
   3   1  -5   70.89    9.60
   3   1  -5   99.79   10.80
  -3  -1   5   91.59    7.00
  -3  -1   5   80.69    8.50
   2   1  -5  537.55   23.80
   2   1  -5  509.45   25.50
  -2  -1   5  509.65   25.50
  -2  -1   5  515.55   22.10
   1   1  -5   16.30    5.50
  -1  -1   5    5.00    5.80
   0   1  -5  304.47   16.50
   0   1  -5  293.67   15.50
   0  -1   5  272.57   15.60
  -1   1  -5   73.19    9.20
  -1   1  -5   89.59    6.10
   1  -1   5  100.09    8.80
  -2   1  -5  541.05   23.40
  -2   1  -5  527.45   19.10
  -2   1  -5  531.35   20.20
   2  -1   5  529.65   22.90
   2  -1   5  533.65   23.00
  -3   1  -5   91.89    8.90
  -3   1  -5  106.49    6.70
  -3   1  -5  107.39    9.40
   3  -1   5  115.49   10.00
   3  -1   5  123.39    9.10
  -4   1  -5  182.08    8.80
  -4   1  -5  206.68   10.50
  -4   1  -5  186.38   11.80
  -4   1  -5  195.18   12.60
   4  -1   5  187.68   12.00
  -5   1  -5  416.76   17.20
  -5   1  -5  422.66   19.10
  -5   1  -5  399.86   20.10
  -6   1  -5  334.67   15.70
  -6   1  -5  345.27   19.00
   6  -1   5  353.56   18.50
   7  -1   5    3.30    7.50
   7  -1   5   -1.30    7.30
   6   0  -5   37.30   12.70
   6   0  -5   39.50   11.80
   6   0  -5   10.70   10.50
   6   0  -5   42.00   10.00
  -6   0   5   41.70    9.70
  -6   0   5   49.80    9.40
  -6   0   5   49.00    5.90
   5   0  -5    5.70    7.30
   5   0  -5    2.90    8.00
   5   0  -5   -3.60    9.10
  -5   0   5    4.30   10.90
  -5   0   5    5.50    4.00
  -5   0   5   -5.40    5.20
  -5   0   5    9.70    7.00
   4   0  -5  152.68   14.10
   4   0  -5  150.88   13.50
  -4   0   5  172.78   11.30
  -4   0   5  167.18   11.60
  -4   0   5  170.78    8.30
   3   0  -5  766.62   32.60
   3   0  -5  787.12   32.20
   3   0  -5  764.32   34.90
  -3   0   5  793.72   30.50
  -3   0   5  823.82   31.60
   2   0  -5    3.00    4.50
   2   0  -5    8.10    5.40
  -2   0   5    6.10    6.30
  -2   0   5    7.40    4.80
  -2   0   5    7.10    3.20
   1   0  -5   10.80    6.00
   1   0  -5   10.00    3.70
   1   0  -5    2.80    5.00
  -1   0   5    4.50    5.30
  -1   0   5   10.40    2.60
  -1   0   5    5.60    4.60
   0   0  -5  690.03   28.50
   0   0  -5  703.23   29.20
   0   0   5  645.84   28.80
   0   0   5  703.13   24.70
  -1   0  -5  432.86   19.80
  -1   0  -5  446.86   19.80
   1   0   5  443.16   19.40
   1   0   5  414.56   19.30
  -2   0  -5   10.50    2.20
  -2   0  -5   12.20    4.80
  -2   0  -5   14.20    1.50
   2   0   5   14.20    4.60
   2   0   5   10.80    4.10
  -3   0  -5  122.19    9.80
   3   0   5  132.89    8.70
   3   0   5  119.49    9.10
  -4   0  -5  442.06   20.10
  -4   0  -5  450.65   20.30
   4   0   5  480.05   20.20
   4   0   5  468.85   19.50
  -5   0  -5  175.38   12.10
  -5   0  -5  175.58   11.50
   5   0   5  168.08   10.50
  -6   0  -5   86.19   10.10
   6   0   5   68.69    8.40
   7   0   5   95.49   16.30
   7   0   5  103.99   11.80
   6  -1  -5    8.40    8.40
   6  -1  -5   13.70   11.20
   6  -1  -5   -6.60   10.80
   6  -1  -5   -5.10    7.40
   5  -1  -5   70.69    8.20
   5  -1  -5   75.59   10.80
   5  -1  -5   61.29   11.90
   5  -1  -5   66.59    9.50
  -5   1   5   64.89    8.80
  -5   1   5   57.59    8.00
   4  -1  -5  149.79   11.00
   4  -1  -5  172.88   13.40
   4  -1  -5  121.79   14.90
  -4   1   5  162.78   12.30
  -4   1   5  161.98   11.40
   3  -1  -5  508.85   23.30
   3  -1  -5  521.75   23.50
   3  -1  -5  470.75   24.60
  -3   1   5  510.95   22.50
  -3   1   5  583.84   28.60
  -3   1   5  519.45   21.70
   2  -1  -5   30.40    5.60
   2  -1  -5   29.90    6.20
  -2   1   5   26.60    6.50
  -2   1   5   17.90    5.40
  -2   1   5   27.70    4.70
   1  -1  -5  286.17   14.60
   1  -1  -5  233.98   15.00
   1  -1  -5  270.77   12.80
  -1   1   5  287.07   11.50
  -1   1   5  256.57   13.80
  -1   1   5  271.17   15.80
   0  -1  -5  906.71   34.70
   0  -1  -5  900.31   32.30
   0  -1  -5  805.62   34.70
   0   1   5  886.71   34.40
   0   1   5  857.91   34.20
   0   1   5  861.51   35.00
  -1  -1  -5  314.57   15.00
  -1  -1  -5  302.97   11.40
  -1  -1  -5  292.17   14.60
   1   1   5  292.47   14.30
   1   1   5  294.07   14.60
  -2  -1  -5    4.70    2.60
  -2  -1  -5    4.50    3.70
  -2  -1  -5    3.80    4.10
   2   1   5    0.20    3.70
   2   1   5    3.70    3.50
  -3  -1  -5  445.46   18.60
  -3  -1  -5  445.16   19.20
  -3  -1  -5  436.16   16.80
   3   1   5  449.06   19.10
   3   1   5  410.76   17.80
  -4  -1  -5 1531.95   54.59
  -4  -1  -5 1479.85   53.99
  -4  -1  -5 1501.65   52.29
   4   1   5 1292.67   54.19
   4   1   5 1476.85   52.99
  -5  -1  -5   68.59    8.40
  -5  -1  -5   79.69    8.20
   5   1   5   72.39    6.20
   5   1   5   65.49    5.10
   5   1   5   72.99    7.50
  -6  -1  -5   51.09    6.90
   6   1   5   46.30    4.80
   6   1   5   47.40    4.40
   6   1   5   52.49    7.10
   7   1   5  198.48   12.20
   7   1   5  193.38   11.80
   7   1   5  178.78    8.90
   7   1   5  190.68   14.30
   8   1   5   94.99    7.30
   8   1   5   96.09   11.20
   8   1   5   96.89   11.20
   8   1   5  103.39   12.00
   8   1   5   95.99    9.90
   5  -2  -5  227.38   20.00
   5  -2  -5  247.88   16.50
   5  -2  -5  263.27   16.50
   5  -2  -5  238.88   21.10
  -5   2   5  244.68   16.50
   4  -2  -5   63.79   11.00
   4  -2  -5   64.99    9.10
   4  -2  -5   50.19    7.90
  -4   2   5   67.29    8.70
  -4   2   5   49.90    8.20
   3  -2  -5    4.90    5.20
   3  -2  -5   -6.50    6.30
   3  -2  -5   -2.20    6.20
   3  -2  -5   11.40    5.80
  -3   2   5   -0.80    5.50
  -3   2   5    5.60    5.60
   2  -2  -5  223.58   13.60
   2  -2  -5  247.08   14.30
   2  -2  -5  250.27   15.70
  -2   2   5  249.18   12.30
  -2   2   5  271.57   14.00
   1  -2  -5  330.57   16.30
   1  -2  -5  354.96   17.30
   1  -2  -5  385.36   16.00
   1  -2  -5  298.07   15.10
  -1   2   5  339.67   16.70
  -1   2   5  322.07   14.30
  -1   2   5  340.27   18.00
   0  -2  -5  508.65   22.40
   0  -2  -5  515.65   22.30
   0  -2  -5  511.65   20.30
   0   2   5  542.55   23.10
   0   2   5  516.85   22.20
   0   2   5  494.15   21.90
  -1  -2  -5  346.47   16.30
  -1  -2  -5  365.36   16.50
   1   2   5  355.66   16.20
   1   2   5  327.77   16.40
   1   2   5  357.96   16.30
  -2  -2  -5 1311.97   46.50
  -2  -2  -5 1220.88   46.70
  -2  -2  -5 1258.27   45.10
  -2  -2  -5 1257.87   47.40
   2   2   5 1259.67   46.50
   2   2   5 1292.57   47.40
   2   2   5 1207.48   47.60
  -3  -2  -5  777.32   29.10
  -3  -2  -5  767.52   31.00
  -3  -2  -5  792.72   29.70
   3   2   5  787.12   31.00
   3   2   5  805.32   29.10
  -4  -2  -5  154.78    8.30
  -4  -2  -5  155.68   10.20
  -4  -2  -5  160.58    9.10
  -4  -2  -5  139.49    8.20
   4   2   5  150.68    6.30
  -5  -2  -5    3.00    3.80
  -5  -2  -5    0.50    4.90
  -5  -2  -5    4.50    4.50
  -5  -2  -5    4.40    3.50
   5   2   5    1.10    2.30
   5   2   5    2.10    2.80
   5   2   5    4.10    4.90
  -6  -2  -5  265.07   14.00
  -6  -2  -5  299.77   13.60
   6   2   5  252.27   12.00
   6   2   5  257.97   15.00
   6   2   5  262.17   12.30
  -7  -2  -5  442.36   20.90
   7   2   5  402.96   16.90
   7   2   5  456.95   16.50
   7   2   5  444.66   21.60
   7   2   5  458.35   19.30
   7   2   5  456.35   18.50
  -8  -2  -5   75.69   10.30
   8   2   5   70.79    6.60
   8   2   5   91.49   10.80
   8   2   5   69.29    9.00
   5  -3  -5   65.29    8.20
   5  -3  -5   67.19   10.40
   5  -3  -5   60.59   13.00
   5  -3  -5   53.89   13.10
  -5   3   5   67.39   10.80
   4  -3  -5   -5.20    6.50
   4  -3  -5    5.40    9.30
   4  -3  -5   -1.40    5.70
   4  -3  -5    0.10    8.40
  -4   3   5   26.70    7.40
  -4   3   5    3.70    5.70
   3  -3  -5  126.89   10.70
   3  -3  -5  104.89   11.10
   3  -3  -5   85.79   11.60
  -3   3   5  125.89   12.10
  -3   3   5  124.89   11.00
   2  -3  -5  868.61   34.70
   2  -3  -5  823.62   34.20
   2  -3  -5  845.82   36.20
   2  -3  -5  873.11   33.90
  -2   3   5  839.52   33.80
  -2   3   5  847.52   33.30
   1  -3  -5  157.48   11.10
   1  -3  -5  171.58   10.80
   1  -3  -5  160.58   10.80
  -1   3   5  189.38   11.70
  -1   3   5  171.08   10.40
   0  -3  -5   -3.20    3.80
   0  -3  -5    2.80    4.50
   0   3   5    0.50    4.70
   0   3   5    3.00    3.90
   0   3   5    0.00    3.10
  -1  -3  -5  688.63   28.60
  -1  -3  -5  740.63   28.80
  -1  -3  -5  725.63   25.80
  -1  -3  -5  714.53   29.00
   1   3   5  732.23   26.90
   1   3   5  720.13   29.20
   1   3   5  719.43   28.50
  -2  -3  -5  611.84   24.80
  -2  -3  -5  604.04   24.20
  -2  -3  -5  604.44   22.40
  -2  -3  -5  602.84   24.80
   2   3   5  614.64   25.50
   2   3   5  613.94   24.90
   2   3   5  624.44   22.60
  -3  -3  -5  288.97   13.60
  -3  -3  -5  300.77   12.30
  -3  -3  -5  314.07   12.30
  -3  -3  -5  300.57   14.60
   3   3   5  296.57   14.20
   3   3   5  294.57   15.10
  -4  -3  -5   52.99    5.40
  -4  -3  -5   42.70    5.20
  -4  -3  -5   56.49    4.90
  -4  -3  -5   49.70    6.20
   4   3   5   61.79    7.00
   4   3   5   50.59    6.00
   4   3   5   51.99    6.30
  -5  -3  -5  227.08   11.40
  -5  -3  -5  226.38   15.00
  -5  -3  -5  230.08   10.80
  -5  -3  -5  216.88   12.00
   5   3   5  219.18   13.10
   5   3   5  224.68   11.10
  -6  -3  -5  570.94   23.70
  -6  -3  -5  571.54   23.10
  -6  -3  -5  587.94   24.30
   6   3   5  588.14   23.30
   6   3   5  563.34   25.80
   6   3   5  575.84   23.00
  -7  -3  -5  149.79   12.20
   7   3   5  174.28   14.10
   7   3   5  175.38   11.00
   8   3   5   15.70    7.90
   8   3   5    3.10    5.10
   4  -4  -5  178.98   17.90
   4  -4  -5  157.38   10.20
   4  -4  -5  159.38   15.90
   4  -4  -5  159.68   19.00
  -4   4   5  169.68   15.40
  -4   4   5  143.59   17.40
   3  -4  -5  161.18   10.20
   3  -4  -5  149.59   14.00
   3  -4  -5  137.49   15.80
  -3   4   5  169.68   14.30
  -3   4   5  154.58   13.00
  -3   4   5  124.39   13.10
   2  -4  -5  211.48   15.50
   2  -4  -5  186.58   13.70
   2  -4  -5  194.98   11.30
  -2   4   5  203.18   12.80
   1  -4  -5   11.90    5.70
   1  -4  -5   13.60    4.50
   1  -4  -5   15.30    6.30
  -1   4   5   10.20    4.80
  -1   4   5   11.80    6.00
   0  -4  -5  343.77   15.70
   0  -4  -5  349.57   17.70
   0  -4  -5  341.57   16.80
   0  -4  -5  346.37   12.30
   0   4   5  332.07   16.00
   0   4   5  345.87   15.50
   0   4   5  323.07   16.90
  -1  -4  -5  989.50   38.40
  -1  -4  -5  970.40   35.20
  -1  -4  -5  915.61   37.40
  -1  -4  -5 1016.00   38.80
  -1  -4  -5 1068.29   38.70
   1   4   5  981.40   36.80
   1   4   5  976.00   38.60
   1   4   5  972.60   37.80
  -2  -4  -5  774.42   28.60
  -2  -4  -5  769.52   30.80
  -2  -4  -5  818.52   31.50
  -2  -4  -5  788.42   30.50
   2   4   5  777.92   29.40
   2   4   5  790.12   31.50
   2   4   5  783.02   30.90
  -3  -4  -5    3.70    2.70
  -3  -4  -5    1.50    4.20
  -3  -4  -5    6.30    4.40
  -3  -4  -5   -1.70    2.60
   3   4   5   -3.40    4.50
  -4  -4  -5  628.24   26.60
  -4  -4  -5  643.44   24.70
  -4  -4  -5  639.34   25.00
  -4  -4  -5  658.73   27.30
   4   4   5  649.04   27.10
   4   4   5  724.23   26.20
   4   4   5  652.73   27.20
  -5  -4  -5  621.04   25.00
  -5  -4  -5  626.64   26.30
  -5  -4  -5  662.03   24.10
   5   4   5  628.04   26.70
   5   4   5  646.24   27.00
  -6  -4  -5  222.98   13.80
  -6  -4  -5  228.28   12.20
   6   4   5  227.08   12.20
   6   4   5  247.68   15.00
   6   4   5  218.78   14.20
  -7  -4  -5    5.10    5.80
  -7  -4  -5   -0.40    7.30
   7   4   5    3.80    6.30
   7   4   5    8.10    6.60
   7   4   5    0.60    5.10
   8   4   5  132.29   14.30
   8   4   5  155.28   14.30
   8   4   5  147.49   12.30
   8   4   5  133.29   12.80
   3  -5  -5   47.30   11.30
   3  -5  -5   34.50    9.30
  -3   5   5   38.20    9.10
  -3   5   5   55.19   10.20
  -3   5   5   36.20    9.90
   2  -5  -5   -1.80    3.60
   2  -5  -5    9.20    7.30
   2  -5  -5   -0.10    7.80
  -2   5   5    4.50    6.70
  -2   5   5    1.00    7.40
   1  -5  -5   27.10    7.00
   1  -5  -5   28.60    4.60
   1  -5  -5   26.60    8.30
   1  -5  -5   32.80    8.40
   0  -5  -5  377.06   19.40
   0  -5  -5  377.46   16.60
   0   5   5  365.56   17.10
   0   5   5  373.96   17.30
  -1  -5  -5  564.44   20.80
  -1  -5  -5  538.65   23.00
  -1  -5  -5  502.15   28.10
  -1  -5  -5  595.04   24.90
  -1  -5  -5  594.34   24.40
   1   5   5  555.44   23.40
  -2  -5  -5   19.70    4.90
  -2  -5  -5    8.90    5.60
  -2  -5  -5   23.40    6.20
  -2  -5  -5   24.50    5.30
  -2  -5  -5   23.60    3.20
   2   5   5   23.00    4.30
   2   5   5   21.80    5.70
  -3  -5  -5  555.14   21.60
  -3  -5  -5  606.24   22.90
  -3  -5  -5  520.35   24.40
  -3  -5  -5  584.04   24.40
   3   5   5  554.04   23.90
   3   5   5  579.94   24.50
  -4  -5  -5  843.82   34.00
  -4  -5  -5  853.61   31.10
  -4  -5  -5  809.82   31.80
  -4  -5  -5  837.42   30.80
   4   5   5  855.91   34.00
   4   5   5  885.81   33.80
   4   5   5  832.92   33.40
  -5  -5  -5  313.67   14.20
  -5  -5  -5  264.27   22.30
   5   5   5  305.67   15.70
   5   5   5  318.57   15.50
   5   5   5  313.37   16.50
  -6  -5  -5   53.89    8.00
  -6  -5  -5   52.69    6.80
   6   5   5   57.69    8.00
   6   5   5   61.59    7.20
   6   5   5   47.40    6.80
  -7  -5  -5  280.87   16.00
   7   5   5  305.37   16.00
   7   5   5  333.57   16.60
   7   5   5  288.97   17.90
  -8  -5  -5  360.46   22.60
  -8  -5  -5  449.16   23.00
   8   5   5  440.56   21.90
   8   5   5  433.16   23.20
   8   5   5  414.76   23.00
   2  -6  -5    6.60    8.30
   2  -6  -5   11.80   10.40
   2  -6  -5    9.40    8.00
   2  -6  -5   21.20   10.30
  -2   6   5   26.40    8.70
  -2   6   5   12.90    9.30
   1  -6  -5  149.39   14.00
   1  -6  -5  162.88   16.70
   1  -6  -5  156.58   15.50
  -1   6   5  125.99   13.70
  -1   6   5  162.68   12.90
   0  -6  -5  226.88   15.70
   0  -6  -5  258.17   16.70
   0  -6  -5  238.08   16.80
   0   6   5  253.77   14.40
   0   6   5  229.48   13.20
   0   6   5  238.78   15.90
  -1  -6  -5   -1.00    5.80
  -1  -6  -5   -1.50    6.10
   1   6   5   -0.60    6.20
   1   6   5    6.90    5.10
  -2  -6  -5  447.36   24.20
   2   6   5  525.85   21.80
   2   6   5  493.05   23.00
   2   6   5  499.35   21.40
  -3  -6  -5   10.00    3.80
  -3  -6  -5   24.90    7.90
  -3  -6  -5   18.70    6.60
   3   6   5    5.80    5.40
   3   6   5   18.30    5.60
  -4  -6  -5  711.73   26.40
  -4  -6  -5  642.04   26.10
  -4  -6  -5  666.93   31.60
   4   6   5  672.43   27.70
   4   6   5  665.23   28.50
  -5  -6  -5   38.20    3.50
  -5  -6  -5   37.60    5.90
  -5  -6  -5   34.50    4.20
   5   6   5   37.40    7.40
   5   6   5   36.20    6.20
   5   6   5   32.30    6.90
  -6  -6  -5  174.88   11.60
   6   6   5  169.28   14.50
   6   6   5  191.58   11.80
   6   6   5  188.08   13.30
  -7  -6  -5  623.04   26.60
  -7  -6  -5  667.13   29.60
   7   6   5  640.34   28.00
   7   6   5  592.84   25.50
   7   6   5  592.24   28.80
  -8  -6  -5  155.78   13.70
  -8  -6  -5  197.38   18.40
   8   6   5  176.38   16.80
   8   6   5  162.28   11.00
   8   6   5  163.48   14.80
   1  -7  -5  158.08   13.90
   1  -7  -5  144.59   17.00
   1  -7  -5  124.39   17.40
   1  -7  -5  151.28   15.50
  -1   7   5  163.58   14.70
  -1   7   5  145.49   17.10
   0  -7  -5    4.40    8.70
   0  -7  -5   -6.30    6.10
   0  -7  -5   -0.70    8.80
   0  -7  -5   15.30    8.00
   0   7   5    1.20    5.00
   0   7   5   -6.30    6.50
   0   7   5    4.00    8.40
  -1  -7  -5   24.30    8.10
  -1  -7  -5    5.70    7.80
  -1  -7  -5    5.50    5.10
   1   7   5    6.60    7.50
   1   7   5   -0.50    6.20
  -2  -7  -5  260.37   12.90
  -2  -7  -5  274.17   17.00
   2   7   5  272.87   15.10
   2   7   5  281.27   16.40
   2   7   5  276.07   15.00
  -3  -7  -5  255.27   16.20
  -3  -7  -5  228.68   10.20
   3   7   5  222.78   14.50
  -4  -7  -5   12.10    5.10
  -4  -7  -5   17.80    7.80
   4   7   5    6.30    6.10
   4   7   5   -5.60    5.80
  -5  -7  -5  252.67   17.70
  -5  -7  -5  275.97   14.10
  -5  -7  -5  267.17   14.30
   5   7   5  276.07   15.40
   5   7   5  293.07   17.40
   5   7   5  277.57   17.40
  -6  -7  -5  255.17   14.80
  -6  -7  -5  258.37   18.00
   6   7   5  249.48   16.50
   6   7   5  258.77   14.10
   6   7   5  234.28   16.70
  -7  -7  -5   42.00    9.60
  -7  -7  -5   42.90   10.60
   7   7   5   56.29    9.90
   7   7   5   43.80    9.90
   7   7   5   55.49    6.70
  -1  -8  -5   60.49   12.50
  -1  -8  -5   89.39   11.90
  -1  -8  -5   77.89    9.30
   1   8   5   96.29   11.00
   1   8   5   95.99   12.00
  -2  -8  -5  217.48   17.80
  -2  -8  -5  196.98   17.80
  -2  -8  -5  200.78   11.80
   2   8   5  217.18   14.10
   2   8   5  195.88   15.90
   2   8   5  203.68   14.60
  -3  -8  -5  -18.10    8.30
  -3  -8  -5    0.80    3.00
  -3  -8  -5    3.80    7.80
   3   8   5   -7.80    6.20
   3   8   5    9.80    7.70
  -4  -8  -5    9.00    5.70
  -4  -8  -5   19.70    9.50
  -4  -8  -5    7.70    7.90
   4   8   5    9.20    7.20
   4   8   5    8.00    6.90
  -5  -8  -5  185.08   12.40
  -5  -8  -5  210.78   18.50
  -5  -8  -5  201.48   15.20
   5   8   5  188.98   16.80
   5   8   5  205.38   15.40
   5   8   5  189.38   13.90
  -6  -8  -5  170.58   12.80
  -6  -8  -5  223.88   18.70
  -6  -8  -5  199.28   13.30
   6   8   5  177.28   18.40
   6   8   5  204.88   17.00
   6   8   5  199.38   17.80
   4   5  -6   41.30   16.10
   4   5  -6   59.99   13.00
  -4  -5   6   45.70   17.40
  -4  -5   6   61.69    7.60
   3   5  -6   85.69   12.90
   3   5  -6   55.89   11.50
  -3  -5   6   53.09   14.10
   2   5  -6    8.10    9.80
   2   5  -6   -3.70    8.40
   2   5  -6    3.20    8.70
  -2  -5   6   -7.70   10.90
   1   5  -6   36.20    9.90
   1   5  -6   28.00    7.80
   1   5  -6    8.60    9.30
  -1  -5   6   23.20   11.10
   0   5  -6  110.09   13.00
   0   5  -6  142.59   15.90
   0  -5   6  107.49   14.30
  -1   5  -6   69.09   11.40
  -1   5  -6   68.89    6.70
   1  -5   6   71.59   13.20
   1  -5   6   66.09   10.30
  -2   5  -6   12.30    9.90
  -2   5  -6   17.00   10.70
  -2   5  -6   13.90    8.70
  -2   5  -6    5.70    4.70
   2  -5   6    7.80    9.50
   2  -5   6   11.90   11.90
   5   4  -6   32.20   15.40
   5   4  -6   54.29   13.90
  -5  -4   6   15.60   14.90
   4   4  -6   25.20   11.50
   4   4  -6   44.30   14.10
   4   4  -6   26.20   11.00
  -4  -4   6   24.90    6.30
  -4  -4   6   28.60   13.30
   3   4  -6   46.10   10.70
   3   4  -6   36.90   10.40
   3   4  -6   21.20   12.70
  -3  -4   6   28.10   11.40
   2   4  -6   28.90    9.60
   2   4  -6   16.90    8.20
  -2  -4   6   32.10    9.80
   1   4  -6  405.46   22.50
   1   4  -6  445.16   20.20
  -1  -4   6  396.16   24.80
   0   4  -6   75.49   10.50
   0   4  -6   88.29    9.20
   0  -4   6   45.80   10.70
  -1   4  -6   -0.40    7.70
  -1   4  -6    2.70    8.10
  -1   4  -6    4.40    2.60
  -1   4  -6    5.20    3.70
   1  -4   6    0.70    8.60
  -2   4  -6   64.69    8.10
  -2   4  -6   55.49    9.90
  -2   4  -6   57.79   10.30
   2  -4   6   58.29   11.10
  -3   4  -6   70.29    9.40
  -3   4  -6   46.50    9.40
  -3   4  -6   60.09   10.70
   3  -4   6   55.39   10.10
   3  -4   6   62.89   11.40
   5   3  -6   23.70   12.00
   5   3  -6   28.40   14.10
  -5  -3   6   30.20    5.80
  -5  -3   6   34.00   14.20
   4   3  -6   85.79   12.30
   4   3  -6   97.69   15.00
   4   3  -6   77.09   12.30
  -4  -3   6   83.29   14.90
  -4  -3   6   92.49   10.00
   3   3  -6   38.10   11.20
   3   3  -6   39.30    9.80
  -3  -3   6   30.70    6.60
   2   3  -6  109.99   11.90
   2   3  -6  101.49   13.70
   1   3  -6  108.09   12.50
  -1  -3   6  116.59   14.30
   0   3  -6   17.00    7.80
   0   3  -6   22.80    5.30
   0  -3   6   21.90    8.30
  -1   3  -6   -2.10    7.80
  -1   3  -6    3.60    6.80
  -1   3  -6    4.20    3.30
   1  -3   6    7.20    7.40
  -2   3  -6   72.09    8.40
  -2   3  -6   68.19    9.80
  -2   3  -6   74.29    4.10
   2  -3   6   77.29   10.20
  -3   3  -6  313.27   18.30
  -3   3  -6  346.17   19.40
  -3   3  -6  253.47   12.60
   3  -3   6  354.16   19.60
  -4   3  -6   -5.40    6.40
  -4   3  -6   -8.60    7.60
  -4   3  -6   13.90    4.10
  -4   3  -6   -7.60    5.80
   4  -3   6   15.70    8.90
  -5   3  -6   46.00    6.10
  -5   3  -6   33.70    8.50
  -5   3  -6   36.80    9.20
  -5   3  -6   38.30   10.70
   5  -3   6   48.60   11.00
   5  -3   6   46.20   10.90
   5   2  -6   52.99   10.40
   5   2  -6   49.30   12.40
   5   2  -6   14.70   13.10
   5   2  -6   61.89   11.90
  -5  -2   6   43.40    6.70
  -5  -2   6   49.60    6.40
  -5  -2   6   30.80   13.40
   4   2  -6    7.90    9.20
   4   2  -6    1.00    8.40
   4   2  -6   -2.20   10.10
  -4  -2   6   12.90   10.00
  -4  -2   6    4.60    5.50
   3   2  -6  215.18   16.40
   3   2  -6  220.88   19.80
   3   2  -6  215.08   17.20
  -3  -2   6  207.48   13.50
   2   2  -6  206.48   14.40
   2   2  -6  206.88   16.20
  -2  -2   6  203.88   13.10
  -2  -2   6  196.48   17.30
   1   2  -6  223.98   15.40
   1   2  -6  248.58   17.90
  -1  -2   6  202.48   16.40
   0   2  -6   66.49    8.10
   0   2  -6   61.19   10.60
   0  -2   6   60.19    9.30
  -1   2  -6  159.38    9.00
  -1   2  -6  186.48   13.80
  -1   2  -6  160.98   13.00
   1  -2   6  160.58   13.30
  -2   2  -6  180.38   16.30
  -2   2  -6  219.38   15.20
   2  -2   6  205.78   14.40
  -3   2  -6   70.79    8.50
  -3   2  -6   58.79    7.10
  -3   2  -6   62.19    8.80
   3  -2   6   58.89    8.50
  -4   2  -6   28.50    5.50
  -4   2  -6   32.90    7.10
  -4   2  -6   35.50    8.00
   4  -2   6   39.50    8.50
  -5   2  -6   38.20    8.90
   5  -2   6   42.10    9.10
   5  -2   6   55.19    9.30
   5   1  -6   -6.60   10.90
   5   1  -6   14.60    8.80
   5   1  -6  -15.80    8.40
   5   1  -6    3.80   10.00
  -5  -1   6   -1.10    6.10
  -5  -1   6   -1.10    4.40
  -5  -1   6    5.80   12.90
   4   1  -6   25.90    9.60
   4   1  -6    5.10   10.20
   4   1  -6   17.30    8.60
  -4  -1   6   21.20    4.20
  -4  -1   6   16.70    6.20
   3   1  -6  547.45   28.80
   3   1  -6  546.35   26.10
   3   1  -6  527.85   26.20
  -3  -1   6  521.55   23.60
   2   1  -6  176.28   14.10
   2   1  -6  178.98   15.90
  -2  -1   6  180.88   12.60
  -2  -1   6  188.18   16.60
   1   1  -6    8.20    6.20
   1   1  -6    1.60    6.60
  -1  -1   6    6.60    7.40
  -1  -1   6    9.30    5.30
   0   1  -6  693.83   29.90
   0   1  -6  761.72   30.70
   0  -1   6  609.94   30.00
  -1   1  -6  558.64   24.50
  -1   1  -6  498.45   20.90
   1  -1   6  511.35   23.90
  -2   1  -6  216.68   13.70
  -2   1  -6  189.38   14.40
  -2   1  -6  211.58    9.20
   2  -1   6  201.48   13.60
   2  -1   6  209.78   13.60
  -3   1  -6   27.00    6.70
  -3   1  -6   17.80    3.20
  -3   1  -6   12.90    6.30
   3  -1   6   27.10    6.50
   3  -1   6   21.40    6.00
  -4   1  -6  164.08   12.80
  -4   1  -6  165.18   13.00
   4  -1   6  140.79   12.40
   4  -1   6  165.78   12.40
  -5   1  -6  267.47   15.90
   5  -1   6  215.88   15.90
   5  -1   6  251.77   15.60
  -6   1  -6   52.39    9.50
  -6   1  -6   53.59    7.90
   6  -1   6   65.09   13.60
   6  -1   6   38.50   10.20
   5   0  -6   56.99   10.70
   5   0  -6   34.50   11.90
   5   0  -6   61.79   10.80
  -5   0   6   48.20    9.50
  -5   0   6   46.70    8.30
  -5   0   6   40.60   14.70
  -5   0   6   60.29    5.20
   4   0  -6   84.29   10.10
   4   0  -6   78.09   12.70
  -4   0   6   95.99   11.00
  -4   0   6   83.59    8.50
  -4   0   6   78.39    5.90
   3   0  -6  407.46   21.70
   3   0  -6  440.86   23.40
   3   0  -6  424.36   24.50
  -3   0   6  450.45   20.80
  -3   0   6  413.76   18.50
   2   0  -6   79.49   11.20
   2   0  -6  116.39    9.30
   2   0  -6  114.59   12.50
  -2   0   6  118.59    7.50
  -2   0   6  102.09   10.20
   1   0  -6  252.27   15.30
   1   0  -6  251.37   12.30
   1   0  -6  229.58   16.30
  -1   0   6  243.68   16.60
  -1   0   6  238.38   12.10
  -1   0   6  234.08   14.00
   0   0  -6  391.76   18.20
   0   0  -6  313.17   14.00
   0   0  -6  328.37   17.60
   0   0   6  310.37   18.40
   0   0   6  323.27   16.50
  -1   0  -6  472.25   23.50
  -1   0  -6  484.95   23.20
   1   0   6  571.94   22.60
   1   0   6  483.55   23.10
  -2   0  -6   47.20    7.30
   2   0   6   40.70    6.20
  -3   0  -6  292.07   11.10
  -3   0  -6  305.27   15.80
  -3   0  -6  320.87   16.30
   3   0   6  291.97   15.10
   3   0   6  277.77   15.60
  -4   0  -6 1347.07   50.99
  -4   0  -6 1362.06   51.29
   4   0   6 1315.37   50.19
   4   0   6 1296.77   51.09
  -5   0  -6   95.79   10.80
   5   0   6  108.49   11.60
   5   0   6   92.49    9.40
  -6   0  -6   33.10    7.60
  -6   0  -6   28.30    6.80
   6   0   6   18.80    9.70
   6   0   6   36.60    6.50
  -7   0  -6   41.60    9.00
   7   0   6   29.70    8.60
   7   0   6   40.00    7.40
   5  -1  -6  198.38   17.40
   5  -1  -6  196.38   21.30
   5  -1  -6  199.38   18.40
  -5   1   6  220.68   15.10
   4  -1  -6  117.99   13.20
   4  -1  -6   90.29   13.80
   4  -1  -6  159.38   13.40
  -4   1   6  133.79   11.00
  -4   1   6  122.49   12.20
   3  -1  -6   64.99    8.30
   3  -1  -6   58.89   10.60
  -3   1   6   64.19    8.40
  -3   1   6   65.99   12.30
  -3   1   6   53.69    6.80
   2  -1  -6  129.89   12.90
   2  -1  -6  131.39   10.10
   2  -1  -6  132.29   13.60
  -2   1   6  129.79    8.20
  -2   1   6  121.39   17.40
  -2   1   6  130.99   11.40
   1  -1  -6  364.16   18.90
   1  -1  -6  374.36   19.70
   1  -1  -6  355.76   16.50
  -1   1   6  370.06   20.60
  -1   1   6  379.86   18.30
  -1   1   6  374.36   15.20
   0  -1  -6  256.77   16.00
   0  -1  -6  266.37   11.80
   0  -1  -6  263.67   15.30
   0   1   6  232.28   14.30
   0   1   6  267.67   10.80
   0   1   6  272.47   15.80
   0   1   6  269.47   14.90
  -1  -1  -6    4.70    2.00
  -1  -1  -6    7.90    5.50
  -1  -1  -6   10.90    5.50
   1   1   6    7.90    5.20
   1   1   6   11.50    5.20
   1   1   6    8.60    1.80
  -2  -1  -6  714.33   29.70
  -2  -1  -6  724.33   29.00
  -2  -1  -6  685.53   27.10
   2   1   6  686.93   28.70
   2   1   6  703.73   28.70
  -3  -1  -6  980.70   35.40
  -3  -1  -6  974.60   38.30
   3   1   6  974.10   38.10
   3   1   6  917.61   37.00
  -4  -1  -6   26.10    6.30
  -4  -1  -6   42.00    6.20
  -4  -1  -6   27.90    3.10
   4   1   6   23.30    4.50
   4   1   6   24.50    6.20
  -5  -1  -6   99.79   10.10
  -5  -1  -6   93.59   10.30
   5   1   6   88.99   11.10
   5   1   6   90.09    7.60
  -6  -1  -6  144.59   11.70
  -6  -1  -6  164.78   13.10
   6   1   6  147.99   13.40
   6   1   6  146.69    9.40
  -7  -1  -6  420.16   21.40
   7   1   6  429.16   22.50
   7   1   6  405.36   18.60
   7   1   6  399.16   17.90
   5  -2  -6   32.20    9.80
   5  -2  -6   17.20   10.80
   5  -2  -6   29.20   12.30
   5  -2  -6   29.00    9.50
  -5   2   6   23.50   10.00
  -5   2   6   30.40    9.60
   4  -2  -6   19.30    9.40
   4  -2  -6   12.70   10.30
   4  -2  -6   14.40    8.70
   4  -2  -6   11.10    7.70
  -4   2   6   15.60    6.80
   3  -2  -6   30.60    8.90
   3  -2  -6   21.30    7.50
   3  -2  -6   21.30    7.40
  -3   2   6   17.20    7.20
  -3   2   6   19.30    6.30
   2  -2  -6  465.15   27.40
   2  -2  -6  476.25   21.70
   2  -2  -6  495.15   23.20
  -2   2   6  466.65   20.00
   1  -2  -6  331.27   18.90
   1  -2  -6  340.97   16.40
   1  -2  -6  359.86   18.80
  -1   2   6  352.16   20.10
  -1   2   6  365.96   15.00
  -1   2   6  351.96   17.90
   0  -2  -6    0.90    5.60
   0  -2  -6   -1.60    5.20
   0  -2  -6    3.90    3.50
   0   2   6    0.90    5.70
   0   2   6   -1.60    5.00
  -1  -2  -6  664.33   27.90
  -1  -2  -6  631.84   27.60
   1   2   6  675.63   27.90
   1   2   6  640.54   27.70
  -2  -2  -6  608.54   25.30
  -2  -2  -6  620.44   26.10
  -2  -2  -6  644.14   27.00
   2   2   6  669.63   26.50
   2   2   6  636.44   26.00
   2   2   6  630.24   27.10
  -3  -2  -6  496.45   19.80
  -3  -2  -6  502.45   22.00
   3   2   6  468.85   21.50
   3   2   6  477.55   20.00
  -4  -2  -6   68.09    6.40
  -4  -2  -6   59.09    7.50
  -4  -2  -6   74.99    6.30
   4   2   6   61.19    7.40
   4   2   6   63.89    5.30
  -5  -2  -6  185.38   11.00
  -5  -2  -6  199.18   10.20
  -5  -2  -6  193.88   13.20
   5   2   6  197.98   13.10
  -6  -2  -6  698.93   28.30
  -6  -2  -6  676.63   27.50
   6   2   6  694.33   29.70
   6   2   6  672.13   25.50
  -7  -2  -6   82.39    9.70
  -7  -2  -6   96.19   11.20
   7   2   6  111.19    7.80
   7   2   6   90.99   10.20
   4  -3  -6    4.60   11.00
   4  -3  -6   20.90    9.90
   4  -3  -6    3.70    7.30
   4  -3  -6   16.40    8.00
  -4   3   6   23.90    8.70
  -4   3   6   24.50    9.80
   3  -3  -6  157.18   13.50
   3  -3  -6  176.18   17.00
   3  -3  -6  172.18   14.00
  -3   3   6  182.08   12.70
   2  -3  -6   60.29   10.00
   2  -3  -6   69.89    8.40
   2  -3  -6   58.29    8.10
   2  -3  -6   68.09   10.10
  -2   3   6   59.69    7.30
  -2   3   6   75.59    9.60
   1  -3  -6   36.20    6.90
   1  -3  -6   31.40    7.60
   1  -3  -6   29.30    5.90
   1  -3  -6   35.50    7.10
  -1   3   6   34.10    5.40
  -1   3   6   21.90    7.10
   0  -3  -6   19.70    6.00
   0   3   6   16.30    3.90
   0   3   6   17.90    6.10
  -1  -3  -6  780.92   32.90
  -1  -3  -6  835.82   33.20
   1   3   6  820.72   30.50
   1   3   6  836.42   33.60
  -2  -3  -6  325.37   13.20
  -2  -3  -6  340.27   16.50
  -2  -3  -6  330.57   16.90
  -2  -3  -6  324.97   16.00
   2   3   6  395.46   16.60
   2   3   6  332.87   13.30
   2   3   6  346.17   17.40
  -3  -3  -6   35.50    4.50
  -3  -3  -6   37.80    5.60
  -3  -3  -6   41.30    4.00
  -3  -3  -6   38.10    6.20
   3   3   6   38.30    6.10
   3   3   6   36.30    2.60
   3   3   6   32.50    6.80
  -4  -3  -6  548.55   22.30
  -4  -3  -6  530.15   22.20
  -4  -3  -6  542.25   21.30
   4   3   6  536.85   24.40
   4   3   6  541.65   23.80
  -5  -3  -6  636.64   25.50
  -5  -3  -6  615.54   25.10
  -5  -3  -6  624.24   24.80
  -5  -3  -6  642.34   27.30
   5   3   6  614.84   22.90
  -6  -3  -6  325.17   16.10
  -6  -3  -6  335.77   15.80
   6   3   6  324.07   14.80
   6   3   6  329.17   18.50
   6   3   6  325.07   13.50
  -7  -3  -6   -3.80    4.60
  -7  -3  -6   -6.20    6.10
   7   3   6   -4.90    3.70
   7   3   6    1.90    6.90
  -8  -3  -6  360.56   19.90
   8   3   6  360.96   17.30
   8   3   6  369.76   21.90
   3  -4  -6  121.29   13.50
   3  -4  -6  116.09   14.60
   3  -4  -6  124.89   11.80
  -3   4   6  144.19   13.20
  -3   4   6  142.59   15.30
   2  -4  -6    6.50    8.40
   2  -4  -6   -5.30    6.40
   2  -4  -6   -0.30    5.60
  -2   4   6   -6.70    5.40
  -2   4   6    2.20    6.30
  -2   4   6   28.00    7.80
   1  -4  -6   11.00    6.50
   1  -4  -6    4.40    5.60
  -1   4   6   13.40    5.20
   0  -4  -6  289.67   15.50
   0  -4  -6  278.97   16.70
   0  -4  -6  238.48   17.30
   0   4   6  346.87   13.90
  -1  -4  -6  310.27   16.00
  -1  -4  -6  309.37   11.20
  -1  -4  -6  287.77   15.90
  -1  -4  -6  316.87   16.60
   1   4   6  289.67   13.50
   1   4   6  285.67   14.90
  -2  -4  -6   18.20    2.70
  -2  -4  -6   15.60    4.80
  -2  -4  -6   21.50    5.80
  -2  -4  -6   14.00    5.80
   2   4   6   20.60    6.40
   2   4   6   14.80    3.20
   2   4   6   27.50    5.90
  -3  -4  -6   73.99    5.40
  -3  -4  -6   56.09    7.40
  -3  -4  -6   63.49    6.70
  -3  -4  -6   74.09    8.80
   3   4   6   73.19    8.30
   3   4   6   64.59    7.30
   3   4   6   73.59    5.10
  -4  -4  -6  489.05   21.60
  -4  -4  -6  488.95   22.50
  -4  -4  -6  494.35   20.20
  -4  -4  -6  497.35   19.70
   4   4   6  505.25   22.50
   4   4   6  490.25   22.80
  -5  -4  -6  233.98   13.10
  -5  -4  -6  221.18   11.90
  -5  -4  -6  232.28   11.30
   5   4   6  215.58   15.20
   5   4   6  253.87   14.60
  -6  -4  -6   76.29    7.60
  -6  -4  -6   74.89    7.10
  -6  -4  -6   74.79    8.10
   6   4   6   84.49    8.70
   6   4   6   80.99    9.10
   6   4   6   80.39    9.70
  -7  -4  -6  251.37   15.90
  -7  -4  -6  214.18   14.30
   7   4   6  245.98   16.40
   7   4   6  256.57   17.20
   7   4   6  234.78   12.50
   7   4   6  236.48   13.30
  -8  -4  -6  316.07   18.00
   8   4   6  314.27   17.30
   8   4   6  284.77   20.40
   8   4   6  328.17   20.50
   8   4   6  321.77   16.30
   3  -5  -6   66.29    6.70
   3  -5  -6   59.39   13.40
   3  -5  -6   45.70   11.00
  -3   5   6   52.69   12.00
  -3   5   6   61.39   10.30
   2  -5  -6   -1.60    5.00
   2  -5  -6   14.60    8.00
   2  -5  -6    8.60    9.50
  -2   5   6    2.50    7.70
  -2   5   6    4.00    8.70
  -2   5   6    0.50    7.00
   1  -5  -6  242.58   13.60
   1  -5  -6  220.78   15.80
   1  -5  -6  229.88   18.60
   1  -5  -6  212.28   17.20
  -1   5   6  252.77   14.60
   0  -5  -6  350.96   19.50
   0  -5  -6  346.37   19.00
   0  -5  -6  347.97   17.10
   0   5   6  365.06   17.00
  -1  -5  -6  114.59    5.20
  -1  -5  -6  125.19   10.40
  -1  -5  -6   96.89   11.50
  -1  -5  -6   78.19   10.00
   1   5   6  128.39   12.40
  -2  -5  -6  355.26   14.20
  -2  -5  -6  361.66   19.00
  -2  -5  -6  374.36   18.30
  -2  -5  -6  369.26   17.70
   2   5   6  379.66   19.30
   2   5   6  356.76   15.80
   2   5   6  362.26   18.10
  -3  -5  -6   63.39    9.60
  -3  -5  -6   88.89    5.80
  -3  -5  -6   66.69    7.50
   3   5   6   83.59    8.40
   3   5   6   80.79    6.60
  -4  -5  -6  337.17   14.70
  -4  -5  -6  353.06   18.00
  -4  -5  -6  341.27   14.10
   4   5   6  353.56   18.00
   4   5   6  365.96   18.30
  -5  -5  -6   39.90    4.90
  -5  -5  -6   35.90    5.60
  -5  -5  -6   37.80    7.50
   5   5   6   32.70    7.20
   5   5   6   30.70    7.20
  -6  -5  -6  103.19    6.50
  -6  -5  -6  114.19   12.50
  -6  -5  -6   96.39    9.20
   6   5   6   98.59   12.40
   6   5   6  100.19   11.60
   6   5   6   99.99   11.80
  -7  -5  -6  237.58   14.10
   7   5   6  234.58   17.00
   7   5   6  174.68   21.10
   7   5   6  229.08   14.20
  -8  -5  -6  139.69   15.50
  -8  -5  -6   77.69   10.00
   8   5   6  100.49   12.50
   8   5   6  122.59   14.20
   8   5   6   97.89   12.20
   8   5   6   79.79   10.40
   2  -6  -6   56.49   12.60
   2  -6  -6   85.49   11.60
   2  -6  -6   59.19   14.00
  -2   6   6   70.19   10.80
  -2   6   6   39.70   12.30
   1  -6  -6  237.98   17.70
   1  -6  -6  238.68   19.40
   1  -6  -6  222.18   13.10
   1  -6  -6  225.18   18.70
  -1   6   6  228.28   18.20
  -1   6   6  244.48   16.50
   0  -6  -6   82.69   10.90
   0  -6  -6   77.69   10.90
   0  -6  -6   68.89    4.20
   0  -6  -6   61.79    7.30
   0  -6  -6   63.39    9.60
   0   6   6   65.79    8.40
   0   6   6   58.69   10.00
  -1  -6  -6   -2.00    2.50
  -1  -6  -6   -4.40    6.10
  -1  -6  -6   -4.20    6.60
  -1  -6  -6   -3.00    5.20
   1   6   6   -1.10    5.00
   1   6   6    1.60    7.20
   1   6   6    0.20    4.90
  -2  -6  -6  308.87   13.20
  -2  -6  -6  388.36   17.20
  -2  -6  -6  324.97   18.40
   2   6   6  313.07   15.40
   2   6   6  300.07   16.50
   2   6   6  311.67   18.00
  -3  -6  -6  434.16   19.90
  -3  -6  -6  437.76   17.50
   3   6   6  440.46   21.30
  -4  -6  -6  105.79    7.90
  -4  -6  -6   91.29    7.90
   4   6   6  110.09   10.90
   4   6   6   92.09   11.00
  -5  -6  -6   46.80    3.00
  -5  -6  -6   40.40    5.80
   5   6   6   51.29    8.10
   5   6   6   46.90    7.70
  -6  -6  -6  252.27   13.90
  -6  -6  -6  291.37   16.80
   6   6   6  282.47   16.50
   6   6   6  260.87   16.90
   6   6   6  202.78   22.90
  -7  -6  -6  178.78   13.40
  -7  -6  -6  199.18   16.40
   7   6   6  213.18   17.10
   7   6   6  195.88   14.20
   0  -7  -6    9.50    8.50
   0  -7  -6    4.90    6.60
   0  -7  -6   -6.60   10.40
   0  -7  -6   15.50    9.90
   0   7   6    6.90   10.20
   0   7   6    9.30    7.30
  -1  -7  -6  185.88   16.40
  -1  -7  -6  140.79   16.50
  -1  -7  -6  151.78   15.50
  -1  -7  -6  157.58    8.30
   1   7   6  176.58   15.70
   1   7   6  156.58   12.70
   1   7   6  156.68   13.30
  -2  -7  -6  116.09    7.50
  -2  -7  -6  107.29   12.30
  -2  -7  -6  107.39   11.60
  -2  -7  -6   89.39   11.00
   2   7   6  101.69   11.30
   2   7   6  121.59   11.40
   2   7   6  119.09   13.60
  -3  -7  -6  213.38   11.00
  -3  -7  -6  204.08   15.80
  -3  -7  -6  236.88   17.00
   3   7   6  208.98   14.50
   3   7   6  235.18   15.40
  -4  -7  -6    4.00    4.80
  -4  -7  -6   -0.70    2.00
  -4  -7  -6    5.70    5.10
  -4  -7  -6    5.60    7.80
   4   7   6    5.00    6.60
   4   7   6   -0.40    6.40
  -5  -7  -6  166.78   11.50
  -5  -7  -6  171.88   10.40
  -5  -7  -6  188.58    9.60
  -5  -7  -6  207.08   16.20
   5   7   6  180.88   14.60
   5   7   6  188.48   14.20
  -6  -7  -6  538.25   23.50
  -6  -7  -6  561.34   27.90
   6   7   6  539.65   24.40
   6   7   6  520.95   26.10
   6   7   6  522.75   26.10
   7   7   6   25.40    9.80
  -2  -8  -6   52.69    6.90
  -2  -8  -6   55.39   10.90
  -2  -8  -6   53.89   10.90
  -2  -8  -6   68.19    5.90
  -2  -8  -6   47.10   12.30
   2   8   6   45.40    8.70
   2   8   6   43.10    8.10
   2   8   6   42.90   10.50
  -3  -8  -6   -6.90    8.30
  -3  -8  -6    9.70    4.90
  -3  -8  -6    5.30    3.90
  -3  -8  -6    6.00    9.40
   3   8   6  -14.30    7.80
   3   8   6   14.00    7.60
   3   8   6    1.50    6.80
  -4  -8  -6  182.88   11.90
  -4  -8  -6  178.28   18.70
   4   8   6  199.78   16.00
   4   8   6  212.38   16.40
  -5  -8  -6  228.78   13.40
  -5  -8  -6  221.18   19.50
  -5  -8  -6  248.88   15.40
  -5  -8  -6  221.78   13.70
   5   8   6  202.88   16.10
   5   8   6  227.28   17.60
   3   4  -7   10.50   11.20
   3   4  -7    2.80   12.50
   3   4  -7   25.30   11.40
  -3  -4   7    4.60   13.10
  -3  -4   7   25.00    8.20
   2   4  -7  117.69   12.80
   2   4  -7  107.79   14.10
  -2  -4   7   86.59   15.30
   1   4  -7   77.39   12.50
   1   4  -7   85.89    9.80
  -1  -4   7   79.99   13.60
   0   4  -7   13.00    9.70
   0   4  -7   -1.80    9.20
   0  -4   7   19.90   10.80
  -1   4  -7   -3.30    3.90
  -1   4  -7   24.30    9.80
  -1   4  -7   -0.20    9.40
   1  -4   7  -10.50   10.00
  -2   4  -7   46.60   10.70
  -2   4  -7   23.00   10.80
  -2   4  -7   32.40    7.10
   2  -4   7   53.89   11.70
   4   3  -7    3.70   11.00
   4   3  -7   16.80   11.60
   4   3  -7    4.40   12.80
  -4  -3   7    3.80    7.00
  -4  -3   7   28.40   14.80
   3   3  -7   61.19   11.50
   3   3  -7   48.50   13.30
   3   3  -7   40.00   11.10
  -3  -3   7   55.79   13.00
  -3  -3   7   67.89    8.70
   2   3  -7  179.38   17.20
   2   3  -7  193.38   21.00
   2   3  -7  189.88   15.60
  -2  -3   7  170.88   19.80
   1   3  -7   81.89    9.40
   1   3  -7   91.69   11.90
  -1  -3   7   72.79   12.80
   0   3  -7    4.40    5.60
   0   3  -7   33.90    8.50
   0  -3   7    7.70    8.60
  -1   3  -7  198.68   10.30
  -1   3  -7  142.79   16.00
   1  -3   7  168.28   16.70
  -2   3  -7  140.39   15.90
  -2   3  -7  201.48   11.00
   2  -3   7  143.39   16.00
  -3   3  -7   61.79   11.30
   3  -3   7   63.79   11.70
  -4   3  -7   -9.20    9.40
   4  -3   7    2.70   10.20
   4   2  -7   24.90    9.00
   4   2  -7   24.00   11.00
   4   2  -7   16.60   12.70
   4   2  -7    4.00   10.30
  -4  -2   7   26.20    7.70
  -4  -2   7   30.00   14.00
   3   2  -7   82.89   11.90
   3   2  -7   98.89   12.80
   3   2  -7  111.39   15.40
  -3  -2   7  118.69   15.00
  -3  -2   7  106.89   12.50
   2   2  -7   73.99   11.60
  -2  -2   7   69.69   12.10
  -2  -2   7   41.40    8.50
   1   2  -7   -4.70    6.70
   1   2  -7    1.40    8.80
  -1  -2   7   -0.80    8.60
   0   2  -7  145.09   11.20
   0  -2   7  116.19   14.60
  -1   2  -7  187.88   10.60
   1  -2   7  171.78   15.80
  -2   2  -7  265.17   12.80
  -2   2  -7  276.77   11.30
  -2   2  -7  286.07   18.30
  -2   2  -7  295.37   18.60
   2  -2   7  265.87   18.00
  -3   2  -7   18.10    8.70
  -3   2  -7   24.10    4.50
  -3   2  -7   14.40    8.20
   3  -2   7   18.40    8.00
  -4   2  -7  151.78   15.40
  -4   2  -7  134.39    9.70
   4  -2   7  149.09   14.70
  -5   2  -7  231.68   18.50
   5  -2   7  217.18   17.90
   4   1  -7   56.29   11.70
   4   1  -7   58.99    9.60
   4   1  -7   65.19   11.40
   4   1  -7   60.49   14.10
  -4  -1   7   51.29    5.30
  -4  -1   7   56.29   14.20
   3   1  -7  138.29   18.30
   3   1  -7  141.79   15.70
   3   1  -7  146.99   12.90
   3   1  -7  150.08   15.20
  -3  -1   7  179.18   19.50
  -3  -1   7  164.18   13.60
   2   1  -7    4.70    5.20
   2   1  -7   -1.60    7.30
   2   1  -7  -17.50    8.90
  -2  -1   7    3.70    9.30
  -2  -1   7    1.00    6.30
   1   1  -7  220.08   18.60
  -1  -1   7  240.18   15.60
  -1  -1   7  230.38   18.00
   0   1  -7   67.59   11.00
   0  -1   7   51.99   11.30
  -1   1  -7  136.09   13.80
  -1   1  -7  148.99    9.90
   1  -1   7  128.79   13.20
  -2   1  -7   -5.40    5.90
  -2   1  -7    4.00    2.90
  -2   1  -7   -3.80    7.00
  -2   1  -7   -1.30    2.30
   2  -1   7    9.80    6.90
  -3   1  -7  147.09   13.70
  -3   1  -7  142.29    6.90
  -3   1  -7  156.78   15.20
   3  -1   7  147.89   12.50
  -4   1  -7  226.98   16.00
  -4   1  -7  231.98   16.80
   4  -1   7  211.68   15.40
   4  -1   7  222.18   16.20
  -5   1  -7  160.58   15.40
   5  -1   7  190.28   15.90
   5  -1   7  186.18   15.40
  -6   1  -7   -1.50    8.70
  -6   1  -7   21.80    7.90
   6  -1   7    9.90    9.60
   6  -1   7    6.60    8.10
   4   0  -7  282.47   20.70
   4   0  -7  240.58   23.00
   4   0  -7  272.27   18.00
  -4   0   7  273.07   25.40
  -4   0   7  292.27   17.80
  -4   0   7  258.97   15.40
   3   0  -7    5.20   10.10
   3   0  -7    9.90    6.60
   3   0  -7    4.00    8.30
  -3   0   7    9.00   10.50
  -3   0   7    0.00    4.70
  -3   0   7   -2.70    6.50
  -3   0   7    3.10    4.20
   2   0  -7   14.90    6.10
   2   0  -7   12.80    8.10
   2   0  -7   15.10    8.90
  -2   0   7   14.90    4.30
  -2   0   7   18.90    9.80
   1   0  -7  337.27   21.10
   1   0  -7  328.37   15.70
   1   0  -7  367.26   19.60
  -1   0   7  333.07   21.20
  -1   0   7  320.87   18.30
   0   0  -7  218.28   11.10
   0   0  -7  241.78   17.80
   0   0   7  240.88   15.00
   0   0   7  221.18   16.40
  -1   0  -7   -1.30    7.60
  -1   0  -7    2.70    2.40
   1   0   7    7.60    6.70
  -2   0  -7  137.79   13.30
   2   0   7  168.88   13.40
   2   0   7  138.69   11.80
  -3   0  -7  411.26   22.50
  -3   0  -7  453.55   16.30
   3   0   7  415.96   20.70
   3   0   7  426.96   21.40
  -4   0  -7   34.70    8.10
  -4   0  -7   31.10    7.90
   4   0   7   36.80    9.20
   4   0   7   28.20    6.50
  -5   0  -7    0.20    6.90
   5   0   7   -0.30    7.00
   5   0   7    2.30    5.70
  -6   0  -7  149.19   14.20
  -6   0  -7  182.88   14.40
   6   0   7  136.29   12.70
   6   0   7  128.99   15.30
   4  -1  -7   31.50   11.70
   4  -1  -7   54.29   10.60
   4  -1  -7   62.19   10.80
  -4   1   7   56.49    8.20
   3  -1  -7   44.90    9.20
   3  -1  -7   30.90    9.80
   3  -1  -7   31.80   10.90
  -3   1   7   55.19   12.00
  -3   1   7   46.10    9.10
  -3   1   7   40.80    6.40
   2  -1  -7  116.99   11.30
   2  -1  -7  114.29   13.40
   2  -1  -7   98.49   12.80
  -2   1   7  118.79   13.50
  -2   1   7  127.39    8.80
  -2   1   7  135.39   16.60
   1  -1  -7  275.27   13.80
   1  -1  -7  270.17   17.30
   1  -1  -7  231.18   17.90
  -1   1   7  267.77   12.00
  -1   1   7  274.37   19.30
   0  -1  -7   96.29    7.40
   0  -1  -7  104.39   12.40
   0  -1  -7   67.19   10.00
   0   1   7   91.29   11.20
   0   1   7   89.59   12.10
   0   1   7   97.69    5.70
  -1  -1  -7   23.00    2.80
   1   1   7   22.10    8.00
   1   1   7   28.50    2.30
   1   1   7   27.00    7.10
   1   1   7   35.20    7.10
  -2  -1  -7  365.36   17.80
  -2  -1  -7  253.77   25.90
   2   1   7  338.37   17.60
   2   1   7  336.37   17.90
  -3  -1  -7  847.92   35.50
  -3  -1  -7  852.91   31.70
   3   1   7  815.32   35.10
   3   1   7  849.41   34.00
  -4  -1  -7   47.50    7.70
  -4  -1  -7   58.09    8.80
  -4  -1  -7   50.89    5.00
   4   1   7   46.60    6.30
   4   1   7   55.29   12.50
  -5  -1  -7   93.59   11.80
   5   1   7   93.99   11.70
   5   1   7   88.59    8.80
  -6  -1  -7  266.67   15.80
  -6  -1  -7  226.78   16.00
   6   1   7  198.98   12.30
   6   1   7  241.78   16.40
  -7  -1  -7   95.19   12.30
   7   1   7   80.79    9.10
   7   1   7   74.49    8.60
   7   1   7   90.39   11.70
   4  -2  -7   10.40    9.80
   4  -2  -7   26.00   11.60
   4  -2  -7   13.70    9.30
  -4   2   7   18.50    7.70
  -4   2   7   21.10   10.20
   3  -2  -7  177.88   17.70
   3  -2  -7  170.68   16.10
  -3   2   7  156.88   11.30
  -3   2   7  118.79   13.30
   2  -2  -7   95.49   12.50
   2  -2  -7  111.79   13.80
   2  -2  -7  111.69   11.80
  -2   2   7   96.89    8.50
   1  -2  -7   72.39   11.50
   1  -2  -7   57.29    6.90
   1  -2  -7   53.89    9.60
  -1   2   7   56.49   10.50
  -1   2   7   67.09    9.10
  -1   2   7   61.99    5.80
   0  -2  -7   -0.70    3.90
   0  -2  -7   -6.90    6.60
   0   2   7    3.50    6.80
   0   2   7   12.00    6.40
   0   2   7    0.60    3.20
   0   2   7    2.20    7.10
  -1  -2  -7  696.73   33.70
  -1  -2  -7  720.43   31.50
   1   2   7  729.53   31.00
   1   2   7  757.52   31.50
  -2  -2  -7  315.17   15.50
  -2  -2  -7  309.47   16.80
   2   2   7  318.57   17.00
   2   2   7  310.87   16.70
  -3  -2  -7   16.00    4.60
   3   2   7   15.90    6.20
   3   2   7   12.40    5.00
  -4  -2  -7    4.90    6.40
  -4  -2  -7   -1.20    3.60
  -4  -2  -7    7.50    5.50
   4   2   7    1.00    3.80
   4   2   7    2.50    6.60
  -5  -2  -7  271.27   15.10
  -5  -2  -7  264.97   13.00
   5   2   7  281.57   16.70
   5   2   7  279.17   11.50
  -6  -2  -7  416.76   21.60
  -6  -2  -7  391.96   20.00
   6   2   7  413.46   22.00
  -7  -2  -7   34.20    7.80
   7   2   7   49.70    9.50
   3  -3  -7  260.27   19.30
   3  -3  -7  251.77   18.20
   3  -3  -7  244.28   21.00
   3  -3  -7  274.27   17.70
  -3   3   7  258.37   15.40
  -3   3   7  266.67   19.00
   2  -3  -7   39.20    8.50
   2  -3  -7   38.10    8.30
   2  -3  -7   20.10    9.20
  -2   3   7   28.20    6.70
  -2   3   7   53.69    9.00
   1  -3  -7   14.10    8.30
   1  -3  -7   27.70   13.20
   1  -3  -7   22.40    6.20
  -1   3   7   27.40    5.40
   0  -3  -7  563.64   25.70
   0  -3  -7  530.35   25.40
   0   3   7  528.15   24.10
   0   3   7  444.36   24.10
  -1  -3  -7  286.67   19.10
   1   3   7  289.27   16.70
  -2  -3  -7   82.69   10.20
  -2  -3  -7   91.89    9.80
   2   3   7   96.49   11.20
   2   3   7   91.49   10.90
  -3  -3  -7   19.80    5.00
  -3  -3  -7   12.20    5.30
  -3  -3  -7   24.80    7.30
   3   3   7    6.10    6.00
   3   3   7   10.10    7.00
  -4  -3  -7  370.16   15.50
  -4  -3  -7  362.36   17.00
   4   3   7  380.96   20.40
   4   3   7  346.47   19.00
  -5  -3  -7  426.76   19.10
  -5  -3  -7  404.56   18.50
  -5  -3  -7  436.86   19.40
   5   3   7  438.46   21.60
  -6  -3  -7   31.10    8.30
  -6  -3  -7   45.40    6.40
  -6  -3  -7   38.80    6.70
  -6  -3  -7   42.30    6.50
   6   3   7   45.60    8.70
  -7  -3  -7   47.10    8.40
  -7  -3  -7   46.10    7.30
   7   3   7   59.09   10.10
   3  -4  -7   19.90   11.80
   3  -4  -7   24.90    9.30
  -3   4   7   15.00    7.60
  -3   4   7    7.20   10.70
   2  -4  -7   -1.60    8.90
   2  -4  -7   14.10    9.60
   2  -4  -7    9.80    7.90
  -2   4   7    1.50    6.70
  -2   4   7   -0.40    8.40
   1  -4  -7  146.19   16.20
   1  -4  -7  155.78   14.00
   1  -4  -7  130.49   13.60
  -1   4   7  140.79   10.80
  -1   4   7  163.88   15.00
   0  -4  -7  402.86   20.20
   0  -4  -7  360.26   20.80
   0   4   7  388.36   20.00
  -1  -4  -7  275.27   15.70
  -1  -4  -7  281.57   16.90
   1   4   7  271.07   15.70
   1   4   7  271.67   13.00
  -2  -4  -7   48.60    8.20
  -2  -4  -7   44.90    7.10
   2   4   7   42.10    8.00
   2   4   7   51.19    5.50
   2   4   7   34.10    7.20
  -3  -4  -7  719.03   29.20
  -3  -4  -7  693.03   29.50
  -3  -4  -7  671.63   25.50
  -3  -4  -7  685.53   27.60
   3   4   7  584.64   33.20
   3   4   7  687.23   25.10
   3   4   7  688.73   30.20
  -4  -4  -7  487.35   19.30
  -4  -4  -7  450.75   23.70
  -4  -4  -7  482.95   21.90
   4   4   7  466.25   23.50
   4   4   7  497.45   17.60
   4   4   7  466.15   22.80
  -5  -4  -7  132.19    9.60
  -5  -4  -7  170.78    9.70
  -5  -4  -7  123.49   11.20
   5   4   7  127.69   14.40
   5   4   7  136.99   12.80
   5   4   7  130.29    5.80
  -6  -4  -7   39.60    6.80
  -6  -4  -7   44.30    8.90
  -6  -4  -7   47.90    7.60
   6   4   7   45.80    9.10
   6   4   7   50.99    8.80
   6   4   7   42.10    4.20
  -7  -4  -7  294.97   16.60
  -7  -4  -7  297.57   17.60
  -7  -4  -7  306.97   15.20
   7   4   7  305.37   12.80
   7   4   7  272.57   19.60
   7   4   7  302.97   20.70
   2  -5  -7   35.30    9.80
   2  -5  -7   19.80   10.90
   2  -5  -7   19.00    7.40
  -2   5   7   32.00   10.90
  -2   5   7   33.10    8.70
  -2   5   7   46.40    9.20
   1  -5  -7  147.19   16.40
   1  -5  -7  145.09   13.60
   1  -5  -7  194.78   17.80
   1  -5  -7  189.18   15.20
  -1   5   7  175.48   16.70
  -1   5   7  163.38   13.90
   0  -5  -7  155.38   14.80
   0  -5  -7  112.89   13.60
   0  -5  -7  113.59   13.60
   0  -5  -7  101.49   11.70
   0   5   7  141.89   12.70
   0   5   7  131.39   11.00
  -1  -5  -7    2.00    6.50
  -1  -5  -7   17.30    7.00
  -1  -5  -7   16.20    7.30
   1   5   7   23.50    7.10
   1   5   7   20.10    8.10
  -2  -5  -7  252.17   16.20
  -2  -5  -7  270.87   11.00
   2   5   7  289.37   17.50
   2   5   7  272.47   13.00
  -3  -5  -7  482.95   23.00
  -3  -5  -7  470.35   18.40
  -3  -5  -7  447.56   20.80
  -3  -5  -7  473.75   23.20
   3   5   7  498.35   23.20
   3   5   7  478.95   24.00
   3   5   7  464.25   19.00
  -4  -5  -7  130.99   12.90
  -4  -5  -7  131.69   12.80
  -4  -5  -7  130.39    7.90
  -4  -5  -7  131.49    8.40
   4   5   7  142.39    7.60
   4   5   7  148.99   13.80
   4   5   7  146.49   12.40
  -5  -5  -7   -2.10    6.10
  -5  -5  -7    1.10    3.90
  -5  -5  -7    6.60    7.20
  -5  -5  -7    3.50    4.40
   5   5   7    8.70    6.70
   5   5   7    4.10    7.30
  -6  -5  -7  420.76   19.50
  -6  -5  -7  446.76   18.20
  -6  -5  -7  441.16   22.10
   6   5   7  427.36   23.00
   6   5   7  415.46   23.00
  -7  -5  -7  510.45   22.10
   7   5   7  448.96   24.70
   7   5   7  458.15   24.90
   7   5   7  477.55   19.80
   1  -6  -7   73.79    8.60
   1  -6  -7   70.39   12.50
   1  -6  -7   53.09   13.20
   1  -6  -7   70.89   11.40
  -1   6   7   57.29   12.30
  -1   6   7   71.79   10.00
   0  -6  -7    9.30   12.00
   0  -6  -7    9.60    8.40
   0  -6  -7    8.80    9.10
   0  -6  -7   19.00   10.00
   0   6   7   12.20    9.70
   0   6   7   16.00    7.10
   0   6   7    6.90    6.60
  -1  -6  -7  376.96   19.70
  -1  -6  -7  344.57   21.30
  -1  -6  -7  403.16   21.50
  -1  -6  -7  358.16   22.40
   1   6   7  410.46   20.00
   1   6   7  353.66   22.20
   1   6   7  351.06   21.70
  -2  -6  -7   11.60    2.90
  -2  -6  -7   15.60    8.20
  -2  -6  -7   10.60    6.70
  -2  -6  -7    8.70    6.70
   2   6   7   12.20    7.20
   2   6   7    8.90    5.00
   2   6   7    1.40    7.60
  -3  -6  -7  310.87   18.50
  -3  -6  -7  277.57   15.60
  -3  -6  -7  279.67   12.20
  -3  -6  -7  262.77   16.70
   3   6   7  266.07   16.80
   3   6   7  294.67   18.00
  -4  -6  -7    3.50    4.30
  -4  -6  -7    9.20    7.60
  -4  -6  -7    7.50    4.40
  -4  -6  -7   22.40    7.30
   4   6   7   14.90    7.80
   4   6   7   18.60    7.30
   4   6   7    3.20    3.90
  -5  -6  -7  266.27   12.20
  -5  -6  -7  332.77   18.20
  -5  -6  -7  251.07   13.70
   5   6   7  290.87   17.70
   5   6   7  275.37   18.30
  -6  -6  -7  477.75   24.00
  -6  -6  -7  423.66   19.90
  -6  -6  -7  429.96   16.90
   6   6   7  442.46   23.80
   6   6   7  427.66   22.90
  -7  -6  -7   92.59   12.30
  -7  -6  -7   62.09    9.00
   7   6   7   77.39   11.20
   7   6   7   66.99   10.30
  -1  -7  -7  147.19   16.60
  -1  -7  -7  175.18   17.40
  -1  -7  -7  166.08   19.00
   1   7   7  168.48   13.10
   1   7   7  158.38   14.60
   1   7   7  109.19   13.80
  -2  -7  -7  157.48   14.60
  -2  -7  -7  130.99   15.40
  -2  -7  -7  159.38   16.90
  -2  -7  -7  136.39    7.90
   2   7   7  143.39   12.20
   2   7   7  137.39   13.80
   2   7   7  134.09   16.30
  -3  -7  -7   -4.80    8.80
  -3  -7  -7    3.80    4.00
   3   7   7   15.90    6.70
   3   7   7   -5.90    7.30
   3   7   7   17.60    8.70
  -4  -7  -7  304.87   14.20
  -4  -7  -7  312.07   20.40
  -4  -7  -7  306.27   16.10
   4   7   7  304.27   15.50
   4   7   7  295.67   18.80
   4   7   7  325.87   19.50
  -5  -7  -7  235.88   13.10
  -5  -7  -7  219.18   18.30
   5   7   7  265.27   18.10
   5   7   7  243.98   17.70
  -6  -7  -7    2.10    6.20
  -6  -7  -7    1.30    9.60
   6   7   7    2.70    8.60
   6   7   7   10.30    8.40
   2   3  -8   27.90   13.50
   2   3  -8   19.10   12.00
   2   3  -8   43.40   11.20
  -2  -3   8   -7.40   12.70
  -2  -3   8   15.10    7.40
   1   3  -8    2.00   10.50
  -1  -3   8    0.00   11.40
   0   3  -8   -0.40   10.00
   0  -3   8    3.80   10.90
  -1   3  -8   30.70   11.00
  -1   3  -8   20.50    5.10
  -1   3  -8   30.00   10.90
   1  -3   8   20.40   11.40
  -2   3  -8  122.59   15.20
  -2   3  -8  124.79   14.30
   2  -3   8  127.59   18.00
   3   2  -8   56.19   14.70
   3   2  -8   72.59   12.60
   3   2  -8   50.89    8.80
   3   2  -8   49.20   12.90
  -3  -2   8   64.39   15.70
   2   2  -8   50.69   11.60
   2   2  -8   58.49   10.90
   2   2  -8   34.20   12.80
  -2  -2   8   44.00   13.30
   1   2  -8   93.49   14.70
   1   2  -8   98.39   12.70
   1   2  -8   79.19   10.80
  -1  -2   8   87.09   13.90
   0   2  -8  100.29   12.70
   0  -2   8  111.79   13.80
  -1   2  -8  113.99    9.80
  -1   2  -8   89.29   12.10
  -1   2  -8  111.09   12.90
   1  -2   8   95.79   12.80
  -2   2  -8    8.70    9.30
  -2   2  -8    5.60    2.10
  -2   2  -8    3.60    3.80
  -2   2  -8    9.20    9.60
   2  -2   8    7.80    9.20
  -3   2  -8   48.50   10.80
  -3   2  -8   45.20    4.70
  -3   2  -8   52.59   11.00
   3  -2   8   52.19   10.60
  -4   2  -8   29.20   11.30
  -4   2  -8   35.50   10.70
   4  -2   8   16.50   10.20
   3   1  -8    8.70    7.10
   3   1  -8    6.20   10.70
   3   1  -8   14.80   12.40
   3   1  -8    2.80    9.60
  -3  -1   8    1.90   12.90
   2   1  -8   -6.50    9.30
   2   1  -8   -1.50    8.20
   2   1  -8   17.20   10.80
  -2  -1   8    4.90   11.00
   1   1  -8  129.09   14.60
   1   1  -8  177.08   12.00
   1   1  -8  222.28   18.40
   1   1  -8  192.68   19.60
  -1  -1   8  197.38   18.50
   0   1  -8  190.88   20.40
   0   1  -8  242.18   13.30
   0  -1   8  151.18   17.20
  -1   1  -8   61.69    7.30
   1  -1   8   74.19   10.90
  -2   1  -8   37.10    9.90
  -2   1  -8   68.69   10.40
  -2   1  -8   46.30    3.90
  -2   1  -8   40.80    4.80
   2  -1   8   30.70    9.40
  -3   1  -8  195.18   17.00
  -3   1  -8  262.47   19.00
   3  -1   8  190.88   16.70
  -4   1  -8  199.28   17.10
  -4   1  -8  168.58   16.90
   4  -1   8  178.48   16.50
   4  -1   8  181.08   17.50
  -5   1  -8   13.00    9.90
  -5   1  -8    8.00   10.00
   5  -1   8    2.10    8.70
   5  -1   8   10.70    9.80
   3   0  -8   46.80   13.80
   3   0  -8   70.19   12.30
  -3   0   8   53.79   14.40
  -3   0   8   74.39    7.30
   2   0  -8  128.99   13.30
   2   0  -8  141.29   17.30
   2   0  -8  102.89   14.00
  -2   0   8  113.69   15.40
   1   0  -8   67.89   10.80
   1   0  -8   83.99   12.80
   1   0  -8   63.89    7.00
  -1   0   8   72.19   12.00
   0   0  -8   79.19   12.20
   0   0  -8   67.09    7.40
   0   0   8   64.49   10.90
  -1   0  -8    4.10    2.70
  -1   0  -8    5.40    8.40
   2   0   8  193.58   14.60
   2   0   8  171.58   16.10
  -3   0  -8  536.35   26.60
  -3   0  -8  543.65   20.80
  -3   0  -8  543.75   20.60
   3   0   8  554.74   26.30
   3   0   8  510.55   25.40
  -4   0  -8   33.50    9.20
  -4   0  -8   50.99    9.80
   4   0   8   16.70    7.30
   4   0   8   16.80    8.60
  -5   0  -8   38.80    9.90
  -5   0  -8   44.00   10.40
   5   0   8   39.90    9.90
   5   0   8   47.40    8.50
   3  -1  -8   37.50   10.40
   3  -1  -8   63.49   12.70
   3  -1  -8   56.39    8.50
  -3   1   8   34.30   13.80
  -3   1   8   41.70    9.60
  -3   1   8   49.50    7.20
   2  -1  -8  129.29   15.50
   2  -1  -8  145.09   16.10
  -2   1   8  149.99   19.40
  -2   1   8  148.09    9.70
   1  -1  -8   58.09   10.70
   1  -1  -8   53.29    6.70
   1  -1  -8   48.80   11.10
  -1   1   8   60.49   11.70
  -1   1   8   46.60    5.10
   0  -1  -8    7.80    8.10
   0  -1  -8    6.80    4.10
   0  -1  -8   -3.00    8.30
   0   1   8    2.60    8.70
   0   1   8   10.00    3.00
  -1  -1  -8  452.65   24.40
   1   1   8  452.35   23.40
   1   1   8  428.66   22.90
   2   1   8  449.06   23.20
   2   1   8  463.45   23.40
  -3  -1  -8   24.40    4.70
   3   1   8   10.60    6.40
   3   1   8   10.00    7.40
  -4  -1  -8   13.60    3.30
  -4  -1  -8   35.10    8.60
  -4  -1  -8    7.80    7.70
   4   1   8    7.80    5.90
   4   1   8    1.40    7.00
  -5  -1  -8  186.68   17.60
  -5  -1  -8  183.08   15.00
   5   1   8  200.58   16.00
   5   1   8  185.08   12.80
  -6  -1  -8  291.97   20.70
  -6  -1  -8  274.87   18.10
   6   1   8  245.48   19.00
   6   1   8  255.87   14.60
   3  -2  -8   93.09   12.70
   3  -2  -8  112.79   12.10
   3  -2  -8   96.29   14.90
  -3   2   8  105.79   10.40
  -3   2   8  105.79   12.90
   2  -2  -8   66.59   12.30
   2  -2  -8   66.89    9.10
   2  -2  -8   45.00   10.20
  -2   2   8   61.89   10.70
  -2   2   8   57.79    6.90
   1  -2  -8    1.80    8.50
   1  -2  -8    2.50    9.00
   1  -2  -8    3.60    5.60
  -1   2   8   -1.50    9.20
  -1   2   8    3.10    4.60
   0  -2  -8  318.87   19.70
   0  -2  -8  333.17   21.20
   0  -2  -8  305.97   14.70
   0   2   8  288.97   20.30
   0   2   8  293.77   13.30
  -1  -2  -8  234.28   17.30
  -1  -2  -8  206.98   15.90
   1   2   8  243.08   16.70
   1   2   8  223.88   15.70
  -2  -2  -8  186.28   12.90
   2   2   8  156.28   14.50
   2   2   8  174.48   14.40
  -3  -2  -8   95.39    9.50
   3   2   8   93.29   11.50
   3   2   8   86.89   10.00
   3   2   8  104.09   11.10
  -4  -2  -8  259.97   16.60
  -4  -2  -8  311.97   18.00
  -4  -2  -8  266.07   13.60
   4   2   8  285.87   18.40
   4   2   8  272.47   14.80
  -5  -2  -8  475.95   20.10
  -5  -2  -8  496.45   23.90
  -5  -2  -8  489.85   25.10
   5   2   8  459.75   24.60
   5   2   8  498.65   20.00
  -6  -2  -8    4.60    7.00
  -6  -2  -8   12.30    9.40
   6   2   8   26.20    9.10
   3  -3  -8    5.20   12.10
   3  -3  -8   -6.50    9.70
   2  -3  -8    7.20    9.20
   2  -3  -8  -14.30    9.50
  -2   3   8    0.80    9.30
  -2   3   8    7.60    6.20
   1  -3  -8   38.70    7.30
   1  -3  -8   22.90    9.60
   1  -3  -8   22.80    9.00
  -1   3   8   26.60    5.80
  -1   3   8   27.50    9.50
   0  -3  -8  300.67   20.30
   0   3   8  338.27   19.20
   0   3   8  292.77   18.50
   0   3   8  289.37   14.00
  -1  -3  -8   72.09    9.70
  -1  -3  -8   69.69   10.20
   1   3   8   61.89    9.30
  -2  -3  -8   -2.20    6.30
  -2  -3  -8    1.50    7.60
   2   3   8   -1.00    6.70
  -3  -3  -8  295.77   16.60
  -3  -3  -8  310.97   16.60
   3   3   8  321.37   19.50
   3   3   8  304.47   18.60
  -4  -3  -8  319.67   16.70
  -4  -3  -8  325.27   17.60
   4   3   8  331.47   20.00
   4   3   8  334.87   19.20
  -5  -3  -8  185.98   13.60
  -5  -3  -8  156.78   11.90
  -5  -3  -8  185.28   15.60
   5   3   8  172.18   15.80
   5   3   8  194.58   16.40
  -6  -3  -8    9.70    5.90
  -6  -3  -8   12.80    6.70
  -6  -3  -8    8.60    9.30
   6   3   8    8.50    8.20
  -7  -3  -8  449.95   26.30
  -7  -3  -8  480.25   23.30
   7   3   8  469.85   25.80
   2  -4  -8   15.20    9.50
   2  -4  -8   31.30   12.20
  -2   4   8   23.70   11.60
  -2   4   8   19.00    7.80
   1  -4  -8  200.08   16.70
   1  -4  -8  147.59   17.50
  -1   4   8  169.28   11.90
  -1   4   8  167.38   17.60
   0  -4  -8   88.59   11.50
   0  -4  -8  104.09   13.90
   0   4   8  101.59   11.30
   0   4   8   86.59   11.20
  -1  -4  -8    7.10    7.60
  -1  -4  -8   11.30    7.10
   1   4   8   -3.70    6.70
  -2  -4  -8   96.59   10.90
  -2  -4  -8   84.29   10.50
   2   4   8   97.79   12.10
   2   4   8   98.59   11.30
  -3  -4  -8  283.77   17.30
  -3  -4  -8  272.87   18.00
  -3  -4  -8  276.77   15.60
   3   4   8  303.67   18.90
   3   4   8  275.37   17.40
  -4  -4  -8   66.19   10.00
  -4  -4  -8   66.99    6.20
  -4  -4  -8   74.39   10.00
   4   4   8   79.19   10.00
   4   4   8   54.69   10.20
  -5  -4  -8   -4.60    6.80
  -5  -4  -8   10.80    6.30
  -5  -4  -8    2.90    5.20
  -5  -4  -8   11.00    5.80
   5   4   8   -1.20    8.20
   5   4   8   12.20    7.50
  -6  -4  -8  252.77   16.00
  -6  -4  -8  243.58   14.40
  -6  -4  -8  241.18   14.50
  -6  -4  -8  266.47   19.00
   6   4   8  238.28   19.90
   6   4   8  241.68   17.90
  -7  -4  -8  148.19   13.20
  -7  -4  -8  165.78   15.10
   7   4   8  185.38   18.40
   7   4   8  165.98   19.40
   1  -5  -8  103.29   11.60
   1  -5  -8  126.39   15.40
   1  -5  -8   82.99   14.10
  -1   5   8  106.69   14.10
  -1   5   8  129.09   12.10
   0  -5  -8   29.40    8.70
   0  -5  -8   21.30   10.00
   0  -5  -8   41.40   11.30
   0   5   8   34.80    9.00
   0   5   8   21.60    9.80
   0   5   8   40.50    8.40
  -1  -5  -8  267.77   18.30
  -1  -5  -8  279.67   19.60
   1   5   8  263.27   17.80
   1   5   8  276.97   19.60
  -2  -5  -8   75.99   10.30
  -2  -5  -8  128.09   14.00
   2   5   8   72.39    7.70
   2   5   8   60.89   10.80
   2   5   8   72.29    9.70
  -3  -5  -8  194.48   15.90
  -3  -5  -8  195.38    9.50
  -3  -5  -8  189.78   13.70
   3   5   8  193.88   15.20
   3   5   8  201.28    9.90
   3   5   8  214.98   17.10
  -4  -5  -8    2.30    4.10
  -4  -5  -8    9.60    8.30
  -4  -5  -8    3.70    4.20
   4   5   8    0.80    8.70
   4   5   8    0.40    2.40
   4   5   8   -7.30    6.80
  -5  -5  -8  193.18   17.90
  -5  -5  -8  177.38   10.80
   5   5   8  220.48   16.40
   5   5   8  202.98   18.00
   5   5   8  188.98    7.80
  -6  -5  -8  236.88   19.00
  -6  -5  -8  221.88   13.20
   6   5   8  231.18   17.80
   6   5   8  238.18   19.00
   0  -6  -8    3.70    8.40
   0  -6  -8   17.30   13.10
   0  -6  -8   22.40   10.10
   0  -6  -8   38.10   11.30
   0   6   8   11.50   11.90
   0   6   8    3.20    8.50
   0   6   8    4.60    7.50
  -1  -6  -8  108.39   14.30
  -1  -6  -8   98.89   14.10
  -1  -6  -8  118.49   14.60
   1   6   8  111.69   13.60
   1   6   8   85.49   11.00
   1   6   8  116.79   14.20
  -2  -6  -8  261.27   17.50
  -2  -6  -8  254.87   17.70
  -2  -6  -8  242.28   20.20
   2   6   8  233.58   17.90
   2   6   8  294.57   19.70
   2   6   8  263.17   14.10
  -3  -6  -8    3.10    9.20
  -3  -6  -8   23.70    9.00
  -3  -6  -8   26.80    4.00
   3   6   8   18.40    8.30
   3   6   8   34.80    9.80
  -4  -6  -8   57.59   10.50
  -4  -6  -8   55.49    5.50
  -4  -6  -8   60.09   10.40
  -4  -6  -8   51.69    6.40
   4   6   8   51.99    5.30
   4   6   8   56.39   10.70
   4   6   8   56.19    9.90
  -5  -6  -8  297.67   14.80
  -5  -6  -8  325.77   21.00
  -5  -6  -8  315.47   15.10
  -5  -6  -8  297.87   20.90
   5   6   8  320.77   13.70
   5   6   8  313.77   19.70
   5   6   8  316.07   21.80
  -6  -6  -8  143.39    9.60
  -6  -6  -8  157.38   11.50
  -6  -6  -8  165.08   17.60
   6   6   8  156.78    8.60
   6   6   8  149.59   16.50
   6   6   8  126.99   13.90
  -2  -7  -8   28.70   13.00
  -2  -7  -8   46.20   10.00
  -2  -7  -8   39.60   10.40
   2   7   8   43.60    9.60
   2   7   8   40.30    7.80
   2   7   8   46.10   12.10
  -3  -7  -8   16.30    4.20
  -3  -7  -8   22.30    8.00
  -3  -7  -8   26.10   11.40
  -3  -7  -8   12.90    9.00
   3   7   8   23.80    8.90
   3   7   8   16.60   10.60
   3   7   8   16.50    6.10
  -4  -7  -8  153.98    9.80
  -4  -7  -8  157.18   18.50
  -4  -7  -8  132.09   12.30
   4   7   8  167.38   16.00
   4   7   8  173.68   11.30
   4   7   8  192.58   17.30
   5   7   8  436.86   17.10
   5   7   8  308.47   22.10
   1   2  -9   30.40   14.50
   1   2  -9   38.90   12.70
   1   2  -9   41.20   10.60
  -1  -2   9   16.80   13.30
  -1  -2   9   45.40   10.30
   0   2  -9   15.60   12.00
   0   2  -9   47.90    9.00
   0  -2   9   28.40   12.40
  -1   2  -9   84.29   10.40
  -1   2  -9   86.79   14.00
  -1   2  -9   83.29   13.60
   1  -2   9   66.19   13.00
  -2   2  -9   28.70    5.20
  -2   2  -9   35.60    4.30
  -2   2  -9   36.80   12.40
  -2   2  -9   20.50   11.90
   2  -2   9   51.19   12.70
   2   1  -9   74.29   14.50
   2   1  -9  115.59   13.20
   2   1  -9  119.99   17.40
   2   1  -9  116.69   13.70
  -2  -1   9  114.79   16.90
  -2  -1   9  104.59   13.00
   1   1  -9   14.10    9.40
   1   1  -9   39.40   13.50
   1   1  -9    3.70   11.10
   1   1  -9   36.00    6.80
  -1  -1   9   32.90    9.80
  -1  -1   9   31.80   12.80
   0   1  -9   27.10    5.40
   0   1  -9   39.10   13.10
   0   1  -9   35.60   11.20
   0   1  -9   16.80    8.10
   0  -1   9   17.50    9.10
   0  -1   9   38.10   11.30
  -1   1  -9   11.50   10.20
  -1   1  -9   10.10    3.70
   1  -1   9    9.40    9.70
  -2   1  -9   79.09    8.30
  -2   1  -9   85.89   13.00
  -2   1  -9   71.69   12.60
   2  -1   9   65.99   12.00
  -3   1  -9   65.59   12.90
  -3   1  -9   66.99   12.90
   3  -1   9   67.19   11.80
   2   0  -9   79.19   15.40
   2   0  -9   67.99   13.80
   2   0  -9   75.89    9.30
  -2   0   9   92.29   12.60
  -2   0   9   83.69   16.00
   1   0  -9   64.79    7.50
   1   0  -9   53.29   12.30
   1   0  -9   84.29   13.80
  -1   0   9   38.80   10.30
  -1   0   9   63.59   13.70
   0   0  -9   11.10   10.20
   0   0  -9    0.80    4.30
   0   0  -9   19.60   11.30
   0   0   9    4.70    9.90
   0   0   9    2.20    8.80
  -1   0  -9   90.89   13.00
  -1   0  -9   87.89    5.50
  -1   0  -9   98.19   13.90
   1   0   9   73.59   12.00
   1   0   9   85.59   11.30
  -2   0  -9  326.87   21.90
   2   0   9  276.77   20.30
  -3   0  -9   26.50   10.80
  -3   0  -9    0.40    3.50
  -3   0  -9    5.20    9.20
  -3   0  -9    5.00    3.60
   3   0   9    9.80    8.30
   3   0   9   -5.40    8.80
  -4   0  -9    8.00    9.90
  -4   0  -9   -2.70    9.90
   4   0   9   -2.40    9.10
   2  -1  -9   33.90   12.20
   2  -1  -9   30.70    8.40
   2  -1  -9   31.10   13.70
  -2   1   9   43.90   11.30
  -2   1   9   37.60    6.10
  -2   1   9   18.10   14.10
   1  -1  -9    5.20    6.00
   1  -1  -9   17.50   11.10
   1  -1  -9   -0.10   10.20
  -1   1   9   10.10    4.20
  -1   1   9    5.60    9.20
  -1   1   9   -1.00   10.70
   0  -1  -9   37.70   11.30
   0  -1  -9   40.30   11.00
   0  -1  -9   37.00    5.40
   0   1   9   59.89   10.70
   0   1   9   43.10   11.60
  -1  -1  -9  153.28   16.90
  -1  -1  -9  153.18   17.40
   1   1   9  160.78   17.40
   1   1   9  140.09   15.70
  -2  -1  -9  236.38   15.20
  -2  -1  -9  309.07   20.00
  -2  -1  -9  297.47   20.00
   2   1   9  258.77   18.60
   2   1   9  200.48   28.50
   2   1   9  256.67   18.70
  -3  -1  -9   21.10    5.50
  -3  -1  -9   16.80   10.30
   3   1   9   28.80    9.30
   3   1   9   20.30    8.60
  -4  -1  -9   68.59   11.10
  -4  -1  -9   72.19   12.50
  -4  -1  -9   58.99    6.60
   4   1   9   67.69    9.30
   4   1   9   68.89   10.90
  -5  -1  -9  159.98   18.30
  -5  -1  -9  152.38   17.20
   5   1   9  134.19   14.70
   5   1   9  156.68   13.70
   2  -2  -9   -0.60   12.20
   2  -2  -9   -5.20   10.40
  -2   2   9   -4.70   10.60
  -2   2   9    2.30    5.60
   1  -2  -9   11.00   10.40
   1  -2  -9   14.50    6.80
   1  -2  -9    9.40   11.40
  -1   2   9    6.30    5.10
  -1   2   9   12.10   10.10
  -1   2   9  -10.40   11.60
   0  -2  -9  309.17   22.10
   0  -2  -9  292.07   22.00
   0   2   9  307.37   13.90
   0   2   9  328.67   21.50
   0   2   9  373.66   23.20
  -1  -2  -9   71.09   12.20
   1   2   9   82.99   11.10
   1   2   9   74.99   10.90
   1   2   9   90.19   12.20
  -2  -2  -9   18.80    8.80
  -2  -2  -9   15.70    9.70
  -2  -2  -9   14.10    7.00
   2   2   9   20.00    7.70
   2   2   9   20.60    8.60
   2   2   9    1.20    8.00
  -3  -2  -9   34.40    9.40
  -3  -2  -9   -1.60    5.90
   3   2   9   -4.20    7.30
   3   2   9    8.40    8.40
   3   2   9   -0.90    7.20
  -4  -2  -9  189.38   16.70
  -4  -2  -9  171.38   11.80
  -4  -2  -9  190.48   19.80
   4   2   9  186.68   14.00
   4   2   9  198.88   16.40
   4   2   9  180.18   16.70
  -5  -2  -9  182.38   16.80
  -5  -2  -9  173.08   10.60
  -5  -2  -9  186.88   18.70
   5   2   9  183.28   12.10
   5   2   9  154.48   16.90
   1  -3  -9  191.38   20.50
   1  -3  -9  202.68   21.90
  -1   3   9  205.78   12.60
  -1   3   9  214.88   19.80
   0  -3  -9   62.39   11.90
   0  -3  -9   76.49   12.60
   0   3   9   70.39    6.80
   0   3   9   83.49   12.00
  -1  -3  -9    5.90    9.30
   1   3   9   15.70    8.80
   1   3   9   18.10    4.60
   1   3   9   -3.70    8.80
  -2  -3  -9   77.29   10.30
  -2  -3  -9   57.29   11.70
  -2  -3  -9   87.69   10.80
   2   3   9   67.89   10.60
  -3  -3  -9  327.67   18.50
  -3  -3  -9  325.97   22.80
  -3  -3  -9  293.27   20.40
   3   3   9  305.67   20.40
   3   3   9  312.47   20.80
  -4  -3  -9  217.98   18.00
  -4  -3  -9  182.78   14.10
   4   3   9  198.38   16.60
   4   3   9  180.08   17.80
  -5  -3  -9    0.20    6.20
  -5  -3  -9    0.00    7.60
  -5  -3  -9    2.50    9.60
   5   3   9    0.80    9.60
   5   3   9    3.40    8.80
  -6  -3  -9  130.39   14.70
  -6  -3  -9  105.49   11.50
  -6  -3  -9   92.99   14.20
   6   3   9  121.19   13.80
   6   3   9   79.79   13.40
   1  -4  -9   76.89   12.70
   1  -4  -9   85.79   14.10
  -1   4   9  108.09   10.50
  -1   4   9   61.49   13.20
   0  -4  -9   29.50   10.70
   0  -4  -9   53.69   11.80
   0   4   9   38.50    7.00
   0   4   9   25.10   11.00
  -1  -4  -9   70.89   11.40
  -1  -4  -9   62.89   11.60
  -1  -4  -9   64.79   11.40
   1   4   9   48.10   11.30
   1   4   9   49.10   10.30
  -2  -4  -9  331.87   19.80
  -2  -4  -9  337.87   21.90
  -2  -4  -9  304.77   19.80
   2   4   9  334.57   21.60
   2   4   9  312.17   20.10
  -3  -4  -9  166.98   17.70
  -3  -4  -9  186.98   14.30
   3   4   9  174.68   17.50
   3   4   9  149.29   15.60
  -4  -4  -9   40.70   11.10
  -4  -4  -9   45.20    9.00
   4   4   9   44.30   10.80
   4   4   9   54.29   10.20
  -5  -4  -9   81.99   10.00
  -5  -4  -9  103.19   12.30
  -5  -4  -9   71.99   12.60
   5   4   9   99.39   13.60
   5   4   9   90.29   11.70
  -6  -4  -9  308.27   24.20
  -6  -4  -9  331.57   19.10
  -6  -4  -9  379.76   24.20
   6   4   9  335.87   23.30
   6   4   9  313.67   23.60
   0  -5  -9   50.49   12.00
   0  -5  -9   55.69   12.90
   0  -5  -9   45.50   13.60
   0   5   9   44.70    7.80
  -1  -5  -9   74.69   11.40
  -1  -5  -9   69.89   12.90
  -1  -5  -9   87.19   12.90
   1   5   9   72.19   11.00
   1   5   9   58.09   12.90
  -2  -5  -9  160.68   17.30
  -2  -5  -9  149.39   17.30
  -2  -5  -9  154.68   16.10
   2   5   9  177.88   16.10
   2   5   9  182.88   18.50
  -3  -5  -9   19.70    9.60
  -3  -5  -9   27.90   10.10
   3   5   9   15.60    8.90
   3   5   9   16.10   10.10
  -4  -5  -9    1.90    9.70
  -4  -5  -9    3.10    5.00
  -4  -5  -9   19.50    8.50
   4   5   9   11.10   10.50
   4   5   9    4.80    8.90
  -5  -5  -9  340.57   16.10
  -5  -5  -9  317.77   22.80
  -5  -5  -9  307.07   18.40
   5   5   9  384.16   23.50
   5   5   9  368.66   23.30
  -2  -6  -9   87.99   11.70
  -2  -6  -9   78.89   12.60
  -2  -6  -9   60.39   13.90
   2   6   9   49.20   13.30
   2   6   9   65.79   11.50
   2   6   9   67.99    7.40
  -3  -6  -9   37.40   11.20
  -3  -6  -9   39.10   12.20
   3   6   9   48.60   10.80
   3   6   9   38.30    5.50
   3   6   9   43.30   12.10
  -4  -6  -9  214.98   20.70
  -4  -6  -9  228.58   19.90
  -4  -6  -9  234.68   11.70
  -4  -6  -9  226.68   13.90
   4   6   9  211.78   19.60
   4   6   9  217.28   11.00
   4   6   9  232.08   20.90
   0   0 -10   31.80   15.20
   0   0 -10   17.80   13.50
   0   0 -10   15.90    5.10
   0   0  10   -4.60   12.10
   0   0  10    7.00   11.20
  -1   0 -10  102.69   16.20
  -1   0 -10   60.59   14.40
   1   0  10   94.19   12.90
   1   0  10   47.50   13.60
  -2   0 -10  113.09   15.90
  -2   0 -10  101.59   11.80
   2   0  10  100.89   12.90
   2   0  10   98.89   14.00
   0  -1 -10  139.89   16.80
   0  -1 -10  178.78   11.10
   0  -1 -10  193.08   23.20
   0   1  10  142.49   17.60
   0   1  10  180.98   19.80
  -1  -1 -10  116.89   15.90
  -1  -1 -10  143.79   20.50
   1   1  10  164.38   19.80
   1   1  10  151.48   18.10
  -2  -1 -10   57.79   12.90
  -2  -1 -10   52.99    8.70
   2   1  10   45.40   11.80
   2   1  10   58.49   11.70
  -3  -1 -10   15.60   12.50
  -3  -1 -10   -2.10    6.00
   3   1  10    3.70   10.40
   3   1  10  -13.90    8.90
   0  -2 -10   30.60   13.00
   0  -2 -10   42.70   13.30
   0   2  10   45.10   12.10
   0   2  10   39.60    5.40
   0   2  10   43.50   13.70
  -1  -2 -10   34.00   12.00
  -1  -2 -10    8.90   12.10
   1   2  10   44.90   12.60
   1   2  10   36.20   11.70
  -2  -2 -10   50.59    9.50
  -2  -2 -10   57.59   11.60
  -2  -2 -10   44.20   13.00
   2   2  10   44.00   11.30
   2   2  10   31.00   10.90
   2   2  10   47.20   11.40
  -3  -2 -10  164.08   14.00
  -3  -2 -10  157.08   17.10
   3   2  10  111.59   14.30
   3   2  10  117.19   14.00
   3   2  10  146.89   18.90
  -4  -2 -10  206.48   14.10
  -4  -2 -10  229.18   22.90
  -4  -2 -10  247.58   19.00
   4   2  10  206.78   20.80
   4   2  10  249.58   20.60
   4   2  10  228.48   17.20
  -1  -3 -10   11.20   10.10
  -1  -3 -10    0.60   11.40
  -1  -3 -10    7.70   10.90
   1   3  10    9.60   11.40
   1   3  10   16.00    4.90
  -2  -3 -10  152.48   15.10
  -2  -3 -10   78.79   14.60
  -2  -3 -10  103.99   15.10
   2   3  10   89.59   14.10
   2   3  10  112.59    7.40
   2   3  10  100.79   13.30
  -3  -3 -10   79.59   11.00
  -3  -3 -10   76.19   14.10
  -3  -3 -10   94.39   11.10
   3   3  10   90.29   13.50
   3   3  10  100.39   13.10
  -4  -3 -10   47.40   10.40
  -4  -3 -10   32.90   13.30
   4   3  10   40.70   11.40
   4   3  10   29.60   11.80
  -1  -4 -10   34.70   11.80
  -2  -4 -10  125.39   15.70
  -2  -4 -10  104.09   13.50
  -2  -4 -10  139.69   16.70
   2   4  10   61.39   13.60
   2   4  10  114.09   14.20
  -3  -4 -10    9.70    9.90
  -3  -4 -10   17.20   12.60
   3   4  10   12.80   10.00
   3   4  10    2.90   11.70
  -4  -4 -10   11.40   14.40
   4   4  10    5.50   12.20
   4   4  10   10.70   10.50
   0   0   0    0.00    0.00


_computing_structure_solution     'SHELXT 2018/2 (Sheldrick, 2018)'
_computing_structure_solution     'SHELXT 2018/2 (Sheldrick, 2018)'
;
loop_
_space_group_symop_operation_xyz
'x, y, z'
'-x, -y, -z'
loop_
_atom_site_label
_atom_site_type_symbol
_atom_site_fract_x
_atom_site_fract_y
_atom_site_fract_z
_atom_site_U_iso_or_equiv
_atom_site_adp_type
_atom_site_occupancy
_atom_site_site_symmetry_order
_atom_site_calc_flag
_atom_site_refinement_flags_posn
_atom_site_refinement_flags_adp
_atom_site_refinement_flags_occupancy
_atom_site_disorder_assembly
_atom_site_disorder_group
Br1 Br 0.87131(4) 0.89027(4) 0.91538(3) 0.02585(11) Uani 1 1 d . . . . .
C1 C 0.7000(4) 0.8024(4) 0.8297(3) 0.0179(5) Uani 1 1 d . . . . .
C2 C 0.7346(4) 0.5969(4) 0.8438(3) 0.0230(5) Uani 1 1 d . . . . .
H2 H 0.845136 0.495181 0.896357 0.028 Uiso 1 1 calc R . . . .
C3 C 0.6028(4) 0.5432(4) 0.7787(3) 0.0210(5) Uani 1 1 d . . . . .
H3 H 0.620305 0.403050 0.786730 0.025 Uiso 1 1 calc R . . . .
C4 C 0.4453(3) 0.6974(3) 0.7019(3) 0.0166(5) Uani 1 1 d . . . . .
C5 C 0.5386(3) 0.9485(4) 0.7523(3) 0.0182(5) Uani 1 1 d . . . . .
H5 H 0.516523 1.089667 0.744780 0.022 Uiso 1 1 calc R . . . .
C6 C 0.3008(3) 0.6445(3) 0.6290(3) 0.0177(5) Uani 1 1 d . . . . .
N1 N 0.4137(3) 0.8975(3) 0.6882(2) 0.0163(4) Uani 1 1 d . . . . .
O1 O 0.1922(3) 0.7977(3) 0.5303(2) 0.0226(4) Uani 1 1 d . . . . .
O2 O 0.2925(3) 0.4724(3) 0.6625(3) 0.0278(4) Uani 1 1 d . . . . .
O1W O 0.9172(3) 0.7506(3) 0.4137(3) 0.0291(5) Uani 1 1 d . . . . .
H1 H 0.114(5) 0.768(5) 0.499(4) 0.037(9) Uiso 1 1 d . . . . .
H1WA H 0.834(5) 0.850(5) 0.394(4) 0.036(10) Uiso 1 1 d . . . . .
H1WB H 0.873(5) 0.658(6) 0.405(5) 0.053(11) Uiso 1 1 d . . . . .
loop_
_atom_site_aniso_label
_atom_site_aniso_U_11
_atom_site_aniso_U_22
_atom_site_aniso_U_33
_atom_site_aniso_U_23
_atom_site_aniso_U_13
_atom_site_aniso_U_12
Br1 0.02249(15) 0.03047(16) 0.03217(18) -0.01041(11) -0.01109(10) -0.01030(11)
C1 0.0176(11) 0.0227(12) 0.0157(13) -0.0045(10) -0.0014(9) -0.0093(10)
C2 0.0217(12) 0.0186(12) 0.0281(15) -0.0018(11) -0.0128(10) -0.0024(10)
C3 0.0231(12) 0.0140(12) 0.0272(14) -0.0028(10) -0.0068(10) -0.0067(10)
C4 0.0180(11) 0.0148(11) 0.0183(13) -0.0047(10) -0.0030(9) -0.0059(9)
C5 0.0196(12) 0.0156(12) 0.0221(14) -0.0029(10) -0.0045(10) -0.0083(10)
C6 0.0161(11) 0.0158(12) 0.0208(13) -0.0046(10) -0.0036(10) -0.0040(9)
N1 0.0180(10) 0.0141(10) 0.0179(11) -0.0036(8) -0.0038(8) -0.0058(8)
O1 0.0250(9) 0.0172(9) 0.0315(11) -0.0010(8) -0.0165(8) -0.0085(8)
O2 0.0304(10) 0.0139(9) 0.0452(13) -0.0034(8) -0.0182(9) -0.0080(7)
O1W 0.0265(10) 0.0122(9) 0.0544(14) -0.0038(9) -0.0254(9) -0.0031(8)
loop_
_atom_type_symbol
_atom_type_description
_atom_type_scat_dispersion_real
_atom_type_scat_dispersion_imag
_atom_type_scat_source
C C 0.0033 0.0016 'International Tables Vol C Tables 4.2.6.8 and 6.1.1.4'
H H 0.0000 0.0000 'International Tables Vol C Tables 4.2.6.8 and 6.1.1.4'
Br Br -0.2901 2.4595 'International Tables Vol C Tables 4.2.6.8 and 6.1.1.4'
O O 0.0106 0.0060 'International Tables Vol C Tables 4.2.6.8 and 6.1.1.4'
N N 0.0061 0.0033 'International Tables Vol C Tables 4.2.6.8 and 6.1.1.4'
loop_
_geom_angle_atom_site_label_1
_geom_angle_atom_site_label_2
_geom_angle_atom_site_label_3
_geom_angle
_geom_angle_site_symmetry_1
_geom_angle_site_symmetry_3
C2 C1 Br1 120.82(18) . .
C2 C1 C5 120.3(2) . .
C5 C1 Br1 118.89(17) . .
C1 C2 H2 121.1 . .
C1 C2 C3 117.9(2) . .
C3 C2 H2 121.1 . .
C2 C3 H3 120.6 . .
C4 C3 C2 118.8(2) . .
C4 C3 H3 120.6 . .
C3 C4 C6 120.2(2) . .
N1 C4 C3 122.8(2) . .
N1 C4 C6 117.0(2) . .
C1 C5 H5 119.0 . .
N1 C5 C1 122.0(2) . .
N1 C5 H5 119.0 . .
O1 C6 C4 113.4(2) . .
O2 C6 C4 121.1(2) . .
O2 C6 O1 125.5(2) . .
C5 N1 C4 118.2(2) . .
C6 O1 H1 111(2) . .
H1WA O1W H1WB 106(3) . .
loop_
_geom_bond_atom_site_label_1
_geom_bond_atom_site_label_2
_geom_bond_distance
_geom_bond_site_symmetry_2
Br1 C1 1.891(2) .
C1 C2 1.376(3) .
C1 C5 1.383(3) .
C2 H2 0.9500 .
C2 C3 1.386(3) .
C3 H3 0.9500 .
C3 C4 1.384(3) .
C4 C6 1.501(3) .
C4 N1 1.343(3) .
C5 H5 0.9500 .
C5 N1 1.327(3) .
C6 O1 1.299(3) .
C6 O2 1.217(3) .
O1 H1 0.78(3) .
O1W H1WA 0.74(3) .
O1W H1WB 0.86(4) .
