#------------------------------------------------------------------------------
#$Date: 2022-09-13 10:44:33 +0300 (Tue, 13 Sep 2022) $
#$Revision: 277792 $
#$URL: file:///home/coder/svn-repositories/cod/cif/8/10/57/8105757.cif $
#------------------------------------------------------------------------------
#
# This file is available in the Crystallography Open Database (COD),
# http://www.crystallography.net/
#
# All data on this site have been placed in the public domain by the
# contributors.
#
data_8105757
loop_
_publ_author_name
'Tong, Ling'
'Tian, Dong'
_publ_section_title
;
 The crystal structure of poly[(\m5-2,5-dicarboxy-benzoato-\k4
 O:O:O&#x2032;:O&#x2032;&#x2032;,O&#x2032;&#x2032;&#x2032;)silver(I)],
 C9H5AgO6
;
_journal_issue                   3
_journal_name_full
'Zeitschrift f\"ur Kristallographie - New Crystal Structures'
_journal_page_first              489
_journal_page_last               491
_journal_paper_doi               10.1515/ncrs-2018-0489
_journal_volume                  234
_journal_year                    2019
_chemical_formula_sum            'C9 H5 Ag O6'
_chemical_formula_weight         317.00
_space_group_crystal_system      triclinic
_space_group_IT_number           2
_space_group_name_Hall           '-P 1'
_space_group_name_H-M_alt        'P -1'
_atom_sites_solution_hydrogens   mixed
_audit_creation_method           SHELXL-2016/6
_cell_angle_alpha                79.109(2)
_cell_angle_beta                 89.864(2)
_cell_angle_gamma                78.122(2)
_cell_formula_units_Z            2
_cell_length_a                   3.7933(5)
_cell_length_b                   7.6762(11)
_cell_length_c                   15.534(2)
_cell_measurement_temperature    296(2)
_cell_volume                     434.35(10)
_computing_structure_refinement  'SHELXL-2016/6 (Sheldrick, 2016)'
_diffrn_ambient_temperature      296(2)
_diffrn_measured_fraction_theta_full 0.998
_diffrn_measured_fraction_theta_max 0.984
_diffrn_radiation_type           MoK\a
_diffrn_radiation_wavelength     0.71073
_diffrn_reflns_av_R_equivalents  0.0286
_diffrn_reflns_av_unetI/netI     0.0378
_diffrn_reflns_Laue_measured_fraction_full 0.998
_diffrn_reflns_Laue_measured_fraction_max 0.984
_diffrn_reflns_limit_h_max       4
_diffrn_reflns_limit_h_min       -4
_diffrn_reflns_limit_k_max       10
_diffrn_reflns_limit_k_min       -10
_diffrn_reflns_limit_l_max       20
_diffrn_reflns_limit_l_min       -20
_diffrn_reflns_number            5417
_diffrn_reflns_point_group_measured_fraction_full 0.998
_diffrn_reflns_point_group_measured_fraction_max 0.984
_diffrn_reflns_theta_full        25.242
_diffrn_reflns_theta_max         28.327
_diffrn_reflns_theta_min         2.672
_exptl_absorpt_coefficient_mu    2.331
_exptl_crystal_density_diffrn    2.424
_exptl_crystal_F_000             308
_exptl_crystal_size_max          0.150
_exptl_crystal_size_mid          0.150
_exptl_crystal_size_min          0.100
_refine_diff_density_max         0.833
_refine_diff_density_min         -1.150
_refine_diff_density_rms         0.108
_refine_ls_extinction_coef       .
_refine_ls_extinction_method     none
_refine_ls_goodness_of_fit_ref   1.027
_refine_ls_hydrogen_treatment    constr
_refine_ls_matrix_type           full
_refine_ls_number_parameters     145
_refine_ls_number_reflns         2128
_refine_ls_number_restraints     0
_refine_ls_restrained_S_all      1.027
_refine_ls_R_factor_all          0.0398
_refine_ls_R_factor_gt           0.0302
_refine_ls_shift/su_max          0.000
_refine_ls_shift/su_mean         0.000
_refine_ls_structure_factor_coef Fsqd
_refine_ls_weighting_details
'w=1/[\s^2^(Fo^2^)+(0.0259P)^2^+0.4274P] where P=(Fo^2^+2Fc^2^)/3'
_refine_ls_weighting_scheme      calc
_refine_ls_wR_factor_gt          0.0611
_refine_ls_wR_factor_ref         0.0650
_reflns_Friedel_coverage         0.000
_reflns_Friedel_fraction_full    .
_reflns_Friedel_fraction_max     .
_reflns_number_gt                1800
_reflns_number_total             2128
_reflns_threshold_expression     'I > 2\s(I)'
_cod_data_source_file            suppl_ncrs-2018-0489_suppl.cif
_cod_data_source_block           a
_cod_database_code               8105757
_shelx_shelxl_version_number     2016/6
_shelx_space_group_comment
;
The symmetry employed for this shelxl refinement is uniquely defined
by the following loop, which should always be used as a source of
symmetry information in preference to the above space-group names.
They are only intended as comments.
;
_shelx_estimated_absorpt_t_min   0.721
_shelx_estimated_absorpt_t_max   0.800
_shelx_res_file
;
TITL a in P-1
    D:\H1_1\data\a.res
    created by SHELXL-2016/6 at 17:31:25 on 05-Nov-2018
CELL 0.71073 3.7933 7.6762 15.5340 79.109 89.864 78.122
ZERR 2.0000 0.0005 0.0011 0.0020 0.002 0.002 0.002
LATT 1
SFAC C AG O H
UNIT 18 2 12 10
MERG 2
FMAP 2
GRID
PLAN 20
TEMP 23
SIZE 0.15 0.15 0.1
BOND $H
HTAB
EQIV $7 x-1, y, z
HTAB O1 O3_$7
EQIV $8 -x-1, -y+2, -z+1
HTAB O5 O6_$8
L.S. 20
ACTA
WGHT    0.025900    0.427400
FVAR       0.20212
AG1   2    0.527663    0.139140    0.052718    11.00000    0.04181    0.02737 =
         0.02793   -0.01071    0.01295   -0.00518
C1    1    0.170948    0.389222    0.170472    11.00000    0.02999    0.02141 =
         0.02394   -0.00998    0.00534   -0.00532
C2    1    0.208572    0.788159    0.128983    11.00000    0.01998    0.02310 =
         0.01936   -0.00603   -0.00062   -0.00293
C3    1   -0.310836    0.848911    0.419161    11.00000    0.03171    0.02573 =
         0.02358   -0.01100    0.00646   -0.00492
C7    1   -0.174886    0.732054    0.354808    11.00000    0.02467    0.02507 =
         0.01907   -0.01076    0.00315   -0.00370
C8    1   -0.175426    0.547910    0.374782    11.00000    0.02973    0.02676 =
         0.02027   -0.00642    0.00411   -0.00546
AFIX  43
H8    4   -0.255444    0.497366    0.428542    11.00000   -1.20000
AFIX   0
C9    1   -0.055773    0.439983    0.313972    11.00000    0.03409    0.01934 =
         0.02566   -0.00683    0.00595   -0.00417
AFIX  43
H9    4   -0.053271    0.316402    0.327250    11.00000   -1.20000
AFIX   0
C4    1    0.060247    0.515679    0.233381    11.00000    0.02112    0.02057 =
         0.02192   -0.00932    0.00205   -0.00266
C5    1    0.066346    0.700488    0.212934    11.00000    0.02036    0.02325 =
         0.01806   -0.00937    0.00057   -0.00316
C6    1   -0.053239    0.807533    0.274664    11.00000    0.02462    0.01954 =
         0.02435   -0.00843    0.00017   -0.00295
AFIX  43
H6    4   -0.051650    0.930720    0.262117    11.00000   -1.20000
AFIX   0
O1    3   -0.018049    0.418564    0.096267    11.00000    0.03865    0.02951 =
         0.02631   -0.01486   -0.00132   -0.00034
AFIX   3
H1    4   -0.207219    0.510994    0.090397    11.00000   -1.20000
AFIX   0
O2    3    0.420256    0.260997    0.187444    11.00000    0.03786    0.02959 =
         0.03799   -0.01699   -0.00112    0.00584
O3    3    0.410926    0.690944    0.084162    11.00000    0.03131    0.02728 =
         0.02201   -0.00887    0.00795   -0.00162
O4    3    0.118063    0.958522    0.107805    11.00000    0.03107    0.02089 =
         0.03537   -0.00359    0.00795   -0.00277
O5    3   -0.277578    1.013263    0.400865    11.00000    0.07417    0.02693 =
         0.03904   -0.02015    0.02585   -0.01485
AFIX   3
H5    4   -0.357308    1.083293    0.441585    11.00000   -1.20000
AFIX   0
O6    3   -0.452665    0.782683    0.487142    11.00000    0.06207    0.03110 =
         0.02849   -0.01351    0.02215   -0.01204
HKLF 4




REM  a in P-1
REM R1 =  0.0302 for    1800 Fo > 4sig(Fo)  and  0.0398 for all    2128 data
REM    145 parameters refined using      0 restraints

END

WGHT      0.0253      0.4309

REM Instructions for potential hydrogen bonds
HTAB O1 O3_$7
HTAB O5 O6_$8

REM Highest difference peak  0.833,  deepest hole -1.150,  1-sigma level  0.108
Q1    1   0.5376  0.0596  0.0928  11.00000  0.05    0.83
Q2    1   0.6546  0.2493  0.0225  11.00000  0.05    0.66
Q3    1   0.3344  0.1621  0.0348  11.00000  0.05    0.53
Q4    1   0.1033  0.7420  0.2522  11.00000  0.05    0.53
Q5    1   0.3883  0.0249  0.0882  11.00000  0.05    0.52
Q6    1   0.4502  0.2453 -0.0134  11.00000  0.05    0.50
Q7    1   0.4807  0.0975  0.0220  11.00000  0.05    0.50
Q8    1   0.1748  0.7386  0.1781  11.00000  0.05    0.45
Q9    1  -0.2066  0.7832  0.3869  11.00000  0.05    0.43
Q10   1   0.8895  0.1645  0.0532  11.00000  0.05    0.41
Q11   1  -0.2471  0.7443  0.5020  11.00000  0.05    0.40
Q12   1   0.1852  0.1206  0.0564  11.00000  0.05    0.39
Q13   1   0.2923  0.7795  0.0675  11.00000  0.05    0.38
Q14   1  -0.1530  0.5017  0.3401  11.00000  0.05    0.35
Q15   1   0.0462  1.0578 -0.0002  11.00000  0.05    0.35
Q16   1   0.8371  0.2163  0.0568  11.00000  0.05    0.35
Q17   1  -0.2010  0.5319  0.4568  11.00000  0.05    0.34
Q18   1   0.5409  0.1205 -0.0322  11.00000  0.05    0.33
Q19   1   0.6477  0.1732  0.1088  11.00000  0.05    0.33
Q20   1   0.0637  1.0411  0.0643  11.00000  0.05    0.32
;
_shelx_res_checksum              91691
_shelx_hkl_file
;
  -1   0   0   81.28    1.70
  -1   0   0   79.89    1.73
  -1   0   0   80.71    1.59
  -1   0   0   80.74    1.79
  -2   0   0  157.74    3.51
  -2   0   0  151.98    3.35
  -2   0   0  158.81    3.11
  -2   0   0  158.01    3.36
  -3   0   0   35.75    1.48
  -3   0   0   34.71    1.54
  -3   0   0   34.07    1.40
   3   0   0   35.44    1.36
  -4   0   0    5.33    0.86
   4   0   0    4.50    0.81
   4  -1   0    7.89    1.12
  -4   1   0    6.23    0.92
   3  -1   0   36.26    1.33
   3  -1   0   34.71    1.61
  -3   1   0   34.81    1.51
   2  -1   0   23.69    0.86
  -2   1   0   23.31    0.99
  -2   1   0   21.78    0.86
  -2   1   0   23.79    1.08
   1  -1   0  209.47    3.60
  -1   1   0  205.20    4.06
  -1   1   0  196.47    3.80
  -1   1   0  197.46    3.80
   0  -1   0   57.46    1.17
   0  -1   0   57.39    1.11
   0   1   0   57.55    1.13
   0   1   0   56.78    1.18
  -1  -1   0  223.72    4.23
  -1  -1   0  225.13    4.38
  -1  -1   0  234.55    4.09
  -1  -1   0  228.24    4.03
  -2  -1   0    2.71    0.36
  -2  -1   0    3.00    0.40
  -2  -1   0    2.54    0.40
  -2  -1   0    3.12    0.43
  -3  -1   0    1.17    0.40
  -3  -1   0    1.00    0.37
  -3  -1   0    1.43    0.46
  -3  -1   0    1.21    0.40
  -4  -1   0    0.21    0.41
  -4  -1   0    0.41    0.50
   4  -2   0    8.11    1.18
  -4   2   0    9.73    1.16
   3  -2   0    0.13    0.33
  -3   2   0   -0.26    0.26
   2  -2   0    1.89    0.32
   2  -2   0    2.05    0.44
  -2   2   0    2.10    0.41
  -2   2   0    1.39    0.29
   1  -2   0   42.24    1.32
   1  -2   0   42.22    1.06
  -1   2   0   42.31    1.22
  -1   2   0   42.28    1.07
   0  -2   0   23.98    0.71
   0  -2   0   23.41    0.72
   0   2   0   24.04    0.71
   0   2   0   22.71    0.73
  -1  -2   0  175.31    3.33
  -1  -2   0  179.96    3.36
  -1  -2   0  182.63    3.67
   1   2   0  173.01    3.24
  -2  -2   0   21.87    0.89
  -2  -2   0   21.30    0.98
  -2  -2   0   21.09    0.81
   2   2   0   21.30    0.81
  -3  -2   0    9.16    0.77
  -3  -2   0   10.35    0.79
  -3  -2   0   10.36    0.87
  -3  -2   0    9.81    0.76
   3   2   0    8.93    0.72
  -4  -2   0   18.05    1.17
  -4  -2   0   20.59    1.41
   4  -3   0    3.88    0.93
  -4   3   0    3.41    0.78
   3  -3   0   -0.02    0.35
  -3   3   0    0.25    0.35
   2  -3   0   24.62    1.27
   2  -3   0   24.64    0.93
  -2   3   0   24.59    1.15
   1  -3   0   44.57    1.22
   1  -3   0   42.66    1.46
  -1   3   0   45.59    1.40
  -1   3   0   45.36    1.26
   0  -3   0  131.11    2.79
   0  -3   0  126.90    2.62
   0   3   0  130.06    2.68
   0   3   0  126.17    2.77
  -1  -3   0  134.15    2.83
  -1  -3   0  141.73    2.70
   1   3   0  136.60    3.17
   1   3   0  130.77    2.71
  -2  -3   0  103.86    2.48
  -2  -3   0  105.50    2.33
  -2  -3   0  103.56    2.73
   2   3   0  103.46    2.29
  -3  -3   0   58.45    1.90
  -3  -3   0   56.25    2.09
   3   3   0   59.61    1.75
  -4  -3   0   13.23    1.08
   4  -4   0    4.97    1.09
  -4   4   0    5.76    1.04
   3  -4   0    5.84    1.01
  -3   4   0    6.06    0.92
   2  -4   0   36.35    1.66
  -2   4   0   38.01    1.55
   1  -4   0   37.90    1.48
   1  -4   0   39.87    1.23
  -1   4   0   39.44    1.41
  -1   4   0   37.49    1.26
   0  -4   0   19.70    0.86
   0  -4   0   19.16    0.85
   0   4   0   19.27    0.88
   0   4   0   22.12    0.89
  -1  -4   0  134.07    2.87
  -1  -4   0  139.53    3.04
   1   4   0  135.37    3.32
   1   4   0  141.31    2.96
  -2  -4   0   43.05    1.50
  -2  -4   0   42.26    1.19
   2   4   0   40.14    1.27
   2   4   0   43.62    1.76
  -3  -4   0   16.91    1.08
   3   4   0   17.52    1.29
  -4  -4   0    2.42    0.68
   4   4   0    2.54    0.90
   3  -5   0    8.48    1.26
  -3   5   0    6.11    0.93
   2  -5   0   25.92    1.49
  -2   5   0   30.42    1.49
   1  -5   0   16.68    0.87
   1  -5   0   15.84    1.01
  -1   5   0   17.22    1.03
   0  -5   0    1.20    0.33
   0  -5   0    1.18    0.35
   0   5   0    1.55    0.39
   0   5   0    1.55    0.39
  -1  -5   0   11.48    0.65
  -1  -5   0   12.63    0.80
   1   5   0   12.03    0.75
   1   5   0   11.47    0.90
  -2  -5   0    0.06    0.35
   2   5   0    0.24    0.32
   2   5   0    0.32    0.43
  -3  -5   0    0.57    0.41
   3   5   0    0.82    0.58
  -4  -5   0    9.41    1.12
   4   5   0   13.76    1.65
   3  -6   0    3.48    0.90
  -3   6   0    5.95    1.01
   2  -6   0    0.04    0.34
  -2   6   0    0.20    0.38
   1  -6   0   12.70    0.97
   1  -6   0   11.75    0.81
  -1   6   0   12.38    0.99
   0  -6   0   12.09    0.86
   0  -6   0   12.04    0.84
   0   6   0   10.75    0.83
   0   6   0   11.68    0.87
  -1  -6   0   18.45    1.07
   1   6   0   19.45    1.02
   1   6   0   17.60    1.18
  -2  -6   0   16.43    1.12
   2   6   0   17.52    1.32
  -3  -6   0   23.16    1.37
   3   6   0   20.52    1.59
  -4  -6   0    1.61    0.66
   4   6   0    3.23    1.01
   2  -7   0    8.78    1.17
  -2   7   0   10.99    1.25
   1  -7   0   36.33    1.76
  -1   7   0   36.07    1.70
   0  -7   0   50.23    1.93
   0  -7   0   52.41    1.91
   0   7   0   51.89    1.88
  -1  -7   0   14.37    1.05
   1   7   0   13.68    0.96
   1   7   0   16.00    1.23
  -2  -7   0   27.87    1.52
   2   7   0   28.90    1.76
  -3  -7   0    2.57    0.68
   3   7   0    2.57    0.88
  -4  -7   0    1.76    0.75
   4   7   0    2.37    1.05
   2  -8   0    2.27    0.69
  -2   8   0    3.14    0.87
   1  -8   0   17.65    1.30
  -1   8   0   17.23    1.32
   0  -8   0    7.71    0.93
   0   8   0    9.37    1.02
  -1  -8   0   17.36    1.23
   1   8   0   20.59    1.46
  -2  -8   0    1.33    0.58
   2   8   0    0.89    0.63
  -3  -8   0    0.45    0.52
   3   8   0    1.18    0.75
  -1   9   0    0.13    0.52
   0   9   0   -0.09    0.45
  -1  -9   0   -0.03    0.43
  -2  -9   0    0.13    0.54
   2   9   0   -0.08    0.67
  -3  -9   0    1.01    0.62
   3   9   0    1.71    0.83
  -1 -10   0   15.86    1.67
   3   9  -1    0.97    0.80
  -3  -9   1    0.84    0.65
   2   9  -1    0.25    0.66
  -2  -9   1    0.13    0.49
   1   9  -1    2.10    0.81
  -1  -9   1    2.73    0.73
  -1   9  -1    3.11    0.78
   3   8  -1    2.32    0.93
  -3  -8   1   -0.07    0.52
   2   8  -1   17.92    1.70
  -2  -8   1   16.42    1.30
   1   8  -1   13.68    1.38
  -1  -8   1   14.47    1.16
   0   8  -1   18.28    1.23
   0  -8   1   19.05    1.21
  -1   8  -1   13.51    1.18
   1  -8   1   14.08    1.23
  -2   8  -1    7.85    1.19
   2  -8   1    5.82    1.05
   4   7  -1    4.84    1.24
  -4  -7   1    4.38    1.00
   3   7  -1    5.01    1.04
  -3  -7   1    5.27    0.97
   2   7  -1   31.69    1.87
  -2  -7   1   30.87    1.59
   1   7  -1   49.08    2.06
  -1  -7   1   50.36    1.91
   0   7  -1    6.18    0.75
   0   7  -1    6.89    0.87
   0  -7   1    7.38    0.87
   0  -7   1    8.09    0.97
  -1   7  -1   22.77    1.36
   1  -7   1   21.40    1.37
  -2   7  -1   14.06    1.45
   2  -7   1   10.19    1.27
   4   6  -1    2.44    0.94
  -4  -6   1    3.94    0.80
   3   6  -1    7.08    1.08
  -3  -6   1    6.66    0.96
   2   6  -1   21.41    1.44
  -2  -6   1   17.00    1.14
   1   6  -1   18.45    1.20
   1   6  -1   17.83    0.93
  -1  -6   1   16.40    1.02
  -1  -6   1   18.93    1.00
   0   6  -1    0.73    0.36
   0   6  -1    0.39    0.34
   0  -6   1    1.54    0.44
   0  -6   1    0.83    0.37
  -1   6  -1    0.18    0.31
   1  -6   1   -0.05    0.27
  -2   6  -1    4.05    0.79
   2  -6   1    3.11    0.69
  -3   6  -1   -0.34    0.45
   3  -6   1   -0.05    0.34
   4   5  -1    3.76    1.00
  -4  -5   1    5.08    0.97
   3   5  -1    0.72    0.50
  -3  -5   1   -0.09    0.36
   2   5  -1    0.25    0.41
  -2  -5   1    0.15    0.32
   1   5  -1   31.06    1.14
   1   5  -1   30.90    1.44
  -1  -5   1   30.77    1.17
  -1  -5   1   32.57    1.28
   0   5  -1   39.50    1.37
   0   5  -1   39.90    1.48
   0  -5   1   40.41    1.50
   0  -5   1   41.58    1.41
  -1   5  -1   36.09    1.46
  -1   5  -1   37.29    1.42
   1  -5   1   36.67    1.58
   1  -5   1   38.36    1.29
  -2   5  -1   31.71    1.54
   2  -5   1   34.07    1.71
  -3   5  -1   29.94    1.70
   3  -5   1   23.21    1.63
   4   4  -1    2.13    0.87
  -4  -4   1    3.18    0.76
   3   4  -1   55.46    2.32
  -3  -4   1   57.75    1.99
   2   4  -1   85.99    2.64
   2   4  -1   81.19    1.98
  -2  -4   1   85.73    2.30
  -2  -4   1   87.47    2.07
   1   4  -1   60.82    1.95
   1   4  -1   63.11    1.59
  -1  -4   1   61.07    1.62
  -1  -4   1   62.39    1.73
   0   4  -1  183.70    4.02
   0   4  -1  184.88    3.76
   0  -4   1  185.04    4.01
   0  -4   1  189.62    3.74
  -1   4  -1   61.51    1.81
  -1   4  -1   55.61    1.73
   1  -4   1   62.33    1.61
   1  -4   1   61.53    1.99
  -2   4  -1   45.94    1.73
   2  -4   1   45.63    1.90
  -3   4  -1    4.82    0.85
   3  -4   1    3.63    0.77
  -4   4  -1    5.07    0.99
   4  -4   1    3.74    0.95
   4   3  -1   10.42    1.32
  -4  -3   1    9.05    1.10
   3   3  -1   52.56    2.11
   3   3  -1   55.78    1.69
  -3  -3   1   55.91    1.87
  -3  -3   1   55.30    1.77
   2   3  -1   25.60    0.84
   2   3  -1   26.71    1.26
  -2  -3   1   24.36    1.04
  -2  -3   1   24.01    0.90
   1   3  -1  146.52    2.92
   1   3  -1  149.49    3.43
  -1  -3   1  154.43    3.05
  -1  -3   1  150.28    3.07
   0   3  -1    3.73    0.37
   0   3  -1    4.20    0.46
   0  -3   1    3.83    0.41
   0  -3   1    3.70    0.38
  -1   3  -1   53.93    1.56
  -1   3  -1   55.25    1.52
   1  -3   1   54.12    1.72
   1  -3   1   53.29    1.34
  -2   3  -1    4.18    0.60
  -2   3  -1    4.17    0.50
   2  -3   1    4.26    0.47
   2  -3   1    6.21    0.78
  -3   3  -1   -0.09    0.31
   3  -3   1    0.05    0.38
  -4   3  -1    0.30    0.50
   4  -3   1    0.45    0.57
  -4  -2   1    2.32    0.65
  -3  -2   1    1.85    0.50
  -3  -2   1    1.98    0.42
  -3  -2   1    2.05    0.49
  -3  -2   1    1.38    0.46
   2   2  -1    7.24    0.45
  -2  -2   1    5.56    0.54
  -2  -2   1    5.96    0.64
  -2  -2   1    7.25    0.51
   1   2  -1    3.47    0.45
   1   2  -1    3.44    0.24
  -1  -2   1    3.70    0.29
  -1  -2   1    4.30    0.37
   0   2  -1    5.12    0.41
   0   2  -1    4.70    0.32
   0  -2   1    5.07    0.32
   0  -2   1    5.43    0.37
  -1   2  -1   18.08    0.68
  -1   2  -1   17.29    0.73
   1  -2   1   17.86    0.82
   1  -2   1   16.96    0.57
  -2   2  -1    6.54    0.54
  -2   2  -1    7.57    0.64
   2  -2   1    6.74    0.45
   2  -2   1    7.79    0.69
  -3   2  -1   11.78    0.95
   3  -2   1   11.25    0.99
  -4   2  -1    1.89    0.61
   4  -2   1    1.40    0.61
  -4  -1   1    0.18    0.41
  -4  -1   1   -0.16    0.43
  -3  -1   1   16.13    0.97
  -3  -1   1   14.11    0.91
  -3  -1   1   14.11    0.87
  -3  -1   1   15.21    0.99
  -2  -1   1   62.03    1.61
  -2  -1   1   61.32    1.59
  -2  -1   1   62.46    1.70
  -2  -1   1   61.10    1.72
  -1  -1   1   82.95    1.79
  -1  -1   1   86.05    1.66
  -1  -1   1   84.28    1.76
   0   1  -1   41.66    0.98
   0   1  -1   39.82    0.84
   0  -1   1   42.09    0.96
   0  -1   1   42.61    0.83
  -1   1  -1  316.72    6.04
  -1   1  -1  321.69    5.90
   1  -1   1  335.51    6.26
   1  -1   1  335.35    5.52
  -2   1  -1   71.62    1.92
  -2   1  -1   76.00    2.04
   2  -1   1   77.28    1.75
   2  -1   1   74.61    2.14
  -3   1  -1   51.15    1.88
  -3   1  -1   49.99    1.74
   3  -1   1   53.34    2.01
  -4   1  -1   11.04    1.25
   4  -1   1   10.78    1.30
  -4   0   1    5.08    0.83
  -4   0   1    5.13    0.92
   3   0  -1   22.15    1.12
  -3   0   1   22.18    1.16
  -3   0   1   22.15    1.08
  -3   0   1   23.77    1.27
  -2   0   1  162.12    3.35
  -2   0   1  153.26    3.36
  -2   0   1  160.33    3.57
  -2   0   1  161.34    3.21
  -1   0   1  133.62    2.63
  -1   0   1  133.89    2.74
  -1   0   1  132.12    2.54
  -1   0   1  136.94    2.51
  -1   0  -1  114.23    2.37
  -1   0  -1  111.24    2.28
  -1   0  -1  115.21    2.06
  -1   0  -1  112.26    2.34
  -2   0  -1  117.10    2.35
  -2   0  -1  113.12    2.64
  -2   0  -1  108.44    2.63
  -2   0  -1  113.46    2.72
  -3   0  -1   28.46    1.29
  -3   0  -1   32.68    1.39
   3   0   1   28.63    1.39
   3   0   1   28.73    1.19
  -4   0  -1    2.55    0.67
   4   0   1    2.65    0.66
   4  -1  -1    6.21    1.01
  -4   1   1    6.41    0.95
   3  -1  -1   48.44    1.64
  -3   1   1   49.13    1.80
  -3   1   1   50.12    1.96
   2  -1  -1   52.35    1.45
  -2   1   1   52.08    1.55
  -2   1   1   50.77    1.68
  -2   1   1   52.38    1.39
   1  -1  -1   60.00    1.35
  -1   1   1   58.16    1.40
  -1   1   1   60.71    1.54
   0  -1  -1   64.49    1.27
   0   1   1   65.17    1.31
  -1  -1  -1   73.58    1.74
  -1  -1  -1   77.43    1.64
  -1  -1  -1   78.44    1.56
  -1  -1  -1   73.17    1.56
   1   1   1   76.99    1.61
  -2  -1  -1    6.68    0.55
  -2  -1  -1    7.41    0.48
  -2  -1  -1    7.18    0.52
  -2  -1  -1    7.54    0.57
  -3  -1  -1   -0.03    0.33
  -3  -1  -1    0.28    0.29
  -3  -1  -1    0.33    0.34
  -3  -1  -1   -0.20    0.27
  -4  -1  -1    3.15    0.70
  -4  -1  -1    1.74    0.59
   4   1   1    1.84    0.60
   4  -2  -1    1.38    0.61
  -4   2   1    1.30    0.57
   3  -2  -1    0.00    0.29
  -3   2   1   -0.02    0.30
   2  -2  -1    5.59    0.57
  -2   2   1    5.32    0.67
  -2   2   1    4.96    0.58
   1  -2  -1   37.64    1.03
  -1   2   1   35.96    1.12
  -1   2   1   38.15    1.23
   0  -2  -1   15.46    0.52
   0  -2  -1   14.90    0.56
   0   2   1   15.41    0.59
   0   2   1   14.77    0.54
  -1  -2  -1  324.98    5.68
  -1  -2  -1  323.10    5.75
  -1  -2  -1  319.72    6.14
   1   2   1  321.68    5.69
  -2  -2  -1   46.81    1.54
  -2  -2  -1   46.75    1.36
  -2  -2  -1   45.75    1.28
   2   2   1   48.96    1.36
  -3  -2  -1   22.54    1.11
  -3  -2  -1   24.27    1.12
  -3  -2  -1   23.77    1.26
   3   2   1   25.35    1.14
  -4  -2  -1   11.91    1.25
   4   2   1   13.87    1.08
   4  -3  -1    7.32    1.25
  -4   3   1    8.53    1.14
   3  -3  -1   19.30    1.33
  -3   3   1   22.86    1.32
   2  -3  -1   34.67    1.20
   2  -3  -1   35.54    1.52
  -2   3   1   34.68    1.40
   1  -3  -1   71.44    1.74
   1  -3  -1   71.19    1.99
  -1   3   1   71.32    1.88
   0  -3  -1  158.66    3.29
   0  -3  -1  158.57    3.20
   0   3   1  163.90    3.27
   0   3   1  162.28    3.32
  -1  -3  -1   26.57    0.67
  -1  -3  -1   25.82    0.93
   1   3   1   26.14    0.87
  -2  -3  -1   57.97    1.67
  -2  -3  -1   58.44    1.45
  -2  -3  -1   59.92    1.88
   2   3   1   61.56    1.60
  -3  -3  -1   17.12    1.00
  -3  -3  -1   16.83    1.13
   3   3   1   18.39    0.96
  -4  -3  -1   14.04    1.07
  -4  -3  -1   13.95    1.43
   4  -4  -1    4.71    1.02
  -4   4   1    7.78    1.20
   3  -4  -1   23.53    1.53
  -3   4   1   24.94    1.47
   2  -4  -1   39.23    1.37
   2  -4  -1   40.18    1.76
  -2   4   1   42.07    1.64
   1  -4  -1   95.23    2.29
   1  -4  -1   92.94    2.59
  -1   4   1  100.24    2.50
   0  -4  -1   84.22    2.10
   0  -4  -1   86.81    2.12
   0   4   1   84.30    2.11
   0   4   1   83.63    2.10
  -1  -4  -1   72.51    1.91
  -1  -4  -1   70.94    1.60
   1   4   1   68.62    1.84
   1   4   1   68.76    2.06
  -2  -4  -1    2.73    0.52
   2   4   1    1.72    0.34
  -3  -4  -1    6.83    0.95
  -3  -4  -1    4.88    0.69
   3   4   1    5.38    0.64
  -4  -4  -1    4.32    0.84
   3  -5  -1    1.22    0.55
  -3   5   1    0.54    0.54
   2  -5  -1   22.56    1.36
  -2   5   1   23.83    1.33
   1  -5  -1   18.91    0.93
   1  -5  -1   18.47    1.07
  -1   5   1   18.98    1.06
   0  -5  -1    1.90    0.40
   0  -5  -1    2.79    0.45
   0   5   1    2.89    0.49
   0   5   1    3.78    0.53
  -1  -5  -1   14.90    0.90
  -1  -5  -1   15.00    0.70
   1   5   1   15.21    1.00
   1   5   1   16.85    0.91
  -2  -5  -1    4.66    0.67
   2   5   1    4.00    0.76
   2   5   1    4.38    0.58
  -3  -5  -1    5.44    0.79
   3   5   1    2.88    0.73
  -4  -5  -1    4.12    0.80
   4   5   1    5.76    1.20
   3  -6  -1    0.83    0.58
  -3   6   1    0.94    0.60
   2  -6  -1   11.17    1.30
  -2   6   1   12.66    1.08
   1  -6  -1   18.71    1.17
   1  -6  -1   19.19    1.05
  -1   6   1   20.16    1.22
   0  -6  -1   20.08    1.04
   0  -6  -1   20.82    1.11
   0   6   1   19.40    1.08
   0   6   1   19.52    1.06
  -1  -6  -1   44.48    1.69
   1   6   1   44.94    1.82
   1   6   1   42.84    1.59
  -2  -6  -1   38.31    1.66
   2   6   1   40.66    1.60
   2   6   1   40.03    1.89
  -3  -6  -1   22.44    1.37
   3   6   1   25.18    1.73
  -4  -6  -1    3.96    0.85
   4   6   1    6.04    1.25
   2  -7  -1   24.45    1.58
  -2   7   1   22.17    1.50
   1  -7  -1   46.34    1.80
   1  -7  -1   45.05    1.97
  -1   7   1   47.83    2.00
   0  -7  -1   67.23    2.23
   0  -7  -1   64.90    2.24
   0   7   1   65.69    2.20
  -1  -7  -1   14.94    1.08
   1   7   1   14.21    1.01
   1   7   1   15.06    1.17
  -2  -7  -1   64.18    2.35
   2   7   1   68.11    2.67
  -3  -7  -1    7.73    1.10
   3   7   1    7.84    1.23
  -4  -7  -1    1.02    0.66
   4   7   1    0.83    0.86
   2  -8  -1    6.22    1.09
  -2   8   1    6.91    1.09
   1  -8  -1    6.18    0.93
  -1   8   1    6.09    0.97
   0  -8  -1    1.11    0.50
   0   8   1    1.02    0.49
  -1  -8  -1    3.46    0.70
   1   8   1    4.54    0.82
   1   8   1    4.15    0.70
  -2  -8  -1    0.47    0.48
   2   8   1    0.06    0.63
  -3  -8  -1    0.72    0.61
   3   8   1    0.65    0.71
  -1   9   1   -0.16    0.51
   0  -9  -1    5.69    0.95
   0   9   1    5.98    0.91
  -1  -9  -1    5.87    0.97
  -2  -9  -1    1.71    0.68
   2   9   1    1.64    0.77
  -3  -9  -1    4.15    1.04
   3   9   1    5.58    1.33
  -1 -10  -1    3.74    0.89
   2   9  -2    0.20    0.72
  -2  -9   2    0.86    0.57
   1   9  -2    7.77    1.16
  -1  -9   2    5.26    0.95
   3   8  -2    6.42    1.16
  -3  -8   2    5.48    1.02
   2   8  -2    9.87    1.31
  -2  -8   2   10.28    1.21
   1   8  -2   11.07    1.28
  -1  -8   2    9.48    1.06
  -1   8  -2   10.35    1.14
   1  -8   2    9.21    1.18
   4   7  -2    6.53    1.36
  -4  -7   2    5.56    1.07
   3   7  -2    7.39    1.28
  -3  -7   2    5.71    0.94
   2   7  -2    8.66    1.14
  -2  -7   2    7.58    0.97
   1   7  -2   15.95    1.24
  -1  -7   2   12.25    0.98
   0   7  -2    3.08    0.59
   0   7  -2    2.41    0.58
   0  -7   2    1.65    0.47
   0  -7   2    1.71    0.58
  -1   7  -2    7.42    0.95
   1  -7   2    7.80    1.03
  -2   7  -2    2.10    0.67
   2  -7   2    1.28    0.55
   4   6  -2    8.12    1.40
  -4  -6   2    6.31    0.97
   3   6  -2    0.34    0.53
  -3  -6   2    0.10    0.40
   2   6  -2    7.28    1.02
  -2  -6   2    6.88    0.81
   1   6  -2    0.77    0.32
   1   6  -2    0.82    0.47
  -1  -6   2    0.67    0.36
  -1  -6   2    1.23    0.45
   0   6  -2    2.33    0.48
   0   6  -2    2.17    0.54
   0  -6   2    3.22    0.62
   0  -6   2    2.50    0.49
  -1   6  -2    0.68    0.38
   1  -6   2    0.42    0.34
  -2   6  -2    5.12    0.88
   2  -6   2    2.11    0.66
  -3   6  -2    2.59    0.75
   3  -6   2    3.15    0.84
   4   5  -2    0.60    0.73
  -4  -5   2    0.82    0.58
   3   5  -2    0.66    0.55
  -3  -5   2    0.66    0.48
   2   5  -2    8.74    1.03
  -2  -5   2    6.66    0.76
   1   5  -2   47.55    1.40
   1   5  -2   46.48    1.81
  -1  -5   2   51.01    1.64
  -1  -5   2   46.25    1.57
   0   5  -2   37.77    1.33
   0   5  -2   39.36    1.49
   0  -5   2   37.71    1.49
   0  -5   2   38.62    1.32
  -1   5  -2   22.23    1.13
  -1   5  -2   21.62    1.10
   1  -5   2   21.46    1.23
  -2   5  -2   14.11    1.06
   2  -5   2   17.48    1.23
  -3   5  -2   17.26    1.63
   3  -5   2   16.83    1.43
   4   4  -2   14.72    1.60
  -4  -4   2   11.60    1.21
   3   4  -2   26.88    1.58
  -3  -4   2   27.59    1.36
   2   4  -2  113.40    3.19
  -2  -4   2  113.51    2.64
  -2  -4   2  110.17    2.79
   1   4  -2  140.15    2.83
   1   4  -2  138.38    3.46
  -1  -4   2  136.18    3.10
  -1  -4   2  140.97    3.07
   0   4  -2  243.48    4.70
   0   4  -2  241.40    5.09
   0  -4   2  245.04    5.12
   0  -4   2  242.47    4.62
  -1   4  -2    8.69    0.69
  -1   4  -2    9.25    0.73
   1  -4   2    9.85    0.56
   1  -4   2   10.10    0.78
  -2   4  -2   29.57    1.40
   2  -4   2   31.30    1.56
  -3   4  -2    2.09    0.61
   3  -4   2    1.68    0.60
  -4   4  -2   -0.47    0.46
   4  -4   2   -0.20    0.48
   4   3  -2   11.77    1.42
  -4  -3   2    9.47    1.12
   3   3  -2   39.18    1.84
  -3  -3   2   38.52    1.48
  -3  -3   2   39.17    1.57
   2   3  -2   30.16    0.89
   2   3  -2   31.84    1.40
  -2  -3   2   31.60    1.21
  -2  -3   2   32.73    1.10
   1   3  -2  133.11    3.17
   1   3  -2  130.55    2.57
  -1  -3   2  134.10    2.84
  -1  -3   2  134.76    2.81
   0   3  -2   15.35    0.62
   0   3  -2   15.16    0.74
   0  -3   2   14.42    0.60
   0  -3   2   15.21    0.73
  -1   3  -2   14.65    0.75
  -1   3  -2   14.94    0.78
   1  -3   2   14.56    0.58
   1  -3   2   14.74    0.85
  -2   3  -2    0.22    0.27
  -2   3  -2    0.10    0.23
   2  -3   2    0.41    0.30
  -3   3  -2   -0.06    0.32
   3  -3   2    0.34    0.38
  -4   3  -2    2.09    0.71
   4  -3   2    2.08    0.74
   4   2  -2    0.39    0.57
  -4  -2   2    0.74    0.49
   3   2  -2    2.95    0.66
  -3  -2   2    2.80    0.46
  -3  -2   2    3.63    0.61
  -3  -2   2    3.18    0.57
   2   2  -2   26.90    1.21
   2   2  -2   27.65    0.86
  -2  -2   2   32.58    1.13
  -2  -2   2   29.15    1.05
   1   2  -2   41.55    1.32
   1   2  -2   39.06    0.88
  -1  -2   2   42.62    1.14
  -1  -2   2   42.30    1.11
   0   2  -2   24.25    0.70
   0   2  -2   23.84    0.86
   0  -2   2   26.10    0.86
   0  -2   2   25.29    0.70
  -1   2  -2   66.44    1.69
  -1   2  -2   69.19    1.73
   1  -2   2   67.10    1.87
  -2   2  -2    9.18    0.70
  -2   2  -2    8.84    0.64
   2  -2   2    8.15    0.45
   2  -2   2    9.94    0.77
  -3   2  -2   10.78    0.93
   3  -2   2   11.47    0.98
  -4   2  -2    0.45    0.51
   4  -2   2    1.16    0.58
   4   1  -2    4.99    0.83
  -4  -1   2    5.72    0.95
  -3  -1   2   27.58    1.22
  -3  -1   2   26.96    1.32
  -3  -1   2   28.12    1.20
  -2  -1   2   72.67    1.93
  -2  -1   2   70.54    1.83
  -2  -1   2   72.04    1.72
   1   1  -2   94.10    2.13
  -1  -1   2   93.68    1.72
  -1  -1   2   92.25    2.01
  -1  -1   2   90.88    1.92
   0   1  -2  558.07    9.49
   0   1  -2  560.74   10.17
   0  -1   2  578.73    9.25
   0  -1   2  569.51   10.15
  -1   1  -2  200.95    3.87
  -1   1  -2  196.50    3.98
   1  -1   2  207.43    4.12
  -2   1  -2   92.54    2.35
  -2   1  -2   94.99    2.41
   2  -1   2   96.35    2.55
   2  -1   2   91.75    1.96
  -3   1  -2   27.39    1.36
  -3   1  -2   27.80    1.29
   3  -1   2   26.21    1.39
  -4   1  -2    4.00    0.79
   4  -1   2    6.57    1.05
  -4   0   2    7.00    0.91
  -4   0   2    8.41    1.17
   3   0  -2   27.94    1.30
  -3   0   2   28.27    1.29
  -3   0   2   31.28    1.26
  -3   0   2   30.64    1.45
  -2   0   2  110.41    2.48
  -2   0   2  108.96    2.69
  -2   0   2  108.50    2.48
  -2   0   2  111.19    2.45
   1   0  -2   55.47    1.28
  -1   0   2   55.86    1.26
  -1   0   2   49.69    1.17
  -1   0   2   55.29    1.37
   0   0  -2  116.79    2.08
   0   0  -2  123.36    2.32
   0   0   2  120.37    2.27
  -1   0  -2  933.81   16.35
  -1   0  -2  955.85   17.17
  -1   0  -2  979.02   15.83
   1   0   2 1000.00   17.16
  -2   0  -2    2.44    0.39
  -2   0  -2    2.76    0.42
  -2   0  -2    3.65    0.34
   2   0   2    2.51    0.40
  -3   0  -2   10.87    0.87
  -3   0  -2   11.96    0.89
   3   0   2   14.53    0.98
  -4   0  -2    2.48    0.63
   4   0   2    4.13    0.84
  -4   1   2   12.12    1.39
  -4   1   2   11.83    1.21
   3  -1  -2   18.00    1.01
  -3   1   2   18.54    1.08
  -3   1   2   18.66    1.22
   2  -1  -2   15.83    0.77
  -2   1   2   15.57    0.90
  -2   1   2   15.27    0.79
   1  -1  -2    1.48    0.27
  -1   1   2    1.32    0.28
  -1   1   2    0.78    0.20
   0  -1  -2   11.77    0.42
   0  -1  -2   11.74    0.36
   0   1   2   12.38    0.37
   0   1   2   11.82    0.43
  -1  -1  -2    7.03    0.44
  -1  -1  -2    7.43    0.36
   1   1   2    7.86    0.42
   1   1   2    7.04    0.33
  -2  -1  -2    9.15    0.61
  -2  -1  -2    8.44    0.56
  -2  -1  -2    9.03    0.52
  -2  -1  -2    9.00    0.64
  -3  -1  -2   13.49    0.79
  -3  -1  -2   13.23    0.95
  -3  -1  -2   12.02    0.89
   3   1   2   13.78    0.90
  -4  -1  -2   10.06    1.12
  -4  -1  -2   13.31    1.17
   4   1   2   12.53    1.11
   4  -2  -2    0.34    0.44
  -4   2   2   -0.14    0.40
   3  -2  -2   -0.19    0.27
  -3   2   2    0.02    0.31
  -3   2   2    0.74    0.48
   2  -2  -2   29.70    1.10
  -2   2   2   30.21    1.20
  -2   2   2   31.80    1.37
   1  -2  -2  210.58    3.92
  -1   2   2  209.46    4.31
  -1   2   2  204.82    4.05
   0  -2  -2   76.58    1.71
   0  -2  -2   79.02    1.64
   0   2   2   80.68    1.68
   0   2   2   80.04    1.79
  -1  -2  -2  280.83    5.53
  -1  -2  -2  289.73    5.11
   1   2   2  288.58    5.18
  -2  -2  -2  122.61    3.00
  -2  -2  -2  124.17    2.67
  -2  -2  -2  124.93    2.66
   2   2   2  124.08    2.75
  -3  -2  -2   33.96    1.34
  -3  -2  -2   34.00    1.30
  -3  -2  -2   36.21    1.58
   3   2   2   35.26    1.41
  -4  -2  -2   12.17    1.26
   4   2   2   10.70    1.05
   4  -3  -2    9.39    1.37
  -4   3   2    8.42    1.12
   3  -3  -2   37.14    1.84
  -3   3   2   40.03    1.74
   2  -3  -2   63.72    1.81
   2  -3  -2   66.28    2.19
  -2   3   2   64.71    2.17
  -2   3   2   61.54    1.96
   1  -3  -2  191.59    3.81
   1  -3  -2  192.73    4.20
  -1   3   2  193.99    4.21
  -1   3   2  195.77    4.01
   0  -3  -2  169.48    3.45
   0  -3  -2  176.27    3.51
   0   3   2  175.06    3.55
   0   3   2  179.53    3.52
  -1  -3  -2  123.06    2.64
  -1  -3  -2  120.89    2.76
   1   3   2  119.31    2.57
  -2  -3  -2   39.79    1.32
  -2  -3  -2   40.41    1.06
  -2  -3  -2   39.69    1.49
   2   3   2   41.14    1.29
  -3  -3  -2   15.62    1.09
  -3  -3  -2   12.58    0.88
   3   3   2   13.53    0.88
  -4  -3  -2    7.22    1.04
  -4  -3  -2    6.84    0.87
   4   3   2    5.81    0.79
   4  -4  -2    7.96    1.32
  -4   4   2    8.96    1.24
   3  -4  -2   16.12    1.29
  -3   4   2   16.28    1.22
   2  -4  -2   15.09    1.05
   2  -4  -2   14.61    0.83
  -2   4   2   12.94    0.93
   1  -4  -2   62.24    1.96
   1  -4  -2   65.10    1.79
  -1   4   2   65.13    1.92
   0  -4  -2    4.21    0.56
   0  -4  -2    4.59    0.47
   0   4   2    5.58    0.59
   0   4   2    4.96    0.50
  -1  -4  -2    3.06    0.49
  -1  -4  -2    3.84    0.26
   1   4   2    3.44    0.52
   1   4   2    3.91    0.48
  -2  -4  -2   14.78    0.95
  -2  -4  -2   15.40    0.90
   2   4   2   15.44    0.81
  -3  -4  -2    0.30    0.37
  -3  -4  -2    0.45    0.42
   3   4   2    0.01    0.29
  -4  -4  -2   -0.46    0.45
  -4  -4  -2    0.24    0.45
   3  -5  -2    0.34    0.43
  -3   5   2    0.89    0.51
   2  -5  -2    3.16    0.68
   2  -5  -2    1.77    0.43
  -2   5   2    2.28    0.58
   1  -5  -2   -0.06    0.21
   1  -5  -2    0.17    0.27
  -1   5   2    0.68    0.35
   0  -5  -2   25.32    1.13
   0  -5  -2   25.87    1.04
   0   5   2   25.67    1.15
   0   5   2   25.75    1.06
  -1  -5  -2   15.39    0.94
   1   5   2   17.11    0.96
   1   5   2   17.62    1.03
  -2  -5  -2    9.58    0.91
   2   5   2   10.32    1.09
   2   5   2    8.99    0.78
  -3  -5  -2    4.97    0.75
   3   5   2    4.66    0.65
  -4  -5  -2    5.48    0.92
   4   5   2    8.10    1.26
   3  -6  -2   11.63    1.47
  -3   6   2   10.73    1.36
   2  -6  -2   -0.05    0.28
  -2   6   2    0.19    0.37
   1  -6  -2   48.02    1.73
   1  -6  -2   50.77    1.92
  -1   6   2   45.72    1.83
   0  -6  -2   77.96    2.25
   0  -6  -2   80.42    2.35
   0   6   2   77.61    2.32
   0   6   2   77.07    2.23
  -1  -6  -2   63.80    2.12
   1   6   2   60.39    1.99
   1   6   2   62.53    2.17
  -2  -6  -2   36.90    1.64
   2   6   2   37.70    1.84
   2   6   2   37.29    1.57
  -3  -6  -2   24.83    1.42
   3   6   2   24.48    1.74
  -4  -6  -2    5.11    0.92
   4   6   2    6.28    1.27
   2  -7  -2   15.48    1.30
  -2   7   2   14.94    1.45
   1  -7  -2   10.77    1.15
   1  -7  -2   10.49    1.08
  -1   7   2    9.76    1.05
   0  -7  -2   68.69    2.29
   0   7   2   66.67    2.28
  -1  -7  -2   29.31    1.47
   1   7   2   25.72    1.33
   1   7   2   24.50    1.48
  -2  -7  -2   13.63    1.10
   2   7   2   15.11    1.33
   2   7   2   13.64    1.12
  -3  -7  -2    3.87    0.79
   3   7   2    4.59    0.97
  -4  -7  -2    0.35    0.63
   4   7   2    0.00    0.76
   2  -8  -2    1.96    0.68
  -2   8   2    2.42    0.78
   1  -8  -2    1.68    0.56
  -1   8   2    0.67    0.56
   0  -8  -2    0.25    0.42
   0   8   2    0.31    0.42
  -1  -8  -2    0.25    0.41
   1   8   2    1.06    0.56
   1   8   2    0.60    0.49
  -2  -8  -2   -0.02    0.45
   2   8   2   -0.09    0.56
  -3  -8  -2    3.58    0.85
   3   8   2    4.76    1.16
  -1   9   2    4.84    0.96
   0  -9  -2    4.66    0.90
   0   9   2    3.18    0.76
  -1  -9  -2    9.71    1.21
  -2  -9  -2    3.12    0.84
   2   9   2    4.63    0.99
  -3  -9  -2    2.80    0.85
   3   9   2    5.64    1.22
  -1 -10  -2    5.23    1.04
  -2 -10  -2    6.09    1.13
   2   9  -3    0.85    0.76
  -2  -9   3    0.99    0.60
   1   9  -3    7.36    1.24
  -1  -9   3    6.91    1.08
   3   8  -3   16.03    1.72
   2   8  -3   14.02    1.53
  -2  -8   3   10.47    1.25
   1   8  -3   27.70    1.70
  -1  -8   3   24.47    1.46
   0  -8   3   12.44    1.42
  -1   8  -3    7.52    1.02
   1  -8   3    6.18    1.05
   4   7  -3    4.35    1.32
  -4  -7   3    4.13    0.91
   3   7  -3    8.44    1.25
  -3  -7   3    8.64    1.13
   2   7  -3    5.10    0.96
  -2  -7   3    3.46    0.71
   1   7  -3   23.99    1.53
  -1  -7   3   22.76    1.30
   0   7  -3   10.17    1.16
   0   7  -3    9.01    0.86
   0  -7   3    9.75    1.16
  -1   7  -3    1.65    0.51
   1  -7   3    0.27    0.39
  -2   7  -3    0.90    0.56
   2  -7   3    0.41    0.43
   4   6  -3    0.57    0.83
  -4  -6   3   -0.43    0.47
   3   6  -3    0.37    0.60
  -3  -6   3    1.59    0.60
   2   6  -3    1.00    0.55
  -2  -6   3    1.20    0.45
   1   6  -3   -0.20    0.38
  -1  -6   3   -0.04    0.31
  -1  -6   3    0.10    0.36
   0   6  -3    4.09    0.58
   0   6  -3    4.32    0.71
   0  -6   3    2.73    0.58
   0  -6   3    2.78    0.51
  -1   6  -3    3.16    0.59
   1  -6   3    2.99    0.67
  -2   6  -3   10.70    1.20
   2  -6   3    6.36    1.03
  -3   6  -3    3.75    0.87
   3  -6   3    3.76    0.94
   4   5  -3    0.41    0.76
  -4  -5   3    0.73    0.55
   3   5  -3   59.53    2.53
  -3  -5   3   62.78    2.24
   2   5  -3   22.22    1.43
  -2  -5   3   20.33    1.15
  -2  -5   3   23.27    1.07
   1   5  -3   44.11    1.77
   1   5  -3   42.70    1.27
  -1  -5   3   44.22    1.54
  -1  -5   3   43.23    1.56
   0   5  -3   81.96    2.16
   0   5  -3   85.34    2.47
   0  -5   3   83.95    2.52
   0  -5   3   86.25    2.17
  -1   5  -3   46.51    1.78
  -1   5  -3   50.29    1.74
   1  -5   3   46.31    1.88
  -2   5  -3   16.78    1.15
   2  -5   3   18.41    1.30
  -3   5  -3   17.14    1.65
   3  -5   3   15.10    1.68
   4   4  -3   13.23    1.53
  -4  -4   3   11.92    1.34
   3   4  -3   13.12    1.19
  -3  -4   3   13.76    1.02
   2   4  -3  135.89    3.73
  -2  -4   3  144.85    3.33
  -2  -4   3  141.44    3.24
   1   4  -3   74.27    2.28
   1   4  -3   72.61    1.66
  -1  -4   3   75.38    1.97
  -1  -4   3   76.55    2.04
   0   4  -3  106.73    2.39
   0   4  -3  102.05    2.68
   0  -4   3  104.28    2.34
   0  -4   3  107.34    2.75
  -1   4  -3   50.28    1.71
  -1   4  -3   50.10    1.61
   1  -4   3   51.66    1.85
   1  -4   3   47.35    1.30
  -2   4  -3   28.79    1.37
   2  -4   3   30.20    1.53
  -3   4  -3    2.37    0.67
   3  -4   3    2.10    0.71
   4   3  -3    2.41    0.82
  -4  -3   3    1.75    0.62
   3   3  -3   13.93    1.16
  -3  -3   3   14.70    1.02
  -3  -3   3   16.54    1.00
   2   3  -3    1.78    0.22
   2   3  -3    1.96    0.49
  -2  -3   3    2.36    0.43
  -2  -3   3    2.82    0.43
   1   3  -3    0.62    0.29
   1   3  -3    0.32    0.13
  -1  -3   3    0.78    0.25
  -1  -3   3    0.09    0.20
   0   3  -3    0.35    0.25
   0   3  -3    0.25    0.16
   0  -3   3    0.27    0.23
   0  -3   3    0.17    0.17
  -1   3  -3   29.31    1.09
  -1   3  -3   29.61    1.17
   1  -3   3   29.18    1.25
  -2   3  -3    0.98    0.35
  -2   3  -3    0.51    0.30
   2  -3   3    0.33    0.33
  -3   3  -3    2.51    0.63
   3  -3   3    1.65    0.54
  -4   3  -3    4.29    0.94
   4  -3   3    3.85    0.94
   4   2  -3    0.74    0.55
  -4  -2   3    0.78    0.50
  -4  -2   3    0.27    0.46
   3   2  -3    5.19    0.79
  -3  -2   3    5.76    0.75
  -3  -2   3    5.35    0.74
   2   2  -3   28.59    0.80
   2   2  -3   27.93    1.23
  -2  -2   3   27.79    1.10
  -2  -2   3   26.80    1.06
   1   2  -3  309.42    6.19
  -1  -2   3  315.15    5.95
  -1  -2   3  310.70    5.60
   0   2  -3  170.38    3.67
   0   2  -3  176.96    3.26
   0  -2   3  183.68    3.20
   0  -2   3  177.09    3.67
  -1   2  -3  145.76    3.09
  -1   2  -3  147.12    3.26
   1  -2   3  149.11    3.37
  -2   2  -3   68.36    1.99
  -2   2  -3   64.17    2.00
   2  -2   3   70.34    2.21
  -3   2  -3   28.89    1.46
   3  -2   3   27.23    1.51
  -4   2  -3    4.57    0.90
   4  -2   3    6.52    1.11
   4   1  -3   13.34    1.35
  -4  -1   3   13.28    1.20
   3   1  -3    4.79    0.74
  -3  -1   3    4.85    0.60
  -3  -1   3    5.72    0.71
  -3  -1   3    4.43    0.69
   2   1  -3  176.33    3.95
  -2  -1   3  180.18    3.48
  -2  -1   3  177.69    3.68
  -2  -1   3  179.33    3.91
   1   1  -3   86.55    2.05
  -1  -1   3   86.20    1.87
  -1  -1   3   86.73    1.97
   0   1  -3  118.39    2.19
   0   1  -3  118.04    2.55
   0  -1   3  120.46    2.51
   0  -1   3  118.62    2.12
  -1   1  -3   59.30    1.57
  -1   1  -3   60.29    1.51
   1  -1   3   58.19    1.60
  -2   1  -3   70.62    2.02
  -2   1  -3   70.85    2.00
   2  -1   3   69.89    2.10
  -3   1  -3   20.53    1.20
  -3   1  -3   19.90    1.13
   3  -1   3   20.67    1.24
  -4   1  -3    5.08    0.93
   4  -1   3    7.86    1.12
   4   0  -3    9.02    1.11
  -4   0   3   11.23    1.32
   3   0  -3   19.80    1.08
   3   0  -3   18.52    1.08
  -3   0   3   17.00    1.00
  -3   0   3   18.74    1.17
   2   0  -3   51.97    1.49
  -2   0   3   51.04    1.46
  -2   0   3   50.40    1.62
  -2   0   3   49.26    1.40
   1   0  -3   95.00    2.00
  -1   0   3   89.62    1.82
  -1   0   3   94.63    2.11
  -1   0   3   93.30    1.95
   0   0  -3   11.47    0.38
   0   0  -3   12.04    0.47
   0   0   3   11.52    0.43
   0   0   3   11.77    0.36
  -1   0  -3    1.50    0.27
  -1   0  -3    1.89    0.29
   1   0   3    2.02    0.29
  -2   0  -3    0.32    0.24
  -2   0  -3    0.12    0.14
  -2   0  -3   -0.07    0.18
   2   0   3    0.79    0.28
  -3   0  -3    0.44    0.37
  -3   0  -3    0.10    0.32
   3   0   3   -0.06    0.31
  -4   0  -3   -0.54    0.37
   4   0   3   -0.23    0.39
  -4   1   3    3.84    0.91
  -4   1   3    2.34    0.66
   3  -1  -3    3.16    0.57
  -3   1   3    1.95    0.49
  -3   1   3    2.24    0.61
   2  -1  -3   32.27    1.18
  -2   1   3   34.67    1.34
  -2   1   3   32.22    1.15
   1  -1  -3   10.30    0.53
  -1   1   3   10.26    0.57
  -1   1   3   10.16    0.50
   0  -1  -3    2.15    0.21
   0  -1  -3    2.62    0.26
   0   1   3    2.36    0.22
   0   1   3    2.32    0.26
  -1  -1  -3    2.87    0.26
  -1  -1  -3    1.89    0.30
   1   1   3    1.97    0.27
   1   1   3    2.55    0.24
  -2  -1  -3  239.10    5.11
  -2  -1  -3  254.26    4.48
  -2  -1  -3  234.20    4.87
   2   1   3  245.26    4.91
  -3  -1  -3   10.25    0.71
  -3  -1  -3    7.01    0.80
  -3  -1  -3    9.37    0.86
   3   1   3    9.08    0.77
  -4  -1  -3   10.94    1.18
  -4  -1  -3   11.85    1.27
   4  -2  -3    1.41    0.62
  -4   2   3    0.08    0.44
   3  -2  -3   19.47    1.10
  -3   2   3   20.46    1.17
  -3   2   3   21.74    1.39
   2  -2  -3   15.69    0.84
  -2   2   3   17.17    1.02
  -2   2   3   17.98    0.92
   1  -2  -3   74.77    1.81
  -1   2   3   75.59    1.85
  -1   2   3   79.76    2.00
   0  -2  -3   63.04    1.50
   0  -2  -3   62.96    1.36
   0   2   3   63.39    1.56
   0   2   3   63.02    1.40
  -1  -2  -3  184.53    3.51
  -1  -2  -3  185.19    3.82
   1   2   3  186.41    3.59
  -2  -2  -3  104.57    2.28
  -2  -2  -3  100.87    2.65
   2   2   3   99.89    2.25
   2   2   3  104.60    2.45
  -3  -2  -3   33.41    1.25
  -3  -2  -3   36.58    1.60
   3   2   3   33.10    1.30
   3   2   3   31.82    1.38
  -4  -2  -3    5.66    0.92
   4   2   3    4.80    0.75
   4  -3  -3   10.68    1.42
  -4   3   3   10.54    1.32
   3  -3  -3   41.40    1.61
  -3   3   3   43.74    1.83
  -3   3   3   39.20    1.92
   2  -3  -3  155.78    3.45
  -2   3   3  158.06    3.65
  -2   3   3  152.46    3.91
   1  -3  -3  112.41    2.54
  -1   3   3  113.78    2.80
  -1   3   3  116.96    2.69
   0  -3  -3  228.15    4.41
   0   3   3  229.65    4.53
   0   3   3  233.52    4.45
   0   3   3  227.69    4.42
  -1  -3  -3   85.41    2.04
  -1  -3  -3   85.09    2.12
   1   3   3   83.43    2.01
  -2  -3  -3   17.16    0.98
  -2  -3  -3   18.20    0.86
   2   3   3   18.02    0.87
   2   3   3   18.47    0.60
  -3  -3  -3    0.00    0.32
  -3  -3  -3    1.02    0.46
   3   3   3    0.13    0.30
  -4  -3  -3    0.95    0.62
   4   3   3    0.86    0.45
   4  -4  -3    2.89    0.92
  -4   4   3    5.76    1.03
   3  -4  -3   13.69    1.19
  -3   4   3   14.10    1.13
   2  -4  -3    9.72    1.02
   2  -4  -3    8.14    0.70
  -2   4   3    9.16    0.93
   1  -4  -3   36.74    1.31
   1  -4  -3   36.05    1.39
  -1   4   3   37.30    1.38
   0  -4  -3    2.48    0.34
   0  -4  -3    2.29    0.40
   0   4   3    3.30    0.50
   0   4   3    1.86    0.31
  -1  -4  -3   21.69    0.98
  -1  -4  -3   20.37    0.93
   1   4   3   22.43    0.98
  -2  -4  -3    1.25    0.40
  -2  -4  -3    1.52    0.41
   2   4   3    1.89    0.39
  -3  -4  -3    5.32    0.70
  -3  -4  -3    6.00    0.89
   3   4   3    4.45    0.64
  -4  -4  -3   -0.07    0.46
  -4  -4  -3    0.56    0.46
   4   4   3    0.14    0.41
   3  -5  -3    0.64    0.47
  -3   5   3    1.15    0.52
   2  -5  -3   36.21    1.48
   2  -5  -3   37.14    1.76
  -2   5   3   38.79    1.69
   1  -5  -3    6.26    0.78
   1  -5  -3    5.89    0.72
  -1   5   3    5.33    0.70
   0  -5  -3   28.04    1.20
   0  -5  -3   26.74    1.04
   0   5   3   25.78    1.19
   0   5   3   23.80    1.03
  -1  -5  -3   39.71    1.51
   1   5   3   37.90    1.53
   1   5   3   39.08    1.49
  -2  -5  -3    5.14    0.73
  -2  -5  -3    6.57    0.78
   2   5   3    5.40    0.67
  -3  -5  -3   19.99    1.39
  -3  -5  -3   18.41    1.16
   3   5   3   20.62    1.16
  -4  -5  -3    4.61    0.87
  -4  -5  -3    3.73    0.91
   3  -6  -3    6.28    1.13
  -3   6   3    6.66    1.03
   2  -6  -3   21.60    1.41
  -2   6   3   20.70    1.36
   1  -6  -3   58.60    2.07
   1  -6  -3   54.77    1.90
  -1   6   3   54.43    2.02
   0  -6  -3   66.69    2.13
   0  -6  -3   65.67    1.98
   0   6   3   66.27    2.01
   0   6   3   68.31    2.15
  -1  -6  -3   36.72    1.58
   1   6   3   36.29    1.55
   1   6   3   35.47    1.57
  -2  -6  -3   47.32    1.87
   2   6   3   46.99    1.82
   2   6   3   44.70    2.04
  -3  -6  -3   23.23    1.39
   3   6   3   24.31    1.58
   3   6   3   24.53    1.68
  -4  -6  -3    5.11    0.96
   4   6   3    4.01    1.10
   2  -7  -3   11.09    1.31
  -2   7   3    9.18    1.17
   1  -7  -3   24.84    1.40
   1  -7  -3   25.09    1.35
  -1   7   3   26.00    1.48
   0  -7  -3   37.55    1.67
   0   7   3   40.89    1.72
  -1  -7  -3    8.89    1.01
   1   7   3    7.51    0.92
   1   7   3    8.68    0.92
  -2  -7  -3    2.29    0.61
   2   7   3    1.24    0.60
   2   7   3    2.12    0.71
  -3  -7  -3   10.46    1.28
   3   7   3    9.17    1.34
  -4  -7  -3    0.55    0.60
   4   7   3   -0.70    0.75
   2  -8  -3    0.07    0.42
  -2   8   3    0.33    0.57
   1  -8  -3    1.59    0.56
  -1   8   3    4.06    0.80
   0  -8  -3    1.17    0.51
   0   8   3    1.18    0.54
  -1  -8  -3    5.95    0.93
   1   8   3    7.80    0.97
   1   8   3    8.53    1.07
  -2  -8  -3    5.17    0.94
   2   8   3    4.43    0.93
  -3  -8  -3    4.06    0.89
   3   8   3    2.79    0.93
  -1   9   3   16.17    1.57
   0  -9  -3    4.47    0.90
   0   9   3    5.89    0.95
  -1  -9  -3   26.49    1.66
   1   9   3   31.29    1.72
  -2  -9  -3    8.95    1.23
   2   9   3    8.84    1.35
  -3  -9  -3    4.96    1.04
   3   9   3    8.03    1.42
   0 -10  -3   10.80    1.34
   0  10   3   12.62    1.34
  -1 -10  -3    4.09    0.82
  -2 -10  -3    0.71    0.69
   2   9  -4    7.10    1.25
  -2  -9   4    5.69    0.99
   1   9  -4   10.44    1.37
   3   8  -4    5.45    1.15
  -3  -8   4    5.48    1.03
   2   8  -4   16.05    1.64
  -2  -8   4   16.16    1.32
   1   8  -4   12.76    1.42
  -1  -8   4   13.72    1.12
   0  -8   4    7.92    1.14
  -1   8  -4    4.83    0.87
   1  -8   4    3.91    0.89
  -4  -7   4    1.16    0.68
   3   7  -4   10.89    1.39
  -3  -7   4    8.80    1.13
   2   7  -4    0.11    0.57
  -2  -7   4   -0.40    0.34
   1   7  -4    1.10    0.59
  -1  -7   4    1.48    0.48
   0   7  -4    0.38    0.43
   0  -7   4   -0.16    0.42
  -1   7  -4    0.27    0.40
   1  -7   4    0.24    0.38
  -2   7  -4    0.42    0.54
   2  -7   4    0.80    0.50
   4   6  -4    0.00    0.87
  -4  -6   4   -0.40    0.49
   3   6  -4    0.06    0.50
  -3  -6   4    0.36    0.44
   2   6  -4   15.29    1.29
  -2  -6   4   15.24    1.09
   1   6  -4    8.44    1.01
  -1  -6   4    7.00    0.83
  -1  -6   4    8.33    0.93
   0   6  -4   25.39    1.14
   0   6  -4   22.45    1.33
   0  -6   4   25.01    1.43
   0  -6   4   24.17    1.12
  -1   6  -4   22.00    1.30
  -1   6  -4   23.26    1.24
   1  -6   4   20.87    1.37
  -2   6  -4    1.93    0.60
   2  -6   4    1.64    0.59
  -3   6  -4    4.66    0.98
   3  -6   4    2.99    0.86
   4   5  -4    6.97    1.27
  -4  -5   4    7.52    1.13
   3   5  -4   15.01    1.37
  -3  -5   4   14.99    1.13
   2   5  -4   18.84    1.29
  -2  -5   4   16.56    1.05
  -2  -5   4   18.93    1.02
   1   5  -4   42.23    1.79
  -1  -5   4   42.88    1.63
  -1  -5   4   41.99    1.49
   0   5  -4   89.22    2.62
   0   5  -4   85.82    2.20
   0  -5   4   88.46    2.20
   0  -5   4   84.97    2.64
  -1   5  -4   33.48    1.51
  -1   5  -4   33.80    1.40
   1  -5   4   33.07    1.59
  -2   5  -4   11.76    1.15
   2  -5   4    8.91    1.08
  -3   5  -4    5.77    1.02
   3  -5   4    5.05    0.97
   4   4  -4    9.55    1.39
  -4  -4   4    9.49    1.21
   3   4  -4   23.17    1.53
  -3  -4   4   23.23    1.27
  -3  -4   4   21.29    1.27
   2   4  -4   17.84    1.22
  -2  -4   4   16.19    0.98
  -2  -4   4   17.20    0.91
   1   4  -4   40.77    1.05
   1   4  -4   43.43    1.66
  -1  -4   4   42.45    1.49
  -1  -4   4   42.73    1.39
   0   4  -4   77.93    1.89
   0   4  -4   76.19    2.26
   0  -4   4   76.47    1.87
   0  -4   4   79.76    2.32
  -1   4  -4   19.78    1.09
  -1   4  -4   19.85    0.98
   1  -4   4   21.99    1.18
  -2   4  -4    1.38    0.46
  -2   4  -4    1.23    0.45
   2  -4   4    0.73    0.42
  -3   4  -4    1.17    0.53
   3  -4   4    1.28    0.58
   4   3  -4    1.68    0.78
  -4  -3   4    3.28    0.78
   3   3  -4    7.49    0.98
  -3  -3   4    7.06    0.86
  -3  -3   4    8.44    0.92
   2   3  -4    2.07    0.51
  -2  -3   4    2.30    0.44
  -2  -3   4    2.27    0.48
   1   3  -4    0.12    0.10
   1   3  -4    0.40    0.30
  -1  -3   4   -0.05    0.16
  -1  -3   4    0.45    0.21
   0   3  -4    4.10    0.57
   0   3  -4    3.62    0.36
   0  -3   4    3.60    0.36
   0  -3   4    3.64    0.53
  -1   3  -4   28.63    1.08
  -1   3  -4   25.68    1.16
   1  -3   4   26.51    1.22
  -2   3  -4   18.37    1.04
  -2   3  -4   20.21    1.10
   2  -3   4   20.09    1.19
  -3   3  -4    7.35    0.98
   3  -3   4    6.11    0.96
  -4   3  -4    4.87    0.98
   4  -3   4    8.20    1.25
  -4  -2   4    2.26    0.69
  -4  -2   4    1.91    0.66
   3   2  -4   27.48    1.44
  -3  -2   4   27.52    1.33
  -3  -2   4   29.48    1.39
   2   2  -4    5.21    0.31
   2   2  -4    4.86    0.68
  -2  -2   4    4.51    0.57
  -2  -2   4    4.65    0.57
   1   2  -4  247.23    5.15
  -1  -2   4  254.88    4.98
  -1  -2   4  247.59    4.64
   0   2  -4   64.76    1.45
   0   2  -4   65.29    1.82
   0  -2   4   68.17    1.81
   0  -2   4   68.99    1.43
  -1   2  -4  204.72    4.37
  -1   2  -4  199.93    4.09
   1  -2   4  209.26    4.46
  -2   2  -4   37.44    1.44
  -2   2  -4   35.69    1.41
   2  -2   4   37.89    1.56
  -3   2  -4   26.62    1.43
   3  -2   4   26.48    1.50
  -4   2  -4    4.48    0.91
   4  -2   4    5.39    1.02
   4   1  -4   33.27    1.74
  -4  -1   4   31.90    1.75
   3   1  -4   39.46    1.63
  -3  -1   4   39.75    1.54
  -3  -1   4   39.46    1.65
   2   1  -4  215.74    4.64
  -2  -1   4  219.91    4.07
  -2  -1   4  215.12    4.63
  -2  -1   4  214.02    4.35
   1   1  -4   52.49    1.49
  -1  -1   4   53.77    1.37
  -1  -1   4   56.39    1.47
   0   1  -4  104.36    2.01
   0   1  -4  101.35    2.38
   0  -1   4  105.82    1.95
   0  -1   4  107.39    2.34
  -1   1  -4  100.42    2.40
  -1   1  -4   99.33    2.26
   1  -1   4  100.18    2.40
  -2   1  -4   15.09    0.88
  -2   1  -4   15.83    0.89
   2  -1   4   15.23    0.91
  -3   1  -4    2.37    0.62
  -3   1  -4    3.48    0.62
   3  -1   4    2.81    0.61
  -4   1  -4    0.06    0.49
   4  -1   4    0.51    0.52
   4   0  -4   10.94    1.23
  -4   0   4   10.71    1.28
   3   0  -4   24.38    1.26
  -3   0   4   23.60    1.31
  -3   0   4   22.80    1.11
   2   0  -4   45.44    1.38
   2   0  -4   45.36    1.49
  -2   0   4   42.71    1.26
  -2   0   4   43.07    1.51
   1   0  -4   69.52    1.68
   1   0  -4   68.90    1.58
  -1   0   4   63.23    1.39
  -1   0   4   69.55    1.71
   0   0  -4   15.34    0.50
   0   0  -4   15.11    0.62
   0   0   4   15.33    0.48
   0   0   4   14.98    0.57
  -1   0  -4    6.77    0.48
  -1   0  -4    7.01    0.47
   1   0   4    7.69    0.46
  -2   0  -4   37.94    1.39
  -2   0  -4   36.50    1.35
   2   0   4   38.14    1.34
  -3   0  -4   19.86    1.18
  -3   0  -4   19.92    1.19
   3   0   4   17.34    1.08
  -4   0  -4    0.31    0.48
   4   0   4    1.71    0.57
   4  -1  -4   -0.19    0.39
  -4   1   4    0.28    0.59
   3  -1  -4    0.40    0.37
  -3   1   4    0.35    0.35
  -3   1   4    0.14    0.44
   2  -1  -4    1.52    0.39
  -2   1   4    1.24    0.31
  -2   1   4    0.97    0.36
   1  -1  -4   55.46    1.44
  -1   1   4   53.81    1.35
  -1   1   4   54.31    1.51
   0  -1  -4   57.84    1.32
   0  -1  -4   56.41    1.31
   0   1   4   59.23    1.33
   0   1   4   61.23    1.33
  -1  -1  -4    2.62    0.26
  -1  -1  -4    2.25    0.36
   1   1   4    1.88    0.24
   1   1   4    1.59    0.27
  -2  -1  -4   56.92    1.73
  -2  -1  -4   55.47    1.78
  -2  -1  -4   57.67    1.37
   2   1   4   54.73    1.57
  -3  -1  -4    7.03    0.90
  -3  -1  -4    6.66    0.81
   3   1   4    7.37    0.81
  -4  -1  -4   15.80    1.29
  -4  -1  -4   11.56    1.26
  -4   2   4    4.58    0.97
  -4   2   4    5.38    0.89
   3  -2  -4   33.51    1.50
  -3   2   4   36.10    1.57
  -3   2   4   40.01    1.83
   2  -2  -4   25.88    1.11
  -2   2   4   25.34    1.10
  -2   2   4   24.76    1.23
   1  -2  -4  439.98    7.97
  -1   2   4  457.11    8.58
  -1   2   4  458.61    8.15
   0  -2  -4  393.35    6.93
   0  -2  -4  402.50    7.16
   0   2   4  402.83    7.20
   0   2   4  382.41    7.09
  -1  -2  -4  160.64    3.46
  -1  -2  -4  164.42    3.18
   1   2   4  162.89    3.28
  -2  -2  -4  114.00    2.93
  -2  -2  -4  114.76    2.47
   2   2   4  114.52    2.48
   2   2   4  114.99    2.72
  -3  -2  -4   29.22    1.47
  -3  -2  -4   28.10    1.14
   3   2   4   28.71    1.33
  -4  -2  -4    2.48    0.78
   4   2   4    2.81    0.66
   4  -3  -4    4.91    0.95
  -4   3   4    6.74    1.11
   3  -3  -4   24.52    1.27
  -3   3   4   25.75    1.39
  -3   3   4   24.69    1.55
   2  -3  -4   87.15    2.36
  -2   3   4   90.60    2.71
  -2   3   4   91.56    2.51
   1  -3  -4   94.20    2.29
  -1   3   4   97.24    2.40
  -1   3   4   95.47    2.46
   0  -3  -4  298.16    5.59
   0  -3  -4  299.53    5.59
   0   3   4  298.70    5.75
   0   3   4  304.49    5.67
  -1  -3  -4   48.24    1.47
  -1  -3  -4   50.67    1.47
   1   3   4   50.34    1.46
  -2  -3  -4   66.18    1.80
  -2  -3  -4   66.27    2.07
   2   3   4   66.98    1.89
  -3  -3  -4    1.39    0.42
  -3  -3  -4    1.73    0.58
   3   3   4    1.19    0.40
  -4  -3  -4    0.61    0.57
   4   3   4    0.67    0.46
   4  -4  -4    2.84    0.87
  -4   4   4    4.54    0.94
   3  -4  -4    7.85    1.10
  -3   4   4    7.60    0.99
   2  -4  -4    3.97    0.63
  -2   4   4    3.14    0.59
  -2   4   4    2.74    0.61
   1  -4  -4   -0.14    0.21
  -1   4   4    0.03    0.26
  -1   4   4    0.18    0.31
   0  -4  -4   26.26    0.91
   0  -4  -4   26.67    1.08
   0   4   4   26.74    1.14
   0   4   4   24.94    0.92
  -1  -4  -4   24.88    1.09
  -1  -4  -4   25.25    1.04
  -2  -4  -4   34.54    1.47
  -2  -4  -4   33.42    1.32
   2   4   4   33.76    1.32
  -3  -4  -4    0.74    0.41
  -3  -4  -4    1.29    0.53
   3   4   4    0.92    0.40
  -4  -4  -4    6.90    1.11
   4   4   4    5.01    0.79
   3  -5  -4    5.27    0.97
  -3   5   4    4.91    0.93
   2  -5  -4    8.08    0.88
   2  -5  -4   11.00    0.95
  -2   5   4   10.13    1.04
   1  -5  -4   88.01    2.56
   1  -5  -4   88.68    2.45
  -1   5   4   87.75    2.55
   0  -5  -4   55.24    1.79
   0  -5  -4   52.39    1.56
   0   5   4   51.47    1.56
   0   5   4   52.47    1.80
  -1  -5  -4  177.08    4.03
   1   5   4  176.66    4.05
  -2  -5  -4   45.21    1.71
  -2  -5  -4   46.32    1.81
   2   5   4   49.39    1.76
  -3  -5  -4   26.62    1.55
  -3  -5  -4   25.29    1.32
   3   5   4   25.35    1.34
  -4  -5  -4    1.74    0.64
  -4  -5  -4    1.99    0.79
   3  -6  -4    5.04    1.01
  -3   6   4    7.01    1.07
   2  -6  -4   43.00    1.75
   2  -6  -4   42.51    1.98
  -2   6   4   43.59    1.96
   1  -6  -4    2.44    0.53
   1  -6  -4    2.53    0.53
  -1   6   4    1.83    0.51
   0  -6  -4   97.80    2.75
   0  -6  -4   92.02    2.49
   0   6   4   95.83    2.74
  -1  -6  -4   41.71    1.69
   1   6   4   40.49    1.67
   1   6   4   37.11    1.65
  -2  -6  -4   24.41    1.34
   2   6   4   24.53    1.48
   2   6   4   26.39    1.40
  -3  -6  -4    9.74    1.09
  -3  -6  -4    9.02    1.11
   3   6   4    8.82    1.01
  -4  -6  -4    3.65    0.82
   2  -7  -4    4.97    0.94
  -2   7   4    2.24    0.69
   1  -7  -4    5.27    0.80
   1  -7  -4    5.42    0.81
  -1   7   4    4.43    0.76
   0  -7  -4   -0.18    0.27
   0   7   4   -0.02    0.40
  -1  -7  -4    7.22    0.98
   1   7   4    7.66    0.91
   1   7   4    8.24    0.96
  -2  -7  -4    0.32    0.46
   2   7   4   -0.19    0.46
   2   7   4   -0.07    0.48
  -3  -7  -4   -0.46    0.47
   3   7   4    0.22    0.66
  -4  -7  -4    0.72    0.69
   4   7   4    0.12    0.86
   2  -8  -4   -0.14    0.39
  -2   8   4    0.47    0.58
   1  -8  -4    0.07    0.37
  -1   8   4    0.79    0.57
   0  -8  -4    2.69    0.65
   0   8   4    1.73    0.60
  -1  -8  -4    8.28    1.08
   1   8   4    8.21    1.04
  -2  -8  -4   12.04    1.34
   2   8   4   14.43    1.45
   2   8   4   16.50    1.36
  -3  -8  -4    0.77    0.69
   3   8   4    1.35    0.82
  -1   9   4   10.07    1.25
   0  -9  -4   12.21    1.30
   0   9   4   14.04    1.37
  -1  -9  -4   13.71    1.41
   1   9   4   16.78    1.33
  -2  -9  -4    5.92    1.05
   2   9   4    7.02    1.13
  -3  -9  -4    3.23    0.90
   3   9   4    6.55    1.33
   0 -10  -4    4.23    0.93
   0  10   4    5.23    0.93
  -1 -10  -4    1.75    0.76
  -2 -10  -4    1.18    0.66
   2   9  -5    3.64    1.06
  -2  -9   5    3.41    0.83
   1   9  -5    9.10    1.31
   3   8  -5    5.05    1.16
  -3  -8   5    6.08    1.10
   2   8  -5   21.00    1.77
  -2  -8   5   17.40    1.36
   1   8  -5    6.75    1.11
  -1  -8   5    7.32    1.09
   0   8  -5   15.06    1.38
   0  -8   5   17.15    1.46
   1  -8   5    0.60    0.66
   3   7  -5    3.59    0.94
  -3  -7   5    3.56    0.89
   2   7  -5   -0.18    0.55
  -2  -7   5    0.55    0.45
   1   7  -5   -0.68    0.43
  -1  -7   5    0.58    0.39
  -1  -7   5   -0.18    0.43
   0   7  -5   -0.01    0.44
   0  -7   5   -0.01    0.43
  -1   7  -5    0.41    0.41
   1  -7   5    0.27    0.40
  -2   7  -5    8.64    1.12
   2  -7   5    8.24    1.27
   4   6  -5    1.62    0.89
  -4  -6   5    0.09    0.48
   3   6  -5   20.24    1.61
  -3  -6   5   17.42    1.29
   2   6  -5   28.77    1.73
  -2  -6   5   30.28    1.49
   1   6  -5   40.16    1.87
  -1  -6   5   38.81    1.55
  -1  -6   5   36.75    1.71
   0   6  -5   18.93    1.27
   0  -6   5   19.25    1.31
  -1   6  -5   30.22    1.45
  -1   6  -5   28.57    1.52
   1  -6   5   30.03    1.67
  -2   6  -5    2.81    0.69
   2  -6   5    2.23    0.67
   4   5  -5   11.53    1.55
  -4  -5   5    6.84    1.03
   3   5  -5    6.69    1.04
  -3  -5   5    5.06    0.82
   2   5  -5  149.63    4.16
  -2  -5   5  145.12    3.64
  -2  -5   5  151.84    3.72
   1   5  -5   13.30    1.09
  -1  -5   5   13.31    0.96
  -1  -5   5   12.97    0.85
   0   5  -5   49.90    1.95
   0   5  -5   51.47    1.54
   0  -5   5   53.60    2.03
   0  -5   5   49.86    1.54
  -1   5  -5   31.78    1.51
  -1   5  -5   31.10    1.36
   1  -5   5   29.50    1.56
  -2   5  -5    9.77    1.06
   2  -5   5    8.99    1.07
  -3   5  -5    3.97    0.82
   3  -5   5    3.26    0.87
   4   4  -5    4.50    1.03
  -4  -4   5    2.91    0.79
   3   4  -5   13.35    1.37
  -3  -4   5   13.31    0.98
  -3  -4   5   12.57    1.02
   2   4  -5    2.47    0.58
  -2  -4   5    1.16    0.41
  -2  -4   5    1.35    0.42
   1   4  -5   36.17    1.57
  -1  -4   5   36.57    1.30
  -1  -4   5   37.54    1.45
   0   4  -5    2.24    0.35
   0   4  -5    3.06    0.59
   0  -4   5    2.52    0.53
   0  -4   5    2.41    0.37
  -1   4  -5    0.35    0.27
  -1   4  -5    0.19    0.29
   1  -4   5    0.35    0.31
  -2   4  -5    0.15    0.34
  -2   4  -5    0.11    0.33
   2  -4   5   -0.23    0.24
  -3   4  -5   -0.03    0.41
   3  -4   5    0.06    0.45
   4   3  -5    0.23    0.63
  -4  -3   5   -0.18    0.40
   3   3  -5    0.56    0.51
  -3  -3   5    1.09    0.44
  -3  -3   5    0.41    0.43
   2   3  -5    0.73    0.41
  -2  -3   5    0.34    0.32
  -2  -3   5    0.01    0.24
   1   3  -5   31.29    1.33
  -1  -3   5   31.45    1.22
  -1  -3   5   31.88    1.11
   0   3  -5   46.42    1.62
   0   3  -5   46.76    1.23
   0  -3   5   47.13    1.62
   0  -3   5   46.67    1.21
  -1   3  -5   37.67    1.49
  -1   3  -5   39.54    1.35
   1  -3   5   41.62    1.59
  -2   3  -5   74.07    2.34
  -2   3  -5   71.34    2.25
   2  -3   5   74.46    2.51
  -3   3  -5    5.08    0.83
   3  -3   5    4.45    0.84
  -4   3  -5   10.19    1.31
   4  -3   5   11.39    1.49
  -4  -2   5    7.74    1.06
  -4  -2   5    8.36    1.11
   3   2  -5   24.94    1.41
  -3  -2   5   27.84    1.33
  -3  -2   5   23.23    1.29
   2   2  -5   46.07    1.71
  -2  -2   5   45.47    1.53
  -2  -2   5   46.54    1.56
   1   2  -5  176.36    3.94
  -1  -2   5  176.49    3.82
  -1  -2   5  181.34    3.54
   0   2  -5  198.49    3.65
   0   2  -5  195.07    4.25
   0  -2   5  192.76    3.52
   0  -2   5  197.42    4.20
  -1   2  -5  166.15    3.85
  -1   2  -5  171.71    3.57
   1  -2   5  173.13    3.89
  -2   2  -5   27.87    1.28
  -2   2  -5   27.72    1.25
   2  -2   5   28.46    1.37
  -3   2  -5   28.19    1.48
  -3   2  -5   26.25    1.45
   3  -2   5   26.12    1.50
  -4   2  -5    4.68    0.96
   4  -2   5    4.37    0.94
   4   1  -5   27.58    1.63
  -4  -1   5   29.39    1.71
   3   1  -5   39.01    1.64
  -3  -1   5   42.46    1.74
  -3  -1   5   38.24    1.56
   2   1  -5   43.21    1.52
  -2  -1   5   43.79    1.53
  -2  -1   5   46.31    1.15
   1   1  -5  251.73    5.12
  -1  -1   5  261.55    5.14
  -1  -1   5  254.59    4.74
   0   1  -5   62.46    1.34
   0   1  -5   58.66    1.67
   0  -1   5   61.75    1.62
   0  -1   5   59.75    1.28
  -1   1  -5    2.55    0.41
  -1   1  -5    3.06    0.38
   1  -1   5    3.72    0.47
  -2   1  -5    2.02    0.47
  -2   1  -5    1.47    0.38
   2  -1   5    1.86    0.45
  -3   1  -5    0.36    0.37
  -3   1  -5    0.31    0.35
   3  -1   5   -0.01    0.36
  -4   1  -5    0.24    0.49
   4  -1   5   -0.42    0.43
   4   0  -5    4.85    0.85
  -4   0   5    5.22    1.00
   3   0  -5    4.09    0.70
  -3   0   5    5.26    0.78
  -3   0   5    3.68    0.56
   2   0  -5    0.18    0.28
   2   0  -5    0.24    0.27
  -2   0   5    0.73    0.23
  -2   0   5    0.43    0.31
   1   0  -5   16.25    0.66
   1   0  -5   16.08    0.73
  -1   0   5   16.60    0.75
  -1   0   5   15.24    0.53
   0   0  -5   14.99    0.54
   0   0  -5   14.62    0.66
   0   0   5   15.39    0.64
   0   0   5   15.92    0.53
  -1   0  -5    2.20    0.35
  -1   0  -5    3.35    0.41
   1   0   5    3.08    0.38
  -2   0  -5   60.44    1.86
  -2   0  -5   59.36    1.92
   2   0   5   61.96    1.83
  -3   0  -5    4.50    0.72
  -3   0  -5    3.74    0.65
   3   0   5    4.97    0.74
  -4   0  -5    4.94    0.88
  -4   0  -5    7.60    1.09
   4   0   5    5.46    0.89
   4  -1  -5    2.82    0.70
  -4   1   5    2.82    0.79
   3  -1  -5   23.31    1.27
  -3   1   5   24.30    1.22
  -3   1   5   26.62    1.45
   2  -1  -5   29.68    1.22
  -2   1   5   29.55    1.30
  -2   1   5   30.39    1.10
   1  -1  -5   61.91    1.62
  -1   1   5   64.32    1.70
  -1   1   5   59.01    1.49
   0  -1  -5   67.04    1.58
   0  -1  -5   66.01    1.54
   0   1   5   69.11    1.56
   0   1   5   71.97    1.60
  -1  -1  -5   61.28    1.33
  -1  -1  -5   60.38    1.65
   1   1   5   60.12    1.43
   1   1   5   58.03    1.54
  -2  -1  -5   13.06    0.56
  -2  -1  -5   12.92    0.80
  -2  -1  -5   13.38    0.85
   2   1   5   11.89    0.67
  -3  -1  -5   74.98    2.44
  -3  -1  -5   80.13    2.59
   3   1   5   78.08    2.32
  -4  -1  -5    0.66    0.53
  -4  -1  -5    0.80    0.45
  -4   2   5    1.65    0.79
   3  -2  -5   28.02    1.39
  -3   2   5   29.54    1.42
  -3   2   5   27.72    1.57
   2  -2  -5  111.74    2.82
  -2   2   5  110.78    2.76
  -2   2   5  116.28    3.07
   1  -2  -5   75.04    1.93
  -1   2   5   78.39    2.05
  -1   2   5   77.87    1.94
   0  -2  -5  192.73    3.68
   0  -2  -5  186.46    3.68
   0   2   5  183.64    3.76
   0   2   5  195.61    3.71
  -1  -2  -5   66.89    1.78
  -1  -2  -5   63.38    1.58
   1   2   5   64.99    1.37
   1   2   5   64.74    1.67
  -2  -2  -5   84.99    2.40
  -2  -2  -5   83.16    1.93
   2   2   5   80.44    1.91
   2   2   5   80.24    2.19
  -3  -2  -5   16.06    1.15
   3   2   5   16.66    1.06
  -4  -2  -5    3.42    0.87
   4   2   5    3.09    0.66
  -4   3   5    1.16    0.61
  -4   3   5    1.95    0.82
   3  -3  -5   21.65    1.22
  -3   3   5   20.79    1.47
  -3   3   5   23.85    1.33
   2  -3  -5   29.01    1.26
  -2   3   5   29.33    1.44
  -2   3   5   30.06    1.32
   1  -3  -5  109.80    2.64
  -1   3   5  111.24    2.78
  -1   3   5  114.01    2.70
   0  -3  -5   15.59    0.77
   0  -3  -5   15.63    0.59
   0   3   5   15.67    0.83
   0   3   5   16.16    0.65
  -1  -3  -5   11.12    0.66
  -1  -3  -5   11.55    0.68
   1   3   5   11.36    0.68
  -2  -3  -5   16.91    0.84
  -2  -3  -5   17.68    1.02
   2   3   5   15.28    0.90
  -3  -3  -5    2.62    0.63
  -3  -3  -5    3.45    0.57
   3   3   5    2.62    0.51
  -4  -3  -5    0.01    0.52
   4   3   5    0.17    0.42
   4  -4  -5    1.32    0.68
  -4   4   5    1.19    0.66
   3  -4  -5    3.63    0.73
  -3   4   5    4.56    0.80
  -3   4   5    2.88    0.76
   2  -4  -5    0.72    0.33
  -2   4   5    0.12    0.34
  -2   4   5    0.44    0.45
   1  -4  -5    8.74    0.88
  -1   4   5    8.12    0.82
  -1   4   5    6.86    0.76
   0  -4  -5   33.68    1.28
   0   4   5   34.01    1.34
   0   4   5   33.40    1.10
  -1  -4  -5   50.27    1.59
  -1  -4  -5   49.54    1.63
   1   4   5   52.22    1.67
  -2  -4  -5   28.46    1.21
  -2  -4  -5   28.91    1.37
   2   4   5   26.27    1.22
  -3  -4  -5   23.25    1.18
  -3  -4  -5   24.27    1.45
   3   4   5   21.74    1.23
  -4  -4  -5    8.51    1.21
   4   4   5    9.39    1.07
   3  -5  -5    5.93    1.02
  -3   5   5    6.48    0.99
   2  -5  -5   21.17    1.32
   2  -5  -5   23.15    1.23
  -2   5   5   22.78    1.34
   1  -5  -5  141.13    3.43
   1  -5  -5  138.51    3.56
  -1   5   5  142.94    3.57
   0  -5  -5   31.38    1.13
   0  -5  -5   34.34    1.39
   0   5   5   31.34    1.14
   0   5   5   32.33    1.41
  -1  -5  -5  102.98    2.80
  -1  -5  -5  103.54    2.70
   1   5   5  106.89    2.85
  -2  -5  -5   29.92    1.37
  -2  -5  -5   29.27    1.42
   2   5   5   28.35    1.40
  -3  -5  -5   18.73    1.36
  -3  -5  -5   17.95    1.16
   3   5   5   18.81    1.22
  -4  -5  -5    6.53    1.12
  -4  -5  -5    5.65    0.99
   4   5   5    4.38    0.84
   3  -6  -5    9.64    1.32
  -3   6   5   11.20    1.36
   2  -6  -5   38.80    1.70
   2  -6  -5   40.87    1.94
  -2   6   5   38.10    1.86
   1  -6  -5   27.38    1.36
   1  -6  -5   25.36    1.32
  -1   6   5   27.51    1.43
   0  -6  -5   58.68    2.06
   0   6   5   57.54    2.07
  -1  -6  -5    8.47    1.00
   1   6   5    7.46    0.90
   1   6   5    8.79    0.93
  -2  -6  -5    2.59    0.62
  -2  -6  -5    3.20    0.65
   2   6   5    2.74    0.66
  -3  -6  -5    3.06    0.76
  -3  -6  -5    1.93    0.65
   3   6   5    3.09    0.75
  -4  -6  -5    1.66    0.71
  -4  -6  -5    0.82    0.77
   2  -7  -5    5.39    1.01
  -2   7   5    4.65    0.90
   1  -7  -5    1.51    0.49
   1  -7  -5    0.95    0.43
  -1   7   5    1.89    0.57
   0  -7  -5    5.68    0.85
   0   7   5    5.90    0.88
  -1  -7  -5    1.34    0.49
   1   7   5    1.31    0.56
   1   7   5    0.77    0.49
  -2  -7  -5    5.22    0.87
   2   7   5    5.36    0.94
   2   7   5    7.96    1.07
  -3  -7  -5    2.14    0.72
   3   7   5    1.09    0.64
   3   7   5    2.18    0.85
  -4  -7  -5    0.92    0.68
   4   7   5    0.01    0.83
   2  -8  -5    0.87    0.54
  -2   8   5    0.80    0.61
   1  -8  -5    6.80    1.00
  -1   8   5    9.15    1.17
   0  -8  -5    1.30    0.53
   0   8   5    0.73    0.56
  -1  -8  -5   13.14    1.32
   1   8   5   14.61    1.25
  -2  -8  -5   16.68    1.33
   2   8   5   16.88    1.55
   2   8   5   15.19    1.52
  -3  -8  -5    3.85    0.90
   3   8   5    5.04    1.19
   1  -9  -5   17.44    1.74
  -1   9   5   14.97    1.54
   0  -9  -5   28.77    1.73
   0   9   5   31.86    1.84
  -1  -9  -5   10.80    1.39
   1   9   5   13.49    1.39
  -2  -9  -5   16.47    1.78
   2   9   5   14.82    1.53
   2   9   5   16.68    1.67
  -3  -9  -5    3.75    1.07
   3   9   5    3.16    1.09
   0 -10  -5    4.96    0.99
   0  10   5    4.20    0.89
  -1 -10  -5    2.53    0.77
   1  10   5    3.89    0.91
  -2 -10  -5    0.67    0.64
   1   9  -6   14.38    1.67
   3   8  -6    7.00    1.39
  -3  -8   6    4.47    0.95
   2   8  -6    0.74    0.75
  -2  -8   6    1.87    0.65
   1   8  -6    5.26    1.01
   0   8  -6    2.01    0.77
   0  -8   6    2.32    0.82
   1  -8   6   -0.03    0.59
   3   7  -6   -0.44    0.63
  -3  -7   6   -0.48    0.43
   2   7  -6    0.08    0.55
  -2  -7   6   -0.32    0.39
   1   7  -6   11.65    1.35
  -1  -7   6   11.01    1.30
  -1  -7   6   10.08    1.07
   0   7  -6    9.16    1.18
   0  -7   6    8.03    1.13
   1  -7   6    8.02    1.19
  -2   7  -6    7.38    1.12
   2  -7   6    4.95    1.08
   4   6  -6    3.88    1.08
  -4  -6   6    1.36    0.66
   3   6  -6    7.21    1.19
  -3  -6   6    6.83    0.95
   2   6  -6   15.25    1.37
  -2  -6   6   14.03    1.13
  -2  -6   6   13.30    1.07
   1   6  -6   50.73    2.17
  -1  -6   6   50.95    1.83
  -1  -6   6   54.80    2.15
   0   6  -6   22.87    1.45
   0  -6   6   24.82    1.51
  -1   6  -6   43.56    1.77
  -1   6  -6   46.56    1.97
   1  -6   6   44.35    2.11
  -2   6  -6   10.73    1.22
   2  -6   6    8.80    1.27
   4   5  -6   16.49    1.77
  -4  -5   6   11.04    1.27
   3   5  -6   16.21    1.42
  -3  -5   6   11.95    1.27
   2   5  -6   25.82    1.57
  -2  -5   6   28.46    1.37
  -2  -5   6   25.96    1.33
   1   5  -6    2.76    0.64
  -1  -5   6    3.48    0.65
  -1  -5   6    2.84    0.53
   0   5  -6   20.90    0.94
   0   5  -6   19.51    1.27
   0  -5   6   19.95    1.29
  -1   5  -6   10.66    0.83
  -1   5  -6   12.76    1.00
   1  -5   6    8.96    1.07
  -2   5  -6    2.61    0.63
   2  -5   6    1.45    0.54
  -3   5  -6   -0.07    0.45
   3  -5   6    0.42    0.48
   4   4  -6    5.08    1.05
  -4  -4   6    3.04    0.83
   3   4  -6    7.34    1.05
  -3  -4   6    4.54    0.73
  -3  -4   6    7.20    0.93
   2   4  -6    5.51    0.82
  -2  -4   6    3.57    0.62
  -2  -4   6    3.55    0.61
   1   4  -6    6.63    0.84
  -1  -4   6    7.11    0.69
  -1  -4   6    6.49    0.76
   0   4  -6    1.35    0.46
   0   4  -6    1.24    0.30
   0  -4   6    1.38    0.46
   0  -4   6    0.96    0.28
  -1   4  -6    0.17    0.34
  -1   4  -6   -0.39    0.20
   1  -4   6    0.28    0.34
  -2   4  -6    8.46    0.99
  -2   4  -6    8.65    1.06
   2  -4   6    7.35    0.97
  -3   4  -6    1.70    0.60
   3  -4   6    2.01    0.68
   4   3  -6   -0.19    0.64
  -4  -3   6   -0.08    0.45
   3   3  -6    8.08    1.03
  -3  -3   6    5.29    0.82
  -3  -3   6    4.47    0.72
   2   3  -6    2.04    0.55
  -2  -3   6    1.35    0.42
  -2  -3   6    1.82    0.44
   1   3  -6   21.27    1.14
  -1  -3   6   22.42    1.07
  -1  -3   6   23.32    0.94
   0   3  -6   22.51    0.82
   0   3  -6   24.97    1.20
   0  -3   6   24.12    0.81
   0  -3   6   24.38    1.17
  -1   3  -6   25.15    1.06
  -1   3  -6   25.17    1.25
   1  -3   6   25.42    1.27
  -2   3  -6   30.94    1.44
  -2   3  -6   34.26    1.56
   2  -3   6   33.80    1.63
  -3   3  -6    9.75    1.11
   3  -3   6    8.05    1.10
  -4   3  -6    5.62    1.03
   4  -3   6    4.50    1.05
  -4  -2   6    6.88    1.04
  -4  -2   6   11.85    1.33
   3   2  -6   38.11    1.77
  -3  -2   6   38.03    1.61
  -3  -2   6   39.41    1.70
   2   2  -6   89.38    2.59
  -2  -2   6   93.76    2.42
  -2  -2   6   90.86    2.52
   1   2  -6   62.48    1.89
  -1  -2   6   64.80    1.66
  -1  -2   6   63.76    1.85
   0   2  -6  125.41    3.07
   0   2  -6  126.82    2.53
   0  -2   6  124.64    2.43
   0  -2   6  128.01    3.05
  -1   2  -6   47.54    1.46
  -1   2  -6   44.61    1.62
   1  -2   6   48.60    1.66
  -2   2  -6   28.03    1.30
  -2   2  -6   33.97    1.47
   2  -2   6   29.42    1.43
  -3   2  -6    1.88    0.58
  -3   2  -6    0.98    0.43
   3  -2   6    1.46    0.56
  -4   2  -6    1.97    0.73
   4  -2   6    2.02    0.72
   4   1  -6   21.07    1.48
  -4  -1   6   23.02    1.58
   3   1  -6   55.70    2.01
  -3  -1   6   51.87    2.03
  -3  -1   6   55.87    1.92
   2   1  -6   86.01    2.34
  -2  -1   6   86.46    2.41
  -2  -1   6   83.90    2.23
   1   1  -6  208.71    4.38
  -1  -1   6  209.06    4.05
  -1  -1   6  214.36    4.44
   0   1  -6   29.15    1.13
   0  -1   6   30.86    1.10
   0  -1   6   29.66    0.82
  -1   1  -6    4.54    0.59
  -1   1  -6    4.14    0.48
   1  -1   6    4.02    0.51
  -2   1  -6    5.77    0.76
  -2   1  -6    4.88    0.63
   2  -1   6    7.68    0.82
  -3   1  -6    7.58    0.99
  -3   1  -6    6.24    0.83
   3  -1   6    6.59    0.92
  -4   1  -6    0.68    0.54
   4  -1   6    0.00    0.54
   4   0  -6    8.43    1.18
  -4   0   6    6.46    1.11
   3   0  -6    0.62    0.42
  -3   0   6    0.73    0.47
   2   0  -6    4.24    0.62
   2   0  -6    4.66    0.53
  -2   0   6    4.61    0.63
  -2   0   6    4.61    0.45
   1   0  -6    3.65    0.46
   1   0  -6    3.67    0.42
  -1   0   6    4.01    0.49
  -1   0   6    3.34    0.31
   0   0  -6   93.90    1.96
   0   0  -6   91.45    2.24
   0   0   6   93.99    1.93
   0   0   6   97.71    2.21
  -1   0  -6   31.99    1.18
  -1   0  -6   31.15    1.08
   1   0   6   32.20    1.09
  -2   0  -6   23.90    1.18
  -2   0  -6   24.26    1.13
   2   0   6   24.16    1.09
  -3   0  -6    0.14    0.39
  -3   0  -6   -0.16    0.31
   3   0   6    0.28    0.37
  -4   0  -6   15.47    1.34
  -4   0  -6   15.89    1.40
   4  -1  -6   17.14    1.30
  -4   1   6   18.38    1.51
   3  -1  -6   32.10    1.52
  -3   1   6   35.80    1.45
  -3   1   6   34.23    1.71
   2  -1  -6   55.98    1.84
  -2   1   6   60.30    1.98
  -2   1   6   60.34    1.68
   1  -1  -6  214.63    4.26
  -1   1   6  210.57    4.12
  -1   1   6  221.96    4.53
   0  -1  -6  314.83    5.60
   0  -1  -6  314.27    5.95
   0   1   6  318.21    5.95
   0   1   6  306.75    5.68
  -1  -1  -6  189.06    4.06
  -1  -1  -6  194.63    3.50
   1   1   6  191.37    3.82
   1   1   6  183.77    3.79
  -2  -1  -6   16.60    0.62
  -2  -1  -6   15.50    0.96
   2   1   6   16.07    0.79
   2   1   6   16.56    0.91
  -3  -1  -6   27.15    1.47
  -3  -1  -6   25.65    1.36
   3   1   6   26.86    1.25
  -4  -1  -6    0.16    0.54
   4   1   6   -0.08    0.45
   4  -2  -6   16.29    1.25
  -4   2   6   15.37    1.72
   3  -2  -6   27.40    1.42
  -3   2   6   26.74    1.58
  -3   2   6   27.95    1.37
   2  -2  -6   78.27    2.28
  -2   2   6   80.09    2.44
  -2   2   6   79.02    2.19
   1  -2  -6   15.61    0.79
  -1   2   6   17.83    0.83
  -1   2   6   17.93    0.87
   0  -2  -6  533.26    9.28
   0  -2  -6  535.78    9.71
   0   2   6  542.76    9.75
   0   2   6  525.96    9.51
  -1  -2  -6   70.84    1.94
  -1  -2  -6   73.40    1.77
   1   2   6   70.24    1.85
   1   2   6   74.37    1.60
  -2  -2  -6   41.06    1.20
  -2  -2  -6   42.06    1.59
   2   2   6   42.69    1.48
   2   2   6   39.21    1.16
  -3  -2  -6   18.29    1.25
   3   2   6   17.27    1.12
  -4  -2  -6    0.81    0.56
   4   2   6   -0.32    0.46
  -4   3   6    2.80    0.93
  -4   3   6    2.37    0.72
   3  -3  -6    7.24    0.87
  -3   3   6    6.96    0.90
  -3   3   6    6.98    1.04
   2  -3  -6    2.06    0.48
  -2   3   6    0.95    0.40
  -2   3   6    1.51    0.49
   1  -3  -6   11.96    0.76
  -1   3   6   11.98    0.78
  -1   3   6   11.07    0.77
   0  -3  -6    0.05    0.13
   0  -3  -6    0.12    0.21
   0   3   6    0.05    0.17
   0   3   6   -0.06    0.25
  -1  -3  -6    4.94    0.57
  -1  -3  -6    4.06    0.53
   1   3   6    5.23    0.58
  -2  -3  -6    0.07    0.26
  -2  -3  -6    0.16    0.29
   2   3   6    0.33    0.31
  -3  -3  -6    0.16    0.40
  -3  -3  -6   -0.30    0.26
   3   3   6   -0.11    0.33
  -4  -3  -6    5.99    1.07
   4   3   6    4.75    0.78
   4  -4  -6    1.05    0.61
  -4   4   6    1.13    0.65
   3  -4  -6    0.66    0.43
  -3   4   6    0.31    0.51
  -3   4   6    0.92    0.53
   2  -4  -6    7.93    0.92
  -2   4   6    7.18    0.86
  -2   4   6    6.59    0.89
   1  -4  -6   55.28    1.78
  -1   4   6   51.19    1.78
  -1   4   6   53.43    1.81
   0  -4  -6   54.33    1.41
   0  -4  -6   54.53    1.72
   0   4   6   53.28    1.50
   0   4   6   52.63    1.80
  -1  -4  -6  119.77    2.98
  -1  -4  -6  124.70    3.00
   1   4   6  128.02    3.08
  -2  -4  -6   76.95    2.21
  -2  -4  -6   77.56    2.43
   2   4   6   81.10    2.33
  -3  -4  -6   34.62    1.43
  -3  -4  -6   36.23    1.79
   3   4   6   33.35    1.57
  -4  -4  -6    5.85    1.09
   4   4   6    4.69    0.82
   3  -5  -6   15.33    1.20
   3  -5  -6   15.53    1.34
  -3   5   6   15.54    1.28
   2  -5  -6   34.88    1.55
  -2   5   6   36.62    1.71
  -2   5   6   35.72    1.79
   1  -5  -6   55.88    1.94
  -1   5   6   55.55    1.97
  -1   5   6   54.79    1.95
   0  -5  -6  101.24    2.43
   0  -5  -6   99.10    2.67
   0   5   6  101.98    2.80
   0   5   6   93.29    2.39
  -1  -5  -6   74.26    2.29
  -1  -5  -6   75.61    2.17
   1   5   6   77.15    2.38
  -2  -5  -6   47.80    1.80
  -2  -5  -6   49.44    1.92
   2   5   6   51.08    1.93
  -3  -5  -6   20.31    1.25
  -3  -5  -6   21.03    1.45
   3   5   6   22.46    1.37
  -4  -5  -6    1.60    0.80
   4   5   6    2.82    0.76
   3  -6  -6    8.65    1.23
  -3   6   6   11.13    1.36
   2  -6  -6   33.28    1.75
   2  -6  -6   33.79    1.63
  -2   6   6   35.28    1.80
   1  -6  -6   31.58    1.46
   1  -6  -6   32.56    1.51
  -1   6   6   30.15    1.54
   0  -6  -6    7.54    0.88
   0   6   6    7.75    0.91
  -1  -6  -6   27.38    1.44
   1   6   6   28.85    1.56
  -2  -6  -6    0.55    0.39
  -2  -6  -6    0.19    0.42
   2   6   6   -0.19    0.46
  -3  -6  -6    0.35    0.52
  -3  -6  -6    0.25    0.47
   3   6   6    0.92    0.60
  -4  -6  -6    0.09    0.59
  -4  -6  -6   -0.16    0.55
   2  -7  -6    0.38    0.45
   2  -7  -6    0.61    0.42
  -2   7   6    0.85    0.56
   1  -7  -6    0.63    0.40
   1  -7  -6    0.48    0.36
  -1   7   6    0.01    0.40
   0  -7  -6   10.02    1.21
   0   7   6    8.73    1.03
  -1  -7  -6   10.19    1.14
   1   7   6   12.46    1.08
   1   7   6   13.05    1.28
  -2  -7  -6    3.32    0.78
   2   7   6    3.48    0.85
   2   7   6    4.65    0.93
  -3  -7  -6    2.43    0.77
   3   7   6    2.86    0.79
  -4  -7  -6    4.61    1.05
   2  -8  -6    4.29    0.91
  -2   8   6    2.87    0.87
   1  -8  -6   17.48    1.31
  -1   8   6   17.24    1.55
   0  -8  -6   13.54    1.35
   0   8   6   14.46    1.36
  -1  -8  -6   19.11    1.37
   1   8   6   18.01    1.41
  -2  -8  -6   12.54    1.35
   2   8   6   17.77    1.49
   2   8   6   15.21    1.52
  -3  -8  -6    6.04    1.07
   3   8   6    6.50    1.31
   1  -9  -6   15.07    1.55
  -1   9   6   13.93    1.48
   0  -9  -6   16.00    1.36
   0   9   6   16.33    1.40
  -1  -9  -6   13.27    1.44
   1   9   6   13.29    1.34
  -2  -9  -6    4.50    0.96
   2   9   6    7.12    1.15
   2   9   6    6.89    1.23
  -3  -9  -6    0.89    0.71
   3   9   6    0.12    0.86
  -1 -10  -6    0.36    0.64
   1  10   6   -0.44    0.55
   2   8  -7    0.84    0.79
  -2  -8   7    0.92    0.60
   1   8  -7    0.93    0.74
   0   8  -7    0.68    0.68
   0  -8   7   -0.32    0.48
   3   7  -7    0.15    0.77
  -3  -7   7    0.16    0.54
   2   7  -7    2.33    0.85
  -2  -7   7    1.47    0.58
   1   7  -7   11.40    1.34
  -1  -7   7   11.85    1.36
   0   7  -7   10.49    1.31
   0  -7   7    6.52    1.11
   1  -7   7    5.36    1.02
   4   6  -7    2.60    1.07
  -4  -6   7    1.76    0.76
   3   6  -7    9.26    1.35
  -3  -6   7    7.73    1.09
   2   6  -7   43.50    2.19
  -2  -6   7   40.09    1.86
  -2  -6   7   44.11    1.85
   1   6  -7   50.42    2.19
  -1  -6   7   49.57    2.12
  -1  -6   7   48.04    1.79
   0   6  -7   22.90    1.49
   0  -6   7   22.38    1.49
  -1   6  -7   18.38    1.32
  -1   6  -7   18.04    1.16
   1  -6   7   17.81    1.43
  -2   6  -7    7.90    1.08
   2  -6   7    4.84    0.95
   4   5  -7   10.60    1.52
  -4  -5   7    6.94    1.08
   3   5  -7   11.51    1.38
  -3  -5   7    9.17    1.05
   2   5  -7   16.48    1.31
  -2  -5   7   15.19    1.10
  -2  -5   7   14.22    1.04
   1   5  -7   70.96    2.52
  -1  -5   7   72.04    2.12
  -1  -5   7   71.09    2.45
   0   5  -7    0.47    0.42
   0  -5   7    0.00    0.38
  -1   5  -7    1.53    0.55
  -1   5  -7    1.29    0.45
   1  -5   7    1.82    0.62
  -2   5  -7    0.34    0.37
   2  -5   7   -0.26    0.38
  -3   5  -7    1.97    0.71
   3  -5   7    0.49    0.56
   4   4  -7    0.73    0.71
  -4  -4   7   -0.26    0.44
   3   4  -7    0.18    0.53
  -3  -4   7    0.28    0.43
  -3  -4   7   -0.46    0.35
   2   4  -7   -0.48    0.34
  -2  -4   7   -0.03    0.36
  -2  -4   7   -0.45    0.30
   1   4  -7   11.19    0.97
  -1  -4   7    9.47    0.85
  -1  -4   7    9.72    0.73
   0   4  -7    1.64    0.33
   0   4  -7    1.10    0.46
   0  -4   7    0.63    0.42
   0  -4   7    1.40    0.33
  -1   4  -7    8.96    0.72
  -1   4  -7   10.81    0.94
   1  -4   7    7.26    0.96
  -2   4  -7   17.40    1.26
  -2   4  -7   20.72    1.24
   2  -4   7   19.89    1.40
  -3   4  -7    2.15    0.69
   3  -4   7    1.34    0.60
  -4  -3   7    6.32    1.04
  -4  -3   7    4.72    0.88
   3   3  -7   33.40    1.73
  -3  -3   7   31.24    1.56
  -3  -3   7   32.19    1.55
   2   3  -7   32.51    1.56
  -2  -3   7   34.08    1.40
  -2  -3   7   32.27    1.43
   1   3  -7   57.32    1.94
  -1  -3   7   55.08    1.61
  -1  -3   7   53.87    1.86
   0   3  -7   52.49    1.40
   0   3  -7   51.67    1.87
   0  -3   7   52.16    1.34
   0  -3   7   54.29    1.89
  -1   3  -7   30.30    1.42
  -1   3  -7   31.00    1.22
   1  -3   7   29.57    1.43
  -2   3  -7   17.52    1.19
  -2   3  -7   16.42    1.08
   2  -3   7   17.75    1.20
  -3   3  -7   16.50    1.24
   3  -3   7   15.96    1.31
   4   2  -7    3.97    0.84
  -4  -2   7    5.06    0.95
   3   2  -7   45.97    1.90
  -3  -2   7   42.78    1.74
  -3  -2   7   44.49    1.87
   2   2  -7   62.25    2.08
  -2  -2   7   62.46    1.93
  -2  -2   7   64.78    2.09
   1   2  -7   93.64    2.52
  -1  -2   7   94.33    2.22
  -1  -2   7   92.16    2.49
   0   2  -7  112.92    2.33
   0   2  -7  108.75    2.87
   0  -2   7  110.41    2.23
   0  -2   7  110.62    2.83
  -1   2  -7   58.53    1.70
  -1   2  -7   53.22    1.88
   1  -2   7   63.86    2.00
  -2   2  -7   25.58    1.34
  -2   2  -7   23.32    1.19
   2  -2   7   25.36    1.34
  -3   2  -7    0.04    0.37
  -3   2  -7    0.47    0.51
   3  -2   7   -0.14    0.39
  -4   2  -7    1.07    0.68
   4  -2   7    0.85    0.63
   4   1  -7    2.78    0.77
  -4  -1   7    3.60    0.87
   3   1  -7   23.20    1.37
   3   1  -7   20.88    1.29
  -3  -1   7   24.03    1.37
   2   1  -7    6.15    0.70
  -2  -1   7    5.66    0.66
  -2  -1   7    5.74    0.73
   1   1  -7    3.67    0.49
  -1  -1   7    3.67    0.49
  -1  -1   7    2.95    0.21
  -1  -1   7    4.12    0.47
   0   1  -7   92.40    1.96
   0   1  -7   88.74    2.38
   0  -1   7   93.70    2.35
   0  -1   7   88.52    1.91
  -1   1  -7    2.45    0.40
  -1   1  -7    2.15    0.43
   1  -1   7    3.27    0.52
  -2   1  -7    1.01    0.45
  -2   1  -7    0.51    0.32
   2  -1   7    0.64    0.36
  -3   1  -7    6.59    1.00
  -3   1  -7    6.03    0.85
   3  -1   7    6.13    0.88
  -4   1  -7    1.11    0.57
   4  -1   7    0.27    0.56
   4   0  -7    1.29    0.56
  -4   0   7   -0.11    0.53
   3   0  -7    1.57    0.50
  -3   0   7    1.21    0.50
   2   0  -7   55.82    1.66
   2   0  -7   55.05    1.84
  -2   0   7   58.24    1.93
  -2   0   7   55.25    1.47
   1   0  -7   76.24    1.99
   1   0  -7   80.10    2.00
  -1   0   7   77.18    2.10
  -1   0   7   75.61    1.69
   0   0  -7  161.25    3.18
   0   0  -7  167.26    3.62
   0   0   7  168.43    3.56
   0   0   7  164.60    3.18
  -1   0  -7   62.49    1.88
   1   0   7   64.86    1.80
   1   0   7   62.20    1.69
  -2   0  -7   58.51    2.02
  -2   0  -7   57.64    1.89
   2   0   7   56.93    1.82
  -3   0  -7   26.78    1.45
  -3   0  -7   29.39    1.57
   3   0   7   27.86    1.42
  -4   0  -7    2.25    0.86
  -4   0  -7    1.96    0.69
   4  -1  -7   -0.13    0.42
  -4   1   7   -0.30    0.57
   3  -1  -7   51.55    1.98
  -3   1   7   51.58    2.12
   2  -1  -7  106.36    2.78
  -2   1   7  102.54    2.90
  -2   1   7  106.80    2.52
   1  -1  -7  176.72    3.59
   1  -1  -7  171.14    3.69
  -1   1   7  179.92    3.92
  -1   1   7  180.03    3.57
   0  -1  -7  160.64    3.41
   0  -1  -7  160.20    3.21
   0   1   7  166.72    3.41
   0   1   7  159.54    3.25
  -1  -1  -7  174.92    3.25
  -1  -1  -7  174.89    3.83
   1   1   7  164.46    3.54
   1   1   7  172.09    3.57
  -2  -1  -7   21.21    1.15
   2   1   7   19.40    0.91
   2   1   7   19.43    1.04
  -3  -1  -7   10.47    1.17
   3   1   7   11.79    0.89
   3   1   7   11.28    1.05
  -4  -1  -7    8.33    1.16
   4   1   7    9.10    1.11
   4  -2  -7   19.74    1.40
  -4   2   7   20.57    1.65
   3  -2  -7    3.23    0.72
  -3   2   7    3.93    0.66
  -3   2   7    3.58    0.81
   2  -2  -7   59.80    1.98
  -2   2   7   57.46    1.82
  -2   2   7   61.32    2.10
   1  -2  -7   21.03    0.97
  -1   2   7   21.58    0.96
  -1   2   7   24.56    1.06
   0  -2  -7   17.57    0.72
   0  -2  -7   18.30    0.80
   0   2   7   19.22    0.77
   0   2   7   18.03    0.85
  -1  -2  -7    0.35    0.24
  -1  -2  -7    0.23    0.24
   1   2   7    0.78    0.22
   1   2   7    0.56    0.26
  -2  -2  -7    2.12    0.37
  -2  -2  -7    1.66    0.46
   2   2   7    1.86    0.35
   2   2   7    2.38    0.43
  -3  -2  -7    2.33    0.66
   3   2   7    1.61    0.51
  -4  -2  -7    0.11    0.57
   4   2   7    0.16    0.53
  -4   3   7    3.57    0.96
   3  -3  -7    1.63    0.50
  -3   3   7    1.04    0.47
  -3   3   7    0.65    0.60
   2  -3  -7    0.55    0.36
  -2   3   7    0.68    0.44
  -2   3   7    0.39    0.35
   1  -3  -7    0.73    0.34
  -1   3   7    1.01    0.36
  -1   3   7    1.04    0.38
   0  -3  -7    0.13    0.17
   0  -3  -7    0.02    0.21
   0   3   7   -0.21    0.16
   0   3   7    0.06    0.29
  -1  -3  -7   60.79    1.79
  -1  -3  -7   59.41    1.74
   1   3   7   58.57    1.79
  -2  -3  -7   25.81    1.06
  -2  -3  -7   25.42    1.28
   2   3   7   22.64    1.15
  -3  -3  -7    3.25    0.70
   3   3   7    3.22    0.64
  -4  -3  -7   12.21    1.50
   4   3   7    9.67    1.13
  -4   4   7    0.62    0.83
  -4   4   7    0.90    0.66
   3  -4  -7    5.58    0.90
  -3   4   7    4.86    0.99
  -3   4   7    6.46    0.96
   2  -4  -7    2.77    0.61
  -2   4   7    1.27    0.54
  -2   4   7    2.15    0.55
   1  -4  -7   30.87    1.34
  -1   4   7   32.94    1.40
  -1   4   7   32.14    1.39
   0  -4  -7   37.28    1.42
   0  -4  -7   36.97    1.13
   0   4   7   37.34    1.22
   0   4   7   36.41    1.50
  -1  -4  -7   61.09    1.96
  -1  -4  -7   67.37    1.96
   1   4   7   65.35    2.05
  -2  -4  -7   49.20    1.87
  -2  -4  -7   47.69    1.67
   2   4   7   47.48    1.78
  -3  -4  -7   17.05    1.05
  -3  -4  -7   21.02    1.40
   3   4   7   20.36    1.27
  -4  -4  -7   14.48    1.60
   4   4   7   13.28    1.30
   3  -5  -7   12.97    1.37
  -3   5   7   15.88    1.52
  -3   5   7   14.91    1.59
   2  -5  -7   34.07    1.59
  -2   5   7   34.04    1.78
  -2   5   7   36.96    1.72
   1  -5  -7   70.37    2.28
  -1   5   7   72.71    2.35
  -1   5   7   71.45    2.33
   0  -5  -7  102.49    2.81
   0   5   7  103.64    2.93
   0   5   7  100.44    2.52
  -1  -5  -7   25.76    1.16
  -1  -5  -7   22.69    1.23
   1   5   7   25.59    1.39
  -2  -5  -7   13.29    1.02
  -2  -5  -7   12.18    0.97
   2   5   7   12.81    1.09
  -3  -5  -7    4.55    0.77
  -3  -5  -7    4.69    0.88
   3   5   7    4.70    0.81
  -4  -5  -7    1.06    0.72
   4   5   7    0.95    0.61
   3  -6  -7    9.80    1.33
  -3   6   7    9.09    1.23
   2  -6  -7   17.86    1.29
   2  -6  -7   18.27    1.25
  -2   6   7   19.42    1.36
   1  -6  -7   26.00    1.37
   1  -6  -7   23.96    1.28
  -1   6   7   20.78    1.32
   0  -6  -7   17.23    1.12
   0   6   7   14.59    1.14
  -1  -6  -7    3.99    0.74
  -1  -6  -7    3.96    0.63
   1   6   7    3.54    0.77
  -2  -6  -7    0.38    0.46
  -2  -6  -7    1.71    0.60
   2   6   7    0.31    0.52
  -3  -6  -7    6.38    1.06
  -3  -6  -7    5.68    0.88
   3   6   7    6.64    1.05
  -4  -6  -7   -0.04    0.58
   4   6   7    1.80    0.74
   2  -7  -7    5.16    0.90
   2  -7  -7    3.38    0.78
  -2   7   7    2.75    0.80
   1  -7  -7    2.12    0.58
  -1   7   7    2.07    0.65
   0  -7  -7   25.64    1.48
   0   7   7   25.46    1.51
  -1  -7  -7   -0.01    0.38
   1   7   7    0.93    0.54
   1   7   7   -0.15    0.53
  -2  -7  -7   17.11    1.26
  -2  -7  -7   16.56    1.29
   2   7   7   19.50    1.53
  -3  -7  -7    3.56    0.77
  -3  -7  -7    5.13    0.98
   3   7   7    5.57    1.05
  -4  -7  -7    3.71    1.08
  -4  -7  -7    3.93    0.99
  -2   8   7   16.27    1.66
   1  -8  -7   35.33    1.86
  -1   8   7   36.75    1.91
   0  -8  -7   24.40    1.52
   0   8   7   22.16    1.50
  -1  -8  -7   12.84    1.44
   1   8   7   13.68    1.41
  -2  -8  -7   11.54    1.35
   2   8   7   13.79    1.53
   2   8   7   12.00    1.39
  -3  -8  -7    5.53    1.07
   3   8   7    8.86    1.44
   3   8   7   10.14    1.38
   1  -9  -7    8.48    1.20
  -1   9   7    7.18    1.13
   0  -9  -7   14.78    1.64
   0   9   7   11.15    1.35
  -1  -9  -7    9.77    1.28
   1   9   7   10.25    1.31
  -2  -9  -7    3.35    0.85
   2   9   7    5.03    1.02
  -3  -9  -7    2.21    0.90
   3   9   7    2.02    1.04
  -1 -10  -7    0.55    0.62
   1  10   7   -0.09    0.62
   2   8  -8   -0.55    0.64
  -2  -8   8   -0.43    0.57
   1   8  -8    3.17    1.02
   0   8  -8    1.17    0.71
   0  -8   8    0.25    0.64
   3   7  -8    4.59    1.17
  -3  -7   8    2.55    0.76
   2   7  -8    4.59    1.03
  -2  -7   8    4.24    0.91
   1   7  -8    9.34    1.27
  -1  -7   8    8.44    1.14
   0   7  -8   20.54    1.56
   0  -7   8   20.87    1.61
   1  -7   8    9.00    1.34
   3   6  -8   10.17    1.47
  -3  -6   8    6.00    0.97
   2   6  -8   13.75    1.46
  -2  -6   8   13.18    1.12
  -2  -6   8   11.51    1.28
   1   6  -8   21.08    1.51
  -1  -6   8   21.01    1.20
  -1  -6   8   21.33    1.46
   0   6  -8   16.10    1.33
   0  -6   8   16.55    1.35
  -1   6  -8    7.81    1.10
   1  -6   8    5.78    1.03
  -2   6  -8    5.05    0.87
   2  -6   8    4.72    1.01
   4   5  -8    5.35    1.21
  -4  -5   8    4.25    0.94
   3   5  -8   12.35    1.48
  -3  -5   8   10.86    1.25
  -3  -5   8   12.80    1.38
   2   5  -8    9.99    1.24
  -2  -5   8    9.85    1.10
  -2  -5   8   10.54    1.05
   1   5  -8    0.31    0.48
  -1  -5   8    1.43    0.54
  -1  -5   8    1.28    0.45
   0   5  -8    1.46    0.54
   0  -5   8    1.77    0.63
  -1   5  -8    0.18    0.29
  -1   5  -8    0.25    0.41
   1  -5   8   -0.39    0.34
  -2   5  -8    0.20    0.37
  -2   5  -8    0.93    0.61
   2  -5   8    0.38    0.48
   4   4  -8   -0.36    0.66
  -4  -4   8   -0.07    0.51
   3   4  -8    0.51    0.56
  -3  -4   8    0.70    0.47
  -3  -4   8    0.40    0.51
   2   4  -8    4.59    0.84
  -2  -4   8    4.95    0.81
  -2  -4   8    5.63    0.76
   1   4  -8    3.56    0.69
  -1  -4   8    4.61    0.63
  -1  -4   8    4.11    0.76
   0   4  -8   84.09    2.74
   0  -4   8   90.51    2.83
  -1   4  -8    3.45    0.55
  -1   4  -8    3.19    0.66
   1  -4   8    4.65    0.82
  -2   4  -8   11.80    1.26
  -2   4  -8   11.98    1.00
   2  -4   8   12.97    1.16
  -3   4  -8    4.54    0.84
   3  -4   8    4.43    0.98
  -4  -3   8    9.02    1.21
  -4  -3   8    7.26    1.01
   3   3  -8   21.80    1.46
  -3  -3   8   22.18    1.37
  -3  -3   8   21.65    1.29
   2   3  -8   35.81    1.69
  -2  -3   8   36.07    1.48
  -2  -3   8   37.56    1.60
   1   3  -8   73.68    2.34
  -1  -3   8   72.43    2.32
  -1  -3   8   73.32    1.97
   0   3  -8   31.90    1.48
   0   3  -8   32.27    1.05
   0  -3   8   31.54    0.99
   0  -3   8   31.91    1.48
  -1   3  -8   34.39    1.32
  -1   3  -8   30.68    1.49
   1  -3   8   32.87    1.58
  -2   3  -8    5.82    0.78
  -2   3  -8    5.18    0.86
   2  -3   8    4.85    0.83
  -3   3  -8    3.81    0.76
   3  -3   8    4.20    0.85
   4   2  -8   14.23    1.46
  -4  -2   8   16.08    1.40
   3   2  -8   17.85    1.25
  -3  -2   8   16.59    1.14
  -3  -2   8   16.94    1.20
   2   2  -8   53.87    1.97
  -2  -2   8   56.89    1.99
  -2  -2   8   54.25    1.80
   1   2  -8   46.58    1.67
  -1  -2   8   44.18    1.39
  -1  -2   8   46.82    1.67
   0   2  -8   35.77    1.05
   0   2  -8   32.69    1.43
   0  -2   8   36.57    1.45
   0  -2   8   34.88    0.99
  -1   2  -8   11.35    0.91
  -1   2  -8   11.68    0.74
   1  -2   8   11.31    0.89
  -2   2  -8    8.46    0.99
  -2   2  -8    8.57    0.92
   2  -2   8    8.80    1.02
  -3   2  -8    0.13    0.47
  -3   2  -8    0.17    0.38
   3  -2   8    0.48    0.48
  -4   2  -8    0.30    0.56
   4  -2   8    1.30    0.67
   4   1  -8    1.19    0.64
  -4  -1   8   -0.28    0.50
   3   1  -8   12.95    1.26
  -3  -1   8   12.86    1.11
   2   1  -8    0.75    0.39
  -2  -1   8    1.08    0.42
   1   1  -8    7.74    0.69
  -1  -1   8    7.31    0.74
   0   1  -8    3.82    0.42
   0   1  -8    3.97    0.57
   0  -1   8    4.45    0.37
   0  -1   8    4.45    0.60
  -1   1  -8   13.99    0.93
  -1   1  -8   15.04    0.79
   1  -1   8   11.80    0.83
  -2   1  -8    3.36    0.57
  -2   1  -8    3.16    0.65
   2  -1   8    3.53    0.63
  -3   1  -8    2.90    0.73
  -3   1  -8    2.18    0.56
   3  -1   8    1.81    0.58
  -4   1  -8    2.42    0.77
   4  -1   8    2.79    0.81
   4   0  -8    9.06    1.24
  -4   0   8    9.63    1.31
   3   0  -8    0.23    0.41
  -3   0   8    0.39    0.44
   2   0  -8   37.18    1.52
   2   0  -8   39.73    1.36
  -2   0   8   39.03    1.59
   1   0  -8   67.80    1.90
   1   0  -8   72.00    1.95
  -1   0   8   71.83    2.06
  -1   0   8   69.27    1.64
   0   0  -8   73.21    2.05
   0   0  -8   76.00    1.79
   0   0   8   74.51    1.73
   0   0   8   78.75    2.05
  -1   0  -8  173.03    3.98
   1   0   8  170.36    3.82
   1   0   8  170.76    3.62
  -2   0  -8   58.19    1.95
  -2   0  -8   59.32    2.12
   2   0   8   59.00    1.91
  -3   0  -8   17.63    1.22
  -3   0  -8   18.43    1.33
   3   0   8   17.89    1.15
  -4   0  -8    0.65    0.56
  -4   0  -8   -0.67    0.55
   4  -1  -8    8.25    1.17
  -4   1   8    9.19    1.35
   3  -1  -8   65.27    2.33
  -3   1   8   71.30    2.57
   2  -1  -8   82.82    2.40
  -2   1   8   81.96    2.12
  -2   1   8   80.56    2.53
   1  -1  -8   90.17    2.37
   1  -1  -8   96.77    2.27
  -1   1   8   97.00    2.25
  -1   1   8   97.08    2.51
   0  -1  -8  133.21    2.88
   0  -1  -8  137.33    3.09
   0   1   8  146.09    3.12
   0   1   8  137.35    2.93
  -1  -1  -8  176.63    4.03
  -1  -1  -8  178.59    3.44
   1   1   8  182.42    3.79
   1   1   8  182.52    3.82
  -2  -1  -8   18.59    1.14
   2   1   8   18.98    1.05
   2   1   8   17.70    0.91
  -3  -1  -8    6.82    1.03
   3   1   8    6.92    0.88
  -4  -1  -8    1.25    0.74
   4   1   8    1.05    0.61
   4  -2  -8   14.10    1.39
  -4   2   8   15.06    1.76
   3  -2  -8   25.13    1.46
  -3   2   8   24.70    1.58
   2  -2  -8   43.97    1.71
  -2   2   8   47.00    1.60
  -2   2   8   42.43    1.77
   1  -2  -8    1.82    0.42
  -1   2   8    1.89    0.42
  -1   2   8    1.76    0.43
   0  -2  -8   -0.04    0.19
   0  -2  -8    0.26    0.20
   0   2   8   -0.21    0.22
   0   2   8    0.23    0.22
  -1  -2  -8   11.04    0.65
  -1  -2  -8   11.80    0.76
   1   2   8   11.36    0.73
   1   2   8   11.58    0.59
  -2  -2  -8    1.46    0.46
  -2  -2  -8    2.16    0.37
   2   2   8    0.93    0.39
   2   2   8    1.93    0.38
  -3  -2  -8    2.06    0.66
   3   2   8    1.92    0.56
  -4  -2  -8   -0.29    0.55
   4   2   8    0.00    0.57
   4  -3  -8    0.65    0.56
  -4   3   8    0.60    0.77
   3  -3  -8    0.24    0.38
  -3   3   8   -0.09    0.51
  -3   3   8    0.79    0.45
   2  -3  -8    7.81    0.95
  -2   3   8    8.07    0.95
  -2   3   8    9.21    0.91
   1  -3  -8   24.89    1.17
  -1   3   8   26.06    1.20
  -1   3   8   25.77    1.19
   0  -3  -8   35.13    1.30
   0  -3  -8   34.55    1.10
   0   3   8   34.61    1.17
   0   3   8   34.93    1.37
  -1  -3  -8   28.40    1.15
  -1  -3  -8   28.60    1.19
   1   3   8   26.87    1.20
  -2  -3  -8   33.02    1.50
  -2  -3  -8   34.53    1.26
   2   3   8   31.70    1.41
  -3  -3  -8    5.87    0.92
   3   3   8    3.91    0.68
  -4  -3  -8    5.08    0.99
   4   3   8    4.33    0.83
   3  -4  -8   39.58    1.85
  -3   4   8   36.15    2.03
  -3   4   8   38.82    1.86
   2  -4  -8   10.75    1.08
  -2   4   8   12.23    0.98
  -2   4   8   10.33    1.15
   1  -4  -8  110.11    2.91
  -1   4   8  108.40    2.93
  -1   4   8  107.40    2.94
   0  -4  -8   57.61    1.88
   0  -4  -8   57.73    1.56
   0   4   8   56.82    1.65
   0   4   8   59.17    2.03
  -1  -4  -8   74.17    2.16
  -1  -4  -8   71.10    2.18
   1   4   8   76.08    2.31
  -2  -4  -8   34.11    1.42
  -2  -4  -8   36.86    1.61
   2   4   8   32.40    1.51
  -3  -4  -8   17.43    1.32
   3   4   8   17.16    1.29
  -4  -4  -8    7.53    1.30
   4   4   8    7.05    1.05
   3  -5  -8   13.85    1.16
  -3   5   8   14.52    1.46
  -3   5   8   14.46    1.62
   2  -5  -8   50.72    2.02
  -2   5   8   53.00    2.10
  -2   5   8   45.54    2.13
   1  -5  -8   56.65    2.03
  -1   5   8   54.08    1.99
  -1   5   8   56.95    2.06
   0  -5  -8   43.68    1.70
   0   5   8   42.25    1.44
   0   5   8   42.61    1.80
  -1  -5  -8   46.74    1.81
  -1  -5  -8   45.21    1.65
   1   5   8   48.70    1.95
  -2  -5  -8    9.79    1.08
  -2  -5  -8    9.11    1.00
   2   5   8    9.29    1.03
  -3  -5  -8    2.11    0.56
  -3  -5  -8    2.66    0.78
   3   5   8    2.23    0.70
  -4  -5  -8    0.97    0.76
   4   5   8    0.28    0.63
   3  -6  -8    1.61    0.65
   3  -6  -8    3.07    0.81
  -3   6   8    1.92    0.72
   2  -6  -8    1.88    0.65
   2  -6  -8    2.20    0.62
  -2   6   8    2.22    0.68
   1  -6  -8   11.32    1.24
  -1   6   8   10.93    0.98
  -1   6   8   10.66    1.09
   0  -6  -8   -0.11    0.29
   0   6   8    1.39    0.50
  -1  -6  -8   36.41    1.50
  -1  -6  -8   40.54    1.75
   1   6   8   38.30    1.88
  -2  -6  -8    3.42    0.76
  -2  -6  -8    3.29    0.69
   2   6   8    2.04    0.68
  -3  -6  -8    7.92    1.20
  -3  -6  -8    7.95    1.04
   3   6   8    6.47    1.04
  -4  -6  -8    2.08    0.90
   4   6   8    3.62    0.95
   2  -7  -8   13.86    1.52
   2  -7  -8    9.57    1.17
  -2   7   8    7.25    1.08
   1  -7  -8   15.42    1.54
  -1   7   8   15.38    1.27
   0  -7  -8   58.44    2.27
   0   7   8   55.58    2.30
  -1  -7  -8   31.96    1.69
   1   7   8   31.24    1.82
  -2  -7  -8   42.17    1.93
  -2  -7  -8   38.53    1.95
   2   7   8   42.85    2.15
  -3  -7  -8    2.37    0.75
  -3  -7  -8    3.52    0.88
   3   7   8    2.87    0.89
  -4  -7  -8    2.23    0.97
   4   7   8    1.65    0.88
   2  -8  -8    3.25    0.85
  -2   8   8    2.98    0.89
   1  -8  -8   19.31    1.41
  -1   8   8   18.24    1.45
   0  -8  -8   32.97    1.79
   0   8   8   30.46    1.84
  -1  -8  -8   15.62    1.33
   1   8   8   19.42    1.55
  -2  -8  -8    8.09    1.19
   2   8   8    9.37    1.30
   2   8   8    8.68    1.22
  -3  -8  -8    7.98    1.23
   3   8   8    7.83    1.29
   3   8   8    6.11    1.21
   1  -9  -8   -0.09    0.47
  -1   9   8    0.37    0.57
   0  -9  -8    4.25    0.91
   0   9   8    3.52    0.89
  -1  -9  -8    0.16    0.49
   1   9   8   -0.06    0.66
  -2  -9  -8    1.30    0.70
   2   9   8    0.47    0.79
  -1 -10  -8    0.90    0.72
   1  10   8    0.60    0.78
   1   8  -9    2.14    0.95
   0   8  -9    2.64    0.92
   0  -8   9    1.69    0.81
   3   7  -9    9.61    1.48
  -3  -7   9    9.57    1.28
   2   7  -9    3.61    0.97
  -2  -7   9    4.63    0.87
   1   7  -9   12.69    1.50
  -1  -7   9   11.52    1.41
   0   7  -9    7.91    1.19
   0  -7   9    6.82    1.14
  -1   7  -9    6.24    1.08
   1  -7   9    3.59    0.98
   3   6  -9    5.49    1.18
  -3  -6   9    3.63    0.81
   2   6  -9    9.66    1.25
  -2  -6   9   10.37    1.12
  -2  -6   9    8.28    1.15
   1   6  -9   30.08    1.86
  -1  -6   9   28.72    1.73
   0   6  -9   11.86    1.35
   0  -6   9   10.97    1.31
  -1   6  -9    1.78    0.63
   1  -6   9    0.47    0.54
  -2   6  -9    1.37    0.63
   2  -6   9    1.50    0.75
   4   5  -9    1.56    1.01
  -4  -5   9    1.59    0.70
   3   5  -9    3.61    0.96
  -3  -5   9    3.51    0.82
  -3  -5   9    3.91    0.80
   2   5  -9    0.87    0.58
  -2  -5   9    0.97    0.47
  -2  -5   9    0.18    0.48
   1   5  -9    1.34    0.59
  -1  -5   9    2.27    0.53
  -1  -5   9    1.74    0.60
   0   5  -9    9.85    1.15
   0  -5   9    8.95    1.14
  -1   5  -9   11.62    1.29
   1  -5   9   10.65    1.35
  -2   5  -9    1.13    0.53
  -2   5  -9    0.47    0.49
   2  -5   9    0.72    0.56
   4   4  -9    1.81    0.94
  -4  -4   9    2.62    0.79
   3   4  -9   13.71    1.49
  -3  -4   9    7.36    0.96
  -3  -4   9   10.76    1.19
   2   4  -9   28.11    1.62
  -2  -4   9   28.83    1.40
  -2  -4   9   28.91    1.56
   1   4  -9   17.49    1.24
  -1  -4   9   16.95    0.96
  -1  -4   9   15.72    1.16
   0   4  -9   69.46    2.48
   0  -4   9   70.33    2.51
  -1   4  -9    4.68    0.81
  -1   4  -9    2.97    0.55
   1  -4   9    3.30    0.73
  -2   4  -9   16.00    1.16
  -2   4  -9   15.53    1.57
   2  -4   9   15.60    1.33
  -3   4  -9    4.89    0.91
   3  -4   9    4.03    0.87
  -4  -3   9    6.52    1.12
  -4  -3   9    6.40    0.99
   3   3  -9   51.06    2.24
  -3  -3   9   52.79    2.20
   2   3  -9   78.51    2.61
  -2  -3   9   78.54    2.36
  -2  -3   9   78.78    2.58
   1   3  -9   82.40    2.66
  -1  -3   9   85.40    2.23
  -1  -3   9   88.26    2.67
   0   3  -9   58.91    2.16
   0  -3   9   59.98    2.16
  -1   3  -9   31.85    1.29
  -1   3  -9   31.14    1.55
   1  -3   9   29.21    1.57
  -2   3  -9    2.87    0.61
  -2   3  -9    2.83    0.70
   2  -3   9    4.15    0.83
  -3   3  -9    3.68    0.88
  -3   3  -9    2.95    0.74
   3  -3   9    3.27    0.85
   4   2  -9    9.48    1.38
  -4  -2   9    9.11    1.27
   3   2  -9    3.54    0.75
  -3  -2   9    3.19    0.73
  -3  -2   9    1.97    0.64
   2   2  -9   30.55    1.46
  -2  -2   9   29.22    1.32
  -2  -2   9   31.19    1.50
   1   2  -9    1.88    0.53
  -1  -2   9    2.24    0.54
  -1  -2   9    1.97    0.39
   0   2  -9   28.44    1.35
   0   2  -9   26.65    0.95
   0  -2   9   28.00    1.32
   0  -2   9   26.44    0.92
  -1   2  -9    0.46    0.35
  -1   2  -9   -0.20    0.19
   1  -2   9    0.07    0.32
  -2   2  -9    5.53    0.87
  -2   2  -9    5.80    0.79
   2  -2   9    5.30    0.83
  -3   2  -9   -0.51    0.35
  -3   2  -9   -0.15    0.47
   3  -2   9   -0.12    0.44
   4   1  -9    1.68    0.70
  -4  -1   9    0.96    0.65
   3   1  -9   -0.29    0.34
  -3  -1   9    0.29    0.41
   2   1  -9    9.64    0.98
   2   1  -9    9.97    0.82
  -2  -1   9    8.00    0.91
   1   1  -9   32.03    1.25
   1   1  -9   30.78    1.34
  -1  -1   9   31.52    1.36
   0   1  -9   71.87    1.73
   0   1  -9   69.50    2.17
   0  -1   9   70.84    2.12
   0  -1   9   71.25    1.69
  -1   1  -9    0.97    0.41
  -1   1  -9    1.28    0.33
   1  -1   9    0.88    0.39
  -2   1  -9   31.35    1.44
  -2   1  -9   33.97    1.61
   2  -1   9   30.96    1.50
  -3   1  -9    5.59    0.99
  -3   1  -9    5.24    0.83
   3  -1   9    4.15    0.80
  -4   1  -9    3.39    0.86
   4   0  -9    0.47    0.61
  -4   0   9    0.36    0.64
   3   0  -9   12.77    1.08
  -3   0   9   12.42    1.27
   2   0  -9   28.35    1.34
   2   0  -9   29.45    1.20
  -2   0   9   27.54    1.41
   1   0  -9  163.69    3.59
   1   0  -9  165.90    3.73
  -1   0   9  172.83    3.91
  -1   0   9  154.99    3.28
   0   0  -9   95.67    2.55
   0   0  -9   98.33    2.23
   0   0   9   94.68    2.16
   0   0   9  100.86    2.55
  -1   0  -9  156.68    3.76
   1   0   9  152.08    3.36
   1   0   9  148.42    3.54
  -2   0  -9   29.05    1.36
  -2   0  -9   31.54    1.55
   2   0   9   31.76    1.41
   2   0   9   28.59    1.33
  -3   0  -9   22.81    1.38
  -3   0  -9   23.73    1.54
   3   0   9   23.98    1.36
  -4   0  -9    4.75    1.09
   4   0   9    6.92    1.02
   4  -1  -9   21.49    1.57
  -4   1   9   23.01    1.76
   3  -1  -9    0.20    0.37
  -3   1   9    0.28    0.52
   2  -1  -9  111.28    2.99
  -2   1   9  114.04    3.22
   1  -1  -9   75.07    2.10
   1  -1  -9   73.21    1.94
  -1   1   9   72.54    1.93
  -1   1   9   77.02    2.22
   0  -1  -9   48.12    1.42
   0  -1  -9   49.08    1.54
   0   1   9   46.75    1.51
   0   1   9   48.92    1.45
  -1  -1  -9   39.10    1.48
  -1  -1  -9   41.77    1.19
   1   1   9   39.77    1.39
   1   1   9   42.14    1.37
  -2  -1  -9    6.39    0.84
   2   1   9    6.62    0.72
   2   1   9    6.21    0.73
  -3  -1  -9   -0.10    0.45
   3   1   9    0.16    0.45
  -4  -1  -9    0.23    0.57
   4   1   9    0.08    0.55
   4  -2  -9    5.52    0.99
  -4   2   9    5.57    1.14
   3  -2  -9   18.51    1.30
  -3   2   9   16.55    1.34
   2  -2  -9    0.53    0.38
  -2   2   9   -0.11    0.38
  -2   2   9   -0.08    0.30
   1  -2  -9    7.99    0.80
  -1   2   9    8.44    0.86
  -1   2   9    8.33    0.76
   0  -2  -9    0.27    0.22
   0  -2  -9    0.35    0.25
   0   2   9    0.61    0.29
   0   2   9    0.60    0.33
  -1  -2  -9   31.94    1.32
  -1  -2  -9   31.93    1.14
   1   2   9   31.96    1.26
   1   2   9   32.12    1.10
  -2  -2  -9   26.93    1.37
   2   2   9   24.81    1.26
  -3  -2  -9   14.05    1.22
   3   2   9   14.64    1.13
  -4  -2  -9    1.49    0.75
   4   2   9    0.87    0.69
   4  -3  -9    0.25    0.52
  -4   3   9   -0.13    0.70
   3  -3  -9    4.23    0.77
  -3   3   9    4.76    0.95
  -3   3   9    3.97    0.73
   2  -3  -9   19.86    1.17
  -2   3   9   17.76    1.22
  -2   3   9   18.69    1.12
   1  -3  -9   30.91    1.35
  -1   3   9   30.29    1.35
  -1   3   9   30.57    1.36
   0  -3  -9   69.98    1.87
   0  -3  -9   70.68    2.04
   0   3   9   70.56    2.15
   0   3   9   73.96    1.96
  -1  -3  -9    5.30    0.65
  -1  -3  -9    3.86    0.58
   1   3   9    5.21    0.64
   1   3   9    4.46    0.44
  -2  -3  -9   96.96    2.90
  -2  -3  -9   96.00    2.44
   2   3   9   98.78    2.77
  -3  -3  -9    4.31    0.92
   3   3   9    5.63    0.81
  -4  -3  -9    4.04    0.97
   4   3   9    5.81    1.03
   3  -4  -9   36.45    1.82
  -3   4   9   30.54    1.94
  -3   4   9   35.47    1.81
   2  -4  -9   32.51    1.60
  -2   4   9   35.45    1.77
  -2   4   9   38.58    1.69
   1  -4  -9   59.17    2.00
  -1   4   9   60.34    2.03
  -1   4   9   55.06    2.00
   0  -4  -9   31.36    1.09
   0  -4  -9   29.29    1.34
   0   4   9   32.55    1.19
   0   4   9   28.96    1.46
  -1  -4  -9   50.43    1.82
  -1  -4  -9   55.08    1.83
   1   4   9   56.37    2.00
  -2  -4  -9    5.51    0.83
  -2  -4  -9    5.37    0.76
   2   4   9    5.31    0.79
  -3  -4  -9    7.01    1.03
   3   4   9    6.84    0.91
  -4  -4  -9    0.06    0.70
   4   4   9    0.44    0.65
   3  -5  -9   17.47    1.31
  -3   5   9   16.28    1.40
  -3   5   9   16.07    1.67
   2  -5  -9   13.17    1.10
  -2   5   9   14.61    1.23
  -2   5   9   14.34    1.33
   1  -5  -9   20.99    1.25
  -1   5   9   19.89    1.25
  -1   5   9   19.29    1.19
   0  -5  -9   36.65    1.59
   0   5   9   36.66    1.73
  -1  -5  -9   13.46    1.03
  -1  -5  -9   13.63    0.89
   1   5   9   13.99    1.19
  -2  -5  -9    1.69    0.54
  -2  -5  -9    1.64    0.53
   2   5   9    1.48    0.58
  -3  -5  -9    0.52    0.47
  -3  -5  -9    0.22    0.51
   3   5   9   -0.43    0.51
  -4  -5  -9   -0.38    0.60
   4   5   9    0.36    0.64
   3  -6  -9    0.67    0.59
   3  -6  -9    1.45    0.62
  -3   6   9    0.56    0.67
   2  -6  -9    1.05    0.54
  -2   6   9    1.50    0.60
  -2   6   9    0.45    0.56
   1  -6  -9    0.29    0.33
  -1   6   9   -0.02    0.45
  -1   6   9    0.46    0.48
   0  -6  -9    4.63    0.77
   0   6   9    4.38    0.80
  -1  -6  -9    0.98    0.37
  -1  -6  -9    1.75    0.57
   1   6   9    0.99    0.59
  -2  -6  -9    8.88    1.10
  -2  -6  -9    9.19    1.12
   2   6   9    7.89    1.13
  -3  -6  -9    6.23    0.94
  -3  -6  -9    6.18    1.06
   3   6   9    7.62    1.17
  -4  -6  -9    3.93    1.07
   4   6   9    3.33    0.88
   2  -7  -9   17.68    1.38
   2  -7  -9   18.10    1.38
  -2   7   9   18.43    1.72
   1  -7  -9   31.48    1.71
  -1   7   9   34.82    1.85
   0  -7  -9   36.36    1.81
   0   7   9   38.92    1.95
  -1  -7  -9   54.20    2.24
   1   7   9   52.96    2.41
  -2  -7  -9    3.38    0.72
  -2  -7  -9    4.58    0.87
   2   7   9    2.55    0.87
  -3  -7  -9   18.13    1.43
  -3  -7  -9   17.17    1.53
   3   7   9   15.64    1.67
   1  -8  -9   21.52    1.50
  -1   8   9   20.93    1.62
   0  -8  -9   31.66    1.81
   0   8   9   33.79    1.92
  -1  -8  -9    9.96    1.30
   1   8   9   10.72    1.35
  -2  -8  -9    0.35    0.66
   2   8   9    1.86    0.77
   2   8   9    2.77    0.95
  -3  -8  -9    3.49    0.90
  -3  -8  -9    1.71    0.74
   3   8   9    1.82    0.94
   1  -9  -9    2.57    0.80
  -1   9   9    1.55    0.68
   0  -9  -9    0.50    0.54
   0   9   9   -0.52    0.56
  -1  -9  -9    1.86    0.73
   1   9   9    2.30    0.86
  -2  -9  -9   -0.42    0.55
   2   9   9   -0.39    0.80
   2   7 -10    8.50    1.33
   1   7 -10   15.06    1.73
  -1  -7  10   13.15    1.54
   0   7 -10    2.19    0.79
   0  -7  10    3.82    1.02
  -1   7 -10    8.49    1.25
   1  -7  10    4.44    1.03
   3   6 -10   12.40    1.56
  -3  -6  10    8.86    1.21
   2   6 -10    3.15    0.84
  -2  -6  10    2.25    0.66
  -2  -6  10    3.17    0.76
   1   6 -10    3.54    0.89
  -1  -6  10    2.16    0.68
   0   6 -10    4.26    0.88
   0  -6  10    2.87    0.81
  -1   6 -10    0.39    0.48
   1  -6  10    0.44    0.58
   3   5 -10    0.15    0.67
  -3  -5  10    0.18    0.50
  -3  -5  10   -0.42    0.42
   2   5 -10    0.02    0.48
  -2  -5  10   -0.08    0.39
  -2  -5  10    0.43    0.49
   1   5 -10    0.02    0.51
  -1  -5  10    0.15    0.42
   0   5 -10   13.16    1.41
   0  -5  10    9.59    1.23
  -1   5 -10    6.24    0.98
   1  -5  10    3.59    0.82
  -2   5 -10    2.68    0.80
  -2   5 -10    3.03    0.69
   2  -5  10    2.12    0.77
  -4  -4  10    2.13    0.76
   3   4 -10    8.73    1.26
  -3  -4  10    6.73    0.98
  -3  -4  10    8.64    1.14
   2   4 -10   23.06    1.52
  -2  -4  10   24.81    1.34
  -2  -4  10   23.62    1.48
   1   4 -10   28.06    1.62
  -1  -4  10   28.52    1.24
  -1  -4  10   30.01    1.60
   0   4 -10   35.59    1.75
   0  -4  10   33.95    1.76
  -1   4 -10   70.00    2.17
  -1   4 -10   68.38    2.53
   1  -4  10   64.68    2.64
  -2   4 -10    1.16    0.54
  -2   4 -10    1.90    0.72
   2  -4  10    2.63    0.76
  -3   4 -10    3.86    0.89
   3  -4  10    2.95    0.88
   4   3 -10   16.93    1.73
  -4  -3  10   15.76    1.75
   3   3 -10   17.76    1.47
  -3  -3  10   21.33    1.45
  -3  -3  10   19.12    1.29
   2   3 -10   28.54    1.56
  -2  -3  10   28.60    1.53
  -2  -3  10   26.70    1.33
   1   3 -10   34.25    1.68
  -1  -3  10   35.29    1.64
  -1  -3  10   33.94    1.30
   0   3 -10   40.89    1.81
   0  -3  10   42.08    1.82
  -1   3 -10    8.47    0.72
  -1   3 -10    9.51    1.05
   1  -3  10    8.54    1.09
  -2   3 -10    4.16    0.74
  -2   3 -10    5.56    0.95
   2  -3  10    7.10    1.05
  -3   3 -10    0.04    0.47
  -3   3 -10    0.92    0.70
   3  -3  10    0.27    0.56
   4   2 -10    4.18    0.99
  -4  -2  10    4.44    1.02
   3   2 -10    8.60    1.07
   3   2 -10    9.06    1.13
  -3  -2  10    7.64    1.04
   2   2 -10    2.31    0.59
  -2  -2  10    1.92    0.59
  -2  -2  10    1.41    0.49
   1   2 -10    0.34    0.42
  -1  -2  10    0.76    0.42
  -1  -2  10    0.45    0.32
   0   2 -10   -0.01    0.38
   0  -2  10    0.28    0.38
  -1   2 -10   14.91    1.11
  -1   2 -10   14.74    0.88
   1  -2  10   14.85    1.10
  -2   2 -10    0.79    0.39
  -2   2 -10    1.04    0.52
   2  -2  10    0.77    0.51
  -3   2 -10    1.26    0.74
  -3   2 -10    1.00    0.53
   3  -2  10    1.31    0.62
   4   1 -10    1.00    0.57
  -4  -1  10    1.43    0.76
   3   1 -10    5.43    0.93
  -3  -1  10    3.78    0.82
   2   1 -10    5.94    0.76
   2   1 -10    4.63    0.74
  -2  -1  10    7.33    0.95
   1   1 -10   24.58    1.12
   1   1 -10   27.50    1.29
  -1  -1  10   23.80    1.25
   0   1 -10   35.24    1.49
   0   1 -10   35.70    1.14
   0  -1  10   35.49    1.12
   0  -1  10   36.37    1.49
  -1   1 -10   21.37    1.24
   1  -1  10   20.68    1.03
   1  -1  10   21.17    1.18
  -2   1 -10   37.36    1.74
  -2   1 -10   33.70    1.53
   2  -1  10   34.84    1.64
  -3   1 -10    4.38    1.00
  -3   1 -10    5.00    0.85
   3  -1  10    3.52    0.79
  -4   1 -10    2.52    0.77
  -4   1 -10    3.65    1.09
   4   0 -10    8.29    1.18
  -4   0  10    8.22    1.27
   3   0 -10   40.47    1.86
  -3   0  10   42.51    2.01
   2   0 -10   12.31    0.89
   2   0 -10   10.33    0.87
  -2   0  10   11.25    0.98
   1   0 -10   82.77    2.30
   1   0 -10   86.50    2.38
  -1   0  10   86.10    2.51
   0   0 -10   17.72    1.00
   0   0 -10   17.63    0.81
   0   0  10   19.21    1.02
   0   0  10   18.49    0.81
  -1   0 -10   42.83    1.72
   1   0  10   46.18    1.53
   1   0  10   44.47    1.61
  -2   0 -10   33.06    1.65
   2   0  10   30.49    1.43
   2   0  10   31.14    1.45
  -3   0 -10   12.00    1.44
   3   0  10    8.23    0.99
   3   0  10    8.67    1.04
  -4   0 -10    2.37    0.97
   4   0  10    1.20    0.69
   4  -1 -10   16.59    1.71
  -4   1  10   15.51    1.70
   3  -1 -10   19.10    1.30
  -3   1  10   18.90    1.41
   2  -1 -10  113.26    3.05
  -2   1  10  105.81    3.20
   1  -1 -10   33.36    1.25
   1  -1 -10   35.28    1.40
  -1   1  10   34.77    1.28
  -1   1  10   35.13    1.48
   0  -1 -10   16.65    0.91
   0  -1 -10   17.30    0.85
   0   1  10   16.52    0.90
   0   1  10   16.32    0.86
  -1  -1 -10   12.24    0.87
  -1  -1 -10   11.40    0.64
   1   1  10   11.02    0.76
   1   1  10   10.49    0.76
  -2  -1 -10    4.88    0.79
   2   1  10    3.68    0.61
   2   1  10    3.47    0.59
  -3  -1 -10   -0.04    0.44
   3   1  10    0.79    0.51
  -4  -1 -10   -0.26    0.62
   4   1  10   -0.15    0.59
   4  -2 -10    1.49    0.65
  -4   2  10    1.73    0.81
   3  -2 -10    2.61    0.66
  -3   2  10    2.38    0.75
   2  -2 -10   12.49    0.96
  -2   2  10   10.84    1.13
  -2   2  10   10.76    0.82
   1  -2 -10    1.24    0.41
  -1   2  10    1.08    0.40
  -1   2  10    0.54    0.39
   0  -2 -10   23.23    1.00
   0  -2 -10   23.76    1.06
   0   2  10   23.89    1.15
   0   2  10   23.27    1.05
  -1  -2 -10   13.34    0.79
  -1  -2 -10   14.68    0.94
   1   2  10   13.80    0.78
   1   2  10   14.81    0.91
  -2  -2 -10    5.66    0.83
   2   2  10    5.80    0.75
  -3  -2 -10   16.48    1.35
   3   2  10   16.09    1.21
  -4  -2 -10    5.01    1.09
   4   2  10    2.95    0.80
   3  -3 -10   17.71    1.29
  -3   3  10   17.31    1.47
   2  -3 -10   32.59    1.56
  -2   3  10   33.40    1.47
  -2   3  10   32.55    1.65
   1  -3 -10   91.57    2.63
  -1   3  10   92.17    2.68
  -1   3  10   92.12    2.62
   0  -3 -10  135.78    3.24
   0  -3 -10  136.80    3.14
   0   3  10  135.22    3.40
   0   3  10  137.25    3.21
  -1  -3 -10   36.20    1.45
  -1  -3 -10   35.47    1.37
   1   3  10   33.47    1.19
   1   3  10   35.18    1.53
  -2  -3 -10   39.59    1.79
   2   3  10   43.29    1.75
  -3  -3 -10    5.53    0.99
   3   3  10    4.42    0.82
  -4  -3 -10    1.81    0.87
   4   3  10    0.78    0.66
   3  -4 -10   23.29    1.54
  -3   4  10   26.08    1.59
  -3   4  10   25.93    1.79
   2  -4 -10   72.59    2.52
  -2   4  10   70.00    2.64
  -2   4  10   77.15    2.50
   1  -4 -10   61.78    2.11
  -1   4  10   62.02    2.15
  -1   4  10   58.32    2.07
   0  -4 -10   91.10    2.32
   0  -4 -10   98.29    2.71
   0   4  10   92.56    2.45
   0   4  10   92.19    2.80
  -1  -4 -10   41.32    1.58
  -1  -4 -10   38.68    1.58
   1   4  10   38.96    1.75
  -2  -4 -10   12.79    1.06
  -2  -4 -10   11.13    0.91
   2   4  10   12.59    1.09
  -3  -4 -10    2.63    0.71
   3   4  10    1.66    0.62
  -4  -4 -10    0.82    0.65
   4   4  10   -0.04    0.64
   3  -5 -10    4.80    0.92
  -3   5  10    3.67    0.84
  -3   5  10    4.57    1.09
   2  -5 -10    1.75    0.63
  -2   5  10    2.89    0.79
  -2   5  10    2.84    0.68
   1  -5 -10    5.84    0.90
  -1   5  10    6.60    0.92
  -1   5  10    5.66    0.79
   0  -5 -10    5.35    0.80
   0   5  10    7.58    1.00
  -1  -5 -10    1.65    0.44
  -1  -5 -10    2.26    0.59
   1   5  10    1.87    0.68
  -2  -5 -10    6.67    0.98
  -2  -5 -10    5.27    0.82
   2   5  10    7.31    1.01
  -3  -5 -10    2.44    0.75
   3   5  10    2.48    0.76
  -4  -5 -10    0.01    0.69
   4   5  10    0.27    0.70
   3  -6 -10    0.14    0.49
  -3   6  10    0.05    0.69
  -3   6  10   -0.08    0.55
   2  -6 -10   17.67    1.34
  -2   6  10   15.80    1.32
  -2   6  10   14.75    1.49
   1  -6 -10    8.54    1.07
  -1   6  10   10.02    1.11
  -1   6  10    7.99    1.03
   0  -6 -10   17.91    1.24
   0   6  10   16.28    1.32
  -1  -6 -10   22.06    1.19
  -1  -6 -10   23.03    1.42
   1   6  10   25.48    1.65
  -2  -6 -10   61.81    2.37
  -2  -6 -10   61.90    2.36
   2   6  10   58.18    2.54
  -3  -6 -10    0.17    0.52
  -3  -6 -10    0.46    0.52
   3   6  10    0.66    0.67
  -4  -6 -10    4.95    1.12
   4   6  10    6.27    1.15
   2  -7 -10   12.11    1.47
   2  -7 -10    9.36    1.26
  -2   7  10    9.03    1.25
   1  -7 -10   24.25    1.52
  -1   7  10   25.54    1.64
   0  -7 -10   30.39    1.67
   0   7  10   31.34    1.84
  -1  -7 -10   59.16    2.37
   1   7  10   57.18    2.58
  -2  -7 -10   18.26    1.33
  -2  -7 -10   16.44    1.61
   2   7  10   21.32    1.75
  -3  -7 -10   19.73    1.62
  -3  -7 -10   18.68    1.46
   1  -8 -10   -0.16    0.37
  -1   8  10    0.05    0.58
   0  -8 -10    8.65    1.25
   0   8  10    9.53    1.21
  -1  -8 -10    6.41    1.08
   1   8  10    6.70    1.15
  -2  -8 -10   -0.11    0.50
  -2  -8 -10    0.26    0.48
   2   8  10   -0.30    0.73
  -3  -8 -10    0.02    0.61
  -3  -8 -10    1.01    0.74
   3   8  10    0.49    0.90
   0  -9 -10    8.06    1.25
   0   9  10    4.56    1.03
  -1  -9 -10    4.21    0.98
   1   9  10    6.76    1.28
  -2  -9 -10    3.84    0.97
   2   9  10    5.87    1.27
   2   7 -11   12.55    1.61
  -2  -7  11   13.33    1.76
   1   7 -11    5.01    1.11
  -1  -7  11    3.02    0.86
   0   7 -11    8.05    1.31
   0  -7  11    4.07    1.00
   3   6 -11    5.06    1.20
  -3  -6  11    6.51    1.17
   2   6 -11    0.02    0.66
  -2  -6  11    0.51    0.53
  -2  -6  11    0.13    0.56
   1   6 -11    0.41    0.65
  -1  -6  11    0.72    0.61
   0   6 -11    3.27    0.84
   0  -6  11    3.14    0.86
  -1   6 -11   -0.02    0.51
   1  -6  11    0.10    0.64
   3   5 -11   -0.07    0.66
  -3  -5  11    0.11    0.59
  -3  -5  11    0.07    0.54
   2   5 -11    8.58    1.22
  -2  -5  11    8.34    1.01
  -2  -5  11    5.75    1.01
   1   5 -11    8.34    1.18
  -1  -5  11    6.35    1.03
   0   5 -11    8.87    1.15
   0  -5  11    7.64    1.18
  -1   5 -11   -0.40    0.43
   1  -5  11   -0.33    0.44
  -2   5 -11    9.52    1.32
   2  -5  11    7.13    1.25
   3   4 -11   14.28    1.55
  -3  -4  11   16.50    1.28
  -3  -4  11   16.26    1.42
   2   4 -11   36.05    1.90
  -2  -4  11   34.83    1.89
  -2  -4  11   36.75    1.63
   1   4 -11   41.12    2.00
  -1  -4  11   43.29    1.56
  -1  -4  11   40.96    1.97
   0   4 -11   25.08    1.54
   0  -4  11   26.72    1.60
  -1   4 -11   44.31    2.05
  -2   4 -11   -0.10    0.38
  -2   4 -11    0.51    0.57
   2  -4  11    0.29    0.52
   4   3 -11    9.34    1.35
  -4  -3  11   12.68    1.54
   3   3 -11    5.99    0.98
  -3  -3  11    8.98    1.21
  -3  -3  11    8.13    1.00
   2   3 -11   49.87    2.08
  -2  -3  11   44.93    2.03
  -2  -3  11   47.40    1.81
   1   3 -11   26.82    1.53
  -1  -3  11   32.10    1.62
  -1  -3  11   29.15    1.23
   0   3 -11   19.36    1.31
   0  -3  11   20.74    1.35
  -1   3 -11    8.69    1.07
  -1   3 -11    7.14    0.78
   1  -3  11    6.13    0.97
  -2   3 -11    0.00    0.33
  -2   3 -11    0.30    0.51
   2  -3  11   -0.20    0.43
  -3   3 -11    0.01    0.46
  -3   3 -11    0.88    0.74
   3  -3  11    0.02    0.52
   4   2 -11    1.51    0.67
  -4  -2  11    1.64    0.83
   3   2 -11    1.28    0.64
  -3  -2  11    2.20    0.68
   2   2 -11    1.46    0.51
   2   2 -11    0.47    0.44
  -2  -2  11    1.28    0.52
   1   2 -11    2.44    0.61
   1   2 -11    1.47    0.44
  -1  -2  11    1.33    0.51
   0   2 -11   11.59    1.16
   0  -2  11   11.26    0.97
  -1   2 -11   12.81    0.84
  -1   2 -11   12.55    1.25
   1  -2  11    9.10    1.07
  -2   2 -11   12.88    1.39
  -2   2 -11   13.63    1.07
   2  -2  11   10.98    1.27
  -3   2 -11    0.54    0.55
  -3   2 -11    2.17    0.84
   3  -2  11    0.57    0.56
   4   1 -11    2.20    0.82
  -4  -1  11    5.62    1.15
   3   1 -11   25.55    1.53
  -3  -1  11   21.56    1.53
   2   1 -11   24.86    1.33
   2   1 -11   24.66    1.34
  -2  -1  11   23.72    1.41
   1   1 -11   56.42    1.99
   1   1 -11   55.48    1.79
  -1  -1  11   54.06    2.02
   0   1 -11   85.25    2.08
   0   1 -11   82.61    2.58
   0  -1  11   84.21    2.56
   0  -1  11   87.68    2.07
  -1   1 -11   42.56    1.83
   1  -1  11   44.83    1.55
   1  -1  11   44.82    1.79
  -2   1 -11   10.53    1.19
  -2   1 -11    8.13    0.91
   2  -1  11    9.28    1.07
   2  -1  11    7.06    0.84
  -3   1 -11   11.27    1.42
  -3   1 -11   11.34    1.24
   3  -1  11    7.12    1.05
   4   0 -11   12.21    1.51
  -4   0  11   14.92    1.70
   3   0 -11   19.83    1.37
  -3   0  11   20.05    1.48
   2   0 -11   30.48    1.47
  -2   0  11   31.79    1.61
   1   0 -11   73.68    2.22
   1   0 -11   70.09    2.09
  -1   0  11   71.90    2.33
   0   0 -11   37.69    1.25
   0   0 -11   38.24    1.53
   0   0  11   37.03    1.51
   0   0  11   38.49    1.27
  -1   0 -11   29.16    1.46
   1   0  11   30.11    1.24
   1   0  11   28.12    1.32
  -2   0 -11    8.05    1.03
   2   0  11    7.70    0.84
   2   0  11    8.39    0.97
  -3   0 -11    0.89    0.62
   3   0  11    0.93    0.61
  -4   0 -11    0.00    0.78
   4   0  11    1.54    0.70
   4  -1 -11    8.98    1.30
  -4   1  11    7.64    1.31
   3  -1 -11   14.77    1.41
  -3   1  11   13.08    1.40
   2  -1 -11    3.38    0.67
  -2   1  11    2.15    0.59
   1  -1 -11   52.71    1.66
   1  -1 -11   49.63    1.76
  -1   1  11   51.19    1.67
  -1   1  11   51.54    1.91
   0  -1 -11    9.51    0.70
   0  -1 -11    8.55    0.74
   0   1  11    9.72    0.78
   0   1  11    9.40    0.75
  -1  -1 -11    0.13    0.32
   1   1  11    0.35    0.35
   1   1  11    0.02    0.32
  -2  -1 -11    0.06    0.39
   2   1  11   -0.11    0.34
   2   1  11    0.24    0.37
  -3  -1 -11    3.93    0.87
   3   1  11    3.95    0.81
  -4  -1 -11    1.21    0.72
   4   1  11    2.06    0.79
   4  -2 -11   -0.12    0.51
  -4   2  11    1.24    0.80
   3  -2 -11    1.49    0.59
  -3   2  11    0.98    0.64
   2  -2 -11    2.38    0.59
  -2   2  11    2.38    0.67
   1  -2 -11   37.14    1.50
  -1   2  11   34.71    1.55
  -1   2  11   35.45    1.46
   0  -2 -11   18.51    0.99
   0  -2 -11   19.96    0.99
   0   2  11   19.17    1.02
   0   2  11   20.60    1.13
  -1  -2 -11   11.98    0.92
  -1  -2 -11   11.87    0.78
   1   2  11   13.70    0.93
   1   2  11   12.21    0.80
  -2  -2 -11   34.33    1.70
   2   2  11   37.46    1.64
  -3  -2 -11   13.15    1.52
   3   2  11   15.15    1.25
  -4  -2 -11    3.83    1.11
   4   2  11    2.77    0.83
   3  -3 -11   17.53    1.34
  -3   3  11   19.31    1.85
   2  -3 -11   46.24    1.93
  -2   3  11   47.79    1.82
  -2   3  11   43.10    2.01
   1  -3 -11   94.65    2.75
  -1   3  11   97.60    2.76
  -1   3  11   93.79    2.81
   0  -3 -11  113.38    2.79
   0  -3 -11  114.52    2.92
   0   3  11  113.81    2.89
   0   3  11  108.71    3.05
  -1  -3 -11   61.28    1.91
  -1  -3 -11   59.65    2.04
   1   3  11   61.30    2.10
  -2  -3 -11   10.54    1.13
   2   3  11   10.88    1.07
  -3  -3 -11   24.53    1.66
   3   3  11   21.70    1.45
  -4  -3 -11    0.60    0.69
   4   3  11   -0.20    0.60
   3  -4 -11   16.68    1.35
  -3   4  11   14.86    1.67
   2  -4 -11   36.93    1.79
  -2   4  11   37.19    1.71
  -2   4  11   32.44    1.81
   1  -4 -11   37.20    1.62
  -1   4  11   37.03    1.66
  -1   4  11   35.57    1.67
   0  -4 -11   18.85    1.15
   0   4  11   18.81    1.34
   0   4  11   20.00    1.04
  -1  -4 -11    7.42    0.83
  -1  -4 -11    6.78    0.84
   1   4  11    6.84    0.87
  -2  -4 -11    5.41    0.86
  -2  -4 -11    4.24    0.68
   2   4  11    4.09    0.75
  -3  -4 -11    0.57    0.50
   3   4  11    1.08    0.59
  -4  -4 -11    0.17    0.65
   4   4  11   -0.20    0.58
   3  -5 -11    1.16    0.57
  -3   5  11    1.44    0.68
  -3   5  11    0.62    0.73
   2  -5 -11    1.38    0.55
  -2   5  11    2.08    0.64
  -2   5  11    1.62    0.69
   1  -5 -11   10.85    1.23
  -1   5  11   12.11    1.21
  -1   5  11   10.29    1.10
   0  -5 -11    2.21    0.59
   0   5  11    1.00    0.62
  -1  -5 -11   14.60    0.97
  -1  -5 -11   13.39    1.06
   1   5  11   12.27    1.23
  -2  -5 -11    0.90    0.47
  -2  -5 -11    0.58    0.47
   2   5  11    1.32    0.64
  -3  -5 -11    7.88    1.17
   3   5  11    6.90    1.12
  -4  -5 -11    1.81    0.91
   4   5  11    1.23    0.85
   2  -6 -11    9.57    1.28
  -2   6  11   10.35    1.39
  -2   6  11    9.95    1.21
   1  -6 -11   19.19    1.33
  -1   6  11   15.32    1.27
   0  -6 -11   35.49    1.75
   0   6  11   35.30    1.91
  -1  -6 -11   21.86    1.22
  -1  -6 -11   19.32    1.35
   1   6  11   17.46    1.66
  -2  -6 -11   14.80    1.23
  -2  -6 -11   13.10    1.16
   2   6  11   15.33    1.54
  -3  -6 -11    7.70    1.18
   3   6  11   10.09    1.35
   2  -7 -11    7.44    1.09
  -2   7  11    9.10    1.24
   1  -7 -11   29.60    1.72
  -1   7  11   27.69    1.76
   0  -7 -11   16.84    1.31
   0   7  11   17.55    1.51
  -1  -7 -11   25.25    1.60
   1   7  11   24.95    1.84
  -2  -7 -11    8.46    1.17
  -2  -7 -11    9.60    1.14
   2   7  11   11.14    1.48
  -3  -7 -11    0.24    0.59
  -3  -7 -11    0.48    0.64
   3   7  11    0.72    0.84
   1  -8 -11    6.77    1.10
  -1   8  11    6.98    1.09
   0  -8 -11    8.68    1.22
   0   8  11    7.72    1.18
  -1  -8 -11    3.20    0.85
   1   8  11    2.56    0.87
  -2  -8 -11    1.19    0.72
   2   8  11    0.98    0.99
  -3  -8 -11   -0.64    0.53
  -3  -8 -11    0.95    0.67
   3   8  11   -1.45    0.84
   0  -9 -11   -0.36    0.49
   0   9  11   -0.47    0.59
  -1  -9 -11    3.71    0.94
   1   9  11    3.19    1.01
  -2  -9 -11    7.70    1.39
   2   9  11    6.69    1.43
   1   7 -12    4.15    1.10
  -1  -7  12    3.09    1.01
   2   6 -12    0.64    0.77
  -2  -6  12    0.80    0.76
   1   6 -12    4.32    1.06
  -1  -6  12    4.57    1.05
   0   6 -12    0.04    0.62
   0  -6  12    0.96    0.69
  -1   6 -12    0.87    0.65
   1  -6  12    0.42    0.66
   3   5 -12    3.83    0.96
  -3  -5  12    2.58    0.89
  -3  -5  12    2.46    0.72
   2   5 -12   14.01    1.55
  -2  -5  12   17.50    1.25
  -2  -5  12   16.47    1.50
   1   5 -12    6.94    1.06
  -1  -5  12    8.28    1.25
   0   5 -12   13.53    1.50
   0  -5  12   10.64    1.34
  -1   5 -12   18.13    1.44
   1  -5  12   14.27    1.69
  -2   5 -12    6.29    1.16
   2  -5  12    3.77    1.04
   3   4 -12   10.06    1.35
  -3  -4  12   10.05    1.23
  -3  -4  12    9.59    1.36
   2   4 -12   12.76    1.39
  -2  -4  12   13.26    1.06
  -2  -4  12   12.75    1.47
   1   4 -12   22.59    1.53
  -1  -4  12   19.55    1.44
   0   4 -12   10.52    1.31
   0  -4  12    6.85    1.03
  -1   4 -12   16.03    1.33
   1  -4  12   12.31    1.51
  -2   4 -12   14.76    1.24
  -2   4 -12   14.80    1.63
   2  -4  12    9.20    1.30
   3   3 -12   12.15    1.34
   3   3 -12   12.38    1.36
  -3  -3  12   10.37    1.38
   2   3 -12   10.17    1.18
  -2  -3  12    7.96    1.05
  -2  -3  12    7.35    0.88
   1   3 -12    1.03    0.54
  -1  -3  12    0.27    0.46
   0   3 -12    1.41    0.58
   0  -3  12    0.90    0.54
  -1   3 -12    0.69    0.46
   1  -3  12    0.42    0.47
  -2   3 -12    2.53    0.66
  -2   3 -12    1.96    0.73
   2  -3  12    2.59    0.81
  -3   3 -12   -0.89    0.43
  -3   3 -12    0.08    0.61
   3  -3  12   -0.08    0.62
   4   2 -12    0.46    0.69
  -4  -2  12    0.54    0.71
   3   2 -12    0.69    0.54
  -3  -2  12   -0.13    0.54
   2   2 -12    0.11    0.36
   2   2 -12   -0.26    0.44
  -2  -2  12   -0.30    0.37
   1   2 -12   15.95    1.18
   1   2 -12   15.99    0.98
  -1  -2  12   13.07    1.09
   0   2 -12   23.61    1.36
   0  -2  12   19.61    1.28
  -1   2 -12   15.09    1.22
   1  -2  12   17.06    1.02
   1  -2  12   15.81    1.19
  -2   2 -12   23.32    1.58
  -2   2 -12   25.26    1.39
   2  -2  12   20.43    1.50
  -3   2 -12    3.41    0.75
  -3   2 -12    4.80    1.08
   3  -2  12    4.14    1.00
   4   1 -12    4.03    0.92
  -4  -1  12    4.40    1.08
   3   1 -12   22.89    1.49
  -3  -1  12   21.96    1.57
   2   1 -12   37.55    1.68
   2   1 -12   38.16    1.70
  -2  -1  12   38.59    1.86
   1   1 -12   28.07    1.25
   1   1 -12   26.96    1.40
  -1  -1  12   25.40    1.43
   0   1 -12   48.29    1.88
   0  -1  12   45.25    1.84
  -1   1 -12   17.41    1.22
   1  -1  12   15.67    0.97
   1  -1  12   15.31    1.11
  -2   1 -12   14.19    1.22
   2  -1  12   14.39    1.14
   2  -1  12   12.17    1.30
  -3   1 -12    3.07    0.88
   3  -1  12    1.57    0.72
   3  -1  12    2.96    0.79
   4   0 -12   14.06    1.57
  -4   0  12   15.91    1.78
   3   0 -12   38.41    1.89
  -3   0  12   35.07    1.97
   2   0 -12   44.00    1.82
  -2   0  12   43.39    1.97
   1   0 -12   26.74    1.25
   1   0 -12   27.32    1.32
  -1   0  12   27.42    1.43
   0   0 -12   13.88    0.79
   0   0 -12   12.74    0.95
   0   0  12   14.70    0.82
   0   0  12   14.63    1.01
  -1   0 -12    3.59    0.71
   1   0  12    2.78    0.52
   1   0  12    2.93    0.60
  -2   0 -12    0.36    0.49
   2   0  12   -0.73    0.32
   2   0  12   -0.08    0.38
  -3   0 -12    1.24    0.75
   3   0  12    0.92    0.59
   4  -1 -12    1.17    0.70
  -4   1  12    1.92    0.88
   3  -1 -12    5.12    0.95
  -3   1  12    2.33    0.79
   2  -1 -12    5.16    0.82
  -2   1  12    2.92    0.72
   1  -1 -12   12.81    0.87
   1  -1 -12   12.69    0.91
  -1   1  12   14.13    1.06
   0  -1 -12    0.04    0.28
   0  -1 -12    0.36    0.33
   0   1  12   -0.21    0.31
   0   1  12    0.91    0.40
  -1  -1 -12    9.12    0.99
   1   1  12   10.19    0.85
   1   1  12    7.95    0.85
  -2  -1 -12    0.09    0.38
   2   1  12    0.18    0.40
   2   1  12   -0.09    0.35
  -3  -1 -12    4.33    1.00
   3   1  12    2.50    0.72
  -4  -1 -12    1.15    0.83
   4   1  12    0.48    0.69
   3  -2 -12    5.38    0.94
  -3   2  12    3.14    0.83
   2  -2 -12   27.75    1.46
  -2   2  12   25.76    1.56
   1  -2 -12    0.24    0.35
  -1   2  12    0.35    0.41
  -1   2  12    0.18    0.41
   0  -2 -12   68.99    2.10
   0  -2 -12   71.98    2.10
   0   2  12   71.26    2.21
   0   2  12   69.45    2.18
  -1  -2 -12   29.44    1.46
  -1  -2 -12   29.53    1.22
   1   2  12   32.90    1.44
   1   2  12   29.26    1.27
  -2  -2 -12   23.36    1.45
   2   2  12   20.21    1.27
  -3  -2 -12    2.88    0.85
   3   2  12    3.23    0.77
  -4  -2 -12    4.17    1.11
   4   2  12    3.17    0.96
   3  -3 -12   26.76    1.65
  -3   3  12   22.73    1.74
   2  -3 -12   42.16    1.89
  -2   3  12   39.59    1.96
   1  -3 -12   75.57    2.44
  -1   3  12   75.78    2.51
  -1   3  12   74.40    2.42
   0  -3 -12   91.13    2.46
   0  -3 -12   91.50    2.57
   0   3  12   86.24    2.50
   0   3  12   89.37    2.73
  -1  -3 -12   81.54    2.56
  -1  -3 -12   80.57    2.35
   1   3  12   86.67    2.65
  -2  -3 -12   15.65    1.21
   2   3  12   11.86    1.11
  -3  -3 -12    9.31    1.25
   3   3  12    8.34    1.03
  -4  -3 -12    0.45    0.70
   4   3  12    0.02    0.65
   3  -4 -12    9.86    1.26
  -3   4  12   11.51    1.50
   2  -4 -12   20.79    1.41
  -2   4  12   20.01    1.35
  -2   4  12   18.39    1.41
   1  -4 -12   23.28    1.32
  -1   4  12   23.60    1.43
  -1   4  12   23.14    1.35
   0  -4 -12   10.29    1.07
   0   4  12    7.96    0.82
   0   4  12    8.44    1.04
  -1  -4 -12    3.92    0.66
  -1  -4 -12    3.43    0.70
   1   4  12    4.64    0.85
  -2  -4 -12    0.38    0.38
   2   4  12   -0.04    0.49
  -3  -4 -12   -0.43    0.44
   3   4  12    0.79    0.58
  -4  -4 -12    0.44    0.73
   4   4  12    0.77    0.70
   3  -5 -12   -0.17    0.46
  -3   5  12    0.07    0.68
   2  -5 -12    2.33    0.73
  -2   5  12    1.20    0.60
  -2   5  12    1.68    0.67
   1  -5 -12   17.89    1.26
  -1   5  12   18.07    1.36
  -1   5  12   17.69    1.26
   0  -5 -12    8.14    1.00
   0   5  12   10.62    1.22
  -1  -5 -12   30.91    1.58
  -1  -5 -12   31.28    1.46
   1   5  12   32.04    1.81
  -2  -5 -12   15.22    1.21
  -2  -5 -12   15.94    1.19
   2   5  12   15.24    1.46
  -3  -5 -12    3.77    0.94
   3   5  12    3.07    0.85
   2  -6 -12   15.54    1.60
  -2   6  12   17.39    1.73
  -2   6  12   16.12    1.52
   1  -6 -12   42.28    2.02
  -1   6  12   44.99    2.11
   0  -6 -12   30.22    1.65
   0   6  12   29.02    1.83
  -1  -6 -12   14.98    1.43
   1   6  12   18.35    1.58
  -2  -6 -12   23.17    1.49
  -2  -6 -12   21.73    1.47
   2   6  12   22.78    1.77
  -3  -6 -12   17.80    1.58
   3   6  12   18.53    1.85
   2  -7 -12   18.33    1.89
  -2   7  12   16.95    1.66
   1  -7 -12   15.66    1.57
  -1   7  12   13.30    1.43
   0  -7 -12    4.95    0.99
   0   7  12    5.87    1.07
  -1  -7 -12   11.74    1.35
   1   7  12   10.95    1.44
  -2  -7 -12    2.63    0.69
  -2  -7 -12    5.31    1.01
   2   7  12    2.09    0.96
  -3  -7 -12    1.74    0.74
   3   7  12    1.53    0.95
   1  -8 -12    6.03    1.19
  -1   8  12    4.40    0.98
   0  -8 -12    3.49    0.87
   0   8  12    3.83    0.98
  -1  -8 -12    0.29    0.51
   1   8  12    0.20    0.76
  -2  -8 -12   -0.62    0.58
   2   8  12    0.32    0.95
   0  -9 -12    8.48    1.38
   0   9  12    4.75    1.13
  -1  -9 -12   11.48    1.48
   1   9  12   11.64    1.63
   2   6 -13   -0.43    0.68
  -2  -6  13   -0.27    0.63
   1   6 -13    9.04    1.40
  -1  -6  13    7.52    1.24
   0   6 -13    2.54    0.83
   0  -6  13    4.05    1.03
  -3  -5  13    5.06    1.21
   2   5 -13   10.04    1.38
  -2  -5  13   11.21    1.20
  -2  -5  13    7.40    1.23
   1   5 -13   22.53    1.72
  -1  -5  13   21.26    1.65
   0   5 -13   13.08    1.49
   0  -5  13   11.09    1.43
  -1   5 -13    7.96    1.16
   1  -5  13    3.81    1.02
   3   4 -13    8.30    1.26
  -3  -4  13    7.61    1.30
   2   4 -13   12.46    1.42
  -2  -4  13   12.96    1.10
  -2  -4  13   12.80    1.51
   1   4 -13   22.40    1.58
  -1  -4  13   18.83    1.47
   0   4 -13    4.63    0.90
   0  -4  13    2.35    0.76
  -1   4 -13    5.65    1.03
   1  -4  13    3.01    0.86
  -2   4 -13    1.53    0.74
   2  -4  13    1.84    0.75
   3   3 -13    2.54    0.76
   3   3 -13    1.24    0.68
  -3  -3  13    0.66    0.73
   2   3 -13    1.36    0.57
   2   3 -13    1.57    0.71
  -2  -3  13    1.95    0.68
   1   3 -13    6.25    0.96
  -1  -3  13    3.96    0.84
   0   3 -13    0.36    0.44
   0  -3  13    0.02    0.42
  -1   3 -13   -0.24    0.45
   1  -3  13    0.41    0.49
  -2   3 -13    1.05    0.63
  -2   3 -13    0.64    0.47
   2  -3  13    0.79    0.62
   3   2 -13    2.62    0.75
  -3  -2  13    2.40    0.81
   2   2 -13    8.58    1.08
   2   2 -13    8.11    0.99
  -2  -2  13    7.71    1.09
   1   2 -13   16.35    1.01
   1   2 -13   14.96    1.20
  -1  -2  13   13.62    1.15
   0   2 -13   18.95    1.30
   0  -2  13   17.40    1.24
  -1   2 -13   12.82    1.31
   1  -2  13   10.52    1.22
  -2   2 -13   16.53    1.41
   2  -2  13   13.10    1.47
   2  -2  13   11.61    1.14
  -3   2 -13    6.91    1.28
   3  -2  13    5.72    1.15
   3  -2  13    4.49    0.91
   3   1 -13   38.21    1.91
  -3  -1  13   35.88    2.04
   2   1 -13   57.34    2.13
   2   1 -13   58.82    2.13
  -2  -1  13   47.85    2.21
   1   1 -13   58.94    1.94
   1   1 -13   54.91    2.10
  -1  -1  13   54.40    2.20
   0   1 -13   49.45    1.97
   0  -1  13   48.93    2.00
  -1   1 -13   23.27    1.44
   1  -1  13   27.15    1.25
   1  -1  13   24.78    1.42
  -2   1 -13    8.24    1.15
   2  -1  13    8.87    0.98
   2  -1  13    7.14    1.05
  -3   1 -13   -0.36    0.60
   3  -1  13   -0.31    0.53
   3  -1  13    0.45    0.63
   3   0 -13   19.16    1.40
  -3   0  13   16.71    1.47
   2   0 -13    9.12    1.04
  -2   0  13   10.11    1.17
   1   0 -13   22.16    1.17
   1   0 -13   20.04    1.16
  -1   0  13   17.08    1.20
   0   0 -13   14.18    0.83
   0   0 -13   11.95    0.99
   0   0  13   13.14    1.03
  -1   0 -13    2.33    0.63
   1   0  13    1.97    0.54
   1   0  13    2.86    0.55
  -2   0 -13   -0.54    0.38
   2   0  13    0.21    0.42
   2   0  13   -0.24    0.39
  -3   0 -13    0.59    0.66
   3   0  13    0.74    0.58
   3  -1 -13   -0.51    0.40
  -3   1  13    0.02    0.54
   2  -1 -13    4.94    0.84
  -2   1  13    4.23    0.83
   1  -1 -13   69.63    2.20
   1  -1 -13   73.53    2.18
  -1   1  13   67.17    2.45
   0  -1 -13    1.43    0.42
   0  -1 -13    0.78    0.39
   0   1  13    0.75    0.44
   0   1  13    1.26    0.51
  -1  -1 -13   25.43    1.39
   1   1  13   23.89    1.21
   1   1  13   19.73    1.16
  -2  -1 -13    3.93    0.83
   2   1  13    3.69    0.74
  -3  -1 -13    3.97    0.91
   3   1  13    2.79    0.77
   3  -2 -13    8.22    1.18
  -3   2  13    7.69    1.26
   2  -2 -13   52.15    2.05
  -2   2  13   45.19    2.14
   1  -2 -13   26.60    1.35
  -1   2  13   23.60    1.40
   0  -2 -13  137.56    3.35
   0  -2 -13  136.97    3.47
   0   2  13  142.40    3.54
   0   2  13  139.18    3.58
  -1  -2 -13   17.36    1.18
   1   2  13   18.19    1.16
   1   2  13   17.86    1.05
  -2  -2 -13   18.64    1.38
   2   2  13   19.31    1.28
  -3  -2 -13    9.50    1.39
   3   2  13    7.53    1.08
   3  -3 -13    8.76    1.18
  -3   3  13    9.15    1.32
   2  -3 -13   22.71    1.44
  -2   3  13   16.72    1.41
   1  -3 -13   45.32    1.86
  -1   3  13   42.28    1.89
  -1   3  13   46.15    1.89
   0  -3 -13   32.32    1.45
   0  -3 -13   33.64    1.38
   0   3  13   29.90    1.40
   0   3  13   32.58    1.66
  -1  -3 -13   44.75    1.86
  -1  -3 -13   47.30    1.74
   1   3  13   46.82    1.97
  -2  -3 -13    3.75    0.79
   2   3  13    4.01    0.77
  -3  -3 -13    1.09    0.68
   3   3  13    0.42    0.54
   3  -4 -13    0.64    0.60
  -3   4  13    2.28    0.89
   2  -4 -13    7.22    1.07
  -2   4  13    6.77    1.05
   1  -4 -13    0.13    0.34
  -1   4  13    0.46    0.50
  -1   4  13    0.41    0.47
   0  -4 -13    1.17    0.51
   0   4  13    1.38    0.61
  -1  -4 -13    9.64    1.02
  -1  -4 -13   11.22    1.09
   1   4  13    8.50    1.07
  -2  -4 -13    3.12    0.82
   2   4  13    3.76    0.80
  -3  -4 -13    1.67    0.70
   3   4  13    1.58    0.72
   2  -5 -13    5.08    0.97
  -2   5  13    2.84    0.75
  -2   5  13    3.43    0.90
   1  -5 -13    8.18    1.10
  -1   5  13    7.36    1.04
  -1   5  13    6.97    0.96
   0  -5 -13   54.64    2.16
   0   5  13   52.92    2.35
  -1  -5 -13   21.22    1.35
  -1  -5 -13   20.93    1.25
   1   5  13   21.85    1.67
  -2  -5 -13   26.75    1.62
   2   5  13   28.88    1.84
  -3  -5 -13    3.57    1.02
   3   5  13    5.92    1.08
   2  -6 -13   13.35    1.64
  -2   6  13   12.45    1.51
  -2   6  13   10.51    1.28
   1  -6 -13   29.38    1.74
  -1   6  13   28.51    1.84
   0  -6 -13   22.12    1.49
   0   6  13   24.66    1.76
  -1  -6 -13   20.32    1.46
   1   6  13   21.16    1.74
  -2  -6 -13    5.16    0.91
  -2  -6 -13    5.09    0.89
   2   6  13    4.99    1.08
  -3  -6 -13    0.31    0.68
   3   6  13    0.64    0.82
   1  -7 -13   10.68    1.39
  -1   7  13   12.74    1.45
   0  -7 -13    5.25    0.95
   0   7  13    5.02    1.04
  -1  -7 -13    3.81    0.91
   1   7  13    2.62    1.01
  -2  -7 -13   -0.21    0.41
  -2  -7 -13    0.15    0.50
   2   7  13    0.75    0.89
  -3  -7 -13    0.59    0.70
   3   7  13   -0.29    0.85
   1  -8 -13    0.52    0.58
  -1   8  13    0.23    0.70
   0  -8 -13   -0.31    0.50
   0   8  13    0.12    0.66
  -1  -8 -13    0.60    0.62
   1   8  13    0.83    0.89
  -2  -8 -13    0.30    0.67
   2   8  13    0.27    0.98
  -1  -9 -13   -0.15    0.63
   1   9  13    0.02    0.89
   1   6 -14    1.79    0.90
  -1  -6  14    0.85    0.77
   2   5 -14   12.01    1.51
  -2  -5  14    8.46    1.42
   1   5 -14   21.73    1.76
  -1  -5  14   25.44    1.82
   0   5 -14    4.49    0.92
   0  -5  14    2.70    0.84
  -1   5 -14    5.13    1.04
   1  -5  14    3.00    0.93
   3   4 -14    7.60    1.33
   3   4 -14    5.33    1.03
  -3  -4  14    4.10    1.05
   2   4 -14    5.08    1.04
   2   4 -14    4.66    0.87
  -2  -4  14    4.97    1.04
   1   4 -14    7.16    1.13
  -1  -4  14    4.77    0.97
   0   4 -14    0.10    0.50
   0  -4  14   -0.11    0.48
  -1   4 -14    0.05    0.56
   1  -4  14    0.19    0.57
   2  -4  14   -0.07    0.67
   3   3 -14    0.61    0.67
  -3  -3  14    0.74    0.76
   2   3 -14    0.36    0.51
   2   3 -14    0.12    0.54
  -2  -3  14    0.02    0.52
   1   3 -14    3.54    0.81
  -1  -3  14    2.83    0.77
   0   3 -14    6.06    0.99
   0  -3  14    5.96    1.06
  -1   3 -14    3.38    0.87
   1  -3  14    2.23    0.78
  -2   3 -14    0.62    0.65
   2  -3  14   -0.33    0.63
   3   2 -14    3.96    0.89
  -3  -2  14    3.95    1.02
   2   2 -14   18.20    1.26
   2   2 -14   18.07    1.39
  -2  -2  14   15.07    1.37
   1   2 -14    5.11    0.87
  -1  -2  14    4.09    0.81
   0   2 -14   44.20    1.98
   0  -2  14   38.91    1.91
  -1   2 -14    9.56    1.21
   1  -2  14    7.26    1.03
  -2   2 -14    9.32    1.30
   2  -2  14   10.47    1.14
   2  -2  14    7.48    1.14
   3   1 -14   20.03    1.49
  -3  -1  14   16.94    1.52
   2   1 -14   27.42    1.52
   2   1 -14   29.48    1.68
  -2  -1  14   27.85    1.72
   1   1 -14   53.22    1.83
   1   1 -14   48.83    2.02
  -1  -1  14   45.98    2.10
   0   1 -14   11.89    1.06
   0  -1  14   11.90    1.07
  -1   1 -14   16.10    1.29
   1  -1  14   15.45    1.23
  -2   1 -14    1.90    0.68
   2  -1  14    1.73    0.61
   2  -1  14    1.76    0.65
  -3   1 -14    0.12    0.71
   3  -1  14    0.93    0.65
   3   0 -14   10.74    1.27
  -3   0  14   11.79    1.54
   2   0 -14   11.60    1.20
  -2   0  14   10.97    1.32
   1   0 -14    2.76    0.61
   1   0 -14    3.02    0.62
  -1   0  14    1.59    0.60
   0   0 -14    0.09    0.41
   0   0  14    0.54    0.45
  -1   0 -14    2.28    0.63
   1   0  14    1.52    0.47
   1   0  14    1.16    0.53
  -2   0 -14    1.99    0.71
   2   0  14    1.08    0.50
   2   0  14    0.82    0.54
  -3   0 -14    2.04    0.87
   3   0  14    2.15    0.75
   3  -1 -14    2.72    0.80
  -3   1  14    2.47    0.88
   2  -1 -14   12.48    1.30
  -2   1  14   10.96    1.34
   1  -1 -14   13.28    0.98
   1  -1 -14   13.73    0.96
  -1   1  14   13.40    1.16
   0  -1 -14   13.10    0.90
   0  -1 -14   12.29    1.00
   0   1  14   14.02    1.06
   0   1  14   12.31    1.04
  -1  -1 -14   31.74    1.65
   1   1  14   32.28    1.53
   1   1  14   37.47    1.57
  -2  -1 -14   14.29    1.30
   2   1  14   12.24    1.15
  -3  -1 -14    3.27    0.97
   3   1  14    2.58    0.74
   3  -2 -14   17.26    1.72
  -3   2  14   16.60    1.75
   2  -2 -14   35.81    1.75
  -2   2  14   29.38    1.79
   1  -2 -14   39.20    1.71
  -1   2  14   38.32    1.83
   0  -2 -14    6.84    0.82
   0  -2 -14    6.68    0.81
   0   2  14    6.33    0.85
   0   2  14    8.01    0.92
  -1  -2 -14   46.39    1.97
   1   2  14   43.99    1.72
   1   2  14   45.22    1.82
  -2  -2 -14   13.32    1.45
   2   2  14   15.14    1.25
  -3  -2 -14    3.22    0.98
   3   2  14    3.77    0.85
   3  -3 -14   20.52    1.57
  -3   3  14   18.27    1.67
   2  -3 -14   19.97    1.40
  -2   3  14   20.03    1.53
   1  -3 -14   12.95    1.27
  -1   3  14   13.60    1.31
  -1   3  14   12.06    1.17
   0  -3 -14    8.74    0.98
   0  -3 -14    6.96    0.81
   0   3  14    6.79    0.98
   0   3  14    7.09    0.88
  -1  -3 -14    9.33    1.05
   1   3  14    9.86    1.10
  -2  -3 -14    1.59    0.62
   2   3  14    1.22    0.64
  -3  -3 -14   -0.16    0.61
   3   3  14   -0.33    0.53
   3  -4 -14    3.13    0.87
  -3   4  14    2.22    0.96
   2  -4 -14    3.68    0.82
  -2   4  14    2.48    0.76
   1  -4 -14    0.70    0.52
  -1   4  14    0.43    0.55
  -1   4  14    0.93    0.58
   0  -4 -14    0.28    0.45
   0   4  14    0.79    0.65
  -1  -4 -14   12.35    1.02
  -1  -4 -14   11.43    1.02
   1   4  14   11.87    1.25
  -2  -4 -14    3.52    0.81
   2   4  14    3.87    0.87
  -3  -4 -14    7.09    1.28
   3   4  14    3.79    0.93
   2  -5 -14    9.40    1.29
  -2   5  14    7.92    1.19
  -2   5  14    9.11    1.22
   1  -5 -14   22.84    1.50
  -1   5  14   21.12    1.56
   0  -5 -14   43.94    1.98
   0   5  14   44.50    2.27
  -1  -5 -14   12.55    1.29
  -1  -5 -14   10.43    0.96
   1   5  14   13.24    1.47
  -2  -5 -14   29.70    1.76
   2   5  14   28.92    1.93
  -3  -5 -14    5.68    1.13
   3   5  14    2.98    0.91
   2  -6 -14   17.77    1.81
  -2   6  14   18.00    1.56
  -2   6  14   16.16    1.74
   1  -6 -14   43.15    2.15
  -1   6  14   42.43    2.25
   0  -6 -14   35.63    1.88
   0   6  14   34.59    2.14
  -1  -6 -14    8.97    1.20
   1   6  14   12.72    1.60
  -2  -6 -14    2.50    0.74
  -2  -6 -14    3.20    0.77
   2   6  14    2.70    0.94
  -3  -6 -14    1.59    0.85
   3   6  14    0.67    0.84
   1  -7 -14    5.06    1.02
  -1   7  14    7.86    1.21
   0  -7 -14    0.88    0.61
   0   7  14   -0.27    0.73
  -1  -7 -14   -0.23    0.54
   1   7  14    0.35    0.87
  -2  -7 -14    0.70    0.61
   2   7  14    0.18    0.89
   0  -8 -14    2.82    0.95
   0   8  14    2.66    0.99
  -1  -8 -14   19.61    1.88
   1   8  14   18.49    1.97
  -2  -8 -14    1.30    0.83
   2   8  14    0.34    1.06
  -2  -5  15    3.84    1.07
   1   5 -15   10.31    1.44
  -1  -5  15    7.81    1.32
   0   5 -15    8.87    1.31
   0  -5  15    6.45    1.22
   2   4 -15    1.28    0.78
  -2  -4  15    0.97    0.73
   1   4 -15    3.33    0.86
  -1  -4  15    2.16    0.76
   0   4 -15    0.44    0.55
   0  -4  15    0.00    0.43
  -1   4 -15   -0.04    0.61
   1  -4  15    0.34    0.56
   3   3 -15    0.93    0.63
  -3  -3  15    0.71    0.79
   2   3 -15    4.51    0.83
   2   3 -15    4.42    0.96
  -2  -3  15    4.43    1.00
   1   3 -15    5.15    0.96
  -1  -3  15    3.07    0.82
   0   3 -15    1.46    0.64
   0  -3  15    1.33    0.60
  -1   3 -15    5.41    1.03
   1  -3  15    3.24    0.84
  -2   3 -15    1.20    0.68
   2  -3  15    0.03    0.66
   3   2 -15    8.91    1.22
  -3  -2  15    6.48    1.20
   2   2 -15   32.20    1.64
   2   2 -15   28.60    1.74
  -2  -2  15   30.42    1.90
   1   2 -15   18.15    1.38
  -1  -2  15   13.67    1.26
   0   2 -15   30.74    1.71
   0  -2  15   26.97    1.65
  -1   2 -15    4.78    0.93
   1  -2  15    4.29    0.94
  -2   2 -15    4.59    1.03
   2  -2  15    3.28    0.85
   3   1 -15    8.31    1.19
  -3  -1  15    5.11    1.09
   2   1 -15   32.46    1.64
  -2  -1  15   26.23    1.76
   1   1 -15   32.02    1.46
   1   1 -15   29.77    1.60
  -1  -1  15   27.13    1.68
   0   1 -15   14.75    1.18
   0  -1  15   15.76    1.24
  -1   1 -15   10.95    1.32
   1  -1  15    9.23    1.11
  -2   1 -15    1.97    0.74
   2  -1  15    0.79    0.62
   2  -1  15    0.99    0.62
   3   0 -15    3.23    0.87
  -3   0  15    3.31    0.99
   2   0 -15    1.92    0.65
  -2   0  15    1.52    0.71
   1   0 -15    5.61    0.82
   1   0 -15    5.34    0.79
  -1   0  15    3.97    0.81
   0   0 -15    0.13    0.41
   0   0  15    0.03    0.42
  -1   0 -15    3.81    0.83
   1   0  15    4.32    0.71
   1   0  15    3.44    0.74
  -2   0 -15    2.50    0.79
   2   0  15    1.74    0.60
   2   0  15    1.33    0.62
  -3   0 -15    1.59    0.84
   3   0  15    1.94    0.78
   3  -1 -15    2.04    0.77
  -3   1  15    2.15    0.87
   2  -1 -15   15.68    1.24
  -2   1  15   15.76    1.64
   1  -1 -15   40.55    1.71
  -1   1  15   39.60    1.96
   0  -1 -15  104.29    3.09
   0   1  15   99.01    3.11
  -1  -1 -15    6.42    0.97
   1   1  15    5.71    0.78
   1   1  15    6.07    0.85
  -2  -1 -15   24.81    1.71
   2   1  15   27.66    1.57
  -3  -1 -15    2.97    0.97
   3   1  15    3.05    0.84
   3  -2 -15   13.33    1.48
  -3   2  15   12.99    1.63
   2  -2 -15   25.51    1.56
  -2   2  15   23.73    1.70
   1  -2 -15   50.79    2.00
  -1   2  15   45.78    2.12
   0  -2 -15   11.15    0.95
   0  -2 -15   12.79    0.96
   0   2  15   13.09    1.20
   0   2  15   11.34    1.03
  -1  -2 -15   50.46    2.15
   1   2  15   53.27    2.08
  -2  -2 -15    1.11    0.66
   2   2  15    1.11    0.57
  -3  -2 -15    0.53    0.69
   3   2  15   -0.07    0.57
   3  -3 -15    0.68    0.61
  -3   3  15    1.25    0.84
   2  -3 -15    3.44    0.83
  -2   3  15    3.08    0.88
   1  -3 -15    2.27    0.67
  -1   3  15    2.21    0.69
   0  -3 -15    0.11    0.40
   0   3  15   -0.13    0.42
   0   3  15    0.34    0.55
  -1  -3 -15    1.02    0.49
   1   3  15   -0.10    0.52
  -2  -3 -15    0.52    0.53
   2   3  15   -0.23    0.54
  -3  -3 -15    0.78    0.72
   3   3  15    0.52    0.65
   2  -4 -15    5.12    0.98
  -2   4  15    5.24    1.06
   1  -4 -15    7.34    1.05
  -1   4  15    4.66    0.91
  -1   4  15    4.75    0.91
   0  -4 -15    4.48    0.84
   0   4  15    6.76    1.10
  -1  -4 -15    7.53    0.96
  -1  -4 -15    9.99    1.09
   1   4  15    6.34    1.05
  -2  -4 -15   13.93    1.55
   2   4  15   13.19    1.43
  -3  -4 -15    5.59    1.13
   3   4  15    6.20    1.13
   2  -5 -15   15.88    1.63
  -2   5  15   16.21    1.73
   1  -5 -15   17.83    1.41
  -1   5  15   17.98    1.64
   0  -5 -15   28.21    1.63
   0   5  15   27.62    1.92
  -1  -5 -15   25.37    1.54
   1   5  15   25.62    1.90
  -2  -5 -15    8.37    1.18
   2   5  15    9.18    1.29
  -3  -5 -15    4.96    1.09
   3   5  15    1.91    0.98
   2  -6 -15   17.15    1.85
  -2   6  15   14.36    1.66
   1  -6 -15   17.07    1.71
  -1   6  15   20.66    1.84
   0  -6 -15   16.49    1.66
   0   6  15   13.19    1.56
  -1  -6 -15    8.64    1.21
   1   6  15    8.81    1.36
  -2  -6 -15    1.85    0.71
   2   6  15    0.73    0.85
  -3  -6 -15    0.44    0.63
   3   6  15   -0.38    0.90
   1  -7 -15   -0.67    0.50
  -1   7  15    0.04    0.64
   0  -7 -15    0.38    0.53
   0   7  15   -0.01    0.84
  -1  -7 -15    1.64    0.80
   1   7  15    1.94    1.03
  -2  -7 -15    0.45    0.62
   2   7  15    2.02    1.12
   0  -8 -15   16.16    1.84
   0   8  15   14.68    1.79
  -1  -8 -15    4.75    1.05
   1   8  15    5.62    1.47
   2   4 -16   -0.08    0.68
  -2  -4  16    0.53    0.72
   1   4 -16   -0.21    0.61
  -1  -4  16    0.38    0.60
   0   4 -16    0.39    0.63
   0  -4  16   -0.06    0.53
  -1   4 -16    3.14    0.93
   1  -4  16    1.77    0.84
   2   3 -16    7.89    1.21
  -2  -3  16    6.01    1.26
   1   3 -16    7.19    1.14
  -1  -3  16    5.91    1.10
   0   3 -16   15.86    1.39
   0  -3  16   11.68    1.38
  -1   3 -16   10.80    1.39
   1  -3  16    8.17    1.22
  -3  -2  16    7.09    1.39
   2   2 -16   18.79    1.38
   2   2 -16   19.84    1.50
  -2  -2  16   14.82    1.66
   1   2 -16   17.02    1.34
  -1  -2  16   11.07    1.36
   0   2 -16    8.79    1.15
   0  -2  16    6.57    1.05
  -1   2 -16   12.29    1.44
   1  -2  16    9.78    1.32
  -2   2 -16    0.15    0.63
   2  -2  16    0.43    0.66
   3   1 -16    4.61    0.98
  -3  -1  16    3.10    0.98
   2   1 -16    2.82    0.71
  -2  -1  16    3.24    0.89
   1   1 -16    3.68    0.78
  -1  -1  16    3.92    0.87
   0   1 -16    2.54    0.77
   0  -1  16    3.79    0.91
  -1   1 -16    0.21    0.55
   1  -1  16    0.36    0.51
  -2   1 -16    0.27    0.57
   2  -1  16   -0.14    0.49
   3   0 -16    2.11    0.80
  -3   0  16    1.32    0.85
   2   0 -16   -0.03    0.45
  -2   0  16   -0.03    0.57
   1   0 -16    5.01    0.77
   1   0 -16    6.61    0.91
  -1   0  16    6.84    1.03
   0   0 -16    5.84    0.90
   0   0  16    5.67    0.92
  -1   0 -16   14.66    1.51
   1   0  16   12.23    1.29
  -2   0 -16    6.24    1.14
   2   0  16    3.85    0.79
   3  -1 -16    6.42    1.09
  -3   1  16    3.68    1.09
   2  -1 -16   24.44    1.49
  -2   1  16   19.10    1.59
   1  -1 -16   25.40    1.38
  -1   1  16   21.45    1.54
   0  -1 -16   22.31    1.41
   0   1  16   23.41    1.49
  -1  -1 -16   14.54    1.26
   1   1  16   13.71    1.18
   1   1  16   11.30    1.21
  -2  -1 -16   14.94    1.62
   2   1  16   17.63    1.41
  -3  -1 -16    4.73    1.22
   3   1  16    1.05    0.76
   3  -2 -16   22.84    1.70
  -3   2  16   20.58    2.09
   2  -2 -16   21.86    1.49
  -2   2  16   22.45    1.73
   1  -2 -16   30.77    1.59
  -1   2  16   28.99    1.75
   0  -2 -16    5.19    0.82
   0  -2 -16    5.76    0.82
   0   2  16    6.97    0.96
  -1  -2 -16    1.11    0.61
   1   2  16    0.42    0.56
  -2  -2 -16    7.31    1.20
   2   2  16    3.46    0.80
  -3  -2 -16    0.24    0.71
   3   2  16   -0.52    0.61
   2  -3 -16    9.10    1.18
  -2   3  16    7.64    1.26
   1  -3 -16    1.75    0.63
  -1   3  16    2.08    0.70
   0  -3 -16    2.38    0.66
   0   3  16    2.00    0.73
  -1  -3 -16    0.11    0.43
   1   3  16    0.31    0.61
  -2  -3 -16    6.88    1.22
   2   3  16    4.63    0.89
  -3  -3 -16    0.55    0.77
   3   3  16    1.18    0.75
   2  -4 -16    0.53    0.60
  -2   4  16    0.69    0.77
   1  -4 -16    6.31    1.01
  -1   4  16    9.98    1.31
   0  -4 -16   11.84    1.24
   0   4  16   14.14    1.52
  -1  -4 -16    3.01    0.65
   1   4  16    4.61    1.01
  -2  -4 -16    8.45    1.24
   2   4  16    8.16    1.23
  -3  -4 -16    4.51    1.17
   3   4  16    2.15    0.86
   2  -5 -16   28.09    1.88
  -2   5  16   27.28    2.00
   1  -5 -16   17.27    1.45
  -1   5  16   16.85    1.65
   0  -5 -16   37.57    1.92
   0   5  16   33.13    2.09
  -1  -5 -16   10.77    1.22
   1   5  16    9.67    1.43
  -2  -5 -16    6.68    1.12
   2   5  16    6.80    1.23
  -3  -5 -16    2.14    0.82
   3   5  16    2.29    1.02
   1  -6 -16   12.60    1.56
  -1   6  16   12.42    1.51
   0  -6 -16   10.39    1.33
   0   6  16   10.47    1.42
  -1  -6 -16    7.81    1.17
   1   6  16    7.96    1.42
  -2  -6 -16   -0.44    0.48
   2   6  16   -0.51    0.82
  -1   7  16    0.63    0.75
   0  -7 -16    0.69    0.67
   0   7  16   -0.07    0.85
  -1  -7 -16   13.66    1.63
   1   7  16   14.28    1.85
   2   7  16    1.28    1.09
   1   4 -17    3.81    0.95
  -1  -4  17    1.87    0.81
   0   4 -17    1.03    0.74
   0  -4  17    0.53    0.65
   2   3 -17   13.65    1.56
  -2  -3  17   13.50    1.69
  -1  -3  17    7.79    1.27
   0   3 -17   10.83    1.35
   0  -3  17    9.30    1.35
  -1   3 -17    5.86    1.13
   1  -3  17    4.48    1.07
   2   2 -17   10.96    1.24
  -2  -2  17    7.88    1.36
   1   2 -17   16.49    1.43
  -1  -2  17   13.50    1.61
   0   2 -17    5.87    1.03
   0  -2  17    3.81    0.89
  -1   2 -17    5.92    1.13
   1  -2  17    3.36    0.89
   2   1 -17   -0.06    0.50
  -2  -1  17    0.57    0.66
   1   1 -17    2.41    0.72
  -1  -1  17    0.69    0.62
   0   1 -17    0.11    0.55
   0  -1  17   -0.32    0.46
  -1   1 -17   -0.33    0.52
   1  -1  17    0.75    0.55
  -2   1 -17    1.01    0.72
   2  -1  17    0.06    0.64
   2   0 -17   -0.02    0.50
  -2   0  17    0.04    0.67
   1   0 -17   11.44    1.18
  -1   0  17   11.14    1.35
   0   0 -17   13.49    1.23
   0   0  17   11.57    1.26
  -1   0 -17    9.15    1.26
   1   0  17    6.86    1.06
  -2   0 -17    2.36    0.88
   2   0  17    4.62    0.89
   2  -1 -17   18.41    1.38
  -2   1  17   18.14    1.62
   1  -1 -17   18.27    1.28
  -1   1  17   18.37    1.48
   0  -1 -17   38.46    1.88
   0   1  17   35.61    1.89
  -1  -1 -17   26.62    1.67
   1   1  17   24.88    1.53
  -2  -1 -17    1.55    0.76
   2   1  17    1.98    0.69
   2  -2 -17    6.12    1.07
  -2   2  17    8.81    1.41
   1  -2 -17   21.12    1.38
  -1   2  17   18.03    1.53
   0  -2 -17    4.68    0.79
   0   2  17    6.03    1.01
  -1  -2 -17    0.37    0.49
   1   2  17    0.68    0.62
  -2  -2 -17    1.38    0.82
   2   2  17    0.68    0.63
   2  -3 -17    4.25    0.97
  -2   3  17    4.07    1.06
   1  -3 -17    2.51    0.72
  -1   3  17    2.74    0.82
   0  -3 -17    3.80    0.78
  -1  -3 -17    8.62    1.12
   1   3  17    8.67    1.17
  -2  -3 -17    1.61    0.72
   2   3  17    1.04    0.69
   2  -4 -17   14.31    1.52
  -2   4  17   10.58    1.49
   1  -4 -17   39.18    2.03
   0  -4 -17   28.19    1.65
   0   4  17   28.43    1.94
  -1  -4 -17    9.65    1.16
   1   4  17    7.28    1.20
  -2  -4 -17    3.88    0.99
   2   4  17    3.34    0.92
   1  -5 -17   13.29    1.53
   0  -5 -17   14.21    1.46
   0   5  17   15.82    1.72
   1   5  17    6.03    1.25
  -2  -5 -17    9.08    1.35
   2   5  17    8.79    1.40
   1  -6 -17    0.76    0.60
  -1   6  17    1.81    0.90
   0  -6 -17    0.58    0.61
   0   6  17   -0.61    0.78
  -1  -6 -17   -0.16    0.59
   1   6  17   -0.78    0.82
   2   6  17    2.30    1.07
   0  -7 -17    1.62    0.78
   0   7  17    2.75    1.10
  -1  -7 -17   14.39    1.68
   1   7  17   14.19    1.89
   1   3 -18    6.65    1.14
  -1  -3  18    6.57    1.31
   0   3 -18   10.45    1.35
   0  -3  18    6.77    1.20
  -2  -2  18    1.84    0.86
   1   2 -18    7.45    1.16
  -1  -2  18    4.00    0.99
   0   2 -18    0.39    0.64
   0  -2  18    0.80    0.66
  -1   2 -18   -0.64    0.56
   1  -2  18   -0.01    0.50
   2   1 -18   -0.36    0.47
  -2  -1  18   -0.05    0.72
   1   1 -18    2.44    0.73
  -1  -1  18    1.58    0.73
   0   1 -18    2.41    0.77
   0  -1  18    2.58    0.86
  -1   1 -18    1.11    0.81
   1  -1  18    0.45    0.64
   2   0 -18   13.51    1.37
  -2   0  18    9.65    1.47
  -1   0  18    3.23    0.88
   0   0 -18   13.74    1.46
   0   0  18    9.74    1.27
  -1   0 -18    7.14    1.16
   1   0  18    5.64    1.02
  -2   0 -18    2.90    1.03
   2  -1 -18   12.03    1.34
  -2   1  18    8.73    1.37
   1  -1 -18   18.44    1.33
  -1   1  18   16.17    1.69
   0  -1 -18   12.86    1.36
   0   1  18   10.21    1.23
  -1  -1 -18    2.10    0.69
  -2  -1 -18    3.31    1.05
   2   1  18    3.17    0.84
   2  -2 -18    6.85    1.10
  -2   2  18    4.89    1.11
   1  -2 -18   10.18    1.21
  -1   2  18    9.93    1.42
   0   2  18    1.06    0.65
  -1  -2 -18    0.25    0.52
  -2  -2 -18    6.48    1.24
   2   2  18    5.40    1.04
   2  -3 -18    0.16    0.61
  -2   3  18    0.30    0.81
   1  -3 -18    1.41    0.63
  -1   3  18    2.30    0.87
  -1  -3 -18   18.62    1.51
   1   3  18   18.03    1.67
  -2  -3 -18    1.25    0.69
   2   3  18    1.00    0.77
   1  -4 -18    8.14    1.21
   0  -4 -18   29.62    1.72
   1   4  18   10.09    1.37
  -2  -4 -18    1.65    0.82
   2   4  18    2.07    0.93
   1  -5 -18   16.85    1.70
   0  -5 -18    0.93    0.66
   0   5  18    0.58    0.89
   1   5  18    1.49    1.00
  -2  -5 -18    0.49    0.68
   2   5  18    0.13    0.94
   0  -6 -18    1.22    0.72
   0   6  18    0.84    0.96
   1   6  18    0.18    0.95
  -1  -2  19   -0.57    0.52
   0   2 -19    0.21    0.64
   0  -2  19   -0.49    0.54
   1   1 -19    5.81    1.03
  -1  -1  19    3.86    0.99
   0   1 -19    1.41    0.69
   0  -1  19    2.97    0.86
  -1   1 -19    3.63    1.00
   1  -1  19    4.64    1.02
  -1   0  19    3.85    1.01
   0   0 -19   16.27    1.47
   0   0  19   12.15    1.48
  -1   0 -19    4.13    1.00
   1   0  19    5.45    1.10
  -2   1  19   12.07    1.71
  -1   1  19    6.66    1.24
   0  -1 -19    6.31    1.04
   0   1  19    4.00    0.96
  -1  -1 -19    3.50    0.91
   1  -2 -19    0.05    0.56
  -1   2  19   -0.22    0.67
  -1  -2 -19   -0.40    0.51
   2   2  19    2.43    0.87
   1  -3 -19   32.87    1.80
  -1   3  19   26.90    1.93
  -1  -3 -19   13.67    1.51
  -2  -3 -19    6.07    1.22
   2   3  19    4.92    1.07
   1  -4 -19   14.58    1.62
   1   4  19    8.70    1.40
   0  -5 -19   -0.68    0.54
   1   5  19    0.12    0.94
  -1   0  20   13.94    1.70
   0   0 -20    3.40    0.92
   0   0  20    3.42    1.00
  -1   1  20   -0.58    0.63
   0  -1 -20    3.64    0.90
   0   1  20    3.33    0.99
  -1  -1 -20    0.70    0.66
  -1   2  20    1.55    0.90
  -1  -2 -20    0.83    0.72
   1  -3 -20    7.81    1.18
  -1  -3 -20   12.06    1.47
   0   0   0    0.00    0.00
;
_shelx_hkl_checksum              6841
loop_
_space_group_symop_operation_xyz
'x, y, z'
'-x, -y, -z'
loop_
_atom_site_label
_atom_site_type_symbol
_atom_site_fract_x
_atom_site_fract_y
_atom_site_fract_z
_atom_site_U_iso_or_equiv
_atom_site_adp_type
_atom_site_occupancy
_atom_site_site_symmetry_order
_atom_site_calc_flag
_atom_site_refinement_flags_posn
_atom_site_refinement_flags_adp
_atom_site_refinement_flags_occupancy
_atom_site_disorder_assembly
_atom_site_disorder_group
Ag1 Ag 0.52766(8) 0.13914(4) 0.05272(2) 0.03197(10) Uani 1 1 d . . . . .
C1 C 0.1709(9) 0.3892(4) 0.1705(2) 0.0244(7) Uani 1 1 d . . . . .
C2 C 0.2086(8) 0.7882(4) 0.1290(2) 0.0208(6) Uani 1 1 d . . . . .
C3 C -0.3108(9) 0.8489(4) 0.4192(2) 0.0263(7) Uani 1 1 d . . . . .
C7 C -0.1749(8) 0.7321(4) 0.3548(2) 0.0223(6) Uani 1 1 d . . . . .
C8 C -0.1754(9) 0.5479(4) 0.3748(2) 0.0254(7) Uani 1 1 d . . . . .
H8 H -0.255444 0.497366 0.428542 0.030 Uiso 1 1 calc R U . . .
C9 C -0.0558(9) 0.4400(4) 0.3140(2) 0.0262(7) Uani 1 1 d . . . . .
H9 H -0.053271 0.316402 0.327250 0.031 Uiso 1 1 calc R U . . .
C4 C 0.0602(8) 0.5157(4) 0.2334(2) 0.0208(6) Uani 1 1 d . . . . .
C5 C 0.0663(8) 0.7005(4) 0.21293(19) 0.0200(6) Uani 1 1 d . . . . .
C6 C -0.0532(8) 0.8075(4) 0.2747(2) 0.0225(6) Uani 1 1 d . . . . .
H6 H -0.051650 0.930720 0.262117 0.027 Uiso 1 1 calc R U . . .
O1 O -0.0180(7) 0.4186(3) 0.09627(15) 0.0312(5) Uani 1 1 d . . . . .
H1 H -0.207219 0.510994 0.090397 0.037 Uiso 1 1 d R U . . .
O2 O 0.4203(7) 0.2610(3) 0.18744(16) 0.0356(6) Uani 1 1 d . . . . .
O3 O 0.4109(6) 0.6909(3) 0.08416(14) 0.0270(5) Uani 1 1 d . . . . .
O4 O 0.1181(6) 0.9585(3) 0.10780(16) 0.0298(5) Uani 1 1 d . . . . .
O5 O -0.2776(8) 1.0133(3) 0.40087(17) 0.0443(7) Uani 1 1 d . . . . .
H5 H -0.357308 1.083293 0.441585 0.053 Uiso 1 1 d R U . . .
O6 O -0.4527(8) 0.7827(3) 0.48714(16) 0.0392(6) Uani 1 1 d . . . . .
loop_
_atom_site_aniso_label
_atom_site_aniso_U_11
_atom_site_aniso_U_22
_atom_site_aniso_U_33
_atom_site_aniso_U_23
_atom_site_aniso_U_13
_atom_site_aniso_U_12
Ag1 0.04181(17) 0.02737(15) 0.02793(16) -0.01071(11) 0.01295(11) -0.00518(11)
C1 0.0300(18) 0.0214(16) 0.0239(17) -0.0100(13) 0.0053(13) -0.0053(13)
C2 0.0200(15) 0.0231(16) 0.0194(15) -0.0060(12) -0.0006(12) -0.0029(12)
C3 0.0317(18) 0.0257(17) 0.0236(17) -0.0110(14) 0.0065(14) -0.0049(14)
C7 0.0247(16) 0.0251(16) 0.0191(15) -0.0108(13) 0.0031(12) -0.0037(13)
C8 0.0297(17) 0.0268(16) 0.0203(16) -0.0064(13) 0.0041(13) -0.0055(13)
C9 0.0341(18) 0.0193(15) 0.0257(17) -0.0068(13) 0.0060(14) -0.0042(13)
C4 0.0211(15) 0.0206(15) 0.0219(16) -0.0093(12) 0.0021(12) -0.0027(12)
C5 0.0204(15) 0.0233(15) 0.0181(15) -0.0094(12) 0.0006(12) -0.0032(12)
C6 0.0246(16) 0.0195(15) 0.0243(16) -0.0084(13) 0.0002(13) -0.0029(12)
O1 0.0387(14) 0.0295(12) 0.0263(13) -0.0149(10) -0.0013(10) -0.0003(10)
O2 0.0379(14) 0.0296(13) 0.0380(15) -0.0170(11) -0.0011(11) 0.0058(11)
O3 0.0313(12) 0.0273(12) 0.0220(12) -0.0089(10) 0.0079(9) -0.0016(10)
O4 0.0311(13) 0.0209(11) 0.0354(14) -0.0036(10) 0.0079(10) -0.0028(10)
O5 0.074(2) 0.0269(13) 0.0390(15) -0.0201(12) 0.0259(14) -0.0149(13)
O6 0.0621(18) 0.0311(13) 0.0285(13) -0.0135(11) 0.0222(12) -0.0120(12)
loop_
_atom_type_symbol
_atom_type_description
_atom_type_scat_dispersion_real
_atom_type_scat_dispersion_imag
_atom_type_scat_source
C C 0.0033 0.0016 'International Tables Vol C Tables 4.2.6.8 and 6.1.1.4'
Ag Ag -0.8971 1.1015 'International Tables Vol C Tables 4.2.6.8 and 6.1.1.4'
O O 0.0106 0.0060 'International Tables Vol C Tables 4.2.6.8 and 6.1.1.4'
H H 0.0000 0.0000 'International Tables Vol C Tables 4.2.6.8 and 6.1.1.4'
loop_
_geom_angle_atom_site_label_1
_geom_angle_atom_site_label_2
_geom_angle_atom_site_label_3
_geom_angle
_geom_angle_site_symmetry_1
_geom_angle_site_symmetry_3
O3 Ag1 O4 132.96(9) 2_665 1_545
O3 Ag1 O4 108.75(8) 2_665 1_645
O4 Ag1 O4 104.86(8) 1_545 1_645
O3 Ag1 O2 124.95(8) 2_665 .
O4 Ag1 O2 84.62(8) 1_545 .
O4 Ag1 O2 92.47(8) 1_645 .
O3 Ag1 Ag1 82.10(6) 2_665 2_655
O4 Ag1 Ag1 67.00(6) 1_545 2_655
O4 Ag1 Ag1 88.10(6) 1_645 2_655
O2 Ag1 Ag1 150.69(6) . 2_655
O2 C1 O1 119.9(3) . .
O2 C1 C4 121.7(3) . .
O1 C1 C4 118.3(3) . .
O3 C2 O4 123.5(3) . .
O3 C2 C5 119.6(3) . .
O4 C2 C5 116.9(3) . .
O6 C3 O5 123.6(3) . .
O6 C3 C7 119.3(3) . .
O5 C3 C7 117.1(3) . .
C8 C7 C6 120.3(3) . .
C8 C7 C3 119.6(3) . .
C6 C7 C3 120.1(3) . .
C9 C8 C7 119.5(3) . .
C9 C8 H8 120.2 . .
C7 C8 H8 120.2 . .
C8 C9 C4 120.3(3) . .
C8 C9 H9 119.9 . .
C4 C9 H9 119.9 . .
C9 C4 C5 120.7(3) . .
C9 C4 C1 116.3(3) . .
C5 C4 C1 122.9(3) . .
C6 C5 C4 118.5(3) . .
C6 C5 C2 118.3(3) . .
C4 C5 C2 123.2(3) . .
C7 C6 C5 120.7(3) . .
C7 C6 H6 119.7 . .
C5 C6 H6 119.7 . .
C1 O1 H1 114.4 . .
C1 O2 Ag1 106.3(2) . .
C2 O3 Ag1 109.64(19) . 2_665
C2 O4 Ag1 122.4(2) . 1_565
C2 O4 Ag1 127.4(2) . 1_465
Ag1 O4 Ag1 104.86(8) 1_565 1_465
C3 O5 H5 116.4 . .
loop_
_geom_bond_atom_site_label_1
_geom_bond_atom_site_label_2
_geom_bond_distance
_geom_bond_site_symmetry_2
Ag1 O3 2.313(2) 2_665
Ag1 O4 2.345(2) 1_545
Ag1 O4 2.440(2) 1_645
Ag1 O2 2.449(2) .
Ag1 Ag1 2.9661(6) 2_655
C1 O2 1.205(4) .
C1 O1 1.316(4) .
C1 C4 1.504(4) .
C2 O3 1.260(4) .
C2 O4 1.261(4) .
C2 C5 1.503(4) .
C3 O6 1.253(4) .
C3 O5 1.272(4) .
C3 C7 1.489(4) .
C7 C8 1.389(4) .
C7 C6 1.390(4) .
C8 C9 1.387(4) .
C8 H8 0.9300 .
C9 C4 1.388(4) .
C9 H9 0.9300 .
C4 C5 1.399(4) .
C5 C6 1.394(4) .
C6 H6 0.9300 .
O1 H1 0.8905 .
O5 H5 0.9172 .
loop_
_geom_hbond_atom_site_label_D
_geom_hbond_atom_site_label_H
_geom_hbond_atom_site_label_A
_geom_hbond_distance_DH
_geom_hbond_distance_HA
_geom_hbond_distance_DA
_geom_hbond_angle_DHA
_geom_hbond_site_symmetry_A
O1 H1 O3 0.89 1.77 2.662(3) 177.1 1_455
O5 H5 O6 0.92 1.71 2.625(3) 174.4 2_476
